0:0:0
     RDKit          3D

 91 99  0  0  1  0  0  0  0  0999 V2000
  -29.6960  -18.7750   21.4420 C   0  0  0  0  0  3  0  0  0  0  0  0
  -30.0220  -17.8300   20.4090 C   0  0  0  0  0  0  0  0  0  0  0  0
  -29.4330  -20.6530   19.9890 C   0  0  0  0  0  0  0  0  0  0  0  0
  -29.8320  -19.7240   18.9520 C   0  0  0  0  0  0  0  0  0  0  0  0
  -29.4060  -20.1180   21.2480 N   0  0  0  0  0  0  0  0  0  0  0  0
  -30.0980  -18.3730   19.1520 N   0  0  0  0  0  0  0  0  0  0  0  0
  -29.8840  -16.2270   20.6780 C   0  0  1  0  0  0  0  0  0  0  0  0
  -29.9880  -16.0610   21.9990 F   0  0  0  0  0  0  0  0  0  0  0  0
  -28.5980  -16.0680   20.3850 F   0  0  0  0  0  0  0  0  0  0  0  0
  -30.7010  -14.9640   20.0150 C   0  0  0  0  0  0  0  0  0  0  0  0
  -30.5480  -12.6770   18.9280 C   0  0  0  0  0  2  0  0  0  0  0  0
  -29.5210  -12.7160   17.7710 C   0  0  0  0  0  2  0  0  0  0  0  0
  -28.0870  -12.4780   18.2870 C   0  0  0  0  0  2  0  0  0  0  0  0
  -27.7660  -13.3440   19.5290 C   0  0  0  0  0  3  0  0  0  0  0  0
  -28.8960  -13.2560   20.5820 C   0  0  0  0  0  2  0  0  0  0  0  0
  -30.1450  -13.6910   19.9360 N   0  0  0  0  0  0  0  0  0  0  0  0
  -31.8330  -15.1190   19.5360 O   0  0  0  0  0  0  0  0  0  0  0  0
  -25.4380  -13.9260   20.4380 C   0  0  0  0  0  0  0  0  0  0  0  0
  -24.3960  -13.1460   20.8530 C   0  0  0  0  0  0  0  0  0  0  0  0
  -24.8500  -11.7950   20.7490 C   0  0  0  0  0  0  0  0  0  0  0  0
  -26.4580  -13.0500   20.1000 N   0  0  0  0  0  0  0  0  0  0  0  0
  -26.1160  -11.7610   20.3500 N   0  0  0  0  0  0  0  0  0  0  0  0
  -24.1340  -10.5300   20.9450 C   0  0  0  0  0  0  0  0  0  0  0  0
  -24.5790   -9.5690   21.8790 C   0  0  0  0  0  3  0  0  0  0  0  0
  -23.8650   -8.3640   22.0600 C   0  0  0  0  0  3  0  0  0  0  0  0
  -22.6950   -8.1140   21.3060 C   0  0  0  0  0  0  0  0  0  0  0  0
  -22.2680   -9.0650   20.3630 C   0  0  0  0  0  3  0  0  0  0  0  0
  -22.9820  -10.2610   20.1800 C   0  0  0  0  0  3  0  0  0  0  0  0
  -21.9500   -6.9640   21.3990 O   0  0  0  0  0  0  0  0  0  0  0  0
  -21.8480   -6.2670   22.5760 C   0  0  0  0  0  0  0  0  0  0  0  0
  -21.2770   -6.8400   23.7340 C   0  0  0  0  0  3  0  0  0  0  0  0
  -21.1300   -6.0650   24.9030 C   0  0  0  0  0  3  0  0  0  0  0  0
  -21.5410   -4.7190   24.9130 C   0  0  0  0  0  0  0  0  0  0  0  0
  -22.1030   -4.1460   23.7590 C   0  0  0  0  0  3  0  0  0  0  0  0
  -22.2540   -4.9170   22.5930 C   0  0  0  0  0  0  0  0  0  0  0  0
  -22.7770   -4.3560   21.4780 F   0  0  0  0  0  0  0  0  0  0  0  0
  -21.3910   -3.9710   26.0310 F   0  0  0  0  0  0  0  0  0  0  0  0
  -23.0230  -13.6160   21.2360 C   0  0  0  0  0  0  0  0  0  0  0  0
  -22.3550  -12.8940   22.1270 N   0  0  0  0  0  0  0  0  0  0  0  0
  -22.5550  -14.6590   20.7810 O   0  0  0  0  0  0  0  0  0  0  0  0
  -22.7500  -12.0520   22.5210 H   0  0  0  0  0  0  0  0  0  0  0  0
  -21.4350  -13.1890   22.4250 H   0  0  0  0  0  0  0  0  0  0  0  0
  -25.5970  -15.3030   20.3010 N   0  0  0  0  0  0  0  0  0  0  0  0
  -24.8470  -15.9550   20.4990 H   0  0  0  0  0  0  0  0  0  0  0  0
  -26.4390  -15.7540   19.9700 H   0  0  0  0  0  0  0  0  0  0  0  0
  -28.6770  -19.7410   16.6960 C   0  0  0  0  0  1  0  0  0  0  0  0
  -29.9230  -20.1430   17.4930 C   0  0  0  0  0  2  0  0  0  0  0  0
  -28.6860  -22.0770   19.7280 C   0  0  0  0  0  2  0  0  0  0  0  0
  -29.1460  -23.6020   20.1500 C   0  0  0  0  0  3  0  0  0  0  0  0
  -28.1320  -24.8680   19.8110 C   0  0  0  0  0  3  0  0  0  0  0  0
  -28.3590  -26.3570   20.0810 O   0  0  0  0  0  0  0  0  0  0  0  0
  -24.6560  -31.8730   23.1490 C   0  0  0  0  0  0  0  0  0  0  0  0
  -27.2650  -27.2780   20.0300 C   0  0  0  0  0  0  0  0  0  0  0  0
  -23.4510  -30.4820   21.5080 C   0  0  0  0  0  3  0  0  0  0  0  0
  -24.9000  -28.9460   20.0530 C   0  0  0  0  0  0  0  0  0  0  0  0
  -25.9960  -30.7920   21.3160 C   0  0  0  0  0  2  0  0  0  0  0  0
  -26.0780  -29.4150   20.6480 C   0  0  0  0  0  0  0  0  0  0  0  0
  -27.2600  -28.5960   20.6230 C   0  0  0  0  0  3  0  0  0  0  0  0
  -26.0580  -26.8950   19.4000 C   0  0  0  0  0  3  0  0  0  0  0  0
  -24.8980  -27.6970   19.4160 C   0  0  0  0  0  3  0  0  0  0  0  0
  -23.6610  -29.8210   20.1200 C   0  0  0  0  0  2  0  0  0  0  0  0
  -24.7210  -31.0690   22.0450 N   0  0  0  0  0  0  0  0  0  0  0  0
  -23.5730  -32.1400   23.6920 O   0  0  0  0  0  0  0  0  0  0  0  0
  -22.7970  -29.4560   22.4650 C   0  0  0  0  0  0  0  0  0  0  0  0
  -21.4710  -29.2680   22.3450 N   0  0  0  0  0  0  0  0  0  0  0  0
  -23.4840  -28.8330   23.2790 O   0  0  0  0  0  0  0  0  0  0  0  0
  -20.9730  -29.8240   21.6630 H   0  0  0  0  0  0  0  0  0  0  0  0
  -18.1030  -28.0510   22.8840 C   0  0  0  0  0  0  0  0  0  0  0  0
  -20.6660  -28.3160   23.1140 C   0  0  0  0  0  3  0  0  0  0  0  0
  -20.7600  -26.8930   22.5150 C   0  0  0  0  0  2  0  0  0  0  0  0
  -19.6430  -26.5840   21.5130 C   0  0  0  0  0  2  0  0  0  0  0  0
  -18.2720  -26.7150   22.1820 C   0  0  0  0  0  2  0  0  0  0  0  0
  -19.2270  -28.8100   23.3080 C   0  0  0  0  0  0  0  0  0  0  0  0
  -19.0130  -30.0610   23.9260 C   0  0  0  0  0  3  0  0  0  0  0  0
  -17.7090  -30.5540   24.1230 C   0  0  0  0  0  3  0  0  0  0  0  0
  -16.6010  -29.7920   23.7140 C   0  0  0  0  0  3  0  0  0  0  0  0
  -16.7990  -28.5420   23.1030 C   0  0  0  0  0  3  0  0  0  0  0  0
  -25.9350  -32.5120   23.7700 C   0  0  0  0  0  3  0  0  0  0  0  0
  -25.6130  -33.9040   24.1210 N   0  0  0  0  0  0  0  0  0  0  0  0
  -25.9330  -34.9740   23.3810 C   0  0  0  0  0  0  0  0  0  0  0  0
  -26.5990  -34.8930   22.3450 O   0  0  0  0  0  0  0  0  0  0  0  0
  -25.0190  -34.0390   24.9280 H   0  0  0  0  0  0  0  0  0  0  0  0
  -24.2070  -36.7750   23.0460 C   0  0  0  0  0  1  0  0  0  0  0  0
  -25.4370  -36.3520   23.8640 C   0  0  0  0  0  3  0  0  0  0  0  0
  -27.5520  -37.2280   24.7560 C   0  0  0  0  0  1  0  0  0  0  0  0
  -26.4700  -37.4080   23.7910 N   0  0  0  0  0  0  0  0  0  0  0  0
  -26.0580  -38.3250   23.9450 H   0  0  0  0  0  0  0  0  0  0  0  0
  -26.4670  -31.7340   25.0360 C   0  0  1  0  0  0  0  0  0  0  0  0
  -25.3810  -31.4630   26.1040 C   0  0  0  0  0  1  0  0  0  0  0  0
  -27.0750  -30.3720   24.6280 C   0  0  0  0  0  1  0  0  0  0  0  0
  -27.6060  -32.5400   25.7060 C   0  0  0  0  0  1  0  0  0  0  0  0
  2  7  1  0
  2  1  2  0
  3  5  2  0
  4  6  2  0
  4  3  1  0
  5  1  1  0
  6  2  1  0
  7  8  1  1
  9  7  1  0
 10  7  1  0
 11 16  1  0
 12 13  1  0
 12 11  1  0
 14 13  1  0
 14 21  1  0
 14 15  1  0
 16 10  1  0
 16 15  1  0
 17 10  2  0
 18 19  2  0
 19 38  1  0
 20 19  1  0
 20 23  1  0
 21 22  1  0
 21 18  1  0
 22 20  2  0
 23 24  1  0
 24 25  2  0
 26 29  1  0
 26 25  1  0
 27 26  2  0
 28 27  1  0
 28 23  2  0
 29 30  1  0
 30 35  2  0
 30 31  1  0
 31 32  2  0
 32 33  1  0
 33 37  1  0
 34 33  2  0
 35 34  1  0
 36 35  1  0
 38 39  1  0
 39 42  1  0
 39 41  1  0
 40 38  2  0
 43 18  1  0
 43 44  1  0
 45 43  1  0
 46 47  1  0
 47  4  1  0
 48  3  1  0
 48 49  1  0
 50 51  1  0
 50 49  2  0
 52 63  2  0
 53 51  1  0
 53 58  1  0
 54 62  1  0
 54 64  1  0
 55 61  1  0
 55 57  1  0
 56 62  1  0
 57 56  1  0
 58 57  2  0
 59 60  1  0
 59 53  2  0
 60 55  2  0
 61 54  1  0
 62 52  1  0
 64 66  2  0
 65 64  1  0
 67 65  1  0
 68 77  2  0
 68 73  1  0
 69 65  1  0
 69 73  1  0
 70 69  1  0
 71 72  1  0
 71 70  1  0
 72 68  1  0
 73 74  2  0
 74 75  1  0
 76 75  2  0
 77 76  1  0
 78 52  1  0
 78 79  1  0
 78 88  1  0
 79 82  1  0
 80 84  1  0
 80 79  1  0
 81 80  2  0
 84 83  1  0
 86 84  1  0
 86 87  1  0
 86 85  1  0
 88 91  1  1
 88 89  1  0
 90 88  1  0
M  ISO  4   7 100  10 100  50 101  51 101
M  END
>  <TORSDO>  (1) 
F 21

>  <SCORE>  (1) 
-13.090

>  <name>  (1) 
0

>  <ligand_id>  (1) 
0

>  <original_smiles>  (1) 
[H]c1nc(C([H])([H])C([H])([H])C([H])([H])Oc2c([H])c([H])c3c(c2[H])C([H])([H])N(C(=O)C([H])(N([H])C(=O)C([H])(N([H])C([H])([H])[H])C([H])([H])[H])C(C([H])([H])[H])(C([H])([H])[H])C([H])([H])[H])C([H])(C(=O)N([H])C2([H])c4c([H])c([H])c([H])c([H])c4C([H])([H])C([H])([H])C2([H])[H])C3([H])[H])c(C([H])([H])C([H])([H])[H])nc1C(F)(F)C(=O)N1C([H])([H])C([H])([H])C([H])([H])C([H])(n2nc(-c3c([H])c([H])c(Oc4c([H])c([H])c(F)c([H])c4F)c([H])c3[H])c(C(=O)N([H])[H])c2N([H])[H])C1([H])[H]

>  <smiles>  (1) 
[H]c1nc(C([H])([H])C([H])([H])C([H])([H])Oc2c([H])c([H])c3c(c2[H])C([H])([H])N(C(=O)C([H])(N([H])C(=O)C([H])(N([H])C([H])([H])[H])C([H])([H])[H])C(C([H])([H])[H])(C([H])([H])[H])C([H])([H])[H])C([H])(C(=O)N([H])C2([H])c4c([H])c([H])c([H])c([H])c4C([H])([H])C([H])([H])C2([H])[H])C3([H])[H])c(C([H])([H])C([H])([H])[H])nc1C(F)(F)C(=O)N1C([H])([H])C([H])([H])C([H])([H])C([H])(n2nc(-c3c([H])c([H])c(Oc4c([H])c([H])c(F)c([H])c4F)c([H])c3[H])c(C(=O)N([H])[H])c2N([H])[H])C1([H])[H]

$$$$
1:0:0
     RDKit          3D

 84 91  0  0  1  0  0  0  0  0999 V2000
  -29.0610  -22.0340   20.3030 C   0  0  0  0  0  1  0  0  0  0  0  0
  -30.0070  -18.9860   20.1130 C   0  0  0  0  0  3  0  0  0  0  0  0
  -29.5540  -17.5420   20.1700 C   0  0  0  0  0  0  0  0  0  0  0  0
  -28.1900  -17.9960   20.3110 N   0  0  0  0  0  0  0  0  0  0  0  0
  -27.9250  -19.3590   20.3450 N   0  0  0  0  0  0  0  0  0  0  0  0
  -29.0250  -20.2040   20.1970 N   0  0  0  0  0  0  0  0  0  0  0  0
  -30.2840  -15.8000   20.0930 C   0  0  0  0  0  0  0  0  0  0  0  0
  -30.3890  -13.2180   19.3350 C   0  0  0  0  0  2  0  0  0  0  0  0
  -29.4910  -12.7710   18.1430 C   0  0  0  0  0  2  0  0  0  0  0  0
  -28.0840  -12.3940   18.6280 C   0  0  0  0  0  2  0  0  0  0  0  0
  -27.5730  -13.4050   19.6770 C   0  0  0  0  0  3  0  0  0  0  0  0
  -28.6120  -13.7810   20.7590 C   0  0  0  0  0  2  0  0  0  0  0  0
  -29.7680  -14.4160   20.0800 N   0  0  0  0  0  0  0  0  0  0  0  0
  -31.5100  -15.6780   19.8880 O   0  0  0  0  0  0  0  0  0  0  0  0
  -25.2410  -13.9020   20.5380 C   0  0  0  0  0  0  0  0  0  0  0  0
  -24.1970  -13.1100   20.9180 C   0  0  0  0  0  0  0  0  0  0  0  0
  -24.6710  -11.7630   20.8410 C   0  0  0  0  0  0  0  0  0  0  0  0
  -26.2790  -13.0430   20.2360 N   0  0  0  0  0  0  0  0  0  0  0  0
  -25.9540  -11.7460   20.4870 N   0  0  0  0  0  0  0  0  0  0  0  0
  -23.9530  -10.4930   21.0230 C   0  0  0  0  0  0  0  0  0  0  0  0
  -24.3880   -9.5200   21.9510 C   0  0  0  0  0  3  0  0  0  0  0  0
  -23.6640   -8.3220   22.1250 C   0  0  0  0  0  3  0  0  0  0  0  0
  -22.4890   -8.0850   21.3710 C   0  0  0  0  0  0  0  0  0  0  0  0
  -22.0710   -9.0460   20.4340 C   0  0  0  0  0  3  0  0  0  0  0  0
  -22.7970  -10.2370   20.2580 C   0  0  0  0  0  3  0  0  0  0  0  0
  -21.7360   -6.9370   21.4540 O   0  0  0  0  0  0  0  0  0  0  0  0
  -21.6610   -6.2080   22.6140 C   0  0  0  0  0  0  0  0  0  0  0  0
  -21.1780   -6.7670   23.8160 C   0  0  0  0  0  3  0  0  0  0  0  0
  -21.0520   -5.9630   24.9670 C   0  0  0  0  0  3  0  0  0  0  0  0
  -21.3990   -4.6000   24.9150 C   0  0  0  0  0  0  0  0  0  0  0  0
  -21.8770   -4.0400   23.7170 C   0  0  0  0  0  3  0  0  0  0  0  0
  -22.0050   -4.8410   22.5690 C   0  0  0  0  0  0  0  0  0  0  0  0
  -22.4440   -4.2910   21.4120 F   0  0  0  0  0  0  0  0  0  0  0  0
  -21.2720   -3.8250   26.0180 F   0  0  0  0  0  0  0  0  0  0  0  0
  -22.8070  -13.5740   21.2360 C   0  0  0  0  0  0  0  0  0  0  0  0
  -22.1090  -12.8650   22.1140 N   0  0  0  0  0  0  0  0  0  0  0  0
  -22.3510  -14.6050   20.7400 O   0  0  0  0  0  0  0  0  0  0  0  0
  -22.4930  -12.0330   22.5360 H   0  0  0  0  0  0  0  0  0  0  0  0
  -21.1770  -13.1590   22.3700 H   0  0  0  0  0  0  0  0  0  0  0  0
  -25.3920  -15.2790   20.3940 N   0  0  0  0  0  0  0  0  0  0  0  0
  -24.6330  -15.9270   20.5690 H   0  0  0  0  0  0  0  0  0  0  0  0
  -26.2460  -15.7420   20.1050 H   0  0  0  0  0  0  0  0  0  0  0  0
  -28.0110  -23.7050   20.1610 C   0  0  0  0  0  1  0  0  0  0  0  0
  -28.1560  -25.4890   20.3130 O   0  0  0  0  0  0  0  0  0  0  0  0
  -24.6690  -31.8640   23.2090 C   0  0  0  0  0  0  0  0  0  0  0  0
  -27.1930  -26.7280   20.2490 C   0  0  0  0  0  0  0  0  0  0  0  0
  -23.4910  -30.4720   21.5630 C   0  0  0  0  0  3  0  0  0  0  0  0
  -24.9420  -28.8060   20.1660 C   0  0  0  0  0  0  0  0  0  0  0  0
  -26.0740  -30.5860   21.4700 C   0  0  0  0  0  2  0  0  0  0  0  0
  -26.1350  -29.1480   20.8140 C   0  0  0  0  0  0  0  0  0  0  0  0
  -27.2430  -28.1380   20.8190 C   0  0  0  0  0  3  0  0  0  0  0  0
  -25.9660  -26.6100   19.5440 C   0  0  0  0  0  3  0  0  0  0  0  0
  -24.9000  -27.5650   19.5070 C   0  0  0  0  0  3  0  0  0  0  0  0
  -23.7430  -29.7700   20.1960 C   0  0  0  0  0  2  0  0  0  0  0  0
  -24.7700  -31.0090   22.1330 N   0  0  0  0  0  0  0  0  0  0  0  0
  -23.5720  -32.1720   23.7070 O   0  0  0  0  0  0  0  0  0  0  0  0
  -22.7560  -29.5030   22.5280 C   0  0  0  0  0  0  0  0  0  0  0  0
  -21.4240  -29.3550   22.3870 N   0  0  0  0  0  0  0  0  0  0  0  0
  -23.3980  -28.8810   23.3780 O   0  0  0  0  0  0  0  0  0  0  0  0
  -20.9560  -29.9070   21.6820 H   0  0  0  0  0  0  0  0  0  0  0  0
  -18.0270  -28.1470   22.8580 C   0  0  0  0  0  0  0  0  0  0  0  0
  -20.5840  -28.4230   23.1520 C   0  0  0  0  0  3  0  0  0  0  0  0
  -20.6940  -26.9870   22.5880 C   0  0  0  0  0  2  0  0  0  0  0  0
  -19.6080  -26.6570   21.5600 C   0  0  0  0  0  2  0  0  0  0  0  0
  -18.2180  -26.7990   22.1850 C   0  0  0  0  0  2  0  0  0  0  0  0
  -19.1380  -28.9170   23.2980 C   0  0  0  0  0  0  0  0  0  0  0  0
  -18.9030  -30.1750   23.8930 C   0  0  0  0  0  3  0  0  0  0  0  0
  -17.5930  -30.6660   24.0490 C   0  0  0  0  0  3  0  0  0  0  0  0
  -16.4980  -29.8960   23.6220 C   0  0  0  0  0  3  0  0  0  0  0  0
  -16.7160  -28.6370   23.0330 C   0  0  0  0  0  3  0  0  0  0  0  0
  -25.9280  -32.5110   23.8650 C   0  0  0  0  0  3  0  0  0  0  0  0
  -25.6080  -33.9150   24.1950 N   0  0  0  0  0  0  0  0  0  0  0  0
  -25.9210  -34.9780   23.4410 C   0  0  0  0  0  0  0  0  0  0  0  0
  -26.5650  -34.8800   22.3940 O   0  0  0  0  0  0  0  0  0  0  0  0
  -25.0300  -34.0630   25.0090 H   0  0  0  0  0  0  0  0  0  0  0  0
  -24.1650  -36.7670   23.1770 C   0  0  0  0  0  1  0  0  0  0  0  0
  -25.4500  -36.3680   23.9210 C   0  0  0  0  0  3  0  0  0  0  0  0
  -27.6150  -37.2830   24.6390 C   0  0  0  0  0  1  0  0  0  0  0  0
  -26.4670  -37.4300   23.7480 N   0  0  0  0  0  0  0  0  0  0  0  0
  -26.0600  -38.3480   23.9040 H   0  0  0  0  0  0  0  0  0  0  0  0
  -26.4040  -31.7540   25.1680 C   0  0  1  0  0  0  0  0  0  0  0  0
  -25.2820  -31.5420   26.2110 C   0  0  0  0  0  1  0  0  0  0  0  0
  -26.9840  -30.3640   24.8220 C   0  0  0  0  0  1  0  0  0  0  0  0
  -27.5440  -32.5470   25.8470 C   0  0  0  0  0  1  0  0  0  0  0  0
  2  3  2  0
  2  6  1  0
  3  4  1  0
  4  5  2  0
  6  1  1  0
  6  5  1  0
  7  3  1  0
  8 13  1  0
  9 10  1  0
  9  8  1  0
 11 10  1  0
 11 18  1  0
 11 12  1  0
 13  7  1  0
 13 12  1  0
 14  7  2  0
 15 16  2  0
 16 35  1  0
 17 16  1  0
 17 20  1  0
 18 19  1  0
 18 15  1  0
 19 17  2  0
 20 21  1  0
 21 22  2  0
 23 26  1  0
 23 22  1  0
 24 23  2  0
 25 24  1  0
 25 20  2  0
 26 27  1  0
 27 28  1  0
 28 29  2  0
 30 29  1  0
 30 34  1  0
 31 30  2  0
 32 27  2  0
 32 31  1  0
 33 32  1  0
 35 36  1  0
 36 39  1  0
 36 38  1  0
 37 35  2  0
 40 15  1  0
 40 41  1  0
 42 40  1  0
 43 44  1  0
 45 56  2  0
 46 44  1  0
 46 51  1  0
 47 55  1  0
 47 57  1  0
 48 54  1  0
 48 50  1  0
 49 55  1  0
 50 51  2  0
 50 49  1  0
 52 46  2  0
 53 52  1  0
 53 48  2  0
 54 47  1  0
 55 45  1  0
 57 59  2  0
 58 57  1  0
 60 58  1  0
 61 70  2  0
 61 66  1  0
 62 58  1  0
 62 66  1  0
 63 62  1  0
 64 65  1  0
 64 63  1  0
 65 61  1  0
 66 67  2  0
 67 68  1  0
 69 68  2  0
 70 69  1  0
 71 45  1  0
 71 72  1  0
 71 81  1  0
 72 75  1  0
 73 77  1  0
 73 72  1  0
 74 73  2  0
 77 76  1  0
 79 80  1  0
 79 77  1  0
 79 78  1  0
 81 84  1  1
 81 82  1  0
 83 81  1  0
M  ISO  4   3 100   7 100  43 101  44 101
M  END
>  <TORSDO>  (2) 
F 18

>  <SCORE>  (2) 
-16.563

>  <name>  (2) 
1

>  <ligand_id>  (2) 
1

>  <original_smiles>  (2) 
[H]c1c([H])c([H])c2c(c1[H])C([H])([H])C([H])([H])C([H])([H])C2([H])N([H])C(=O)C1([H])N(C(=O)C([H])(N([H])C(=O)C([H])(N([H])C([H])([H])[H])C([H])([H])[H])C(C([H])([H])[H])(C([H])([H])[H])C([H])([H])[H])C([H])([H])c2c([H])c(OC([H])([H])C([H])([H])n3nnc(C(=O)N4C([H])([H])C([H])([H])C([H])([H])C([H])(n5nc(-c6c([H])c([H])c(Oc7c([H])c([H])c(F)c([H])c7F)c([H])c6[H])c(C(=O)N([H])[H])c5N([H])[H])C4([H])[H])c3[H])c([H])c([H])c2C1([H])[H]

>  <smiles>  (2) 
[H]c1c([H])c([H])c2c(c1[H])C([H])([H])C([H])([H])C([H])([H])C2([H])N([H])C(=O)C1([H])N(C(=O)C([H])(N([H])C(=O)C([H])(N([H])C([H])([H])[H])C([H])([H])[H])C(C([H])([H])[H])(C([H])([H])[H])C([H])([H])[H])C([H])([H])c2c([H])c(OC([H])([H])C([H])([H])n3nnc(C(=O)N4C([H])([H])C([H])([H])C([H])([H])C([H])(n5nc(-c6c([H])c([H])c(Oc7c([H])c([H])c(F)c([H])c7F)c([H])c6[H])c(C(=O)N([H])[H])c5N([H])[H])C4([H])[H])c3[H])c([H])c([H])c2C1([H])[H]

$$$$
2:0:0
     RDKit          3D

 93101  0  0  1  0  0  0  0  0999 V2000
  -29.9430  -19.3080   22.2960 C   0  0  0  0  0  3  0  0  0  0  0  0
  -29.8690  -20.6600   22.4870 C   0  0  0  0  0  0  0  0  0  0  0  0
  -29.9380  -21.2000   21.1730 C   0  0  0  0  0  0  0  0  0  0  0  0
  -29.7870  -21.4190   23.7850 C   0  0  0  0  0  1  0  0  0  0  0  0
  -30.0080  -20.2400   20.2580 N   0  0  0  0  0  0  0  0  0  0  0  0
  -30.0050  -19.0570   20.9350 N   0  0  0  0  0  0  0  0  0  0  0  0
  -29.8000  -17.9010   18.7360 C   0  0  0  0  0  1  0  0  0  0  0  0
  -30.2560  -17.7900   20.2100 C   0  0  0  0  0  3  0  0  0  0  0  0
  -29.6580  -16.5230   20.9240 C   0  0  0  0  0  2  0  0  0  0  0  0
  -31.9320  -15.3720   21.0910 C   0  0  0  0  0  1  0  0  0  0  0  0
  -29.9860  -14.2710   22.0910 C   0  0  0  0  0  1  0  0  0  0  0  0
  -30.4080  -15.1410   20.8680 C   0  0  1  0  0  0  0  0  0  0  0  0
  -30.2220  -14.3740   19.5020 C   0  0  0  0  0  0  0  0  0  0  0  0
  -29.6130  -12.3440   18.2230 C   0  0  0  0  0  2  0  0  0  0  0  0
  -28.4650  -12.5400   17.2210 C   0  0  0  0  0  2  0  0  0  0  0  0
  -27.1150  -12.2770   17.9050 C   0  0  0  0  0  2  0  0  0  0  0  0
  -26.9710  -13.0870   19.2160 C   0  0  0  0  0  3  0  0  0  0  0  0
  -28.2130  -12.9500   20.1210 C   0  0  0  0  0  2  0  0  0  0  0  0
  -29.4280  -13.2720   19.3560 N   0  0  0  0  0  0  0  0  0  0  0  0
  -30.9590  -14.7210   18.5750 O   0  0  0  0  0  0  0  0  0  0  0  0
  -24.7340  -13.5540   20.4050 C   0  0  0  0  0  0  0  0  0  0  0  0
  -23.7850  -12.7190   20.9310 C   0  0  0  0  0  0  0  0  0  0  0  0
  -24.2800  -11.3910   20.7450 C   0  0  0  0  0  0  0  0  0  0  0  0
  -25.7450  -12.7300   19.9310 N   0  0  0  0  0  0  0  0  0  0  0  0
  -25.4870  -11.4230   20.1960 N   0  0  0  0  0  0  0  0  0  0  0  0
  -23.6490  -10.0920   21.0060 C   0  0  0  0  0  0  0  0  0  0  0  0
  -24.2070   -9.1690   21.9190 C   0  0  0  0  0  3  0  0  0  0  0  0
  -23.5730   -7.9320   22.1650 C   0  0  0  0  0  3  0  0  0  0  0  0
  -22.3670   -7.6090   21.4990 C   0  0  0  0  0  0  0  0  0  0  0  0
  -21.8280   -8.5210   20.5740 C   0  0  0  0  0  3  0  0  0  0  0  0
  -22.4630   -9.7480   20.3260 C   0  0  0  0  0  3  0  0  0  0  0  0
  -21.6930   -6.4220   21.6570 O   0  0  0  0  0  0  0  0  0  0  0  0
  -21.6890   -5.7480   22.8530 C   0  0  0  0  0  0  0  0  0  0  0  0
  -21.2160   -6.3450   24.0420 C   0  0  0  0  0  3  0  0  0  0  0  0
  -21.1650   -5.5950   25.2340 C   0  0  0  0  0  3  0  0  0  0  0  0
  -21.5770   -4.2500   25.2390 C   0  0  0  0  0  0  0  0  0  0  0  0
  -22.0400   -3.6510   24.0550 C   0  0  0  0  0  3  0  0  0  0  0  0
  -22.0940   -4.3990   22.8640 C   0  0  0  0  0  0  0  0  0  0  0  0
  -22.5230   -3.8110   21.7210 F   0  0  0  0  0  0  0  0  0  0  0  0
  -21.5210   -3.5260   26.3820 F   0  0  0  0  0  0  0  0  0  0  0  0
  -22.4480  -13.1210   21.4870 C   0  0  0  0  0  0  0  0  0  0  0  0
  -21.9400  -12.3780   22.4640 N   0  0  0  0  0  0  0  0  0  0  0  0
  -21.8660  -14.1280   21.0870 O   0  0  0  0  0  0  0  0  0  0  0  0
  -22.4260  -11.5630   22.8080 H   0  0  0  0  0  0  0  0  0  0  0  0
  -21.0510  -12.6250   22.8730 H   0  0  0  0  0  0  0  0  0  0  0  0
  -24.8140  -14.9360   20.2690 N   0  0  0  0  0  0  0  0  0  0  0  0
  -24.0670  -15.5580   20.5600 H   0  0  0  0  0  0  0  0  0  0  0  0
  -25.5770  -15.4260   19.8160 H   0  0  0  0  0  0  0  0  0  0  0  0
  -30.0000  -22.6600   20.7720 C   0  0  0  0  0  2  0  0  0  0  0  0
  -28.6260  -23.3680   20.7580 C   0  0  0  0  0  2  0  0  0  0  0  0
  -28.7150  -24.9090   20.7850 C   0  0  0  0  0  2  0  0  0  0  0  0
  -29.0520  -25.5530   19.4250 C   0  0  0  0  0  2  0  0  0  0  0  0
  -28.8810  -26.9750   19.4590 O   0  0  0  0  0  0  0  0  0  0  0  0
  -24.5640  -31.3480   23.0110 C   0  0  0  0  0  0  0  0  0  0  0  0
  -27.6100  -27.5070   19.5250 C   0  0  0  0  0  0  0  0  0  0  0  0
  -23.4760  -29.9330   21.2980 C   0  0  0  0  0  3  0  0  0  0  0  0
  -25.0510  -28.6950   19.7230 C   0  0  0  0  0  0  0  0  0  0  0  0
  -25.9340  -30.6090   21.0680 C   0  0  0  0  0  2  0  0  0  0  0  0
  -26.1560  -29.3140   20.3170 C   0  0  0  0  0  0  0  0  0  0  0  0
  -27.4370  -28.7280   20.2130 C   0  0  0  0  0  3  0  0  0  0  0  0
  -26.4810  -26.8930   18.9330 C   0  0  0  0  0  3  0  0  0  0  0  0
  -25.2070  -27.4820   19.0300 C   0  0  0  0  0  3  0  0  0  0  0  0
  -23.7150  -29.3890   19.8660 C   0  0  0  0  0  2  0  0  0  0  0  0
  -24.6750  -30.6420   21.8500 N   0  0  0  0  0  0  0  0  0  0  0  0
  -23.4780  -31.4480   23.5980 O   0  0  0  0  0  0  0  0  0  0  0  0
  -22.9890  -28.7720   22.1920 C   0  0  0  0  0  0  0  0  0  0  0  0
  -21.7160  -28.3800   22.0210 N   0  0  0  0  0  0  0  0  0  0  0  0
  -23.7530  -28.2290   22.9950 O   0  0  0  0  0  0  0  0  0  0  0  0
  -21.1560  -28.8810   21.3450 H   0  0  0  0  0  0  0  0  0  0  0  0
  -18.5970  -26.5830   22.3160 C   0  0  0  0  0  0  0  0  0  0  0  0
  -21.0500  -27.2860   22.7260 C   0  0  0  0  0  3  0  0  0  0  0  0
  -21.4380  -25.9180   22.1180 C   0  0  0  0  0  2  0  0  0  0  0  0
  -20.4590  -25.4380   21.0430 C   0  0  0  0  0  2  0  0  0  0  0  0
  -19.0460  -25.3100   21.6180 C   0  0  0  0  0  2  0  0  0  0  0  0
  -19.5380  -27.5180   22.8230 C   0  0  0  0  0  0  0  0  0  0  0  0
  -19.0690  -28.7010   23.4320 C   0  0  0  0  0  3  0  0  0  0  0  0
  -17.6890  -28.9550   23.5420 C   0  0  0  0  0  3  0  0  0  0  0  0
  -16.7610  -28.0190   23.0560 C   0  0  0  0  0  3  0  0  0  0  0  0
  -17.2150  -26.8350   22.4480 C   0  0  0  0  0  3  0  0  0  0  0  0
  -25.7890  -32.0810   23.6430 C   0  0  0  0  0  3  0  0  0  0  0  0
  -25.3440  -33.4230   24.0400 N   0  0  0  0  0  0  0  0  0  0  0  0
  -25.5460  -34.5350   23.3200 C   0  0  0  0  0  0  0  0  0  0  0  0
  -26.2010  -34.5470   22.2740 O   0  0  0  0  0  0  0  0  0  0  0  0
  -24.7570  -33.4810   24.8580 H   0  0  0  0  0  0  0  0  0  0  0  0
  -23.6250  -36.1380   23.0770 C   0  0  0  0  0  1  0  0  0  0  0  0
  -24.9220  -35.8410   23.8460 C   0  0  0  0  0  3  0  0  0  0  0  0
  -26.9680  -36.9200   24.6700 C   0  0  0  0  0  1  0  0  0  0  0  0
  -25.8320  -37.0040   23.7560 N   0  0  0  0  0  0  0  0  0  0  0  0
  -25.3330  -37.8680   23.9490 H   0  0  0  0  0  0  0  0  0  0  0  0
  -26.4070  -31.3110   24.8730 C   0  0  1  0  0  0  0  0  0  0  0  0
  -25.3590  -30.8840   25.9270 C   0  0  0  0  0  1  0  0  0  0  0  0
  -27.1520  -30.0390   24.4050 C   0  0  0  0  0  1  0  0  0  0  0  0
  -27.4550  -32.2050   25.5780 C   0  0  0  0  0  1  0  0  0  0  0  0
  1  2  2  0
  2  4  1  0
  3  2  1  0
  5  6  1  0
  5  3  2  0
  6  1  1  0
  8  7  1  0
  8  9  1  0
  8  6  1  0
 12  9  1  0
 12 10  1  1
 12 11  1  0
 13 12  1  0
 14 19  1  0
 15 16  1  0
 15 14  1  0
 17 16  1  0
 17 24  1  0
 17 18  1  0
 19 13  1  0
 19 18  1  0
 20 13  2  0
 21 22  2  0
 22 41  1  0
 23 22  1  0
 23 26  1  0
 24 25  1  0
 24 21  1  0
 25 23  2  0
 26 27  1  0
 27 28  2  0
 29 32  1  0
 29 28  1  0
 30 29  2  0
 31 30  1  0
 31 26  2  0
 32 33  1  0
 33 38  2  0
 33 34  1  0
 34 35  2  0
 35 36  1  0
 36 40  1  0
 37 36  2  0
 38 37  1  0
 39 38  1  0
 41 42  1  0
 42 44  1  0
 42 45  1  0
 43 41  2  0
 46 21  1  0
 46 47  1  0
 48 46  1  0
 49  3  1  0
 50 49  1  0
 50 51  1  0
 52 53  1  0
 52 51  1  0
 53 55  1  0
 54 65  2  0
 55 60  1  0
 56 64  1  0
 56 66  1  0
 57 63  1  0
 57 59  1  0
 58 64  1  0
 59 58  1  0
 60 59  2  0
 61 62  1  0
 61 55  2  0
 62 57  2  0
 63 56  1  0
 64 54  1  0
 66 68  2  0
 67 66  1  0
 69 67  1  0
 70 79  2  0
 70 75  1  0
 71 67  1  0
 71 75  1  0
 72 71  1  0
 73 74  1  0
 73 72  1  0
 74 70  1  0
 75 76  2  0
 76 77  1  0
 78 77  2  0
 79 78  1  0
 80 54  1  0
 80 81  1  0
 80 90  1  0
 81 84  1  0
 82 86  1  0
 82 81  1  0
 83 82  2  0
 86 85  1  0
 88 86  1  0
 88 89  1  0
 88 87  1  0
 90 93  1  1
 90 91  1  0
 92 90  1  0
M  ISO  4  12 100  13 100  52 101  53 101
M  END
>  <TORSDO>  (3) 
F 23

>  <SCORE>  (3) 
-7.868

>  <name>  (3) 
2

>  <ligand_id>  (3) 
2

>  <original_smiles>  (3) 
[H]c1c([H])c([H])c2c(c1[H])C([H])([H])C([H])([H])C([H])([H])C2([H])N([H])C(=O)C1([H])N(C(=O)C([H])(N([H])C(=O)C([H])(N([H])C([H])([H])[H])C([H])([H])[H])C(C([H])([H])[H])(C([H])([H])[H])C([H])([H])[H])C([H])([H])c2c([H])c(OC([H])([H])C([H])([H])C([H])([H])C([H])([H])c3nn(C([H])(C([H])([H])[H])C([H])([H])C(C(=O)N4C([H])([H])C([H])([H])C([H])([H])C([H])(n5nc(-c6c([H])c([H])c(Oc7c([H])c([H])c(F)c([H])c7F)c([H])c6[H])c(C(=O)N([H])[H])c5N([H])[H])C4([H])[H])(C([H])([H])[H])C([H])([H])[H])c([H])c3C([H])([H])[H])c([H])c([H])c2C1([H])[H]

>  <smiles>  (3) 
[H]c1c([H])c([H])c2c(c1[H])C([H])([H])C([H])([H])C([H])([H])C2([H])N([H])C(=O)C1([H])N(C(=O)C([H])(N([H])C(=O)C([H])(N([H])C([H])([H])[H])C([H])([H])[H])C(C([H])([H])[H])(C([H])([H])[H])C([H])([H])[H])C([H])([H])c2c([H])c(OC([H])([H])C([H])([H])C([H])([H])C([H])([H])c3nn(C([H])(C([H])([H])[H])C([H])([H])C(C(=O)N4C([H])([H])C([H])([H])C([H])([H])C([H])(n5nc(-c6c([H])c([H])c(Oc7c([H])c([H])c(F)c([H])c7F)c([H])c6[H])c(C(=O)N([H])[H])c5N([H])[H])C4([H])[H])(C([H])([H])[H])C([H])([H])[H])c([H])c3C([H])([H])[H])c([H])c([H])c2C1([H])[H]

$$$$
3:0:0
     RDKit          3D

 97105  0  0  1  0  0  0  0  0999 V2000
  -34.1900  -23.6120   21.1430 C   0  0  0  0  0  1  0  0  0  0  0  0
  -33.2200  -23.8790   20.0450 N   0  0  2  0  0  4  0  0  0  0  0  0
  -33.7470  -23.8020   19.1890 H   0  0  0  0  0  0  0  0  0  0  0  0
  -33.7660  -26.1670   19.2920 C   0  0  0  0  0  1  0  0  0  0  0  0
  -32.7400  -25.3010   20.0540 C   0  0  0  0  0  3  0  0  0  0  0  0
  -31.3030  -25.5340   19.4930 C   0  0  0  0  0  2  0  0  0  0  0  0
  -30.8550  -27.0100   19.4340 C   0  0  0  0  0  2  0  0  0  0  0  0
  -29.4040  -27.1990   18.9590 C   0  0  0  0  0  2  0  0  0  0  0  0
  -28.5040  -26.8330   19.9970 O   0  0  0  0  0  0  0  0  0  0  0  0
  -24.6210  -31.8240   23.2520 C   0  0  0  0  0  0  0  0  0  0  0  0
  -27.3410  -27.5590   20.0170 C   0  0  0  0  0  0  0  0  0  0  0  0
  -23.4420  -30.4880   21.5330 C   0  0  0  0  0  3  0  0  0  0  0  0
  -24.9280  -29.0150   20.0680 C   0  0  0  0  0  0  0  0  0  0  0  0
  -25.9660  -30.8750   21.3800 C   0  0  0  0  0  2  0  0  0  0  0  0
  -26.0690  -29.5300   20.6940 C   0  0  0  0  0  0  0  0  0  0  0  0
  -27.2790  -28.8030   20.6770 C   0  0  0  0  0  3  0  0  0  0  0  0
  -26.1870  -27.0420   19.3940 C   0  0  0  0  0  3  0  0  0  0  0  0
  -24.9790  -27.7680   19.4160 C   0  0  0  0  0  3  0  0  0  0  0  0
  -23.6760  -29.8630   20.1300 C   0  0  0  0  0  2  0  0  0  0  0  0
  -24.6950  -31.0750   22.1160 N   0  0  0  0  0  0  0  0  0  0  0  0
  -23.5320  -32.0680   23.7920 O   0  0  0  0  0  0  0  0  0  0  0  0
  -22.7850  -29.4280   22.4450 C   0  0  0  0  0  0  0  0  0  0  0  0
  -21.4630  -29.2440   22.2930 N   0  0  0  0  0  0  0  0  0  0  0  0
  -23.4600  -28.7710   23.2440 O   0  0  0  0  0  0  0  0  0  0  0  0
  -20.9790  -29.8250   21.6200 H   0  0  0  0  0  0  0  0  0  0  0  0
  -18.0890  -28.0090   22.6840 C   0  0  0  0  0  0  0  0  0  0  0  0
  -20.6410  -28.2730   23.0130 C   0  0  0  0  0  3  0  0  0  0  0  0
  -20.7630  -26.8660   22.3860 C   0  0  0  0  0  2  0  0  0  0  0  0
  -19.6840  -26.5730   21.3410 C   0  0  0  0  0  2  0  0  0  0  0  0
  -18.2890  -26.6860   21.9640 C   0  0  0  0  0  2  0  0  0  0  0  0
  -19.1950  -28.7620   23.1640 C   0  0  0  0  0  0  0  0  0  0  0  0
  -18.9570  -30.0000   23.7970 C   0  0  0  0  0  3  0  0  0  0  0  0
  -17.6450  -30.4860   23.9560 C   0  0  0  0  0  3  0  0  0  0  0  0
  -16.5540  -29.7310   23.4940 C   0  0  0  0  0  3  0  0  0  0  0  0
  -16.7760  -28.4940   22.8620 C   0  0  0  0  0  3  0  0  0  0  0  0
  -25.9000  -32.4310   23.9130 C   0  0  0  0  0  3  0  0  0  0  0  0
  -26.4040  -31.6100   25.1620 C   0  0  1  0  0  0  0  0  0  0  0  0
  -25.3000  -31.3270   26.2060 C   0  0  0  0  0  1  0  0  0  0  0  0
  -26.9940  -30.2520   24.7170 C   0  0  0  0  0  1  0  0  0  0  0  0
  -27.5460  -32.3770   25.8700 C   0  0  0  0  0  1  0  0  0  0  0  0
  -25.5840  -33.8140   24.2940 N   0  0  0  0  0  0  0  0  0  0  0  0
  -25.9310  -34.8960   23.5830 C   0  0  0  0  0  0  0  0  0  0  0  0
  -26.6220  -34.8320   22.5620 O   0  0  0  0  0  0  0  0  0  0  0  0
  -24.9700  -33.9350   25.0840 H   0  0  0  0  0  0  0  0  0  0  0  0
  -24.2120  -36.7050   23.2600 C   0  0  0  0  0  1  0  0  0  0  0  0
  -25.4330  -36.2660   24.0850 C   0  0  0  0  0  3  0  0  0  0  0  0
  -27.5500  -37.1150   24.9970 C   0  0  0  0  0  1  0  0  0  0  0  0
  -26.4690  -37.3210   24.0370 N   0  0  0  0  0  0  0  0  0  0  0  0
  -26.0590  -38.2360   24.2120 H   0  0  0  0  0  0  0  0  0  0  0  0
  -32.1910  -22.8050   19.9270 C   0  0  0  0  0  2  0  0  0  0  0  0
  -33.5790  -21.6100   18.1370 C   0  0  0  0  0  1  0  0  0  0  0  0
  -32.7790  -21.4530   19.4450 C   0  0  0  0  0  3  0  0  0  0  0  0
  -31.6920  -20.3770   19.2410 C   0  0  0  0  0  2  0  0  0  0  0  0
  -30.8040  -20.1100   20.4720 C   0  0  0  0  0  2  0  0  0  0  0  0
  -30.8790  -17.6590   21.0820 C   0  0  0  0  0  3  0  0  0  0  0  0
  -29.2170  -18.2760   19.8080 C   0  0  0  0  0  3  0  0  0  0  0  0
  -30.1340  -16.5680   20.7010 C   0  0  0  0  0  0  0  0  0  0  0  0
  -29.0570  -16.9570   19.9070 N   0  0  0  0  0  0  0  0  0  0  0  0
  -30.2990  -18.7520   20.4520 N   0  0  0  0  0  0  0  0  0  0  0  0
  -30.8150  -14.4120   20.0460 C   0  0  0  0  0  0  0  0  0  0  0  0
  -30.3290  -12.3420   18.8030 C   0  0  0  0  0  2  0  0  0  0  0  0
  -29.3160  -12.5980   17.6730 C   0  0  0  0  0  2  0  0  0  0  0  0
  -27.8730  -12.4670   18.1950 C   0  0  0  0  0  2  0  0  0  0  0  0
  -27.6330  -13.2850   19.4910 C   0  0  0  0  0  3  0  0  0  0  0  0
  -28.7530  -13.0300   20.5250 C   0  0  0  0  0  2  0  0  0  0  0  0
  -30.0530  -13.2970   19.8850 N   0  0  0  0  0  0  0  0  0  0  0  0
  -31.8090  -14.6550   19.3510 O   0  0  0  0  0  0  0  0  0  0  0  0
  -31.1200  -15.0120   22.3410 C   0  0  0  0  0  1  0  0  0  0  0  0
  -30.4650  -15.2370   21.0500 N   0  0  0  0  0  0  0  0  0  0  0  0
  -25.2890  -13.9070   20.3530 C   0  0  0  0  0  0  0  0  0  0  0  0
  -24.2400  -13.1400   20.7850 C   0  0  0  0  0  0  0  0  0  0  0  0
  -24.6880  -11.7850   20.7180 C   0  0  0  0  0  0  0  0  0  0  0  0
  -26.3100  -13.0190   20.0540 N   0  0  0  0  0  0  0  0  0  0  0  0
  -25.9550  -11.7380   20.3300 N   0  0  0  0  0  0  0  0  0  0  0  0
  -23.9660  -10.5250   20.9490 C   0  0  0  0  0  0  0  0  0  0  0  0
  -24.4290   -9.5720   21.8830 C   0  0  0  0  0  3  0  0  0  0  0  0
  -23.7110   -8.3770   22.1010 C   0  0  0  0  0  3  0  0  0  0  0  0
  -22.5150   -8.1280   21.3880 C   0  0  0  0  0  0  0  0  0  0  0  0
  -22.0720   -9.0700   20.4420 C   0  0  0  0  0  3  0  0  0  0  0  0
  -22.7900  -10.2560   20.2210 C   0  0  0  0  0  3  0  0  0  0  0  0
  -21.7630   -6.9850   21.5160 O   0  0  0  0  0  0  0  0  0  0  0  0
  -21.7300   -6.2710   22.6870 C   0  0  0  0  0  0  0  0  0  0  0  0
  -21.3270   -6.8570   23.9080 C   0  0  0  0  0  3  0  0  0  0  0  0
  -21.2420   -6.0690   25.0730 C   0  0  0  0  0  3  0  0  0  0  0  0
  -21.5490   -4.6970   25.0210 C   0  0  0  0  0  0  0  0  0  0  0  0
  -21.9450   -4.1100   23.8050 C   0  0  0  0  0  3  0  0  0  0  0  0
  -22.0330   -4.8950   22.6420 C   0  0  0  0  0  0  0  0  0  0  0  0
  -22.3950   -4.3200   21.4710 F   0  0  0  0  0  0  0  0  0  0  0  0
  -21.4610   -3.9400   26.1380 F   0  0  0  0  0  0  0  0  0  0  0  0
  -22.8660  -13.6240   21.1470 C   0  0  0  0  0  0  0  0  0  0  0  0
  -22.1900  -12.9340   22.0590 N   0  0  0  0  0  0  0  0  0  0  0  0
  -22.3980  -14.6490   20.6520 O   0  0  0  0  0  0  0  0  0  0  0  0
  -22.5810  -12.1080   22.4850 H   0  0  0  0  0  0  0  0  0  0  0  0
  -21.2680  -13.2380   22.3350 H   0  0  0  0  0  0  0  0  0  0  0  0
  -25.4560  -15.2770   20.1730 N   0  0  0  0  0  0  0  0  0  0  0  0
  -24.7170  -15.9500   20.3560 H   0  0  0  0  0  0  0  0  0  0  0  0
  -26.3240  -15.7100   19.8720 H   0  0  0  0  0  0  0  0  0  0  0  0
  2  5  1  0
  2  1  1  0
  2  3  1  6
  5  4  1  0
  6  5  1  0
  7  6  1  0
  8  7  1  0
  8  9  1  0
  9 11  1  0
 10 21  2  0
 11 16  1  0
 12 20  1  0
 12 22  1  0
 13 19  1  0
 13 15  1  0
 14 20  1  0
 15 14  1  0
 16 15  2  0
 17 18  1  0
 17 11  2  0
 18 13  2  0
 19 12  1  0
 20 10  1  0
 22 24  2  0
 23 22  1  0
 25 23  1  0
 26 35  2  0
 26 31  1  0
 27 23  1  0
 27 31  1  0
 28 27  1  0
 29 30  1  0
 29 28  1  0
 30 26  1  0
 31 32  2  0
 32 33  1  0
 34 33  2  0
 35 34  1  0
 36 10  1  0
 36 41  1  0
 36 37  1  0
 37 40  1  1
 37 38  1  0
 39 37  1  0
 41 44  1  0
 42 46  1  0
 42 41  1  0
 43 42  2  0
 46 45  1  0
 48 46  1  0
 48 49  1  0
 48 47  1  0
 50  2  1  0
 52 51  1  0
 52 50  1  0
 53 52  1  0
 53 54  1  0
 56 58  2  0
 56 59  1  0
 57 69  1  0
 57 55  2  0
 58 57  1  0
 59 54  1  0
 59 55  1  0
 60 69  1  0
 61 66  1  0
 62 63  1  0
 62 61  1  0
 64 63  1  0
 64 73  1  0
 64 65  1  0
 66 60  1  0
 66 65  1  0
 67 60  2  0
 69 68  1  0
 70 71  2  0
 71 90  1  0
 72 71  1  0
 72 75  1  0
 73 74  1  0
 73 70  1  0
 74 72  2  0
 75 76  1  0
 76 77  2  0
 78 81  1  0
 78 77  1  0
 79 78  2  0
 80 79  1  0
 80 75  2  0
 81 82  1  0
 82 83  1  0
 83 84  2  0
 85 84  1  0
 85 89  1  0
 86 85  2  0
 87 82  2  0
 87 86  1  0
 88 87  1  0
 90 91  1  0
 91 94  1  0
 91 93  1  0
 92 90  2  0
 95 70  1  0
 95 96  1  0
 97 95  1  0
M  ISO  4   8 101   9 101  60 100  69 100
M  END
>  <TORSDO>  (4) 
F 25

>  <SCORE>  (4) 
-10.485

>  <name>  (4) 
3

>  <ligand_id>  (4) 
3

>  <original_smiles>  (4) 
[H]c1c([H])c([H])c2c(c1[H])C([H])([H])C([H])([H])C([H])([H])C2([H])N([H])C(=O)C1([H])N(C(=O)C([H])(N([H])C(=O)C([H])(N([H])C([H])([H])[H])C([H])([H])[H])C(C([H])([H])[H])(C([H])([H])[H])C([H])([H])[H])C([H])([H])c2c([H])c(OC([H])([H])C([H])([H])C([H])([H])C([H])(C([H])([H])[H])[N+]([H])(C([H])([H])[H])C([H])([H])C([H])(C([H])([H])[H])C([H])([H])C([H])([H])n3c([H])nc(N(C(=O)N4C([H])([H])C([H])([H])C([H])([H])C([H])(n5nc(-c6c([H])c([H])c(Oc7c([H])c([H])c(F)c([H])c7F)c([H])c6[H])c(C(=O)N([H])[H])c5N([H])[H])C4([H])[H])C([H])([H])[H])c3[H])c([H])c([H])c2C1([H])[H]

>  <smiles>  (4) 
[H]c1c([H])c([H])c2c(c1[H])C([H])([H])C([H])([H])C([H])([H])C2([H])N([H])C(=O)C1([H])N(C(=O)C([H])(N([H])C(=O)C([H])(N([H])C([H])([H])[H])C([H])([H])[H])C(C([H])([H])[H])(C([H])([H])[H])C([H])([H])[H])C([H])([H])c2c([H])c(OC([H])([H])C([H])([H])C([H])([H])C([H])(C([H])([H])[H])[N+]([H])(C([H])([H])[H])C([H])([H])C([H])(C([H])([H])[H])C([H])([H])C([H])([H])n3c([H])nc(N(C(=O)N4C([H])([H])C([H])([H])C([H])([H])C([H])(n5nc(-c6c([H])c([H])c(Oc7c([H])c([H])c(F)c([H])c7F)c([H])c6[H])c(C(=O)N([H])[H])c5N([H])[H])C4([H])[H])C([H])([H])[H])c3[H])c([H])c([H])c2C1([H])[H]

$$$$
4:0:0
     RDKit          3D

 90 98  0  0  1  0  0  0  0  0999 V2000
  -29.2070  -19.1660   20.1730 C   0  0  0  0  0  3  0  0  0  0  0  0
  -29.6230  -20.5530   20.3550 C   0  0  0  0  0  0  0  0  0  0  0  0
  -30.0920  -18.0140   20.4010 C   0  0  0  0  0  0  0  0  0  0  0  0
  -31.6710  -19.6300   20.9410 C   0  0  0  0  0  0  0  0  0  0  0  0
  -33.0940  -19.9030   21.3790 C   0  0  0  0  0  1  0  0  0  0  0  0
  -30.9040  -20.7150   20.7350 N   0  0  0  0  0  0  0  0  0  0  0  0
  -31.3360  -18.3340   20.8140 N   0  0  0  0  0  0  0  0  0  0  0  0
  -28.9380  -16.4590   18.8570 C   0  0  0  0  0  1  0  0  0  0  0  0
  -28.5760  -16.3330   21.4060 C   0  0  0  0  0  1  0  0  0  0  0  0
  -29.6090  -16.4380   20.2580 C   0  0  2  0  0  0  0  0  0  0  0  0
  -30.5320  -15.0160   20.2740 C   0  0  0  0  0  0  0  0  0  0  0  0
  -30.4930  -12.6350   19.3820 C   0  0  0  0  0  2  0  0  0  0  0  0
  -29.5460  -12.5520   18.1570 C   0  0  0  0  0  2  0  0  0  0  0  0
  -28.0740  -12.3470   18.5790 C   0  0  0  0  0  2  0  0  0  0  0  0
  -27.6610  -13.2500   19.7690 C   0  0  0  0  0  3  0  0  0  0  0  0
  -28.7370  -13.2230   20.8780 C   0  0  0  0  0  2  0  0  0  0  0  0
  -29.9970  -13.7140   20.2860 N   0  0  0  0  0  0  0  0  0  0  0  0
  -31.7450  -15.0770   20.0280 O   0  0  0  0  0  0  0  0  0  0  0  0
  -25.2690  -13.8440   20.4680 C   0  0  0  0  0  0  0  0  0  0  0  0
  -24.2050  -13.0730   20.8390 C   0  0  0  0  0  0  0  0  0  0  0  0
  -24.6720  -11.7230   20.8170 C   0  0  0  0  0  0  0  0  0  0  0  0
  -26.3200  -12.9640   20.2550 N   0  0  0  0  0  0  0  0  0  0  0  0
  -25.9650  -11.6830   20.5230 N   0  0  0  0  0  0  0  0  0  0  0  0
  -23.9480  -10.4630   21.0020 C   0  0  0  0  0  0  0  0  0  0  0  0
  -24.3670   -9.5060   21.9520 C   0  0  0  0  0  3  0  0  0  0  0  0
  -23.6420   -8.3090   22.1270 C   0  0  0  0  0  3  0  0  0  0  0  0
  -22.4840   -8.0600   21.3510 C   0  0  0  0  0  0  0  0  0  0  0  0
  -22.0850   -9.0060   20.3910 C   0  0  0  0  0  3  0  0  0  0  0  0
  -22.8100  -10.1960   20.2140 C   0  0  0  0  0  3  0  0  0  0  0  0
  -21.7320   -6.9150   21.4370 O   0  0  0  0  0  0  0  0  0  0  0  0
  -21.6460   -6.1970   22.6020 C   0  0  0  0  0  0  0  0  0  0  0  0
  -21.1680   -6.7740   23.7990 C   0  0  0  0  0  3  0  0  0  0  0  0
  -21.0290   -5.9820   24.9550 C   0  0  0  0  0  3  0  0  0  0  0  0
  -21.3570   -4.6140   24.9170 C   0  0  0  0  0  0  0  0  0  0  0  0
  -21.8290   -4.0360   23.7240 C   0  0  0  0  0  3  0  0  0  0  0  0
  -21.9700   -4.8250   22.5690 C   0  0  0  0  0  0  0  0  0  0  0  0
  -22.4040   -4.2600   21.4180 F   0  0  0  0  0  0  0  0  0  0  0  0
  -21.2160   -3.8500   26.0250 F   0  0  0  0  0  0  0  0  0  0  0  0
  -22.8060  -13.5510   21.0970 C   0  0  0  0  0  0  0  0  0  0  0  0
  -22.0760  -12.8630   21.9670 N   0  0  0  0  0  0  0  0  0  0  0  0
  -22.3690  -14.5700   20.5630 O   0  0  0  0  0  0  0  0  0  0  0  0
  -22.4430  -12.0380   22.4180 H   0  0  0  0  0  0  0  0  0  0  0  0
  -21.1380  -13.1660   22.1870 H   0  0  0  0  0  0  0  0  0  0  0  0
  -25.4130  -15.2140   20.2650 N   0  0  0  0  0  0  0  0  0  0  0  0
  -24.6230  -15.8450   20.3440 H   0  0  0  0  0  0  0  0  0  0  0  0
  -26.2400  -15.6610   19.8950 H   0  0  0  0  0  0  0  0  0  0  0  0
  -28.7160  -21.8880   20.0790 C   0  0  0  0  0  2  0  0  0  0  0  0
  -29.0930  -23.4790   20.4230 C   0  0  0  0  0  3  0  0  0  0  0  0
  -28.0620  -24.7520   20.0800 C   0  0  0  0  0  3  0  0  0  0  0  0
  -28.2930  -26.2620   20.3150 O   0  0  0  0  0  0  0  0  0  0  0  0
  -24.6370  -31.9170   23.2440 C   0  0  0  0  0  0  0  0  0  0  0  0
  -27.2180  -27.2150   20.2350 C   0  0  0  0  0  0  0  0  0  0  0  0
  -23.4340  -30.5210   21.6050 C   0  0  0  0  0  3  0  0  0  0  0  0
  -24.8820  -28.9380   20.1920 C   0  0  0  0  0  0  0  0  0  0  0  0
  -25.9860  -30.7860   21.4430 C   0  0  0  0  0  2  0  0  0  0  0  0
  -26.0590  -29.3930   20.7990 C   0  0  0  0  0  0  0  0  0  0  0  0
  -27.2270  -28.5470   20.8040 C   0  0  0  0  0  3  0  0  0  0  0  0
  -26.0130  -26.8510   19.5930 C   0  0  0  0  0  3  0  0  0  0  0  0
  -24.8700  -27.6780   19.5750 C   0  0  0  0  0  3  0  0  0  0  0  0
  -23.6550  -29.8350   20.2300 C   0  0  0  0  0  2  0  0  0  0  0  0
  -24.7050  -31.0960   22.1530 N   0  0  0  0  0  0  0  0  0  0  0  0
  -23.5500  -32.2080   23.7680 O   0  0  0  0  0  0  0  0  0  0  0  0
  -22.7490  -29.5200   22.5690 C   0  0  0  0  0  0  0  0  0  0  0  0
  -21.4190  -29.3610   22.4420 N   0  0  0  0  0  0  0  0  0  0  0  0
  -23.4160  -28.8900   23.3940 O   0  0  0  0  0  0  0  0  0  0  0  0
  -20.9380  -29.9210   21.7530 H   0  0  0  0  0  0  0  0  0  0  0  0
  -18.0260  -28.2010   22.9530 C   0  0  0  0  0  0  0  0  0  0  0  0
  -20.5900  -28.4330   23.2140 C   0  0  0  0  0  3  0  0  0  0  0  0
  -20.6720  -26.9990   22.6410 C   0  0  0  0  0  2  0  0  0  0  0  0
  -19.5640  -26.6900   21.6290 C   0  0  0  0  0  2  0  0  0  0  0  0
  -18.1860  -26.8500   22.2770 C   0  0  0  0  0  2  0  0  0  0  0  0
  -19.1550  -28.9510   23.3800 C   0  0  0  0  0  0  0  0  0  0  0  0
  -18.9500  -30.2140   23.9750 C   0  0  0  0  0  3  0  0  0  0  0  0
  -17.6500  -30.7280   24.1460 C   0  0  0  0  0  3  0  0  0  0  0  0
  -16.5380  -29.9760   23.7350 C   0  0  0  0  0  3  0  0  0  0  0  0
  -16.7260  -28.7130   23.1440 C   0  0  0  0  0  3  0  0  0  0  0  0
  -25.9160  -32.5480   23.8720 C   0  0  0  0  0  3  0  0  0  0  0  0
  -26.4260  -31.7740   25.1490 C   0  0  1  0  0  0  0  0  0  0  0  0
  -25.3290  -31.5370   26.2130 C   0  0  0  0  0  1  0  0  0  0  0  0
  -27.0060  -30.3950   24.7590 C   0  0  0  0  0  1  0  0  0  0  0  0
  -27.5780  -32.5630   25.8150 C   0  0  0  0  0  1  0  0  0  0  0  0
  -25.6060  -33.9470   24.2100 N   0  0  0  0  0  0  0  0  0  0  0  0
  -25.9240  -35.0040   23.4500 C   0  0  0  0  0  0  0  0  0  0  0  0
  -26.5740  -34.9050   22.4060 O   0  0  0  0  0  0  0  0  0  0  0  0
  -25.0260  -34.0970   25.0220 H   0  0  0  0  0  0  0  0  0  0  0  0
  -24.1760  -36.7900   23.1530 C   0  0  0  0  0  1  0  0  0  0  0  0
  -25.4450  -36.3910   23.9230 C   0  0  0  0  0  3  0  0  0  0  0  0
  -27.6000  -37.2890   24.6840 C   0  0  0  0  0  1  0  0  0  0  0  0
  -26.4670  -37.4490   23.7760 N   0  0  0  0  0  0  0  0  0  0  0  0
  -26.0610  -38.3680   23.9330 H   0  0  0  0  0  0  0  0  0  0  0  0
  1  2  2  0
  1  3  1  0
  2  6  1  0
  3  7  2  0
  4  5  1  0
  6  4  2  0
  7  4  1  0
 10  8  1  6
 10 11  1  0
 10  3  1  0
 10  9  1  0
 11 17  1  0
 12 17  1  0
 13 14  1  0
 13 12  1  0
 15 14  1  0
 15 22  1  0
 15 16  1  0
 17 16  1  0
 18 11  2  0
 19 20  2  0
 20 39  1  0
 21 20  1  0
 21 24  1  0
 22 19  1  0
 22 23  1  0
 23 21  2  0
 24 25  1  0
 25 26  2  0
 27 30  1  0
 27 26  1  0
 28 27  2  0
 29 28  1  0
 29 24  2  0
 30 31  1  0
 31 32  1  0
 32 33  2  0
 34 33  1  0
 34 38  1  0
 35 34  2  0
 36 31  2  0
 36 35  1  0
 37 36  1  0
 39 40  1  0
 40 43  1  0
 40 42  1  0
 41 39  2  0
 44 45  1  0
 44 19  1  0
 46 44  1  0
 47  2  1  0
 47 48  1  0
 49 50  1  0
 49 48  2  0
 51 62  2  0
 52 50  1  0
 52 57  1  0
 53 61  1  0
 53 63  1  0
 54 60  1  0
 54 56  1  0
 55 61  1  0
 56 57  2  0
 56 55  1  0
 58 52  2  0
 59 58  1  0
 59 54  2  0
 60 53  1  0
 61 51  1  0
 63 65  2  0
 64 63  1  0
 66 64  1  0
 67 76  2  0
 67 72  1  0
 68 64  1  0
 68 72  1  0
 69 68  1  0
 70 71  1  0
 70 69  1  0
 71 67  1  0
 72 73  2  0
 73 74  1  0
 75 74  2  0
 76 75  1  0
 77 51  1  0
 77 82  1  0
 77 78  1  0
 78 81  1  1
 78 79  1  0
 80 78  1  0
 82 85  1  0
 83 87  1  0
 83 82  1  0
 84 83  2  0
 87 86  1  0
 89 87  1  0
 89 90  1  0
 89 88  1  0
M  ISO  4  10 100  11 100  49 101  50 101
M  END
>  <TORSDO>  (5) 
F 20

>  <SCORE>  (5) 
-13.685

>  <name>  (5) 
4

>  <ligand_id>  (5) 
4

>  <original_smiles>  (5) 
[H]c1c(C([H])([H])C([H])([H])C([H])([H])Oc2c([H])c([H])c3c(c2[H])C([H])([H])N(C(=O)C([H])(N([H])C(=O)C([H])(N([H])C([H])([H])[H])C([H])([H])[H])C(C([H])([H])[H])(C([H])([H])[H])C([H])([H])[H])C([H])(C(=O)N([H])C2([H])c4c([H])c([H])c([H])c([H])c4C([H])([H])C([H])([H])C2([H])[H])C3([H])[H])nc(C([H])([H])[H])nc1C(C(=O)N1C([H])([H])C([H])([H])C([H])([H])C([H])(n2nc(-c3c([H])c([H])c(Oc4c([H])c([H])c(F)c([H])c4F)c([H])c3[H])c(C(=O)N([H])[H])c2N([H])[H])C1([H])[H])(C([H])([H])[H])C([H])([H])[H]

>  <smiles>  (5) 
[H]c1c(C([H])([H])C([H])([H])C([H])([H])Oc2c([H])c([H])c3c(c2[H])C([H])([H])N(C(=O)C([H])(N([H])C(=O)C([H])(N([H])C([H])([H])[H])C([H])([H])[H])C(C([H])([H])[H])(C([H])([H])[H])C([H])([H])[H])C([H])(C(=O)N([H])C2([H])c4c([H])c([H])c([H])c([H])c4C([H])([H])C([H])([H])C2([H])[H])C3([H])[H])nc(C([H])([H])[H])nc1C(C(=O)N1C([H])([H])C([H])([H])C([H])([H])C([H])(n2nc(-c3c([H])c([H])c(Oc4c([H])c([H])c(F)c([H])c4F)c([H])c3[H])c(C(=O)N([H])[H])c2N([H])[H])C1([H])[H])(C([H])([H])[H])C([H])([H])[H]

$$$$
5:0:0
     RDKit          3D

 95103  0  0  1  0  0  0  0  0999 V2000
  -28.1380  -20.3480   19.4000 C   0  0  0  0  0  3  0  0  0  0  0  0
  -27.7460  -19.1140   18.9740 C   0  0  0  0  0  0  0  0  0  0  0  0
  -29.7140  -18.8990   20.0520 C   0  0  0  0  0  3  0  0  0  0  0  0
  -29.3680  -20.2480   20.0160 N   0  0  0  0  0  0  0  0  0  0  0  0
  -28.7440  -18.2690   19.3700 N   0  0  0  0  0  0  0  0  0  0  0  0
  -28.7610  -17.2830   19.1510 H   0  0  0  0  0  0  0  0  0  0  0  0
  -26.3100  -19.5970   17.0070 C   0  0  0  0  0  1  0  0  0  0  0  0
  -25.2990  -18.9410   19.1980 C   0  0  0  0  0  1  0  0  0  0  0  0
  -26.5480  -17.2310   17.8090 C   0  0  0  0  0  1  0  0  0  0  0  0
  -26.4890  -18.7060   18.2510 C   0  0  2  0  0  0  0  0  0  0  0  0
  -30.9170  -18.0490   20.5660 C   0  0  0  0  0  2  0  0  0  0  0  0
  -29.2250  -16.6340   21.9010 C   0  0  0  0  0  1  0  0  0  0  0  0
  -31.5280  -16.8580   22.7150 C   0  0  0  0  0  1  0  0  0  0  0  0
  -30.6950  -16.6670   21.4220 C   0  0  2  0  0  0  0  0  0  0  0  0
  -31.2910  -15.2910   20.7810 C   0  0  0  0  0  0  0  0  0  0  0  0
  -31.1840  -13.0140   19.7180 C   0  0  0  0  0  2  0  0  0  0  0  0
  -30.3180  -13.0490   18.4380 C   0  0  0  0  0  2  0  0  0  0  0  0
  -28.8280  -12.8370   18.7720 C   0  0  0  0  0  2  0  0  0  0  0  0
  -28.3630  -13.7160   19.9610 C   0  0  0  0  0  3  0  0  0  0  0  0
  -29.3580  -13.6070   21.1380 C   0  0  0  0  0  2  0  0  0  0  0  0
  -30.6740  -14.0530   20.6530 N   0  0  0  0  0  0  0  0  0  0  0  0
  -32.4410  -15.3870   20.3440 O   0  0  0  0  0  0  0  0  0  0  0  0
  -25.9350  -14.2840   20.5790 C   0  0  0  0  0  0  0  0  0  0  0  0
  -24.8540  -13.4990   20.8630 C   0  0  0  0  0  0  0  0  0  0  0  0
  -25.3240  -12.1530   20.8180 C   0  0  0  0  0  0  0  0  0  0  0  0
  -26.9940  -13.4150   20.3670 N   0  0  0  0  0  0  0  0  0  0  0  0
  -26.6300  -12.1260   20.5740 N   0  0  0  0  0  0  0  0  0  0  0  0
  -24.5960  -10.8850   20.9370 C   0  0  0  0  0  0  0  0  0  0  0  0
  -24.9030   -9.9490   21.9470 C   0  0  0  0  0  3  0  0  0  0  0  0
  -24.1730   -8.7450   22.0520 C   0  0  0  0  0  3  0  0  0  0  0  0
  -23.1230   -8.4710   21.1440 C   0  0  0  0  0  0  0  0  0  0  0  0
  -22.8350   -9.3980   20.1260 C   0  0  0  0  0  3  0  0  0  0  0  0
  -23.5670  -10.5920   20.0210 C   0  0  0  0  0  3  0  0  0  0  0  0
  -22.3780   -7.3170   21.1520 O   0  0  0  0  0  0  0  0  0  0  0  0
  -22.0480   -6.6840   22.3240 C   0  0  0  0  0  0  0  0  0  0  0  0
  -21.3060   -7.3310   23.3360 C   0  0  0  0  0  3  0  0  0  0  0  0
  -20.9270   -6.6210   24.4930 C   0  0  0  0  0  3  0  0  0  0  0  0
  -21.2840   -5.2670   24.6370 C   0  0  0  0  0  0  0  0  0  0  0  0
  -22.0190   -4.6210   23.6280 C   0  0  0  0  0  3  0  0  0  0  0  0
  -22.3970   -5.3270   22.4720 C   0  0  0  0  0  0  0  0  0  0  0  0
  -23.0860   -4.6950   21.4930 F   0  0  0  0  0  0  0  0  0  0  0  0
  -20.9140   -4.5820   25.7440 F   0  0  0  0  0  0  0  0  0  0  0  0
  -23.4450  -13.9710   21.0770 C   0  0  0  0  0  0  0  0  0  0  0  0
  -22.6850  -13.2660   21.9070 N   0  0  0  0  0  0  0  0  0  0  0  0
  -23.0250  -14.9970   20.5430 O   0  0  0  0  0  0  0  0  0  0  0  0
  -23.0370  -12.4380   22.3640 H   0  0  0  0  0  0  0  0  0  0  0  0
  -21.7370  -13.5610   22.0890 H   0  0  0  0  0  0  0  0  0  0  0  0
  -26.0940  -15.6570   20.4690 N   0  0  0  0  0  0  0  0  0  0  0  0
  -25.3090  -16.2840   20.6020 H   0  0  0  0  0  0  0  0  0  0  0  0
  -26.9710  -16.1350   20.3340 H   0  0  0  0  0  0  0  0  0  0  0  0
  -30.0770  -21.5200   20.5010 C   0  0  0  0  0  2  0  0  0  0  0  0
  -29.2840  -22.9030   20.1880 C   0  0  0  0  0  2  0  0  0  0  0  0
  -29.7460  -24.3820   20.6050 C   0  0  0  0  0  2  0  0  0  0  0  0
  -28.7270  -25.5480   20.1740 C   0  0  0  0  0  2  0  0  0  0  0  0
  -28.8900  -26.9790   20.5550 O   0  0  0  0  0  0  0  0  0  0  0  0
  -24.9240  -32.1050   23.7620 C   0  0  0  0  0  0  0  0  0  0  0  0
  -27.7600  -27.8220   20.4980 C   0  0  0  0  0  0  0  0  0  0  0  0
  -23.8140  -30.8040   21.9800 C   0  0  0  0  0  3  0  0  0  0  0  0
  -25.3550  -29.3890   20.5060 C   0  0  0  0  0  0  0  0  0  0  0  0
  -26.3500  -31.1830   21.9220 C   0  0  0  0  0  2  0  0  0  0  0  0
  -26.4870  -29.8540   21.1860 C   0  0  0  0  0  0  0  0  0  0  0  0
  -27.6900  -29.0820   21.1740 C   0  0  0  0  0  3  0  0  0  0  0  0
  -26.6020  -27.4250   19.7850 C   0  0  0  0  0  3  0  0  0  0  0  0
  -25.4160  -28.1820   19.7960 C   0  0  0  0  0  3  0  0  0  0  0  0
  -24.0960  -30.2310   20.5650 C   0  0  0  0  0  2  0  0  0  0  0  0
  -25.0450  -31.3770   22.6140 N   0  0  0  0  0  0  0  0  0  0  0  0
  -23.8150  -32.3250   24.2720 O   0  0  0  0  0  0  0  0  0  0  0  0
  -23.1390  -29.7100   22.8410 C   0  0  0  0  0  0  0  0  0  0  0  0
  -21.8340  -29.4810   22.6140 N   0  0  0  0  0  0  0  0  0  0  0  0
  -23.7900  -29.0730   23.6720 O   0  0  0  0  0  0  0  0  0  0  0  0
  -21.3680  -30.0510   21.9220 H   0  0  0  0  0  0  0  0  0  0  0  0
  -18.4940  -28.1030   22.8140 C   0  0  0  0  0  0  0  0  0  0  0  0
  -21.0110  -28.4700   23.2790 C   0  0  0  0  0  3  0  0  0  0  0  0
  -21.2240  -27.0740   22.6490 C   0  0  0  0  0  2  0  0  0  0  0  0
  -20.2130  -26.7500   21.5430 C   0  0  0  0  0  2  0  0  0  0  0  0
  -18.7850  -26.7990   22.0910 C   0  0  0  0  0  2  0  0  0  0  0  0
  -19.5400  -28.8950   23.3590 C   0  0  0  0  0  0  0  0  0  0  0  0
  -19.2170  -30.1150   23.9910 C   0  0  0  0  0  3  0  0  0  0  0  0
  -17.8810  -30.5450   24.0850 C   0  0  0  0  0  3  0  0  0  0  0  0
  -16.8480  -29.7510   23.5560 C   0  0  0  0  0  3  0  0  0  0  0  0
  -17.1560  -28.5310   22.9270 C   0  0  0  0  0  3  0  0  0  0  0  0
  -26.1690  -32.7170   24.4740 C   0  0  0  0  0  3  0  0  0  0  0  0
  -25.8650  -34.1240   24.7740 N   0  0  0  0  0  0  0  0  0  0  0  0
  -26.2390  -35.1620   24.0150 C   0  0  0  0  0  0  0  0  0  0  0  0
  -26.9520  -35.0370   23.0140 O   0  0  0  0  0  0  0  0  0  0  0  0
  -25.2410  -34.2960   25.5490 H   0  0  0  0  0  0  0  0  0  0  0  0
  -24.5360  -36.9620   23.5800 C   0  0  0  0  0  1  0  0  0  0  0  0
  -25.7520  -36.5630   24.4330 C   0  0  0  0  0  3  0  0  0  0  0  0
  -27.8630  -37.4540   25.3150 C   0  0  0  0  0  1  0  0  0  0  0  0
  -26.7960  -37.6050   24.3300 N   0  0  0  0  0  0  0  0  0  0  0  0
  -26.3910  -38.5310   24.4420 H   0  0  0  0  0  0  0  0  0  0  0  0
  -26.5700  -31.9470   25.7920 C   0  0  1  0  0  0  0  0  0  0  0  0
  -25.3880  -31.7150   26.7600 C   0  0  0  0  0  1  0  0  0  0  0  0
  -27.1830  -30.5680   25.4550 C   0  0  0  0  0  1  0  0  0  0  0  0
  -27.6580  -32.7400   26.5530 C   0  0  0  0  0  1  0  0  0  0  0  0
  1  4  1  0
  2  5  1  0
  2  1  2  0
  3 11  1  0
  4  3  1  0
  4 51  1  0
  5  3  1  0
  6  5  1  0
 10  7  1  6
  9 10  1  0
 10  2  1  0
 10  8  1  0
 11 14  1  0
 14 12  1  1
 14 13  1  0
 15 14  1  0
 16 21  1  0
 17 18  1  0
 17 16  1  0
 19 18  1  0
 19 26  1  0
 19 20  1  0
 21 15  1  0
 21 20  1  0
 22 15  2  0
 23 24  2  0
 24 43  1  0
 25 24  1  0
 25 28  1  0
 26 27  1  0
 26 23  1  0
 27 25  2  0
 28 29  1  0
 29 30  2  0
 31 34  1  0
 31 30  1  0
 32 31  2  0
 33 32  1  0
 33 28  2  0
 34 35  1  0
 35 40  2  0
 35 36  1  0
 36 37  2  0
 37 38  1  0
 38 42  1  0
 39 38  2  0
 40 39  1  0
 41 40  1  0
 43 44  1  0
 44 47  1  0
 44 46  1  0
 45 43  2  0
 48 23  1  0
 48 49  1  0
 50 48  1  0
 52 51  1  0
 52 53  1  0
 54 55  1  0
 54 53  1  0
 56 67  2  0
 57 55  1  0
 57 62  1  0
 58 66  1  0
 58 68  1  0
 59 65  1  0
 59 61  1  0
 60 66  1  0
 61 60  1  0
 62 61  2  0
 63 64  1  0
 63 57  2  0
 64 59  2  0
 65 58  1  0
 66 56  1  0
 68 70  2  0
 69 68  1  0
 71 69  1  0
 72 81  2  0
 72 77  1  0
 73 69  1  0
 73 77  1  0
 74 73  1  0
 75 76  1  0
 75 74  1  0
 76 72  1  0
 77 78  2  0
 78 79  1  0
 80 79  2  0
 81 80  1  0
 82 56  1  0
 82 83  1  0
 82 92  1  0
 83 86  1  0
 84 88  1  0
 84 83  1  0
 85 84  2  0
 88 87  1  0
 90 88  1  0
 90 91  1  0
 90 89  1  0
 92 95  1  1
 92 93  1  0
 94 92  1  0
M  ISO  4  14 100  15 100  54 101  55 101
M  END
>  <TORSDO>  (6) 
F 23

>  <SCORE>  (6) 
-6.208

>  <name>  (6) 
5

>  <ligand_id>  (6) 
5

>  <original_smiles>  (6) 
[H]c1c([H])c([H])c2c(c1[H])C([H])([H])C([H])([H])C([H])([H])C2([H])N([H])C(=O)C1([H])N(C(=O)C([H])(N([H])C(=O)C([H])(N([H])C([H])([H])[H])C([H])([H])[H])C(C([H])([H])[H])(C([H])([H])[H])C([H])([H])[H])C([H])([H])c2c([H])c(OC([H])([H])C([H])([H])C([H])([H])C([H])([H])n3c([H])c(C(C([H])([H])[H])(C([H])([H])[H])C([H])([H])[H])[n+]([H])c3C([H])([H])C(C(=O)N3C([H])([H])C([H])([H])C([H])([H])C([H])(n4nc(-c5c([H])c([H])c(Oc6c([H])c([H])c(F)c([H])c6F)c([H])c5[H])c(C(=O)N([H])[H])c4N([H])[H])C3([H])[H])(C([H])([H])[H])C([H])([H])[H])c([H])c([H])c2C1([H])[H]

>  <smiles>  (6) 
[H]c1c([H])c([H])c2c(c1[H])C([H])([H])C([H])([H])C([H])([H])C2([H])N([H])C(=O)C1([H])N(C(=O)C([H])(N([H])C(=O)C([H])(N([H])C([H])([H])[H])C([H])([H])[H])C(C([H])([H])[H])(C([H])([H])[H])C([H])([H])[H])C([H])([H])c2c([H])c(OC([H])([H])C([H])([H])C([H])([H])C([H])([H])n3c([H])c(C(C([H])([H])[H])(C([H])([H])[H])C([H])([H])[H])[n+]([H])c3C([H])([H])C(C(=O)N3C([H])([H])C([H])([H])C([H])([H])C([H])(n4nc(-c5c([H])c([H])c(Oc6c([H])c([H])c(F)c([H])c6F)c([H])c5[H])c(C(=O)N([H])[H])c4N([H])[H])C3([H])[H])(C([H])([H])[H])C([H])([H])[H])c([H])c([H])c2C1([H])[H]

$$$$
6:0:0
     RDKit          3D

 93101  0  0  1  0  0  0  0  0999 V2000
  -28.8420  -20.2880   20.8110 C   0  0  0  0  0  3  0  0  0  0  0  0
  -30.6180  -21.3150   20.1450 C   0  0  0  0  0  3  0  0  0  0  0  0
  -29.7530  -19.3400   20.3820 C   0  0  0  0  0  0  0  0  0  0  0  0
  -30.8960  -20.0230   19.9560 N   0  0  0  0  0  0  0  0  0  0  0  0
  -29.3890  -21.5650   20.6360 N   0  0  0  0  0  0  0  0  0  0  0  0
  -29.6050  -17.4970   18.7000 C   0  0  0  0  0  1  0  0  0  0  0  0
  -28.1730  -17.4310   20.7430 C   0  0  0  0  0  1  0  0  0  0  0  0
  -29.5680  -17.8220   20.2080 C   0  0  2  0  0  0  0  0  0  0  0  0
  -30.6280  -16.9440   20.9620 C   0  0  0  0  0  2  0  0  0  0  0  0
  -30.9030  -14.5520   20.1590 C   0  0  0  0  0  0  0  0  0  0  0  0
  -30.4880  -12.4630   18.9100 C   0  0  0  0  0  2  0  0  0  0  0  0
  -29.4850  -12.7590   17.7760 C   0  0  0  0  0  2  0  0  0  0  0  0
  -28.0280  -12.6450   18.2760 C   0  0  0  0  0  2  0  0  0  0  0  0
  -27.7890  -13.3870   19.6180 C   0  0  0  0  0  3  0  0  0  0  0  0
  -28.9070  -13.0800   20.6430 C   0  0  0  0  0  2  0  0  0  0  0  0
  -30.2030  -13.3930   20.0150 N   0  0  0  0  0  0  0  0  0  0  0  0
  -31.9550  -14.7760   19.5520 O   0  0  0  0  0  0  0  0  0  0  0  0
  -30.3130  -15.4960   20.9160 N   0  0  0  0  0  0  0  0  0  0  0  0
  -29.4670  -15.2160   21.3900 H   0  0  0  0  0  0  0  0  0  0  0  0
  -25.4350  -14.0030   20.4640 C   0  0  0  0  0  0  0  0  0  0  0  0
  -24.3820  -13.2350   20.8850 C   0  0  0  0  0  0  0  0  0  0  0  0
  -24.8210  -11.8800   20.7880 C   0  0  0  0  0  0  0  0  0  0  0  0
  -26.4570  -13.1160   20.1560 N   0  0  0  0  0  0  0  0  0  0  0  0
  -26.0890  -11.8310   20.3960 N   0  0  0  0  0  0  0  0  0  0  0  0
  -24.0850  -10.6240   20.9850 C   0  0  0  0  0  0  0  0  0  0  0  0
  -24.5310   -9.6400   21.8950 C   0  0  0  0  0  3  0  0  0  0  0  0
  -23.7970   -8.4480   22.0780 C   0  0  0  0  0  3  0  0  0  0  0  0
  -22.6010   -8.2320   21.3490 C   0  0  0  0  0  0  0  0  0  0  0  0
  -22.1750   -9.2050   20.4270 C   0  0  0  0  0  3  0  0  0  0  0  0
  -22.9110  -10.3880   20.2430 C   0  0  0  0  0  3  0  0  0  0  0  0
  -21.8350   -7.0960   21.4430 O   0  0  0  0  0  0  0  0  0  0  0  0
  -21.7850   -6.3570   22.5980 C   0  0  0  0  0  0  0  0  0  0  0  0
  -21.3430   -6.9120   23.8190 C   0  0  0  0  0  3  0  0  0  0  0  0
  -21.2400   -6.0970   24.9660 C   0  0  0  0  0  3  0  0  0  0  0  0
  -21.5730   -4.7310   24.8910 C   0  0  0  0  0  0  0  0  0  0  0  0
  -22.0140   -4.1770   23.6750 C   0  0  0  0  0  3  0  0  0  0  0  0
  -22.1170   -4.9880   22.5320 C   0  0  0  0  0  0  0  0  0  0  0  0
  -22.5190   -4.4450   21.3580 F   0  0  0  0  0  0  0  0  0  0  0  0
  -21.4660   -3.9500   25.9910 F   0  0  0  0  0  0  0  0  0  0  0  0
  -23.0130  -13.7220   21.2590 C   0  0  0  0  0  0  0  0  0  0  0  0
  -22.3260  -13.0170   22.1500 N   0  0  0  0  0  0  0  0  0  0  0  0
  -22.5610  -14.7680   20.7950 O   0  0  0  0  0  0  0  0  0  0  0  0
  -22.6970  -12.1710   22.5550 H   0  0  0  0  0  0  0  0  0  0  0  0
  -21.4090  -13.3310   22.4360 H   0  0  0  0  0  0  0  0  0  0  0  0
  -25.5960  -15.3770   20.3000 N   0  0  0  0  0  0  0  0  0  0  0  0
  -24.8360  -16.0280   20.4610 H   0  0  0  0  0  0  0  0  0  0  0  0
  -26.4030  -15.8140   19.8730 H   0  0  0  0  0  0  0  0  0  0  0  0
  -28.6900  -22.8250   20.9740 C   0  0  0  0  0  2  0  0  0  0  0  0
  -30.5470  -24.5600   21.3540 C   0  0  0  0  0  1  0  0  0  0  0  0
  -29.5590  -24.2950   19.0320 C   0  0  0  0  0  1  0  0  0  0  0  0
  -29.2720  -24.2320   20.5500 C   0  0  1  0  0  0  0  0  0  0  0  0
  -28.1950  -25.3170   20.8980 C   0  0  0  0  0  2  0  0  0  0  0  0
  -28.4480  -26.6850   20.4750 O   0  0  0  0  0  0  0  0  0  0  0  0
  -24.5410  -31.9570   23.3180 C   0  0  0  0  0  0  0  0  0  0  0  0
  -27.3070  -27.4680   20.3960 C   0  0  0  0  0  0  0  0  0  0  0  0
  -23.3960  -30.5130   21.6720 C   0  0  0  0  0  3  0  0  0  0  0  0
  -24.9030  -28.9690   20.3130 C   0  0  0  0  0  0  0  0  0  0  0  0
  -25.9270  -30.8950   21.5360 C   0  0  0  0  0  2  0  0  0  0  0  0
  -26.0450  -29.5130   20.9190 C   0  0  0  0  0  0  0  0  0  0  0  0
  -27.2520  -28.7700   20.9560 C   0  0  0  0  0  3  0  0  0  0  0  0
  -26.1510  -26.9620   19.7570 C   0  0  0  0  0  3  0  0  0  0  0  0
  -24.9500  -27.6930   19.7320 C   0  0  0  0  0  3  0  0  0  0  0  0
  -23.6500  -29.8150   20.3100 C   0  0  0  0  0  2  0  0  0  0  0  0
  -24.6390  -31.1380   22.2330 N   0  0  0  0  0  0  0  0  0  0  0  0
  -23.4410  -32.2230   23.8240 O   0  0  0  0  0  0  0  0  0  0  0  0
  -22.7320  -29.4990   22.6300 C   0  0  0  0  0  0  0  0  0  0  0  0
  -21.4140  -29.2900   22.4640 N   0  0  0  0  0  0  0  0  0  0  0  0
  -23.4000  -28.9030   23.4780 O   0  0  0  0  0  0  0  0  0  0  0  0
  -20.9360  -29.8240   21.7520 H   0  0  0  0  0  0  0  0  0  0  0  0
  -18.0490  -28.0390   22.8740 C   0  0  0  0  0  0  0  0  0  0  0  0
  -20.5900  -28.3550   23.2300 C   0  0  0  0  0  3  0  0  0  0  0  0
  -20.7410  -26.9130   22.6930 C   0  0  0  0  0  2  0  0  0  0  0  0
  -19.6820  -26.5430   21.6490 C   0  0  0  0  0  2  0  0  0  0  0  0
  -18.2740  -26.6780   22.2370 C   0  0  0  0  0  2  0  0  0  0  0  0
  -19.1360  -28.8320   23.3250 C   0  0  0  0  0  0  0  0  0  0  0  0
  -18.8740  -30.1060   23.8750 C   0  0  0  0  0  3  0  0  0  0  0  0
  -17.5540  -30.5870   23.9810 C   0  0  0  0  0  3  0  0  0  0  0  0
  -16.4800  -29.7920   23.5460 C   0  0  0  0  0  3  0  0  0  0  0  0
  -16.7280  -28.5200   22.9980 C   0  0  0  0  0  3  0  0  0  0  0  0
  -25.8000  -32.6160   23.9620 C   0  0  0  0  0  3  0  0  0  0  0  0
  -25.4760  -34.0230   24.2290 N   0  0  0  0  0  0  0  0  0  0  0  0
  -25.8350  -35.0490   23.4470 C   0  0  0  0  0  0  0  0  0  0  0  0
  -26.5430  -34.9140   22.4460 O   0  0  0  0  0  0  0  0  0  0  0  0
  -24.8580  -34.2040   25.0070 H   0  0  0  0  0  0  0  0  0  0  0  0
  -24.1170  -36.8170   22.9560 C   0  0  0  0  0  1  0  0  0  0  0  0
  -25.3230  -36.4490   23.8360 C   0  0  0  0  0  3  0  0  0  0  0  0
  -27.4130  -37.3710   24.7350 C   0  0  0  0  0  1  0  0  0  0  0  0
  -26.3550  -37.5020   23.7340 N   0  0  0  0  0  0  0  0  0  0  0  0
  -25.9400  -38.4250   23.8300 H   0  0  0  0  0  0  0  0  0  0  0  0
  -26.2770  -31.8930   25.2810 C   0  0  1  0  0  0  0  0  0  0  0  0
  -25.1430  -31.6700   26.3090 C   0  0  0  0  0  1  0  0  0  0  0  0
  -26.9010  -30.5170   24.9550 C   0  0  0  0  0  1  0  0  0  0  0  0
  -27.3820  -32.7290   25.9680 C   0  0  0  0  0  1  0  0  0  0  0  0
  2  5  1  0
  3  1  2  0
  4  2  2  0
  4  3  1  0
  5  1  1  0
  5 48  1  0
  8  6  1  6
  8  3  1  0
  8  7  1  0
  8  9  1  0
 10 18  1  0
 11 16  1  0
 12 13  1  0
 12 11  1  0
 14 13  1  0
 14 23  1  0
 14 15  1  0
 16 10  1  0
 16 15  1  0
 17 10  2  0
 18  9  1  0
 18 19  1  0
 20 21  2  0
 21 40  1  0
 22 21  1  0
 22 25  1  0
 23 24  1  0
 23 20  1  0
 24 22  2  0
 25 26  1  0
 26 27  2  0
 28 31  1  0
 28 27  1  0
 29 28  2  0
 30 29  1  0
 30 25  2  0
 31 32  1  0
 32 33  1  0
 33 34  2  0
 35 34  1  0
 35 39  1  0
 36 35  2  0
 37 32  2  0
 37 36  1  0
 38 37  1  0
 40 41  1  0
 41 44  1  0
 41 43  1  0
 42 40  2  0
 45 46  1  0
 45 20  1  0
 47 45  1  0
 51 50  1  6
 51 52  1  0
 51 48  1  0
 51 49  1  0
 53 52  1  0
 54 65  2  0
 55 53  1  0
 55 60  1  0
 56 64  1  0
 56 66  1  0
 57 59  1  0
 58 64  1  0
 59 60  2  0
 59 58  1  0
 61 55  2  0
 62 61  1  0
 62 57  2  0
 63 57  1  0
 63 56  1  0
 64 54  1  0
 66 68  2  0
 67 66  1  0
 69 67  1  0
 70 79  2  0
 70 75  1  0
 71 67  1  0
 71 75  1  0
 72 71  1  0
 73 74  1  0
 73 72  1  0
 74 70  1  0
 75 76  2  0
 76 77  1  0
 78 77  2  0
 79 78  1  0
 80 54  1  0
 80 81  1  0
 80 90  1  0
 81 84  1  0
 82 86  1  0
 82 81  1  0
 83 82  2  0
 86 85  1  0
 88 89  1  0
 88 86  1  0
 88 87  1  0
 90 93  1  1
 90 91  1  0
 92 90  1  0
M  ISO  4  10 100  18 100  52 101  53 101
M  END
>  <TORSDO>  (7) 
F 21

>  <SCORE>  (7) 
-13.354

>  <name>  (7) 
6

>  <ligand_id>  (7) 
6

>  <original_smiles>  (7) 
[H]c1c([H])c([H])c2c(c1[H])C([H])([H])C([H])([H])C([H])([H])C2([H])N([H])C(=O)C1([H])N(C(=O)C([H])(N([H])C(=O)C([H])(N([H])C([H])([H])[H])C([H])([H])[H])C(C([H])([H])[H])(C([H])([H])[H])C([H])([H])[H])C([H])([H])c2c([H])c(OC([H])([H])C(C([H])([H])[H])(C([H])([H])[H])C([H])([H])n3c([H])nc(C(C([H])([H])[H])(C([H])([H])[H])C([H])([H])N([H])C(=O)N4C([H])([H])C([H])([H])C([H])([H])C([H])(n5nc(-c6c([H])c([H])c(Oc7c([H])c([H])c(F)c([H])c7F)c([H])c6[H])c(C(=O)N([H])[H])c5N([H])[H])C4([H])[H])c3[H])c([H])c([H])c2C1([H])[H]

>  <smiles>  (7) 
[H]c1c([H])c([H])c2c(c1[H])C([H])([H])C([H])([H])C([H])([H])C2([H])N([H])C(=O)C1([H])N(C(=O)C([H])(N([H])C(=O)C([H])(N([H])C([H])([H])[H])C([H])([H])[H])C(C([H])([H])[H])(C([H])([H])[H])C([H])([H])[H])C([H])([H])c2c([H])c(OC([H])([H])C(C([H])([H])[H])(C([H])([H])[H])C([H])([H])n3c([H])nc(C(C([H])([H])[H])(C([H])([H])[H])C([H])([H])N([H])C(=O)N4C([H])([H])C([H])([H])C([H])([H])C([H])(n5nc(-c6c([H])c([H])c(Oc7c([H])c([H])c(F)c([H])c7F)c([H])c6[H])c(C(=O)N([H])[H])c5N([H])[H])C4([H])[H])c3[H])c([H])c([H])c2C1([H])[H]

$$$$
7:0:0
     RDKit          3D

 95103  0  0  1  0  0  0  0  0999 V2000
  -30.4820  -20.4160   20.1850 C   0  0  0  0  0  0  0  0  0  0  0  0
  -30.3370  -19.6410   19.0090 C   0  0  0  0  0  0  0  0  0  0  0  0
  -30.3650  -19.6930   21.3980 C   0  0  0  0  0  0  0  0  0  0  0  0
  -30.0480  -17.7240   20.2480 C   0  0  0  0  0  0  0  0  0  0  0  0
  -30.3790  -20.2350   17.6100 C   0  0  0  0  0  1  0  0  0  0  0  0
  -30.1230  -18.3080   19.0570 N   0  0  0  0  0  0  0  0  0  0  0  0
  -30.1570  -18.3650   21.4050 N   0  0  0  0  0  0  0  0  0  0  0  0
  -28.4740  -16.0190   21.2010 C   0  0  0  0  0  1  0  0  0  0  0  0
  -29.7230  -16.2160   20.3070 C   0  0  0  0  0  3  0  0  0  0  0  0
  -30.9340  -14.5550   22.0140 C   0  0  0  0  0  1  0  0  0  0  0  0
  -32.2980  -15.9840   20.6020 C   0  0  0  0  0  1  0  0  0  0  0  0
  -30.9350  -15.2190   20.5990 C   0  0  2  0  0  0  0  0  0  0  0  0
  -31.0170  -14.1140   19.4810 C   0  0  0  0  0  0  0  0  0  0  0  0
  -30.4360  -11.9270   18.4570 C   0  0  0  0  0  2  0  0  0  0  0  0
  -29.3760  -12.0420   17.3450 C   0  0  0  0  0  2  0  0  0  0  0  0
  -27.9540  -11.9780   17.9320 C   0  0  0  0  0  2  0  0  0  0  0  0
  -27.7760  -12.9370   19.1340 C   0  0  0  0  0  3  0  0  0  0  0  0
  -28.9380  -12.8030   20.1400 C   0  0  0  0  0  2  0  0  0  0  0  0
  -30.2160  -13.0040   19.4420 N   0  0  0  0  0  0  0  0  0  0  0  0
  -31.9090  -14.2460   18.6350 O   0  0  0  0  0  0  0  0  0  0  0  0
  -25.5480  -13.7010   20.1780 C   0  0  0  0  0  0  0  0  0  0  0  0
  -24.4790  -13.0020   20.6690 C   0  0  0  0  0  0  0  0  0  0  0  0
  -24.8210  -11.6190   20.5450 C   0  0  0  0  0  0  0  0  0  0  0  0
  -26.4790  -12.7510   19.7840 N   0  0  0  0  0  0  0  0  0  0  0  0
  -26.0510  -11.4910   20.0640 N   0  0  0  0  0  0  0  0  0  0  0  0
  -24.0250  -10.4110   20.8020 C   0  0  0  0  0  0  0  0  0  0  0  0
  -24.4410   -9.4350   21.7350 C   0  0  0  0  0  3  0  0  0  0  0  0
  -23.6500   -8.2910   21.9740 C   0  0  0  0  0  3  0  0  0  0  0  0
  -22.4270   -8.1150   21.2840 C   0  0  0  0  0  0  0  0  0  0  0  0
  -22.0290   -9.0790   20.3410 C   0  0  0  0  0  3  0  0  0  0  0  0
  -22.8200  -10.2140   20.0990 C   0  0  0  0  0  3  0  0  0  0  0  0
  -21.6050   -7.0250   21.4350 O   0  0  0  0  0  0  0  0  0  0  0  0
  -21.5190   -6.3480   22.6250 C   0  0  0  0  0  0  0  0  0  0  0  0
  -21.1370   -6.9890   23.8220 C   0  0  0  0  0  3  0  0  0  0  0  0
  -20.9940   -6.2380   25.0080 C   0  0  0  0  0  3  0  0  0  0  0  0
  -21.2250   -4.8510   24.9950 C   0  0  0  0  0  0  0  0  0  0  0  0
  -21.6020   -4.2090   23.8020 C   0  0  0  0  0  3  0  0  0  0  0  0
  -21.7470   -4.9570   22.6190 C   0  0  0  0  0  0  0  0  0  0  0  0
  -22.0880   -4.3310   21.4660 F   0  0  0  0  0  0  0  0  0  0  0  0
  -21.0810   -4.1270   26.1310 F   0  0  0  0  0  0  0  0  0  0  0  0
  -23.1720  -13.5770   21.1360 C   0  0  0  0  0  0  0  0  0  0  0  0
  -22.5210  -12.9270   22.0920 N   0  0  0  0  0  0  0  0  0  0  0  0
  -22.7430  -14.6400   20.6850 O   0  0  0  0  0  0  0  0  0  0  0  0
  -22.8850  -12.0670   22.4780 H   0  0  0  0  0  0  0  0  0  0  0  0
  -21.6480  -13.2930   22.4440 H   0  0  0  0  0  0  0  0  0  0  0  0
  -25.8040  -15.0590   20.0070 N   0  0  0  0  0  0  0  0  0  0  0  0
  -25.1150  -15.7720   20.2200 H   0  0  0  0  0  0  0  0  0  0  0  0
  -26.6250  -15.4270   19.5490 H   0  0  0  0  0  0  0  0  0  0  0  0
  -31.6010  -19.8100   23.6250 C   0  0  0  0  0  1  0  0  0  0  0  0
  -30.4040  -20.3110   22.7900 C   0  0  0  0  0  2  0  0  0  0  0  0
  -30.7750  -21.9280   20.1410 C   0  0  0  0  0  2  0  0  0  0  0  0
  -29.5130  -22.8250   20.1870 C   0  0  0  0  0  2  0  0  0  0  0  0
  -29.7730  -24.3620   20.2190 C   0  0  0  0  0  2  0  0  0  0  0  0
  -28.4790  -25.1910   20.0030 C   0  0  0  0  0  2  0  0  0  0  0  0
  -28.5900  -26.6160   20.2380 O   0  0  0  0  0  0  0  0  0  0  0  0
  -24.7630  -31.9010   23.2190 C   0  0  0  0  0  0  0  0  0  0  0  0
  -27.4160  -27.3610   20.2190 C   0  0  0  0  0  0  0  0  0  0  0  0
  -23.5650  -30.4650   21.6050 C   0  0  0  0  0  3  0  0  0  0  0  0
  -25.0230  -28.9030   20.2100 C   0  0  0  0  0  0  0  0  0  0  0  0
  -26.0950  -30.8100   21.4130 C   0  0  0  0  0  2  0  0  0  0  0  0
  -26.1850  -29.4260   20.7910 C   0  0  0  0  0  0  0  0  0  0  0  0
  -27.3840  -28.6670   20.7840 C   0  0  0  0  0  3  0  0  0  0  0  0
  -26.2200  -26.8620   19.6490 C   0  0  0  0  0  3  0  0  0  0  0  0
  -25.0370  -27.6240   19.6350 C   0  0  0  0  0  3  0  0  0  0  0  0
  -23.7790  -29.7640   20.2410 C   0  0  0  0  0  2  0  0  0  0  0  0
  -24.8260  -31.0720   22.1370 N   0  0  0  0  0  0  0  0  0  0  0  0
  -23.6780  -32.1890   23.7420 O   0  0  0  0  0  0  0  0  0  0  0  0
  -22.9060  -29.4630   22.5790 C   0  0  0  0  0  0  0  0  0  0  0  0
  -21.5900  -29.2450   22.4160 N   0  0  0  0  0  0  0  0  0  0  0  0
  -23.5760  -28.8810   23.4370 O   0  0  0  0  0  0  0  0  0  0  0  0
  -21.1100  -29.7670   21.6950 H   0  0  0  0  0  0  0  0  0  0  0  0
  -18.2360  -27.9600   22.8310 C   0  0  0  0  0  0  0  0  0  0  0  0
  -20.7700  -28.3180   23.1960 C   0  0  0  0  0  3  0  0  0  0  0  0
  -20.9430  -26.8670   22.6950 C   0  0  0  0  0  2  0  0  0  0  0  0
  -19.8980  -26.4610   21.6490 C   0  0  0  0  0  2  0  0  0  0  0  0
  -18.4840  -26.5880   22.2250 C   0  0  0  0  0  2  0  0  0  0  0  0
  -19.3110  -28.7780   23.2710 C   0  0  0  0  0  0  0  0  0  0  0  0
  -19.0280  -30.0600   23.7910 C   0  0  0  0  0  3  0  0  0  0  0  0
  -17.7040  -30.5270   23.8750 C   0  0  0  0  0  3  0  0  0  0  0  0
  -16.6420  -29.7060   23.4560 C   0  0  0  0  0  3  0  0  0  0  0  0
  -16.9090  -28.4250   22.9390 C   0  0  0  0  0  3  0  0  0  0  0  0
  -26.0460  -32.5440   23.8300 C   0  0  0  0  0  3  0  0  0  0  0  0
  -25.7170  -33.9290   24.1920 N   0  0  0  0  0  0  0  0  0  0  0  0
  -26.0530  -35.0030   23.4650 C   0  0  0  0  0  0  0  0  0  0  0  0
  -26.7450  -34.9320   22.4450 O   0  0  0  0  0  0  0  0  0  0  0  0
  -25.0960  -34.0580   24.9760 H   0  0  0  0  0  0  0  0  0  0  0  0
  -24.3260  -36.7940   23.1110 C   0  0  0  0  0  1  0  0  0  0  0  0
  -25.5440  -36.3740   23.9470 C   0  0  0  0  0  3  0  0  0  0  0  0
  -27.6500  -37.2370   24.8700 C   0  0  0  0  0  1  0  0  0  0  0  0
  -26.5740  -37.4350   23.9000 N   0  0  0  0  0  0  0  0  0  0  0  0
  -26.1620  -38.3480   24.0680 H   0  0  0  0  0  0  0  0  0  0  0  0
  -26.5990  -31.7550   25.0770 C   0  0  1  0  0  0  0  0  0  0  0  0
  -25.5160  -31.4340   26.1360 C   0  0  0  0  0  1  0  0  0  0  0  0
  -27.2370  -30.4150   24.6400 C   0  0  0  0  0  1  0  0  0  0  0  0
  -27.7260  -32.5700   25.7540 C   0  0  0  0  0  1  0  0  0  0  0  0
  1  3  1  0
  2  6  1  0
  2  1  2  0
  3  7  2  0
  3 50  1  0
  4  9  1  0
  4  7  1  0
  5  2  1  0
  6  4  2  0
  9 12  1  0
  9  8  1  0
 12 11  1  1
 12 10  1  0
 13 12  1  0
 14 19  1  0
 15 16  1  0
 15 14  1  0
 17 16  1  0
 17 24  1  0
 17 18  1  0
 19 13  1  0
 19 18  1  0
 20 13  2  0
 21 22  2  0
 22 41  1  0
 23 22  1  0
 23 26  1  0
 24 25  1  0
 24 21  1  0
 25 23  2  0
 26 27  1  0
 27 28  2  0
 29 32  1  0
 29 28  1  0
 30 29  2  0
 31 30  1  0
 31 26  2  0
 32 33  1  0
 33 34  1  0
 34 35  2  0
 36 35  1  0
 36 40  1  0
 37 36  2  0
 38 33  2  0
 38 37  1  0
 39 38  1  0
 41 42  1  0
 42 45  1  0
 42 44  1  0
 43 41  2  0
 46 21  1  0
 46 47  1  0
 48 46  1  0
 50 49  1  0
 51  1  1  0
 51 52  1  0
 52 53  1  0
 54 53  1  0
 54 55  1  0
 56 67  2  0
 57 55  1  0
 57 62  1  0
 58 66  1  0
 58 68  1  0
 59 65  1  0
 59 61  1  0
 60 66  1  0
 61 60  1  0
 62 61  2  0
 63 57  2  0
 64 63  1  0
 64 59  2  0
 65 58  1  0
 66 56  1  0
 68 70  2  0
 69 68  1  0
 71 69  1  0
 72 81  2  0
 72 77  1  0
 73 69  1  0
 73 77  1  0
 74 73  1  0
 75 76  1  0
 75 74  1  0
 76 72  1  0
 77 78  2  0
 78 79  1  0
 80 79  2  0
 81 80  1  0
 82 56  1  0
 82 83  1  0
 82 92  1  0
 83 86  1  0
 84 88  1  0
 84 83  1  0
 85 84  2  0
 88 87  1  0
 90 88  1  0
 90 91  1  0
 90 89  1  0
 92 95  1  1
 92 93  1  0
 94 92  1  0
M  ISO  4  12 100  13 100  54 101  55 101
M  END
>  <TORSDO>  (8) 
F 23

>  <SCORE>  (8) 
-10.968

>  <name>  (8) 
7

>  <ligand_id>  (8) 
7

>  <original_smiles>  (8) 
[H]c1c([H])c([H])c2c(c1[H])C([H])([H])C([H])([H])C([H])([H])C2([H])N([H])C(=O)C1([H])N(C(=O)C([H])(N([H])C(=O)C([H])(N([H])C([H])([H])[H])C([H])([H])[H])C(C([H])([H])[H])(C([H])([H])[H])C([H])([H])[H])C([H])([H])c2c([H])c(OC([H])([H])C([H])([H])C([H])([H])C([H])([H])c3c(C([H])([H])[H])nc(C([H])(C([H])([H])[H])C(C(=O)N4C([H])([H])C([H])([H])C([H])([H])C([H])(n5nc(-c6c([H])c([H])c(Oc7c([H])c([H])c(F)c([H])c7F)c([H])c6[H])c(C(=O)N([H])[H])c5N([H])[H])C4([H])[H])(C([H])([H])[H])C([H])([H])[H])nc3C([H])([H])C([H])([H])[H])c([H])c([H])c2C1([H])[H]

>  <smiles>  (8) 
[H]c1c([H])c([H])c2c(c1[H])C([H])([H])C([H])([H])C([H])([H])C2([H])N([H])C(=O)C1([H])N(C(=O)C([H])(N([H])C(=O)C([H])(N([H])C([H])([H])[H])C([H])([H])[H])C(C([H])([H])[H])(C([H])([H])[H])C([H])([H])[H])C([H])([H])c2c([H])c(OC([H])([H])C([H])([H])C([H])([H])C([H])([H])c3c(C([H])([H])[H])nc(C([H])(C([H])([H])[H])C(C(=O)N4C([H])([H])C([H])([H])C([H])([H])C([H])(n5nc(-c6c([H])c([H])c(Oc7c([H])c([H])c(F)c([H])c7F)c([H])c6[H])c(C(=O)N([H])[H])c5N([H])[H])C4([H])[H])(C([H])([H])[H])C([H])([H])[H])nc3C([H])([H])C([H])([H])[H])c([H])c([H])c2C1([H])[H]

$$$$
8:0:0
     RDKit          3D

 96104  0  0  1  0  0  0  0  0999 V2000
  -27.3500  -20.5780   19.4250 C   0  0  0  0  0  1  0  0  0  0  0  0
  -28.5190  -20.7940   20.4030 C   0  0  2  0  0  0  0  0  0  0  0  0
  -28.0130  -20.5300   21.6990 O   0  0  0  0  0  0  0  0  0  0  0  0
  -27.2750  -21.1100   21.8540 H   0  0  0  0  0  0  0  0  0  0  0  0
  -28.9510  -22.2990   20.4690 C   0  0  0  0  0  3  0  0  0  0  0  0
  -29.3620  -23.0190   19.1530 C   0  0  0  0  0  3  0  0  0  0  0  0
  -29.6510  -24.5500   19.2890 C   0  0  0  0  0  2  0  0  0  0  0  0
  -28.3880  -25.4510   19.2310 C   0  0  0  0  0  2  0  0  0  0  0  0
  -28.6280  -26.8730   19.3730 O   0  0  0  0  0  0  0  0  0  0  0  0
  -25.0270  -31.4850   23.4560 C   0  0  0  0  0  0  0  0  0  0  0  0
  -27.4960  -27.6650   19.4960 C   0  0  0  0  0  0  0  0  0  0  0  0
  -23.7570  -30.4540   21.6030 C   0  0  0  0  0  3  0  0  0  0  0  0
  -25.1430  -29.2100   19.8610 C   0  0  0  0  0  0  0  0  0  0  0  0
  -26.2870  -30.7980   21.4120 C   0  0  0  0  0  2  0  0  0  0  0  0
  -26.3300  -29.5780   20.5090 C   0  0  0  0  0  0  0  0  0  0  0  0
  -27.5100  -28.8170   20.3220 C   0  0  0  0  0  3  0  0  0  0  0  0
  -26.2900  -27.3360   18.8300 C   0  0  0  0  0  3  0  0  0  0  0  0
  -25.1210  -28.0940   19.0140 C   0  0  0  0  0  3  0  0  0  0  0  0
  -23.9210  -30.0620   20.1110 C   0  0  0  0  0  2  0  0  0  0  0  0
  -25.0430  -30.9170   22.2150 N   0  0  0  0  0  0  0  0  0  0  0  0
  -23.9650  -31.6590   24.0690 O   0  0  0  0  0  0  0  0  0  0  0  0
  -23.1090  -29.2720   22.3620 C   0  0  0  0  0  0  0  0  0  0  0  0
  -21.7830  -29.1160   22.2060 N   0  0  0  0  0  0  0  0  0  0  0  0
  -23.7950  -28.5070   23.0450 O   0  0  0  0  0  0  0  0  0  0  0  0
  -21.2910  -29.7840   21.6280 H   0  0  0  0  0  0  0  0  0  0  0  0
  -18.4290  -27.7870   22.4090 C   0  0  0  0  0  0  0  0  0  0  0  0
  -20.9710  -28.0540   22.8010 C   0  0  0  0  0  3  0  0  0  0  0  0
  -21.1250  -26.7270   22.0220 C   0  0  0  0  0  2  0  0  0  0  0  0
  -20.0670  -26.5430   20.9320 C   0  0  0  0  0  2  0  0  0  0  0  0
  -18.6590  -26.5660   21.5330 C   0  0  0  0  0  2  0  0  0  0  0  0
  -19.5140  -28.4960   22.9890 C   0  0  0  0  0  0  0  0  0  0  0  0
  -19.2460  -29.6460   23.7590 C   0  0  0  0  0  3  0  0  0  0  0  0
  -17.9250  -30.0860   23.9600 C   0  0  0  0  0  3  0  0  0  0  0  0
  -16.8540  -29.3740   23.3940 C   0  0  0  0  0  3  0  0  0  0  0  0
  -17.1060  -28.2250   22.6240 C   0  0  0  0  0  3  0  0  0  0  0  0
  -26.3390  -31.9620   24.1510 C   0  0  0  0  0  3  0  0  0  0  0  0
  -26.8670  -30.9540   25.2460 C   0  0  1  0  0  0  0  0  0  0  0  0
  -25.7970  -30.5510   26.2880 C   0  0  0  0  0  1  0  0  0  0  0  0
  -27.3950  -29.6580   24.5860 C   0  0  0  0  0  1  0  0  0  0  0  0
  -28.0600  -31.5820   26.0060 C   0  0  0  0  0  1  0  0  0  0  0  0
  -26.0710  -33.2790   24.7420 N   0  0  0  0  0  0  0  0  0  0  0  0
  -26.4510  -34.4470   24.2050 C   0  0  0  0  0  0  0  0  0  0  0  0
  -27.1370  -34.5210   23.1810 O   0  0  0  0  0  0  0  0  0  0  0  0
  -25.4660  -33.2970   25.5510 H   0  0  0  0  0  0  0  0  0  0  0  0
  -24.7850  -36.3320   24.1870 C   0  0  0  0  0  1  0  0  0  0  0  0
  -26.0000  -35.7360   24.9170 C   0  0  0  0  0  3  0  0  0  0  0  0
  -28.1490  -36.3680   25.9240 C   0  0  0  0  0  1  0  0  0  0  0  0
  -27.0680  -36.7550   25.0220 N   0  0  0  0  0  0  0  0  0  0  0  0
  -26.6890  -37.6430   25.3390 H   0  0  0  0  0  0  0  0  0  0  0  0
  -29.6660  -19.7530   20.1790 C   0  0  0  0  0  2  0  0  0  0  0  0
  -29.2400  -18.2600   20.3900 C   0  0  0  0  0  2  0  0  0  0  0  0
  -30.6790  -17.5500   22.3130 C   0  0  0  0  0  0  0  0  0  0  0  0
  -30.9710  -16.2980   20.6430 C   0  0  0  0  0  0  0  0  0  0  0  0
  -30.1380  -18.5940   23.2380 C   0  0  0  0  0  1  0  0  0  0  0  0
  -31.6380  -16.6980   22.6760 N   0  0  0  0  0  0  0  0  0  0  0  0
  -31.8630  -15.9200   21.5760 N   0  0  0  0  0  0  0  0  0  0  0  0
  -30.2470  -17.3950   21.0410 N   0  0  0  0  0  0  0  0  0  0  0  0
  -29.6540  -15.7500   18.4560 C   0  0  0  0  0  1  0  0  0  0  0  0
  -31.9840  -16.5770   18.4490 C   0  0  0  0  0  1  0  0  0  0  0  0
  -30.9860  -15.6860   19.2400 C   0  0  1  0  0  0  0  0  0  0  0  0
  -31.4710  -14.1780   19.1570 C   0  0  0  0  0  0  0  0  0  0  0  0
  -30.9390  -11.8440   18.5490 C   0  0  0  0  0  2  0  0  0  0  0  0
  -29.9030  -11.8390   17.4060 C   0  0  0  0  0  2  0  0  0  0  0  0
  -28.4730  -11.8380   17.9760 C   0  0  0  0  0  2  0  0  0  0  0  0
  -28.2740  -12.9230   19.0620 C   0  0  0  0  0  3  0  0  0  0  0  0
  -29.4290  -12.9230   20.0810 C   0  0  0  0  0  2  0  0  0  0  0  0
  -30.7020  -13.0600   19.3580 N   0  0  0  0  0  0  0  0  0  0  0  0
  -32.5830  -14.0390   18.6360 O   0  0  0  0  0  0  0  0  0  0  0  0
  -26.1210  -13.8210   20.1340 C   0  0  0  0  0  0  0  0  0  0  0  0
  -25.0130  -13.1840   20.6280 C   0  0  0  0  0  0  0  0  0  0  0  0
  -25.2670  -11.7860   20.4880 C   0  0  0  0  0  0  0  0  0  0  0  0
  -26.9800  -12.8140   19.7240 N   0  0  0  0  0  0  0  0  0  0  0  0
  -26.4820  -11.5830   19.9960 N   0  0  0  0  0  0  0  0  0  0  0  0
  -24.3990  -10.6280   20.7360 C   0  0  0  0  0  0  0  0  0  0  0  0
  -24.7750   -9.6020   21.6300 C   0  0  0  0  0  3  0  0  0  0  0  0
  -23.9150   -8.5070   21.8650 C   0  0  0  0  0  3  0  0  0  0  0  0
  -22.6660   -8.4330   21.2050 C   0  0  0  0  0  0  0  0  0  0  0  0
  -22.3070   -9.4450   20.2960 C   0  0  0  0  0  3  0  0  0  0  0  0
  -23.1670  -10.5310   20.0600 C   0  0  0  0  0  3  0  0  0  0  0  0
  -21.7790   -7.3940   21.3510 O   0  0  0  0  0  0  0  0  0  0  0  0
  -21.6630   -6.7070   22.5340 C   0  0  0  0  0  0  0  0  0  0  0  0
  -21.3560   -7.3610   23.7470 C   0  0  0  0  0  3  0  0  0  0  0  0
  -21.1790   -6.6090   24.9250 C   0  0  0  0  0  3  0  0  0  0  0  0
  -21.2960   -5.2070   24.8910 C   0  0  0  0  0  0  0  0  0  0  0  0
  -21.5950   -4.5540   23.6820 C   0  0  0  0  0  3  0  0  0  0  0  0
  -21.7750   -5.3030   22.5060 C   0  0  0  0  0  0  0  0  0  0  0  0
  -22.0430   -4.6690   21.3390 F   0  0  0  0  0  0  0  0  0  0  0  0
  -21.1170   -4.4820   26.0200 F   0  0  0  0  0  0  0  0  0  0  0  0
  -23.7480  -13.8360   21.1060 C   0  0  0  0  0  0  0  0  0  0  0  0
  -23.0880  -13.2430   22.0940 N   0  0  0  0  0  0  0  0  0  0  0  0
  -23.3610  -14.9060   20.6340 O   0  0  0  0  0  0  0  0  0  0  0  0
  -23.4140  -12.3770   22.4970 H   0  0  0  0  0  0  0  0  0  0  0  0
  -22.2470  -13.6660   22.4590 H   0  0  0  0  0  0  0  0  0  0  0  0
  -26.4570  -15.1610   19.9740 N   0  0  0  0  0  0  0  0  0  0  0  0
  -25.7950  -15.9020   20.1760 H   0  0  0  0  0  0  0  0  0  0  0  0
  -27.2830  -15.4890   19.4930 H   0  0  0  0  0  0  0  0  0  0  0  0
  2  1  1  6
  2  5  1  0
  2  3  1  0
  3  4  1  0
  6  7  1  0
  6  5  2  0
  8  7  1  0
  8  9  1  0
  9 11  1  0
 10 21  2  0
 11 16  1  0
 12 20  1  0
 12 22  1  0
 13 19  1  0
 13 15  1  0
 14 20  1  0
 15 14  1  0
 16 15  2  0
 17 18  1  0
 17 11  2  0
 18 13  2  0
 19 12  1  0
 20 10  1  0
 22 24  2  0
 23 22  1  0
 25 23  1  0
 26 35  2  0
 26 31  1  0
 27 23  1  0
 27 31  1  0
 28 27  1  0
 29 30  1  0
 29 28  1  0
 30 26  1  0
 31 32  2  0
 32 33  1  0
 34 33  2  0
 35 34  1  0
 36 10  1  0
 36 41  1  0
 36 37  1  0
 37 40  1  1
 37 38  1  0
 39 37  1  0
 41 44  1  0
 42 41  1  0
 42 46  1  0
 43 42  2  0
 46 45  1  0
 46 48  1  0
 48 49  1  0
 48 47  1  0
 50 51  1  0
 50  2  1  0
 51 57  1  0
 52 55  2  0
 52 54  1  0
 53 57  1  0
 53 56  2  0
 56 55  1  0
 57 52  1  0
 60 58  1  6
 59 60  1  0
 60 53  1  0
 61 60  1  0
 61 67  1  0
 62 67  1  0
 63 64  1  0
 63 62  1  0
 65 64  1  0
 65 72  1  0
 65 66  1  0
 67 66  1  0
 68 61  2  0
 69 70  2  0
 70 89  1  0
 71 70  1  0
 71 74  1  0
 72 73  1  0
 72 69  1  0
 73 71  2  0
 74 75  1  0
 75 76  2  0
 77 80  1  0
 77 76  1  0
 78 77  2  0
 79 78  1  0
 79 74  2  0
 80 81  1  0
 81 82  1  0
 82 83  2  0
 84 83  1  0
 84 88  1  0
 85 84  2  0
 86 81  2  0
 86 85  1  0
 87 86  1  0
 89 90  1  0
 90 93  1  0
 90 92  1  0
 91 89  2  0
 94 69  1  0
 94 95  1  0
 96 94  1  0
M  ISO  4   8 101   9 101  60 100  61 100
M  END
>  <TORSDO>  (9) 
F 25

>  <SCORE>  (9) 
-7.620

>  <name>  (9) 
8

>  <ligand_id>  (9) 
8

>  <original_smiles>  (9) 
[H]OC(C([H])([H])[H])(C([H])([H])C([H])([H])n1c(C([H])([H])[H])nnc1C(C(=O)N1C([H])([H])C([H])([H])C([H])([H])C([H])(n2nc(-c3c([H])c([H])c(Oc4c([H])c([H])c(F)c([H])c4F)c([H])c3[H])c(C(=O)N([H])[H])c2N([H])[H])C1([H])[H])(C([H])([H])[H])C([H])([H])[H])C([H])([H])C([H])([H])C([H])([H])C([H])([H])Oc1c([H])c([H])c2c(c1[H])C([H])([H])N(C(=O)C([H])(N([H])C(=O)C([H])(N([H])C([H])([H])[H])C([H])([H])[H])C(C([H])([H])[H])(C([H])([H])[H])C([H])([H])[H])C([H])(C(=O)N([H])C1([H])c3c([H])c([H])c([H])c([H])c3C([H])([H])C([H])([H])C1([H])[H])C2([H])[H]

>  <smiles>  (9) 
[H]OC(C([H])([H])[H])(C([H])([H])C([H])([H])n1c(C([H])([H])[H])nnc1C(C(=O)N1C([H])([H])C([H])([H])C([H])([H])C([H])(n2nc(-c3c([H])c([H])c(Oc4c([H])c([H])c(F)c([H])c4F)c([H])c3[H])c(C(=O)N([H])[H])c2N([H])[H])C1([H])[H])(C([H])([H])[H])C([H])([H])[H])C([H])([H])C([H])([H])C([H])([H])C([H])([H])Oc1c([H])c([H])c2c(c1[H])C([H])([H])N(C(=O)C([H])(N([H])C(=O)C([H])(N([H])C([H])([H])[H])C([H])([H])[H])C(C([H])([H])[H])(C([H])([H])[H])C([H])([H])[H])C([H])(C(=O)N([H])C1([H])c3c([H])c([H])c([H])c([H])c3C([H])([H])C([H])([H])C1([H])[H])C2([H])[H]

$$$$
9:0:0
     RDKit          3D

 98106  0  0  1  0  0  0  0  0999 V2000
  -28.7900  -21.1090   18.3090 C   0  0  0  0  0  3  0  0  0  0  0  0
  -29.0050  -20.8570   19.6570 C   0  0  0  0  0  0  0  0  0  0  0  0
  -28.0840  -23.0870   19.2480 C   0  0  0  0  0  3  0  0  0  0  0  0
  -28.5670  -22.1510   20.1850 N   0  0  0  0  0  0  0  0  0  0  0  0
  -28.2750  -22.3990   18.1110 N   0  0  0  0  0  0  0  0  0  0  0  0
  -28.0220  -22.7650   17.2000 H   0  0  0  0  0  0  0  0  0  0  0  0
  -27.2050  -24.5130   19.4110 C   0  0  0  0  0  2  0  0  0  0  0  0
  -27.4930  -26.0080   18.9940 O   0  0  0  0  0  0  0  0  0  0  0  0
  -24.4930  -31.6300   22.8510 C   0  0  0  0  0  0  0  0  0  0  0  0
  -26.4950  -27.0440   19.2040 C   0  0  0  0  0  0  0  0  0  0  0  0
  -23.0450  -30.3610   21.3140 C   0  0  0  0  0  3  0  0  0  0  0  0
  -24.2380  -28.8510   19.6150 C   0  0  0  0  0  0  0  0  0  0  0  0
  -25.5630  -30.5850   20.8120 C   0  0  0  0  0  2  0  0  0  0  0  0
  -25.5070  -29.2330   20.0700 C   0  0  0  0  0  0  0  0  0  0  0  0
  -26.6350  -28.3480   19.8480 C   0  0  0  0  0  3  0  0  0  0  0  0
  -25.1960  -26.7820   18.7190 C   0  0  0  0  0  3  0  0  0  0  0  0
  -24.0940  -27.6380   18.9300 C   0  0  0  0  0  3  0  0  0  0  0  0
  -23.0560  -29.7690   19.8820 C   0  0  0  0  0  2  0  0  0  0  0  0
  -24.3950  -30.8790   21.7100 N   0  0  0  0  0  0  0  0  0  0  0  0
  -23.4970  -31.8920   23.5420 O   0  0  0  0  0  0  0  0  0  0  0  0
  -22.4800  -29.3090   22.3020 C   0  0  0  0  0  0  0  0  0  0  0  0
  -21.1640  -29.0400   22.2350 N   0  0  0  0  0  0  0  0  0  0  0  0
  -23.2290  -28.7280   23.0920 O   0  0  0  0  0  0  0  0  0  0  0  0
  -20.6050  -29.5580   21.5710 H   0  0  0  0  0  0  0  0  0  0  0  0
  -17.9510  -27.4410   22.7410 C   0  0  0  0  0  0  0  0  0  0  0  0
  -20.4490  -28.0460   23.0410 C   0  0  0  0  0  3  0  0  0  0  0  0
  -20.7470  -26.6110   22.5470 C   0  0  0  0  0  2  0  0  0  0  0  0
  -19.7220  -26.0980   21.5300 C   0  0  0  0  0  2  0  0  0  0  0  0
  -18.3160  -26.0960   22.1370 C   0  0  0  0  0  2  0  0  0  0  0  0
  -18.9520  -28.3620   23.1500 C   0  0  0  0  0  0  0  0  0  0  0  0
  -18.5560  -29.6120   23.6760 C   0  0  0  0  0  3  0  0  0  0  0  0
  -17.1940  -29.9440   23.7950 C   0  0  0  0  0  3  0  0  0  0  0  0
  -16.2080  -29.0220   23.4010 C   0  0  0  0  0  3  0  0  0  0  0  0
  -16.5870  -27.7720   22.8820 C   0  0  0  0  0  3  0  0  0  0  0  0
  -25.8590  -32.2100   23.3270 C   0  0  0  0  0  3  0  0  0  0  0  0
  -26.5720  -31.3090   24.4100 C   0  0  1  0  0  0  0  0  0  0  0  0
  -25.6650  -30.9390   25.6050 C   0  0  0  0  0  1  0  0  0  0  0  0
  -27.0780  -29.9890   23.7860 C   0  0  0  0  0  1  0  0  0  0  0  0
  -27.8170  -32.0420   24.9600 C   0  0  0  0  0  1  0  0  0  0  0  0
  -25.6110  -33.5570   23.8680 N   0  0  0  0  0  0  0  0  0  0  0  0
  -25.8890  -34.7020   23.2290 C   0  0  0  0  0  0  0  0  0  0  0  0
  -26.4520  -34.7360   22.1310 O   0  0  0  0  0  0  0  0  0  0  0  0
  -25.1070  -33.6060   24.7400 H   0  0  0  0  0  0  0  0  0  0  0  0
  -24.2090  -36.5740   23.2680 C   0  0  0  0  0  1  0  0  0  0  0  0
  -25.4860  -36.0200   23.9200 C   0  0  0  0  0  3  0  0  0  0  0  0
  -27.6930  -36.7260   24.7300 C   0  0  0  0  0  1  0  0  0  0  0  0
  -26.5450  -37.0520   23.8900 N   0  0  0  0  0  0  0  0  0  0  0  0
  -26.1760  -37.9490   24.1930 H   0  0  0  0  0  0  0  0  0  0  0  0
  -28.5830  -22.5640   21.5980 C   0  0  0  0  0  2  0  0  0  0  0  0
  -29.1830  -23.9890   21.7370 C   0  0  0  0  0  2  0  0  0  0  0  0
  -27.5940  -24.6660   23.6120 C   0  0  0  0  0  1  0  0  0  0  0  0
  -29.5050  -26.1520   22.9270 C   0  0  0  0  0  1  0  0  0  0  0  0
  -29.9620  -24.0220   24.1600 C   0  0  0  0  0  1  0  0  0  0  0  0
  -29.0520  -24.6870   23.1110 C   0  0  2  0  0  0  0  0  0  0  0  0
  -29.6070  -19.4880   20.4520 C   0  0  0  0  0  3  0  0  0  0  0  0
  -31.0030  -19.8400   21.0290 C   0  0  1  0  0  0  0  0  0  0  0  0
  -31.4440  -18.8460   21.7990 F   0  0  0  0  0  0  0  0  0  0  0  0
  -31.8720  -20.0270   20.0340 F   0  0  0  0  0  0  0  0  0  0  0  0
  -30.9980  -20.9310   21.7810 F   0  0  0  0  0  0  0  0  0  0  0  0
  -29.8360  -17.9000   19.8240 C   0  0  0  0  0  2  0  0  0  0  0  0
  -30.7520  -15.3340   20.6150 C   0  0  0  0  0  0  0  0  0  0  0  0
  -30.8550  -12.8650   20.0210 C   0  0  0  0  0  2  0  0  0  0  0  0
  -30.0270  -12.5840   18.7420 C   0  0  0  0  0  2  0  0  0  0  0  0
  -28.5470  -12.3420   19.0840 C   0  0  0  0  0  2  0  0  0  0  0  0
  -28.0010  -13.3760   20.1010 C   0  0  0  0  0  3  0  0  0  0  0  0
  -28.9600  -13.5940   21.2930 C   0  0  0  0  0  2  0  0  0  0  0  0
  -30.2480  -14.0300   20.7330 N   0  0  0  0  0  0  0  0  0  0  0  0
  -31.9510  -15.4360   20.3400 O   0  0  0  0  0  0  0  0  0  0  0  0
  -29.8880  -16.4820   20.5960 N   0  0  0  0  0  0  0  0  0  0  0  0
  -28.9840  -16.2330   20.9710 H   0  0  0  0  0  0  0  0  0  0  0  0
  -25.5880  -13.9240   20.7430 C   0  0  0  0  0  0  0  0  0  0  0  0
  -24.5130  -13.1380   21.0590 C   0  0  0  0  0  0  0  0  0  0  0  0
  -24.9870  -11.7910   21.0280 C   0  0  0  0  0  0  0  0  0  0  0  0
  -26.6450  -13.0570   20.5360 N   0  0  0  0  0  0  0  0  0  0  0  0
  -26.2910  -11.7650   20.7750 N   0  0  0  0  0  0  0  0  0  0  0  0
  -24.2620  -10.5210   21.1640 C   0  0  0  0  0  0  0  0  0  0  0  0
  -24.5810   -9.5940   22.1820 C   0  0  0  0  0  3  0  0  0  0  0  0
  -23.8590   -8.3890   22.3050 C   0  0  0  0  0  3  0  0  0  0  0  0
  -22.7990   -8.1020   21.4100 C   0  0  0  0  0  0  0  0  0  0  0  0
  -22.5020   -9.0150   20.3840 C   0  0  0  0  0  3  0  0  0  0  0  0
  -23.2280  -10.2120   20.2600 C   0  0  0  0  0  3  0  0  0  0  0  0
  -22.0570   -6.9470   21.4400 O   0  0  0  0  0  0  0  0  0  0  0  0
  -21.7830   -6.2940   22.6150 C   0  0  0  0  0  0  0  0  0  0  0  0
  -21.0130   -6.8900   23.6380 C   0  0  0  0  0  3  0  0  0  0  0  0
  -20.7020   -6.1610   24.8020 C   0  0  0  0  0  3  0  0  0  0  0  0
  -21.1470   -4.8320   24.9390 C   0  0  0  0  0  0  0  0  0  0  0  0
  -21.9070   -4.2340   23.9190 C   0  0  0  0  0  3  0  0  0  0  0  0
  -22.2210   -4.9610   22.7590 C   0  0  0  0  0  0  0  0  0  0  0  0
  -22.9370   -4.3730   21.7700 F   0  0  0  0  0  0  0  0  0  0  0  0
  -20.8400   -4.1280   26.0540 F   0  0  0  0  0  0  0  0  0  0  0  0
  -23.1010  -13.6040   21.2690 C   0  0  0  0  0  0  0  0  0  0  0  0
  -22.3370  -12.8950   22.0930 N   0  0  0  0  0  0  0  0  0  0  0  0
  -22.6810  -14.6300   20.7380 O   0  0  0  0  0  0  0  0  0  0  0  0
  -22.6870  -12.0640   22.5460 H   0  0  0  0  0  0  0  0  0  0  0  0
  -21.3880  -13.1880   22.2730 H   0  0  0  0  0  0  0  0  0  0  0  0
  -25.7580  -15.2990   20.5860 N   0  0  0  0  0  0  0  0  0  0  0  0
  -24.9990  -15.9640   20.6790 H   0  0  0  0  0  0  0  0  0  0  0  0
  -26.6090  -15.7190   20.2330 H   0  0  0  0  0  0  0  0  0  0  0  0
  1  2  2  0
  2  4  1  0
  2 55  1  0
  3  7  1  0
  3  4  1  0
  4 49  1  0
  5  1  1  0
  5  3  1  0
  6  5  1  0
  8 10  1  0
  8  7  1  0
  9 20  2  0
 10 15  1  0
 11 19  1  0
 11 21  1  0
 12 18  1  0
 12 14  1  0
 13 19  1  0
 14 13  1  0
 15 14  2  0
 16 17  1  0
 16 10  2  0
 17 12  2  0
 18 11  1  0
 19  9  1  0
 21 23  2  0
 22 21  1  0
 24 22  1  0
 25 34  2  0
 25 30  1  0
 26 22  1  0
 26 30  1  0
 27 26  1  0
 28 29  1  0
 28 27  1  0
 29 25  1  0
 30 31  2  0
 31 32  1  0
 33 32  2  0
 34 33  1  0
 35  9  1  0
 35 40  1  0
 35 36  1  0
 36 39  1  1
 36 37  1  0
 38 36  1  0
 40 43  1  0
 41 40  1  0
 41 45  1  0
 42 41  2  0
 45 44  1  0
 47 45  1  0
 47 48  1  0
 47 46  1  0
 49 50  1  0
 50 54  1  0
 54 52  1  6
 54 51  1  0
 54 53  1  0
 55 60  1  0
 55 56  1  0
 56 59  1  1
 56 57  1  0
 58 56  1  0
 60 69  1  0
 61 67  1  0
 62 67  1  0
 63 64  1  0
 63 62  1  0
 65 64  1  0
 65 74  1  0
 65 66  1  0
 67 66  1  0
 68 61  2  0
 69 61  1  0
 69 70  1  0
 71 72  2  0
 72 91  1  0
 73 72  1  0
 73 76  1  0
 74 71  1  0
 74 75  1  0
 75 73  2  0
 76 77  1  0
 77 78  2  0
 79 82  1  0
 79 78  1  0
 80 79  2  0
 81 80  1  0
 81 76  2  0
 82 83  1  0
 83 88  2  0
 83 84  1  0
 84 85  2  0
 85 86  1  0
 86 90  1  0
 87 86  2  0
 88 87  1  0
 89 88  1  0
 91 92  1  0
 92 95  1  0
 92 94  1  0
 93 91  2  0
 96 97  1  0
 96 71  1  0
 98 96  1  0
M  ISO  4   7 101   8 101  61 100  69 100
M  END
>  <TORSDO>  (10) 
F 23

>  <SCORE>  (10) 
-10.600

>  <name>  (10) 
9

>  <ligand_id>  (10) 
9

>  <original_smiles>  (10) 
[H]c1c([H])c([H])c2c(c1[H])C([H])([H])C([H])([H])C([H])([H])C2([H])N([H])C(=O)C1([H])N(C(=O)C([H])(N([H])C(=O)C([H])(N([H])C([H])([H])[H])C([H])([H])[H])C(C([H])([H])[H])(C([H])([H])[H])C([H])([H])[H])C([H])([H])c2c([H])c(OC([H])([H])c3n(C([H])([H])C([H])([H])C(C([H])([H])[H])(C([H])([H])[H])C([H])([H])[H])c(C([H])(C(F)(F)F)C([H])([H])N([H])C(=O)N4C([H])([H])C([H])([H])C([H])([H])C([H])(n5nc(-c6c([H])c([H])c(Oc7c([H])c([H])c(F)c([H])c7F)c([H])c6[H])c(C(=O)N([H])[H])c5N([H])[H])C4([H])[H])c([H])[n+]3[H])c([H])c([H])c2C1([H])[H]

>  <smiles>  (10) 
[H]c1c([H])c([H])c2c(c1[H])C([H])([H])C([H])([H])C([H])([H])C2([H])N([H])C(=O)C1([H])N(C(=O)C([H])(N([H])C(=O)C([H])(N([H])C([H])([H])[H])C([H])([H])[H])C(C([H])([H])[H])(C([H])([H])[H])C([H])([H])[H])C([H])([H])c2c([H])c(OC([H])([H])c3n(C([H])([H])C([H])([H])C(C([H])([H])[H])(C([H])([H])[H])C([H])([H])[H])c(C([H])(C(F)(F)F)C([H])([H])N([H])C(=O)N4C([H])([H])C([H])([H])C([H])([H])C([H])(n5nc(-c6c([H])c([H])c(Oc7c([H])c([H])c(F)c([H])c7F)c([H])c6[H])c(C(=O)N([H])[H])c5N([H])[H])C4([H])[H])c([H])[n+]3[H])c([H])c([H])c2C1([H])[H]

$$$$
10:0:0
     RDKit          3D

 91 99  0  0  1  0  0  0  0  0999 V2000
  -30.9400  -20.4330   21.5530 C   0  0  0  0  0  3  0  0  0  0  0  0
  -29.7990  -19.7100   19.8570 C   0  0  0  0  0  3  0  0  0  0  0  0
  -30.5310  -21.5040   20.7830 C   0  0  0  0  0  0  0  0  0  0  0  0
  -29.7890  -21.0300   19.7050 N   0  0  0  0  0  0  0  0  0  0  0  0
  -30.4800  -19.2720   20.9340 N   0  0  0  0  0  0  0  0  0  0  0  0
  -32.2340  -17.5840   21.3480 C   0  0  0  0  0  1  0  0  0  0  0  0
  -30.7180  -17.8850   21.3680 C   0  0  0  0  0  3  0  0  0  0  0  0
  -29.8940  -16.8760   20.5210 C   0  0  0  0  0  2  0  0  0  0  0  0
  -30.5930  -14.5100   20.3220 C   0  0  0  0  0  0  0  0  0  0  0  0
  -30.2380  -12.4090   19.0980 C   0  0  0  0  0  2  0  0  0  0  0  0
  -29.2660  -12.7010   17.9400 C   0  0  0  0  0  2  0  0  0  0  0  0
  -27.8000  -12.5630   18.3980 C   0  0  0  0  0  2  0  0  0  0  0  0
  -27.5170  -13.3170   19.7280 C   0  0  0  0  0  3  0  0  0  0  0  0
  -28.6090  -13.0180   20.7840 C   0  0  0  0  0  2  0  0  0  0  0  0
  -29.9250  -13.3340   20.1950 N   0  0  0  0  0  0  0  0  0  0  0  0
  -31.6540  -14.7540   19.7390 O   0  0  0  0  0  0  0  0  0  0  0  0
  -29.9220  -15.4780   20.9620 N   0  0  0  0  0  0  0  0  0  0  0  0
  -29.1250  -15.1620   21.4960 H   0  0  0  0  0  0  0  0  0  0  0  0
  -25.1310  -13.8850   20.5220 C   0  0  0  0  0  0  0  0  0  0  0  0
  -24.0860  -13.0940   20.9170 C   0  0  0  0  0  0  0  0  0  0  0  0
  -24.5600  -11.7490   20.8440 C   0  0  0  0  0  0  0  0  0  0  0  0
  -26.1800  -13.0210   20.2420 N   0  0  0  0  0  0  0  0  0  0  0  0
  -25.8400  -11.7290   20.4900 N   0  0  0  0  0  0  0  0  0  0  0  0
  -23.8550  -10.4760   21.0360 C   0  0  0  0  0  0  0  0  0  0  0  0
  -24.3200   -9.5080   21.9520 C   0  0  0  0  0  3  0  0  0  0  0  0
  -23.6160   -8.2980   22.1340 C   0  0  0  0  0  3  0  0  0  0  0  0
  -22.4320   -8.0480   21.4020 C   0  0  0  0  0  0  0  0  0  0  0  0
  -21.9850   -9.0050   20.4730 C   0  0  0  0  0  3  0  0  0  0  0  0
  -22.6890  -10.2070   20.2890 C   0  0  0  0  0  3  0  0  0  0  0  0
  -21.6950   -6.8910   21.4930 O   0  0  0  0  0  0  0  0  0  0  0  0
  -21.6680   -6.1430   22.6430 C   0  0  0  0  0  0  0  0  0  0  0  0
  -21.2470   -6.6860   23.8760 C   0  0  0  0  0  3  0  0  0  0  0  0
  -21.1690   -5.8630   25.0170 C   0  0  0  0  0  3  0  0  0  0  0  0
  -21.5020   -4.4990   24.9270 C   0  0  0  0  0  0  0  0  0  0  0  0
  -21.9150   -3.9540   23.7000 C   0  0  0  0  0  3  0  0  0  0  0  0
  -21.9960   -4.7750   22.5600 C   0  0  0  0  0  0  0  0  0  0  0  0
  -22.3730   -4.2430   21.3730 F   0  0  0  0  0  0  0  0  0  0  0  0
  -21.4200   -3.7050   26.0220 F   0  0  0  0  0  0  0  0  0  0  0  0
  -22.6940  -13.5490   21.2490 C   0  0  0  0  0  0  0  0  0  0  0  0
  -22.0030  -12.8270   22.1240 N   0  0  0  0  0  0  0  0  0  0  0  0
  -22.2280  -14.5820   20.7690 O   0  0  0  0  0  0  0  0  0  0  0  0
  -22.3970  -11.9990   22.5470 H   0  0  0  0  0  0  0  0  0  0  0  0
  -21.0670  -13.1090   22.3800 H   0  0  0  0  0  0  0  0  0  0  0  0
  -25.2730  -15.2600   20.3560 N   0  0  0  0  0  0  0  0  0  0  0  0
  -24.4950  -15.9020   20.4680 H   0  0  0  0  0  0  0  0  0  0  0  0
  -26.0990  -15.7030   19.9750 H   0  0  0  0  0  0  0  0  0  0  0  0
  -30.8630  -22.9680   20.9130 C   0  0  0  0  0  2  0  0  0  0  0  0
  -29.6720  -23.8800   21.2850 C   0  0  0  0  0  2  0  0  0  0  0  0
  -30.0570  -25.3800   21.3090 C   0  0  0  0  0  2  0  0  0  0  0  0
  -28.8690  -26.3540   21.4670 C   0  0  0  0  0  2  0  0  0  0  0  0
  -28.3690  -26.7350   20.1870 O   0  0  0  0  0  0  0  0  0  0  0  0
  -24.5280  -31.9160   23.2480 C   0  0  0  0  0  0  0  0  0  0  0  0
  -27.2200  -27.4900   20.2160 C   0  0  0  0  0  0  0  0  0  0  0  0
  -23.3360  -30.4970   21.6080 C   0  0  0  0  0  3  0  0  0  0  0  0
  -24.8100  -28.9600   20.2010 C   0  0  0  0  0  0  0  0  0  0  0  0
  -25.8570  -30.8770   21.4200 C   0  0  0  0  0  2  0  0  0  0  0  0
  -25.9570  -29.5010   20.7970 C   0  0  0  0  0  0  0  0  0  0  0  0
  -27.1650  -28.7720   20.8090 C   0  0  0  0  0  3  0  0  0  0  0  0
  -26.0640  -26.9640   19.6060 C   0  0  0  0  0  3  0  0  0  0  0  0
  -24.8560  -27.6870   19.6060 C   0  0  0  0  0  3  0  0  0  0  0  0
  -23.5580  -29.8070   20.2350 C   0  0  0  0  0  2  0  0  0  0  0  0
  -24.5900  -31.1110   22.1520 N   0  0  0  0  0  0  0  0  0  0  0  0
  -23.4420  -32.1860   23.7850 O   0  0  0  0  0  0  0  0  0  0  0  0
  -22.6880  -29.4770   22.5730 C   0  0  0  0  0  0  0  0  0  0  0  0
  -21.3650  -29.2840   22.4420 N   0  0  0  0  0  0  0  0  0  0  0  0
  -23.3710  -28.8640   23.3990 O   0  0  0  0  0  0  0  0  0  0  0  0
  -20.8730  -29.8330   21.7490 H   0  0  0  0  0  0  0  0  0  0  0  0
  -17.9970  -28.0730   22.9320 C   0  0  0  0  0  0  0  0  0  0  0  0
  -20.5510  -28.3470   23.2140 C   0  0  0  0  0  3  0  0  0  0  0  0
  -20.6640  -26.9130   22.6470 C   0  0  0  0  0  2  0  0  0  0  0  0
  -19.5680  -26.5760   21.6310 C   0  0  0  0  0  2  0  0  0  0  0  0
  -18.1830  -26.7190   22.2680 C   0  0  0  0  0  2  0  0  0  0  0  0
  -19.1090  -28.8430   23.3640 C   0  0  0  0  0  0  0  0  0  0  0  0
  -18.8820  -30.1090   23.9450 C   0  0  0  0  0  3  0  0  0  0  0  0
  -17.5740  -30.6050   24.0990 C   0  0  0  0  0  3  0  0  0  0  0  0
  -16.4760  -29.8320   23.6860 C   0  0  0  0  0  3  0  0  0  0  0  0
  -16.6880  -28.5670   23.1080 C   0  0  0  0  0  3  0  0  0  0  0  0
  -25.8080  -32.5580   23.8690 C   0  0  0  0  0  3  0  0  0  0  0  0
  -25.4940  -33.9570   24.1830 N   0  0  0  0  0  0  0  0  0  0  0  0
  -25.8380  -35.0040   23.4210 C   0  0  0  0  0  0  0  0  0  0  0  0
  -26.5260  -34.8940   22.4030 O   0  0  0  0  0  0  0  0  0  0  0  0
  -24.8840  -34.1180   24.9720 H   0  0  0  0  0  0  0  0  0  0  0  0
  -24.1220  -36.7950   23.0150 C   0  0  0  0  0  1  0  0  0  0  0  0
  -25.3410  -36.3940   23.8600 C   0  0  0  0  0  3  0  0  0  0  0  0
  -27.4550  -37.2800   24.7410 C   0  0  0  0  0  1  0  0  0  0  0  0
  -26.3780  -37.4450   23.7690 N   0  0  0  0  0  0  0  0  0  0  0  0
  -25.9700  -38.3660   23.9010 H   0  0  0  0  0  0  0  0  0  0  0  0
  -26.3280  -31.7990   25.1510 C   0  0  1  0  0  0  0  0  0  0  0  0
  -25.2340  -31.5650   26.2180 C   0  0  0  0  0  1  0  0  0  0  0  0
  -26.9190  -30.4210   24.7680 C   0  0  0  0  0  1  0  0  0  0  0  0
  -27.4730  -32.6030   25.8090 C   0  0  0  0  0  1  0  0  0  0  0  0
  2  5  1  0
  3 47  1  0
  3  1  2  0
  4  2  2  0
  4  3  1  0
  5  7  1  0
  5  1  1  0
  7  6  1  0
  8 17  1  0
  8  7  1  0
  9 17  1  0
 10 15  1  0
 11 12  1  0
 11 10  1  0
 13 12  1  0
 13 22  1  0
 13 14  1  0
 15  9  1  0
 15 14  1  0
 16  9  2  0
 17 18  1  0
 19 20  2  0
 20 39  1  0
 21 20  1  0
 21 24  1  0
 22 23  1  0
 22 19  1  0
 23 21  2  0
 24 25  1  0
 25 26  2  0
 27 30  1  0
 27 26  1  0
 28 27  2  0
 29 28  1  0
 29 24  2  0
 30 31  1  0
 31 32  1  0
 32 33  2  0
 34 33  1  0
 34 38  1  0
 35 34  2  0
 36 31  2  0
 36 35  1  0
 37 36  1  0
 39 40  1  0
 40 43  1  0
 40 42  1  0
 41 39  2  0
 44 45  1  0
 44 19  1  0
 46 44  1  0
 47 48  1  0
 48 49  1  0
 49 50  1  0
 51 53  1  0
 51 50  1  0
 52 63  2  0
 53 58  1  0
 54 62  1  0
 54 64  1  0
 55 61  1  0
 55 57  1  0
 56 62  1  0
 57 58  2  0
 57 56  1  0
 59 53  2  0
 60 59  1  0
 60 55  2  0
 61 54  1  0
 62 52  1  0
 64 66  2  0
 65 64  1  0
 67 65  1  0
 68 77  2  0
 68 73  1  0
 69 65  1  0
 69 73  1  0
 70 69  1  0
 71 72  1  0
 71 70  1  0
 72 68  1  0
 73 74  2  0
 74 75  1  0
 76 75  2  0
 77 76  1  0
 78 52  1  0
 78 79  1  0
 78 88  1  0
 79 82  1  0
 80 84  1  0
 80 79  1  0
 81 80  2  0
 84 83  1  0
 86 84  1  0
 86 87  1  0
 86 85  1  0
 88 91  1  1
 88 89  1  0
 90 88  1  0
M  ISO  4   9 100  17 100  50 101  51 101
M  END
>  <TORSDO>  (11) 
F 22

>  <SCORE>  (11) 
-12.963

>  <name>  (11) 
10

>  <ligand_id>  (11) 
10

>  <original_smiles>  (11) 
[H]c1c([H])c([H])c2c(c1[H])C([H])([H])C([H])([H])C([H])([H])C2([H])N([H])C(=O)C1([H])N(C(=O)C([H])(N([H])C(=O)C([H])(N([H])C([H])([H])[H])C([H])([H])[H])C(C([H])([H])[H])(C([H])([H])[H])C([H])([H])[H])C([H])([H])c2c([H])c(OC([H])([H])C([H])([H])C([H])([H])C([H])([H])c3nc([H])n(C([H])(C([H])([H])[H])C([H])([H])N([H])C(=O)N4C([H])([H])C([H])([H])C([H])([H])C([H])(n5nc(-c6c([H])c([H])c(Oc7c([H])c([H])c(F)c([H])c7F)c([H])c6[H])c(C(=O)N([H])[H])c5N([H])[H])C4([H])[H])c3[H])c([H])c([H])c2C1([H])[H]

>  <smiles>  (11) 
[H]c1c([H])c([H])c2c(c1[H])C([H])([H])C([H])([H])C([H])([H])C2([H])N([H])C(=O)C1([H])N(C(=O)C([H])(N([H])C(=O)C([H])(N([H])C([H])([H])[H])C([H])([H])[H])C(C([H])([H])[H])(C([H])([H])[H])C([H])([H])[H])C([H])([H])c2c([H])c(OC([H])([H])C([H])([H])C([H])([H])C([H])([H])c3nc([H])n(C([H])(C([H])([H])[H])C([H])([H])N([H])C(=O)N4C([H])([H])C([H])([H])C([H])([H])C([H])(n5nc(-c6c([H])c([H])c(Oc7c([H])c([H])c(F)c([H])c7F)c([H])c6[H])c(C(=O)N([H])[H])c5N([H])[H])C4([H])[H])c3[H])c([H])c([H])c2C1([H])[H]

$$$$
11:0:0
     RDKit          3D

 93101  0  0  1  0  0  0  0  0999 V2000
  -29.4780  -21.6680   22.0330 C   0  0  0  0  0  0  0  0  0  0  0  0
  -29.3410  -20.2740   20.2850 C   0  0  0  0  0  0  0  0  0  0  0  0
  -28.8620  -22.5510   20.0750 C   0  0  0  0  0  0  0  0  0  0  0  0
  -29.6910  -21.8690   23.5180 C   0  0  0  0  0  1  0  0  0  0  0  0
  -29.6040  -20.4280   21.5770 N   0  0  0  0  0  4  0  0  0  0  0  0
  -29.1260  -22.7510   21.3570 N   0  0  0  0  0  0  0  0  0  0  0  0
  -28.9700  -21.3190   19.4770 N   0  0  0  0  0  2  0  0  0  0  0  0
  -27.1770  -23.5500   18.4600 C   0  0  0  0  0  1  0  0  0  0  0  0
  -29.6090  -24.2570   18.3180 C   0  0  0  0  0  1  0  0  0  0  0  0
  -28.4510  -23.8790   19.2620 C   0  0  2  0  0  0  0  0  0  0  0  0
  -28.1150  -25.2210   20.1350 C   0  0  0  0  0  2  0  0  0  0  0  0
  -28.1580  -26.6170   19.5700 O   0  0  0  0  0  0  0  0  0  0  0  0
  -24.5260  -31.7820   23.2000 C   0  0  0  0  0  0  0  0  0  0  0  0
  -27.0390  -27.4610   19.7080 C   0  0  0  0  0  0  0  0  0  0  0  0
  -23.2630  -30.4790   21.5270 C   0  0  0  0  0  3  0  0  0  0  0  0
  -24.6640  -29.0500   19.9300 C   0  0  0  0  0  0  0  0  0  0  0  0
  -25.7860  -30.8480   21.2390 C   0  0  0  0  0  2  0  0  0  0  0  0
  -25.8560  -29.5140   20.4980 C   0  0  0  0  0  0  0  0  0  0  0  0
  -27.0510  -28.7350   20.3710 C   0  0  0  0  0  3  0  0  0  0  0  0
  -25.8230  -27.0560   19.1270 C   0  0  0  0  0  3  0  0  0  0  0  0
  -24.6510  -27.8310   19.2320 C   0  0  0  0  0  3  0  0  0  0  0  0
  -23.4230  -29.9030   20.0950 C   0  0  0  0  0  2  0  0  0  0  0  0
  -24.5480  -31.0520   22.0460 N   0  0  0  0  0  0  0  0  0  0  0  0
  -23.4680  -32.0020   23.8080 O   0  0  0  0  0  0  0  0  0  0  0  0
  -22.6620  -29.3890   22.4480 C   0  0  0  0  0  0  0  0  0  0  0  0
  -21.3470  -29.1420   22.3200 N   0  0  0  0  0  0  0  0  0  0  0  0
  -23.3770  -28.7730   23.2440 O   0  0  0  0  0  0  0  0  0  0  0  0
  -20.8250  -29.6930   21.6530 H   0  0  0  0  0  0  0  0  0  0  0  0
  -18.0640  -27.6620   22.7030 C   0  0  0  0  0  0  0  0  0  0  0  0
  -20.5860  -28.1210   23.0470 C   0  0  0  0  0  3  0  0  0  0  0  0
  -20.8210  -26.7190   22.4370 C   0  0  0  0  0  2  0  0  0  0  0  0
  -19.7710  -26.3390   21.3890 C   0  0  0  0  0  2  0  0  0  0  0  0
  -18.3680  -26.3510   22.0000 C   0  0  0  0  0  2  0  0  0  0  0  0
  -19.1060  -28.5020   23.1800 C   0  0  0  0  0  0  0  0  0  0  0  0
  -18.7670  -29.7280   23.7920 C   0  0  0  0  0  3  0  0  0  0  0  0
  -17.4200  -30.1180   23.9280 C   0  0  0  0  0  3  0  0  0  0  0  0
  -16.3950  -29.2760   23.4640 C   0  0  0  0  0  3  0  0  0  0  0  0
  -16.7180  -28.0490   22.8590 C   0  0  0  0  0  3  0  0  0  0  0  0
  -25.8290  -32.3950   23.8040 C   0  0  0  0  0  3  0  0  0  0  0  0
  -26.3670  -31.5970   25.0550 C   0  0  1  0  0  0  0  0  0  0  0  0
  -25.2870  -31.3290   26.1300 C   0  0  0  0  0  1  0  0  0  0  0  0
  -26.9510  -30.2320   24.6220 C   0  0  0  0  0  1  0  0  0  0  0  0
  -27.5200  -32.3840   25.7210 C   0  0  0  0  0  1  0  0  0  0  0  0
  -25.5400  -33.7900   24.1680 N   0  0  0  0  0  0  0  0  0  0  0  0
  -25.8610  -34.8550   23.4180 C   0  0  0  0  0  0  0  0  0  0  0  0
  -26.4980  -34.7630   22.3660 O   0  0  0  0  0  0  0  0  0  0  0  0
  -24.9810  -33.9350   24.9950 H   0  0  0  0  0  0  0  0  0  0  0  0
  -24.1420  -36.6720   23.1450 C   0  0  0  0  0  1  0  0  0  0  0  0
  -25.4010  -36.2400   23.9130 C   0  0  0  0  0  3  0  0  0  0  0  0
  -27.5610  -37.0990   24.7090 C   0  0  0  0  0  1  0  0  0  0  0  0
  -26.4420  -37.2850   23.7890 N   0  0  0  0  0  0  0  0  0  0  0  0
  -26.0480  -38.2080   23.9520 H   0  0  0  0  0  0  0  0  0  0  0  0
  -28.8480  -18.5820   18.3680 C   0  0  0  0  0  1  0  0  0  0  0  0
  -29.2270  -18.7300   19.8510 C   0  0  0  0  0  3  0  0  0  0  0  0
  -30.3960  -17.6590   20.2140 C   0  0  0  0  0  2  0  0  0  0  0  0
  -30.8980  -15.0480   20.0070 C   0  0  0  0  0  0  0  0  0  0  0  0
  -30.7300  -12.7210   19.1200 C   0  0  0  0  0  2  0  0  0  0  0  0
  -29.7550  -12.7180   17.9260 C   0  0  0  0  0  2  0  0  0  0  0  0
  -28.3020  -12.5380   18.4110 C   0  0  0  0  0  2  0  0  0  0  0  0
  -27.9490  -13.4650   19.6070 C   0  0  0  0  0  3  0  0  0  0  0  0
  -29.0450  -13.4570   20.6920 C   0  0  0  0  0  2  0  0  0  0  0  0
  -30.3080  -13.8070   20.0300 N   0  0  0  0  0  0  0  0  0  0  0  0
  -32.0730  -15.1730   19.6500 O   0  0  0  0  0  0  0  0  0  0  0  0
  -30.0850  -16.1540   20.1880 N   0  0  0  0  0  0  0  0  0  0  0  0
  -29.1300  -15.9200   20.4090 H   0  0  0  0  0  0  0  0  0  0  0  0
  -25.6140  -14.0680   20.4810 C   0  0  0  0  0  0  0  0  0  0  0  0
  -24.5570  -13.3000   20.8780 C   0  0  0  0  0  0  0  0  0  0  0  0
  -24.9910  -11.9420   20.7700 C   0  0  0  0  0  0  0  0  0  0  0  0
  -26.6280  -13.1820   20.1560 N   0  0  0  0  0  0  0  0  0  0  0  0
  -26.2640  -11.8950   20.3900 N   0  0  0  0  0  0  0  0  0  0  0  0
  -24.2520  -10.6870   20.9460 C   0  0  0  0  0  0  0  0  0  0  0  0
  -24.6340   -9.7340   21.9150 C   0  0  0  0  0  3  0  0  0  0  0  0
  -23.8940   -8.5440   22.0800 C   0  0  0  0  0  3  0  0  0  0  0  0
  -22.7570   -8.2960   21.2730 C   0  0  0  0  0  0  0  0  0  0  0  0
  -22.3940   -9.2380   20.2950 C   0  0  0  0  0  3  0  0  0  0  0  0
  -23.1350  -10.4200   20.1280 C   0  0  0  0  0  3  0  0  0  0  0  0
  -21.9950   -7.1550   21.3460 O   0  0  0  0  0  0  0  0  0  0  0  0
  -21.7970   -6.4950   22.5320 C   0  0  0  0  0  0  0  0  0  0  0  0
  -21.1580   -7.1120   23.6290 C   0  0  0  0  0  3  0  0  0  0  0  0
  -20.9090   -6.3740   24.8030 C   0  0  0  0  0  3  0  0  0  0  0  0
  -21.2920   -5.0210   24.8820 C   0  0  0  0  0  0  0  0  0  0  0  0
  -21.9260   -4.4060   23.7890 C   0  0  0  0  0  3  0  0  0  0  0  0
  -22.1740   -5.1390   22.6160 C   0  0  0  0  0  0  0  0  0  0  0  0
  -22.7620   -4.5340   21.5560 F   0  0  0  0  0  0  0  0  0  0  0  0
  -21.0480   -4.3100   26.0080 F   0  0  0  0  0  0  0  0  0  0  0  0
  -23.1850  -13.7890   21.2470 C   0  0  0  0  0  0  0  0  0  0  0  0
  -22.4920  -13.0720   22.1250 N   0  0  0  0  0  0  0  0  0  0  0  0
  -22.7420  -14.8420   20.7930 O   0  0  0  0  0  0  0  0  0  0  0  0
  -22.8630  -12.2210   22.5170 H   0  0  0  0  0  0  0  0  0  0  0  0
  -21.5740  -13.3870   22.4100 H   0  0  0  0  0  0  0  0  0  0  0  0
  -25.7840  -15.4430   20.3470 N   0  0  0  0  0  0  0  0  0  0  0  0
  -25.0160  -16.0800   20.5290 H   0  0  0  0  0  0  0  0  0  0  0  0
  -26.5940  -15.9050   19.9580 H   0  0  0  0  0  0  0  0  0  0  0  0
  1  4  1  0
  2  5  2  0
  3  6  2  0
  5  1  2  0
  6  1  1  0
  7  3  1  0
  7  2  1  0
 10  8  1  6
  9 10  1  0
 10  3  1  0
 10 11  1  0
 12 14  1  0
 12 11  1  0
 13 24  2  0
 14 19  1  0
 15 23  1  0
 15 25  1  0
 16 22  1  0
 16 18  1  0
 17 23  1  0
 18 17  1  0
 19 18  2  0
 20 21  1  0
 20 14  2  0
 21 16  2  0
 22 15  1  0
 23 13  1  0
 25 27  2  0
 26 25  1  0
 28 26  1  0
 29 38  2  0
 29 34  1  0
 30 26  1  0
 30 34  1  0
 31 30  1  0
 32 33  1  0
 32 31  1  0
 33 29  1  0
 34 35  2  0
 35 36  1  0
 37 36  2  0
 38 37  1  0
 39 13  1  0
 39 44  1  0
 39 40  1  0
 40 43  1  1
 40 41  1  0
 42 40  1  0
 44 47  1  0
 45 49  1  0
 45 44  1  0
 46 45  2  0
 49 48  1  0
 51 49  1  0
 51 52  1  0
 51 50  1  0
 54 53  1  0
 54 55  1  0
 54  2  1  0
 56 62  1  0
 56 64  1  0
 57 62  1  0
 58 59  1  0
 58 57  1  0
 60 59  1  0
 60 69  1  0
 60 61  1  0
 62 61  1  0
 63 56  2  0
 64 55  1  0
 64 65  1  0
 66 67  2  0
 67 86  1  0
 68 67  1  0
 68 71  1  0
 69 70  1  0
 69 66  1  0
 70 68  2  0
 71 72  1  0
 72 73  2  0
 74 77  1  0
 74 73  1  0
 75 74  2  0
 76 75  1  0
 76 71  2  0
 77 78  1  0
 78 83  2  0
 78 79  1  0
 79 80  2  0
 80 81  1  0
 81 85  1  0
 82 81  2  0
 83 82  1  0
 84 83  1  0
 86 87  1  0
 87 90  1  0
 87 89  1  0
 88 86  2  0
 91 66  1  0
 91 92  1  0
 93 91  1  0
M  ISO  4  11 101  12 101  56 100  64 100
M  END
>  <TORSDO>  (12) 
F 20

>  <SCORE>  (12) 
-13.443

>  <name>  (12) 
11

>  <ligand_id>  (12) 
11

>  <original_smiles>  (12) 
[H]c1c([H])c([H])c2c(c1[H])C([H])([H])C([H])([H])C([H])([H])C2([H])N([H])C(=O)C1([H])N(C(=O)C([H])(N([H])C(=O)C([H])(N([H])C([H])([H])[H])C([H])([H])[H])C(C([H])([H])[H])(C([H])([H])[H])C([H])([H])[H])C([H])([H])c2c([H])c(OC([H])([H])C(c3nc(C([H])([H])[H])nc(C([H])(C([H])([H])[H])C([H])([H])N([H])C(=O)N4C([H])([H])C([H])([H])C([H])([H])C([H])(n5nc(-c6c([H])c([H])c(Oc7c([H])c([H])c(F)c([H])c7F)c([H])c6[H])c(C(=O)N([H])[H])c5N([H])[H])C4([H])[H])n3)(C([H])([H])[H])C([H])([H])[H])c([H])c([H])c2C1([H])[H]

>  <smiles>  (12) 
[H]c1c([H])c([H])c2c(c1[H])C([H])([H])C([H])([H])C([H])([H])C2([H])N([H])C(=O)C1([H])N(C(=O)C([H])(N([H])C(=O)C([H])(N([H])C([H])([H])[H])C([H])([H])[H])C(C([H])([H])[H])(C([H])([H])[H])C([H])([H])[H])C([H])([H])c2c([H])c(OC([H])([H])C(c3nc(C([H])([H])[H])nc(C([H])(C([H])([H])[H])C([H])([H])N([H])C(=O)N4C([H])([H])C([H])([H])C([H])([H])C([H])(n5nc(-c6c([H])c([H])c(Oc7c([H])c([H])c(F)c([H])c7F)c([H])c6[H])c(C(=O)N([H])[H])c5N([H])[H])C4([H])[H])n3)(C([H])([H])[H])C([H])([H])[H])c([H])c([H])c2C1([H])[H]

$$$$
12:0:0
     RDKit          3D

 95103  0  0  1  0  0  0  0  0999 V2000
  -29.8520  -21.1980   21.0820 C   0  0  0  0  0  3  0  0  0  0  0  0
  -28.6870  -21.9570   20.7270 C   0  0  0  0  0  0  0  0  0  0  0  0
  -27.7090  -21.0290   20.2220 C   0  0  0  0  0  0  0  0  0  0  0  0
  -29.0280  -19.0400   20.5550 C   0  0  0  0  0  0  0  0  0  0  0  0
  -29.9970  -19.8280   21.0350 N   0  0  0  0  0  0  0  0  0  0  0  0
  -27.8940  -19.6540   20.1630 N   0  0  0  0  0  0  0  0  0  0  0  0
  -25.8110  -20.7910   18.4980 C   0  0  0  0  0  1  0  0  0  0  0  0
  -26.3100  -21.4590   19.7920 C   0  0  0  0  0  2  0  0  0  0  0  0
  -29.1140  -17.3920   20.5030 C   0  0  0  0  0  2  0  0  0  0  0  0
  -31.5710  -17.1960   19.9620 C   0  0  0  0  0  1  0  0  0  0  0  0
  -30.8080  -16.5980   22.2740 C   0  0  0  0  0  1  0  0  0  0  0  0
  -30.4510  -16.4550   20.7780 C   0  0  1  0  0  0  0  0  0  0  0  0
  -30.7210  -14.8400   20.4140 C   0  0  0  0  0  0  0  0  0  0  0  0
  -30.3820  -12.5000   19.5300 C   0  0  0  0  0  2  0  0  0  0  0  0
  -29.4990  -12.4820   18.2680 C   0  0  0  0  0  2  0  0  0  0  0  0
  -28.0310  -12.3130   18.6820 C   0  0  0  0  0  2  0  0  0  0  0  0
  -27.6220  -13.2660   19.8370 C   0  0  0  0  0  3  0  0  0  0  0  0
  -28.6630  -13.3560   20.9770 C   0  0  0  0  0  2  0  0  0  0  0  0
  -29.9600  -13.6700   20.3750 N   0  0  0  0  0  0  0  0  0  0  0  0
  -31.8870  -14.6400   20.0720 O   0  0  0  0  0  0  0  0  0  0  0  0
  -25.2420  -13.8320   20.5750 C   0  0  0  0  0  0  0  0  0  0  0  0
  -24.1740  -13.0480   20.9230 C   0  0  0  0  0  0  0  0  0  0  0  0
  -24.6390  -11.7000   20.8770 C   0  0  0  0  0  0  0  0  0  0  0  0
  -26.2840  -12.9580   20.3320 N   0  0  0  0  0  0  0  0  0  0  0  0
  -25.9330  -11.6690   20.5800 N   0  0  0  0  0  0  0  0  0  0  0  0
  -23.9100  -10.4330   21.0420 C   0  0  0  0  0  0  0  0  0  0  0  0
  -24.3630   -9.4240   21.9210 C   0  0  0  0  0  3  0  0  0  0  0  0
  -23.6300   -8.2270   22.0780 C   0  0  0  0  0  3  0  0  0  0  0  0
  -22.4290   -8.0300   21.3560 C   0  0  0  0  0  0  0  0  0  0  0  0
  -21.9920   -9.0280   20.4680 C   0  0  0  0  0  3  0  0  0  0  0  0
  -22.7240  -10.2170   20.3090 C   0  0  0  0  0  3  0  0  0  0  0  0
  -21.6660   -6.8890   21.4250 O   0  0  0  0  0  0  0  0  0  0  0  0
  -21.6860   -6.0730   22.5280 C   0  0  0  0  0  0  0  0  0  0  0  0
  -21.4010   -6.5640   23.8200 C   0  0  0  0  0  3  0  0  0  0  0  0
  -21.3660   -5.6810   24.9170 C   0  0  0  0  0  3  0  0  0  0  0  0
  -21.6020   -4.3060   24.7230 C   0  0  0  0  0  0  0  0  0  0  0  0
  -21.8810   -3.8150   23.4350 C   0  0  0  0  0  3  0  0  0  0  0  0
  -21.9190   -4.6960   22.3400 C   0  0  0  0  0  0  0  0  0  0  0  0
  -22.1670   -4.2130   21.0970 F   0  0  0  0  0  0  0  0  0  0  0  0
  -21.5620   -3.4570   25.7750 F   0  0  0  0  0  0  0  0  0  0  0  0
  -22.7770  -13.5260   21.1860 C   0  0  0  0  0  0  0  0  0  0  0  0
  -22.0450  -12.8220   22.0430 N   0  0  0  0  0  0  0  0  0  0  0  0
  -22.3440  -14.5570   20.6740 O   0  0  0  0  0  0  0  0  0  0  0  0
  -22.4050  -11.9850   22.4770 H   0  0  0  0  0  0  0  0  0  0  0  0
  -21.1100  -13.1270   22.2700 H   0  0  0  0  0  0  0  0  0  0  0  0
  -25.4100  -15.2030   20.4150 N   0  0  0  0  0  0  0  0  0  0  0  0
  -24.6500  -15.8610   20.5410 H   0  0  0  0  0  0  0  0  0  0  0  0
  -26.2570  -15.6470   20.0840 H   0  0  0  0  0  0  0  0  0  0  0  0
  -28.5090  -23.5720   21.1050 C   0  0  2  0  0  0  0  0  0  0  0  0
  -29.9210  -25.3920   22.5280 C   0  0  0  0  0  1  0  0  0  0  0  0
  -29.8110  -23.9960   21.8820 C   0  0  0  0  0  2  0  0  0  0  0  0
  -27.3240  -22.7480   23.3200 C   0  0  0  0  0  1  0  0  0  0  0  0
  -27.3120  -23.6900   22.0950 C   0  0  0  0  0  2  0  0  0  0  0  0
  -28.2260  -24.7460   19.9610 C   0  0  0  0  0  2  0  0  0  0  0  0
  -28.2730  -26.2610   20.2350 O   0  0  0  0  0  0  0  0  0  0  0  0
  -24.6340  -31.8520   23.1940 C   0  0  0  0  0  0  0  0  0  0  0  0
  -27.1850  -27.1800   20.1390 C   0  0  0  0  0  0  0  0  0  0  0  0
  -23.4360  -30.4690   21.5420 C   0  0  0  0  0  3  0  0  0  0  0  0
  -24.8760  -28.9090   20.1080 C   0  0  0  0  0  0  0  0  0  0  0  0
  -25.9860  -30.7360   21.3880 C   0  0  0  0  0  2  0  0  0  0  0  0
  -26.0490  -29.3540   20.7260 C   0  0  0  0  0  0  0  0  0  0  0  0
  -27.2050  -28.5010   20.7270 C   0  0  0  0  0  3  0  0  0  0  0  0
  -25.9920  -26.8290   19.4700 C   0  0  0  0  0  3  0  0  0  0  0  0
  -24.8540  -27.6620   19.4660 C   0  0  0  0  0  3  0  0  0  0  0  0
  -23.6560  -29.8080   20.1570 C   0  0  0  0  0  2  0  0  0  0  0  0
  -24.7050  -31.0400   22.0960 N   0  0  0  0  0  0  0  0  0  0  0  0
  -23.5470  -32.1420   23.7150 O   0  0  0  0  0  0  0  0  0  0  0  0
  -22.7570  -29.4550   22.4950 C   0  0  0  0  0  0  0  0  0  0  0  0
  -21.4270  -29.3020   22.3710 N   0  0  0  0  0  0  0  0  0  0  0  0
  -23.4250  -28.8120   23.3100 O   0  0  0  0  0  0  0  0  0  0  0  0
  -20.9530  -29.8750   21.6890 H   0  0  0  0  0  0  0  0  0  0  0  0
  -18.0270  -28.1380   22.8460 C   0  0  0  0  0  0  0  0  0  0  0  0
  -20.5880  -28.3680   23.1280 C   0  0  0  0  0  3  0  0  0  0  0  0
  -20.6760  -26.9410   22.5410 C   0  0  0  0  0  2  0  0  0  0  0  0
  -19.5740  -26.6370   21.5200 C   0  0  0  0  0  2  0  0  0  0  0  0
  -18.1930  -26.7910   22.1620 C   0  0  0  0  0  2  0  0  0  0  0  0
  -19.1530  -28.8860   23.2840 C   0  0  0  0  0  0  0  0  0  0  0  0
  -18.9440  -30.1450   23.8880 C   0  0  0  0  0  3  0  0  0  0  0  0
  -17.6440  -30.6590   24.0540 C   0  0  0  0  0  3  0  0  0  0  0  0
  -16.5330  -29.9080   23.6320 C   0  0  0  0  0  3  0  0  0  0  0  0
  -16.7260  -28.6480   23.0370 C   0  0  0  0  0  3  0  0  0  0  0  0
  -25.9130  -32.4750   23.8330 C   0  0  0  0  0  3  0  0  0  0  0  0
  -25.5910  -33.8560   24.2240 N   0  0  0  0  0  0  0  0  0  0  0  0
  -25.9060  -34.9440   23.5090 C   0  0  0  0  0  0  0  0  0  0  0  0
  -26.5650  -34.8910   22.4670 O   0  0  0  0  0  0  0  0  0  0  0  0
  -25.0070  -33.9700   25.0400 H   0  0  0  0  0  0  0  0  0  0  0  0
  -24.1470  -36.7270   23.2640 C   0  0  0  0  0  1  0  0  0  0  0  0
  -25.4120  -36.3090   24.0330 C   0  0  0  0  0  3  0  0  0  0  0  0
  -27.5600  -37.1790   24.8480 C   0  0  0  0  0  1  0  0  0  0  0  0
  -26.4300  -37.3790   23.9420 N   0  0  0  0  0  0  0  0  0  0  0  0
  -26.0200  -38.2870   24.1400 H   0  0  0  0  0  0  0  0  0  0  0  0
  -26.4480  -31.6600   25.0750 C   0  0  1  0  0  0  0  0  0  0  0  0
  -25.3670  -31.3740   26.1450 C   0  0  0  0  0  1  0  0  0  0  0  0
  -27.0320  -30.3000   24.6260 C   0  0  0  0  0  1  0  0  0  0  0  0
  -27.6050  -32.4350   25.7500 C   0  0  0  0  0  1  0  0  0  0  0  0
  2  1  2  0
  2 49  1  0
  3  2  1  0
  4  5  2  0
  5  1  1  0
  6  3  2  0
  6  4  1  0
  7  8  1  0
  8  3  1  0
  9  4  1  0
  9 12  1  0
 12 10  1  6
 12 11  1  0
 13 12  1  0
 14 19  1  0
 15 16  1  0
 15 14  1  0
 17 16  1  0
 17 24  1  0
 17 18  1  0
 19 13  1  0
 19 18  1  0
 20 13  2  0
 21 22  2  0
 22 41  1  0
 23 22  1  0
 23 26  1  0
 24 21  1  0
 24 25  1  0
 25 23  2  0
 26 27  1  0
 27 28  2  0
 29 32  1  0
 29 28  1  0
 30 29  2  0
 31 30  1  0
 31 26  2  0
 32 33  1  0
 33 34  1  0
 34 35  2  0
 36 35  1  0
 36 40  1  0
 37 36  2  0
 38 33  2  0
 38 37  1  0
 39 38  1  0
 41 42  1  0
 42 45  1  0
 42 44  1  0
 43 41  2  0
 46 47  1  0
 46 21  1  0
 48 46  1  0
 49 51  1  1
 49 53  1  0
 51 50  1  0
 53 52  1  0
 54 55  1  0
 54 49  1  0
 56 67  2  0
 57 55  1  0
 57 62  1  0
 58 66  1  0
 58 68  1  0
 59 65  1  0
 59 61  1  0
 60 66  1  0
 61 62  2  0
 61 60  1  0
 63 57  2  0
 64 63  1  0
 64 59  2  0
 65 58  1  0
 66 56  1  0
 68 70  2  0
 69 68  1  0
 71 69  1  0
 72 81  2  0
 72 77  1  0
 73 69  1  0
 73 77  1  0
 74 73  1  0
 75 76  1  0
 75 74  1  0
 76 72  1  0
 77 78  2  0
 78 79  1  0
 80 79  2  0
 81 80  1  0
 82 56  1  0
 82 83  1  0
 82 92  1  0
 83 86  1  0
 84 88  1  0
 84 83  1  0
 85 84  2  0
 88 87  1  0
 90 88  1  0
 90 91  1  0
 90 89  1  0
 92 95  1  1
 92 93  1  0
 94 92  1  0
M  ISO  4  12 100  13 100  54 101  55 101
M  END
>  <TORSDO>  (13) 
F 23

>  <SCORE>  (13) 
-9.315

>  <name>  (13) 
12

>  <ligand_id>  (13) 
12

>  <original_smiles>  (13) 
[H]c1nc(C([H])([H])C(C(=O)N2C([H])([H])C([H])([H])C([H])([H])C([H])(n3nc(-c4c([H])c([H])c(Oc5c([H])c([H])c(F)c([H])c5F)c([H])c4[H])c(C(=O)N([H])[H])c3N([H])[H])C2([H])[H])(C([H])([H])[H])C([H])([H])[H])nc(C([H])([H])C([H])([H])[H])c1C(C([H])([H])Oc1c([H])c([H])c2c(c1[H])C([H])([H])N(C(=O)C([H])(N([H])C(=O)C([H])(N([H])C([H])([H])[H])C([H])([H])[H])C(C([H])([H])[H])(C([H])([H])[H])C([H])([H])[H])C([H])(C(=O)N([H])C1([H])c3c([H])c([H])c([H])c([H])c3C([H])([H])C([H])([H])C1([H])[H])C2([H])[H])(C([H])([H])C([H])([H])[H])C([H])([H])C([H])([H])[H]

>  <smiles>  (13) 
[H]c1nc(C([H])([H])C(C(=O)N2C([H])([H])C([H])([H])C([H])([H])C([H])(n3nc(-c4c([H])c([H])c(Oc5c([H])c([H])c(F)c([H])c5F)c([H])c4[H])c(C(=O)N([H])[H])c3N([H])[H])C2([H])[H])(C([H])([H])[H])C([H])([H])[H])nc(C([H])([H])C([H])([H])[H])c1C(C([H])([H])Oc1c([H])c([H])c2c(c1[H])C([H])([H])N(C(=O)C([H])(N([H])C(=O)C([H])(N([H])C([H])([H])[H])C([H])([H])[H])C(C([H])([H])[H])(C([H])([H])[H])C([H])([H])[H])C([H])(C(=O)N([H])C1([H])c3c([H])c([H])c([H])c([H])c3C([H])([H])C([H])([H])C1([H])[H])C2([H])[H])(C([H])([H])C([H])([H])[H])C([H])([H])C([H])([H])[H]

$$$$
13:0:0
     RDKit          3D

 93101  0  0  1  0  0  0  0  0999 V2000
  -28.9360  -19.3780   21.7260 C   0  0  0  0  0  3  0  0  0  0  0  0
  -31.4280  -19.3190   20.6810 C   0  0  0  0  0  3  0  0  0  0  0  0
  -29.8030  -20.4970   21.7970 C   0  0  0  0  0  0  0  0  0  0  0  0
  -30.5440  -18.2220   20.5490 C   0  0  0  0  0  0  0  0  0  0  0  0
  -31.0640  -20.4590   21.3060 N   0  0  0  0  0  0  0  0  0  0  0  0
  -29.3030  -18.2290   21.1020 N   0  0  0  0  0  0  0  0  0  0  0  0
  -29.3360  -21.8550   22.2820 C   0  0  0  0  0  2  0  0  0  0  0  0
  -28.9010  -22.7240   21.0900 C   0  0  0  0  0  2  0  0  0  0  0  0
  -28.7580  -24.0880   21.4630 O   0  0  0  0  0  0  0  0  0  0  0  0
  -28.2920  -24.8920   20.3840 C   0  0  0  0  0  2  0  0  0  0  0  0
  -28.8440  -26.3220   20.5050 C   0  0  0  0  0  2  0  0  0  0  0  0
  -28.4900  -27.0930   19.3590 O   0  0  0  0  0  0  0  0  0  0  0  0
  -24.4990  -31.6420   23.0730 C   0  0  0  0  0  0  0  0  0  0  0  0
  -27.2820  -27.7260   19.4870 C   0  0  0  0  0  0  0  0  0  0  0  0
  -23.3060  -30.3010   21.3670 C   0  0  0  0  0  3  0  0  0  0  0  0
  -24.7890  -29.0080   19.7420 C   0  0  0  0  0  0  0  0  0  0  0  0
  -25.7810  -30.8740   21.0840 C   0  0  0  0  0  2  0  0  0  0  0  0
  -25.9310  -29.5740   20.3260 C   0  0  0  0  0  0  0  0  0  0  0  0
  -27.1810  -28.9360   20.2040 C   0  0  0  0  0  3  0  0  0  0  0  0
  -26.1340  -27.1690   18.8920 C   0  0  0  0  0  3  0  0  0  0  0  0
  -24.8830  -27.8010   19.0250 C   0  0  0  0  0  3  0  0  0  0  0  0
  -23.4900  -29.7590   19.9230 C   0  0  0  0  0  2  0  0  0  0  0  0
  -24.5490  -30.9490   21.9010 N   0  0  0  0  0  0  0  0  0  0  0  0
  -23.4330  -31.7850   23.6860 O   0  0  0  0  0  0  0  0  0  0  0  0
  -22.7840  -29.1540   22.2600 C   0  0  0  0  0  0  0  0  0  0  0  0
  -21.4750  -28.8720   22.1610 N   0  0  0  0  0  0  0  0  0  0  0  0
  -23.5490  -28.5250   22.9960 O   0  0  0  0  0  0  0  0  0  0  0  0
  -20.9140  -29.4400   21.5410 H   0  0  0  0  0  0  0  0  0  0  0  0
  -18.2410  -27.3290   22.6190 C   0  0  0  0  0  0  0  0  0  0  0  0
  -20.7670  -27.8110   22.8760 C   0  0  0  0  0  3  0  0  0  0  0  0
  -20.9950  -26.4380   22.2020 C   0  0  0  0  0  2  0  0  0  0  0  0
  -19.9090  -26.0800   21.1820 C   0  0  0  0  0  2  0  0  0  0  0  0
  -18.5320  -26.0500   21.8520 C   0  0  0  0  0  2  0  0  0  0  0  0
  -19.2910  -28.1630   23.0860 C   0  0  0  0  0  0  0  0  0  0  0  0
  -18.9660  -29.3590   23.7630 C   0  0  0  0  0  3  0  0  0  0  0  0
  -17.6230  -29.7240   23.9760 C   0  0  0  0  0  3  0  0  0  0  0  0
  -16.5880  -28.8850   23.5260 C   0  0  0  0  0  3  0  0  0  0  0  0
  -16.8990  -27.6890   22.8540 C   0  0  0  0  0  3  0  0  0  0  0  0
  -25.7720  -32.3090   23.6850 C   0  0  0  0  0  3  0  0  0  0  0  0
  -25.4090  -33.6780   24.0730 N   0  0  0  0  0  0  0  0  0  0  0  0
  -25.6930  -34.7720   23.3540 C   0  0  0  0  0  0  0  0  0  0  0  0
  -26.3610  -34.7370   22.3170 O   0  0  0  0  0  0  0  0  0  0  0  0
  -24.8150  -33.7750   24.8840 H   0  0  0  0  0  0  0  0  0  0  0  0
  -23.8900  -36.5000   23.0770 C   0  0  0  0  0  1  0  0  0  0  0  0
  -25.1500  -36.1180   23.8670 C   0  0  0  0  0  3  0  0  0  0  0  0
  -27.2460  -37.0630   24.7290 C   0  0  0  0  0  1  0  0  0  0  0  0
  -26.1380  -37.2180   23.7910 N   0  0  0  0  0  0  0  0  0  0  0  0
  -25.6930  -38.1140   23.9710 H   0  0  0  0  0  0  0  0  0  0  0  0
  -26.3600  -31.5140   24.9150 C   0  0  1  0  0  0  0  0  0  0  0  0
  -25.3110  -31.1940   26.0060 C   0  0  0  0  0  1  0  0  0  0  0  0
  -26.9840  -30.1770   24.4520 C   0  0  0  0  0  1  0  0  0  0  0  0
  -27.4980  -32.3300   25.5710 C   0  0  0  0  0  1  0  0  0  0  0  0
  -30.9190  -17.0850   19.6130 C   0  0  0  0  0  3  0  0  0  0  0  0
  -31.1060  -14.6460   19.6850 C   0  0  0  0  0  0  0  0  0  0  0  0
  -30.6950  -12.4240   18.7450 C   0  0  0  0  0  2  0  0  0  0  0  0
  -29.6790  -12.5650   17.5950 C   0  0  0  0  0  2  0  0  0  0  0  0
  -28.2410  -12.4600   18.1360 C   0  0  0  0  0  2  0  0  0  0  0  0
  -27.9880  -13.3790   19.3630 C   0  0  0  0  0  3  0  0  0  0  0  0
  -29.1240  -13.2590   20.4060 C   0  0  0  0  0  2  0  0  0  0  0  0
  -30.4020  -13.4880   19.7160 N   0  0  0  0  0  0  0  0  0  0  0  0
  -32.2190  -14.7320   19.1600 O   0  0  0  0  0  0  0  0  0  0  0  0
  -30.4460  -15.7590   20.0320 N   0  0  0  0  0  0  0  0  0  0  0  0
  -29.5240  -15.6960   20.4350 H   0  0  0  0  0  0  0  0  0  0  0  0
  -25.6960  -14.0310   20.3320 C   0  0  0  0  0  0  0  0  0  0  0  0
  -24.6360  -13.2770   20.7600 C   0  0  0  0  0  0  0  0  0  0  0  0
  -25.0360  -11.9140   20.6120 C   0  0  0  0  0  0  0  0  0  0  0  0
  -26.6780  -13.1270   19.9560 N   0  0  0  0  0  0  0  0  0  0  0  0
  -26.2890  -11.8460   20.1800 N   0  0  0  0  0  0  0  0  0  0  0  0
  -24.2800  -10.6710   20.8040 C   0  0  0  0  0  0  0  0  0  0  0  0
  -24.7080   -9.6780   21.7140 C   0  0  0  0  0  3  0  0  0  0  0  0
  -23.9540   -8.4980   21.8940 C   0  0  0  0  0  3  0  0  0  0  0  0
  -22.7570   -8.3030   21.1620 C   0  0  0  0  0  0  0  0  0  0  0  0
  -22.3490   -9.2830   20.2410 C   0  0  0  0  0  3  0  0  0  0  0  0
  -23.1040  -10.4540   20.0600 C   0  0  0  0  0  3  0  0  0  0  0  0
  -21.9740   -7.1780   21.2530 O   0  0  0  0  0  0  0  0  0  0  0  0
  -21.8590   -6.4730   22.4240 C   0  0  0  0  0  0  0  0  0  0  0  0
  -21.3600   -7.0660   23.6040 C   0  0  0  0  0  3  0  0  0  0  0  0
  -21.1930   -6.2860   24.7680 C   0  0  0  0  0  3  0  0  0  0  0  0
  -21.5150   -4.9170   24.7500 C   0  0  0  0  0  0  0  0  0  0  0  0
  -22.0070   -4.3240   23.5740 C   0  0  0  0  0  3  0  0  0  0  0  0
  -22.1760   -5.0990   22.4130 C   0  0  0  0  0  0  0  0  0  0  0  0
  -22.6300   -4.5190   21.2770 F   0  0  0  0  0  0  0  0  0  0  0  0
  -21.3480   -4.1660   25.8630 F   0  0  0  0  0  0  0  0  0  0  0  0
  -23.2930  -13.7890   21.1920 C   0  0  0  0  0  0  0  0  0  0  0  0
  -22.6240  -13.0720   22.0890 N   0  0  0  0  0  0  0  0  0  0  0  0
  -22.8480  -14.8560   20.7710 O   0  0  0  0  0  0  0  0  0  0  0  0
  -22.9980  -12.2070   22.4510 H   0  0  0  0  0  0  0  0  0  0  0  0
  -21.7260  -13.3940   22.4190 H   0  0  0  0  0  0  0  0  0  0  0  0
  -25.9000  -15.4030   20.2130 N   0  0  0  0  0  0  0  0  0  0  0  0
  -25.1780  -16.0770   20.4410 H   0  0  0  0  0  0  0  0  0  0  0  0
  -26.7430  -15.8330   19.8540 H   0  0  0  0  0  0  0  0  0  0  0  0
  -28.9790  -17.3580   17.8810 C   0  0  0  0  0  1  0  0  0  0  0  0
  -30.4910  -17.4030   18.1550 C   0  0  0  0  0  2  0  0  0  0  0  0
  1  3  1  0
  2  5  1  0
  3  7  1  0
  4  2  2  0
  4  6  1  0
  5  3  2  0
  6  1  2  0
  8  9  1  0
  8  7  1  0
 10 11  1  0
 10  9  1  0
 12 14  1  0
 12 11  1  0
 13 24  2  0
 14 19  1  0
 15 23  1  0
 15 25  1  0
 16 22  1  0
 16 18  1  0
 17 23  1  0
 18 17  1  0
 19 18  2  0
 20 21  1  0
 20 14  2  0
 21 16  2  0
 22 15  1  0
 23 13  1  0
 25 27  2  0
 26 25  1  0
 28 26  1  0
 29 38  2  0
 29 34  1  0
 30 26  1  0
 30 34  1  0
 31 30  1  0
 32 33  1  0
 32 31  1  0
 33 29  1  0
 34 35  2  0
 35 36  1  0
 37 36  2  0
 38 37  1  0
 39 13  1  0
 39 40  1  0
 39 49  1  0
 40 43  1  0
 41 45  1  0
 41 40  1  0
 42 41  2  0
 45 44  1  0
 47 45  1  0
 47 48  1  0
 47 46  1  0
 49 52  1  1
 49 50  1  0
 51 49  1  0
 53 93  1  0
 53 62  1  0
 53  4  1  0
 54 60  1  0
 54 62  1  0
 55 60  1  0
 56 57  1  0
 56 55  1  0
 58 57  1  0
 58 67  1  0
 58 59  1  0
 60 59  1  0
 61 54  2  0
 62 63  1  0
 64 65  2  0
 65 84  1  0
 66 65  1  0
 66 69  1  0
 67 68  1  0
 67 64  1  0
 68 66  2  0
 69 70  1  0
 70 71  2  0
 72 75  1  0
 72 71  1  0
 73 72  2  0
 74 73  1  0
 74 69  2  0
 75 76  1  0
 76 77  1  0
 77 78  2  0
 79 78  1  0
 79 83  1  0
 80 79  2  0
 81 76  2  0
 81 80  1  0
 82 81  1  0
 84 85  1  0
 85 88  1  0
 85 87  1  0
 86 84  2  0
 89 64  1  0
 89 90  1  0
 91 89  1  0
 92 93  1  0
M  ISO  4  11 101  12 101  54 100  62 100
M  END
>  <TORSDO>  (14) 
F 23

>  <SCORE>  (14) 
-10.118

>  <name>  (14) 
13

>  <ligand_id>  (14) 
13

>  <original_smiles>  (14) 
[H]c1nc(C([H])(N([H])C(=O)N2C([H])([H])C([H])([H])C([H])([H])C([H])(n3nc(-c4c([H])c([H])c(Oc5c([H])c([H])c(F)c([H])c5F)c([H])c4[H])c(C(=O)N([H])[H])c3N([H])[H])C2([H])[H])C([H])([H])C([H])([H])[H])c([H])nc1C([H])([H])C([H])([H])OC([H])([H])C([H])([H])Oc1c([H])c([H])c2c(c1[H])C([H])([H])N(C(=O)C([H])(N([H])C(=O)C([H])(N([H])C([H])([H])[H])C([H])([H])[H])C(C([H])([H])[H])(C([H])([H])[H])C([H])([H])[H])C([H])(C(=O)N([H])C1([H])c3c([H])c([H])c([H])c([H])c3C([H])([H])C([H])([H])C1([H])[H])C2([H])[H]

>  <smiles>  (14) 
[H]c1nc(C([H])(N([H])C(=O)N2C([H])([H])C([H])([H])C([H])([H])C([H])(n3nc(-c4c([H])c([H])c(Oc5c([H])c([H])c(F)c([H])c5F)c([H])c4[H])c(C(=O)N([H])[H])c3N([H])[H])C2([H])[H])C([H])([H])C([H])([H])[H])c([H])nc1C([H])([H])C([H])([H])OC([H])([H])C([H])([H])Oc1c([H])c([H])c2c(c1[H])C([H])([H])N(C(=O)C([H])(N([H])C(=O)C([H])(N([H])C([H])([H])[H])C([H])([H])[H])C(C([H])([H])[H])(C([H])([H])[H])C([H])([H])[H])C([H])(C(=O)N([H])C1([H])c3c([H])c([H])c([H])c([H])c3C([H])([H])C([H])([H])C1([H])[H])C2([H])[H]

$$$$
14:0:0
     RDKit          3D

 94102  0  0  1  0  0  0  0  0999 V2000
  -28.3870  -21.6690   19.6870 C   0  0  0  0  0  0  0  0  0  0  0  0
  -29.3230  -22.5360   20.3370 C   0  0  0  0  0  0  0  0  0  0  0  0
  -29.5280  -19.7980   20.4960 C   0  0  0  0  0  0  0  0  0  0  0  0
  -28.5200  -20.3160   19.7740 N   0  0  0  0  0  0  0  0  0  0  0  0
  -30.3820  -21.9280   20.9530 N   0  0  0  0  0  0  0  0  0  0  0  0
  -30.4960  -20.5790   21.0250 N   0  0  0  0  0  0  0  0  0  0  0  0
  -27.9890  -17.7780   20.7660 C   0  0  0  0  0  1  0  0  0  0  0  0
  -29.8030  -18.1210   22.3940 C   0  0  0  0  0  1  0  0  0  0  0  0
  -29.4570  -18.2540   20.8910 C   0  0  2  0  0  0  0  0  0  0  0  0
  -30.3530  -17.2170   20.0700 C   0  0  0  0  0  2  0  0  0  0  0  0
  -30.7870  -14.6620   19.8700 C   0  0  0  0  0  0  0  0  0  0  0  0
  -30.4480  -12.4420   18.8020 C   0  0  0  0  0  2  0  0  0  0  0  0
  -29.4270  -12.5980   17.6550 C   0  0  0  0  0  2  0  0  0  0  0  0
  -27.9860  -12.4520   18.1820 C   0  0  0  0  0  2  0  0  0  0  0  0
  -27.7270  -13.3030   19.4540 C   0  0  0  0  0  3  0  0  0  0  0  0
  -28.8600  -13.1410   20.4940 C   0  0  0  0  0  2  0  0  0  0  0  0
  -30.1320  -13.4590   19.8270 N   0  0  0  0  0  0  0  0  0  0  0  0
  -31.9000  -14.8040   19.3570 O   0  0  0  0  0  0  0  0  0  0  0  0
  -30.0770  -15.7460   20.3110 N   0  0  0  0  0  0  0  0  0  0  0  0
  -29.1840  -15.5340   20.7260 H   0  0  0  0  0  0  0  0  0  0  0  0
  -25.4070  -13.9190   20.3700 C   0  0  0  0  0  0  0  0  0  0  0  0
  -24.3580  -13.1550   20.8030 C   0  0  0  0  0  0  0  0  0  0  0  0
  -24.7850  -11.7980   20.6890 C   0  0  0  0  0  0  0  0  0  0  0  0
  -26.4130  -13.0280   20.0330 N   0  0  0  0  0  0  0  0  0  0  0  0
  -26.0480  -11.7430   20.2800 N   0  0  0  0  0  0  0  0  0  0  0  0
  -24.0460  -10.5450   20.8910 C   0  0  0  0  0  0  0  0  0  0  0  0
  -24.4870   -9.5700   21.8110 C   0  0  0  0  0  3  0  0  0  0  0  0
  -23.7500   -8.3820   22.0050 C   0  0  0  0  0  3  0  0  0  0  0  0
  -22.5560   -8.1610   21.2770 C   0  0  0  0  0  0  0  0  0  0  0  0
  -22.1340   -9.1260   20.3460 C   0  0  0  0  0  3  0  0  0  0  0  0
  -22.8730  -10.3050   20.1500 C   0  0  0  0  0  3  0  0  0  0  0  0
  -21.7880   -7.0280   21.3790 O   0  0  0  0  0  0  0  0  0  0  0  0
  -21.6980   -6.3210   22.5510 C   0  0  0  0  0  0  0  0  0  0  0  0
  -21.2460   -6.9200   23.7480 C   0  0  0  0  0  3  0  0  0  0  0  0
  -21.1010   -6.1420   24.9140 C   0  0  0  0  0  3  0  0  0  0  0  0
  -21.3990   -4.7660   24.8850 C   0  0  0  0  0  0  0  0  0  0  0  0
  -21.8450   -4.1670   23.6920 C   0  0  0  0  0  3  0  0  0  0  0  0
  -21.9900   -4.9420   22.5290 C   0  0  0  0  0  0  0  0  0  0  0  0
  -22.3990   -4.3550   21.3780 F   0  0  0  0  0  0  0  0  0  0  0  0
  -21.2530   -4.0180   26.0010 F   0  0  0  0  0  0  0  0  0  0  0  0
  -22.9980  -13.6520   21.2010 C   0  0  0  0  0  0  0  0  0  0  0  0
  -22.3350  -12.9540   22.1150 N   0  0  0  0  0  0  0  0  0  0  0  0
  -22.5350  -14.6920   20.7340 O   0  0  0  0  0  0  0  0  0  0  0  0
  -22.7220  -12.1120   22.5140 H   0  0  0  0  0  0  0  0  0  0  0  0
  -21.4240  -13.2670   22.4210 H   0  0  0  0  0  0  0  0  0  0  0  0
  -25.5730  -15.2900   20.2060 N   0  0  0  0  0  0  0  0  0  0  0  0
  -24.8060  -15.9390   20.3470 H   0  0  0  0  0  0  0  0  0  0  0  0
  -26.3610  -15.7110   19.7360 H   0  0  0  0  0  0  0  0  0  0  0  0
  -25.8850  -22.1610   19.7730 C   0  0  0  0  0  1  0  0  0  0  0  0
  -27.1510  -22.1000   18.9090 C   0  0  0  0  0  2  0  0  0  0  0  0
  -29.2230  -24.0970   20.5870 C   0  0  0  0  0  2  0  0  0  0  0  0
  -29.3140  -25.1350   18.2310 C   0  0  0  0  0  1  0  0  0  0  0  0
  -28.5650  -25.1210   19.5740 C   0  0  0  0  0  3  0  0  0  0  0  0
  -28.5010  -26.5350   20.0130 O   0  0  0  0  0  0  0  0  0  0  0  0
  -24.5310  -31.7010   23.0530 C   0  0  0  0  0  0  0  0  0  0  0  0
  -27.3270  -27.3020   19.9370 C   0  0  0  0  0  0  0  0  0  0  0  0
  -23.3870  -30.2900   21.3780 C   0  0  0  0  0  3  0  0  0  0  0  0
  -24.8980  -28.8160   19.9370 C   0  0  0  0  0  0  0  0  0  0  0  0
  -25.9110  -30.7030   21.2190 C   0  0  0  0  0  2  0  0  0  0  0  0
  -26.0400  -29.3370   20.5560 C   0  0  0  0  0  0  0  0  0  0  0  0
  -27.2510  -28.5860   20.5590 C   0  0  0  0  0  3  0  0  0  0  0  0
  -26.1630  -26.8420   19.2750 C   0  0  0  0  0  3  0  0  0  0  0  0
  -24.9600  -27.5720   19.2930 C   0  0  0  0  0  3  0  0  0  0  0  0
  -23.6310  -29.6430   19.9890 C   0  0  0  0  0  2  0  0  0  0  0  0
  -24.6270  -30.9170   21.9410 N   0  0  0  0  0  0  0  0  0  0  0  0
  -23.4360  -31.9310   23.5870 O   0  0  0  0  0  0  0  0  0  0  0  0
  -22.7550  -29.2360   22.3180 C   0  0  0  0  0  0  0  0  0  0  0  0
  -21.4340  -29.0240   22.1870 N   0  0  0  0  0  0  0  0  0  0  0  0
  -23.4520  -28.6120   23.1220 O   0  0  0  0  0  0  0  0  0  0  0  0
  -20.9300  -29.5830   21.5120 H   0  0  0  0  0  0  0  0  0  0  0  0
  -18.0920  -27.7250   22.6600 C   0  0  0  0  0  0  0  0  0  0  0  0
  -20.6420  -28.0500   22.9370 C   0  0  0  0  0  3  0  0  0  0  0  0
  -20.7840  -26.6330   22.3360 C   0  0  0  0  0  2  0  0  0  0  0  0
  -19.6900  -26.2990   21.3150 C   0  0  0  0  0  2  0  0  0  0  0  0
  -18.3060  -26.3930   21.9600 C   0  0  0  0  0  2  0  0  0  0  0  0
  -19.1890  -28.5080   23.1050 C   0  0  0  0  0  0  0  0  0  0  0  0
  -18.9350  -29.7530   23.7230 C   0  0  0  0  0  3  0  0  0  0  0  0
  -17.6170  -30.2140   23.9010 C   0  0  0  0  0  3  0  0  0  0  0  0
  -16.5340  -29.4280   23.4690 C   0  0  0  0  0  3  0  0  0  0  0  0
  -16.7720  -28.1850   22.8530 C   0  0  0  0  0  3  0  0  0  0  0  0
  -25.7870  -32.3670   23.6930 C   0  0  0  0  0  3  0  0  0  0  0  0
  -25.4230  -33.7440   24.0600 N   0  0  0  0  0  0  0  0  0  0  0  0
  -25.7050  -34.8270   23.3240 C   0  0  0  0  0  0  0  0  0  0  0  0
  -26.3680  -34.7760   22.2850 O   0  0  0  0  0  0  0  0  0  0  0  0
  -24.8360  -33.8550   24.8730 H   0  0  0  0  0  0  0  0  0  0  0  0
  -23.8970  -36.5530   23.0360 C   0  0  0  0  0  1  0  0  0  0  0  0
  -25.1650  -36.1830   23.8220 C   0  0  0  0  0  3  0  0  0  0  0  0
  -27.2720  -37.1410   24.6430 C   0  0  0  0  0  1  0  0  0  0  0  0
  -26.1500  -37.2820   23.7180 N   0  0  0  0  0  0  0  0  0  0  0  0
  -25.7070  -38.1800   23.8930 H   0  0  0  0  0  0  0  0  0  0  0  0
  -26.3350  -31.5830   24.9490 C   0  0  1  0  0  0  0  0  0  0  0  0
  -25.2530  -31.2760   26.0110 C   0  0  0  0  0  1  0  0  0  0  0  0
  -26.9720  -30.2400   24.5220 C   0  0  0  0  0  1  0  0  0  0  0  0
  -27.4530  -32.4060   25.6300 C   0  0  0  0  0  1  0  0  0  0  0  0
  1  4  1  0
  1  2  2  0
  2 51  1  0
  2  5  1  0
  3  9  1  0
  3  6  1  0
  4  3  2  0
  5  6  2  0
  9  7  1  1
  9  8  1  0
 10 19  1  0
 10  9  1  0
 11 19  1  0
 12 17  1  0
 13 14  1  0
 13 12  1  0
 15 14  1  0
 15 24  1  0
 15 16  1  0
 17 11  1  0
 17 16  1  0
 18 11  2  0
 19 20  1  0
 21 22  2  0
 22 41  1  0
 23 22  1  0
 23 26  1  0
 24 25  1  0
 24 21  1  0
 25 23  2  0
 26 27  1  0
 27 28  2  0
 29 32  1  0
 29 28  1  0
 30 29  2  0
 31 30  1  0
 31 26  2  0
 32 33  1  0
 33 34  1  0
 34 35  2  0
 36 35  1  0
 36 40  1  0
 37 36  2  0
 38 33  2  0
 38 37  1  0
 39 38  1  0
 41 42  1  0
 42 45  1  0
 42 44  1  0
 43 41  2  0
 46 47  1  0
 46 21  1  0
 48 46  1  0
 50  1  1  0
 50 49  1  0
 53 52  1  0
 53 54  1  0
 53 51  1  0
 55 66  2  0
 56 54  1  0
 56 61  1  0
 57 65  1  0
 57 67  1  0
 58 64  1  0
 58 60  1  0
 59 65  1  0
 60 61  2  0
 60 59  1  0
 62 63  1  0
 62 56  2  0
 63 58  2  0
 64 57  1  0
 65 55  1  0
 67 69  2  0
 68 67  1  0
 70 68  1  0
 71 80  2  0
 71 76  1  0
 72 68  1  0
 72 76  1  0
 73 72  1  0
 74 75  1  0
 74 73  1  0
 75 71  1  0
 76 77  2  0
 77 78  1  0
 79 78  2  0
 80 79  1  0
 81 55  1  0
 81 82  1  0
 81 91  1  0
 82 85  1  0
 83 87  1  0
 83 82  1  0
 84 83  2  0
 87 86  1  0
 89 87  1  0
 89 90  1  0
 89 88  1  0
 91 94  1  1
 91 92  1  0
 93 91  1  0
M  ISO  4  11 100  19 100  53 101  54 101
M  END
>  <TORSDO>  (15) 
F 21

>  <SCORE>  (15) 
-11.727

>  <name>  (15) 
14

>  <ligand_id>  (15) 
14

>  <original_smiles>  (15) 
[H]c1c([H])c([H])c2c(c1[H])C([H])([H])C([H])([H])C([H])([H])C2([H])N([H])C(=O)C1([H])N(C(=O)C([H])(N([H])C(=O)C([H])(N([H])C([H])([H])[H])C([H])([H])[H])C(C([H])([H])[H])(C([H])([H])[H])C([H])([H])[H])C([H])([H])c2c([H])c(OC([H])(C([H])([H])[H])C([H])([H])c3nnc(C(C([H])([H])[H])(C([H])([H])[H])C([H])([H])N([H])C(=O)N4C([H])([H])C([H])([H])C([H])([H])C([H])(n5nc(-c6c([H])c([H])c(Oc7c([H])c([H])c(F)c([H])c7F)c([H])c6[H])c(C(=O)N([H])[H])c5N([H])[H])C4([H])[H])nc3C([H])([H])C([H])([H])[H])c([H])c([H])c2C1([H])[H]

>  <smiles>  (15) 
[H]c1c([H])c([H])c2c(c1[H])C([H])([H])C([H])([H])C([H])([H])C2([H])N([H])C(=O)C1([H])N(C(=O)C([H])(N([H])C(=O)C([H])(N([H])C([H])([H])[H])C([H])([H])[H])C(C([H])([H])[H])(C([H])([H])[H])C([H])([H])[H])C([H])([H])c2c([H])c(OC([H])(C([H])([H])[H])C([H])([H])c3nnc(C(C([H])([H])[H])(C([H])([H])[H])C([H])([H])N([H])C(=O)N4C([H])([H])C([H])([H])C([H])([H])C([H])(n5nc(-c6c([H])c([H])c(Oc7c([H])c([H])c(F)c([H])c7F)c([H])c6[H])c(C(=O)N([H])[H])c5N([H])[H])C4([H])[H])nc3C([H])([H])C([H])([H])[H])c([H])c([H])c2C1([H])[H]

$$$$
15:0:0
     RDKit          3D

 93101  0  0  1  0  0  0  0  0999 V2000
  -29.4870  -19.8070   20.8550 C   0  0  0  0  0  0  0  0  0  0  0  0
  -29.4440  -19.7190   22.1830 N   0  0  0  0  0  0  0  0  0  0  0  0
  -30.0250  -20.8910   22.6180 N   0  0  0  0  0  0  0  0  0  0  0  0
  -30.3920  -21.6340   21.6170 N   0  0  0  0  0  0  0  0  0  0  0  0
  -30.0450  -20.9740   20.4800 N   0  0  0  0  0  0  0  0  0  0  0  0
  -27.4730  -18.5410   19.9880 C   0  0  0  0  0  1  0  0  0  0  0  0
  -28.9930  -18.7530   19.8940 C   0  0  0  0  0  3  0  0  0  0  0  0
  -29.8080  -17.4370   19.9450 C   0  0  0  0  0  2  0  0  0  0  0  0
  -29.3610  -16.3860   20.9980 C   0  0  0  0  0  2  0  0  0  0  0  0
  -30.6630  -14.4760   20.1430 C   0  0  0  0  0  0  0  0  0  0  0  0
  -30.2250  -12.3830   18.9130 C   0  0  0  0  0  2  0  0  0  0  0  0
  -29.2190  -12.6080   17.7700 C   0  0  0  0  0  2  0  0  0  0  0  0
  -27.7750  -12.4590   18.2810 C   0  0  0  0  0  2  0  0  0  0  0  0
  -27.5110  -13.2820   19.5700 C   0  0  0  0  0  3  0  0  0  0  0  0
  -28.6260  -13.0510   20.6150 C   0  0  0  0  0  2  0  0  0  0  0  0
  -29.9240  -13.3440   19.9850 N   0  0  0  0  0  0  0  0  0  0  0  0
  -31.6680  -14.7190   19.4650 O   0  0  0  0  0  0  0  0  0  0  0  0
  -31.3590  -15.5910   22.1690 C   0  0  0  0  0  1  0  0  0  0  0  0
  -30.3290  -15.2840   21.1730 N   0  0  0  0  0  0  0  0  0  0  0  0
  -25.1400  -13.8710   20.3790 C   0  0  0  0  0  0  0  0  0  0  0  0
  -24.1010  -13.0920   20.8160 C   0  0  0  0  0  0  0  0  0  0  0  0
  -24.5810  -11.7470   20.7900 C   0  0  0  0  0  0  0  0  0  0  0  0
  -26.1860  -13.0000   20.1180 N   0  0  0  0  0  0  0  0  0  0  0  0
  -25.8550  -11.7180   20.4210 N   0  0  0  0  0  0  0  0  0  0  0  0
  -23.8830  -10.4790   21.0420 C   0  0  0  0  0  0  0  0  0  0  0  0
  -24.3400   -9.5660   22.0170 C   0  0  0  0  0  3  0  0  0  0  0  0
  -23.6420   -8.3610   22.2530 C   0  0  0  0  0  3  0  0  0  0  0  0
  -22.4730   -8.0610   21.5130 C   0  0  0  0  0  0  0  0  0  0  0  0
  -22.0360   -8.9640   20.5270 C   0  0  0  0  0  3  0  0  0  0  0  0
  -22.7340  -10.1590   20.2900 C   0  0  0  0  0  3  0  0  0  0  0  0
  -21.7460   -6.9050   21.6560 O   0  0  0  0  0  0  0  0  0  0  0  0
  -21.6800   -6.2390   22.8530 C   0  0  0  0  0  0  0  0  0  0  0  0
  -21.2010   -6.8620   24.0270 C   0  0  0  0  0  3  0  0  0  0  0  0
  -21.0860   -6.1210   25.2190 C   0  0  0  0  0  3  0  0  0  0  0  0
  -21.4390   -4.7580   25.2390 C   0  0  0  0  0  0  0  0  0  0  0  0
  -21.9100   -4.1350   24.0700 C   0  0  0  0  0  3  0  0  0  0  0  0
  -22.0280   -4.8730   22.8810 C   0  0  0  0  0  0  0  0  0  0  0  0
  -22.4620   -4.2630   21.7520 F   0  0  0  0  0  0  0  0  0  0  0  0
  -21.3200   -4.0440   26.3840 F   0  0  0  0  0  0  0  0  0  0  0  0
  -22.7120  -13.5560   21.1500 C   0  0  0  0  0  0  0  0  0  0  0  0
  -22.0410  -12.8700   22.0680 N   0  0  0  0  0  0  0  0  0  0  0  0
  -22.2330  -14.5630   20.6310 O   0  0  0  0  0  0  0  0  0  0  0  0
  -22.4420  -12.0550   22.5080 H   0  0  0  0  0  0  0  0  0  0  0  0
  -21.1130  -13.1650   22.3360 H   0  0  0  0  0  0  0  0  0  0  0  0
  -25.2740  -15.2390   20.1620 N   0  0  0  0  0  0  0  0  0  0  0  0
  -24.5050  -15.8850   20.2950 H   0  0  0  0  0  0  0  0  0  0  0  0
  -26.1000  -15.6790   19.7810 H   0  0  0  0  0  0  0  0  0  0  0  0
  -30.3550  -21.4960   19.1510 C   0  0  0  0  0  2  0  0  0  0  0  0
  -30.7780  -22.9820   19.0660 C   0  0  0  0  0  2  0  0  0  0  0  0
  -29.6290  -24.0040   19.1970 C   0  0  0  0  0  2  0  0  0  0  0  0
  -30.0750  -25.4250   18.7970 C   0  0  0  0  0  2  0  0  0  0  0  0
  -28.9180  -26.4230   18.6420 C   0  0  0  0  0  2  0  0  0  0  0  0
  -28.4850  -26.8700   19.9240 O   0  0  0  0  0  0  0  0  0  0  0  0
  -24.6210  -31.8730   23.1680 C   0  0  0  0  0  0  0  0  0  0  0  0
  -27.2990  -27.5600   19.9500 C   0  0  0  0  0  0  0  0  0  0  0  0
  -23.4150  -30.4880   21.5090 C   0  0  0  0  0  3  0  0  0  0  0  0
  -24.8740  -29.0060   20.0360 C   0  0  0  0  0  0  0  0  0  0  0  0
  -25.9310  -30.8930   21.2910 C   0  0  0  0  0  2  0  0  0  0  0  0
  -26.0280  -29.5370   20.6250 C   0  0  0  0  0  0  0  0  0  0  0  0
  -27.2400  -28.8150   20.5940 C   0  0  0  0  0  3  0  0  0  0  0  0
  -26.1230  -27.0250   19.3780 C   0  0  0  0  0  3  0  0  0  0  0  0
  -24.9150  -27.7440   19.4160 C   0  0  0  0  0  3  0  0  0  0  0  0
  -23.6190  -29.8430   20.1120 C   0  0  0  0  0  2  0  0  0  0  0  0
  -24.6750  -31.0980   22.0480 N   0  0  0  0  0  0  0  0  0  0  0  0
  -23.5440  -32.1190   23.7270 O   0  0  0  0  0  0  0  0  0  0  0  0
  -22.7930  -29.4370   22.4540 C   0  0  0  0  0  0  0  0  0  0  0  0
  -21.4720  -29.2300   22.3300 N   0  0  0  0  0  0  0  0  0  0  0  0
  -23.4950  -28.8110   23.2530 O   0  0  0  0  0  0  0  0  0  0  0  0
  -20.9670  -29.7900   21.6570 H   0  0  0  0  0  0  0  0  0  0  0  0
  -18.1250  -27.9640   22.8190 C   0  0  0  0  0  0  0  0  0  0  0  0
  -20.6770  -28.2650   23.0870 C   0  0  0  0  0  3  0  0  0  0  0  0
  -20.8040  -26.8450   22.4870 C   0  0  0  0  0  2  0  0  0  0  0  0
  -19.7070  -26.5200   21.4700 C   0  0  0  0  0  2  0  0  0  0  0  0
  -18.3240  -26.6310   22.1190 C   0  0  0  0  0  2  0  0  0  0  0  0
  -19.2300  -28.7390   23.2590 C   0  0  0  0  0  0  0  0  0  0  0  0
  -18.9920  -29.9880   23.8700 C   0  0  0  0  0  3  0  0  0  0  0  0
  -17.6790  -30.4640   24.0480 C   0  0  0  0  0  3  0  0  0  0  0  0
  -16.5870  -29.6870   23.6250 C   0  0  0  0  0  3  0  0  0  0  0  0
  -16.8100  -28.4390   23.0160 C   0  0  0  0  0  3  0  0  0  0  0  0
  -25.9080  -32.5080   23.7840 C   0  0  0  0  0  3  0  0  0  0  0  0
  -25.5910  -33.9010   24.1300 N   0  0  0  0  0  0  0  0  0  0  0  0
  -25.9170  -34.9630   23.3810 C   0  0  0  0  0  0  0  0  0  0  0  0
  -26.5890  -34.8740   22.3500 O   0  0  0  0  0  0  0  0  0  0  0  0
  -24.9940  -34.0430   24.9320 H   0  0  0  0  0  0  0  0  0  0  0  0
  -24.1810  -36.7490   23.0360 C   0  0  0  0  0  1  0  0  0  0  0  0
  -25.4180  -36.3420   23.8520 C   0  0  0  0  0  3  0  0  0  0  0  0
  -27.5430  -37.2260   24.7100 C   0  0  0  0  0  1  0  0  0  0  0  0
  -26.4460  -37.4010   23.7600 N   0  0  0  0  0  0  0  0  0  0  0  0
  -26.0340  -38.3170   23.9180 H   0  0  0  0  0  0  0  0  0  0  0  0
  -26.4440  -31.7270   25.0460 C   0  0  1  0  0  0  0  0  0  0  0  0
  -25.3630  -31.4670   26.1200 C   0  0  0  0  0  1  0  0  0  0  0  0
  -27.0370  -30.3610   24.6310 C   0  0  0  0  0  1  0  0  0  0  0  0
  -27.5930  -32.5260   25.7070 C   0  0  0  0  0  1  0  0  0  0  0  0
  1  2  2  0
  2  3  1  0
  4  3  2  0
  5  1  1  0
  5  4  1  0
  7  8  1  0
  7  6  1  0
  7  1  1  0
  8  9  1  0
  9 19  1  0
 10 19  1  0
 11 16  1  0
 12 13  1  0
 12 11  1  0
 14 13  1  0
 14 23  1  0
 14 15  1  0
 16 10  1  0
 16 15  1  0
 17 10  2  0
 19 18  1  0
 20 21  2  0
 21 40  1  0
 22 21  1  0
 22 25  1  0
 23 20  1  0
 23 24  1  0
 24 22  2  0
 25 26  1  0
 26 27  2  0
 28 31  1  0
 28 27  1  0
 29 28  2  0
 30 29  1  0
 30 25  2  0
 31 32  1  0
 32 37  2  0
 32 33  1  0
 33 34  2  0
 34 35  1  0
 35 39  1  0
 36 35  2  0
 37 36  1  0
 38 37  1  0
 40 41  1  0
 41 44  1  0
 41 43  1  0
 42 40  2  0
 45 46  1  0
 45 20  1  0
 47 45  1  0
 48  5  1  0
 49 48  1  0
 49 50  1  0
 51 50  1  0
 52 51  1  0
 52 53  1  0
 53 55  1  0
 54 65  2  0
 55 60  1  0
 56 64  1  0
 56 66  1  0
 57 63  1  0
 57 59  1  0
 58 64  1  0
 59 58  1  0
 60 59  2  0
 61 62  1  0
 61 55  2  0
 62 57  2  0
 63 56  1  0
 64 54  1  0
 66 68  2  0
 67 66  1  0
 69 67  1  0
 70 79  2  0
 70 75  1  0
 71 67  1  0
 71 75  1  0
 72 71  1  0
 73 74  1  0
 73 72  1  0
 74 70  1  0
 75 76  2  0
 76 77  1  0
 78 77  2  0
 79 78  1  0
 80 54  1  0
 80 81  1  0
 80 90  1  0
 81 84  1  0
 82 86  1  0
 82 81  1  0
 83 82  2  0
 86 85  1  0
 88 86  1  0
 88 89  1  0
 88 87  1  0
 90 93  1  1
 90 91  1  0
 92 90  1  0
M  ISO  4  10 100  19 100  52 101  53 101
M  END
>  <TORSDO>  (16) 
F 24

>  <SCORE>  (16) 
-11.124

>  <name>  (16) 
15

>  <ligand_id>  (16) 
15

>  <original_smiles>  (16) 
[H]c1c([H])c([H])c2c(c1[H])C([H])([H])C([H])([H])C([H])([H])C2([H])N([H])C(=O)C1([H])N(C(=O)C([H])(N([H])C(=O)C([H])(N([H])C([H])([H])[H])C([H])([H])[H])C(C([H])([H])[H])(C([H])([H])[H])C([H])([H])[H])C([H])([H])c2c([H])c(OC([H])([H])C([H])([H])C([H])([H])C([H])([H])C([H])([H])n3nnnc3C([H])(C([H])([H])[H])C([H])([H])C([H])([H])N(C(=O)N3C([H])([H])C([H])([H])C([H])([H])C([H])(n4nc(-c5c([H])c([H])c(Oc6c([H])c([H])c(F)c([H])c6F)c([H])c5[H])c(C(=O)N([H])[H])c4N([H])[H])C3([H])[H])C([H])([H])[H])c([H])c([H])c2C1([H])[H]

>  <smiles>  (16) 
[H]c1c([H])c([H])c2c(c1[H])C([H])([H])C([H])([H])C([H])([H])C2([H])N([H])C(=O)C1([H])N(C(=O)C([H])(N([H])C(=O)C([H])(N([H])C([H])([H])[H])C([H])([H])[H])C(C([H])([H])[H])(C([H])([H])[H])C([H])([H])[H])C([H])([H])c2c([H])c(OC([H])([H])C([H])([H])C([H])([H])C([H])([H])C([H])([H])n3nnnc3C([H])(C([H])([H])[H])C([H])([H])C([H])([H])N(C(=O)N3C([H])([H])C([H])([H])C([H])([H])C([H])(n4nc(-c5c([H])c([H])c(Oc6c([H])c([H])c(F)c([H])c6F)c([H])c5[H])c(C(=O)N([H])[H])c4N([H])[H])C3([H])[H])C([H])([H])[H])c([H])c([H])c2C1([H])[H]

$$$$
16:0:0
     RDKit          3D

 94102  0  0  1  0  0  0  0  0999 V2000
  -28.1310  -21.7880   22.1590 C   0  0  0  0  0  3  0  0  0  0  0  0
  -28.4070  -20.4640   21.7730 C   0  0  0  0  0  3  0  0  0  0  0  0
  -28.9310  -22.8100   21.6120 C   0  0  0  0  0  0  0  0  0  0  0  0
  -29.4650  -20.2490   20.8660 C   0  0  0  0  0  0  0  0  0  0  0  0
  -29.8950  -22.5520   20.6920 N   0  0  0  0  0  0  0  0  0  0  0  0
  -30.1620  -21.2890   20.3300 N   0  0  0  0  0  0  0  0  0  0  0  0
  -29.8440  -18.5770   19.0080 C   0  0  0  0  0  1  0  0  0  0  0  0
  -29.9210  -18.8180   20.5310 C   0  0  0  0  0  3  0  0  0  0  0  0
  -32.2470  -19.5120   21.4950 C   0  0  0  0  0  1  0  0  0  0  0  0
  -30.8850  -17.8000   22.6600 C   0  0  0  0  0  1  0  0  0  0  0  0
  -31.2560  -18.3440   21.2580 C   0  0  1  0  0  0  0  0  0  0  0  0
  -32.0630  -17.2480   20.4950 C   0  0  0  0  0  2  0  0  0  0  0  0
  -31.9720  -14.8420   19.8960 C   0  0  0  0  0  0  0  0  0  0  0  0
  -31.5960  -12.4990   19.2210 C   0  0  0  0  0  2  0  0  0  0  0  0
  -30.6470  -12.4340   18.0100 C   0  0  0  0  0  2  0  0  0  0  0  0
  -29.1780  -12.4160   18.4720 C   0  0  0  0  0  2  0  0  0  0  0  0
  -28.8630  -13.5370   19.4990 C   0  0  0  0  0  3  0  0  0  0  0  0
  -29.9200  -13.5620   20.6250 C   0  0  0  0  0  2  0  0  0  0  0  0
  -31.2510  -13.6950   20.0050 N   0  0  0  0  0  0  0  0  0  0  0  0
  -33.0310  -14.9180   19.2690 O   0  0  0  0  0  0  0  0  0  0  0  0
  -31.4430  -15.9210   20.4890 N   0  0  0  0  0  0  0  0  0  0  0  0
  -30.5750  -15.8020   20.9890 H   0  0  0  0  0  0  0  0  0  0  0  0
  -26.5800  -14.3870   20.3310 C   0  0  0  0  0  0  0  0  0  0  0  0
  -25.4500  -13.7280   20.7350 C   0  0  0  0  0  0  0  0  0  0  0  0
  -25.7570  -12.3350   20.6540 C   0  0  0  0  0  0  0  0  0  0  0  0
  -27.5100  -13.4030   20.0340 N   0  0  0  0  0  0  0  0  0  0  0  0
  -27.0190  -12.1620   20.2830 N   0  0  0  0  0  0  0  0  0  0  0  0
  -24.9060  -11.1550   20.8530 C   0  0  0  0  0  0  0  0  0  0  0  0
  -25.2320  -10.1590   21.8000 C   0  0  0  0  0  3  0  0  0  0  0  0
  -24.3890   -9.0430   21.9870 C   0  0  0  0  0  3  0  0  0  0  0  0
  -23.2040   -8.9150   21.2250 C   0  0  0  0  0  0  0  0  0  0  0  0
  -22.8940   -9.8970   20.2670 C   0  0  0  0  0  3  0  0  0  0  0  0
  -23.7370  -11.0050   20.0800 C   0  0  0  0  0  3  0  0  0  0  0  0
  -22.3360   -7.8540   21.3190 O   0  0  0  0  0  0  0  0  0  0  0  0
  -22.1300   -7.1960   22.5050 C   0  0  0  0  0  0  0  0  0  0  0  0
  -21.6770   -7.8690   23.6610 C   0  0  0  0  0  3  0  0  0  0  0  0
  -21.4110   -7.1440   24.8390 C   0  0  0  0  0  3  0  0  0  0  0  0
  -21.5880   -5.7470   24.8620 C   0  0  0  0  0  0  0  0  0  0  0  0
  -22.0330   -5.0740   23.7100 C   0  0  0  0  0  3  0  0  0  0  0  0
  -22.3000   -5.7980   22.5350 C   0  0  0  0  0  0  0  0  0  0  0  0
  -22.7090   -5.1410   21.4210 F   0  0  0  0  0  0  0  0  0  0  0  0
  -21.3250   -5.0480   25.9910 F   0  0  0  0  0  0  0  0  0  0  0  0
  -24.1290  -14.3470   21.0840 C   0  0  0  0  0  0  0  0  0  0  0  0
  -23.3800  -13.7260   21.9900 N   0  0  0  0  0  0  0  0  0  0  0  0
  -23.7730  -15.4170   20.5900 O   0  0  0  0  0  0  0  0  0  0  0  0
  -23.6820  -12.8590   22.4090 H   0  0  0  0  0  0  0  0  0  0  0  0
  -22.4940  -14.1230   22.2650 H   0  0  0  0  0  0  0  0  0  0  0  0
  -26.8880  -15.7360   20.1740 N   0  0  0  0  0  0  0  0  0  0  0  0
  -26.2020  -16.4660   20.3280 H   0  0  0  0  0  0  0  0  0  0  0  0
  -27.7650  -16.0850   19.8100 H   0  0  0  0  0  0  0  0  0  0  0  0
  -28.8180  -24.2370   22.1280 C   0  0  0  0  0  2  0  0  0  0  0  0
  -27.8700  -25.1670   21.3440 C   0  0  0  0  0  2  0  0  0  0  0  0
  -28.3850  -25.6220   19.9610 C   0  0  0  0  0  2  0  0  0  0  0  0
  -28.3950  -27.0500   19.8500 O   0  0  0  0  0  0  0  0  0  0  0  0
  -24.6730  -31.9750   23.3620 C   0  0  0  0  0  0  0  0  0  0  0  0
  -27.1980  -27.7280   19.9370 C   0  0  0  0  0  0  0  0  0  0  0  0
  -23.4000  -30.6550   21.7010 C   0  0  0  0  0  3  0  0  0  0  0  0
  -24.7960  -29.2020   20.1370 C   0  0  0  0  0  0  0  0  0  0  0  0
  -25.9130  -31.0410   21.4150 C   0  0  0  0  0  2  0  0  0  0  0  0
  -25.9750  -29.7090   20.6970 C   0  0  0  0  0  0  0  0  0  0  0  0
  -27.1790  -28.9800   20.5890 C   0  0  0  0  0  3  0  0  0  0  0  0
  -26.0000  -27.2270   19.3780 C   0  0  0  0  0  3  0  0  0  0  0  0
  -24.8030  -27.9600   19.4770 C   0  0  0  0  0  3  0  0  0  0  0  0
  -23.5520  -30.0470   20.2800 C   0  0  0  0  0  2  0  0  0  0  0  0
  -24.6830  -31.2360   22.2170 N   0  0  0  0  0  0  0  0  0  0  0  0
  -23.6160  -32.2110   23.9640 O   0  0  0  0  0  0  0  0  0  0  0  0
  -22.7980  -29.5790   22.6330 C   0  0  0  0  0  0  0  0  0  0  0  0
  -21.4800  -29.3550   22.5110 N   0  0  0  0  0  0  0  0  0  0  0  0
  -23.5120  -28.9530   23.4210 O   0  0  0  0  0  0  0  0  0  0  0  0
  -20.9660  -29.9120   21.8430 H   0  0  0  0  0  0  0  0  0  0  0  0
  -18.1660  -27.9820   22.9450 C   0  0  0  0  0  0  0  0  0  0  0  0
  -20.7030  -28.3630   23.2550 C   0  0  0  0  0  3  0  0  0  0  0  0
  -20.8860  -26.9500   22.6560 C   0  0  0  0  0  2  0  0  0  0  0  0
  -19.8140  -26.5890   21.6230 C   0  0  0  0  0  2  0  0  0  0  0  0
  -18.4190  -26.6540   22.2510 C   0  0  0  0  0  2  0  0  0  0  0  0
  -19.2390  -28.7920   23.4020 C   0  0  0  0  0  0  0  0  0  0  0  0
  -18.9490  -30.0340   24.0090 C   0  0  0  0  0  3  0  0  0  0  0  0
  -17.6200  -30.4690   24.1610 C   0  0  0  0  0  3  0  0  0  0  0  0
  -16.5610  -29.6560   23.7210 C   0  0  0  0  0  3  0  0  0  0  0  0
  -16.8350  -28.4130   23.1200 C   0  0  0  0  0  3  0  0  0  0  0  0
  -25.9850  -32.5760   23.9580 C   0  0  0  0  0  3  0  0  0  0  0  0
  -25.7040  -33.9710   24.3210 N   0  0  0  0  0  0  0  0  0  0  0  0
  -26.0350  -35.0310   23.5710 C   0  0  0  0  0  0  0  0  0  0  0  0
  -26.6820  -34.9360   22.5250 O   0  0  0  0  0  0  0  0  0  0  0  0
  -25.1260  -34.1190   25.1360 H   0  0  0  0  0  0  0  0  0  0  0  0
  -24.3200  -36.8480   23.2910 C   0  0  0  0  0  1  0  0  0  0  0  0
  -25.5780  -36.4180   24.0620 C   0  0  0  0  0  3  0  0  0  0  0  0
  -27.7470  -37.2630   24.8440 C   0  0  0  0  0  1  0  0  0  0  0  0
  -26.6210  -37.4600   23.9360 N   0  0  0  0  0  0  0  0  0  0  0  0
  -26.2330  -38.3820   24.1090 H   0  0  0  0  0  0  0  0  0  0  0  0
  -26.5270  -31.7730   25.2030 C   0  0  1  0  0  0  0  0  0  0  0  0
  -25.4530  -31.5060   26.2840 C   0  0  0  0  0  1  0  0  0  0  0  0
  -27.1050  -30.4080   24.7630 C   0  0  0  0  0  1  0  0  0  0  0  0
  -27.6910  -32.5520   25.8620 C   0  0  0  0  0  1  0  0  0  0  0  0
  2  1  1  0
  3 51  1  0
  3  1  2  0
  4  2  2  0
  5  3  1  0
  6  5  2  0
  6  4  1  0
  8  7  1  0
  8  4  1  0
  8 11  1  0
 11  9  1  1
 11 10  1  0
 12 11  1  0
 13 19  1  0
 13 21  1  0
 14 19  1  0
 15 16  1  0
 15 14  1  0
 17 16  1  0
 17 26  1  0
 17 18  1  0
 19 18  1  0
 20 13  2  0
 21 12  1  0
 21 22  1  0
 23 24  2  0
 24 43  1  0
 25 24  1  0
 25 28  1  0
 26 27  1  0
 26 23  1  0
 27 25  2  0
 28 29  1  0
 29 30  2  0
 31 34  1  0
 31 30  1  0
 32 31  2  0
 33 32  1  0
 33 28  2  0
 34 35  1  0
 35 40  2  0
 35 36  1  0
 36 37  2  0
 37 38  1  0
 38 42  1  0
 39 38  2  0
 40 39  1  0
 41 40  1  0
 43 44  1  0
 44 47  1  0
 44 46  1  0
 45 43  2  0
 48 49  1  0
 48 23  1  0
 50 48  1  0
 52 51  1  0
 53 52  1  0
 54 56  1  0
 54 53  1  0
 55 66  2  0
 56 61  1  0
 57 65  1  0
 57 67  1  0
 58 64  1  0
 58 60  1  0
 59 65  1  0
 60 59  1  0
 61 60  2  0
 62 63  1  0
 62 56  2  0
 63 58  2  0
 64 57  1  0
 65 55  1  0
 67 69  2  0
 68 67  1  0
 70 68  1  0
 71 80  2  0
 71 76  1  0
 72 68  1  0
 72 76  1  0
 73 72  1  0
 74 75  1  0
 74 73  1  0
 75 71  1  0
 76 77  2  0
 77 78  1  0
 79 78  2  0
 80 79  1  0
 81 55  1  0
 81 82  1  0
 81 91  1  0
 82 85  1  0
 83 87  1  0
 83 82  1  0
 84 83  2  0
 87 86  1  0
 89 87  1  0
 89 90  1  0
 89 88  1  0
 91 94  1  1
 91 92  1  0
 93 91  1  0
M  ISO  4  13 100  21 100  53 101  54 101
M  END
>  <TORSDO>  (17) 
F 22

>  <SCORE>  (17) 
-10.473

>  <name>  (17) 
16

>  <ligand_id>  (17) 
16

>  <original_smiles>  (17) 
[H]c1c(C([H])([H])C([H])([H])C([H])([H])Oc2c([H])c([H])c3c(c2[H])C([H])([H])N(C(=O)C([H])(N([H])C(=O)C([H])(N([H])C([H])([H])[H])C([H])([H])[H])C(C([H])([H])[H])(C([H])([H])[H])C([H])([H])[H])C([H])(C(=O)N([H])C2([H])c4c([H])c([H])c([H])c([H])c4C([H])([H])C([H])([H])C2([H])[H])C3([H])[H])nnc(C([H])(C([H])([H])[H])C(C([H])([H])[H])(C([H])([H])[H])C([H])([H])N([H])C(=O)N2C([H])([H])C([H])([H])C([H])([H])C([H])(n3nc(-c4c([H])c([H])c(Oc5c([H])c([H])c(F)c([H])c5F)c([H])c4[H])c(C(=O)N([H])[H])c3N([H])[H])C2([H])[H])c1[H]

>  <smiles>  (17) 
[H]c1c(C([H])([H])C([H])([H])C([H])([H])Oc2c([H])c([H])c3c(c2[H])C([H])([H])N(C(=O)C([H])(N([H])C(=O)C([H])(N([H])C([H])([H])[H])C([H])([H])[H])C(C([H])([H])[H])(C([H])([H])[H])C([H])([H])[H])C([H])(C(=O)N([H])C2([H])c4c([H])c([H])c([H])c([H])c4C([H])([H])C([H])([H])C2([H])[H])C3([H])[H])nnc(C([H])(C([H])([H])[H])C(C([H])([H])[H])(C([H])([H])[H])C([H])([H])N([H])C(=O)N2C([H])([H])C([H])([H])C([H])([H])C([H])(n3nc(-c4c([H])c([H])c(Oc5c([H])c([H])c(F)c([H])c5F)c([H])c4[H])c(C(=O)N([H])[H])c3N([H])[H])C2([H])[H])c1[H]

$$$$
17:0:0
     RDKit          3D

 90 98  0  0  1  0  0  0  0  0999 V2000
  -29.5770  -21.8800   19.6070 C   0  0  0  0  0  3  0  0  0  0  0  0
  -27.6470  -22.2320   20.5200 C   0  0  0  0  0  3  0  0  0  0  0  0
  -29.0370  -20.6640   19.9830 C   0  0  0  0  0  0  0  0  0  0  0  0
  -27.7950  -20.9050   20.5730 N   0  0  0  0  0  0  0  0  0  0  0  0
  -28.6590  -22.8840   19.9250 N   0  0  0  0  0  0  0  0  0  0  0  0
  -28.8490  -18.8450   18.2850 C   0  0  0  0  0  1  0  0  0  0  0  0
  -29.5310  -19.2740   19.5970 C   0  0  0  0  0  3  0  0  0  0  0  0
  -29.4140  -18.1430   20.6720 C   0  0  0  0  0  2  0  0  0  0  0  0
  -30.4240  -16.9730   20.4290 C   0  0  0  0  0  2  0  0  0  0  0  0
  -30.6770  -14.5070   20.3850 C   0  0  0  0  0  0  0  0  0  0  0  0
  -30.3450  -12.3440   19.2610 C   0  0  0  0  0  2  0  0  0  0  0  0
  -29.3960  -12.5590   18.0650 C   0  0  0  0  0  2  0  0  0  0  0  0
  -27.9280  -12.4240   18.5100 C   0  0  0  0  0  2  0  0  0  0  0  0
  -27.6060  -13.2610   19.7770 C   0  0  0  0  0  3  0  0  0  0  0  0
  -28.6720  -13.0540   20.8770 C   0  0  0  0  0  2  0  0  0  0  0  0
  -29.9900  -13.3380   20.2890 N   0  0  0  0  0  0  0  0  0  0  0  0
  -31.8250  -14.6360   19.9500 O   0  0  0  0  0  0  0  0  0  0  0  0
  -29.9710  -15.6010   20.7560 N   0  0  0  0  0  0  0  0  0  0  0  0
  -29.0280  -15.4660   21.0900 H   0  0  0  0  0  0  0  0  0  0  0  0
  -25.2180  -13.8740   20.5070 C   0  0  0  0  0  0  0  0  0  0  0  0
  -24.1530  -13.1040   20.8890 C   0  0  0  0  0  0  0  0  0  0  0  0
  -24.6110  -11.7510   20.8580 C   0  0  0  0  0  0  0  0  0  0  0  0
  -26.2590  -12.9900   20.2690 N   0  0  0  0  0  0  0  0  0  0  0  0
  -25.8980  -11.7080   20.5380 N   0  0  0  0  0  0  0  0  0  0  0  0
  -23.8830  -10.4920   21.0580 C   0  0  0  0  0  0  0  0  0  0  0  0
  -24.3290   -9.5200   21.9800 C   0  0  0  0  0  3  0  0  0  0  0  0
  -23.6020   -8.3240   22.1680 C   0  0  0  0  0  3  0  0  0  0  0  0
  -22.4150   -8.0920   21.4330 C   0  0  0  0  0  0  0  0  0  0  0  0
  -21.9890   -9.0540   20.4990 C   0  0  0  0  0  3  0  0  0  0  0  0
  -22.7160  -10.2410   20.3100 C   0  0  0  0  0  3  0  0  0  0  0  0
  -21.6580   -6.9500   21.5300 O   0  0  0  0  0  0  0  0  0  0  0  0
  -21.6380   -6.1950   22.6760 C   0  0  0  0  0  0  0  0  0  0  0  0
  -21.2560   -6.7410   23.9200 C   0  0  0  0  0  3  0  0  0  0  0  0
  -21.1820   -5.9140   25.0600 C   0  0  0  0  0  3  0  0  0  0  0  0
  -21.4790   -4.5420   24.9550 C   0  0  0  0  0  0  0  0  0  0  0  0
  -21.8540   -3.9960   23.7150 C   0  0  0  0  0  3  0  0  0  0  0  0
  -21.9310   -4.8200   22.5790 C   0  0  0  0  0  0  0  0  0  0  0  0
  -22.2720   -4.2840   21.3820 F   0  0  0  0  0  0  0  0  0  0  0  0
  -21.4000   -3.7460   26.0460 F   0  0  0  0  0  0  0  0  0  0  0  0
  -22.7600  -13.5850   21.1730 C   0  0  0  0  0  0  0  0  0  0  0  0
  -22.0390  -12.8930   22.0480 N   0  0  0  0  0  0  0  0  0  0  0  0
  -22.3190  -14.6100   20.6530 O   0  0  0  0  0  0  0  0  0  0  0  0
  -22.4090  -12.0630   22.4870 H   0  0  0  0  0  0  0  0  0  0  0  0
  -21.1070  -13.1990   22.2830 H   0  0  0  0  0  0  0  0  0  0  0  0
  -25.3850  -15.2430   20.3230 N   0  0  0  0  0  0  0  0  0  0  0  0
  -24.6170  -15.8990   20.4210 H   0  0  0  0  0  0  0  0  0  0  0  0
  -26.2270  -15.6750   19.9640 H   0  0  0  0  0  0  0  0  0  0  0  0
  -28.7410  -24.3060   19.5510 C   0  0  0  0  0  2  0  0  0  0  0  0
  -28.3110  -25.3170   20.6420 C   0  0  0  0  0  2  0  0  0  0  0  0
  -28.4280  -26.6890   20.1980 O   0  0  0  0  0  0  0  0  0  0  0  0
  -24.6360  -31.8880   23.2560 C   0  0  0  0  0  0  0  0  0  0  0  0
  -27.2650  -27.4340   20.1820 C   0  0  0  0  0  0  0  0  0  0  0  0
  -23.4250  -30.4860   21.6180 C   0  0  0  0  0  3  0  0  0  0  0  0
  -24.8740  -28.9480   20.1860 C   0  0  0  0  0  0  0  0  0  0  0  0
  -25.9500  -30.8460   21.4100 C   0  0  0  0  0  2  0  0  0  0  0  0
  -26.0340  -29.4730   20.7700 C   0  0  0  0  0  0  0  0  0  0  0  0
  -27.2350  -28.7250   20.7580 C   0  0  0  0  0  3  0  0  0  0  0  0
  -26.0910  -26.9280   19.5840 C   0  0  0  0  0  3  0  0  0  0  0  0
  -24.8980  -27.6770   19.5860 C   0  0  0  0  0  3  0  0  0  0  0  0
  -23.6290  -29.8060   20.2370 C   0  0  0  0  0  2  0  0  0  0  0  0
  -24.6890  -31.0880   22.1530 N   0  0  0  0  0  0  0  0  0  0  0  0
  -23.5570  -32.1600   23.8000 O   0  0  0  0  0  0  0  0  0  0  0  0
  -22.7780  -29.4650   22.5810 C   0  0  0  0  0  0  0  0  0  0  0  0
  -21.4530  -29.2790   22.4550 N   0  0  0  0  0  0  0  0  0  0  0  0
  -23.4630  -28.8440   23.3970 O   0  0  0  0  0  0  0  0  0  0  0  0
  -20.9620  -29.8320   21.7670 H   0  0  0  0  0  0  0  0  0  0  0  0
  -18.0830  -28.0710   22.9440 C   0  0  0  0  0  0  0  0  0  0  0  0
  -20.6390  -28.3410   23.2260 C   0  0  0  0  0  3  0  0  0  0  0  0
  -20.7510  -26.9080   22.6550 C   0  0  0  0  0  2  0  0  0  0  0  0
  -19.6540  -26.5770   21.6390 C   0  0  0  0  0  2  0  0  0  0  0  0
  -18.2680  -26.7190   22.2770 C   0  0  0  0  0  2  0  0  0  0  0  0
  -19.1970  -28.8390   23.3760 C   0  0  0  0  0  0  0  0  0  0  0  0
  -18.9710  -30.1050   23.9600 C   0  0  0  0  0  3  0  0  0  0  0  0
  -17.6630  -30.6010   24.1180 C   0  0  0  0  0  3  0  0  0  0  0  0
  -16.5640  -29.8300   23.7030 C   0  0  0  0  0  3  0  0  0  0  0  0
  -16.7750  -28.5670   23.1220 C   0  0  0  0  0  3  0  0  0  0  0  0
  -25.9250  -32.5190   23.8720 C   0  0  0  0  0  3  0  0  0  0  0  0
  -25.6190  -33.9170   24.1990 N   0  0  0  0  0  0  0  0  0  0  0  0
  -25.9540  -34.9670   23.4370 C   0  0  0  0  0  0  0  0  0  0  0  0
  -26.6230  -34.8600   22.4050 O   0  0  0  0  0  0  0  0  0  0  0  0
  -25.0250  -34.0760   25.0000 H   0  0  0  0  0  0  0  0  0  0  0  0
  -24.2290  -36.7620   23.0760 C   0  0  0  0  0  1  0  0  0  0  0  0
  -25.4690  -36.3570   23.8900 C   0  0  0  0  0  3  0  0  0  0  0  0
  -27.6050  -37.2390   24.7170 C   0  0  0  0  0  1  0  0  0  0  0  0
  -26.5040  -37.4080   23.7730 N   0  0  0  0  0  0  0  0  0  0  0  0
  -26.1000  -38.3290   23.9190 H   0  0  0  0  0  0  0  0  0  0  0  0
  -26.4460  -31.7480   25.1460 C   0  0  1  0  0  0  0  0  0  0  0  0
  -25.3570  -31.5130   26.2190 C   0  0  0  0  0  1  0  0  0  0  0  0
  -27.0240  -30.3680   24.7500 C   0  0  0  0  0  1  0  0  0  0  0  0
  -27.6020  -32.5400   25.8020 C   0  0  0  0  0  1  0  0  0  0  0  0
  1  5  1  0
  1  3  2  0
  2  4  2  0
  3  4  1  0
  5  2  1  0
  7  6  1  0
  7  3  1  0
  7  8  1  0
  9  8  1  0
  9 18  1  0
 10 18  1  0
 11 16  1  0
 12 13  1  0
 12 11  1  0
 14 13  1  0
 14 23  1  0
 14 15  1  0
 16 10  1  0
 16 15  1  0
 17 10  2  0
 18 19  1  0
 20 21  2  0
 21 40  1  0
 22 21  1  0
 22 25  1  0
 23 20  1  0
 23 24  1  0
 24 22  2  0
 25 26  1  0
 26 27  2  0
 28 31  1  0
 28 27  1  0
 29 28  2  0
 30 29  1  0
 30 25  2  0
 31 32  1  0
 32 33  1  0
 33 34  2  0
 35 34  1  0
 35 39  1  0
 36 35  2  0
 37 32  2  0
 37 36  1  0
 38 37  1  0
 40 41  1  0
 41 44  1  0
 41 43  1  0
 42 40  2  0
 45 46  1  0
 45 20  1  0
 47 45  1  0
 48  5  1  0
 48 49  1  0
 50 49  1  0
 51 62  2  0
 52 50  1  0
 52 57  1  0
 53 61  1  0
 53 63  1  0
 54 60  1  0
 54 56  1  0
 55 61  1  0
 56 55  1  0
 57 56  2  0
 58 59  1  0
 58 52  2  0
 59 54  2  0
 60 53  1  0
 61 51  1  0
 63 65  2  0
 64 63  1  0
 66 64  1  0
 67 76  2  0
 67 72  1  0
 68 64  1  0
 68 72  1  0
 69 68  1  0
 70 71  1  0
 70 69  1  0
 71 67  1  0
 72 73  2  0
 73 74  1  0
 75 74  2  0
 76 75  1  0
 77 51  1  0
 77 78  1  0
 77 87  1  0
 78 81  1  0
 79 83  1  0
 79 78  1  0
 80 79  2  0
 83 82  1  0
 85 83  1  0
 85 86  1  0
 85 84  1  0
 87 90  1  1
 87 88  1  0
 89 87  1  0
M  ISO  4  10 100  18 100  49 101  50 101
M  END
>  <TORSDO>  (18) 
F 21

>  <SCORE>  (18) 
-13.346

>  <name>  (18) 
17

>  <ligand_id>  (18) 
17

>  <original_smiles>  (18) 
[H]c1c([H])c([H])c2c(c1[H])C([H])([H])C([H])([H])C([H])([H])C2([H])N([H])C(=O)C1([H])N(C(=O)C([H])(N([H])C(=O)C([H])(N([H])C([H])([H])[H])C([H])([H])[H])C(C([H])([H])[H])(C([H])([H])[H])C([H])([H])[H])C([H])([H])c2c([H])c(OC([H])([H])C([H])([H])n3c([H])nc(C([H])(C([H])([H])[H])C([H])([H])C([H])([H])N([H])C(=O)N4C([H])([H])C([H])([H])C([H])([H])C([H])(n5nc(-c6c([H])c([H])c(Oc7c([H])c([H])c(F)c([H])c7F)c([H])c6[H])c(C(=O)N([H])[H])c5N([H])[H])C4([H])[H])c3[H])c([H])c([H])c2C1([H])[H]

>  <smiles>  (18) 
[H]c1c([H])c([H])c2c(c1[H])C([H])([H])C([H])([H])C([H])([H])C2([H])N([H])C(=O)C1([H])N(C(=O)C([H])(N([H])C(=O)C([H])(N([H])C([H])([H])[H])C([H])([H])[H])C(C([H])([H])[H])(C([H])([H])[H])C([H])([H])[H])C([H])([H])c2c([H])c(OC([H])([H])C([H])([H])n3c([H])nc(C([H])(C([H])([H])[H])C([H])([H])C([H])([H])N([H])C(=O)N4C([H])([H])C([H])([H])C([H])([H])C([H])(n5nc(-c6c([H])c([H])c(Oc7c([H])c([H])c(F)c([H])c7F)c([H])c6[H])c(C(=O)N([H])[H])c5N([H])[H])C4([H])[H])c3[H])c([H])c([H])c2C1([H])[H]

$$$$
18:0:0
     RDKit          3D

 87 95  0  0  1  0  0  0  0  0999 V2000
  -28.5620  -21.3360   20.0880 C   0  0  0  0  0  2  0  0  0  0  0  0
  -30.1060  -19.1310   21.0510 C   0  0  0  0  0  3  0  0  0  0  0  0
  -29.3350  -19.8000   20.0180 C   0  0  0  0  0  0  0  0  0  0  0  0
  -30.0810  -16.8770   20.0700 C   0  0  0  0  0  0  0  0  0  0  0  0
  -30.5760  -19.9130   22.2620 C   0  0  0  0  0  1  0  0  0  0  0  0
  -30.4660  -17.7610   21.0520 N   0  0  0  0  0  0  0  0  0  0  0  0
  -29.0040  -18.8570   19.0490 N   0  0  0  0  0  0  0  0  0  0  0  0
  -29.3730  -17.5060   19.0570 N   0  0  0  0  0  2  0  0  0  0  0  0
  -30.7340  -15.2460   19.8610 C   0  0  0  0  0  0  0  0  0  0  0  0
  -30.5320  -12.8530   18.9660 C   0  0  0  0  0  2  0  0  0  0  0  0
  -29.5420  -12.7910   17.7770 C   0  0  0  0  0  2  0  0  0  0  0  0
  -28.1080  -12.5550   18.2810 C   0  0  0  0  0  2  0  0  0  0  0  0
  -27.7590  -13.4640   19.4860 C   0  0  0  0  0  3  0  0  0  0  0  0
  -28.8760  -13.5320   20.5450 C   0  0  0  0  0  2  0  0  0  0  0  0
  -30.1090  -13.9750   19.8800 N   0  0  0  0  0  0  0  0  0  0  0  0
  -31.9220  -15.1950   19.5030 O   0  0  0  0  0  0  0  0  0  0  0  0
  -25.4600  -14.0040   20.4480 C   0  0  0  0  0  0  0  0  0  0  0  0
  -24.4210  -13.2210   20.8620 C   0  0  0  0  0  0  0  0  0  0  0  0
  -24.8660  -11.8690   20.7320 C   0  0  0  0  0  0  0  0  0  0  0  0
  -26.4680  -13.1350   20.0790 N   0  0  0  0  0  0  0  0  0  0  0  0
  -26.1300  -11.8390   20.3200 N   0  0  0  0  0  0  0  0  0  0  0  0
  -24.1390  -10.6060   20.9170 C   0  0  0  0  0  0  0  0  0  0  0  0
  -24.5460   -9.6490   21.8740 C   0  0  0  0  0  3  0  0  0  0  0  0
  -23.8160   -8.4540   22.0480 C   0  0  0  0  0  3  0  0  0  0  0  0
  -22.6630   -8.2060   21.2660 C   0  0  0  0  0  0  0  0  0  0  0  0
  -22.2740   -9.1500   20.3000 C   0  0  0  0  0  3  0  0  0  0  0  0
  -23.0040  -10.3370   20.1250 C   0  0  0  0  0  3  0  0  0  0  0  0
  -21.9060   -7.0620   21.3470 O   0  0  0  0  0  0  0  0  0  0  0  0
  -21.7150   -6.4070   22.5370 C   0  0  0  0  0  0  0  0  0  0  0  0
  -21.1200   -7.0410   23.6490 C   0  0  0  0  0  3  0  0  0  0  0  0
  -20.8800   -6.3110   24.8310 C   0  0  0  0  0  3  0  0  0  0  0  0
  -21.2260   -4.9480   24.9000 C   0  0  0  0  0  0  0  0  0  0  0  0
  -21.8130   -4.3140   23.7920 C   0  0  0  0  0  3  0  0  0  0  0  0
  -22.0550   -5.0400   22.6130 C   0  0  0  0  0  0  0  0  0  0  0  0
  -22.6020   -4.4190   21.5410 F   0  0  0  0  0  0  0  0  0  0  0  0
  -20.9880   -4.2450   26.0320 F   0  0  0  0  0  0  0  0  0  0  0  0
  -23.0530  -13.6960   21.2570 C   0  0  0  0  0  0  0  0  0  0  0  0
  -22.3940  -12.9850   22.1630 N   0  0  0  0  0  0  0  0  0  0  0  0
  -22.5820  -14.7360   20.7960 O   0  0  0  0  0  0  0  0  0  0  0  0
  -22.7920  -12.1470   22.5630 H   0  0  0  0  0  0  0  0  0  0  0  0
  -21.4770  -13.2820   22.4660 H   0  0  0  0  0  0  0  0  0  0  0  0
  -25.6270  -15.3810   20.3240 N   0  0  0  0  0  0  0  0  0  0  0  0
  -24.8760  -16.0350   20.5230 H   0  0  0  0  0  0  0  0  0  0  0  0
  -26.4480  -15.8300   19.9370 H   0  0  0  0  0  0  0  0  0  0  0  0
  -29.0390  -23.0200   20.0280 C   0  0  0  0  0  3  0  0  0  0  0  0
  -28.0100  -24.4430   19.9210 C   0  0  0  0  0  3  0  0  0  0  0  0
  -28.2640  -26.0330   20.0440 O   0  0  0  0  0  0  0  0  0  0  0  0
  -24.6470  -31.8000   23.1580 C   0  0  0  0  0  0  0  0  0  0  0  0
  -27.2160  -27.0690   20.0160 C   0  0  0  0  0  0  0  0  0  0  0  0
  -23.4370  -30.4070   21.5290 C   0  0  0  0  0  3  0  0  0  0  0  0
  -24.8750  -28.8550   20.0530 C   0  0  0  0  0  0  0  0  0  0  0  0
  -25.9910  -30.6790   21.3220 C   0  0  0  0  0  2  0  0  0  0  0  0
  -26.0680  -29.2870   20.6470 C   0  0  0  0  0  0  0  0  0  0  0  0
  -27.2340  -28.4130   20.6060 C   0  0  0  0  0  3  0  0  0  0  0  0
  -25.9900  -26.7650   19.3820 C   0  0  0  0  0  3  0  0  0  0  0  0
  -24.8540  -27.6100   19.4070 C   0  0  0  0  0  3  0  0  0  0  0  0
  -23.6410  -29.7460   20.1390 C   0  0  0  0  0  2  0  0  0  0  0  0
  -24.7150  -30.9880   22.0570 N   0  0  0  0  0  0  0  0  0  0  0  0
  -23.5670  -32.0650   23.7080 O   0  0  0  0  0  0  0  0  0  0  0  0
  -22.7860  -29.3840   22.4930 C   0  0  0  0  0  0  0  0  0  0  0  0
  -21.4630  -29.1720   22.3660 N   0  0  0  0  0  0  0  0  0  0  0  0
  -23.4740  -28.7800   23.3180 O   0  0  0  0  0  0  0  0  0  0  0  0
  -20.9610  -29.7100   21.6720 H   0  0  0  0  0  0  0  0  0  0  0  0
  -18.1250  -27.8460   22.8600 C   0  0  0  0  0  0  0  0  0  0  0  0
  -20.6720  -28.2090   23.1360 C   0  0  0  0  0  3  0  0  0  0  0  0
  -20.8300  -26.7800   22.5650 C   0  0  0  0  0  2  0  0  0  0  0  0
  -19.7460  -26.4110   21.5490 C   0  0  0  0  0  2  0  0  0  0  0  0
  -18.3560  -26.5030   22.1870 C   0  0  0  0  0  2  0  0  0  0  0  0
  -19.2120  -28.6540   23.2910 C   0  0  0  0  0  0  0  0  0  0  0  0
  -18.9410  -29.9070   23.8810 C   0  0  0  0  0  3  0  0  0  0  0  0
  -17.6170  -30.3530   24.0470 C   0  0  0  0  0  3  0  0  0  0  0  0
  -16.5450  -29.5440   23.6320 C   0  0  0  0  0  3  0  0  0  0  0  0
  -16.8000  -28.2920   23.0440 C   0  0  0  0  0  3  0  0  0  0  0  0
  -25.9240  -32.4510   23.7730 C   0  0  0  0  0  3  0  0  0  0  0  0
  -26.4620  -31.6810   25.0420 C   0  0  1  0  0  0  0  0  0  0  0  0
  -25.3840  -31.4230   26.1210 C   0  0  0  0  0  1  0  0  0  0  0  0
  -27.0600  -30.3130   24.6420 C   0  0  0  0  0  1  0  0  0  0  0  0
  -27.6080  -32.4880   25.6950 C   0  0  0  0  0  1  0  0  0  0  0  0
  -25.5960  -33.8420   24.1270 N   0  0  0  0  0  0  0  0  0  0  0  0
  -25.8840  -34.9140   23.3760 C   0  0  0  0  0  0  0  0  0  0  0  0
  -26.5210  -34.8360   22.3220 O   0  0  0  0  0  0  0  0  0  0  0  0
  -25.0260  -33.9750   24.9510 H   0  0  0  0  0  0  0  0  0  0  0  0
  -24.1100  -36.6820   23.1210 C   0  0  0  0  0  1  0  0  0  0  0  0
  -25.3920  -36.2900   23.8720 C   0  0  0  0  0  3  0  0  0  0  0  0
  -27.5420  -37.2100   24.6250 C   0  0  0  0  0  1  0  0  0  0  0  0
  -26.4000  -37.3640   23.7280 N   0  0  0  0  0  0  0  0  0  0  0  0
  -25.9830  -38.2740   23.9000 H   0  0  0  0  0  0  0  0  0  0  0  0
  2  6  1  0
  2  5  1  0
  3  1  1  0
  3  2  1  0
  4  6  2  0
  7  8  1  0
  7  3  2  0
  8  4  1  0
  9 15  1  0
  9  4  1  0
 10 15  1  0
 11 12  1  0
 11 10  1  0
 13 12  1  0
 13 20  1  0
 13 14  1  0
 15 14  1  0
 16  9  2  0
 17 18  2  0
 18 37  1  0
 19 18  1  0
 19 22  1  0
 20 21  1  0
 20 17  1  0
 21 19  2  0
 22 23  1  0
 23 24  2  0
 25 28  1  0
 25 24  1  0
 26 25  2  0
 27 26  1  0
 27 22  2  0
 28 29  1  0
 29 34  2  0
 29 30  1  0
 30 31  2  0
 31 32  1  0
 32 36  1  0
 33 32  2  0
 34 33  1  0
 35 34  1  0
 37 38  1  0
 38 41  1  0
 38 40  1  0
 39 37  2  0
 42 17  1  0
 42 43  1  0
 44 42  1  0
 45  1  1  0
 46 45  2  0
 46 47  1  0
 48 59  2  0
 49 47  1  0
 49 54  1  0
 50 58  1  0
 50 60  1  0
 51 57  1  0
 51 53  1  0
 52 58  1  0
 53 52  1  0
 54 53  2  0
 55 56  1  0
 55 49  2  0
 56 51  2  0
 57 50  1  0
 58 48  1  0
 60 62  2  0
 61 60  1  0
 63 61  1  0
 64 73  2  0
 64 69  1  0
 65 61  1  0
 65 69  1  0
 66 65  1  0
 67 68  1  0
 67 66  1  0
 68 64  1  0
 69 70  2  0
 70 71  1  0
 72 71  2  0
 73 72  1  0
 74 48  1  0
 74 79  1  0
 74 75  1  0
 75 78  1  1
 75 76  1  0
 77 75  1  0
 79 82  1  0
 80 84  1  0
 80 79  1  0
 81 80  2  0
 84 83  1  0
 86 84  1  0
 86 87  1  0
 86 85  1  0
M  ISO  4   4 100   9 100  46 101  47 101
M  END
>  <TORSDO>  (19) 
F 19

>  <SCORE>  (19) 
-15.532

>  <name>  (19) 
18

>  <ligand_id>  (19) 
18

>  <original_smiles>  (19) 
[H]c1c([H])c([H])c2c(c1[H])C([H])([H])C([H])([H])C([H])([H])C2([H])N([H])C(=O)C1([H])N(C(=O)C([H])(N([H])C(=O)C([H])(N([H])C([H])([H])[H])C([H])([H])[H])C(C([H])([H])[H])(C([H])([H])[H])C([H])([H])[H])C([H])([H])c2c([H])c(OC([H])([H])C([H])([H])C([H])([H])c3nnc(C(=O)N4C([H])([H])C([H])([H])C([H])([H])C([H])(n5nc(-c6c([H])c([H])c(Oc7c([H])c([H])c(F)c([H])c7F)c([H])c6[H])c(C(=O)N([H])[H])c5N([H])[H])C4([H])[H])nc3C([H])([H])[H])c([H])c([H])c2C1([H])[H]

>  <smiles>  (19) 
[H]c1c([H])c([H])c2c(c1[H])C([H])([H])C([H])([H])C([H])([H])C2([H])N([H])C(=O)C1([H])N(C(=O)C([H])(N([H])C(=O)C([H])(N([H])C([H])([H])[H])C([H])([H])[H])C(C([H])([H])[H])(C([H])([H])[H])C([H])([H])[H])C([H])([H])c2c([H])c(OC([H])([H])C([H])([H])C([H])([H])c3nnc(C(=O)N4C([H])([H])C([H])([H])C([H])([H])C([H])(n5nc(-c6c([H])c([H])c(Oc7c([H])c([H])c(F)c([H])c7F)c([H])c6[H])c(C(=O)N([H])[H])c5N([H])[H])C4([H])[H])nc3C([H])([H])[H])c([H])c([H])c2C1([H])[H]

$$$$
19:0:0
     RDKit          3D

 91 99  0  0  1  0  0  0  0  0999 V2000
  -28.3180  -19.5470   20.7710 C   0  0  0  0  0  3  0  0  0  0  0  0
  -28.9180  -20.5290   19.9380 C   0  0  0  0  0  0  0  0  0  0  0  0
  -29.9730  -19.9160   19.1880 C   0  0  0  0  0  0  0  0  0  0  0  0
  -29.7220  -17.7250   20.1300 C   0  0  0  0  0  0  0  0  0  0  0  0
  -28.7110  -18.2350   20.8620 N   0  0  0  0  0  0  0  0  0  0  0  0
  -30.3520  -18.5860   19.2970 N   0  0  0  0  0  0  0  0  0  0  0  0
  -31.8310  -16.7360   21.0500 C   0  0  0  0  0  1  0  0  0  0  0  0
  -29.7550  -15.8960   21.9690 C   0  0  0  0  0  1  0  0  0  0  0  0
  -30.4000  -16.3020   20.6210 C   0  0  1  0  0  0  0  0  0  0  0  0
  -30.6610  -14.9460   19.6900 C   0  0  0  0  0  0  0  0  0  0  0  0
  -30.2350  -12.7050   18.5740 C   0  0  0  0  0  2  0  0  0  0  0  0
  -29.1840  -12.8420   17.4460 C   0  0  0  0  0  2  0  0  0  0  0  0
  -27.7590  -12.6810   18.0060 C   0  0  0  0  0  2  0  0  0  0  0  0
  -27.5500  -13.5080   19.3010 C   0  0  0  0  0  3  0  0  0  0  0  0
  -28.7100  -13.3060   20.2930 C   0  0  0  0  0  2  0  0  0  0  0  0
  -29.9500  -13.7370   19.6210 N   0  0  0  0  0  0  0  0  0  0  0  0
  -31.6930  -14.9700   19.0080 O   0  0  0  0  0  0  0  0  0  0  0  0
  -25.2740  -14.1490   20.2870 C   0  0  0  0  0  0  0  0  0  0  0  0
  -24.2210  -13.3980   20.7350 C   0  0  0  0  0  0  0  0  0  0  0  0
  -24.6280  -12.0340   20.6100 C   0  0  0  0  0  0  0  0  0  0  0  0
  -26.2530  -13.2440   19.9150 N   0  0  0  0  0  0  0  0  0  0  0  0
  -25.8780  -11.9630   20.1680 N   0  0  0  0  0  0  0  0  0  0  0  0
  -23.8770  -10.7920   20.8320 C   0  0  0  0  0  0  0  0  0  0  0  0
  -24.3320   -9.8040   21.7320 C   0  0  0  0  0  3  0  0  0  0  0  0
  -23.5830   -8.6250   21.9390 C   0  0  0  0  0  3  0  0  0  0  0  0
  -22.3640   -8.4290   21.2480 C   0  0  0  0  0  0  0  0  0  0  0  0
  -21.9270   -9.4050   20.3360 C   0  0  0  0  0  3  0  0  0  0  0  0
  -22.6760  -10.5750   20.1270 C   0  0  0  0  0  3  0  0  0  0  0  0
  -21.5810   -7.3060   21.3680 O   0  0  0  0  0  0  0  0  0  0  0  0
  -21.5270   -6.5870   22.5350 C   0  0  0  0  0  0  0  0  0  0  0  0
  -21.1360   -7.1780   23.7570 C   0  0  0  0  0  3  0  0  0  0  0  0
  -21.0320   -6.3870   24.9190 C   0  0  0  0  0  3  0  0  0  0  0  0
  -21.3020   -5.0060   24.8580 C   0  0  0  0  0  0  0  0  0  0  0  0
  -21.6810   -4.4160   23.6400 C   0  0  0  0  0  3  0  0  0  0  0  0
  -21.7910   -5.2040   22.4820 C   0  0  0  0  0  0  0  0  0  0  0  0
  -22.1400   -4.6270   21.3070 F   0  0  0  0  0  0  0  0  0  0  0  0
  -21.1910   -4.2430   25.9710 F   0  0  0  0  0  0  0  0  0  0  0  0
  -22.8800  -13.9140   21.1630 C   0  0  0  0  0  0  0  0  0  0  0  0
  -22.2220  -13.2170   22.0830 N   0  0  0  0  0  0  0  0  0  0  0  0
  -22.4270  -14.9700   20.7220 O   0  0  0  0  0  0  0  0  0  0  0  0
  -22.6060  -12.3660   22.4640 H   0  0  0  0  0  0  0  0  0  0  0  0
  -21.3240  -13.5430   22.4100 H   0  0  0  0  0  0  0  0  0  0  0  0
  -25.4710  -15.5190   20.1490 N   0  0  0  0  0  0  0  0  0  0  0  0
  -24.7450  -16.1880   20.3800 H   0  0  0  0  0  0  0  0  0  0  0  0
  -26.3120  -15.9570   19.7940 H   0  0  0  0  0  0  0  0  0  0  0  0
  -32.1580  -21.1090   18.8470 C   0  0  0  0  0  1  0  0  0  0  0  0
  -30.8090  -20.7330   18.2220 C   0  0  0  0  0  2  0  0  0  0  0  0
  -28.2470  -22.0060   19.7190 C   0  0  0  0  0  2  0  0  0  0  0  0
  -28.7250  -23.4980   20.2470 C   0  0  0  0  0  3  0  0  0  0  0  0
  -27.7770  -24.8170   19.9120 C   0  0  0  0  0  3  0  0  0  0  0  0
  -28.0500  -26.3000   20.2010 O   0  0  0  0  0  0  0  0  0  0  0  0
  -24.4990  -31.9450   23.2220 C   0  0  0  0  0  0  0  0  0  0  0  0
  -26.9890  -27.2590   20.1370 C   0  0  0  0  0  0  0  0  0  0  0  0
  -23.2540  -30.5570   21.6100 C   0  0  0  0  0  3  0  0  0  0  0  0
  -24.6630  -28.9850   20.1520 C   0  0  0  0  0  0  0  0  0  0  0  0
  -25.8050  -30.8190   21.3910 C   0  0  0  0  0  2  0  0  0  0  0  0
  -25.8560  -29.4350   20.7320 C   0  0  0  0  0  0  0  0  0  0  0  0
  -27.0210  -28.5880   20.7060 C   0  0  0  0  0  3  0  0  0  0  0  0
  -25.7680  -26.9010   19.5200 C   0  0  0  0  0  3  0  0  0  0  0  0
  -24.6300  -27.7310   19.5270 C   0  0  0  0  0  3  0  0  0  0  0  0
  -23.4400  -29.8810   20.2260 C   0  0  0  0  0  2  0  0  0  0  0  0
  -24.5390  -31.1280   22.1280 N   0  0  0  0  0  0  0  0  0  0  0  0
  -23.4280  -32.2350   23.7760 O   0  0  0  0  0  0  0  0  0  0  0  0
  -22.5940  -29.5490   22.5860 C   0  0  0  0  0  0  0  0  0  0  0  0
  -21.2690  -29.3560   22.4660 N   0  0  0  0  0  0  0  0  0  0  0  0
  -23.2770  -28.9420   23.4160 O   0  0  0  0  0  0  0  0  0  0  0  0
  -20.7730  -29.8980   21.7730 H   0  0  0  0  0  0  0  0  0  0  0  0
  -17.9100  -28.0910   22.9650 C   0  0  0  0  0  0  0  0  0  0  0  0
  -20.4600  -28.4220   23.2540 C   0  0  0  0  0  3  0  0  0  0  0  0
  -20.6010  -26.9750   22.7240 C   0  0  0  0  0  2  0  0  0  0  0  0
  -19.5190  -26.5980   21.7060 C   0  0  0  0  0  2  0  0  0  0  0  0
  -18.1260  -26.7290   22.3290 C   0  0  0  0  0  2  0  0  0  0  0  0
  -19.0060  -28.8930   23.3860 C   0  0  0  0  0  0  0  0  0  0  0  0
  -18.7470  -30.1660   23.9390 C   0  0  0  0  0  3  0  0  0  0  0  0
  -17.4270  -30.6390   24.0740 C   0  0  0  0  0  3  0  0  0  0  0  0
  -16.3480  -29.8340   23.6690 C   0  0  0  0  0  3  0  0  0  0  0  0
  -16.5900  -28.5620   23.1200 C   0  0  0  0  0  3  0  0  0  0  0  0
  -25.7970  -32.5710   23.8190 C   0  0  0  0  0  3  0  0  0  0  0  0
  -25.5070  -33.9770   24.1370 N   0  0  0  0  0  0  0  0  0  0  0  0
  -25.8160  -35.0180   23.3520 C   0  0  0  0  0  0  0  0  0  0  0  0
  -26.4420  -34.8950   22.2970 O   0  0  0  0  0  0  0  0  0  0  0  0
  -24.9510  -34.1480   24.9620 H   0  0  0  0  0  0  0  0  0  0  0  0
  -24.0760  -36.8130   23.0580 C   0  0  0  0  0  1  0  0  0  0  0  0
  -25.3560  -36.4170   23.8100 C   0  0  0  0  0  3  0  0  0  0  0  0
  -27.5300  -37.3120   24.5150 C   0  0  0  0  0  1  0  0  0  0  0  0
  -26.3820  -37.4650   23.6250 N   0  0  0  0  0  0  0  0  0  0  0  0
  -25.9860  -38.3880   23.7780 H   0  0  0  0  0  0  0  0  0  0  0  0
  -26.3200  -31.8150   25.1020 C   0  0  1  0  0  0  0  0  0  0  0  0
  -25.2360  -31.6010   26.1860 C   0  0  0  0  0  1  0  0  0  0  0  0
  -26.8860  -30.4240   24.7300 C   0  0  0  0  0  1  0  0  0  0  0  0
  -27.4840  -32.6090   25.7400 C   0  0  0  0  0  1  0  0  0  0  0  0
  1  5  1  0
  2  1  2  0
  3  6  2  0
  3  2  1  0
  4  9  1  0
  4  5  2  0
  6  4  1  0
  9  7  1  1
  9  8  1  0
 10  9  1  0
 11 16  1  0
 12 13  1  0
 12 11  1  0
 14 13  1  0
 14 21  1  0
 14 15  1  0
 16 10  1  0
 16 15  1  0
 17 10  2  0
 18 19  2  0
 19 38  1  0
 20 19  1  0
 20 23  1  0
 21 22  1  0
 21 18  1  0
 22 20  2  0
 23 24  1  0
 24 25  2  0
 26 29  1  0
 26 25  1  0
 27 26  2  0
 28 27  1  0
 28 23  2  0
 29 30  1  0
 30 31  1  0
 31 32  2  0
 33 32  1  0
 33 37  1  0
 34 33  2  0
 35 30  2  0
 35 34  1  0
 36 35  1  0
 38 39  1  0
 39 42  1  0
 39 41  1  0
 40 38  2  0
 43 18  1  0
 43 44  1  0
 45 43  1  0
 47 46  1  0
 47  3  1  0
 48  2  1  0
 48 49  1  0
 50 51  1  0
 50 49  2  0
 52 63  2  0
 53 51  1  0
 53 58  1  0
 54 62  1  0
 54 64  1  0
 55 61  1  0
 55 57  1  0
 56 62  1  0
 57 56  1  0
 58 57  2  0
 59 60  1  0
 59 53  2  0
 60 55  2  0
 61 54  1  0
 62 52  1  0
 64 66  2  0
 65 64  1  0
 67 65  1  0
 68 77  2  0
 68 73  1  0
 69 65  1  0
 69 73  1  0
 70 69  1  0
 71 72  1  0
 71 70  1  0
 72 68  1  0
 73 74  2  0
 74 75  1  0
 76 75  2  0
 77 76  1  0
 78 52  1  0
 78 79  1  0
 78 88  1  0
 79 82  1  0
 80 84  1  0
 80 79  1  0
 81 80  2  0
 84 83  1  0
 86 87  1  0
 86 84  1  0
 86 85  1  0
 88 91  1  1
 88 89  1  0
 90 88  1  0
M  ISO  4   9 100  10 100  50 101  51 101
M  END
>  <TORSDO>  (20) 
F 21

>  <SCORE>  (20) 
-11.837

>  <name>  (20) 
19

>  <ligand_id>  (20) 
19

>  <original_smiles>  (20) 
[H]c1nc(C(C(=O)N2C([H])([H])C([H])([H])C([H])([H])C([H])(n3nc(-c4c([H])c([H])c(Oc5c([H])c([H])c(F)c([H])c5F)c([H])c4[H])c(C(=O)N([H])[H])c3N([H])[H])C2([H])[H])(C([H])([H])[H])C([H])([H])[H])nc(C([H])([H])C([H])([H])[H])c1C([H])([H])C([H])([H])C([H])([H])Oc1c([H])c([H])c2c(c1[H])C([H])([H])N(C(=O)C([H])(N([H])C(=O)C([H])(N([H])C([H])([H])[H])C([H])([H])[H])C(C([H])([H])[H])(C([H])([H])[H])C([H])([H])[H])C([H])(C(=O)N([H])C1([H])c3c([H])c([H])c([H])c([H])c3C([H])([H])C([H])([H])C1([H])[H])C2([H])[H]

>  <smiles>  (20) 
[H]c1nc(C(C(=O)N2C([H])([H])C([H])([H])C([H])([H])C([H])(n3nc(-c4c([H])c([H])c(Oc5c([H])c([H])c(F)c([H])c5F)c([H])c4[H])c(C(=O)N([H])[H])c3N([H])[H])C2([H])[H])(C([H])([H])[H])C([H])([H])[H])nc(C([H])([H])C([H])([H])[H])c1C([H])([H])C([H])([H])C([H])([H])Oc1c([H])c([H])c2c(c1[H])C([H])([H])N(C(=O)C([H])(N([H])C(=O)C([H])(N([H])C([H])([H])[H])C([H])([H])[H])C(C([H])([H])[H])(C([H])([H])[H])C([H])([H])[H])C([H])(C(=O)N([H])C1([H])c3c([H])c([H])c([H])c([H])c3C([H])([H])C([H])([H])C1([H])[H])C2([H])[H]

$$$$
20:0:0
     RDKit          3D

 89 97  0  0  1  0  0  0  0  0999 V2000
  -29.1780  -21.1040   19.4490 C   0  0  0  0  0  3  0  0  0  0  0  0
  -29.5990  -18.6510   20.7550 C   0  0  0  0  0  3  0  0  0  0  0  0
  -30.0790  -17.5630   18.9500 C   0  0  0  0  0  3  0  0  0  0  0  0
  -29.5620  -19.5850   19.7060 C   0  0  0  0  0  0  0  0  0  0  0  0
  -29.8790  -18.8300   18.5690 N   0  0  0  0  0  0  0  0  0  0  0  0
  -29.9500  -17.3380   20.2630 N   0  0  0  0  0  0  0  0  0  0  0  0
  -28.7010  -15.8310   21.7160 C   0  0  0  0  0  1  0  0  0  0  0  0
  -31.0690  -16.2240   22.1520 C   0  0  0  0  0  1  0  0  0  0  0  0
  -30.0600  -15.9990   21.0020 C   0  0  2  0  0  0  0  0  0  0  0  0
  -30.6150  -14.6920   20.1670 C   0  0  0  0  0  0  0  0  0  0  0  0
  -30.3850  -12.4930   18.9390 C   0  0  0  0  0  2  0  0  0  0  0  0
  -29.3770  -12.6700   17.7780 C   0  0  0  0  0  2  0  0  0  0  0  0
  -27.9180  -12.4900   18.2540 C   0  0  0  0  0  2  0  0  0  0  0  0
  -27.6400  -13.2430   19.5810 C   0  0  0  0  0  3  0  0  0  0  0  0
  -28.7560  -12.9620   20.6120 C   0  0  0  0  0  2  0  0  0  0  0  0
  -30.0090  -13.4510   20.0220 N   0  0  0  0  0  0  0  0  0  0  0  0
  -31.6980  -14.8470   19.5860 O   0  0  0  0  0  0  0  0  0  0  0  0
  -25.2710  -13.8300   20.3870 C   0  0  0  0  0  0  0  0  0  0  0  0
  -24.2310  -13.0560   20.8090 C   0  0  0  0  0  0  0  0  0  0  0  0
  -24.6970  -11.7060   20.7430 C   0  0  0  0  0  0  0  0  0  0  0  0
  -26.3130  -12.9600   20.1120 N   0  0  0  0  0  0  0  0  0  0  0  0
  -25.9720  -11.6740   20.3770 N   0  0  0  0  0  0  0  0  0  0  0  0
  -23.9850  -10.4400   20.9560 C   0  0  0  0  0  0  0  0  0  0  0  0
  -24.4460   -9.4840   21.8880 C   0  0  0  0  0  3  0  0  0  0  0  0
  -23.7380   -8.2840   22.0930 C   0  0  0  0  0  3  0  0  0  0  0  0
  -22.5500   -8.0280   21.3670 C   0  0  0  0  0  0  0  0  0  0  0  0
  -22.1030   -8.9730   20.4240 C   0  0  0  0  0  3  0  0  0  0  0  0
  -22.8130  -10.1670   20.2190 C   0  0  0  0  0  3  0  0  0  0  0  0
  -21.8130   -6.8730   21.4720 O   0  0  0  0  0  0  0  0  0  0  0  0
  -21.7590   -6.1570   22.6400 C   0  0  0  0  0  0  0  0  0  0  0  0
  -21.3230   -6.7380   23.8500 C   0  0  0  0  0  3  0  0  0  0  0  0
  -21.2150   -5.9460   25.0130 C   0  0  0  0  0  3  0  0  0  0  0  0
  -21.5400   -4.5770   24.9640 C   0  0  0  0  0  0  0  0  0  0  0  0
  -21.9670   -3.9960   23.7560 C   0  0  0  0  0  3  0  0  0  0  0  0
  -22.0710   -4.7840   22.5970 C   0  0  0  0  0  0  0  0  0  0  0  0
  -22.4640   -4.2160   21.4300 F   0  0  0  0  0  0  0  0  0  0  0  0
  -21.4310   -3.8130   26.0770 F   0  0  0  0  0  0  0  0  0  0  0  0
  -22.8470  -13.5240   21.1520 C   0  0  0  0  0  0  0  0  0  0  0  0
  -22.1680  -12.8240   22.0550 N   0  0  0  0  0  0  0  0  0  0  0  0
  -22.3760  -14.5480   20.6540 O   0  0  0  0  0  0  0  0  0  0  0  0
  -22.5640  -11.9940   22.4780 H   0  0  0  0  0  0  0  0  0  0  0  0
  -21.2400  -13.1160   22.3220 H   0  0  0  0  0  0  0  0  0  0  0  0
  -25.4040  -15.2050   20.1950 N   0  0  0  0  0  0  0  0  0  0  0  0
  -24.6210  -15.8320   20.3410 H   0  0  0  0  0  0  0  0  0  0  0  0
  -26.2090  -15.6620   19.7820 H   0  0  0  0  0  0  0  0  0  0  0  0
  -29.0260  -22.3230   20.4950 C   0  0  0  0  0  3  0  0  0  0  0  0
  -28.7840  -23.8090   19.8660 C   0  0  0  0  0  3  0  0  0  0  0  0
  -28.3610  -25.0740   20.7720 C   0  0  0  0  0  3  0  0  0  0  0  0
  -28.4340  -26.4690   20.2460 O   0  0  0  0  0  0  0  0  0  0  0  0
  -24.6310  -31.8830   23.2110 C   0  0  0  0  0  0  0  0  0  0  0  0
  -27.2960  -27.2950   20.2470 C   0  0  0  0  0  0  0  0  0  0  0  0
  -23.4470  -30.4520   21.5870 C   0  0  0  0  0  3  0  0  0  0  0  0
  -24.9140  -28.8860   20.1920 C   0  0  0  0  0  0  0  0  0  0  0  0
  -25.9790  -30.7890   21.4010 C   0  0  0  0  0  2  0  0  0  0  0  0
  -26.0770  -29.3990   20.7850 C   0  0  0  0  0  0  0  0  0  0  0  0
  -27.2700  -28.6130   20.8020 C   0  0  0  0  0  3  0  0  0  0  0  0
  -26.1130  -26.8350   19.6330 C   0  0  0  0  0  3  0  0  0  0  0  0
  -24.9320  -27.6070   19.6130 C   0  0  0  0  0  3  0  0  0  0  0  0
  -23.6700  -29.7530   20.2210 C   0  0  0  0  0  2  0  0  0  0  0  0
  -24.7060  -31.0580   22.1270 N   0  0  0  0  0  0  0  0  0  0  0  0
  -23.5430  -32.1630   23.7360 O   0  0  0  0  0  0  0  0  0  0  0  0
  -22.7830  -29.4460   22.5560 C   0  0  0  0  0  0  0  0  0  0  0  0
  -21.4550  -29.2790   22.4340 N   0  0  0  0  0  0  0  0  0  0  0  0
  -23.4600  -28.8160   23.3720 O   0  0  0  0  0  0  0  0  0  0  0  0
  -20.9700  -29.8240   21.7350 H   0  0  0  0  0  0  0  0  0  0  0  0
  -18.0690  -28.1350   22.9590 C   0  0  0  0  0  0  0  0  0  0  0  0
  -20.6320  -28.3520   23.2110 C   0  0  0  0  0  3  0  0  0  0  0  0
  -20.7140  -26.9240   22.6230 C   0  0  0  0  0  2  0  0  0  0  0  0
  -19.5950  -26.6230   21.6230 C   0  0  0  0  0  2  0  0  0  0  0  0
  -18.2200  -26.7870   22.2780 C   0  0  0  0  0  2  0  0  0  0  0  0
  -19.2020  -28.8780   23.3830 C   0  0  0  0  0  0  0  0  0  0  0  0
  -19.0070  -30.1430   23.9790 C   0  0  0  0  0  3  0  0  0  0  0  0
  -17.7110  -30.6610   24.1590 C   0  0  0  0  0  3  0  0  0  0  0  0
  -16.5910  -29.9130   23.7560 C   0  0  0  0  0  3  0  0  0  0  0  0
  -16.7730  -28.6510   23.1600 C   0  0  0  0  0  3  0  0  0  0  0  0
  -25.9090  -32.5260   23.8340 C   0  0  0  0  0  3  0  0  0  0  0  0
  -25.5840  -33.9170   24.1770 N   0  0  0  0  0  0  0  0  0  0  0  0
  -25.8950  -34.9790   23.4210 C   0  0  0  0  0  0  0  0  0  0  0  0
  -26.5560  -34.8920   22.3820 O   0  0  0  0  0  0  0  0  0  0  0  0
  -25.0040  -34.0620   24.9900 H   0  0  0  0  0  0  0  0  0  0  0  0
  -24.1390  -36.7470   23.0930 C   0  0  0  0  0  1  0  0  0  0  0  0
  -25.3940  -36.3570   23.8890 C   0  0  0  0  0  3  0  0  0  0  0  0
  -27.5240  -37.2680   24.7060 C   0  0  0  0  0  1  0  0  0  0  0  0
  -26.4100  -37.4260   23.7720 N   0  0  0  0  0  0  0  0  0  0  0  0
  -25.9910  -38.3390   23.9360 H   0  0  0  0  0  0  0  0  0  0  0  0
  -26.4410  -31.7500   25.1010 C   0  0  1  0  0  0  0  0  0  0  0  0
  -25.3540  -31.4850   26.1670 C   0  0  0  0  0  1  0  0  0  0  0  0
  -27.0370  -30.3840   24.6910 C   0  0  0  0  0  1  0  0  0  0  0  0
  -27.5820  -32.5530   25.7680 C   0  0  0  0  0  1  0  0  0  0  0  0
  1  4  1  0
  1 46  2  0
  3  6  1  0
  4  2  2  0
  5  3  2  0
  5  4  1  0
  6  2  1  0
  6  9  1  0
  9  7  1  1
  9  8  1  0
 10  9  1  0
 11 16  1  0
 12 13  1  0
 12 11  1  0
 14 13  1  0
 14 21  1  0
 14 15  1  0
 16 10  1  0
 16 15  1  0
 17 10  2  0
 18 19  2  0
 19 38  1  0
 20 19  1  0
 20 23  1  0
 21 22  1  0
 21 18  1  0
 22 20  2  0
 23 24  1  0
 24 25  2  0
 26 29  1  0
 26 25  1  0
 27 26  2  0
 28 27  1  0
 28 23  2  0
 29 30  1  0
 30 31  1  0
 31 32  2  0
 33 32  1  0
 33 37  1  0
 34 33  2  0
 35 30  2  0
 35 34  1  0
 36 35  1  0
 38 39  1  0
 39 42  1  0
 39 41  1  0
 40 38  2  0
 43 44  1  0
 43 18  1  0
 45 43  1  0
 47 46  1  0
 47 48  2  0
 49 51  1  0
 49 48  1  0
 50 61  2  0
 51 56  1  0
 52 60  1  0
 52 62  1  0
 53 59  1  0
 53 55  1  0
 54 60  1  0
 55 56  2  0
 55 54  1  0
 57 51  2  0
 58 57  1  0
 58 53  2  0
 59 52  1  0
 60 50  1  0
 62 64  2  0
 63 62  1  0
 65 63  1  0
 66 75  2  0
 66 71  1  0
 67 63  1  0
 67 71  1  0
 68 67  1  0
 69 70  1  0
 69 68  1  0
 70 66  1  0
 71 72  2  0
 72 73  1  0
 74 73  2  0
 75 74  1  0
 76 50  1  0
 76 77  1  0
 76 86  1  0
 77 80  1  0
 78 82  1  0
 78 77  1  0
 79 78  2  0
 82 81  1  0
 84 82  1  0
 84 85  1  0
 84 83  1  0
 86 89  1  1
 86 87  1  0
 88 86  1  0
M  ISO  4   9 100  10 100  48 101  49 101
M  END
>  <TORSDO>  (21) 
F 21

>  <SCORE>  (21) 
-12.316

>  <name>  (21) 
20

>  <ligand_id>  (21) 
20

>  <original_smiles>  (21) 
[H]c1c([H])c([H])c2c(c1[H])C([H])([H])C([H])([H])C([H])([H])C2([H])N([H])C(=O)C1([H])N(C(=O)C([H])(N([H])C(=O)C([H])(N([H])C([H])([H])[H])C([H])([H])[H])C(C([H])([H])[H])(C([H])([H])[H])C([H])([H])[H])C([H])([H])c2c([H])c(OC([H])([H])C([H])([H])C([H])([H])C([H])([H])c3nc([H])n(C(C(=O)N4C([H])([H])C([H])([H])C([H])([H])C([H])(n5nc(-c6c([H])c([H])c(Oc7c([H])c([H])c(F)c([H])c7F)c([H])c6[H])c(C(=O)N([H])[H])c5N([H])[H])C4([H])[H])(C([H])([H])[H])C([H])([H])[H])c3[H])c([H])c([H])c2C1([H])[H]

>  <smiles>  (21) 
[H]c1c([H])c([H])c2c(c1[H])C([H])([H])C([H])([H])C([H])([H])C2([H])N([H])C(=O)C1([H])N(C(=O)C([H])(N([H])C(=O)C([H])(N([H])C([H])([H])[H])C([H])([H])[H])C(C([H])([H])[H])(C([H])([H])[H])C([H])([H])[H])C([H])([H])c2c([H])c(OC([H])([H])C([H])([H])C([H])([H])C([H])([H])c3nc([H])n(C(C(=O)N4C([H])([H])C([H])([H])C([H])([H])C([H])(n5nc(-c6c([H])c([H])c(Oc7c([H])c([H])c(F)c([H])c7F)c([H])c6[H])c(C(=O)N([H])[H])c5N([H])[H])C4([H])[H])(C([H])([H])[H])C([H])([H])[H])c3[H])c([H])c([H])c2C1([H])[H]

$$$$
21:0:0
     RDKit          3D

 97106  0  0  1  0  0  0  0  0999 V2000
  -27.8730  -20.1420   20.0880 C   0  0  0  0  0  3  0  0  0  0  0  0
  -28.6110  -21.0950   19.4440 C   0  0  0  0  0  0  0  0  0  0  0  0
  -29.7490  -19.1420   19.4020 C   0  0  0  0  0  3  0  0  0  0  0  0
  -28.5670  -18.9540   20.0630 N   0  0  0  0  0  0  0  0  0  0  0  0
  -29.7300  -20.4270   19.0180 N   0  0  0  0  0  0  0  0  0  0  0  0
  -30.4920  -20.8610   18.5090 H   0  0  0  0  0  0  0  0  0  0  0  0
  -31.6470  -18.7730   17.7690 C   0  0  0  0  0  1  0  0  0  0  0  0
  -32.0050  -18.2150   20.1610 C   0  0  0  0  0  1  0  0  0  0  0  0
  -30.9450  -18.2310   19.0440 C   0  0  1  0  0  0  0  0  0  0  0  0
  -30.4790  -16.7900   18.6650 C   0  0  0  0  0  2  0  0  0  0  0  0
  -31.7720  -14.7070   19.3280 C   0  0  0  0  0  0  0  0  0  0  0  0
  -31.7290  -12.2660   18.9710 C   0  0  0  0  0  2  0  0  0  0  0  0
  -30.7830  -12.0100   17.7750 C   0  0  0  0  0  2  0  0  0  0  0  0
  -29.3040  -11.9730   18.2150 C   0  0  0  0  0  2  0  0  0  0  0  0
  -28.9110  -13.1620   19.1320 C   0  0  0  0  0  3  0  0  0  0  0  0
  -29.9510  -13.2710   20.2690 C   0  0  0  0  0  2  0  0  0  0  0  0
  -31.2720  -13.4850   19.6540 N   0  0  0  0  0  0  0  0  0  0  0  0
  -32.8350  -14.8640   18.7180 O   0  0  0  0  0  0  0  0  0  0  0  0
  -30.9050  -15.7100   19.5780 N   0  0  0  0  0  0  0  0  0  0  0  0
  -30.1840  -15.4420   20.2280 H   0  0  0  0  0  0  0  0  0  0  0  0
  -26.5720  -13.9950   19.8180 C   0  0  0  0  0  0  0  0  0  0  0  0
  -25.4690  -13.3510   20.2990 C   0  0  0  0  0  0  0  0  0  0  0  0
  -25.8330  -11.9690   20.3750 C   0  0  0  0  0  0  0  0  0  0  0  0
  -27.5550  -13.0290   19.6610 N   0  0  0  0  0  0  0  0  0  0  0  0
  -27.1070  -11.8070   20.0410 N   0  0  0  0  0  0  0  0  0  0  0  0
  -25.0230  -10.7850   20.6790 C   0  0  0  0  0  0  0  0  0  0  0  0
  -25.2710  -10.0000   21.8250 C   0  0  0  0  0  3  0  0  0  0  0  0
  -24.4730   -8.8710   22.1090 C   0  0  0  0  0  3  0  0  0  0  0  0
  -23.4100   -8.5190   21.2440 C   0  0  0  0  0  0  0  0  0  0  0  0
  -23.1760   -9.2930   20.0950 C   0  0  0  0  0  3  0  0  0  0  0  0
  -23.9750  -10.4130   19.8110 C   0  0  0  0  0  3  0  0  0  0  0  0
  -22.6000   -7.4250   21.4260 O   0  0  0  0  0  0  0  0  0  0  0  0
  -22.1850   -7.0400   22.6770 C   0  0  0  0  0  0  0  0  0  0  0  0
  -21.4360   -7.9000   23.5110 C   0  0  0  0  0  3  0  0  0  0  0  0
  -20.9680   -7.4390   24.7590 C   0  0  0  0  0  3  0  0  0  0  0  0
  -21.2440   -6.1220   25.1700 C   0  0  0  0  0  0  0  0  0  0  0  0
  -21.9900   -5.2650   24.3420 C   0  0  0  0  0  3  0  0  0  0  0  0
  -22.4570   -5.7240   23.0970 C   0  0  0  0  0  0  0  0  0  0  0  0
  -23.1540   -4.8880   22.2910 F   0  0  0  0  0  0  0  0  0  0  0  0
  -20.7900   -5.6770   26.3640 F   0  0  0  0  0  0  0  0  0  0  0  0
  -24.1180  -13.9490   20.5730 C   0  0  0  0  0  0  0  0  0  0  0  0
  -23.3840  -13.4060   21.5370 N   0  0  0  0  0  0  0  0  0  0  0  0
  -23.7250  -14.9430   19.9600 O   0  0  0  0  0  0  0  0  0  0  0  0
  -23.7100  -12.6040   22.0580 H   0  0  0  0  0  0  0  0  0  0  0  0
  -22.4800  -13.7970   21.7610 H   0  0  0  0  0  0  0  0  0  0  0  0
  -26.8170  -15.3120   19.4580 N   0  0  0  0  0  4  0  0  0  0  0  0
  -26.0480  -15.9700   19.4080 H   0  0  0  0  0  0  0  0  0  0  0  0
  -27.6150  -15.5790   18.8990 H   0  0  0  0  0  0  0  0  0  0  0  0
  -28.9550  -17.1920   21.8360 C   0  0  0  0  0  1  0  0  0  0  0  0
  -27.2810  -16.7470   19.8950 C   0  0  0  0  0  2  0  0  0  0  0  0
  -28.0140  -17.7630   20.7690 C   0  0  0  0  0  3  0  0  0  0  0  0
  -27.0150  -22.8250   18.5770 C   0  0  0  0  0  1  0  0  0  0  0  0
  -28.3860  -22.5670   19.2210 C   0  0  0  0  0  3  0  0  0  0  0  0
  -28.5790  -23.3910   20.5240 C   0  0  0  0  0  2  0  0  0  0  0  0
  -29.7180  -24.4330   20.4520 C   0  0  0  0  0  2  0  0  0  0  0  0
  -29.4050  -25.6660   19.5860 C   0  0  0  0  0  2  0  0  0  0  0  0
  -29.0060  -26.7430   20.4340 O   0  0  0  0  0  0  0  0  0  0  0  0
  -24.7850  -31.6110   23.3420 C   0  0  0  0  0  0  0  0  0  0  0  0
  -27.7630  -27.3320   20.3480 C   0  0  0  0  0  0  0  0  0  0  0  0
  -23.7130  -30.1690   21.6470 C   0  0  0  0  0  3  0  0  0  0  0  0
  -25.2920  -28.7100   20.2670 C   0  0  0  0  0  0  0  0  0  0  0  0
  -26.2210  -30.6450   21.5510 C   0  0  0  0  0  2  0  0  0  0  0  0
  -26.3930  -29.2850   20.9080 C   0  0  0  0  0  0  0  0  0  0  0  0
  -27.6230  -28.6000   20.9500 C   0  0  0  0  0  3  0  0  0  0  0  0
  -26.6380  -26.7550   19.7120 C   0  0  0  0  0  3  0  0  0  0  0  0
  -25.4100  -27.4420   19.6670 C   0  0  0  0  0  3  0  0  0  0  0  0
  -24.0070  -29.5100   20.2700 C   0  0  0  0  0  2  0  0  0  0  0  0
  -24.9210  -30.8220   22.2400 N   0  0  0  0  0  0  0  0  0  0  0  0
  -23.6720  -31.8320   23.8390 O   0  0  0  0  0  0  0  0  0  0  0  0
  -23.0730  -29.1090   22.5710 C   0  0  0  0  0  0  0  0  0  0  0  0
  -21.7960  -28.7890   22.3140 N   0  0  0  0  0  0  0  0  0  0  0  0
  -23.7210  -28.5780   23.4770 O   0  0  0  0  0  0  0  0  0  0  0  0
  -21.3250  -29.2880   21.5750 H   0  0  0  0  0  0  0  0  0  0  0  0
  -18.5530  -27.2070   22.4280 C   0  0  0  0  0  0  0  0  0  0  0  0
  -21.0000  -27.7860   23.0190 C   0  0  0  0  0  3  0  0  0  0  0  0
  -21.3470  -26.3590   22.5370 C   0  0  0  0  0  2  0  0  0  0  0  0
  -20.4400  -25.8610   21.4090 C   0  0  0  0  0  2  0  0  0  0  0  0
  -18.9770  -25.8630   21.8620 C   0  0  0  0  0  2  0  0  0  0  0  0
  -19.5060  -28.1180   22.9560 C   0  0  0  0  0  0  0  0  0  0  0  0
  -19.0670  -29.3690   23.4380 C   0  0  0  0  0  3  0  0  0  0  0  0
  -17.7020  -29.7200   23.3960 C   0  0  0  0  0  3  0  0  0  0  0  0
  -16.7610  -28.8030   22.8930 C   0  0  0  0  0  3  0  0  0  0  0  0
  -17.1840  -27.5500   22.4180 C   0  0  0  0  0  3  0  0  0  0  0  0
  -26.0130  -32.2950   24.0180 C   0  0  0  0  0  3  0  0  0  0  0  0
  -25.6540  -33.6960   24.2800 N   0  0  0  0  0  0  0  0  0  0  0  0
  -26.0320  -34.7330   23.5200 C   0  0  0  0  0  0  0  0  0  0  0  0
  -26.7880  -34.6150   22.5540 O   0  0  0  0  0  0  0  0  0  0  0  0
  -24.9870  -33.8580   25.0210 H   0  0  0  0  0  0  0  0  0  0  0  0
  -24.3170  -36.4840   22.9520 C   0  0  0  0  0  1  0  0  0  0  0  0
  -25.4800  -36.1260   23.8930 C   0  0  0  0  0  3  0  0  0  0  0  0
  -27.5100  -37.0650   24.9050 C   0  0  0  0  0  1  0  0  0  0  0  0
  -26.5030  -37.1920   23.8520 N   0  0  0  0  0  0  0  0  0  0  0  0
  -26.0730  -38.1090   23.9360 H   0  0  0  0  0  0  0  0  0  0  0  0
  -26.4690  -31.5790   25.3470 C   0  0  1  0  0  0  0  0  0  0  0  0
  -25.3090  -31.2980   26.3300 C   0  0  0  0  0  1  0  0  0  0  0  0
  -27.1550  -30.2300   25.0290 C   0  0  0  0  0  1  0  0  0  0  0  0
  -27.5170  -32.4480   26.0790 C   0  0  0  0  0  1  0  0  0  0  0  0
  2  1  2  0
  3  5  1  0
  3  4  1  0
  4  1  1  0
  4 51  1  0
  5  2  1  0
  6  5  1  0
  9  7  1  6
  9  3  1  0
  9  8  1  0
 10  9  1  0
 10 19  1  0
 11 19  1  0
 11 17  1  0
 12 17  1  0
 13 14  1  0
 13 12  1  0
 15 14  1  0
 15 24  1  0
 15 16  1  0
 17 16  1  0
 18 11  2  0
 19 20  1  0
 21 22  2  0
 22 23  1  0
 22 41  1  0
 23 26  1  0
 24 21  1  0
 24 25  1  0
 25 23  2  0
 26 27  1  0
 27 28  2  0
 29 32  1  0
 29 28  1  0
 30 29  2  0
 31 30  1  0
 31 26  2  0
 32 33  1  0
 33 38  2  0
 33 34  1  0
 34 35  2  0
 35 36  1  0
 36 40  1  0
 37 36  2  0
 38 37  1  0
 39 38  1  0
 41 42  1  0
 42 45  1  0
 42 44  1  0
 43 41  2  0
 46 21  1  0
 46 50  1  0
 47 46  1  0
 48 46  1  0
 50 51  1  0
 51 49  1  0
 53 52  1  0
 53  2  1  0
 53 54  1  0
 55 54  1  0
 56 57  1  0
 56 55  1  0
 58 69  2  0
 59 57  1  0
 59 64  1  0
 60 68  1  0
 60 70  1  0
 61 67  1  0
 61 63  1  0
 62 68  1  0
 63 64  2  0
 63 62  1  0
 65 59  2  0
 66 65  1  0
 66 61  2  0
 67 60  1  0
 68 58  1  0
 70 72  2  0
 71 70  1  0
 73 71  1  0
 74 79  1  0
 75 71  1  0
 76 75  1  0
 77 78  1  0
 77 76  1  0
 78 74  1  0
 79 75  1  0
 79 80  2  0
 81 80  1  0
 82 81  2  0
 83 74  2  0
 83 82  1  0
 84 58  1  0
 84 85  1  0
 84 94  1  0
 85 88  1  0
 86 90  1  0
 86 85  1  0
 87 86  2  0
 90 89  1  0
 92 90  1  0
 92 93  1  0
 92 91  1  0
 94 97  1  1
 94 95  1  0
 96 94  1  0
M  ISO  4  11 100  19 100  56 101  57 101
M  END
>  <TORSDO>  (22) 
F 23

>  <SCORE>  (22) 
-8.637

>  <name>  (22) 
21

>  <ligand_id>  (22) 
21

>  <original_smiles>  (22) 
[H]c1c([H])c([H])c2c(c1[H])C([H])([H])C([H])([H])C([H])([H])C2([H])N([H])C(=O)C1([H])N(C(=O)C([H])(N([H])C(=O)C([H])(N([H])C([H])([H])[H])C([H])([H])[H])C(C([H])([H])[H])(C([H])([H])[H])C([H])([H])[H])C([H])([H])c2c([H])c(OC([H])([H])C([H])([H])C([H])([H])C([H])(c3c([H])n(C([H])(C([H])([H])[H])C([H])([H])[H])c(C(C([H])([H])[H])(C([H])([H])[H])C([H])([H])N([H])C(=O)N4C([H])([H])C([H])([H])C([H])([H])C([H])(n5nc(-c6c([H])c([H])c(Oc7c([H])c([H])c(F)c([H])c7F)c([H])c6[H])c(C(=O)N([H])[H])c5N([H])[H])C4([H])[H])[n+]3[H])C([H])([H])[H])c([H])c([H])c2C1([H])[H]

>  <smiles>  (22) 
[H]c1c([H])c([H])c2c(c1[H])C([H])([H])C([H])([H])C([H])([H])C2([H])N([H])C(=O)C1([H])N(C(=O)C([H])(N([H])C(=O)C([H])(N([H])C([H])([H])[H])C([H])([H])[H])C(C([H])([H])[H])(C([H])([H])[H])C([H])([H])[H])C([H])([H])c2c([H])c(OC([H])([H])C([H])([H])C([H])([H])C([H])(c3c([H])n(C([H])(C([H])([H])[H])C([H])([H])[H])c(C(C([H])([H])[H])(C([H])([H])[H])C([H])([H])N([H])C(=O)N4C([H])([H])C([H])([H])C([H])([H])C([H])(n5nc(-c6c([H])c([H])c(Oc7c([H])c([H])c(F)c([H])c7F)c([H])c6[H])c(C(=O)N([H])[H])c5N([H])[H])C4([H])[H])[n+]3[H])C([H])([H])[H])c([H])c([H])c2C1([H])[H]

$$$$
22:0:0
     RDKit          3D

 93101  0  0  1  0  0  0  0  0999 V2000
  -27.2350  -24.9800   21.1140 C   0  0  0  0  0  3  0  0  0  0  0  0
  -28.6230  -24.9460   20.9470 C   0  0  0  0  0  3  0  0  0  0  0  0
  -26.5380  -23.7680   21.0430 C   0  0  0  0  0  0  0  0  0  0  0  0
  -28.4840  -22.6290   20.6300 C   0  0  0  0  0  0  0  0  0  0  0  0
  -29.2360  -23.7490   20.6690 N   0  0  0  0  0  0  0  0  0  0  0  0
  -27.1700  -22.6000   20.8110 N   0  0  0  0  0  0  0  0  0  0  0  0
  -24.7130  -22.7460   22.4540 C   0  0  0  0  0  1  0  0  0  0  0  0
  -24.2420  -23.4160   20.0290 C   0  0  0  0  0  1  0  0  0  0  0  0
  -25.0410  -23.7140   21.3060 C   0  0  0  0  0  3  0  0  0  0  0  0
  -29.4530  -26.2180   21.3060 C   0  0  0  0  0  2  0  0  0  0  0  0
  -29.2310  -27.4550   20.5770 O   0  0  0  0  0  0  0  0  0  0  0  0
  -24.8590  -32.2860   23.7080 C   0  0  0  0  0  0  0  0  0  0  0  0
  -28.0220  -28.1280   20.6670 C   0  0  0  0  0  0  0  0  0  0  0  0
  -23.8800  -30.8870   21.9190 C   0  0  0  0  0  3  0  0  0  0  0  0
  -25.5410  -29.5090   20.5540 C   0  0  0  0  0  0  0  0  0  0  0  0
  -26.3880  -31.4090   21.9350 C   0  0  0  0  0  2  0  0  0  0  0  0
  -26.6160  -30.0680   21.2570 C   0  0  0  0  0  0  0  0  0  0  0  0
  -27.8630  -29.3860   21.3110 C   0  0  0  0  0  3  0  0  0  0  0  0
  -26.9280  -27.5970   19.9590 C   0  0  0  0  0  3  0  0  0  0  0  0
  -25.6930  -28.2740   19.9030 C   0  0  0  0  0  3  0  0  0  0  0  0
  -24.2440  -30.2890   20.5350 C   0  0  0  0  0  2  0  0  0  0  0  0
  -25.0560  -31.5440   22.5810 N   0  0  0  0  0  0  0  0  0  0  0  0
  -23.7230  -32.4570   24.1730 O   0  0  0  0  0  0  0  0  0  0  0  0
  -23.2330  -29.7810   22.7840 C   0  0  0  0  0  0  0  0  0  0  0  0
  -21.9430  -29.4980   22.5320 N   0  0  0  0  0  0  0  0  0  0  0  0
  -23.8900  -29.1820   23.6390 O   0  0  0  0  0  0  0  0  0  0  0  0
  -21.4700  -30.0370   21.8210 H   0  0  0  0  0  0  0  0  0  0  0  0
  -18.6220  -28.0880   22.7720 C   0  0  0  0  0  0  0  0  0  0  0  0
  -21.1440  -28.4660   23.1940 C   0  0  0  0  0  3  0  0  0  0  0  0
  -21.3580  -27.0870   22.5290 C   0  0  0  0  0  2  0  0  0  0  0  0
  -20.3270  -26.7770   21.4390 C   0  0  0  0  0  2  0  0  0  0  0  0
  -18.9090  -26.8020   22.0160 C   0  0  0  0  0  2  0  0  0  0  0  0
  -19.6730  -28.8770   23.3100 C   0  0  0  0  0  0  0  0  0  0  0  0
  -19.3530  -30.0820   23.9740 C   0  0  0  0  0  3  0  0  0  0  0  0
  -18.0150  -30.4980   24.1050 C   0  0  0  0  0  3  0  0  0  0  0  0
  -16.9770  -29.7050   23.5830 C   0  0  0  0  0  3  0  0  0  0  0  0
  -17.2810  -28.5020   22.9230 C   0  0  0  0  0  3  0  0  0  0  0  0
  -26.0470  -32.9750   24.4490 C   0  0  0  0  0  3  0  0  0  0  0  0
  -25.7150  -34.4000   24.5910 N   0  0  0  0  0  0  0  0  0  0  0  0
  -26.1470  -35.3660   23.7710 C   0  0  0  0  0  0  0  0  0  0  0  0
  -26.9330  -35.1560   22.8440 O   0  0  0  0  0  0  0  0  0  0  0  0
  -25.0360  -34.6390   25.2990 H   0  0  0  0  0  0  0  0  0  0  0  0
  -24.4820  -37.1010   23.0360 C   0  0  0  0  0  1  0  0  0  0  0  0
  -25.6230  -36.7940   24.0190 C   0  0  0  0  0  3  0  0  0  0  0  0
  -27.6650  -37.7680   24.9760 C   0  0  0  0  0  1  0  0  0  0  0  0
  -26.6700  -37.8330   23.9070 N   0  0  0  0  0  0  0  0  0  0  0  0
  -26.2580  -38.7620   23.9140 H   0  0  0  0  0  0  0  0  0  0  0  0
  -26.3560  -32.3320   25.8560 C   0  0  1  0  0  0  0  0  0  0  0  0
  -25.1030  -32.1560   26.7470 C   0  0  0  0  0  1  0  0  0  0  0  0
  -27.0170  -30.9450   25.6910 C   0  0  0  0  0  1  0  0  0  0  0  0
  -27.3690  -33.2140   26.6240 C   0  0  0  0  0  1  0  0  0  0  0  0
  -29.1140  -21.4440   20.3200 O   0  0  0  0  0  0  0  0  0  0  0  0
  -28.8390  -20.2130   21.0790 C   0  0  0  0  0  2  0  0  0  0  0  0
  -29.0710  -18.8150   20.3590 C   0  0  0  0  0  2  0  0  0  0  0  0
  -29.6670  -17.6500   21.2600 C   0  0  0  0  0  2  0  0  0  0  0  0
  -30.2820  -15.2630   20.4160 C   0  0  0  0  0  0  0  0  0  0  0  0
  -30.2400  -13.0340   19.3120 C   0  0  0  0  0  2  0  0  0  0  0  0
  -29.2640  -13.0780   18.1150 C   0  0  0  0  0  2  0  0  0  0  0  0
  -27.8160  -12.8010   18.5690 C   0  0  0  0  0  2  0  0  0  0  0  0
  -27.4100  -13.6360   19.8130 C   0  0  0  0  0  3  0  0  0  0  0  0
  -28.4940  -13.5520   20.9090 C   0  0  0  0  0  2  0  0  0  0  0  0
  -29.7580  -14.0040   20.3110 N   0  0  0  0  0  0  0  0  0  0  0  0
  -31.4180  -15.5350   20.0150 O   0  0  0  0  0  0  0  0  0  0  0  0
  -29.4210  -16.2280   20.8520 N   0  0  0  0  0  0  0  0  0  0  0  0
  -28.4990  -15.8770   21.0670 H   0  0  0  0  0  0  0  0  0  0  0  0
  -25.0240  -14.0600   20.6690 C   0  0  0  0  0  0  0  0  0  0  0  0
  -24.0090  -13.2070   21.0110 C   0  0  0  0  0  0  0  0  0  0  0  0
  -24.5300  -11.8880   20.8470 C   0  0  0  0  0  0  0  0  0  0  0  0
  -26.0960  -13.2520   20.3210 N   0  0  0  0  0  0  0  0  0  0  0  0
  -25.8070  -11.9370   20.4880 N   0  0  0  0  0  0  0  0  0  0  0  0
  -23.8730  -10.5790   20.9550 C   0  0  0  0  0  0  0  0  0  0  0  0
  -24.3600   -9.5760   21.8230 C   0  0  0  0  0  3  0  0  0  0  0  0
  -23.6990   -8.3340   21.9210 C   0  0  0  0  0  3  0  0  0  0  0  0
  -22.5390   -8.0840   21.1510 C   0  0  0  0  0  0  0  0  0  0  0  0
  -22.0720   -9.0760   20.2730 C   0  0  0  0  0  3  0  0  0  0  0  0
  -22.7330  -10.3110   20.1710 C   0  0  0  0  0  3  0  0  0  0  0  0
  -21.8470   -6.8960   21.1640 O   0  0  0  0  0  0  0  0  0  0  0  0
  -21.8040   -6.1000   22.2790 C   0  0  0  0  0  0  0  0  0  0  0  0
  -21.2920   -6.5650   23.5090 C   0  0  0  0  0  3  0  0  0  0  0  0
  -21.2030   -5.6910   24.6120 C   0  0  0  0  0  3  0  0  0  0  0  0
  -21.6160   -4.3510   24.4820 C   0  0  0  0  0  0  0  0  0  0  0  0
  -22.1200   -3.8830   23.2570 C   0  0  0  0  0  3  0  0  0  0  0  0
  -22.2110   -4.7550   22.1570 C   0  0  0  0  0  0  0  0  0  0  0  0
  -22.6780   -4.2950   20.9720 F   0  0  0  0  0  0  0  0  0  0  0  0
  -21.5230   -3.5090   25.5380 F   0  0  0  0  0  0  0  0  0  0  0  0
  -22.6040  -13.5900   21.3750 C   0  0  0  0  0  0  0  0  0  0  0  0
  -21.9470  -12.7920   22.2100 N   0  0  0  0  0  0  0  0  0  0  0  0
  -22.0950  -14.6300   20.9560 O   0  0  0  0  0  0  0  0  0  0  0  0
  -22.3730  -11.9500   22.5690 H   0  0  0  0  0  0  0  0  0  0  0  0
  -21.0080  -13.0260   22.4960 H   0  0  0  0  0  0  0  0  0  0  0  0
  -25.1180  -15.4460   20.6000 N   0  0  0  0  0  0  0  0  0  0  0  0
  -24.3230  -16.0480   20.7830 H   0  0  0  0  0  0  0  0  0  0  0  0
  -25.9250  -15.9510   20.2550 H   0  0  0  0  0  0  0  0  0  0  0  0
  2  1  1  0
  2 10  1  0
  3  1  2  0
  3  9  1  0
  4  5  2  0
  4  6  2  0
  5  2  1  0
  6  3  1  0
  8  9  1  0
  9  7  1  0
 11 13  1  0
 11 10  1  0
 12 23  2  0
 13 18  1  0
 14 22  1  0
 14 24  1  0
 15 17  1  0
 16 22  1  0
 17 18  2  0
 17 16  1  0
 19 13  2  0
 20 19  1  0
 20 15  2  0
 21 15  1  0
 21 14  1  0
 22 12  1  0
 24 26  2  0
 25 24  1  0
 27 25  1  0
 28 37  2  0
 28 33  1  0
 29 25  1  0
 29 33  1  0
 30 29  1  0
 31 32  1  0
 31 30  1  0
 32 28  1  0
 33 34  2  0
 34 35  1  0
 36 35  2  0
 37 36  1  0
 38 12  1  0
 38 39  1  0
 38 48  1  0
 39 42  1  0
 40 44  1  0
 40 39  1  0
 41 40  2  0
 44 43  1  0
 46 47  1  0
 46 44  1  0
 46 45  1  0
 48 51  1  1
 48 49  1  0
 50 48  1  0
 52  4  1  0
 52 53  1  0
 54 53  1  0
 54 55  1  0
 56 64  1  0
 57 62  1  0
 58 59  1  0
 58 57  1  0
 60 59  1  0
 60 69  1  0
 60 61  1  0
 62 56  1  0
 62 61  1  0
 63 56  2  0
 64 65  1  0
 64 55  1  0
 66 67  2  0
 67 86  1  0
 68 71  1  0
 68 67  1  0
 69 70  1  0
 69 66  1  0
 70 68  2  0
 71 72  1  0
 72 73  2  0
 74 77  1  0
 74 73  1  0
 75 74  2  0
 76 75  1  0
 76 71  2  0
 77 78  1  0
 78 79  1  0
 79 80  2  0
 81 80  1  0
 81 85  1  0
 82 81  2  0
 83 78  2  0
 83 82  1  0
 84 83  1  0
 86 87  1  0
 87 90  1  0
 87 89  1  0
 88 86  2  0
 91 66  1  0
 91 92  1  0
 93 91  1  0
M  ISO  4  10 101  11 101  56 100  64 100
M  END
>  <TORSDO>  (23) 
F 22

>  <SCORE>  (23) 
-10.120

>  <name>  (23) 
22

>  <ligand_id>  (23) 
22

>  <original_smiles>  (23) 
[H]c1c(C([H])([H])Oc2c([H])c([H])c3c(c2[H])C([H])([H])N(C(=O)C([H])(N([H])C(=O)C([H])(N([H])C([H])([H])[H])C([H])([H])[H])C(C([H])([H])[H])(C([H])([H])[H])C([H])([H])[H])C([H])(C(=O)N([H])C2([H])c4c([H])c([H])c([H])c([H])c4C([H])([H])C([H])([H])C2([H])[H])C3([H])[H])nc(OC([H])([H])C([H])([H])C([H])([H])N([H])C(=O)N2C([H])([H])C([H])([H])C([H])([H])C([H])(n3nc(-c4c([H])c([H])c(Oc5c([H])c([H])c(F)c([H])c5F)c([H])c4[H])c(C(=O)N([H])[H])c3N([H])[H])C2([H])[H])nc1C([H])(C([H])([H])[H])C([H])([H])[H]

>  <smiles>  (23) 
[H]c1c(C([H])([H])Oc2c([H])c([H])c3c(c2[H])C([H])([H])N(C(=O)C([H])(N([H])C(=O)C([H])(N([H])C([H])([H])[H])C([H])([H])[H])C(C([H])([H])[H])(C([H])([H])[H])C([H])([H])[H])C([H])(C(=O)N([H])C2([H])c4c([H])c([H])c([H])c([H])c4C([H])([H])C([H])([H])C2([H])[H])C3([H])[H])nc(OC([H])([H])C([H])([H])C([H])([H])N([H])C(=O)N2C([H])([H])C([H])([H])C([H])([H])C([H])(n3nc(-c4c([H])c([H])c(Oc5c([H])c([H])c(F)c([H])c5F)c([H])c4[H])c(C(=O)N([H])[H])c3N([H])[H])C2([H])[H])nc1C([H])(C([H])([H])[H])C([H])([H])[H]

$$$$
23:0:0
     RDKit          3D

 95103  0  0  1  0  0  0  0  0999 V2000
  -30.0720  -21.1320   21.6830 C   0  0  0  0  0  2  0  0  0  0  0  0
  -29.8290  -23.0800   23.2870 C   0  0  0  0  0  1  0  0  0  0  0  0
  -27.8120  -22.3040   21.9650 C   0  0  0  0  0  1  0  0  0  0  0  0
  -29.3460  -22.4830   21.9530 C   0  0  2  0  0  0  0  0  0  0  0  0
  -29.7250  -23.4290   20.7840 C   0  0  0  0  0  2  0  0  0  0  0  0
  -29.3620  -24.9270   20.9140 C   0  0  0  0  0  2  0  0  0  0  0  0
  -29.1150  -25.5600   19.5360 C   0  0  0  0  0  2  0  0  0  0  0  0
  -28.9200  -26.9680   19.6550 O   0  0  0  0  0  0  0  0  0  0  0  0
  -24.7890  -31.5260   23.1700 C   0  0  0  0  0  0  0  0  0  0  0  0
  -27.6570  -27.5140   19.7340 C   0  0  0  0  0  0  0  0  0  0  0  0
  -23.6590  -30.1880   21.4340 C   0  0  0  0  0  3  0  0  0  0  0  0
  -25.1660  -28.8440   19.8800 C   0  0  0  0  0  0  0  0  0  0  0  0
  -26.1370  -30.7130   21.2340 C   0  0  0  0  0  2  0  0  0  0  0  0
  -26.2910  -29.3990   20.4970 C   0  0  0  0  0  0  0  0  0  0  0  0
  -27.5340  -28.7410   20.4210 C   0  0  0  0  0  3  0  0  0  0  0  0
  -26.5080  -26.9620   19.1190 C   0  0  0  0  0  3  0  0  0  0  0  0
  -25.2670  -27.6220   19.1900 C   0  0  0  0  0  3  0  0  0  0  0  0
  -23.8720  -29.6130   20.0030 C   0  0  0  0  0  2  0  0  0  0  0  0
  -24.8800  -30.8210   22.0060 N   0  0  0  0  0  0  0  0  0  0  0  0
  -23.7000  -31.6920   23.7380 O   0  0  0  0  0  0  0  0  0  0  0  0
  -23.0780  -29.0740   22.3270 C   0  0  0  0  0  0  0  0  0  0  0  0
  -21.7650  -28.9440   22.1930 N   0  0  0  0  0  0  0  0  0  0  0  0
  -23.7800  -28.3640   23.0480 O   0  0  0  0  0  0  0  0  0  0  0  0
  -21.3240  -29.6640   21.6390 H   0  0  0  0  0  0  0  0  0  0  0  0
  -18.4300  -27.2880   22.4970 C   0  0  0  0  0  0  0  0  0  0  0  0
  -20.8740  -27.8580   22.5060 C   0  0  0  0  0  3  0  0  0  0  0  0
  -21.2340  -26.3990   22.2080 C   0  0  0  0  0  2  0  0  0  0  0  0
  -20.1800  -25.8330   21.2380 C   0  0  0  0  0  2  0  0  0  0  0  0
  -18.7420  -25.9650   21.7910 C   0  0  0  0  0  2  0  0  0  0  0  0
  -19.4630  -28.1500   22.9450 C   0  0  0  0  0  0  0  0  0  0  0  0
  -19.1520  -29.3480   23.6150 C   0  0  0  0  0  3  0  0  0  0  0  0
  -17.8060  -29.7210   23.7930 C   0  0  0  0  0  3  0  0  0  0  0  0
  -16.7760  -28.8900   23.3140 C   0  0  0  0  0  3  0  0  0  0  0  0
  -17.0870  -27.6700   22.6840 C   0  0  0  0  0  3  0  0  0  0  0  0
  -26.0430  -32.1720   23.8250 C   0  0  0  0  0  3  0  0  0  0  0  0
  -26.6040  -31.3390   25.0390 C   0  0  1  0  0  0  0  0  0  0  0  0
  -25.5300  -30.9570   26.0840 C   0  0  0  0  0  1  0  0  0  0  0  0
  -27.2700  -30.0340   24.5410 C   0  0  0  0  0  1  0  0  0  0  0  0
  -27.7020  -32.1500   25.7670 C   0  0  0  0  0  1  0  0  0  0  0  0
  -25.6660  -33.5260   24.2490 N   0  0  0  0  0  0  0  0  0  0  0  0
  -25.9390  -34.6400   23.5580 C   0  0  0  0  0  0  0  0  0  0  0  0
  -26.6090  -34.6370   22.5210 O   0  0  0  0  0  0  0  0  0  0  0  0
  -25.0580  -33.5950   25.0510 H   0  0  0  0  0  0  0  0  0  0  0  0
  -24.1190  -36.3620   23.3220 C   0  0  0  0  0  1  0  0  0  0  0  0
  -25.3800  -35.9660   24.1060 C   0  0  0  0  0  3  0  0  0  0  0  0
  -27.4670  -36.9030   24.9950 C   0  0  0  0  0  1  0  0  0  0  0  0
  -26.3560  -37.0740   24.0640 N   0  0  0  0  0  0  0  0  0  0  0  0
  -25.9030  -37.9610   24.2690 H   0  0  0  0  0  0  0  0  0  0  0  0
  -29.7960  -19.9300   22.6340 C   0  0  0  0  0  2  0  0  0  0  0  0
  -30.8630  -18.3360   20.9280 C   0  0  0  0  0  3  0  0  0  0  0  0
  -30.6100  -17.5610   22.9260 C   0  0  0  0  0  3  0  0  0  0  0  0
  -31.3360  -17.0410   20.9560 C   0  0  0  0  0  0  0  0  0  0  0  0
  -31.1650  -16.5470   22.2540 N   0  0  0  0  0  0  0  0  0  0  0  0
  -30.4110  -18.6740   22.1990 N   0  0  0  0  0  0  0  0  0  0  0  0
  -33.3450  -17.0820   19.5500 C   0  0  0  0  0  1  0  0  0  0  0  0
  -31.9840  -16.3330   19.7690 C   0  0  1  0  0  0  0  0  0  0  0  0
  -32.3260  -14.7920   20.0060 C   0  0  0  0  0  0  0  0  0  0  0  0
  -31.7220  -12.6490   19.0060 C   0  0  0  0  0  2  0  0  0  0  0  0
  -30.7710  -12.8330   17.8110 C   0  0  0  0  0  2  0  0  0  0  0  0
  -29.3020  -12.8380   18.2750 C   0  0  0  0  0  2  0  0  0  0  0  0
  -29.0440  -13.7360   19.5110 C   0  0  0  0  0  3  0  0  0  0  0  0
  -30.1330  -13.5820   20.5930 C   0  0  0  0  0  2  0  0  0  0  0  0
  -31.4490  -13.7440   19.9560 N   0  0  0  0  0  0  0  0  0  0  0  0
  -33.5250  -14.5340   19.9260 O   0  0  0  0  0  0  0  0  0  0  0  0
  -26.7380  -14.5550   20.2790 C   0  0  0  0  0  0  0  0  0  0  0  0
  -25.6060  -13.8730   20.6360 C   0  0  0  0  0  0  0  0  0  0  0  0
  -25.9530  -12.4900   20.5950 C   0  0  0  0  0  0  0  0  0  0  0  0
  -27.6960  -13.5820   20.0340 N   0  0  0  0  0  0  0  0  0  0  0  0
  -27.2320  -12.3370   20.2930 N   0  0  0  0  0  0  0  0  0  0  0  0
  -25.1260  -11.2940   20.7790 C   0  0  0  0  0  0  0  0  0  0  0  0
  -25.4360  -10.3370   21.7690 C   0  0  0  0  0  3  0  0  0  0  0  0
  -24.6140   -9.2030   21.9420 C   0  0  0  0  0  3  0  0  0  0  0  0
  -23.4750   -9.0200   21.1240 C   0  0  0  0  0  0  0  0  0  0  0  0
  -23.1880   -9.9660   20.1260 C   0  0  0  0  0  3  0  0  0  0  0  0
  -24.0080  -11.0930   19.9500 C   0  0  0  0  0  3  0  0  0  0  0  0
  -22.6380   -7.9320   21.2010 O   0  0  0  0  0  0  0  0  0  0  0  0
  -22.2990   -7.3660   22.4030 C   0  0  0  0  0  0  0  0  0  0  0  0
  -21.7240   -8.1230   23.4470 C   0  0  0  0  0  3  0  0  0  0  0  0
  -21.3230   -7.4880   24.6380 C   0  0  0  0  0  3  0  0  0  0  0  0
  -21.4950   -6.0980   24.7870 C   0  0  0  0  0  0  0  0  0  0  0  0
  -22.0700   -5.3430   23.7500 C   0  0  0  0  0  3  0  0  0  0  0  0
  -22.4670   -5.9750   22.5590 C   0  0  0  0  0  0  0  0  0  0  0  0
  -22.9940   -5.2390   21.5520 F   0  0  0  0  0  0  0  0  0  0  0  0
  -21.1090   -5.4860   25.9320 F   0  0  0  0  0  0  0  0  0  0  0  0
  -24.2560  -14.4660   20.9110 C   0  0  0  0  0  0  0  0  0  0  0  0
  -23.4960  -13.8590   21.8190 N   0  0  0  0  0  0  0  0  0  0  0  0
  -23.8850  -15.5000   20.3610 O   0  0  0  0  0  0  0  0  0  0  0  0
  -23.8150  -13.0250   22.2890 H   0  0  0  0  0  0  0  0  0  0  0  0
  -22.5870  -14.2380   22.0460 H   0  0  0  0  0  0  0  0  0  0  0  0
  -27.0270  -15.9100   20.1300 N   0  0  0  0  0  0  0  0  0  0  0  0
  -26.3510  -16.6400   20.3230 H   0  0  0  0  0  0  0  0  0  0  0  0
  -27.9580  -16.2730   19.9660 H   0  0  0  0  0  0  0  0  0  0  0  0
  -31.1880  -16.6550   18.4610 C   0  0  0  0  0  2  0  0  0  0  0  0
  -31.8490  -16.3150   17.2430 O   0  0  0  0  0  0  0  0  0  0  0  0
  -32.7340  -16.6580   17.2860 H   0  0  0  0  0  0  0  0  0  0  0  0
  1  4  1  0
  1 49  1  0
  4  3  1  1
  4  2  1  0
  5  6  1  0
  5  4  1  0
  7  8  1  0
  7  6  1  0
  8 10  1  0
  9 20  2  0
 10 15  1  0
 11 19  1  0
 11 21  1  0
 12 18  1  0
 12 14  1  0
 13 19  1  0
 14 13  1  0
 15 14  2  0
 16 17  1  0
 16 10  2  0
 17 12  2  0
 18 11  1  0
 19  9  1  0
 21 23  2  0
 22 21  1  0
 24 22  1  0
 25 34  2  0
 25 30  1  0
 26 22  1  0
 26 30  1  0
 27 26  1  0
 28 29  1  0
 28 27  1  0
 29 25  1  0
 30 31  2  0
 31 32  1  0
 33 32  2  0
 34 33  1  0
 35  9  1  0
 35 40  1  0
 35 36  1  0
 36 39  1  1
 36 37  1  0
 38 36  1  0
 40 43  1  0
 41 45  1  0
 41 40  1  0
 42 41  2  0
 45 44  1  0
 47 45  1  0
 47 48  1  0
 47 46  1  0
 50 52  2  0
 50 54  1  0
 52 53  1  0
 53 51  2  0
 54 49  1  0
 54 51  1  0
 56 55  1  6
 56 57  1  0
 56 52  1  0
 58 63  1  0
 59 60  1  0
 59 58  1  0
 61 60  1  0
 61 68  1  0
 61 62  1  0
 63 57  1  0
 63 62  1  0
 64 57  2  0
 65 66  2  0
 66 85  1  0
 67 66  1  0
 67 70  1  0
 68 65  1  0
 68 69  1  0
 69 67  2  0
 70 71  1  0
 71 72  2  0
 73 76  1  0
 73 72  1  0
 74 73  2  0
 75 74  1  0
 75 70  2  0
 76 77  1  0
 77 82  2  0
 77 78  1  0
 78 79  2  0
 79 80  1  0
 80 84  1  0
 81 80  2  0
 82 81  1  0
 83 82  1  0
 85 86  1  0
 86 89  1  0
 86 88  1  0
 87 85  2  0
 90 65  1  0
 90 91  1  0
 92 90  1  0
 93 56  1  0
 94 95  1  0
 94 93  1  0
M  ISO  4   7 101   8 101  56 100  57 100
M  END
>  <TORSDO>  (24) 
F 25

>  <SCORE>  (24) 
-8.645

>  <name>  (24) 
23

>  <ligand_id>  (24) 
23

>  <original_smiles>  (24) 
[H]OC([H])([H])C(C(=O)N1C([H])([H])C([H])([H])C([H])([H])C([H])(n2nc(-c3c([H])c([H])c(Oc4c([H])c([H])c(F)c([H])c4F)c([H])c3[H])c(C(=O)N([H])[H])c2N([H])[H])C1([H])[H])(c1nc([H])n(C([H])([H])C([H])([H])C(C([H])([H])[H])(C([H])([H])[H])C([H])([H])C([H])([H])C([H])([H])Oc2c([H])c([H])c3c(c2[H])C([H])([H])N(C(=O)C([H])(N([H])C(=O)C([H])(N([H])C([H])([H])[H])C([H])([H])[H])C(C([H])([H])[H])(C([H])([H])[H])C([H])([H])[H])C([H])(C(=O)N([H])C2([H])c4c([H])c([H])c([H])c([H])c4C([H])([H])C([H])([H])C2([H])[H])C3([H])[H])c1[H])C([H])([H])[H]

>  <smiles>  (24) 
[H]OC([H])([H])C(C(=O)N1C([H])([H])C([H])([H])C([H])([H])C([H])(n2nc(-c3c([H])c([H])c(Oc4c([H])c([H])c(F)c([H])c4F)c([H])c3[H])c(C(=O)N([H])[H])c2N([H])[H])C1([H])[H])(c1nc([H])n(C([H])([H])C([H])([H])C(C([H])([H])[H])(C([H])([H])[H])C([H])([H])C([H])([H])C([H])([H])Oc2c([H])c([H])c3c(c2[H])C([H])([H])N(C(=O)C([H])(N([H])C(=O)C([H])(N([H])C([H])([H])[H])C([H])([H])[H])C(C([H])([H])[H])(C([H])([H])[H])C([H])([H])[H])C([H])(C(=O)N([H])C2([H])c4c([H])c([H])c([H])c([H])c4C([H])([H])C([H])([H])C2([H])[H])C3([H])[H])c1[H])C([H])([H])[H]

$$$$
24:0:0
     RDKit          3D

 94102  0  0  1  0  0  0  0  0999 V2000
  -30.3010  -20.7350   21.2060 C   0  0  0  0  0  3  0  0  0  0  0  0
  -29.1400  -21.4010   20.7620 C   0  0  0  0  0  0  0  0  0  0  0  0
  -28.3040  -20.5990   19.9560 C   0  0  0  0  0  0  0  0  0  0  0  0
  -29.7490  -18.7670   20.1070 C   0  0  0  0  0  0  0  0  0  0  0  0
  -30.5940  -19.4520   20.8830 N   0  0  0  0  0  0  0  0  0  0  0  0
  -28.6200  -19.3160   19.6430 N   0  0  0  0  0  0  0  0  0  0  0  0
  -31.5270  -17.5630   18.8370 C   0  0  0  0  0  1  0  0  0  0  0  0
  -29.2140  -16.8960   18.4540 C   0  0  0  0  0  1  0  0  0  0  0  0
  -30.1860  -17.3300   19.5890 C   0  0  2  0  0  0  0  0  0  0  0  0
  -28.9290  -16.0830   21.4790 C   0  0  0  0  0  1  0  0  0  0  0  0
  -31.3110  -16.4700   21.7820 C   0  0  0  0  0  1  0  0  0  0  0  0
  -30.2600  -16.1210   20.6890 C   0  0  2  0  0  0  0  0  0  0  0  0
  -30.7420  -14.6990   20.0970 C   0  0  0  0  0  0  0  0  0  0  0  0
  -30.3840  -12.5060   18.9700 C   0  0  0  0  0  2  0  0  0  0  0  0
  -29.3900  -12.6660   17.7970 C   0  0  0  0  0  2  0  0  0  0  0  0
  -27.9370  -12.5100   18.2850 C   0  0  0  0  0  2  0  0  0  0  0  0
  -27.6490  -13.3360   19.5660 C   0  0  0  0  0  3  0  0  0  0  0  0
  -28.7600  -13.1160   20.6140 C   0  0  0  0  0  2  0  0  0  0  0  0
  -30.0380  -13.5140   20.0030 N   0  0  0  0  0  0  0  0  0  0  0  0
  -31.8740  -14.7120   19.6070 O   0  0  0  0  0  0  0  0  0  0  0  0
  -25.2950  -13.9380   20.4020 C   0  0  0  0  0  0  0  0  0  0  0  0
  -24.2450  -13.1630   20.8140 C   0  0  0  0  0  0  0  0  0  0  0  0
  -24.6990  -11.8120   20.7400 C   0  0  0  0  0  0  0  0  0  0  0  0
  -26.3250  -13.0550   20.1090 N   0  0  0  0  0  0  0  0  0  0  0  0
  -25.9730  -11.7710   20.3720 N   0  0  0  0  0  0  0  0  0  0  0  0
  -23.9740  -10.5500   20.9410 C   0  0  0  0  0  0  0  0  0  0  0  0
  -24.4310   -9.5760   21.8560 C   0  0  0  0  0  3  0  0  0  0  0  0
  -23.7080   -8.3790   22.0480 C   0  0  0  0  0  3  0  0  0  0  0  0
  -22.5130   -8.1500   21.3240 C   0  0  0  0  0  0  0  0  0  0  0  0
  -22.0770   -9.1120   20.3970 C   0  0  0  0  0  3  0  0  0  0  0  0
  -22.8000  -10.3000   20.2040 C   0  0  0  0  0  3  0  0  0  0  0  0
  -21.7580   -7.0070   21.4270 O   0  0  0  0  0  0  0  0  0  0  0  0
  -21.7220   -6.2690   22.5830 C   0  0  0  0  0  0  0  0  0  0  0  0
  -21.3160   -6.8300   23.8140 C   0  0  0  0  0  3  0  0  0  0  0  0
  -21.2280   -6.0180   24.9630 C   0  0  0  0  0  3  0  0  0  0  0  0
  -21.5350   -4.6470   24.8810 C   0  0  0  0  0  0  0  0  0  0  0  0
  -21.9340   -4.0850   23.6550 C   0  0  0  0  0  3  0  0  0  0  0  0
  -22.0240   -4.8940   22.5090 C   0  0  0  0  0  0  0  0  0  0  0  0
  -22.3890   -4.3440   21.3260 F   0  0  0  0  0  0  0  0  0  0  0  0
  -21.4430   -3.8640   25.9820 F   0  0  0  0  0  0  0  0  0  0  0  0
  -22.8640  -13.6440   21.1550 C   0  0  0  0  0  0  0  0  0  0  0  0
  -22.1730  -12.9400   22.0450 N   0  0  0  0  0  0  0  0  0  0  0  0
  -22.4100  -14.6790   20.6700 O   0  0  0  0  0  0  0  0  0  0  0  0
  -22.5560  -12.1070   22.4640 H   0  0  0  0  0  0  0  0  0  0  0  0
  -21.2470  -13.2430   22.3120 H   0  0  0  0  0  0  0  0  0  0  0  0
  -25.4480  -15.3090   20.2340 N   0  0  0  0  0  0  0  0  0  0  0  0
  -24.6800  -15.9530   20.3920 H   0  0  0  0  0  0  0  0  0  0  0  0
  -26.2700  -15.7630   19.8570 H   0  0  0  0  0  0  0  0  0  0  0  0
  -27.2060  -21.5940   17.9070 C   0  0  0  0  0  1  0  0  0  0  0  0
  -27.0100  -21.1220   19.3550 C   0  0  0  0  0  2  0  0  0  0  0  0
  -28.7830  -22.8320   21.2840 C   0  0  0  0  0  2  0  0  0  0  0  0
  -28.7190  -24.0720   20.3080 C   0  0  0  0  0  2  0  0  0  0  0  0
  -28.4510  -25.4470   21.0330 C   0  0  0  0  0  2  0  0  0  0  0  0
  -28.4980  -26.6740   20.2460 O   0  0  0  0  0  0  0  0  0  0  0  0
  -24.6370  -31.9350   23.2460 C   0  0  0  0  0  0  0  0  0  0  0  0
  -27.3490  -27.4530   20.2400 C   0  0  0  0  0  0  0  0  0  0  0  0
  -23.4650  -30.5110   21.6000 C   0  0  0  0  0  3  0  0  0  0  0  0
  -24.9500  -28.9720   20.2020 C   0  0  0  0  0  0  0  0  0  0  0  0
  -25.9910  -30.8880   21.4210 C   0  0  0  0  0  2  0  0  0  0  0  0
  -26.1010  -29.5060   20.7960 C   0  0  0  0  0  0  0  0  0  0  0  0
  -27.3080  -28.7580   20.8010 C   0  0  0  0  0  3  0  0  0  0  0  0
  -26.1820  -26.9460   19.6350 C   0  0  0  0  0  3  0  0  0  0  0  0
  -24.9890  -27.6960   19.6120 C   0  0  0  0  0  3  0  0  0  0  0  0
  -23.7000  -29.8250   20.2280 C   0  0  0  0  0  2  0  0  0  0  0  0
  -24.7170  -31.1260   22.1490 N   0  0  0  0  0  0  0  0  0  0  0  0
  -23.5470  -32.1970   23.7710 O   0  0  0  0  0  0  0  0  0  0  0  0
  -22.8090  -29.4920   22.5610 C   0  0  0  0  0  0  0  0  0  0  0  0
  -21.4850  -29.3070   22.4300 N   0  0  0  0  0  0  0  0  0  0  0  0
  -23.4900  -28.8700   23.3790 O   0  0  0  0  0  0  0  0  0  0  0  0
  -20.9950  -29.8650   21.7430 H   0  0  0  0  0  0  0  0  0  0  0  0
  -18.1090  -28.1080   22.9250 C   0  0  0  0  0  0  0  0  0  0  0  0
  -20.6670  -28.3670   23.1980 C   0  0  0  0  0  3  0  0  0  0  0  0
  -20.7700  -26.9370   22.6180 C   0  0  0  0  0  2  0  0  0  0  0  0
  -19.6690  -26.6170   21.6030 C   0  0  0  0  0  2  0  0  0  0  0  0
  -18.2870  -26.7590   22.2480 C   0  0  0  0  0  2  0  0  0  0  0  0
  -19.2270  -28.8690   23.3580 C   0  0  0  0  0  0  0  0  0  0  0  0
  -19.0070  -30.1310   23.9520 C   0  0  0  0  0  3  0  0  0  0  0  0
  -17.7010  -30.6300   24.1180 C   0  0  0  0  0  3  0  0  0  0  0  0
  -16.5990  -29.8660   23.7010 C   0  0  0  0  0  3  0  0  0  0  0  0
  -16.8030  -28.6070   23.1090 C   0  0  0  0  0  3  0  0  0  0  0  0
  -25.9080  -32.5840   23.8790 C   0  0  0  0  0  3  0  0  0  0  0  0
  -25.5830  -33.9820   24.1940 N   0  0  0  0  0  0  0  0  0  0  0  0
  -25.9120  -35.0300   23.4270 C   0  0  0  0  0  0  0  0  0  0  0  0
  -26.5910  -34.9230   22.4020 O   0  0  0  0  0  0  0  0  0  0  0  0
  -24.9810  -34.1410   24.9890 H   0  0  0  0  0  0  0  0  0  0  0  0
  -24.1670  -36.8010   23.0460 C   0  0  0  0  0  1  0  0  0  0  0  0
  -25.4090  -36.4190   23.8660 C   0  0  0  0  0  3  0  0  0  0  0  0
  -27.5290  -37.3350   24.6970 C   0  0  0  0  0  1  0  0  0  0  0  0
  -26.4310  -37.4800   23.7460 N   0  0  0  0  0  0  0  0  0  0  0  0
  -26.0150  -38.3980   23.8790 H   0  0  0  0  0  0  0  0  0  0  0  0
  -26.4180  -31.8260   25.1640 C   0  0  1  0  0  0  0  0  0  0  0  0
  -25.3170  -31.5800   26.2230 C   0  0  0  0  0  1  0  0  0  0  0  0
  -27.0160  -30.4530   24.7810 C   0  0  0  0  0  1  0  0  0  0  0  0
  -27.5550  -32.6340   25.8350 C   0  0  0  0  0  1  0  0  0  0  0  0
  2  1  2  0
  2 51  1  0
  3  2  1  0
  4  5  2  0
  5  1  1  0
  6  3  2  0
  6  4  1  0
  9  7  1  6
  8  9  1  0
  9  4  1  0
  9 12  1  0
 12 10  1  1
 12 11  1  0
 13 12  1  0
 14 19  1  0
 15 16  1  0
 15 14  1  0
 17 16  1  0
 17 24  1  0
 17 18  1  0
 19 13  1  0
 19 18  1  0
 20 13  2  0
 21 22  2  0
 22 41  1  0
 23 22  1  0
 23 26  1  0
 24 25  1  0
 24 21  1  0
 25 23  2  0
 26 27  1  0
 27 28  2  0
 29 32  1  0
 29 28  1  0
 30 29  2  0
 31 30  1  0
 31 26  2  0
 32 33  1  0
 33 34  1  0
 34 35  2  0
 36 35  1  0
 36 40  1  0
 37 36  2  0
 38 33  2  0
 38 37  1  0
 39 38  1  0
 41 42  1  0
 42 45  1  0
 42 44  1  0
 43 41  2  0
 46 47  1  0
 46 21  1  0
 48 46  1  0
 49 50  1  0
 50  3  1  0
 52 53  1  0
 52 51  1  0
 54 53  1  0
 55 66  2  0
 56 54  1  0
 56 61  1  0
 57 65  1  0
 57 67  1  0
 58 64  1  0
 58 60  1  0
 59 65  1  0
 60 61  2  0
 60 59  1  0
 62 56  2  0
 63 62  1  0
 63 58  2  0
 64 57  1  0
 65 55  1  0
 67 69  2  0
 68 67  1  0
 70 68  1  0
 71 80  2  0
 71 76  1  0
 72 68  1  0
 72 76  1  0
 73 72  1  0
 74 75  1  0
 74 73  1  0
 75 71  1  0
 76 77  2  0
 77 78  1  0
 79 78  2  0
 80 79  1  0
 81 55  1  0
 81 82  1  0
 81 91  1  0
 82 85  1  0
 83 87  1  0
 83 82  1  0
 84 83  2  0
 87 86  1  0
 89 87  1  0
 89 90  1  0
 89 88  1  0
 91 94  1  1
 91 92  1  0
 93 91  1  0
M  ISO  4  12 100  13 100  53 101  54 101
M  END
>  <TORSDO>  (25) 
F 22

>  <SCORE>  (25) 
-12.662

>  <name>  (25) 
24

>  <ligand_id>  (25) 
24

>  <original_smiles>  (25) 
[H]c1nc(C(C([H])([H])[H])(C([H])([H])[H])C(C(=O)N2C([H])([H])C([H])([H])C([H])([H])C([H])(n3nc(-c4c([H])c([H])c(Oc5c([H])c([H])c(F)c([H])c5F)c([H])c4[H])c(C(=O)N([H])[H])c3N([H])[H])C2([H])[H])(C([H])([H])[H])C([H])([H])[H])nc(C([H])([H])C([H])([H])[H])c1C([H])([H])C([H])([H])C([H])([H])Oc1c([H])c([H])c2c(c1[H])C([H])([H])N(C(=O)C([H])(N([H])C(=O)C([H])(N([H])C([H])([H])[H])C([H])([H])[H])C(C([H])([H])[H])(C([H])([H])[H])C([H])([H])[H])C([H])(C(=O)N([H])C1([H])c3c([H])c([H])c([H])c([H])c3C([H])([H])C([H])([H])C1([H])[H])C2([H])[H]

>  <smiles>  (25) 
[H]c1nc(C(C([H])([H])[H])(C([H])([H])[H])C(C(=O)N2C([H])([H])C([H])([H])C([H])([H])C([H])(n3nc(-c4c([H])c([H])c(Oc5c([H])c([H])c(F)c([H])c5F)c([H])c4[H])c(C(=O)N([H])[H])c3N([H])[H])C2([H])[H])(C([H])([H])[H])C([H])([H])[H])nc(C([H])([H])C([H])([H])[H])c1C([H])([H])C([H])([H])C([H])([H])Oc1c([H])c([H])c2c(c1[H])C([H])([H])N(C(=O)C([H])(N([H])C(=O)C([H])(N([H])C([H])([H])[H])C([H])([H])[H])C(C([H])([H])[H])(C([H])([H])[H])C([H])([H])[H])C([H])(C(=O)N([H])C1([H])c3c([H])c([H])c([H])c([H])c3C([H])([H])C([H])([H])C1([H])[H])C2([H])[H]

$$$$
25:0:0
     RDKit          3D

 99107  0  0  1  0  0  0  0  0999 V2000
  -31.9640  -23.1170   21.0020 C   0  0  0  0  0  1  0  0  0  0  0  0
  -30.4610  -22.7130   20.9810 C   0  0  1  0  0  0  0  0  0  0  0  0
  -31.2460  -19.3360   19.5270 C   0  0  0  0  0  3  0  0  0  0  0  0
  -29.3070  -20.3410   21.0950 C   0  0  0  0  0  3  0  0  0  0  0  0
  -30.1860  -18.4960   19.9750 C   0  0  0  0  0  0  0  0  0  0  0  0
  -30.3640  -21.1830   20.6440 C   0  0  0  0  0  0  0  0  0  0  0  0
  -29.2240  -19.0220   20.7780 N   0  0  0  0  0  0  0  0  0  0  0  0
  -31.3200  -20.6580   19.8310 N   0  0  0  0  0  0  0  0  0  0  0  0
  -30.8650  -16.8020   18.2090 C   0  0  0  0  0  1  0  0  0  0  0  0
  -28.5330  -16.9960   18.8870 C   0  0  0  0  0  1  0  0  0  0  0  0
  -29.9710  -17.0320   19.4620 C   0  0  2  0  0  0  0  0  0  0  0  0
  -30.8860  -16.3230   21.8400 C   0  0  0  0  0  1  0  0  0  0  0  0
  -30.1270  -15.8680   20.5750 C   0  0  0  0  0  3  0  0  0  0  0  0
  -30.7480  -14.5000   20.1090 C   0  0  0  0  0  0  0  0  0  0  0  0
  -30.3770  -12.3010   19.0490 C   0  0  0  0  0  2  0  0  0  0  0  0
  -29.4120  -12.5100   17.8640 C   0  0  0  0  0  2  0  0  0  0  0  0
  -27.9460  -12.4080   18.3310 C   0  0  0  0  0  2  0  0  0  0  0  0
  -27.6550  -13.2380   19.6120 C   0  0  0  0  0  3  0  0  0  0  0  0
  -28.7510  -13.0380   20.6810 C   0  0  0  0  0  2  0  0  0  0  0  0
  -30.0480  -13.3280   20.0570 N   0  0  0  0  0  0  0  0  0  0  0  0
  -31.9060  -14.5490   19.6880 O   0  0  0  0  0  0  0  0  0  0  0  0
  -25.2900  -13.8870   20.3780 C   0  0  0  0  0  0  0  0  0  0  0  0
  -24.2200  -13.1330   20.7810 C   0  0  0  0  0  0  0  0  0  0  0  0
  -24.6610  -11.7760   20.7470 C   0  0  0  0  0  0  0  0  0  0  0  0
  -26.3150  -12.9870   20.1310 N   0  0  0  0  0  0  0  0  0  0  0  0
  -25.9430  -11.7130   20.4090 N   0  0  0  0  0  0  0  0  0  0  0  0
  -23.9240  -10.5270   20.9640 C   0  0  0  0  0  0  0  0  0  0  0  0
  -24.3740   -9.5540   21.8840 C   0  0  0  0  0  3  0  0  0  0  0  0
  -23.6350   -8.3690   22.0910 C   0  0  0  0  0  3  0  0  0  0  0  0
  -22.4310   -8.1520   21.3790 C   0  0  0  0  0  0  0  0  0  0  0  0
  -22.0020   -9.1110   20.4470 C   0  0  0  0  0  3  0  0  0  0  0  0
  -22.7400  -10.2870   20.2380 C   0  0  0  0  0  3  0  0  0  0  0  0
  -21.6580   -7.0220   21.5000 O   0  0  0  0  0  0  0  0  0  0  0  0
  -21.6490   -6.2760   22.6500 C   0  0  0  0  0  0  0  0  0  0  0  0
  -21.3030   -6.8340   23.9000 C   0  0  0  0  0  3  0  0  0  0  0  0
  -21.2360   -6.0150   25.0440 C   0  0  0  0  0  3  0  0  0  0  0  0
  -21.5040   -4.6360   24.9390 C   0  0  0  0  0  0  0  0  0  0  0  0
  -21.8450   -4.0780   23.6950 C   0  0  0  0  0  3  0  0  0  0  0  0
  -21.9140   -4.8940   22.5540 C   0  0  0  0  0  0  0  0  0  0  0  0
  -22.2200   -4.3470   21.3520 F   0  0  0  0  0  0  0  0  0  0  0  0
  -21.4370   -3.8460   26.0360 F   0  0  0  0  0  0  0  0  0  0  0  0
  -22.8380  -13.6340   21.0880 C   0  0  0  0  0  0  0  0  0  0  0  0
  -22.1250  -12.9540   21.9790 N   0  0  0  0  0  0  0  0  0  0  0  0
  -22.4020  -14.6610   20.5730 O   0  0  0  0  0  0  0  0  0  0  0  0
  -22.4940  -12.1200   22.4130 H   0  0  0  0  0  0  0  0  0  0  0  0
  -21.2000  -13.2720   22.2330 H   0  0  0  0  0  0  0  0  0  0  0  0
  -25.4670  -15.2520   20.1800 N   0  0  0  0  0  0  0  0  0  0  0  0
  -24.7030  -15.9140   20.2710 H   0  0  0  0  0  0  0  0  0  0  0  0
  -26.3020  -15.6710   19.7930 H   0  0  0  0  0  0  0  0  0  0  0  0
  -29.7090  -24.4920   22.7680 C   0  0  0  0  0  1  0  0  0  0  0  0
  -30.5550  -22.2430   23.5660 C   0  0  0  0  0  1  0  0  0  0  0  0
  -29.8570  -22.9990   22.4110 C   0  0  0  0  0  3  0  0  0  0  0  0
  -29.6560  -23.5410   19.9040 C   0  0  0  0  0  2  0  0  0  0  0  0
  -30.0870  -25.0090   19.5300 C   0  0  0  0  0  3  0  0  0  0  0  0
  -31.0640  -24.9110   18.6210 F   0  0  0  0  0  0  0  0  0  0  0  0
  -29.4240  -26.9640   17.9380 C   0  0  0  0  0  1  0  0  0  0  0  0
  -28.9410  -25.9490   18.9940 C   0  0  1  0  0  0  0  0  0  0  0  0
  -28.0380  -25.1260   18.4010 F   0  0  0  0  0  0  0  0  0  0  0  0
  -28.4100  -26.6370   20.0630 O   0  0  0  0  0  0  0  0  0  0  0  0
  -24.6460  -31.8490   23.1430 C   0  0  0  0  0  0  0  0  0  0  0  0
  -27.2600  -27.4120   19.9860 C   0  0  0  0  0  0  0  0  0  0  0  0
  -23.4240  -30.4600   21.5050 C   0  0  0  0  0  3  0  0  0  0  0  0
  -24.8590  -28.9320   20.0460 C   0  0  0  0  0  0  0  0  0  0  0  0
  -25.9490  -30.8090   21.2850 C   0  0  0  0  0  2  0  0  0  0  0  0
  -26.0260  -29.4440   20.6290 C   0  0  0  0  0  0  0  0  0  0  0  0
  -27.2250  -28.6880   20.6030 C   0  0  0  0  0  3  0  0  0  0  0  0
  -26.0650  -26.9180   19.4110 C   0  0  0  0  0  3  0  0  0  0  0  0
  -24.8760  -27.6690   19.4330 C   0  0  0  0  0  3  0  0  0  0  0  0
  -23.6150  -29.7900   20.1180 C   0  0  0  0  0  2  0  0  0  0  0  0
  -24.6930  -31.0540   22.0370 N   0  0  0  0  0  0  0  0  0  0  0  0
  -23.5700  -32.1160   23.6960 O   0  0  0  0  0  0  0  0  0  0  0  0
  -22.7780  -29.4350   22.4650 C   0  0  0  0  0  0  0  0  0  0  0  0
  -21.4500  -29.2650   22.3590 N   0  0  0  0  0  0  0  0  0  0  0  0
  -23.4690  -28.7940   23.2630 O   0  0  0  0  0  0  0  0  0  0  0  0
  -20.9510  -29.8320   21.6870 H   0  0  0  0  0  0  0  0  0  0  0  0
  -18.0750  -28.0930   22.9140 C   0  0  0  0  0  0  0  0  0  0  0  0
  -20.6400  -28.3280   23.1370 C   0  0  0  0  0  3  0  0  0  0  0  0
  -20.7200  -26.9020   22.5450 C   0  0  0  0  0  2  0  0  0  0  0  0
  -19.5950  -26.5980   21.5500 C   0  0  0  0  0  2  0  0  0  0  0  0
  -18.2260  -26.7480   22.2200 C   0  0  0  0  0  2  0  0  0  0  0  0
  -19.2080  -28.8400   23.3290 C   0  0  0  0  0  0  0  0  0  0  0  0
  -19.0120  -30.0990   23.9380 C   0  0  0  0  0  3  0  0  0  0  0  0
  -17.7170  -30.6120   24.1340 C   0  0  0  0  0  3  0  0  0  0  0  0
  -16.5980  -29.8630   23.7290 C   0  0  0  0  0  3  0  0  0  0  0  0
  -16.7790  -28.6050   23.1280 C   0  0  0  0  0  3  0  0  0  0  0  0
  -25.9380  -32.4790   23.7510 C   0  0  0  0  0  3  0  0  0  0  0  0
  -25.6260  -33.8690   24.1080 N   0  0  0  0  0  0  0  0  0  0  0  0
  -25.9420  -34.9360   23.3610 C   0  0  0  0  0  0  0  0  0  0  0  0
  -26.5950  -34.8530   22.3180 O   0  0  0  0  0  0  0  0  0  0  0  0
  -25.0480  -34.0060   24.9240 H   0  0  0  0  0  0  0  0  0  0  0  0
  -24.1940  -36.7190   23.0650 C   0  0  0  0  0  1  0  0  0  0  0  0
  -25.4540  -36.3130   23.8470 C   0  0  0  0  0  3  0  0  0  0  0  0
  -27.5980  -37.1970   24.6530 C   0  0  0  0  0  1  0  0  0  0  0  0
  -26.4780  -37.3760   23.7320 N   0  0  0  0  0  0  0  0  0  0  0  0
  -26.0680  -38.2900   23.9080 H   0  0  0  0  0  0  0  0  0  0  0  0
  -26.4790  -31.6910   25.0060 C   0  0  1  0  0  0  0  0  0  0  0  0
  -25.4050  -31.4260   26.0870 C   0  0  0  0  0  1  0  0  0  0  0  0
  -27.0650  -30.3270   24.5780 C   0  0  0  0  0  1  0  0  0  0  0  0
  -27.6330  -32.4830   25.6630 C   0  0  0  0  0  1  0  0  0  0  0  0
  2  1  1  1
  2 52  1  0
  3  8  2  0
  3  5  1  0
  5  7  2  0
  6  2  1  0
  6  4  2  0
  7  4  1  0
  8  6  1  0
 11  9  1  6
 10 11  1  0
 11  5  1  0
 11 13  1  0
 13 12  1  0
 14 13  1  0
 15 20  1  0
 16 17  1  0
 16 15  1  0
 18 17  1  0
 18 25  1  0
 18 19  1  0
 20 14  1  0
 20 19  1  0
 21 14  2  0
 22 23  2  0
 23 42  1  0
 24 23  1  0
 24 27  1  0
 25 22  1  0
 25 26  1  0
 26 24  2  0
 27 28  1  0
 28 29  2  0
 30 33  1  0
 30 29  1  0
 31 30  2  0
 32 31  1  0
 32 27  2  0
 33 34  1  0
 34 35  1  0
 35 36  2  0
 37 36  1  0
 37 41  1  0
 38 37  2  0
 39 34  2  0
 39 38  1  0
 40 39  1  0
 42 43  1  0
 43 46  1  0
 43 45  1  0
 44 42  2  0
 47 48  1  0
 47 22  1  0
 49 47  1  0
 52 50  1  0
 52 51  1  0
 53  2  1  0
 54 55  1  0
 54 53  1  0
 57 56  1  6
 57 54  1  0
 57 59  1  0
 58 57  1  0
 60 71  2  0
 61 59  1  0
 61 66  1  0
 62 70  1  0
 62 72  1  0
 63 69  1  0
 63 65  1  0
 64 70  1  0
 65 64  1  0
 66 65  2  0
 67 68  1  0
 67 61  2  0
 68 63  2  0
 69 62  1  0
 70 60  1  0
 72 74  2  0
 73 72  1  0
 75 73  1  0
 76 85  2  0
 76 81  1  0
 77 73  1  0
 77 81  1  0
 78 77  1  0
 79 80  1  0
 79 78  1  0
 80 76  1  0
 81 82  2  0
 82 83  1  0
 84 83  2  0
 85 84  1  0
 86 60  1  0
 86 87  1  0
 86 96  1  0
 87 90  1  0
 88 92  1  0
 88 87  1  0
 89 88  2  0
 92 91  1  0
 94 92  1  0
 94 95  1  0
 94 93  1  0
 96 99  1  1
 96 97  1  0
 98 96  1  0
M  ISO  4  13 100  14 100  57 101  59 101
M  END
>  <TORSDO>  (26) 
F 23

>  <SCORE>  (26) 
-13.004

>  <name>  (26) 
25

>  <ligand_id>  (26) 
25

>  <original_smiles>  (26) 
[H]c1nc(C(C([H])([H])[H])(C([H])([H])C([H])(F)C(F)(Oc2c([H])c([H])c3c(c2[H])C([H])([H])N(C(=O)C([H])(N([H])C(=O)C([H])(N([H])C([H])([H])[H])C([H])([H])[H])C(C([H])([H])[H])(C([H])([H])[H])C([H])([H])[H])C([H])(C(=O)N([H])C2([H])c4c([H])c([H])c([H])c([H])c4C([H])([H])C([H])([H])C2([H])[H])C3([H])[H])C([H])([H])[H])C([H])(C([H])([H])[H])C([H])([H])[H])c([H])nc1C(C([H])([H])[H])(C([H])([H])[H])C([H])(C(=O)N1C([H])([H])C([H])([H])C([H])([H])C([H])(n2nc(-c3c([H])c([H])c(Oc4c([H])c([H])c(F)c([H])c4F)c([H])c3[H])c(C(=O)N([H])[H])c2N([H])[H])C1([H])[H])C([H])([H])[H]

>  <smiles>  (26) 
[H]c1nc(C(C([H])([H])[H])(C([H])([H])C([H])(F)C(F)(Oc2c([H])c([H])c3c(c2[H])C([H])([H])N(C(=O)C([H])(N([H])C(=O)C([H])(N([H])C([H])([H])[H])C([H])([H])[H])C(C([H])([H])[H])(C([H])([H])[H])C([H])([H])[H])C([H])(C(=O)N([H])C2([H])c4c([H])c([H])c([H])c([H])c4C([H])([H])C([H])([H])C2([H])[H])C3([H])[H])C([H])([H])[H])C([H])(C([H])([H])[H])C([H])([H])[H])c([H])nc1C(C([H])([H])[H])(C([H])([H])[H])C([H])(C(=O)N1C([H])([H])C([H])([H])C([H])([H])C([H])(n2nc(-c3c([H])c([H])c(Oc4c([H])c([H])c(F)c([H])c4F)c([H])c3[H])c(C(=O)N([H])[H])c2N([H])[H])C1([H])[H])C([H])([H])[H]

$$$$
26:0:0
     RDKit          3D

 95103  0  0  1  0  0  0  0  0999 V2000
  -29.7960  -20.5560   20.3600 C   0  0  0  0  0  3  0  0  0  0  0  0
  -30.9920  -20.2880   21.0800 C   0  0  0  0  0  0  0  0  0  0  0  0
  -29.7420  -21.8210   20.0100 N   0  0  0  0  0  0  0  0  0  0  0  0
  -31.6450  -21.4230   21.2080 N   0  0  0  0  0  0  0  0  0  0  0  0
  -30.8850  -22.3290   20.5440 N   0  0  0  0  0  0  0  0  0  0  0  0
  -31.5860  -19.0500   23.1610 C   0  0  0  0  0  1  0  0  0  0  0  0
  -32.9990  -18.8280   21.0810 C   0  0  0  0  0  1  0  0  0  0  0  0
  -31.5540  -18.9750   21.6180 C   0  0  2  0  0  0  0  0  0  0  0  0
  -30.7050  -17.7280   21.1640 C   0  0  2  0  0  0  0  0  0  0  0  0
  -30.7160  -17.6590   19.8310 F   0  0  0  0  0  0  0  0  0  0  0  0
  -29.4390  -17.8810   21.5570 F   0  0  0  0  0  0  0  0  0  0  0  0
  -31.1830  -16.3580   21.7320 C   0  0  0  0  0  2  0  0  0  0  0  0
  -30.8160  -14.4230   20.2140 C   0  0  0  0  0  0  0  0  0  0  0  0
  -30.3660  -12.3680   18.9260 C   0  0  0  0  0  2  0  0  0  0  0  0
  -29.3660  -12.6250   17.7850 C   0  0  0  0  0  2  0  0  0  0  0  0
  -27.9170  -12.4830   18.2880 C   0  0  0  0  0  2  0  0  0  0  0  0
  -27.6570  -13.2890   19.5880 C   0  0  0  0  0  3  0  0  0  0  0  0
  -28.7600  -13.0160   20.6340 C   0  0  0  0  0  2  0  0  0  0  0  0
  -30.0680  -13.3070   20.0180 N   0  0  0  0  0  0  0  0  0  0  0  0
  -31.8180  -14.6870   19.5420 O   0  0  0  0  0  0  0  0  0  0  0  0
  -30.4290  -15.2090   21.2260 N   0  0  0  0  0  0  0  0  0  0  0  0
  -29.6080  -14.9320   21.7410 H   0  0  0  0  0  0  0  0  0  0  0  0
  -25.2960  -13.8990   20.4140 C   0  0  0  0  0  0  0  0  0  0  0  0
  -24.2430  -13.1250   20.8230 C   0  0  0  0  0  0  0  0  0  0  0  0
  -24.6950  -11.7730   20.7520 C   0  0  0  0  0  0  0  0  0  0  0  0
  -26.3250  -13.0170   20.1240 N   0  0  0  0  0  0  0  0  0  0  0  0
  -25.9680  -11.7310   20.3820 N   0  0  0  0  0  0  0  0  0  0  0  0
  -23.9720  -10.5100   20.9600 C   0  0  0  0  0  0  0  0  0  0  0  0
  -24.4210   -9.5480   21.8900 C   0  0  0  0  0  3  0  0  0  0  0  0
  -23.7000   -8.3500   22.0860 C   0  0  0  0  0  3  0  0  0  0  0  0
  -22.5160   -8.1060   21.3500 C   0  0  0  0  0  0  0  0  0  0  0  0
  -22.0860   -9.0570   20.4080 C   0  0  0  0  0  3  0  0  0  0  0  0
  -22.8080  -10.2460   20.2110 C   0  0  0  0  0  3  0  0  0  0  0  0
  -21.7660   -6.9600   21.4560 O   0  0  0  0  0  0  0  0  0  0  0  0
  -21.7100   -6.2390   22.6220 C   0  0  0  0  0  0  0  0  0  0  0  0
  -21.2600   -6.8130   23.8310 C   0  0  0  0  0  3  0  0  0  0  0  0
  -21.1530   -6.0190   24.9900 C   0  0  0  0  0  3  0  0  0  0  0  0
  -21.4850   -4.6510   24.9400 C   0  0  0  0  0  0  0  0  0  0  0  0
  -21.9270   -4.0760   23.7350 C   0  0  0  0  0  3  0  0  0  0  0  0
  -22.0360   -4.8680   22.5790 C   0  0  0  0  0  0  0  0  0  0  0  0
  -22.4420   -4.3050   21.4160 F   0  0  0  0  0  0  0  0  0  0  0  0
  -21.3750   -3.8860   26.0500 F   0  0  0  0  0  0  0  0  0  0  0  0
  -22.8630  -13.6050   21.1690 C   0  0  0  0  0  0  0  0  0  0  0  0
  -22.1730  -12.8960   22.0560 N   0  0  0  0  0  0  0  0  0  0  0  0
  -22.4070  -14.6420   20.6890 O   0  0  0  0  0  0  0  0  0  0  0  0
  -22.5560  -12.0570   22.4660 H   0  0  0  0  0  0  0  0  0  0  0  0
  -21.2490  -13.1980   22.3300 H   0  0  0  0  0  0  0  0  0  0  0  0
  -25.4610  -15.2710   20.2470 N   0  0  0  0  0  0  0  0  0  0  0  0
  -24.7100  -15.9350   20.4050 H   0  0  0  0  0  0  0  0  0  0  0  0
  -26.3100  -15.7070   19.9090 H   0  0  0  0  0  0  0  0  0  0  0  0
  -31.4340  -23.6360   20.1980 C   0  0  0  0  0  2  0  0  0  0  0  0
  -30.4260  -24.7910   20.0050 C   0  0  0  0  0  2  0  0  0  0  0  0
  -29.7490  -25.2990   21.2940 C   0  0  0  0  0  2  0  0  0  0  0  0
  -29.1320  -26.7050   21.1490 C   0  0  0  0  0  2  0  0  0  0  0  0
  -28.2300  -26.7050   20.0500 O   0  0  0  0  0  0  0  0  0  0  0  0
  -24.5390  -31.9610   23.2220 C   0  0  0  0  0  0  0  0  0  0  0  0
  -27.1140  -27.5040   20.1250 C   0  0  0  0  0  0  0  0  0  0  0  0
  -23.3020  -30.5690   21.5940 C   0  0  0  0  0  3  0  0  0  0  0  0
  -24.7290  -29.0170   20.1580 C   0  0  0  0  0  0  0  0  0  0  0  0
  -25.8260  -30.9070   21.3700 C   0  0  0  0  0  2  0  0  0  0  0  0
  -25.8950  -29.5330   20.7390 C   0  0  0  0  0  0  0  0  0  0  0  0
  -27.0920  -28.7830   20.7290 C   0  0  0  0  0  3  0  0  0  0  0  0
  -25.9380  -27.0050   19.5340 C   0  0  0  0  0  3  0  0  0  0  0  0
  -24.7440  -27.7480   19.5550 C   0  0  0  0  0  3  0  0  0  0  0  0
  -23.4920  -29.8850   20.2130 C   0  0  0  0  0  2  0  0  0  0  0  0
  -24.5740  -31.1600   22.1200 N   0  0  0  0  0  0  0  0  0  0  0  0
  -23.4660  -32.2460   23.7730 O   0  0  0  0  0  0  0  0  0  0  0  0
  -22.6510  -29.5540   22.5610 C   0  0  0  0  0  0  0  0  0  0  0  0
  -21.3250  -29.3810   22.4420 N   0  0  0  0  0  0  0  0  0  0  0  0
  -23.3350  -28.9270   23.3740 O   0  0  0  0  0  0  0  0  0  0  0  0
  -20.8350  -29.9390   21.7560 H   0  0  0  0  0  0  0  0  0  0  0  0
  -17.9430  -28.2220   22.9650 C   0  0  0  0  0  0  0  0  0  0  0  0
  -20.5050  -28.4520   23.2200 C   0  0  0  0  0  3  0  0  0  0  0  0
  -20.5880  -27.0190   22.6460 C   0  0  0  0  0  2  0  0  0  0  0  0
  -19.4750  -26.7070   21.6390 C   0  0  0  0  0  2  0  0  0  0  0  0
  -18.1000  -26.8690   22.2910 C   0  0  0  0  0  2  0  0  0  0  0  0
  -19.0730  -28.9720   23.3860 C   0  0  0  0  0  0  0  0  0  0  0  0
  -18.8720  -30.2390   23.9750 C   0  0  0  0  0  3  0  0  0  0  0  0
  -17.5740  -30.7570   24.1470 C   0  0  0  0  0  3  0  0  0  0  0  0
  -16.4590  -30.0030   23.7420 C   0  0  0  0  0  3  0  0  0  0  0  0
  -16.6440  -28.7380   23.1570 C   0  0  0  0  0  3  0  0  0  0  0  0
  -25.8390  -32.5770   23.8280 C   0  0  0  0  0  3  0  0  0  0  0  0
  -25.5510  -33.9780   24.1580 N   0  0  0  0  0  0  0  0  0  0  0  0
  -25.9020  -35.0250   23.4000 C   0  0  0  0  0  0  0  0  0  0  0  0
  -26.5750  -34.9120   22.3710 O   0  0  0  0  0  0  0  0  0  0  0  0
  -24.9550  -34.1420   24.9570 H   0  0  0  0  0  0  0  0  0  0  0  0
  -24.2130  -36.8490   23.0210 C   0  0  0  0  0  1  0  0  0  0  0  0
  -25.4310  -36.4200   23.8540 C   0  0  0  0  0  3  0  0  0  0  0  0
  -27.5660  -37.2610   24.7290 C   0  0  0  0  0  1  0  0  0  0  0  0
  -26.4860  -37.4540   23.7660 N   0  0  0  0  0  0  0  0  0  0  0  0
  -26.0940  -38.3810   23.9090 H   0  0  0  0  0  0  0  0  0  0  0  0
  -26.3650  -31.7980   25.0960 C   0  0  1  0  0  0  0  0  0  0  0  0
  -25.2820  -31.5690   26.1750 C   0  0  0  0  0  1  0  0  0  0  0  0
  -26.9310  -30.4170   24.6920 C   0  0  0  0  0  1  0  0  0  0  0  0
  -27.5300  -32.5820   25.7450 C   0  0  0  0  0  1  0  0  0  0  0  0
  1  2  1  0
  2  4  2  0
  2  8  1  0
  3  1  2  0
  3  5  1  0
  5  4  1  0
  8  7  1  6
  8  6  1  0
  9 11  1  1
  9  8  1  0
  9 12  1  0
 10  9  1  0
 13 21  1  0
 14 19  1  0
 15 16  1  0
 15 14  1  0
 17 16  1  0
 17 26  1  0
 17 18  1  0
 19 13  1  0
 19 18  1  0
 20 13  2  0
 21 12  1  0
 21 22  1  0
 23 24  2  0
 24 43  1  0
 25 24  1  0
 25 28  1  0
 26 27  1  0
 26 23  1  0
 27 25  2  0
 28 29  1  0
 29 30  2  0
 31 34  1  0
 31 30  1  0
 32 31  2  0
 33 32  1  0
 33 28  2  0
 34 35  1  0
 35 36  1  0
 36 37  2  0
 38 37  1  0
 38 42  1  0
 39 38  2  0
 40 35  2  0
 40 39  1  0
 41 40  1  0
 43 44  1  0
 44 47  1  0
 44 46  1  0
 45 43  2  0
 48 49  1  0
 48 23  1  0
 50 48  1  0
 51  5  1  0
 52 51  1  0
 52 53  1  0
 54 53  1  0
 55 57  1  0
 55 54  1  0
 56 67  2  0
 57 62  1  0
 58 66  1  0
 58 68  1  0
 59 65  1  0
 59 61  1  0
 60 66  1  0
 61 60  1  0
 62 61  2  0
 63 64  1  0
 63 57  2  0
 64 59  2  0
 65 58  1  0
 66 56  1  0
 68 70  2  0
 69 68  1  0
 71 69  1  0
 72 81  2  0
 72 77  1  0
 73 69  1  0
 73 77  1  0
 74 73  1  0
 75 76  1  0
 75 74  1  0
 76 72  1  0
 77 78  2  0
 78 79  1  0
 80 79  2  0
 81 80  1  0
 82 56  1  0
 82 83  1  0
 82 92  1  0
 83 86  1  0
 84 88  1  0
 84 83  1  0
 85 84  2  0
 88 87  1  0
 90 88  1  0
 90 91  1  0
 90 89  1  0
 92 95  1  1
 92 93  1  0
 94 92  1  0
M  ISO  4  13 100  21 100  54 101  55 101
M  END
>  <TORSDO>  (27) 
F 23

>  <SCORE>  (27) 
-12.878

>  <name>  (27) 
26

>  <ligand_id>  (27) 
26

>  <original_smiles>  (27) 
[H]c1nn(C([H])([H])C([H])([H])C([H])([H])C([H])([H])Oc2c([H])c([H])c3c(c2[H])C([H])([H])N(C(=O)C([H])(N([H])C(=O)C([H])(N([H])C([H])([H])[H])C([H])([H])[H])C(C([H])([H])[H])(C([H])([H])[H])C([H])([H])[H])C([H])(C(=O)N([H])C2([H])c4c([H])c([H])c([H])c([H])c4C([H])([H])C([H])([H])C2([H])[H])C3([H])[H])nc1C(C([H])([H])[H])(C([H])([H])[H])C(F)(F)C([H])([H])N([H])C(=O)N1C([H])([H])C([H])([H])C([H])([H])C([H])(n2nc(-c3c([H])c([H])c(Oc4c([H])c([H])c(F)c([H])c4F)c([H])c3[H])c(C(=O)N([H])[H])c2N([H])[H])C1([H])[H]

>  <smiles>  (27) 
[H]c1nn(C([H])([H])C([H])([H])C([H])([H])C([H])([H])Oc2c([H])c([H])c3c(c2[H])C([H])([H])N(C(=O)C([H])(N([H])C(=O)C([H])(N([H])C([H])([H])[H])C([H])([H])[H])C(C([H])([H])[H])(C([H])([H])[H])C([H])([H])[H])C([H])(C(=O)N([H])C2([H])c4c([H])c([H])c([H])c([H])c4C([H])([H])C([H])([H])C2([H])[H])C3([H])[H])nc1C(C([H])([H])[H])(C([H])([H])[H])C(F)(F)C([H])([H])N([H])C(=O)N1C([H])([H])C([H])([H])C([H])([H])C([H])(n2nc(-c3c([H])c([H])c(Oc4c([H])c([H])c(F)c([H])c4F)c([H])c3[H])c(C(=O)N([H])[H])c2N([H])[H])C1([H])[H]

$$$$
27:0:0
     RDKit          3D

 92100  0  0  1  0  0  0  0  0999 V2000
  -29.4690  -20.5630   21.8840 C   0  0  0  0  0  3  0  0  0  0  0  0
  -29.7790  -19.1870   21.7230 C   0  0  0  0  0  3  0  0  0  0  0  0
  -29.3880  -21.3830   20.7340 C   0  0  0  0  0  0  0  0  0  0  0  0
  -29.9990  -18.6790   20.4170 C   0  0  0  0  0  0  0  0  0  0  0  0
  -29.7280  -20.8750   19.5220 N   0  0  0  0  0  0  0  0  0  0  0  0
  -30.0230  -19.5700   19.3760 N   0  0  0  0  0  0  0  0  0  0  0  0
  -29.9170  -16.9840   18.5210 C   0  0  0  0  0  1  0  0  0  0  0  0
  -28.4080  -16.8020   20.4710 C   0  0  0  0  0  1  0  0  0  0  0  0
  -29.8540  -17.1370   20.0730 C   0  0  2  0  0  0  0  0  0  0  0  0
  -32.2770  -16.7900   20.8180 C   0  0  0  0  0  1  0  0  0  0  0  0
  -30.6030  -15.7730   22.2590 C   0  0  0  0  0  1  0  0  0  0  0  0
  -30.8900  -16.0760   20.7570 C   0  0  1  0  0  0  0  0  0  0  0  0
  -31.1340  -14.6880   19.9660 C   0  0  0  0  0  0  0  0  0  0  0  0
  -30.6040  -12.4900   18.9130 C   0  0  0  0  0  2  0  0  0  0  0  0
  -29.6170  -12.6470   17.7370 C   0  0  0  0  0  2  0  0  0  0  0  0
  -28.1690  -12.5340   18.2450 C   0  0  0  0  0  2  0  0  0  0  0  0
  -27.9120  -13.4380   19.4770 C   0  0  0  0  0  3  0  0  0  0  0  0
  -29.0310  -13.2960   20.5410 C   0  0  0  0  0  2  0  0  0  0  0  0
  -30.3340  -13.5630   19.9070 N   0  0  0  0  0  0  0  0  0  0  0  0
  -32.1670  -14.6730   19.2900 O   0  0  0  0  0  0  0  0  0  0  0  0
  -25.5980  -14.1360   20.3680 C   0  0  0  0  0  0  0  0  0  0  0  0
  -24.5260  -13.4100   20.8020 C   0  0  0  0  0  0  0  0  0  0  0  0
  -24.9120  -12.0400   20.6960 C   0  0  0  0  0  0  0  0  0  0  0  0
  -26.5850  -13.2150   20.0460 N   0  0  0  0  0  0  0  0  0  0  0  0
  -26.1760  -11.9450   20.2980 N   0  0  0  0  0  0  0  0  0  0  0  0
  -24.1290  -10.8160   20.8900 C   0  0  0  0  0  0  0  0  0  0  0  0
  -24.5380   -9.8140   21.7970 C   0  0  0  0  0  3  0  0  0  0  0  0
  -23.7560   -8.6530   21.9780 C   0  0  0  0  0  3  0  0  0  0  0  0
  -22.5520   -8.4880   21.2540 C   0  0  0  0  0  0  0  0  0  0  0  0
  -22.1620   -9.4780   20.3360 C   0  0  0  0  0  3  0  0  0  0  0  0
  -22.9430  -10.6300   20.1520 C   0  0  0  0  0  3  0  0  0  0  0  0
  -21.7420   -7.3820   21.3490 O   0  0  0  0  0  0  0  0  0  0  0  0
  -21.6570   -6.6510   22.5060 C   0  0  0  0  0  0  0  0  0  0  0  0
  -21.2560   -7.2350   23.7280 C   0  0  0  0  0  3  0  0  0  0  0  0
  -21.1130   -6.4330   24.8780 C   0  0  0  0  0  3  0  0  0  0  0  0
  -21.3620   -5.0490   24.8070 C   0  0  0  0  0  0  0  0  0  0  0  0
  -21.7550   -4.4650   23.5910 C   0  0  0  0  0  3  0  0  0  0  0  0
  -21.8990   -5.2630   22.4420 C   0  0  0  0  0  0  0  0  0  0  0  0
  -22.2580   -4.6930   21.2670 F   0  0  0  0  0  0  0  0  0  0  0  0
  -21.2170   -4.2770   25.9090 F   0  0  0  0  0  0  0  0  0  0  0  0
  -23.1820  -13.9550   21.1920 C   0  0  0  0  0  0  0  0  0  0  0  0
  -22.4900  -13.2800   22.1020 N   0  0  0  0  0  0  0  0  0  0  0  0
  -22.7600  -15.0130   20.7270 O   0  0  0  0  0  0  0  0  0  0  0  0
  -22.8470  -12.4240   22.5000 H   0  0  0  0  0  0  0  0  0  0  0  0
  -21.5900  -13.6260   22.4060 H   0  0  0  0  0  0  0  0  0  0  0  0
  -25.7870  -15.5000   20.1950 N   0  0  0  0  0  0  0  0  0  0  0  0
  -25.0420  -16.1670   20.3640 H   0  0  0  0  0  0  0  0  0  0  0  0
  -26.6170  -15.9200   19.8020 H   0  0  0  0  0  0  0  0  0  0  0  0
  -28.5870  -22.7120   20.7450 C   0  0  0  0  0  2  0  0  0  0  0  0
  -29.2520  -24.1170   20.5060 C   0  0  0  0  0  2  0  0  0  0  0  0
  -28.1560  -25.1640   20.0860 C   0  0  0  0  0  2  0  0  0  0  0  0
  -28.4140  -26.6050   20.0470 O   0  0  0  0  0  0  0  0  0  0  0  0
  -24.5480  -31.7770   23.1740 C   0  0  0  0  0  0  0  0  0  0  0  0
  -27.2690  -27.4070   19.9990 C   0  0  0  0  0  0  0  0  0  0  0  0
  -23.3710  -30.3900   21.5060 C   0  0  0  0  0  3  0  0  0  0  0  0
  -24.8530  -28.9240   20.0360 C   0  0  0  0  0  0  0  0  0  0  0  0
  -25.8960  -30.7930   21.3150 C   0  0  0  0  0  2  0  0  0  0  0  0
  -26.0100  -29.4380   20.6370 C   0  0  0  0  0  0  0  0  0  0  0  0
  -27.2210  -28.6920   20.6100 C   0  0  0  0  0  3  0  0  0  0  0  0
  -26.0870  -26.9420   19.3700 C   0  0  0  0  0  3  0  0  0  0  0  0
  -24.8920  -27.6800   19.3950 C   0  0  0  0  0  3  0  0  0  0  0  0
  -23.5940  -29.7560   20.1080 C   0  0  0  0  0  2  0  0  0  0  0  0
  -24.6230  -31.0020   22.0550 N   0  0  0  0  0  0  0  0  0  0  0  0
  -23.4610  -32.0150   23.7210 O   0  0  0  0  0  0  0  0  0  0  0  0
  -22.7430  -29.3300   22.4420 C   0  0  0  0  0  0  0  0  0  0  0  0
  -21.4270  -29.1010   22.2960 N   0  0  0  0  0  0  0  0  0  0  0  0
  -23.4380  -28.7200   23.2580 O   0  0  0  0  0  0  0  0  0  0  0  0
  -20.9260  -29.6460   21.6090 H   0  0  0  0  0  0  0  0  0  0  0  0
  -18.0970  -27.7620   22.7280 C   0  0  0  0  0  0  0  0  0  0  0  0
  -20.6370  -28.1230   23.0460 C   0  0  0  0  0  3  0  0  0  0  0  0
  -20.8090  -26.7030   22.4590 C   0  0  0  0  0  2  0  0  0  0  0  0
  -19.7390  -26.3430   21.4240 C   0  0  0  0  0  2  0  0  0  0  0  0
  -18.3410  -26.4270   22.0430 C   0  0  0  0  0  2  0  0  0  0  0  0
  -19.1760  -28.5650   23.1840 C   0  0  0  0  0  0  0  0  0  0  0  0
  -18.8940  -29.8130   23.7800 C   0  0  0  0  0  3  0  0  0  0  0  0
  -17.5670  -30.2580   23.9270 C   0  0  0  0  0  3  0  0  0  0  0  0
  -16.5040  -29.4510   23.4880 C   0  0  0  0  0  3  0  0  0  0  0  0
  -16.7690  -28.2050   22.8940 C   0  0  0  0  0  3  0  0  0  0  0  0
  -25.8200  -32.4250   23.8050 C   0  0  0  0  0  3  0  0  0  0  0  0
  -25.4850  -33.8150   24.1470 N   0  0  0  0  0  0  0  0  0  0  0  0
  -25.8130  -34.8810   23.4040 C   0  0  0  0  0  0  0  0  0  0  0  0
  -26.5010  -34.7990   22.3810 O   0  0  0  0  0  0  0  0  0  0  0  0
  -24.8750  -33.9520   24.9390 H   0  0  0  0  0  0  0  0  0  0  0  0
  -24.0680  -36.6550   23.0410 C   0  0  0  0  0  1  0  0  0  0  0  0
  -25.2990  -36.2570   23.8690 C   0  0  0  0  0  3  0  0  0  0  0  0
  -27.4080  -37.1570   24.7490 C   0  0  0  0  0  1  0  0  0  0  0  0
  -26.3200  -37.3240   23.7890 N   0  0  0  0  0  0  0  0  0  0  0  0
  -25.8990  -38.2360   23.9410 H   0  0  0  0  0  0  0  0  0  0  0  0
  -26.3480  -31.6500   25.0730 C   0  0  1  0  0  0  0  0  0  0  0  0
  -25.2510  -31.3560   26.1240 C   0  0  0  0  0  1  0  0  0  0  0  0
  -26.9810  -30.2990   24.6660 C   0  0  0  0  0  1  0  0  0  0  0  0
  -27.4610  -32.4710   25.7620 C   0  0  0  0  0  1  0  0  0  0  0  0
  2  1  1  0
  3 49  1  0
  3  1  2  0
  4  2  2  0
  5  3  1  0
  6  5  2  0
  6  4  1  0
  9  7  1  6
  9  4  1  0
  9  8  1  0
  9 12  1  0
 12 10  1  1
 12 11  1  0
 13 12  1  0
 14 19  1  0
 15 16  1  0
 15 14  1  0
 17 16  1  0
 17 24  1  0
 17 18  1  0
 19 13  1  0
 19 18  1  0
 20 13  2  0
 21 22  2  0
 22 41  1  0
 23 22  1  0
 23 26  1  0
 24 25  1  0
 24 21  1  0
 25 23  2  0
 26 27  1  0
 27 28  2  0
 29 32  1  0
 29 28  1  0
 30 29  2  0
 31 30  1  0
 31 26  2  0
 32 33  1  0
 33 34  1  0
 34 35  2  0
 36 35  1  0
 36 40  1  0
 37 36  2  0
 38 33  2  0
 38 37  1  0
 39 38  1  0
 41 42  1  0
 42 45  1  0
 42 44  1  0
 43 41  2  0
 46 47  1  0
 46 21  1  0
 48 46  1  0
 50 49  1  0
 51 50  1  0
 52 51  1  0
 53 64  2  0
 54 52  1  0
 54 59  1  0
 55 63  1  0
 55 65  1  0
 56 62  1  0
 56 58  1  0
 57 63  1  0
 58 57  1  0
 59 58  2  0
 60 61  1  0
 60 54  2  0
 61 56  2  0
 62 55  1  0
 63 53  1  0
 65 67  2  0
 66 65  1  0
 68 66  1  0
 69 78  2  0
 69 74  1  0
 70 66  1  0
 70 74  1  0
 71 70  1  0
 72 73  1  0
 72 71  1  0
 73 69  1  0
 74 75  2  0
 75 76  1  0
 77 76  2  0
 78 77  1  0
 79 53  1  0
 79 80  1  0
 79 89  1  0
 80 83  1  0
 81 85  1  0
 81 80  1  0
 82 81  2  0
 85 84  1  0
 87 85  1  0
 87 88  1  0
 87 86  1  0
 89 92  1  1
 89 90  1  0
 91 89  1  0
M  ISO  4  12 100  13 100  51 101  52 101
M  END
>  <TORSDO>  (28) 
F 21

>  <SCORE>  (28) 
-11.898

>  <name>  (28) 
27

>  <ligand_id>  (28) 
27

>  <original_smiles>  (28) 
[H]c1c(C([H])([H])C([H])([H])C([H])([H])Oc2c([H])c([H])c3c(c2[H])C([H])([H])N(C(=O)C([H])(N([H])C(=O)C([H])(N([H])C([H])([H])[H])C([H])([H])[H])C(C([H])([H])[H])(C([H])([H])[H])C([H])([H])[H])C([H])(C(=O)N([H])C2([H])c4c([H])c([H])c([H])c([H])c4C([H])([H])C([H])([H])C2([H])[H])C3([H])[H])nnc(C(C([H])([H])[H])(C([H])([H])[H])C(C(=O)N2C([H])([H])C([H])([H])C([H])([H])C([H])(n3nc(-c4c([H])c([H])c(Oc5c([H])c([H])c(F)c([H])c5F)c([H])c4[H])c(C(=O)N([H])[H])c3N([H])[H])C2([H])[H])(C([H])([H])[H])C([H])([H])[H])c1[H]

>  <smiles>  (28) 
[H]c1c(C([H])([H])C([H])([H])C([H])([H])Oc2c([H])c([H])c3c(c2[H])C([H])([H])N(C(=O)C([H])(N([H])C(=O)C([H])(N([H])C([H])([H])[H])C([H])([H])[H])C(C([H])([H])[H])(C([H])([H])[H])C([H])([H])[H])C([H])(C(=O)N([H])C2([H])c4c([H])c([H])c([H])c([H])c4C([H])([H])C([H])([H])C2([H])[H])C3([H])[H])nnc(C(C([H])([H])[H])(C([H])([H])[H])C(C(=O)N2C([H])([H])C([H])([H])C([H])([H])C([H])(n3nc(-c4c([H])c([H])c(Oc5c([H])c([H])c(F)c([H])c5F)c([H])c4[H])c(C(=O)N([H])[H])c3N([H])[H])C2([H])[H])(C([H])([H])[H])C([H])([H])[H])c1[H]

$$$$
28:0:0
     RDKit          3D

 92100  0  0  1  0  0  0  0  0999 V2000
  -31.0380  -21.1270   22.0400 C   0  0  0  0  0  3  0  0  0  0  0  0
  -30.8380  -20.1490   20.0900 C   0  0  0  0  0  3  0  0  0  0  0  0
  -31.2480  -21.3330   20.6430 C   0  0  0  0  0  0  0  0  0  0  0  0
  -30.5290  -19.9380   22.3170 N   0  0  0  0  0  0  0  0  0  0  0  0
  -30.4020  -19.3380   21.1160 N   0  0  0  0  0  0  0  0  0  0  0  0
  -31.8170  -22.5360   19.9250 C   0  0  0  0  0  2  0  0  0  0  0  0
  -31.7410  -23.8550   20.7280 C   0  0  0  0  0  2  0  0  0  0  0  0
  -30.6800  -24.8390   20.2140 C   0  0  0  0  0  2  0  0  0  0  0  0
  -30.5860  -26.0890   21.1060 C   0  0  0  0  0  2  0  0  0  0  0  0
  -29.7400  -27.2330   20.5190 C   0  0  0  0  0  2  0  0  0  0  0  0
  -28.4560  -26.7320   20.1490 O   0  0  0  0  0  0  0  0  0  0  0  0
  -24.6130  -31.9230   23.2380 C   0  0  0  0  0  0  0  0  0  0  0  0
  -27.3320  -27.5330   20.1810 C   0  0  0  0  0  0  0  0  0  0  0  0
  -23.4200  -30.5020   21.5980 C   0  0  0  0  0  3  0  0  0  0  0  0
  -24.8970  -28.9790   20.1800 C   0  0  0  0  0  0  0  0  0  0  0  0
  -25.9350  -30.9040   21.3910 C   0  0  0  0  0  2  0  0  0  0  0  0
  -26.0420  -29.5320   20.7630 C   0  0  0  0  0  0  0  0  0  0  0  0
  -27.2610  -28.8230   20.7630 C   0  0  0  0  0  3  0  0  0  0  0  0
  -26.1660  -26.9880   19.6060 C   0  0  0  0  0  3  0  0  0  0  0  0
  -24.9510  -27.7020   19.5960 C   0  0  0  0  0  3  0  0  0  0  0  0
  -23.6370  -29.8150   20.2220 C   0  0  0  0  0  2  0  0  0  0  0  0
  -24.6740  -31.1240   22.1360 N   0  0  0  0  0  0  0  0  0  0  0  0
  -23.5300  -32.1840   23.7800 O   0  0  0  0  0  0  0  0  0  0  0  0
  -22.7790  -29.4800   22.5630 C   0  0  0  0  0  0  0  0  0  0  0  0
  -21.4570  -29.2880   22.4380 N   0  0  0  0  0  0  0  0  0  0  0  0
  -23.4700  -28.8610   23.3770 O   0  0  0  0  0  0  0  0  0  0  0  0
  -20.9620  -29.8420   21.7530 H   0  0  0  0  0  0  0  0  0  0  0  0
  -18.0900  -28.0820   22.9440 C   0  0  0  0  0  0  0  0  0  0  0  0
  -20.6480  -28.3460   23.2100 C   0  0  0  0  0  3  0  0  0  0  0  0
  -20.7530  -26.9170   22.6320 C   0  0  0  0  0  2  0  0  0  0  0  0
  -19.6500  -26.5920   21.6200 C   0  0  0  0  0  2  0  0  0  0  0  0
  -18.2700  -26.7330   22.2670 C   0  0  0  0  0  2  0  0  0  0  0  0
  -19.2080  -28.8460   23.3730 C   0  0  0  0  0  0  0  0  0  0  0  0
  -18.9870  -30.1090   23.9640 C   0  0  0  0  0  3  0  0  0  0  0  0
  -17.6810  -30.6070   24.1310 C   0  0  0  0  0  3  0  0  0  0  0  0
  -16.5780  -29.8400   23.7190 C   0  0  0  0  0  3  0  0  0  0  0  0
  -16.7840  -28.5780   23.1310 C   0  0  0  0  0  3  0  0  0  0  0  0
  -25.8940  -32.5660   23.8570 C   0  0  0  0  0  3  0  0  0  0  0  0
  -25.5760  -33.9610   24.1820 N   0  0  0  0  0  0  0  0  0  0  0  0
  -25.9070  -35.0140   23.4220 C   0  0  0  0  0  0  0  0  0  0  0  0
  -26.5870  -34.9130   22.3960 O   0  0  0  0  0  0  0  0  0  0  0  0
  -24.9740  -34.1150   24.9790 H   0  0  0  0  0  0  0  0  0  0  0  0
  -24.1680  -36.7920   23.0500 C   0  0  0  0  0  1  0  0  0  0  0  0
  -25.4070  -36.3990   23.8720 C   0  0  0  0  0  3  0  0  0  0  0  0
  -27.5340  -37.2960   24.7080 C   0  0  0  0  0  1  0  0  0  0  0  0
  -26.4310  -37.4620   23.7650 N   0  0  0  0  0  0  0  0  0  0  0  0
  -26.0180  -38.3770   23.9190 H   0  0  0  0  0  0  0  0  0  0  0  0
  -26.4220  -31.8010   25.1320 C   0  0  1  0  0  0  0  0  0  0  0  0
  -25.3330  -31.5450   26.1990 C   0  0  0  0  0  1  0  0  0  0  0  0
  -27.0250  -30.4330   24.7330 C   0  0  0  0  0  1  0  0  0  0  0  0
  -27.5610  -32.6100   25.7970 C   0  0  0  0  0  1  0  0  0  0  0  0
  -29.8510  -18.0000   21.0490 C   0  0  0  0  0  2  0  0  0  0  0  0
  -30.9520  -16.9200   20.9860 C   0  0  0  0  0  2  0  0  0  0  0  0
  -31.0250  -14.9690   22.6280 C   0  0  0  0  0  1  0  0  0  0  0  0
  -30.4610  -15.4650   21.2810 C   0  0  1  0  0  0  0  0  0  0  0  0
  -29.1340  -15.5430   21.3930 F   0  0  0  0  0  0  0  0  0  0  0  0
  -30.8450  -14.4410   20.1680 C   0  0  0  0  0  0  0  0  0  0  0  0
  -30.3960  -12.3980   18.8330 C   0  0  0  0  0  2  0  0  0  0  0  0
  -29.3940  -12.7150   17.7060 C   0  0  0  0  0  2  0  0  0  0  0  0
  -27.9390  -12.6010   18.2100 C   0  0  0  0  0  2  0  0  0  0  0  0
  -27.7060  -13.3450   19.5520 C   0  0  0  0  0  3  0  0  0  0  0  0
  -28.8140  -12.9680   20.5660 C   0  0  0  0  0  2  0  0  0  0  0  0
  -30.1070  -13.3130   19.9510 N   0  0  0  0  0  0  0  0  0  0  0  0
  -31.8600  -14.6700   19.4990 O   0  0  0  0  0  0  0  0  0  0  0  0
  -25.3350  -13.9890   20.3320 C   0  0  0  0  0  0  0  0  0  0  0  0
  -24.2710  -13.2280   20.7450 C   0  0  0  0  0  0  0  0  0  0  0  0
  -24.7170  -11.8710   20.6990 C   0  0  0  0  0  0  0  0  0  0  0  0
  -26.3640  -13.0930   20.0750 N   0  0  0  0  0  0  0  0  0  0  0  0
  -25.9940  -11.8170   20.3410 N   0  0  0  0  0  0  0  0  0  0  0  0
  -23.9860  -10.6150   20.9240 C   0  0  0  0  0  0  0  0  0  0  0  0
  -24.4480   -9.6480   21.8420 C   0  0  0  0  0  3  0  0  0  0  0  0
  -23.7190   -8.4580   22.0590 C   0  0  0  0  0  3  0  0  0  0  0  0
  -22.5140   -8.2290   21.3540 C   0  0  0  0  0  0  0  0  0  0  0  0
  -22.0690   -9.1850   20.4250 C   0  0  0  0  0  3  0  0  0  0  0  0
  -22.7990  -10.3660   20.2080 C   0  0  0  0  0  3  0  0  0  0  0  0
  -21.7570   -7.0890   21.4760 O   0  0  0  0  0  0  0  0  0  0  0  0
  -21.7490   -6.3500   22.6320 C   0  0  0  0  0  0  0  0  0  0  0  0
  -21.4010   -6.9220   23.8760 C   0  0  0  0  0  3  0  0  0  0  0  0
  -21.3380   -6.1140   25.0290 C   0  0  0  0  0  3  0  0  0  0  0  0
  -21.6100   -4.7350   24.9380 C   0  0  0  0  0  0  0  0  0  0  0  0
  -21.9490   -4.1640   23.6990 C   0  0  0  0  0  3  0  0  0  0  0  0
  -22.0160   -4.9690   22.5500 C   0  0  0  0  0  0  0  0  0  0  0  0
  -22.3220   -4.4100   21.3530 F   0  0  0  0  0  0  0  0  0  0  0  0
  -21.5410   -3.9570   26.0430 F   0  0  0  0  0  0  0  0  0  0  0  0
  -22.8900  -13.7210   21.0740 C   0  0  0  0  0  0  0  0  0  0  0  0
  -22.2080  -13.0450   21.9910 N   0  0  0  0  0  0  0  0  0  0  0  0
  -22.4290  -14.7360   20.5560 O   0  0  0  0  0  0  0  0  0  0  0  0
  -22.6010  -12.2210   22.4270 H   0  0  0  0  0  0  0  0  0  0  0  0
  -21.2850  -13.3550   22.2610 H   0  0  0  0  0  0  0  0  0  0  0  0
  -25.5000  -15.3540   20.1370 N   0  0  0  0  0  0  0  0  0  0  0  0
  -24.7520  -16.0180   20.2990 H   0  0  0  0  0  0  0  0  0  0  0  0
  -26.3640  -15.7930   19.8390 H   0  0  0  0  0  0  0  0  0  0  0  0
  1  4  2  0
  2  3  2  0
  2  5  1  0
  3  1  1  0
  5  4  1  0
  6  3  1  0
  6  7  1  0
  8  7  1  0
  8  9  1  0
 10  9  1  0
 11 13  1  0
 11 10  1  0
 12 23  2  0
 13 18  1  0
 14 22  1  0
 14 24  1  0
 15 21  1  0
 15 17  1  0
 16 22  1  0
 17 16  1  0
 18 17  2  0
 19 13  2  0
 20 19  1  0
 20 15  2  0
 21 14  1  0
 22 12  1  0
 24 26  2  0
 25 24  1  0
 27 25  1  0
 28 37  2  0
 28 33  1  0
 29 25  1  0
 29 33  1  0
 30 29  1  0
 31 32  1  0
 31 30  1  0
 32 28  1  0
 33 34  2  0
 34 35  1  0
 36 35  2  0
 37 36  1  0
 38 12  1  0
 38 39  1  0
 38 48  1  0
 39 42  1  0
 40 44  1  0
 40 39  1  0
 41 40  2  0
 44 43  1  0
 46 44  1  0
 46 47  1  0
 46 45  1  0
 48 51  1  1
 48 49  1  0
 50 48  1  0
 52  5  1  0
 53 52  1  0
 53 55  1  0
 55 56  1  0
 55 54  1  1
 57 55  1  0
 58 63  1  0
 59 60  1  0
 59 58  1  0
 61 60  1  0
 61 68  1  0
 61 62  1  0
 63 57  1  0
 63 62  1  0
 64 57  2  0
 65 66  2  0
 66 85  1  0
 67 66  1  0
 67 70  1  0
 68 65  1  0
 68 69  1  0
 69 67  2  0
 70 71  1  0
 71 72  2  0
 73 76  1  0
 73 72  1  0
 74 73  2  0
 75 74  1  0
 75 70  2  0
 76 77  1  0
 77 78  1  0
 78 79  2  0
 80 79  1  0
 80 84  1  0
 81 80  2  0
 82 77  2  0
 82 81  1  0
 83 82  1  0
 85 86  1  0
 86 89  1  0
 86 88  1  0
 87 85  2  0
 90 91  1  0
 90 65  1  0
 92 90  1  0
M  ISO  4  10 101  11 101  55 100  57 100
M  END
>  <TORSDO>  (29) 
F 24

>  <SCORE>  (29) 
-11.188

>  <name>  (29) 
28

>  <ligand_id>  (29) 
28

>  <original_smiles>  (29) 
[H]c1nn(C([H])([H])C([H])([H])C(F)(C(=O)N2C([H])([H])C([H])([H])C([H])([H])C([H])(n3nc(-c4c([H])c([H])c(Oc5c([H])c([H])c(F)c([H])c5F)c([H])c4[H])c(C(=O)N([H])[H])c3N([H])[H])C2([H])[H])C([H])([H])[H])c([H])c1C([H])([H])C([H])([H])C([H])([H])C([H])([H])C([H])([H])Oc1c([H])c([H])c2c(c1[H])C([H])([H])N(C(=O)C([H])(N([H])C(=O)C([H])(N([H])C([H])([H])[H])C([H])([H])[H])C(C([H])([H])[H])(C([H])([H])[H])C([H])([H])[H])C([H])(C(=O)N([H])C1([H])c3c([H])c([H])c([H])c([H])c3C([H])([H])C([H])([H])C1([H])[H])C2([H])[H]

>  <smiles>  (29) 
[H]c1nn(C([H])([H])C([H])([H])C(F)(C(=O)N2C([H])([H])C([H])([H])C([H])([H])C([H])(n3nc(-c4c([H])c([H])c(Oc5c([H])c([H])c(F)c([H])c5F)c([H])c4[H])c(C(=O)N([H])[H])c3N([H])[H])C2([H])[H])C([H])([H])[H])c([H])c1C([H])([H])C([H])([H])C([H])([H])C([H])([H])C([H])([H])Oc1c([H])c([H])c2c(c1[H])C([H])([H])N(C(=O)C([H])(N([H])C(=O)C([H])(N([H])C([H])([H])[H])C([H])([H])[H])C(C([H])([H])[H])(C([H])([H])[H])C([H])([H])[H])C([H])(C(=O)N([H])C1([H])c3c([H])c([H])c([H])c([H])c3C([H])([H])C([H])([H])C1([H])[H])C2([H])[H]

$$$$
29:0:0
     RDKit          3D

 94102  0  0  1  0  0  0  0  0999 V2000
  -29.8690  -19.5320   21.0610 C   0  0  0  0  0  3  0  0  0  0  0  0
  -29.6630  -18.3710   20.3390 C   0  0  0  0  0  0  0  0  0  0  0  0
  -28.4300  -18.6570   19.6600 C   0  0  0  0  0  0  0  0  0  0  0  0
  -27.9730  -19.8790   19.9330 N   0  0  0  0  0  0  0  0  0  0  0  0
  -28.8400  -20.4310   20.8030 N   0  0  0  0  0  0  0  0  0  0  0  0
  -27.6380  -17.8020   18.6870 C   0  0  1  0  0  0  0  0  0  0  0  0
  -27.9570  -16.5150   18.7950 F   0  0  0  0  0  0  0  0  0  0  0  0
  -26.3350  -17.9190   18.9430 F   0  0  0  0  0  0  0  0  0  0  0  0
  -27.8670  -18.1940   17.4340 F   0  0  0  0  0  0  0  0  0  0  0  0
  -31.2090  -17.2600   18.7590 C   0  0  0  0  0  1  0  0  0  0  0  0
  -30.6080  -17.1560   20.1850 C   0  0  0  0  0  3  0  0  0  0  0  0
  -30.7840  -14.6280   20.4120 C   0  0  0  0  0  0  0  0  0  0  0  0
  -30.4570  -12.4250   19.3640 C   0  0  0  0  0  2  0  0  0  0  0  0
  -29.5150  -12.5940   18.1550 C   0  0  0  0  0  2  0  0  0  0  0  0
  -28.0500  -12.4380   18.6030 C   0  0  0  0  0  2  0  0  0  0  0  0
  -27.7050  -13.2970   19.8500 C   0  0  0  0  0  3  0  0  0  0  0  0
  -28.7820  -13.1730   20.9530 C   0  0  0  0  0  2  0  0  0  0  0  0
  -30.0820  -13.4610   20.3400 N   0  0  0  0  0  0  0  0  0  0  0  0
  -31.9890  -14.6630   20.1670 O   0  0  0  0  0  0  0  0  0  0  0  0
  -30.0650  -15.7850   20.4660 N   0  0  0  0  0  0  0  0  0  0  0  0
  -29.0710  -15.6880   20.5960 H   0  0  0  0  0  0  0  0  0  0  0  0
  -25.3200  -13.8810   20.6040 C   0  0  0  0  0  0  0  0  0  0  0  0
  -24.2590  -13.1010   20.9700 C   0  0  0  0  0  0  0  0  0  0  0  0
  -24.7260  -11.7510   20.9220 C   0  0  0  0  0  0  0  0  0  0  0  0
  -26.3640  -13.0060   20.3490 N   0  0  0  0  0  0  0  0  0  0  0  0
  -26.0140  -11.7200   20.6060 N   0  0  0  0  0  0  0  0  0  0  0  0
  -24.0070  -10.4840   21.0980 C   0  0  0  0  0  0  0  0  0  0  0  0
  -24.4420   -9.5090   22.0230 C   0  0  0  0  0  3  0  0  0  0  0  0
  -23.7220   -8.3070   22.1900 C   0  0  0  0  0  3  0  0  0  0  0  0
  -22.5500   -8.0700   21.4310 C   0  0  0  0  0  0  0  0  0  0  0  0
  -22.1340   -9.0330   20.4930 C   0  0  0  0  0  3  0  0  0  0  0  0
  -22.8570  -10.2270   20.3250 C   0  0  0  0  0  3  0  0  0  0  0  0
  -21.8030   -6.9210   21.5060 O   0  0  0  0  0  0  0  0  0  0  0  0
  -21.7470   -6.1740   22.6560 C   0  0  0  0  0  0  0  0  0  0  0  0
  -21.2920   -6.7180   23.8770 C   0  0  0  0  0  3  0  0  0  0  0  0
  -21.1850   -5.8970   25.0160 C   0  0  0  0  0  3  0  0  0  0  0  0
  -21.5220   -4.5320   24.9370 C   0  0  0  0  0  0  0  0  0  0  0  0
  -21.9720   -3.9870   23.7200 C   0  0  0  0  0  3  0  0  0  0  0  0
  -22.0810   -4.8070   22.5820 C   0  0  0  0  0  0  0  0  0  0  0  0
  -22.4940   -4.2730   21.4090 F   0  0  0  0  0  0  0  0  0  0  0  0
  -21.4120   -3.7410   26.0290 F   0  0  0  0  0  0  0  0  0  0  0  0
  -22.8620  -13.5700   21.2570 C   0  0  0  0  0  0  0  0  0  0  0  0
  -22.1420  -12.8560   22.1140 N   0  0  0  0  0  0  0  0  0  0  0  0
  -22.4180  -14.6000   20.7510 O   0  0  0  0  0  0  0  0  0  0  0  0
  -22.5150  -12.0200   22.5410 H   0  0  0  0  0  0  0  0  0  0  0  0
  -21.2060  -13.1510   22.3510 H   0  0  0  0  0  0  0  0  0  0  0  0
  -25.4830  -15.2530   20.4420 N   0  0  0  0  0  0  0  0  0  0  0  0
  -24.7120  -15.9060   20.5360 H   0  0  0  0  0  0  0  0  0  0  0  0
  -26.3100  -15.6730   20.0410 H   0  0  0  0  0  0  0  0  0  0  0  0
  -28.4810  -21.7260   21.4190 C   0  0  0  0  0  2  0  0  0  0  0  0
  -29.2710  -23.0090   20.9880 C   0  0  0  0  0  2  0  0  0  0  0  0
  -28.4280  -24.2210   20.4340 C   0  0  0  0  0  2  0  0  0  0  0  0
  -28.6840  -25.6160   21.0930 C   0  0  0  0  0  2  0  0  0  0  0  0
  -28.5130  -26.7500   20.2170 O   0  0  0  0  0  0  0  0  0  0  0  0
  -24.6250  -31.9400   23.2630 C   0  0  0  0  0  0  0  0  0  0  0  0
  -27.3290  -27.4580   20.2810 C   0  0  0  0  0  0  0  0  0  0  0  0
  -23.4460  -30.5140   21.6180 C   0  0  0  0  0  3  0  0  0  0  0  0
  -24.9250  -28.9540   20.2420 C   0  0  0  0  0  0  0  0  0  0  0  0
  -25.9710  -30.8790   21.4510 C   0  0  0  0  0  2  0  0  0  0  0  0
  -26.0740  -29.4940   20.8370 C   0  0  0  0  0  0  0  0  0  0  0  0
  -27.2790  -28.7530   20.8520 C   0  0  0  0  0  3  0  0  0  0  0  0
  -26.1670  -26.9350   19.6810 C   0  0  0  0  0  3  0  0  0  0  0  0
  -24.9660  -27.6730   19.6610 C   0  0  0  0  0  3  0  0  0  0  0  0
  -23.6770  -29.8120   20.2540 C   0  0  0  0  0  2  0  0  0  0  0  0
  -24.6980  -31.1260   22.1700 N   0  0  0  0  0  0  0  0  0  0  0  0
  -23.5330  -32.2100   23.7880 O   0  0  0  0  0  0  0  0  0  0  0  0
  -22.7810  -29.5100   22.5870 C   0  0  0  0  0  0  0  0  0  0  0  0
  -21.4580  -29.3210   22.4470 N   0  0  0  0  0  0  0  0  0  0  0  0
  -23.4520  -28.8940   23.4200 O   0  0  0  0  0  0  0  0  0  0  0  0
  -20.9750  -29.8620   21.7440 H   0  0  0  0  0  0  0  0  0  0  0  0
  -18.0910  -28.0980   22.9120 C   0  0  0  0  0  0  0  0  0  0  0  0
  -20.6380  -28.3860   23.2160 C   0  0  0  0  0  3  0  0  0  0  0  0
  -20.7680  -26.9500   22.6560 C   0  0  0  0  0  2  0  0  0  0  0  0
  -19.6790  -26.6000   21.6350 C   0  0  0  0  0  2  0  0  0  0  0  0
  -18.2880  -26.7420   22.2600 C   0  0  0  0  0  2  0  0  0  0  0  0
  -19.1940  -28.8770   23.3480 C   0  0  0  0  0  0  0  0  0  0  0  0
  -18.9580  -30.1440   23.9240 C   0  0  0  0  0  3  0  0  0  0  0  0
  -17.6450  -30.6380   24.0620 C   0  0  0  0  0  3  0  0  0  0  0  0
  -16.5550  -29.8600   23.6340 C   0  0  0  0  0  3  0  0  0  0  0  0
  -16.7780  -28.5900   23.0730 C   0  0  0  0  0  3  0  0  0  0  0  0
  -25.9000  -32.5860   23.8880 C   0  0  0  0  0  3  0  0  0  0  0  0
  -25.5850  -33.9890   24.1910 N   0  0  0  0  0  0  0  0  0  0  0  0
  -25.9260  -35.0290   23.4160 C   0  0  0  0  0  0  0  0  0  0  0  0
  -26.6110  -34.9090   22.3960 O   0  0  0  0  0  0  0  0  0  0  0  0
  -24.9860  -34.1600   24.9860 H   0  0  0  0  0  0  0  0  0  0  0  0
  -24.2060  -36.8150   23.0030 C   0  0  0  0  0  1  0  0  0  0  0  0
  -25.4340  -36.4250   23.8420 C   0  0  0  0  0  3  0  0  0  0  0  0
  -27.5530  -37.3250   24.6970 C   0  0  0  0  0  1  0  0  0  0  0  0
  -26.4700  -37.4760   23.7280 N   0  0  0  0  0  0  0  0  0  0  0  0
  -26.0600  -38.3980   23.8540 H   0  0  0  0  0  0  0  0  0  0  0  0
  -26.4060  -31.8370   25.1820 C   0  0  1  0  0  0  0  0  0  0  0  0
  -25.3030  -31.6080   26.2410 C   0  0  0  0  0  1  0  0  0  0  0  0
  -26.9980  -30.4570   24.8150 C   0  0  0  0  0  1  0  0  0  0  0  0
  -27.5470  -32.6440   25.8460 C   0  0  0  0  0  1  0  0  0  0  0  0
  2  1  2  0
  3  4  2  0
  3  2  1  0
  4  5  1  0
  5  1  1  0
  5 50  1  0
  6  7  1  6
  6  8  1  0
  6  3  1  0
  9  6  1  0
 11 10  1  0
 11  2  1  0
 11 20  1  0
 12 20  1  0
 13 18  1  0
 14 15  1  0
 14 13  1  0
 16 15  1  0
 16 25  1  0
 16 17  1  0
 18 12  1  0
 18 17  1  0
 19 12  2  0
 20 21  1  0
 22 23  2  0
 23 42  1  0
 24 23  1  0
 24 27  1  0
 25 22  1  0
 25 26  1  0
 26 24  2  0
 27 28  1  0
 28 29  2  0
 30 33  1  0
 30 29  1  0
 31 30  2  0
 32 31  1  0
 32 27  2  0
 33 34  1  0
 34 35  1  0
 35 36  2  0
 37 36  1  0
 37 41  1  0
 38 37  2  0
 39 34  2  0
 39 38  1  0
 40 39  1  0
 42 43  1  0
 43 46  1  0
 43 45  1  0
 44 42  2  0
 47 48  1  0
 47 22  1  0
 49 47  1  0
 51 50  1  0
 52 51  1  0
 52 53  1  0
 54 56  1  0
 54 53  1  0
 55 66  2  0
 56 61  1  0
 57 65  1  0
 57 67  1  0
 58 64  1  0
 58 60  1  0
 59 65  1  0
 60 61  2  0
 60 59  1  0
 62 56  2  0
 63 62  1  0
 63 58  2  0
 64 57  1  0
 65 55  1  0
 67 69  2  0
 68 67  1  0
 70 68  1  0
 71 80  2  0
 71 76  1  0
 72 68  1  0
 72 76  1  0
 73 72  1  0
 74 75  1  0
 74 73  1  0
 75 71  1  0
 76 77  2  0
 77 78  1  0
 79 78  2  0
 80 79  1  0
 81 55  1  0
 81 82  1  0
 81 91  1  0
 82 85  1  0
 83 87  1  0
 83 82  1  0
 84 83  2  0
 87 86  1  0
 89 87  1  0
 89 90  1  0
 89 88  1  0
 91 94  1  1
 91 92  1  0
 93 91  1  0
M  ISO  4  12 100  20 100  53 101  54 101
M  END
>  <TORSDO>  (30) 
F 22

>  <SCORE>  (30) 
-13.584

>  <name>  (30) 
29

>  <ligand_id>  (30) 
29

>  <original_smiles>  (30) 
[H]c1c([H])c([H])c2c(c1[H])C([H])([H])C([H])([H])C([H])([H])C2([H])N([H])C(=O)C1([H])N(C(=O)C([H])(N([H])C(=O)C([H])(N([H])C([H])([H])[H])C([H])([H])[H])C(C([H])([H])[H])(C([H])([H])[H])C([H])([H])[H])C([H])([H])c2c([H])c(OC([H])([H])C([H])([H])C([H])([H])C([H])([H])n3nc(C(F)(F)F)c(C([H])(N([H])C(=O)N4C([H])([H])C([H])([H])C([H])([H])C([H])(n5nc(-c6c([H])c([H])c(Oc7c([H])c([H])c(F)c([H])c7F)c([H])c6[H])c(C(=O)N([H])[H])c5N([H])[H])C4([H])[H])C([H])([H])[H])c3[H])c([H])c([H])c2C1([H])[H]

>  <smiles>  (30) 
[H]c1c([H])c([H])c2c(c1[H])C([H])([H])C([H])([H])C([H])([H])C2([H])N([H])C(=O)C1([H])N(C(=O)C([H])(N([H])C(=O)C([H])(N([H])C([H])([H])[H])C([H])([H])[H])C(C([H])([H])[H])(C([H])([H])[H])C([H])([H])[H])C([H])([H])c2c([H])c(OC([H])([H])C([H])([H])C([H])([H])C([H])([H])n3nc(C(F)(F)F)c(C([H])(N([H])C(=O)N4C([H])([H])C([H])([H])C([H])([H])C([H])(n5nc(-c6c([H])c([H])c(Oc7c([H])c([H])c(F)c([H])c7F)c([H])c6[H])c(C(=O)N([H])[H])c5N([H])[H])C4([H])[H])C([H])([H])[H])c3[H])c([H])c([H])c2C1([H])[H]

$$$$
30:0:0
     RDKit          3D

 91 99  0  0  1  0  0  0  0  0999 V2000
  -29.6720  -20.2270   20.5040 C   0  0  0  0  0  3  0  0  0  0  0  0
  -30.6670  -19.5070   22.7090 C   0  0  0  0  0  3  0  0  0  0  0  0
  -30.4440  -17.8860   21.4110 C   0  0  0  0  0  0  0  0  0  0  0  0
  -31.0950  -18.4580   23.4100 N   0  0  0  0  0  0  0  0  0  0  0  0
  -30.9420  -17.3930   22.5600 N   0  0  0  0  0  0  0  0  0  0  0  0
  -30.2220  -19.2410   21.4660 N   0  0  0  0  0  0  0  0  0  0  0  0
  -28.9540  -17.3050   19.3910 C   0  0  0  0  0  1  0  0  0  0  0  0
  -30.2190  -16.9740   20.2040 C   0  0  0  0  0  3  0  0  0  0  0  0
  -30.8840  -14.5180   20.2600 C   0  0  0  0  0  0  0  0  0  0  0  0
  -30.5840  -12.3180   19.1860 C   0  0  0  0  0  2  0  0  0  0  0  0
  -29.6310  -12.5140   17.9860 C   0  0  0  0  0  2  0  0  0  0  0  0
  -28.1570  -12.4120   18.4280 C   0  0  0  0  0  2  0  0  0  0  0  0
  -27.8480  -13.2720   19.6840 C   0  0  0  0  0  3  0  0  0  0  0  0
  -28.9110  -13.0430   20.7850 C   0  0  0  0  0  2  0  0  0  0  0  0
  -30.2320  -13.3220   20.2030 N   0  0  0  0  0  0  0  0  0  0  0  0
  -32.0150  -14.6860   19.7970 O   0  0  0  0  0  0  0  0  0  0  0  0
  -30.1060  -15.5550   20.6290 N   0  0  0  0  0  0  0  0  0  0  0  0
  -29.2330  -15.3090   21.0660 H   0  0  0  0  0  0  0  0  0  0  0  0
  -25.4770  -13.9550   20.4200 C   0  0  0  0  0  0  0  0  0  0  0  0
  -24.3910  -13.2150   20.8070 C   0  0  0  0  0  0  0  0  0  0  0  0
  -24.8110  -11.8500   20.7720 C   0  0  0  0  0  0  0  0  0  0  0  0
  -26.4930  -13.0410   20.1770 N   0  0  0  0  0  0  0  0  0  0  0  0
  -26.0950  -11.7720   20.4470 N   0  0  0  0  0  0  0  0  0  0  0  0
  -24.0520  -10.6110   20.9750 C   0  0  0  0  0  0  0  0  0  0  0  0
  -24.4640   -9.6370   21.9100 C   0  0  0  0  0  3  0  0  0  0  0  0
  -23.7070   -8.4620   22.1020 C   0  0  0  0  0  3  0  0  0  0  0  0
  -22.5230   -8.2510   21.3570 C   0  0  0  0  0  0  0  0  0  0  0  0
  -22.1280   -9.2130   20.4110 C   0  0  0  0  0  3  0  0  0  0  0  0
  -22.8850  -10.3800   20.2180 C   0  0  0  0  0  3  0  0  0  0  0  0
  -21.7400   -7.1270   21.4550 O   0  0  0  0  0  0  0  0  0  0  0  0
  -21.6710   -6.3980   22.6150 C   0  0  0  0  0  0  0  0  0  0  0  0
  -21.2660   -6.9780   23.8370 C   0  0  0  0  0  3  0  0  0  0  0  0
  -21.1360   -6.1770   24.9890 C   0  0  0  0  0  3  0  0  0  0  0  0
  -21.4070   -4.7980   24.9220 C   0  0  0  0  0  0  0  0  0  0  0  0
  -21.8070   -4.2170   23.7050 C   0  0  0  0  0  3  0  0  0  0  0  0
  -21.9360   -5.0150   22.5540 C   0  0  0  0  0  0  0  0  0  0  0  0
  -22.2990   -4.4460   21.3800 F   0  0  0  0  0  0  0  0  0  0  0  0
  -21.2780   -4.0250   26.0270 F   0  0  0  0  0  0  0  0  0  0  0  0
  -23.0120  -13.7340   21.0970 C   0  0  0  0  0  0  0  0  0  0  0  0
  -22.2780  -13.0670   21.9800 N   0  0  0  0  0  0  0  0  0  0  0  0
  -22.5940  -14.7650   20.5720 O   0  0  0  0  0  0  0  0  0  0  0  0
  -22.6320  -12.2350   22.4300 H   0  0  0  0  0  0  0  0  0  0  0  0
  -21.3540  -13.3990   22.2170 H   0  0  0  0  0  0  0  0  0  0  0  0
  -25.6780  -15.3190   20.2360 N   0  0  0  0  0  0  0  0  0  0  0  0
  -24.9270  -15.9900   20.3500 H   0  0  0  0  0  0  0  0  0  0  0  0
  -26.5170  -15.7270   19.8460 H   0  0  0  0  0  0  0  0  0  0  0  0
  -29.5140  -21.6880   21.0570 C   0  0  0  0  0  3  0  0  0  0  0  0
  -28.9920  -22.7650   20.0550 C   0  0  0  0  0  3  0  0  0  0  0  0
  -28.7110  -24.1710   20.6800 C   0  0  0  0  0  3  0  0  0  0  0  0
  -28.5800  -25.3540   19.6680 C   0  0  0  0  0  2  0  0  0  0  0  0
  -28.4110  -26.6520   20.2960 O   0  0  0  0  0  0  0  0  0  0  0  0
  -24.5800  -31.9070   23.2510 C   0  0  0  0  0  0  0  0  0  0  0  0
  -27.2140  -27.3600   20.2600 C   0  0  0  0  0  0  0  0  0  0  0  0
  -23.3760  -30.4910   21.6210 C   0  0  0  0  0  3  0  0  0  0  0  0
  -24.8260  -28.9110   20.2360 C   0  0  0  0  0  0  0  0  0  0  0  0
  -25.9090  -30.8170   21.4370 C   0  0  0  0  0  2  0  0  0  0  0  0
  -25.9860  -29.4290   20.8230 C   0  0  0  0  0  0  0  0  0  0  0  0
  -27.1780  -28.6610   20.8280 C   0  0  0  0  0  3  0  0  0  0  0  0
  -26.0230  -26.8580   19.6860 C   0  0  0  0  0  3  0  0  0  0  0  0
  -24.8420  -27.6270   19.6660 C   0  0  0  0  0  3  0  0  0  0  0  0
  -23.5900  -29.7840   20.2550 C   0  0  0  0  0  2  0  0  0  0  0  0
  -24.6410  -31.0880   22.1620 N   0  0  0  0  0  0  0  0  0  0  0  0
  -23.4960  -32.1960   23.7760 O   0  0  0  0  0  0  0  0  0  0  0  0
  -22.7070  -29.4910   22.5940 C   0  0  0  0  0  0  0  0  0  0  0  0
  -21.3860  -29.3010   22.4420 N   0  0  0  0  0  0  0  0  0  0  0  0
  -23.3750  -28.8880   23.4380 O   0  0  0  0  0  0  0  0  0  0  0  0
  -20.9100  -29.8380   21.7320 H   0  0  0  0  0  0  0  0  0  0  0  0
  -18.0120  -28.0810   22.8730 C   0  0  0  0  0  0  0  0  0  0  0  0
  -20.5560  -28.3770   23.2160 C   0  0  0  0  0  3  0  0  0  0  0  0
  -20.6920  -26.9300   22.6870 C   0  0  0  0  0  2  0  0  0  0  0  0
  -19.6260  -26.5640   21.6500 C   0  0  0  0  0  2  0  0  0  0  0  0
  -18.2230  -26.7130   22.2470 C   0  0  0  0  0  2  0  0  0  0  0  0
  -19.1080  -28.8680   23.3140 C   0  0  0  0  0  0  0  0  0  0  0  0
  -18.8580  -30.1480   23.8570 C   0  0  0  0  0  3  0  0  0  0  0  0
  -17.5430  -30.6390   23.9660 C   0  0  0  0  0  3  0  0  0  0  0  0
  -16.4610  -29.8490   23.5420 C   0  0  0  0  0  3  0  0  0  0  0  0
  -16.6960  -28.5720   23.0010 C   0  0  0  0  0  3  0  0  0  0  0  0
  -25.8640  -32.5380   23.8750 C   0  0  0  0  0  3  0  0  0  0  0  0
  -25.5630  -33.9430   24.1800 N   0  0  0  0  0  0  0  0  0  0  0  0
  -25.9080  -34.9800   23.4070 C   0  0  0  0  0  0  0  0  0  0  0  0
  -26.5850  -34.8550   22.3820 O   0  0  0  0  0  0  0  0  0  0  0  0
  -24.9580  -34.1140   24.9690 H   0  0  0  0  0  0  0  0  0  0  0  0
  -24.1900  -36.7780   23.0150 C   0  0  0  0  0  1  0  0  0  0  0  0
  -25.4270  -36.3800   23.8370 C   0  0  0  0  0  3  0  0  0  0  0  0
  -27.5660  -37.2630   24.6590 C   0  0  0  0  0  1  0  0  0  0  0  0
  -26.4660  -37.4240   23.7110 N   0  0  0  0  0  0  0  0  0  0  0  0
  -26.0650  -38.3490   23.8440 H   0  0  0  0  0  0  0  0  0  0  0  0
  -26.3640  -31.7830   25.1660 C   0  0  1  0  0  0  0  0  0  0  0  0
  -25.2600  -31.5660   26.2260 C   0  0  0  0  0  1  0  0  0  0  0  0
  -26.9420  -30.3970   24.7960 C   0  0  0  0  0  1  0  0  0  0  0  0
  -27.5140  -32.5770   25.8290 C   0  0  0  0  0  1  0  0  0  0  0  0
  1 47  2  0
  1  6  1  0
  2  4  2  0
  3  6  1  0
  3  5  2  0
  5  4  1  0
  6  2  1  0
  8  7  1  0
  8 17  1  0
  8  3  1  0
  9 17  1  0
 10 15  1  0
 11 12  1  0
 11 10  1  0
 13 12  1  0
 13 22  1  0
 13 14  1  0
 15  9  1  0
 15 14  1  0
 16  9  2  0
 17 18  1  0
 19 20  2  0
 20 39  1  0
 21 20  1  0
 21 24  1  0
 22 19  1  0
 22 23  1  0
 23 21  2  0
 24 25  1  0
 25 26  2  0
 27 30  1  0
 27 26  1  0
 28 27  2  0
 29 28  1  0
 29 24  2  0
 30 31  1  0
 31 32  1  0
 32 33  2  0
 34 33  1  0
 34 38  1  0
 35 34  2  0
 36 31  2  0
 36 35  1  0
 37 36  1  0
 39 40  1  0
 40 43  1  0
 40 42  1  0
 41 39  2  0
 44 45  1  0
 44 19  1  0
 46 44  1  0
 48 49  2  0
 48 47  1  0
 50 51  1  0
 50 49  1  0
 52 63  2  0
 53 51  1  0
 53 58  1  0
 54 62  1  0
 54 64  1  0
 55 61  1  0
 55 57  1  0
 56 62  1  0
 57 58  2  0
 57 56  1  0
 59 53  2  0
 60 59  1  0
 60 55  2  0
 61 54  1  0
 62 52  1  0
 64 66  2  0
 65 64  1  0
 67 65  1  0
 68 77  2  0
 68 73  1  0
 69 65  1  0
 69 73  1  0
 70 69  1  0
 71 72  1  0
 71 70  1  0
 72 68  1  0
 73 74  2  0
 74 75  1  0
 76 75  2  0
 77 76  1  0
 78 52  1  0
 78 79  1  0
 78 88  1  0
 79 82  1  0
 80 84  1  0
 80 79  1  0
 81 80  2  0
 84 83  1  0
 86 84  1  0
 86 87  1  0
 86 85  1  0
 88 91  1  1
 88 89  1  0
 90 88  1  0
M  ISO  4   9 100  17 100  50 101  51 101
M  END
>  <TORSDO>  (31) 
F 22

>  <SCORE>  (31) 
-12.541

>  <name>  (31) 
30

>  <ligand_id>  (31) 
30

>  <original_smiles>  (31) 
[H]c1c([H])c([H])c2c(c1[H])C([H])([H])C([H])([H])C([H])([H])C2([H])N([H])C(=O)C1([H])N(C(=O)C([H])(N([H])C(=O)C([H])(N([H])C([H])([H])[H])C([H])([H])[H])C(C([H])([H])[H])(C([H])([H])[H])C([H])([H])[H])C([H])([H])c2c([H])c(OC([H])([H])C([H])([H])C([H])([H])C([H])([H])C([H])([H])n3c([H])nnc3C([H])(N([H])C(=O)N3C([H])([H])C([H])([H])C([H])([H])C([H])(n4nc(-c5c([H])c([H])c(Oc6c([H])c([H])c(F)c([H])c6F)c([H])c5[H])c(C(=O)N([H])[H])c4N([H])[H])C3([H])[H])C([H])([H])[H])c([H])c([H])c2C1([H])[H]

>  <smiles>  (31) 
[H]c1c([H])c([H])c2c(c1[H])C([H])([H])C([H])([H])C([H])([H])C2([H])N([H])C(=O)C1([H])N(C(=O)C([H])(N([H])C(=O)C([H])(N([H])C([H])([H])[H])C([H])([H])[H])C(C([H])([H])[H])(C([H])([H])[H])C([H])([H])[H])C([H])([H])c2c([H])c(OC([H])([H])C([H])([H])C([H])([H])C([H])([H])C([H])([H])n3c([H])nnc3C([H])(N([H])C(=O)N3C([H])([H])C([H])([H])C([H])([H])C([H])(n4nc(-c5c([H])c([H])c(Oc6c([H])c([H])c(F)c([H])c6F)c([H])c5[H])c(C(=O)N([H])[H])c4N([H])[H])C3([H])[H])C([H])([H])[H])c([H])c([H])c2C1([H])[H]

$$$$
31:0:0
     RDKit          3D

 84 91  0  0  1  0  0  0  0  0999 V2000
  -29.0470  -21.9370   20.2700 C   0  0  0  0  0  1  0  0  0  0  0  0
  -27.9150  -19.1930   20.2670 C   0  0  0  0  0  2  0  0  0  0  0  0
  -29.4910  -17.5410   20.1670 C   0  0  0  0  0  0  0  0  0  0  0  0
  -28.1190  -17.8000   20.2480 N   0  0  0  0  0  0  0  0  0  0  0  0
  -30.0010  -18.9350   20.1400 N   0  0  0  0  0  2  0  0  0  0  0  0
  -28.9470  -20.0920   20.1980 N   0  0  0  0  0  0  0  0  0  0  0  0
  -30.2290  -15.8680   20.0870 C   0  0  0  0  0  0  0  0  0  0  0  0
  -30.3700  -13.2730   19.3310 C   0  0  0  0  0  2  0  0  0  0  0  0
  -29.4770  -12.8030   18.1420 C   0  0  0  0  0  2  0  0  0  0  0  0
  -28.0720  -12.4150   18.6240 C   0  0  0  0  0  2  0  0  0  0  0  0
  -27.5520  -13.4270   19.6660 C   0  0  0  0  0  3  0  0  0  0  0  0
  -28.5850  -13.8150   20.7500 C   0  0  0  0  0  2  0  0  0  0  0  0
  -29.7350  -14.4700   20.0750 N   0  0  0  0  0  0  0  0  0  0  0  0
  -31.4600  -15.7600   19.8840 O   0  0  0  0  0  0  0  0  0  0  0  0
  -25.2180  -13.9210   20.5210 C   0  0  0  0  0  0  0  0  0  0  0  0
  -24.1730  -13.1280   20.8990 C   0  0  0  0  0  0  0  0  0  0  0  0
  -24.6480  -11.7810   20.8250 C   0  0  0  0  0  0  0  0  0  0  0  0
  -26.2570  -13.0620   20.2240 N   0  0  0  0  0  0  0  0  0  0  0  0
  -25.9340  -11.7650   20.4750 N   0  0  0  0  0  0  0  0  0  0  0  0
  -23.9300  -10.5110   21.0100 C   0  0  0  0  0  0  0  0  0  0  0  0
  -24.3600   -9.5450   21.9450 C   0  0  0  0  0  3  0  0  0  0  0  0
  -23.6370   -8.3450   22.1200 C   0  0  0  0  0  3  0  0  0  0  0  0
  -22.4680   -8.1020   21.3590 C   0  0  0  0  0  0  0  0  0  0  0  0
  -22.0560   -9.0590   20.4140 C   0  0  0  0  0  3  0  0  0  0  0  0
  -22.7800  -10.2500   20.2380 C   0  0  0  0  0  3  0  0  0  0  0  0
  -21.7170   -6.9550   21.4430 O   0  0  0  0  0  0  0  0  0  0  0  0
  -21.6270   -6.2350   22.6080 C   0  0  0  0  0  0  0  0  0  0  0  0
  -21.1150   -6.8000   23.7950 C   0  0  0  0  0  3  0  0  0  0  0  0
  -20.9760   -6.0050   24.9510 C   0  0  0  0  0  3  0  0  0  0  0  0
  -21.3390   -4.6460   24.9180 C   0  0  0  0  0  0  0  0  0  0  0  0
  -21.8450   -4.0800   23.7350 C   0  0  0  0  0  3  0  0  0  0  0  0
  -21.9860   -4.8720   22.5820 C   0  0  0  0  0  0  0  0  0  0  0  0
  -22.4520   -4.3150   21.4390 F   0  0  0  0  0  0  0  0  0  0  0  0
  -21.2000   -3.8800   26.0260 F   0  0  0  0  0  0  0  0  0  0  0  0
  -22.7820  -13.5920   21.2110 C   0  0  0  0  0  0  0  0  0  0  0  0
  -22.0830  -12.8870   22.0910 N   0  0  0  0  0  0  0  0  0  0  0  0
  -22.3250  -14.6190   20.7090 O   0  0  0  0  0  0  0  0  0  0  0  0
  -22.4670  -12.0560   22.5190 H   0  0  0  0  0  0  0  0  0  0  0  0
  -21.1500  -13.1800   22.3440 H   0  0  0  0  0  0  0  0  0  0  0  0
  -25.3680  -15.2970   20.3750 N   0  0  0  0  0  0  0  0  0  0  0  0
  -24.6060  -15.9440   20.5510 H   0  0  0  0  0  0  0  0  0  0  0  0
  -26.2260  -15.7660   20.1070 H   0  0  0  0  0  0  0  0  0  0  0  0
  -28.0060  -23.6450   20.1820 C   0  0  0  0  0  1  0  0  0  0  0  0
  -28.1460  -25.4510   20.3090 O   0  0  0  0  0  0  0  0  0  0  0  0
  -24.6890  -31.8820   23.2220 C   0  0  0  0  0  0  0  0  0  0  0  0
  -27.1870  -26.7070   20.2570 C   0  0  0  0  0  0  0  0  0  0  0  0
  -23.4990  -30.4870   21.5850 C   0  0  0  0  0  3  0  0  0  0  0  0
  -24.9400  -28.8100   20.1850 C   0  0  0  0  0  0  0  0  0  0  0  0
  -26.0830  -30.5880   21.4790 C   0  0  0  0  0  2  0  0  0  0  0  0
  -26.1390  -29.1450   20.8260 C   0  0  0  0  0  0  0  0  0  0  0  0
  -27.2420  -28.1250   20.8240 C   0  0  0  0  0  3  0  0  0  0  0  0
  -25.9540  -26.6060   19.5570 C   0  0  0  0  0  3  0  0  0  0  0  0
  -24.8920  -27.5680   19.5250 C   0  0  0  0  0  3  0  0  0  0  0  0
  -23.7430  -29.7790   20.2190 C   0  0  0  0  0  2  0  0  0  0  0  0
  -24.7820  -31.0210   22.1470 N   0  0  0  0  0  0  0  0  0  0  0  0
  -23.5950  -32.1930   23.7240 O   0  0  0  0  0  0  0  0  0  0  0  0
  -22.7670  -29.5230   22.5580 C   0  0  0  0  0  0  0  0  0  0  0  0
  -21.4340  -29.3790   22.4290 N   0  0  0  0  0  0  0  0  0  0  0  0
  -23.4130  -28.9000   23.4040 O   0  0  0  0  0  0  0  0  0  0  0  0
  -20.9610  -29.9310   21.7270 H   0  0  0  0  0  0  0  0  0  0  0  0
  -18.0360  -28.1900   22.9410 C   0  0  0  0  0  0  0  0  0  0  0  0
  -20.5980  -28.4500   23.2010 C   0  0  0  0  0  3  0  0  0  0  0  0
  -20.6910  -27.0150   22.6310 C   0  0  0  0  0  2  0  0  0  0  0  0
  -19.5890  -26.6960   21.6160 C   0  0  0  0  0  2  0  0  0  0  0  0
  -18.2080  -26.8430   22.2600 C   0  0  0  0  0  2  0  0  0  0  0  0
  -19.1560  -28.9510   23.3680 C   0  0  0  0  0  0  0  0  0  0  0  0
  -18.9370  -30.2090   23.9720 C   0  0  0  0  0  3  0  0  0  0  0  0
  -17.6320  -30.7060   24.1480 C   0  0  0  0  0  3  0  0  0  0  0  0
  -16.5260  -29.9440   23.7320 C   0  0  0  0  0  3  0  0  0  0  0  0
  -16.7290  -28.6870   23.1360 C   0  0  0  0  0  3  0  0  0  0  0  0
  -25.9510  -32.5300   23.8680 C   0  0  0  0  0  3  0  0  0  0  0  0
  -25.6300  -33.9310   24.2090 N   0  0  0  0  0  0  0  0  0  0  0  0
  -25.9280  -34.9990   23.4550 C   0  0  0  0  0  0  0  0  0  0  0  0
  -26.5570  -34.9090   22.3990 O   0  0  0  0  0  0  0  0  0  0  0  0
  -25.0620  -34.0730   25.0310 H   0  0  0  0  0  0  0  0  0  0  0  0
  -24.1630  -36.7850   23.2240 C   0  0  0  0  0  1  0  0  0  0  0  0
  -25.4590  -36.3860   23.9480 C   0  0  0  0  0  3  0  0  0  0  0  0
  -27.6280  -37.3070   24.6440 C   0  0  0  0  0  1  0  0  0  0  0  0
  -26.4700  -37.4520   23.7680 N   0  0  0  0  0  0  0  0  0  0  0  0
  -26.0610  -38.3680   23.9330 H   0  0  0  0  0  0  0  0  0  0  0  0
  -26.4390  -31.7700   25.1630 C   0  0  1  0  0  0  0  0  0  0  0  0
  -25.3270  -31.5470   26.2160 C   0  0  0  0  0  1  0  0  0  0  0  0
  -27.0240  -30.3850   24.8090 C   0  0  0  0  0  1  0  0  0  0  0  0
  -27.5830  -32.5640   25.8380 C   0  0  0  0  0  1  0  0  0  0  0  0
  3  4  2  0
  4  2  1  0
  5  3  1  0
  5  6  1  0
  6  2  1  0
  6  1  1  0
  7  3  1  0
  8 13  1  0
  9 10  1  0
  9  8  1  0
 11 10  1  0
 11 18  1  0
 11 12  1  0
 13  7  1  0
 13 12  1  0
 14  7  2  0
 15 16  2  0
 16 35  1  0
 17 16  1  0
 17 20  1  0
 18 19  1  0
 18 15  1  0
 19 17  2  0
 20 21  1  0
 21 22  2  0
 23 26  1  0
 23 22  1  0
 24 23  2  0
 25 24  1  0
 25 20  2  0
 26 27  1  0
 27 28  1  0
 28 29  2  0
 30 29  1  0
 30 34  1  0
 31 30  2  0
 32 27  2  0
 32 31  1  0
 33 32  1  0
 35 36  1  0
 36 39  1  0
 36 38  1  0
 37 35  2  0
 40 15  1  0
 40 41  1  0
 42 40  1  0
 43 44  1  0
 45 56  2  0
 46 44  1  0
 46 51  1  0
 47 55  1  0
 47 57  1  0
 48 54  1  0
 48 50  1  0
 49 55  1  0
 50 49  1  0
 51 50  2  0
 52 46  2  0
 53 52  1  0
 53 48  2  0
 54 47  1  0
 55 45  1  0
 57 59  2  0
 58 57  1  0
 60 58  1  0
 61 70  2  0
 61 66  1  0
 62 58  1  0
 62 66  1  0
 63 62  1  0
 64 65  1  0
 64 63  1  0
 65 61  1  0
 66 67  2  0
 67 68  1  0
 69 68  2  0
 70 69  1  0
 71 45  1  0
 71 72  1  0
 71 81  1  0
 72 75  1  0
 73 77  1  0
 73 72  1  0
 74 73  2  0
 77 76  1  0
 79 80  1  0
 79 77  1  0
 79 78  1  0
 81 84  1  1
 81 82  1  0
 83 81  1  0
M  ISO  4   3 100   7 100  43 101  44 101
M  END
>  <TORSDO>  (32) 
F 18

>  <SCORE>  (32) 
-16.527

>  <name>  (32) 
31

>  <ligand_id>  (32) 
31

>  <original_smiles>  (32) 
[H]c1c([H])c([H])c2c(c1[H])C([H])([H])C([H])([H])C([H])([H])C2([H])N([H])C(=O)C1([H])N(C(=O)C([H])(N([H])C(=O)C([H])(N([H])C([H])([H])[H])C([H])([H])[H])C(C([H])([H])[H])(C([H])([H])[H])C([H])([H])[H])C([H])([H])c2c([H])c(OC([H])([H])C([H])([H])n3nc(C(=O)N4C([H])([H])C([H])([H])C([H])([H])C([H])(n5nc(-c6c([H])c([H])c(Oc7c([H])c([H])c(F)c([H])c7F)c([H])c6[H])c(C(=O)N([H])[H])c5N([H])[H])C4([H])[H])nc3[H])c([H])c([H])c2C1([H])[H]

>  <smiles>  (32) 
[H]c1c([H])c([H])c2c(c1[H])C([H])([H])C([H])([H])C([H])([H])C2([H])N([H])C(=O)C1([H])N(C(=O)C([H])(N([H])C(=O)C([H])(N([H])C([H])([H])[H])C([H])([H])[H])C(C([H])([H])[H])(C([H])([H])[H])C([H])([H])[H])C([H])([H])c2c([H])c(OC([H])([H])C([H])([H])n3nc(C(=O)N4C([H])([H])C([H])([H])C([H])([H])C([H])(n5nc(-c6c([H])c([H])c(Oc7c([H])c([H])c(F)c([H])c7F)c([H])c6[H])c(C(=O)N([H])[H])c5N([H])[H])C4([H])[H])nc3[H])c([H])c([H])c2C1([H])[H]

$$$$
32:0:0
     RDKit          3D

 96 96  0  0  1  0  0  0  0  0999 V2000
  -30.1110  -16.1480   18.8890 C   0  0  0  0  0  2  0  0  0  0  0  0
  -29.5910  -14.5590   19.0600 C   0  0  0  0  0  3  0  0  0  0  0  0
  -28.9780  -14.8200   19.2630 C   0  0  0  0  0  3  0  0  0  0  0  0
  -30.4290  -12.4570   19.4020 C   0  0  0  0  0  3  0  0  0  0  0  0
  -29.1550  -15.6380   18.1710 N   0  0  0  0  0  2  0  0  0  0  0  0
  -29.5310  -13.1690   19.3050 N   0  0  0  0  0  2  0  0  0  0  0  0
  -26.7100  -16.0760   19.0740 C   0  0  0  0  0  1  0  0  0  0  0  0
  -27.8950  -17.4860   20.1810 C   0  0  0  0  0  1  0  0  0  0  0  0
  -27.9430  -15.9340   20.1120 C   0  0  2  0  0  0  0  0  0  0  0  0
  -28.2830  -15.7590   21.7080 C   0  0  0  0  0  2  0  0  0  0  0  0
  -30.9420  -14.9360   21.7930 C   0  0  0  0  0  0  0  0  0  0  0  0
  -31.8410  -13.5410   19.4980 C   0  0  0  0  0  1  0  0  0  0  0  0
  -30.4050  -12.7930   17.6220 C   0  0  0  0  0  1  0  0  0  0  0  0
  -28.0280  -12.7200   18.0100 C   0  0  0  0  0  1  0  0  0  0  0  0
  -27.3810  -12.8900   20.3630 C   0  0  0  0  0  1  0  0  0  0  0  0
  -28.9570  -13.1330   21.8630 C   0  0  0  0  0 15  0  0  0  0  0  0
  -30.8070  -13.7100   21.4070 N   0  0  0  0  0  1  0  0  0  0  0  0
  -32.0660  -15.3430   21.5600 O   0  0  0  0  0  0  0  0  0  0  0  0
  -29.8120  -15.7140   22.1000 N   0  0  0  0  0  0  0  0  0  0  0  0
  -30.1250  -16.6320   22.3800 H   0  0  0  0  0  0  0  0  0  0  0  0
  -25.1450  -13.4910   21.1500 C   0  0  0  0  0  3  0  0  0  0  0  0
  -24.0810  -12.7240   21.2770 C   0  0  0  0  0  0  0  0  0  0  0  0
  -24.5620  -11.3910   21.2250 C   0  0  0  0  0  0  0  0  0  0  0  0
  -26.1280  -12.5980   20.7790 N   0  0  0  0  0  0  0  0  0  0  0  0
  -25.8370  -11.3260   20.9620 N   0  0  0  0  0  2  0  0  0  0  0  0
  -23.8750  -10.1600   21.3420 C   0  0  0  0  0  0  0  0  0  0  0  0
  -24.2960   -9.1760   22.2510 C   0  0  0  0  0  3  0  0  0  0  0  0
  -23.5410   -8.0010   22.3710 C   0  0  0  0  0  3  0  0  0  0  0  0
  -22.3790   -7.8330   21.5820 C   0  0  0  0  0  0  0  0  0  0  0  0
  -22.0040   -8.8150   20.6500 C   0  0  0  0  0  3  0  0  0  0  0  0
  -22.7580   -9.9770   20.5220 C   0  0  0  0  0  3  0  0  0  0  0  0
  -21.5770   -6.7270   21.6240 O   0  0  0  0  0  0  0  0  0  0  0  0
  -21.5340   -5.9440   22.7370 C   0  0  0  0  0  0  0  0  0  0  0  0
  -21.1590   -6.4480   24.0030 C   0  0  0  0  0  3  0  0  0  0  0  0
  -21.0580   -5.5710   25.1010 C   0  0  0  0  0  3  0  0  0  0  0  0
  -21.3150   -4.2000   24.9300 C   0  0  0  0  0  0  0  0  0  0  0  0
  -21.6860   -3.6990   23.6700 C   0  0  0  0  0  3  0  0  0  0  0  0
  -21.7930   -4.5710   22.5750 C   0  0  0  0  0  0  0  0  0  0  0  0
  -22.1320   -4.0910   21.3550 F   0  0  0  0  0  0  0  0  0  0  0  0
  -21.2040   -3.3510   25.9800 F   0  0  0  0  0  0  0  0  0  0  0  0
  -22.7220  -13.2790   21.4200 C   0  0  0  0  0  0  0  0  0  0  0  0
  -21.9180  -12.6400   22.2480 N   0  0  0  0  0  0  0  0  0  0  0  0
  -22.4160  -14.3320   20.8550 O   0  0  0  0  0  0  0  0  0  0  0  0
  -22.2090  -11.7930   22.7130 H   0  0  0  0  0  0  0  0  0  0  0  0
  -20.9870  -12.9890   22.4210 H   0  0  0  0  0  0  0  0  0  0  0  0
  -25.2840  -14.8500   21.3790 N   0  0  0  0  0  0  0  0  0  0  0  0
  -24.4950  -15.4650   21.5400 H   0  0  0  0  0  0  0  0  0  0  0  0
  -26.1240  -15.3420   21.0970 H   0  0  0  0  0  0  0  0  0  0  0  0
  -28.8530  -10.2060   20.2570 C   0  0  0  0  0  1  0  0  0  0  0  0
  -28.9770  -10.4400   17.8470 C   0  0  0  0  0  1  0  0  0  0  0  0
  -28.6240  -11.2840   19.1330 C   0  0  0  0  0  3  0  0  0  0  0  0
  -29.9870  -18.1010   18.6100 C   0  0  0  0  0 15  0  0  0  0  0  0
  -29.1970  -19.8760   19.2590 C   0  0  0  0  0 15  0  0  0  0  0  0
  -29.2160  -21.8650   19.1950 C   0  0  0  0  0 15  0  0  0  0  0  0
  -28.1600  -23.5440   19.5700 C   0  0  0  0  0  1  0  0  0  0  0  0
  -28.2280  -25.3560   19.7850 O   0  0  0  0  0  0  0  0  0  0  0  0
  -24.6510  -31.7490   23.0090 C   0  0  0  0  0  0  0  0  0  0  0  0
  -27.2120  -26.5800   19.8940 C   0  0  0  0  0  0  0  0  0  0  0  0
  -23.4690  -30.3330   21.4020 C   0  0  0  0  0  3  0  0  0  0  0  0
  -24.9090  -28.6510   19.9900 C   0  0  0  0  0  0  0  0  0  0  0  0
  -26.0570  -30.4350   21.2690 C   0  0  0  0  0  2  0  0  0  0  0  0
  -26.1250  -28.9920   20.5950 C   0  0  0  0  0  0  0  0  0  0  0  0
  -27.2460  -27.9840   20.5200 C   0  0  0  0  0  3  0  0  0  0  0  0
  -25.9270  -26.4650   19.2900 C   0  0  0  0  0  3  0  0  0  0  0  0
  -24.8480  -27.4070   19.3370 C   0  0  0  0  0  3  0  0  0  0  0  0
  -23.7010  -29.6140   20.0390 C   0  0  0  0  0  2  0  0  0  0  0  0
  -24.7550  -30.8710   21.9460 N   0  0  0  0  0  0  0  0  0  0  0  0
  -23.5520  -32.0520   23.5090 O   0  0  0  0  0  0  0  0  0  0  0  0
  -22.7500  -29.3680   22.3810 C   0  0  0  0  0  0  0  0  0  0  0  0
  -21.4150  -29.2390   22.2780 N   0  0  0  0  0  0  0  0  0  0  0  0
  -23.4080  -28.7300   23.2060 O   0  0  0  0  0  0  0  0  0  0  0  0
  -20.9310  -29.7910   21.5850 H   0  0  0  0  0  0  0  0  0  0  0  0
  -18.0190  -28.0800   22.8680 C   0  0  0  0  0  0  0  0  0  0  0  0
  -20.5910  -28.3110   23.0640 C   0  0  0  0  0  3  0  0  0  0  0  0
  -20.6540  -26.8820   22.4770 C   0  0  0  0  0  2  0  0  0  0  0  0
  -19.5220  -26.5820   21.4900 C   0  0  0  0  0  2  0  0  0  0  0  0
  -18.1590  -26.7380   22.1690 C   0  0  0  0  0  2  0  0  0  0  0  0
  -19.1590  -28.8260   23.2750 C   0  0  0  0  0  0  0  0  0  0  0  0
  -18.9690  -30.0800   23.8970 C   0  0  0  0  0  3  0  0  0  0  0  0
  -17.6750  -30.5890   24.1130 C   0  0  0  0  0  3  0  0  0  0  0  0
  -16.5510  -29.8410   23.7200 C   0  0  0  0  0  3  0  0  0  0  0  0
  -16.7230  -28.5890   23.1020 C   0  0  0  0  0  3  0  0  0  0  0  0
  -25.8990  -32.4260   23.6510 C   0  0  0  0  0  3  0  0  0  0  0  0
  -25.5390  -33.8150   24.0130 N   0  0  0  0  0  0  0  0  0  0  0  0
  -25.8680  -34.9080   23.3130 C   0  0  0  0  0  0  0  0  0  0  0  0
  -26.5550  -34.8530   22.2910 O   0  0  0  0  0  0  0  0  0  0  0  0
  -24.9280  -33.9300   24.8060 H   0  0  0  0  0  0  0  0  0  0  0  0
  -24.1210  -36.7050   23.0120 C   0  0  0  0  0  1  0  0  0  0  0  0
  -25.3600  -36.2770   23.8170 C   0  0  0  0  0  3  0  0  0  0  0  0
  -27.4760  -37.1640   24.6990 C   0  0  0  0  0  1  0  0  0  0  0  0
  -26.3780  -37.3500   23.7560 N   0  0  0  0  0  0  0  0  0  0  0  0
  -25.9580  -38.2600   23.9320 H   0  0  0  0  0  0  0  0  0  0  0  0
  -26.4160  -31.6670   24.9370 C   0  0  1  0  0  0  0  0  0  0  0  0
  -25.3210  -31.4160   26.0020 C   0  0  0  0  0  1  0  0  0  0  0  0
  -27.0180  -30.2970   24.5570 C   0  0  0  0  0  1  0  0  0  0  0  0
  -27.5520  -32.4770   25.6030 C   0  0  0  0  0  1  0  0  0  0  0  0
  1  2  1  0
  2  3  1  0
  2  6  1  0
  3  9  1  0
  4 12  1  0
  5  1  1  0
  5  3  1  0
  6  4  1  0
  9  7  1  1
  9  8  1  0
  9 10  1  0
 10 19  1  0
 11 19  1  0
 13  4  1  0
 14 51  1  0
 15 24  1  0
 17 11  1  0
 18 11  2  0
 19 20  1  0
 21 22  1  0
 21 46  1  0
 22 41  1  0
 23 22  2  0
 23 26  1  0
 24 25  1  0
 24 21  1  0
 25 23  1  0
 26 27  1  0
 27 28  2  0
 29 32  1  0
 29 28  1  0
 30 29  2  0
 31 30  1  0
 31 26  2  0
 32 33  1  0
 33 34  1  0
 34 35  2  0
 36 35  1  0
 36 40  1  0
 37 36  2  0
 38 33  2  0
 38 37  1  0
 39 38  1  0
 41 42  1  0
 42 45  1  0
 42 44  1  0
 43 41  2  0
 46 47  1  0
 48 46  1  0
 50 51  1  0
 51 49  1  0
 55 56  1  0
 56 58  1  0
 57 68  2  0
 58 63  1  0
 59 67  1  0
 59 69  1  0
 60 66  1  0
 60 62  1  0
 61 67  1  0
 62 61  1  0
 63 62  2  0
 64 65  1  0
 64 58  2  0
 65 60  2  0
 66 59  1  0
 67 57  1  0
 69 71  2  0
 70 69  1  0
 72 70  1  0
 73 82  2  0
 73 78  1  0
 74 70  1  0
 74 78  1  0
 75 74  1  0
 76 77  1  0
 76 75  1  0
 77 73  1  0
 78 79  2  0
 79 80  1  0
 81 80  2  0
 82 81  1  0
 83 57  1  0
 83 84  1  0
 83 93  1  0
 84 87  1  0
 85 89  1  0
 85 84  1  0
 86 85  2  0
 89 88  1  0
 91 89  1  0
 91 92  1  0
 91 90  1  0
 93 96  1  1
 93 94  1  0
 95 93  1  0
M  ISO  4  11 100  19 100  55 101  56 101
M  END
>  <TORSDO>  (33) 
F 23

>  <SCORE>  (33) 
-11.060

>  <name>  (33) 
32

>  <ligand_id>  (33) 
32

>  <original_smiles>  (33) 
[H]c1c([H])c([H])c2c(c1[H])C([H])([H])C([H])([H])C([H])([H])C2([H])N([H])C(=O)C1([H])N(C(=O)C([H])(N([H])C(=O)C([H])(N([H])C([H])([H])[H])C([H])([H])[H])C(C([H])([H])[H])(C([H])([H])[H])C([H])([H])[H])C([H])([H])c2c([H])c(OC([H])([H])C([H])([H])C([H])([H])C([H])([H])c3nc(C(C([H])([H])[H])(C([H])([H])[H])C([H])([H])N([H])C(=O)N4C([H])([H])C([H])([H])C([H])([H])C([H])(n5nc(-c6c([H])c([H])c(Oc7c([H])c([H])c(F)c([H])c7F)c([H])c6[H])c(C(=O)N([H])[H])c5N([H])[H])C4([H])[H])n(C([H])(C([H])([H])[H])C([H])([H])[H])c3C([H])([H])[H])c([H])c([H])c2C1([H])[H]

>  <smiles>  (33) 
[H]c1c([H])c([H])c2c(c1[H])C([H])([H])C([H])([H])C([H])([H])C2([H])N([H])C(=O)C1([H])N(C(=O)C([H])(N([H])C(=O)C([H])(N([H])C([H])([H])[H])C([H])([H])[H])C(C([H])([H])[H])(C([H])([H])[H])C([H])([H])[H])C([H])([H])c2c([H])c(OC([H])([H])C([H])([H])C([H])([H])C([H])([H])c3nc(C(C([H])([H])[H])(C([H])([H])[H])C([H])([H])N([H])C(=O)N4C([H])([H])C([H])([H])C([H])([H])C([H])(n5nc(-c6c([H])c([H])c(Oc7c([H])c([H])c(F)c([H])c7F)c([H])c6[H])c(C(=O)N([H])[H])c5N([H])[H])C4([H])[H])n(C([H])(C([H])([H])[H])C([H])([H])[H])c3C([H])([H])[H])c([H])c([H])c2C1([H])[H]

$$$$
33:0:0
     RDKit          3D

 91 99  0  0  1  0  0  0  0  0999 V2000
  -30.1110  -19.5450   21.4730 C   0  0  0  0  0  3  0  0  0  0  0  0
  -30.6970  -18.6190   20.6470 C   0  0  0  0  0  0  0  0  0  0  0  0
  -31.0940  -19.3020   19.4900 N   0  0  0  0  0  0  0  0  0  0  0  0
  -30.7930  -20.5640   19.5890 N   0  0  0  0  0  0  0  0  0  0  0  0
  -30.1910  -20.7490   20.7900 N   0  0  0  0  0  0  0  0  0  0  0  0
  -32.5320  -16.9480   20.8600 C   0  0  0  0  0  1  0  0  0  0  0  0
  -31.0050  -17.1330   20.9010 C   0  0  0  0  0  3  0  0  0  0  0  0
  -28.8780  -15.9050   21.1430 C   0  0  0  0  0  1  0  0  0  0  0  0
  -29.5130  -16.6750   18.8470 C   0  0  0  0  0  1  0  0  0  0  0  0
  -30.0630  -16.0510   20.1590 C   0  0  1  0  0  0  0  0  0  0  0  0
  -30.7190  -14.6470   19.7290 C   0  0  0  0  0  0  0  0  0  0  0  0
  -30.3930  -12.3940   18.7230 C   0  0  0  0  0  2  0  0  0  0  0  0
  -29.3270  -12.4930   17.6050 C   0  0  0  0  0  2  0  0  0  0  0  0
  -27.8990  -12.3260   18.1710 C   0  0  0  0  0  2  0  0  0  0  0  0
  -27.6680  -13.1890   19.4370 C   0  0  0  0  0  3  0  0  0  0  0  0
  -28.8410  -13.0130   20.4250 C   0  0  0  0  0  2  0  0  0  0  0  0
  -30.0790  -13.4240   19.7440 N   0  0  0  0  0  0  0  0  0  0  0  0
  -31.8040  -14.7140   19.1470 O   0  0  0  0  0  0  0  0  0  0  0  0
  -25.4050  -13.8240   20.4770 C   0  0  0  0  0  0  0  0  0  0  0  0
  -24.3640  -13.0620   20.9270 C   0  0  0  0  0  0  0  0  0  0  0  0
  -24.7660  -11.7030   20.7470 C   0  0  0  0  0  0  0  0  0  0  0  0
  -26.3790  -12.9270   20.0600 N   0  0  0  0  0  0  0  0  0  0  0  0
  -26.0040  -11.6430   20.2760 N   0  0  0  0  0  0  0  0  0  0  0  0
  -24.0210  -10.4550   20.9370 C   0  0  0  0  0  0  0  0  0  0  0  0
  -24.4750   -9.4580   21.8290 C   0  0  0  0  0  3  0  0  0  0  0  0
  -23.7350   -8.2700   22.0090 C   0  0  0  0  0  3  0  0  0  0  0  0
  -22.5290   -8.0710   21.2960 C   0  0  0  0  0  0  0  0  0  0  0  0
  -22.0930   -9.0570   20.3940 C   0  0  0  0  0  3  0  0  0  0  0  0
  -22.8310  -10.2380   20.2140 C   0  0  0  0  0  3  0  0  0  0  0  0
  -21.7600   -6.9370   21.3870 O   0  0  0  0  0  0  0  0  0  0  0  0
  -21.6830   -6.2100   22.5470 C   0  0  0  0  0  0  0  0  0  0  0  0
  -21.2020   -6.7760   23.7480 C   0  0  0  0  0  3  0  0  0  0  0  0
  -21.0770   -5.9750   24.9010 C   0  0  0  0  0  3  0  0  0  0  0  0
  -21.4180   -4.6110   24.8520 C   0  0  0  0  0  0  0  0  0  0  0  0
  -21.8930   -4.0450   23.6560 C   0  0  0  0  0  3  0  0  0  0  0  0
  -22.0220   -4.8430   22.5060 C   0  0  0  0  0  0  0  0  0  0  0  0
  -22.4610   -4.2900   21.3490 F   0  0  0  0  0  0  0  0  0  0  0  0
  -21.2890   -3.8390   25.9560 F   0  0  0  0  0  0  0  0  0  0  0  0
  -23.0310  -13.5580   21.4050 C   0  0  0  0  0  0  0  0  0  0  0  0
  -22.3850  -12.8170   22.2970 N   0  0  0  0  0  0  0  0  0  0  0  0
  -22.5770  -14.6380   21.0260 O   0  0  0  0  0  0  0  0  0  0  0  0
  -22.7690  -11.9430   22.6250 H   0  0  0  0  0  0  0  0  0  0  0  0
  -21.4930  -13.1250   22.6560 H   0  0  0  0  0  0  0  0  0  0  0  0
  -25.5930  -15.2000   20.3660 N   0  0  0  0  0  0  0  0  0  0  0  0
  -24.8540  -15.8590   20.5840 H   0  0  0  0  0  0  0  0  0  0  0  0
  -26.4060  -15.6360   19.9540 H   0  0  0  0  0  0  0  0  0  0  0  0
  -29.8520  -22.0960   21.2700 C   0  0  0  0  0  2  0  0  0  0  0  0
  -29.5390  -23.1530   20.1740 C   0  0  0  0  0  2  0  0  0  0  0  0
  -29.1900  -24.5590   20.7340 C   0  0  0  0  0  2  0  0  0  0  0  0
  -28.8140  -25.5940   19.6470 C   0  0  0  0  0  2  0  0  0  0  0  0
  -28.5980  -26.8960   20.2220 O   0  0  0  0  0  0  0  0  0  0  0  0
  -24.6660  -32.0000   23.2310 C   0  0  0  0  0  0  0  0  0  0  0  0
  -27.3700  -27.5380   20.2060 C   0  0  0  0  0  0  0  0  0  0  0  0
  -23.4680  -30.5480   21.6270 C   0  0  0  0  0  3  0  0  0  0  0  0
  -24.9350  -29.0040   20.2250 C   0  0  0  0  0  0  0  0  0  0  0  0
  -25.9850  -30.9440   21.3950 C   0  0  0  0  0  2  0  0  0  0  0  0
  -26.0880  -29.5590   20.7880 C   0  0  0  0  0  0  0  0  0  0  0  0
  -27.3010  -28.8340   20.7760 C   0  0  0  0  0  3  0  0  0  0  0  0
  -26.1880  -26.9960   19.6450 C   0  0  0  0  0  3  0  0  0  0  0  0
  -24.9800  -27.7200   19.6540 C   0  0  0  0  0  3  0  0  0  0  0  0
  -23.6790  -29.8430   20.2600 C   0  0  0  0  0  2  0  0  0  0  0  0
  -24.7250  -31.1820   22.1430 N   0  0  0  0  0  0  0  0  0  0  0  0
  -23.5850  -32.2650   23.7760 O   0  0  0  0  0  0  0  0  0  0  0  0
  -22.8400  -29.5360   22.6120 C   0  0  0  0  0  0  0  0  0  0  0  0
  -21.5270  -29.2940   22.4670 N   0  0  0  0  0  0  0  0  0  0  0  0
  -23.5330  -28.9690   23.4610 O   0  0  0  0  0  0  0  0  0  0  0  0
  -21.0280  -29.8090   21.7550 H   0  0  0  0  0  0  0  0  0  0  0  0
  -18.2040  -27.9490   22.9120 C   0  0  0  0  0  0  0  0  0  0  0  0
  -20.7340  -28.3500   23.2520 C   0  0  0  0  0  3  0  0  0  0  0  0
  -20.9260  -26.9020   22.7450 C   0  0  0  0  0  2  0  0  0  0  0  0
  -19.8770  -26.4790   21.7110 C   0  0  0  0  0  2  0  0  0  0  0  0
  -18.4690  -26.5820   22.3040 C   0  0  0  0  0  2  0  0  0  0  0  0
  -19.2680  -28.7850   23.3420 C   0  0  0  0  0  0  0  0  0  0  0  0
  -18.9680  -30.0600   23.8680 C   0  0  0  0  0  3  0  0  0  0  0  0
  -17.6370  -30.5030   23.9680 C   0  0  0  0  0  3  0  0  0  0  0  0
  -16.5860  -29.6660   23.5550 C   0  0  0  0  0  3  0  0  0  0  0  0
  -16.8700  -28.3910   23.0350 C   0  0  0  0  0  3  0  0  0  0  0  0
  -25.9460  -32.6620   23.8300 C   0  0  0  0  0  3  0  0  0  0  0  0
  -25.6160  -34.0560   24.1510 N   0  0  0  0  0  0  0  0  0  0  0  0
  -25.9130  -35.1060   23.3710 C   0  0  0  0  0  0  0  0  0  0  0  0
  -26.5660  -35.0040   22.3300 O   0  0  0  0  0  0  0  0  0  0  0  0
  -25.0300  -34.2090   24.9590 H   0  0  0  0  0  0  0  0  0  0  0  0
  -24.1390  -36.8560   23.0310 C   0  0  0  0  0  1  0  0  0  0  0  0
  -25.4050  -36.4890   23.8220 C   0  0  0  0  0  3  0  0  0  0  0  0
  -27.5320  -37.4360   24.6030 C   0  0  0  0  0  1  0  0  0  0  0  0
  -26.4120  -37.5640   23.6730 N   0  0  0  0  0  0  0  0  0  0  0  0
  -25.9870  -38.4760   23.8140 H   0  0  0  0  0  0  0  0  0  0  0  0
  -26.4970  -31.9110   25.1060 C   0  0  1  0  0  0  0  0  0  0  0  0
  -25.4100  -31.6050   26.1610 C   0  0  0  0  0  1  0  0  0  0  0  0
  -27.1600  -30.5740   24.7040 C   0  0  0  0  0  1  0  0  0  0  0  0
  -27.5960  -32.7640   25.7840 C   0  0  0  0  0  1  0  0  0  0  0  0
  2  7  1  0
  2  1  2  0
  3  4  2  0
  3  2  1  0
  4  5  1  0
  5 47  1  0
  5  1  1  0
  7  6  1  0
 10  9  1  6
 10  7  1  0
 10  8  1  0
 11 17  1  0
 11 10  1  0
 12 17  1  0
 13 14  1  0
 13 12  1  0
 15 14  1  0
 15 22  1  0
 15 16  1  0
 17 16  1  0
 18 11  2  0
 19 20  2  0
 20 39  1  0
 21 20  1  0
 21 24  1  0
 22 23  1  0
 22 19  1  0
 23 21  2  0
 24 25  1  0
 25 26  2  0
 27 30  1  0
 27 26  1  0
 28 27  2  0
 29 28  1  0
 29 24  2  0
 30 31  1  0
 31 32  1  0
 32 33  2  0
 34 33  1  0
 34 38  1  0
 35 34  2  0
 36 31  2  0
 36 35  1  0
 37 36  1  0
 39 40  1  0
 40 42  1  0
 40 43  1  0
 41 39  2  0
 44 19  1  0
 44 45  1  0
 46 44  1  0
 48 49  1  0
 48 47  1  0
 50 51  1  0
 50 49  1  0
 52 63  2  0
 53 51  1  0
 53 58  1  0
 54 62  1  0
 54 64  1  0
 55 61  1  0
 55 57  1  0
 56 62  1  0
 57 56  1  0
 58 57  2  0
 59 60  1  0
 59 53  2  0
 60 55  2  0
 61 54  1  0
 62 52  1  0
 64 66  2  0
 65 64  1  0
 67 65  1  0
 68 77  2  0
 68 73  1  0
 69 65  1  0
 69 73  1  0
 70 69  1  0
 71 72  1  0
 71 70  1  0
 72 68  1  0
 73 74  2  0
 74 75  1  0
 76 75  2  0
 77 76  1  0
 78 52  1  0
 78 79  1  0
 78 88  1  0
 79 82  1  0
 80 84  1  0
 80 79  1  0
 81 80  2  0
 84 83  1  0
 86 87  1  0
 86 84  1  0
 86 85  1  0
 88 91  1  1
 88 89  1  0
 90 88  1  0
M  ISO  4  10 100  11 100  50 101  51 101
M  END
>  <TORSDO>  (34) 
F 22

>  <SCORE>  (34) 
-11.922

>  <name>  (34) 
33

>  <ligand_id>  (34) 
33

>  <original_smiles>  (34) 
[H]c1c([H])c([H])c2c(c1[H])C([H])([H])C([H])([H])C([H])([H])C2([H])N([H])C(=O)C1([H])N(C(=O)C([H])(N([H])C(=O)C([H])(N([H])C([H])([H])[H])C([H])([H])[H])C(C([H])([H])[H])(C([H])([H])[H])C([H])([H])[H])C([H])([H])c2c([H])c(OC([H])([H])C([H])([H])C([H])([H])C([H])([H])n3nnc(C([H])(C([H])([H])[H])C(C(=O)N4C([H])([H])C([H])([H])C([H])([H])C([H])(n5nc(-c6c([H])c([H])c(Oc7c([H])c([H])c(F)c([H])c7F)c([H])c6[H])c(C(=O)N([H])[H])c5N([H])[H])C4([H])[H])(C([H])([H])[H])C([H])([H])[H])c3[H])c([H])c([H])c2C1([H])[H]

>  <smiles>  (34) 
[H]c1c([H])c([H])c2c(c1[H])C([H])([H])C([H])([H])C([H])([H])C2([H])N([H])C(=O)C1([H])N(C(=O)C([H])(N([H])C(=O)C([H])(N([H])C([H])([H])[H])C([H])([H])[H])C(C([H])([H])[H])(C([H])([H])[H])C([H])([H])[H])C([H])([H])c2c([H])c(OC([H])([H])C([H])([H])C([H])([H])C([H])([H])n3nnc(C([H])(C([H])([H])[H])C(C(=O)N4C([H])([H])C([H])([H])C([H])([H])C([H])(n5nc(-c6c([H])c([H])c(Oc7c([H])c([H])c(F)c([H])c7F)c([H])c6[H])c(C(=O)N([H])[H])c5N([H])[H])C4([H])[H])(C([H])([H])[H])C([H])([H])[H])c3[H])c([H])c([H])c2C1([H])[H]

$$$$
34:0:0
     RDKit          3D

 94102  0  0  1  0  0  0  0  0999 V2000
  -28.1750  -21.6630   19.2900 C   0  0  0  0  0  0  0  0  0  0  0  0
  -29.2030  -22.4500   19.8770 C   0  0  0  0  0  0  0  0  0  0  0  0
  -29.2530  -19.6950   19.9350 C   0  0  0  0  0  0  0  0  0  0  0  0
  -28.2150  -20.3010   19.3270 N   0  0  0  0  0  0  0  0  0  0  0  0
  -30.2270  -21.7730   20.4800 N   0  0  0  0  0  0  0  0  0  0  0  0
  -30.2430  -20.4100   20.5260 N   0  0  0  0  0  0  0  0  0  0  0  0
  -28.6160  -17.9000   21.6270 C   0  0  0  0  0  1  0  0  0  0  0  0
  -29.1140  -18.1230   20.1910 C   0  0  1  0  0  0  0  0  0  0  0  0
  -28.1070  -17.6780   19.4250 F   0  0  0  0  0  0  0  0  0  0  0  0
  -30.2920  -17.1150   19.8160 C   0  0  0  0  0  2  0  0  0  0  0  0
  -30.8040  -14.5650   19.7670 C   0  0  0  0  0  0  0  0  0  0  0  0
  -30.5380  -12.2940   18.7970 C   0  0  0  0  0  2  0  0  0  0  0  0
  -29.5090  -12.3750   17.6480 C   0  0  0  0  0  2  0  0  0  0  0  0
  -28.0750  -12.2110   18.1900 C   0  0  0  0  0  2  0  0  0  0  0  0
  -27.7950  -13.1070   19.4260 C   0  0  0  0  0  3  0  0  0  0  0  0
  -28.9350  -13.0100   20.4650 C   0  0  0  0  0  2  0  0  0  0  0  0
  -30.1920  -13.3410   19.7790 N   0  0  0  0  0  0  0  0  0  0  0  0
  -31.9320  -14.7150   19.2890 O   0  0  0  0  0  0  0  0  0  0  0  0
  -30.0330  -15.6460   20.0960 N   0  0  0  0  0  0  0  0  0  0  0  0
  -29.1180  -15.4270   20.4550 H   0  0  0  0  0  0  0  0  0  0  0  0
  -25.4710  -13.6970   20.3460 C   0  0  0  0  0  0  0  0  0  0  0  0
  -24.4390  -12.9200   20.7970 C   0  0  0  0  0  0  0  0  0  0  0  0
  -24.8980  -11.5700   20.7190 C   0  0  0  0  0  0  0  0  0  0  0  0
  -26.4930  -12.8210   20.0190 N   0  0  0  0  0  0  0  0  0  0  0  0
  -26.1580  -11.5350   20.3040 N   0  0  0  0  0  0  0  0  0  0  0  0
  -24.1920  -10.3050   20.9580 C   0  0  0  0  0  0  0  0  0  0  0  0
  -24.6380   -9.3780   21.9270 C   0  0  0  0  0  3  0  0  0  0  0  0
  -23.9300   -8.1780   22.1510 C   0  0  0  0  0  3  0  0  0  0  0  0
  -22.7610   -7.8950   21.4050 C   0  0  0  0  0  0  0  0  0  0  0  0
  -22.3350   -8.8090   20.4240 C   0  0  0  0  0  3  0  0  0  0  0  0
  -23.0440  -10.0000   20.1990 C   0  0  0  0  0  3  0  0  0  0  0  0
  -22.0220   -6.7440   21.5360 O   0  0  0  0  0  0  0  0  0  0  0  0
  -21.9030   -6.0990   22.7420 C   0  0  0  0  0  0  0  0  0  0  0  0
  -21.3550   -6.7360   23.8760 C   0  0  0  0  0  3  0  0  0  0  0  0
  -21.1870   -6.0150   25.0750 C   0  0  0  0  0  3  0  0  0  0  0  0
  -21.5570   -4.6570   25.1380 C   0  0  0  0  0  0  0  0  0  0  0  0
  -22.0970   -4.0210   24.0080 C   0  0  0  0  0  3  0  0  0  0  0  0
  -22.2670   -4.7400   22.8110 C   0  0  0  0  0  0  0  0  0  0  0  0
  -22.7700   -4.1160   21.7190 F   0  0  0  0  0  0  0  0  0  0  0  0
  -21.3880   -3.9620   26.2870 F   0  0  0  0  0  0  0  0  0  0  0  0
  -23.0680  -13.3930   21.1850 C   0  0  0  0  0  0  0  0  0  0  0  0
  -22.4190  -12.6940   22.1100 N   0  0  0  0  0  0  0  0  0  0  0  0
  -22.5830  -14.4150   20.7030 O   0  0  0  0  0  0  0  0  0  0  0  0
  -22.8260  -11.8660   22.5200 H   0  0  0  0  0  0  0  0  0  0  0  0
  -21.5020  -12.9900   22.4120 H   0  0  0  0  0  0  0  0  0  0  0  0
  -25.6180  -15.0690   20.1630 N   0  0  0  0  0  0  0  0  0  0  0  0
  -24.8520  -15.7140   20.3240 H   0  0  0  0  0  0  0  0  0  0  0  0
  -26.4170  -15.5110   19.7280 H   0  0  0  0  0  0  0  0  0  0  0  0
  -27.2440  -22.3530   17.0340 C   0  0  0  0  0  1  0  0  0  0  0  0
  -26.9960  -22.2640   18.5450 C   0  0  0  0  0  2  0  0  0  0  0  0
  -29.3090  -24.0140   19.6840 C   0  0  0  0  0  2  0  0  0  0  0  0
  -27.3840  -24.5510   21.3880 C   0  0  0  0  0  1  0  0  0  0  0  0
  -28.6840  -25.0470   20.7190 C   0  0  0  0  0  3  0  0  0  0  0  0
  -28.7080  -26.4740   20.2970 O   0  0  0  0  0  0  0  0  0  0  0  0
  -24.7590  -31.7080   23.2830 C   0  0  0  0  0  0  0  0  0  0  0  0
  -27.5550  -27.2670   20.2530 C   0  0  0  0  0  0  0  0  0  0  0  0
  -23.6380  -30.3340   21.5610 C   0  0  0  0  0  3  0  0  0  0  0  0
  -25.1670  -28.8310   20.1660 C   0  0  0  0  0  0  0  0  0  0  0  0
  -26.1770  -30.6920   21.4880 C   0  0  0  0  0  2  0  0  0  0  0  0
  -26.2990  -29.3280   20.8230 C   0  0  0  0  0  0  0  0  0  0  0  0
  -27.4970  -28.5580   20.8560 C   0  0  0  0  0  3  0  0  0  0  0  0
  -26.4110  -26.8250   19.5540 C   0  0  0  0  0  3  0  0  0  0  0  0
  -25.2220  -27.5830   19.5220 C   0  0  0  0  0  3  0  0  0  0  0  0
  -23.9150  -29.6850   20.1790 C   0  0  0  0  0  2  0  0  0  0  0  0
  -24.8740  -30.9290   22.1680 N   0  0  0  0  0  0  0  0  0  0  0  0
  -23.6520  -31.9600   23.7820 O   0  0  0  0  0  0  0  0  0  0  0  0
  -22.9470  -29.2920   22.4720 C   0  0  0  0  0  0  0  0  0  0  0  0
  -21.6260  -29.1180   22.2980 N   0  0  0  0  0  0  0  0  0  0  0  0
  -23.6010  -28.6410   23.2930 O   0  0  0  0  0  0  0  0  0  0  0  0
  -21.1620  -29.6910   21.6070 H   0  0  0  0  0  0  0  0  0  0  0  0
  -18.2310  -27.9300   22.6630 C   0  0  0  0  0  0  0  0  0  0  0  0
  -20.7820  -28.1620   23.0150 C   0  0  0  0  0  3  0  0  0  0  0  0
  -20.8940  -26.7500   22.3940 C   0  0  0  0  0  2  0  0  0  0  0  0
  -19.8190  -26.4700   21.3390 C   0  0  0  0  0  2  0  0  0  0  0  0
  -18.4200  -26.6030   21.9490 C   0  0  0  0  0  2  0  0  0  0  0  0
  -19.3420  -28.6700   23.1500 C   0  0  0  0  0  0  0  0  0  0  0  0
  -19.1140  -29.9130   23.7770 C   0  0  0  0  0  3  0  0  0  0  0  0
  -17.8090  -30.4170   23.9250 C   0  0  0  0  0  3  0  0  0  0  0  0
  -16.7110  -29.6720   23.4600 C   0  0  0  0  0  3  0  0  0  0  0  0
  -16.9240  -28.4320   22.8320 C   0  0  0  0  0  3  0  0  0  0  0  0
  -26.0100  -32.3360   23.9720 C   0  0  0  0  0  3  0  0  0  0  0  0
  -25.6770  -33.7280   24.3050 N   0  0  0  0  0  0  0  0  0  0  0  0
  -26.0300  -34.7940   23.5760 C   0  0  0  0  0  0  0  0  0  0  0  0
  -26.7410  -34.7110   22.5710 O   0  0  0  0  0  0  0  0  0  0  0  0
  -25.0480  -33.8660   25.0830 H   0  0  0  0  0  0  0  0  0  0  0  0
  -24.3010  -36.5810   23.1870 C   0  0  0  0  0  1  0  0  0  0  0  0
  -25.5150  -36.1720   24.0360 C   0  0  0  0  0  3  0  0  0  0  0  0
  -27.6090  -37.0660   24.9560 C   0  0  0  0  0  1  0  0  0  0  0  0
  -26.5410  -37.2350   23.9740 N   0  0  0  0  0  0  0  0  0  0  0  0
  -26.1210  -38.1500   24.1150 H   0  0  0  0  0  0  0  0  0  0  0  0
  -26.4710  -31.5490   25.2590 C   0  0  1  0  0  0  0  0  0  0  0  0
  -25.3300  -31.2880   26.2710 C   0  0  0  0  0  1  0  0  0  0  0  0
  -27.0790  -30.1800   24.8750 C   0  0  0  0  0  1  0  0  0  0  0  0
  -27.5850  -32.3380   25.9840 C   0  0  0  0  0  1  0  0  0  0  0  0
  1  4  1  0
  1  2  2  0
  2  5  1  0
  3  8  1  0
  3  6  1  0
  4  3  2  0
  5  6  2  0
  8  7  1  1
  9  8  1  0
 10 19  1  0
 10  8  1  0
 11 17  1  0
 11 19  1  0
 12 17  1  0
 13 14  1  0
 13 12  1  0
 15 14  1  0
 15 24  1  0
 15 16  1  0
 17 16  1  0
 18 11  2  0
 19 20  1  0
 21 22  2  0
 22 41  1  0
 23 22  1  0
 23 26  1  0
 24 25  1  0
 24 21  1  0
 25 23  2  0
 26 27  1  0
 27 28  2  0
 29 32  1  0
 29 28  1  0
 30 29  2  0
 31 30  1  0
 31 26  2  0
 32 33  1  0
 33 38  2  0
 33 34  1  0
 34 35  2  0
 35 36  1  0
 36 40  1  0
 37 36  2  0
 38 37  1  0
 39 38  1  0
 41 42  1  0
 42 45  1  0
 42 44  1  0
 43 41  2  0
 46 47  1  0
 46 21  1  0
 48 46  1  0
 49 50  1  0
 50  1  1  0
 51  2  1  0
 51 53  1  0
 53 52  1  0
 54 53  1  0
 55 66  2  0
 56 54  1  0
 56 61  1  0
 57 65  1  0
 57 67  1  0
 58 64  1  0
 58 60  1  0
 59 65  1  0
 60 61  2  0
 60 59  1  0
 62 56  2  0
 63 62  1  0
 63 58  2  0
 64 57  1  0
 65 55  1  0
 67 69  2  0
 68 67  1  0
 70 68  1  0
 71 80  2  0
 71 76  1  0
 72 68  1  0
 72 76  1  0
 73 72  1  0
 74 75  1  0
 74 73  1  0
 75 71  1  0
 76 77  2  0
 77 78  1  0
 79 78  2  0
 80 79  1  0
 81 55  1  0
 81 82  1  0
 81 91  1  0
 82 85  1  0
 83 87  1  0
 83 82  1  0
 84 83  2  0
 87 86  1  0
 89 87  1  0
 89 90  1  0
 89 88  1  0
 91 94  1  1
 91 92  1  0
 93 91  1  0
M  ISO  4  11 100  19 100  53 101  54 101
M  END
>  <TORSDO>  (35) 
F 21

>  <SCORE>  (35) 
-11.086

>  <name>  (35) 
34

>  <ligand_id>  (35) 
34

>  <original_smiles>  (35) 
[H]c1c([H])c([H])c2c(c1[H])C([H])([H])C([H])([H])C([H])([H])C2([H])N([H])C(=O)C1([H])N(C(=O)C([H])(N([H])C(=O)C([H])(N([H])C([H])([H])[H])C([H])([H])[H])C(C([H])([H])[H])(C([H])([H])[H])C([H])([H])[H])C([H])([H])c2c([H])c(OC([H])(C([H])([H])[H])C([H])([H])c3nnc(C(F)(C([H])([H])[H])C([H])([H])N([H])C(=O)N4C([H])([H])C([H])([H])C([H])([H])C([H])(n5nc(-c6c([H])c([H])c(Oc7c([H])c([H])c(F)c([H])c7F)c([H])c6[H])c(C(=O)N([H])[H])c5N([H])[H])C4([H])[H])nc3C([H])([H])C([H])([H])[H])c([H])c([H])c2C1([H])[H]

>  <smiles>  (35) 
[H]c1c([H])c([H])c2c(c1[H])C([H])([H])C([H])([H])C([H])([H])C2([H])N([H])C(=O)C1([H])N(C(=O)C([H])(N([H])C(=O)C([H])(N([H])C([H])([H])[H])C([H])([H])[H])C(C([H])([H])[H])(C([H])([H])[H])C([H])([H])[H])C([H])([H])c2c([H])c(OC([H])(C([H])([H])[H])C([H])([H])c3nnc(C(F)(C([H])([H])[H])C([H])([H])N([H])C(=O)N4C([H])([H])C([H])([H])C([H])([H])C([H])(n5nc(-c6c([H])c([H])c(Oc7c([H])c([H])c(F)c([H])c7F)c([H])c6[H])c(C(=O)N([H])[H])c5N([H])[H])C4([H])[H])nc3C([H])([H])C([H])([H])[H])c([H])c([H])c2C1([H])[H]

$$$$
35:0:0
     RDKit          3D

 95103  0  0  1  0  0  0  0  0999 V2000
  -30.7760  -21.3670   20.1690 C   0  0  0  0  0  3  0  0  0  0  0  0
  -29.0830  -20.2460   19.3970 C   0  0  0  0  0  3  0  0  0  0  0  0
  -29.5060  -21.5530   19.5400 C   0  0  0  0  0  0  0  0  0  0  0  0
  -31.1090  -20.0890   20.3420 N   0  0  0  0  0  0  0  0  0  0  0  0
  -30.0630  -19.3760   19.8650 N   0  0  0  0  0  0  0  0  0  0  0  0
  -27.4890  -22.5330   18.3810 C   0  0  0  0  0  1  0  0  0  0  0  0
  -29.7910  -23.2830   17.8220 C   0  0  0  0  0  1  0  0  0  0  0  0
  -28.8700  -22.8640   18.9900 C   0  0  2  0  0  0  0  0  0  0  0  0
  -29.6510  -24.0870   21.1930 C   0  0  0  0  0  1  0  0  0  0  0  0
  -28.6660  -24.0780   20.0130 C   0  0  0  0  0  3  0  0  0  0  0  0
  -28.6350  -25.5060   19.3430 C   0  0  0  0  0  2  0  0  0  0  0  0
  -28.3950  -26.6360   20.2150 O   0  0  0  0  0  0  0  0  0  0  0  0
  -24.5970  -31.8590   23.2450 C   0  0  0  0  0  0  0  0  0  0  0  0
  -27.2090  -27.3560   20.1790 C   0  0  0  0  0  0  0  0  0  0  0  0
  -23.3790  -30.4540   21.6160 C   0  0  0  0  0  3  0  0  0  0  0  0
  -24.8190  -28.8950   20.1950 C   0  0  0  0  0  0  0  0  0  0  0  0
  -25.9080  -30.7890   21.4110 C   0  0  0  0  0  2  0  0  0  0  0  0
  -25.9830  -29.4100   20.7770 C   0  0  0  0  0  0  0  0  0  0  0  0
  -27.1750  -28.6460   20.7680 C   0  0  0  0  0  3  0  0  0  0  0  0
  -26.0160  -26.8550   19.6060 C   0  0  0  0  0  3  0  0  0  0  0  0
  -24.8310  -27.6180   19.6090 C   0  0  0  0  0  3  0  0  0  0  0  0
  -23.5810  -29.7650   20.2390 C   0  0  0  0  0  2  0  0  0  0  0  0
  -24.6460  -31.0490   22.1480 N   0  0  0  0  0  0  0  0  0  0  0  0
  -23.5170  -32.1420   23.7840 O   0  0  0  0  0  0  0  0  0  0  0  0
  -22.7220  -29.4430   22.5830 C   0  0  0  0  0  0  0  0  0  0  0  0
  -21.3960  -29.2670   22.4600 N   0  0  0  0  0  0  0  0  0  0  0  0
  -23.4040  -28.8190   23.4030 O   0  0  0  0  0  0  0  0  0  0  0  0
  -20.9070  -29.8220   21.7710 H   0  0  0  0  0  0  0  0  0  0  0  0
  -18.0190  -28.0880   22.9660 C   0  0  0  0  0  0  0  0  0  0  0  0
  -20.5770  -28.3390   23.2380 C   0  0  0  0  0  3  0  0  0  0  0  0
  -20.6750  -26.9030   22.6720 C   0  0  0  0  0  2  0  0  0  0  0  0
  -19.5730  -26.5770   21.6590 C   0  0  0  0  0  2  0  0  0  0  0  0
  -18.1910  -26.7330   22.3000 C   0  0  0  0  0  2  0  0  0  0  0  0
  -19.1400  -28.8490   23.3920 C   0  0  0  0  0  0  0  0  0  0  0  0
  -18.9270  -30.1180   23.9720 C   0  0  0  0  0  3  0  0  0  0  0  0
  -17.6240  -30.6260   24.1320 C   0  0  0  0  0  3  0  0  0  0  0  0
  -16.5160  -29.8630   23.7230 C   0  0  0  0  0  3  0  0  0  0  0  0
  -16.7150  -28.5960   23.1460 C   0  0  0  0  0  3  0  0  0  0  0  0
  -25.8870  -32.4870   23.8570 C   0  0  0  0  0  3  0  0  0  0  0  0
  -25.5820  -33.8850   24.1930 N   0  0  0  0  0  0  0  0  0  0  0  0
  -25.9110  -34.9390   23.4350 C   0  0  0  0  0  0  0  0  0  0  0  0
  -26.5770  -34.8370   22.4000 O   0  0  0  0  0  0  0  0  0  0  0  0
  -24.9890  -34.0390   24.9960 H   0  0  0  0  0  0  0  0  0  0  0  0
  -24.1840  -36.7340   23.0930 C   0  0  0  0  0  1  0  0  0  0  0  0
  -25.4280  -36.3270   23.8980 C   0  0  0  0  0  3  0  0  0  0  0  0
  -27.5700  -37.2020   24.7180 C   0  0  0  0  0  1  0  0  0  0  0  0
  -26.4600  -37.3790   23.7850 N   0  0  0  0  0  0  0  0  0  0  0  0
  -26.0560  -38.2990   23.9460 H   0  0  0  0  0  0  0  0  0  0  0  0
  -26.4130  -31.7120   25.1270 C   0  0  1  0  0  0  0  0  0  0  0  0
  -25.3280  -31.4710   26.2030 C   0  0  0  0  0  1  0  0  0  0  0  0
  -26.9920  -30.3350   24.7250 C   0  0  0  0  0  1  0  0  0  0  0  0
  -27.5700  -32.5030   25.7830 C   0  0  0  0  0  1  0  0  0  0  0  0
  -30.1140  -17.8940   19.7590 C   0  0  0  0  0  2  0  0  0  0  0  0
  -30.7760  -17.1290   20.9540 C   0  0  2  0  0  0  0  0  0  0  0  0
  -30.4200  -17.7960   22.0590 F   0  0  0  0  0  0  0  0  0  0  0  0
  -32.1040  -17.2150   20.8450 F   0  0  0  0  0  0  0  0  0  0  0  0
  -30.7730  -15.1790   22.6040 C   0  0  0  0  0  1  0  0  0  0  0  0
  -30.3520  -15.6170   21.1830 C   0  0  1  0  0  0  0  0  0  0  0  0
  -29.0180  -15.6580   21.1480 F   0  0  0  0  0  0  0  0  0  0  0  0
  -30.8730  -14.5130   20.1780 C   0  0  0  0  0  0  0  0  0  0  0  0
  -30.4930  -12.4090   18.8870 C   0  0  0  0  0  2  0  0  0  0  0  0
  -29.4680  -12.6480   17.7580 C   0  0  0  0  0  2  0  0  0  0  0  0
  -28.0200  -12.5110   18.2750 C   0  0  0  0  0  2  0  0  0  0  0  0
  -27.7860  -13.2950   19.5910 C   0  0  0  0  0  3  0  0  0  0  0  0
  -28.9010  -12.9730   20.6090 C   0  0  0  0  0  2  0  0  0  0  0  0
  -30.1850  -13.3410   19.9890 N   0  0  0  0  0  0  0  0  0  0  0  0
  -31.9180  -14.7250   19.5530 O   0  0  0  0  0  0  0  0  0  0  0  0
  -25.4470  -13.9450   20.4470 C   0  0  0  0  0  0  0  0  0  0  0  0
  -24.3840  -13.1890   20.8620 C   0  0  0  0  0  0  0  0  0  0  0  0
  -24.8120  -11.8290   20.7820 C   0  0  0  0  0  0  0  0  0  0  0  0
  -26.4570  -13.0450   20.1430 N   0  0  0  0  0  0  0  0  0  0  0  0
  -26.0820  -11.7660   20.3990 N   0  0  0  0  0  0  0  0  0  0  0  0
  -24.0720  -10.5800   20.9930 C   0  0  0  0  0  0  0  0  0  0  0  0
  -24.5300   -9.5930   21.8930 C   0  0  0  0  0  3  0  0  0  0  0  0
  -23.7910   -8.4070   22.0920 C   0  0  0  0  0  3  0  0  0  0  0  0
  -22.5790   -8.2010   21.3900 C   0  0  0  0  0  0  0  0  0  0  0  0
  -22.1390   -9.1770   20.4770 C   0  0  0  0  0  3  0  0  0  0  0  0
  -22.8800  -10.3530   20.2780 C   0  0  0  0  0  3  0  0  0  0  0  0
  -21.8090   -7.0690   21.5000 O   0  0  0  0  0  0  0  0  0  0  0  0
  -21.7850   -6.3230   22.6510 C   0  0  0  0  0  0  0  0  0  0  0  0
  -21.4350   -6.8870   23.8970 C   0  0  0  0  0  3  0  0  0  0  0  0
  -21.3570   -6.0710   25.0420 C   0  0  0  0  0  3  0  0  0  0  0  0
  -21.6190   -4.6910   24.9440 C   0  0  0  0  0  0  0  0  0  0  0  0
  -21.9620   -4.1260   23.7020 C   0  0  0  0  0  3  0  0  0  0  0  0
  -22.0430   -4.9400   22.5590 C   0  0  0  0  0  0  0  0  0  0  0  0
  -22.3540   -4.3870   21.3610 F   0  0  0  0  0  0  0  0  0  0  0  0
  -21.5350   -3.9040   26.0410 F   0  0  0  0  0  0  0  0  0  0  0  0
  -23.0150  -13.6900   21.2260 C   0  0  0  0  0  0  0  0  0  0  0  0
  -22.3290  -12.9970   22.1280 N   0  0  0  0  0  0  0  0  0  0  0  0
  -22.5640  -14.7290   20.7440 O   0  0  0  0  0  0  0  0  0  0  0  0
  -22.7080  -12.1560   22.5370 H   0  0  0  0  0  0  0  0  0  0  0  0
  -21.4130  -13.3120   22.4130 H   0  0  0  0  0  0  0  0  0  0  0  0
  -25.6350  -15.3150   20.2880 N   0  0  0  0  0  0  0  0  0  0  0  0
  -24.9120  -15.9940   20.4970 H   0  0  0  0  0  0  0  0  0  0  0  0
  -26.5180  -15.7380   20.0310 H   0  0  0  0  0  0  0  0  0  0  0  0
  1  4  2  0
  2  3  2  0
  2  5  1  0
  3  1  1  0
  5  4  1  0
  8  6  1  6
  7  8  1  0
  8  3  1  0
  8 10  1  0
 10  9  1  0
 11 10  1  0
 11 12  1  0
 13 24  2  0
 14 12  1  0
 14 19  1  0
 15 23  1  0
 15 25  1  0
 16 22  1  0
 16 18  1  0
 17 23  1  0
 18 17  1  0
 19 18  2  0
 20 21  1  0
 20 14  2  0
 21 16  2  0
 22 15  1  0
 23 13  1  0
 25 27  2  0
 26 25  1  0
 28 26  1  0
 29 38  2  0
 29 34  1  0
 30 26  1  0
 30 34  1  0
 31 30  1  0
 32 33  1  0
 32 31  1  0
 33 29  1  0
 34 35  2  0
 35 36  1  0
 37 36  2  0
 38 37  1  0
 39 13  1  0
 39 40  1  0
 39 49  1  0
 40 43  1  0
 41 45  1  0
 41 40  1  0
 42 41  2  0
 45 44  1  0
 47 45  1  0
 47 48  1  0
 47 46  1  0
 49 52  1  1
 49 50  1  0
 51 49  1  0
 53  5  1  0
 53 54  1  0
 54 58  1  0
 54 55  1  1
 56 54  1  0
 58 57  1  1
 59 58  1  0
 60 58  1  0
 61 66  1  0
 62 63  1  0
 62 61  1  0
 64 63  1  0
 64 71  1  0
 64 65  1  0
 66 60  1  0
 66 65  1  0
 67 60  2  0
 68 69  2  0
 69 88  1  0
 70 69  1  0
 70 73  1  0
 71 72  1  0
 71 68  1  0
 72 70  2  0
 73 74  1  0
 74 75  2  0
 76 79  1  0
 76 75  1  0
 77 76  2  0
 78 77  1  0
 78 73  2  0
 79 80  1  0
 80 81  1  0
 81 82  2  0
 83 82  1  0
 83 87  1  0
 84 83  2  0
 85 80  2  0
 85 84  1  0
 86 85  1  0
 88 89  1  0
 89 92  1  0
 89 91  1  0
 90 88  2  0
 93 68  1  0
 93 94  1  0
 95 93  1  0
M  ISO  4  11 101  12 101  58 100  60 100
M  END
>  <TORSDO>  (36) 
F 22

>  <SCORE>  (36) 
-12.329

>  <name>  (36) 
35

>  <ligand_id>  (36) 
35

>  <original_smiles>  (36) 
[H]c1nn(C([H])([H])C(F)(F)C(F)(C(=O)N2C([H])([H])C([H])([H])C([H])([H])C([H])(n3nc(-c4c([H])c([H])c(Oc5c([H])c([H])c(F)c([H])c5F)c([H])c4[H])c(C(=O)N([H])[H])c3N([H])[H])C2([H])[H])C([H])([H])[H])c([H])c1C(C([H])([H])[H])(C([H])([H])[H])C([H])(C([H])([H])[H])C([H])([H])Oc1c([H])c([H])c2c(c1[H])C([H])([H])N(C(=O)C([H])(N([H])C(=O)C([H])(N([H])C([H])([H])[H])C([H])([H])[H])C(C([H])([H])[H])(C([H])([H])[H])C([H])([H])[H])C([H])(C(=O)N([H])C1([H])c3c([H])c([H])c([H])c([H])c3C([H])([H])C([H])([H])C1([H])[H])C2([H])[H]

>  <smiles>  (36) 
[H]c1nn(C([H])([H])C(F)(F)C(F)(C(=O)N2C([H])([H])C([H])([H])C([H])([H])C([H])(n3nc(-c4c([H])c([H])c(Oc5c([H])c([H])c(F)c([H])c5F)c([H])c4[H])c(C(=O)N([H])[H])c3N([H])[H])C2([H])[H])C([H])([H])[H])c([H])c1C(C([H])([H])[H])(C([H])([H])[H])C([H])(C([H])([H])[H])C([H])([H])Oc1c([H])c([H])c2c(c1[H])C([H])([H])N(C(=O)C([H])(N([H])C(=O)C([H])(N([H])C([H])([H])[H])C([H])([H])[H])C(C([H])([H])[H])(C([H])([H])[H])C([H])([H])[H])C([H])(C(=O)N([H])C1([H])c3c([H])c([H])c([H])c([H])c3C([H])([H])C([H])([H])C1([H])[H])C2([H])[H]

$$$$
36:0:0
     RDKit          3D

 95103  0  0  1  0  0  0  0  0999 V2000
  -30.1050  -21.9130   19.7770 C   0  0  0  0  0  0  0  0  0  0  0  0
  -31.2460  -21.3000   20.3410 C   0  0  0  0  0  0  0  0  0  0  0  0
  -28.9300  -21.1290   19.8050 C   0  0  0  0  0  0  0  0  0  0  0  0
  -30.0560  -19.3820   20.8150 C   0  0  0  0  0  0  0  0  0  0  0  0
  -32.5900  -22.0000   20.4160 C   0  0  0  0  0  1  0  0  0  0  0  0
  -31.2130  -20.0430   20.8330 N   0  0  0  0  0  0  0  0  0  0  0  0
  -28.9330  -19.8780   20.3050 N   0  0  0  0  0  0  0  0  0  0  0  0
  -28.6110  -17.4830   21.7130 C   0  0  0  0  0  1  0  0  0  0  0  0
  -30.9270  -17.7200   22.5380 C   0  0  0  0  0  1  0  0  0  0  0  0
  -30.0440  -17.8930   21.2830 C   0  0  2  0  0  0  0  0  0  0  0  0
  -30.5570  -16.9410   20.1570 C   0  0  0  0  0  2  0  0  0  0  0  0
  -30.9660  -14.4940   19.7770 C   0  0  0  0  0  0  0  0  0  0  0  0
  -30.5090  -12.4210   18.5260 C   0  0  0  0  0  2  0  0  0  0  0  0
  -29.4800  -12.7460   17.4230 C   0  0  0  0  0  2  0  0  0  0  0  0
  -28.0410  -12.6230   17.9640 C   0  0  0  0  0  2  0  0  0  0  0  0
  -27.8400  -13.3730   19.3090 C   0  0  0  0  0  3  0  0  0  0  0  0
  -28.9750  -13.0370   20.3040 C   0  0  0  0  0  2  0  0  0  0  0  0
  -30.2610  -13.3390   19.6500 N   0  0  0  0  0  0  0  0  0  0  0  0
  -32.0440  -14.6890   19.2100 O   0  0  0  0  0  0  0  0  0  0  0  0
  -30.3130  -15.4990   20.3880 N   0  0  0  0  0  0  0  0  0  0  0  0
  -29.4420  -15.2520   20.8320 H   0  0  0  0  0  0  0  0  0  0  0  0
  -25.5030  -13.9950   20.1890 C   0  0  0  0  0  0  0  0  0  0  0  0
  -24.4550  -13.2290   20.6290 C   0  0  0  0  0  0  0  0  0  0  0  0
  -24.9010  -11.8740   20.5560 C   0  0  0  0  0  0  0  0  0  0  0  0
  -26.5210  -13.1060   19.8780 N   0  0  0  0  0  0  0  0  0  0  0  0
  -26.1650  -11.8250   20.1530 N   0  0  0  0  0  0  0  0  0  0  0  0
  -24.1790  -10.6160   20.7900 C   0  0  0  0  0  0  0  0  0  0  0  0
  -24.6210   -9.6780   21.7490 C   0  0  0  0  0  3  0  0  0  0  0  0
  -23.9010   -8.4850   21.9690 C   0  0  0  0  0  3  0  0  0  0  0  0
  -22.7250   -8.2200   21.2300 C   0  0  0  0  0  0  0  0  0  0  0  0
  -22.3010   -9.1450   20.2610 C   0  0  0  0  0  3  0  0  0  0  0  0
  -23.0210  -10.3310   20.0380 C   0  0  0  0  0  3  0  0  0  0  0  0
  -21.9740   -7.0760   21.3580 O   0  0  0  0  0  0  0  0  0  0  0  0
  -21.8790   -6.4070   22.5520 C   0  0  0  0  0  0  0  0  0  0  0  0
  -21.3840   -7.0310   23.7180 C   0  0  0  0  0  3  0  0  0  0  0  0
  -21.2380   -6.2880   24.9070 C   0  0  0  0  0  3  0  0  0  0  0  0
  -21.5740   -4.9220   24.9290 C   0  0  0  0  0  0  0  0  0  0  0  0
  -22.0620   -4.2970   23.7670 C   0  0  0  0  0  3  0  0  0  0  0  0
  -22.2100   -5.0380   22.5820 C   0  0  0  0  0  0  0  0  0  0  0  0
  -22.6600   -4.4260   21.4600 F   0  0  0  0  0  0  0  0  0  0  0  0
  -21.4260   -4.2060   26.0680 F   0  0  0  0  0  0  0  0  0  0  0  0
  -23.0860  -13.7160   21.0050 C   0  0  0  0  0  0  0  0  0  0  0  0
  -22.4300  -13.0410   21.9410 N   0  0  0  0  0  0  0  0  0  0  0  0
  -22.6070  -14.7310   20.5000 O   0  0  0  0  0  0  0  0  0  0  0  0
  -22.8290  -12.2200   22.3720 H   0  0  0  0  0  0  0  0  0  0  0  0
  -21.5140  -13.3510   22.2350 H   0  0  0  0  0  0  0  0  0  0  0  0
  -25.6670  -15.3650   20.0110 N   0  0  0  0  0  0  0  0  0  0  0  0
  -24.9160  -16.0230   20.1840 H   0  0  0  0  0  0  0  0  0  0  0  0
  -26.4910  -15.7990   19.6160 H   0  0  0  0  0  0  0  0  0  0  0  0
  -26.7880  -22.3330   20.4200 C   0  0  0  0  0  1  0  0  0  0  0  0
  -27.5730  -21.6140   19.3140 C   0  0  0  0  0  2  0  0  0  0  0  0
  -30.1850  -23.2880   19.0820 C   0  0  0  0  0  2  0  0  0  0  0  0
  -29.8620  -24.5440   19.9380 C   0  0  0  0  0  2  0  0  0  0  0  0
  -28.6160  -25.3310   19.4650 C   0  0  0  0  0  2  0  0  0  0  0  0
  -28.6030  -26.6840   19.9510 O   0  0  0  0  0  0  0  0  0  0  0  0
  -24.7020  -31.7330   23.1110 C   0  0  0  0  0  0  0  0  0  0  0  0
  -27.4060  -27.3810   19.9350 C   0  0  0  0  0  0  0  0  0  0  0  0
  -23.5070  -30.3290   21.4620 C   0  0  0  0  0  3  0  0  0  0  0  0
  -24.9760  -28.8450   19.9990 C   0  0  0  0  0  0  0  0  0  0  0  0
  -26.0240  -30.7410   21.2440 C   0  0  0  0  0  2  0  0  0  0  0  0
  -26.1290  -29.3800   20.5830 C   0  0  0  0  0  0  0  0  0  0  0  0
  -27.3440  -28.6540   20.5520 C   0  0  0  0  0  3  0  0  0  0  0  0
  -26.2290  -26.8690   19.3360 C   0  0  0  0  0  3  0  0  0  0  0  0
  -25.0200  -27.5880   19.3740 C   0  0  0  0  0  3  0  0  0  0  0  0
  -23.7150  -29.6760   20.0710 C   0  0  0  0  0  2  0  0  0  0  0  0
  -24.7630  -30.9490   21.9970 N   0  0  0  0  0  0  0  0  0  0  0  0
  -23.6210  -31.9750   23.6660 O   0  0  0  0  0  0  0  0  0  0  0  0
  -22.8890  -29.2800   22.4140 C   0  0  0  0  0  0  0  0  0  0  0  0
  -21.5730  -29.0490   22.2780 N   0  0  0  0  0  0  0  0  0  0  0  0
  -23.5900  -28.6770   23.2310 O   0  0  0  0  0  0  0  0  0  0  0  0
  -21.0660  -29.5910   21.5920 H   0  0  0  0  0  0  0  0  0  0  0  0
  -18.2450  -27.7200   22.7400 C   0  0  0  0  0  0  0  0  0  0  0  0
  -20.7880  -28.0780   23.0400 C   0  0  0  0  0  3  0  0  0  0  0  0
  -20.9530  -26.6530   22.4650 C   0  0  0  0  0  2  0  0  0  0  0  0
  -19.8750  -26.2880   21.4380 C   0  0  0  0  0  2  0  0  0  0  0  0
  -18.4820  -26.3790   22.0670 C   0  0  0  0  0  2  0  0  0  0  0  0
  -19.3280  -28.5250   23.1830 C   0  0  0  0  0  0  0  0  0  0  0  0
  -19.0540  -29.7790   23.7700 C   0  0  0  0  0  3  0  0  0  0  0  0
  -17.7280  -30.2300   23.9200 C   0  0  0  0  0  3  0  0  0  0  0  0
  -16.6590  -29.4220   23.4950 C   0  0  0  0  0  3  0  0  0  0  0  0
  -16.9190  -28.1690   22.9110 C   0  0  0  0  0  3  0  0  0  0  0  0
  -25.9820  -32.3830   23.7240 C   0  0  0  0  0  3  0  0  0  0  0  0
  -25.6400  -33.7600   24.1030 N   0  0  0  0  0  0  0  0  0  0  0  0
  -25.9280  -34.8430   23.3710 C   0  0  0  0  0  0  0  0  0  0  0  0
  -26.5830  -34.7920   22.3260 O   0  0  0  0  0  0  0  0  0  0  0  0
  -25.0560  -33.8720   24.9190 H   0  0  0  0  0  0  0  0  0  0  0  0
  -24.1510  -36.6000   23.0900 C   0  0  0  0  0  1  0  0  0  0  0  0
  -25.4080  -36.2020   23.8790 C   0  0  0  0  0  3  0  0  0  0  0  0
  -27.5230  -37.1170   24.7280 C   0  0  0  0  0  1  0  0  0  0  0  0
  -26.4120  -37.2850   23.7940 N   0  0  0  0  0  0  0  0  0  0  0  0
  -25.9830  -38.1890   23.9700 H   0  0  0  0  0  0  0  0  0  0  0  0
  -26.5500  -31.5870   24.9630 C   0  0  1  0  0  0  0  0  0  0  0  0
  -25.4870  -31.2760   26.0430 C   0  0  0  0  0  1  0  0  0  0  0  0
  -27.1710  -30.2450   24.5110 C   0  0  0  0  0  1  0  0  0  0  0  0
  -27.6850  -32.3990   25.6310 C   0  0  0  0  0  1  0  0  0  0  0  0
  1  3  1  0
  1  2  2  0
  2  5  1  0
  2  6  1  0
  3  7  2  0
  4  6  2  0
  4 10  1  0
  7  4  1  0
 10  8  1  1
 10  9  1  0
 11 20  1  0
 11 10  1  0
 12 20  1  0
 13 18  1  0
 14 15  1  0
 14 13  1  0
 16 15  1  0
 16 25  1  0
 16 17  1  0
 18 12  1  0
 18 17  1  0
 19 12  2  0
 20 21  1  0
 22 23  2  0
 23 42  1  0
 24 23  1  0
 24 27  1  0
 25 26  1  0
 25 22  1  0
 26 24  2  0
 27 28  1  0
 28 29  2  0
 30 33  1  0
 30 29  1  0
 31 30  2  0
 32 31  1  0
 32 27  2  0
 33 34  1  0
 34 39  2  0
 34 35  1  0
 35 36  2  0
 36 37  1  0
 37 41  1  0
 38 37  2  0
 39 38  1  0
 40 39  1  0
 42 43  1  0
 43 46  1  0
 43 45  1  0
 44 42  2  0
 47 48  1  0
 47 22  1  0
 49 47  1  0
 51  3  1  0
 51 50  1  0
 52  1  1  0
 52 53  1  0
 54 53  1  0
 54 55  1  0
 56 67  2  0
 57 55  1  0
 57 62  1  0
 58 66  1  0
 58 68  1  0
 59 65  1  0
 59 61  1  0
 60 66  1  0
 61 60  1  0
 62 61  2  0
 63 64  1  0
 63 57  2  0
 64 59  2  0
 65 58  1  0
 66 56  1  0
 68 70  2  0
 69 68  1  0
 71 69  1  0
 72 81  2  0
 72 77  1  0
 73 69  1  0
 73 77  1  0
 74 73  1  0
 75 76  1  0
 75 74  1  0
 76 72  1  0
 77 78  2  0
 78 79  1  0
 80 79  2  0
 81 80  1  0
 82 56  1  0
 82 83  1  0
 82 92  1  0
 83 86  1  0
 84 88  1  0
 84 83  1  0
 85 84  2  0
 88 87  1  0
 90 88  1  0
 90 91  1  0
 90 89  1  0
 92 95  1  1
 92 93  1  0
 94 92  1  0
M  ISO  4  12 100  20 100  54 101  55 101
M  END
>  <TORSDO>  (37) 
F 22

>  <SCORE>  (37) 
-10.666

>  <name>  (37) 
36

>  <ligand_id>  (37) 
36

>  <original_smiles>  (37) 
[H]c1c([H])c([H])c2c(c1[H])C([H])([H])C([H])([H])C([H])([H])C2([H])N([H])C(=O)C1([H])N(C(=O)C([H])(N([H])C(=O)C([H])(N([H])C([H])([H])[H])C([H])([H])[H])C(C([H])([H])[H])(C([H])([H])[H])C([H])([H])[H])C([H])([H])c2c([H])c(OC([H])([H])C([H])([H])C([H])([H])c3c(C([H])([H])[H])nc(C(C([H])([H])[H])(C([H])([H])[H])C([H])([H])N([H])C(=O)N4C([H])([H])C([H])([H])C([H])([H])C([H])(n5nc(-c6c([H])c([H])c(Oc7c([H])c([H])c(F)c([H])c7F)c([H])c6[H])c(C(=O)N([H])[H])c5N([H])[H])C4([H])[H])nc3C([H])([H])C([H])([H])[H])c([H])c([H])c2C1([H])[H]

>  <smiles>  (37) 
[H]c1c([H])c([H])c2c(c1[H])C([H])([H])C([H])([H])C([H])([H])C2([H])N([H])C(=O)C1([H])N(C(=O)C([H])(N([H])C(=O)C([H])(N([H])C([H])([H])[H])C([H])([H])[H])C(C([H])([H])[H])(C([H])([H])[H])C([H])([H])[H])C([H])([H])c2c([H])c(OC([H])([H])C([H])([H])C([H])([H])c3c(C([H])([H])[H])nc(C(C([H])([H])[H])(C([H])([H])[H])C([H])([H])N([H])C(=O)N4C([H])([H])C([H])([H])C([H])([H])C([H])(n5nc(-c6c([H])c([H])c(Oc7c([H])c([H])c(F)c([H])c7F)c([H])c6[H])c(C(=O)N([H])[H])c5N([H])[H])C4([H])[H])nc3C([H])([H])C([H])([H])[H])c([H])c([H])c2C1([H])[H]

$$$$
37:0:0
     RDKit          3D

 91 99  0  0  1  0  0  0  0  0999 V2000
  -29.8800  -20.7640   19.4870 C   0  0  0  0  0  3  0  0  0  0  0  0
  -29.2270  -19.5380   19.8380 C   0  0  0  0  0  0  0  0  0  0  0  0
  -28.9120  -21.7320   19.5540 C   0  0  0  0  0  0  0  0  0  0  0  0
  -26.4720  -21.6870   20.3160 C   0  0  0  0  0  1  0  0  0  0  0  0
  -27.9770  -19.7800   20.2220 N   0  0  0  0  0  0  0  0  0  0  0  0
  -27.7850  -21.1130   20.0630 N   0  0  0  0  0  0  0  0  0  0  0  0
  -30.9670  -18.0590   18.7540 C   0  0  0  0  0  1  0  0  0  0  0  0
  -29.7060  -18.0890   19.6420 C   0  0  0  0  0  3  0  0  0  0  0  0
  -29.9210  -17.2890   20.9670 C   0  0  0  0  0  2  0  0  0  0  0  0
  -30.6750  -14.8880   20.3240 C   0  0  0  0  0  0  0  0  0  0  0  0
  -30.5470  -12.6460   19.2690 C   0  0  0  0  0  2  0  0  0  0  0  0
  -29.5960  -12.7560   18.0560 C   0  0  0  0  0  2  0  0  0  0  0  0
  -28.1190  -12.5890   18.4800 C   0  0  0  0  0  2  0  0  0  0  0  0
  -27.7530  -13.4520   19.7160 C   0  0  0  0  0  3  0  0  0  0  0  0
  -28.8100  -13.2840   20.8260 C   0  0  0  0  0  2  0  0  0  0  0  0
  -30.1170  -13.6490   20.2540 N   0  0  0  0  0  0  0  0  0  0  0  0
  -31.7830  -15.1590   19.8480 O   0  0  0  0  0  0  0  0  0  0  0  0
  -29.8370  -15.8190   20.8270 N   0  0  0  0  0  0  0  0  0  0  0  0
  -28.9630  -15.4270   21.1440 H   0  0  0  0  0  0  0  0  0  0  0  0
  -25.3720  -14.0410   20.4860 C   0  0  0  0  0  0  0  0  0  0  0  0
  -24.3130  -13.2580   20.8630 C   0  0  0  0  0  0  0  0  0  0  0  0
  -24.7770  -11.9110   20.7930 C   0  0  0  0  0  0  0  0  0  0  0  0
  -26.4100  -13.1660   20.2080 N   0  0  0  0  0  0  0  0  0  0  0  0
  -26.0580  -11.8800   20.4500 N   0  0  0  0  0  0  0  0  0  0  0  0
  -24.0660  -10.6420   20.9780 C   0  0  0  0  0  0  0  0  0  0  0  0
  -24.5090   -9.6760   21.9080 C   0  0  0  0  0  3  0  0  0  0  0  0
  -23.8000   -8.4690   22.0830 C   0  0  0  0  0  3  0  0  0  0  0  0
  -22.6340   -8.2160   21.3200 C   0  0  0  0  0  0  0  0  0  0  0  0
  -22.2090   -9.1700   20.3810 C   0  0  0  0  0  3  0  0  0  0  0  0
  -22.9180  -10.3690   20.2080 C   0  0  0  0  0  3  0  0  0  0  0  0
  -21.8950   -7.0600   21.3970 O   0  0  0  0  0  0  0  0  0  0  0  0
  -21.8330   -6.3270   22.5520 C   0  0  0  0  0  0  0  0  0  0  0  0
  -21.3360   -6.8720   23.7550 C   0  0  0  0  0  3  0  0  0  0  0  0
  -21.2240   -6.0570   24.9000 C   0  0  0  0  0  3  0  0  0  0  0  0
  -21.5960   -4.7010   24.8400 C   0  0  0  0  0  0  0  0  0  0  0  0
  -22.0890   -4.1580   23.6400 C   0  0  0  0  0  3  0  0  0  0  0  0
  -22.2040   -4.9690   22.4980 C   0  0  0  0  0  0  0  0  0  0  0  0
  -22.6580   -4.4370   21.3370 F   0  0  0  0  0  0  0  0  0  0  0  0
  -21.4780   -3.9150   25.9350 F   0  0  0  0  0  0  0  0  0  0  0  0
  -22.9250  -13.7240   21.1890 C   0  0  0  0  0  0  0  0  0  0  0  0
  -22.2320  -13.0060   22.0660 N   0  0  0  0  0  0  0  0  0  0  0  0
  -22.4650  -14.7550   20.7000 O   0  0  0  0  0  0  0  0  0  0  0  0
  -22.6190  -12.1630   22.4630 H   0  0  0  0  0  0  0  0  0  0  0  0
  -21.3080  -13.3040   22.3390 H   0  0  0  0  0  0  0  0  0  0  0  0
  -25.5350  -15.4160   20.3450 N   0  0  0  0  0  0  0  0  0  0  0  0
  -24.7810  -16.0720   20.5170 H   0  0  0  0  0  0  0  0  0  0  0  0
  -26.3880  -15.8660   20.0350 H   0  0  0  0  0  0  0  0  0  0  0  0
  -28.8970  -23.1370   18.9990 C   0  0  0  0  0  2  0  0  0  0  0  0
  -29.3760  -24.3430   19.8660 C   0  0  0  0  0  2  0  0  0  0  0  0
  -28.6610  -25.5950   19.3070 C   0  0  0  0  0  2  0  0  0  0  0  0
  -28.8730  -26.9460   19.7980 O   0  0  0  0  0  0  0  0  0  0  0  0
  -24.6420  -31.6330   23.1110 C   0  0  0  0  0  0  0  0  0  0  0  0
  -27.7220  -27.7260   19.7240 C   0  0  0  0  0  0  0  0  0  0  0  0
  -23.6120  -30.3040   21.3080 C   0  0  0  0  0  3  0  0  0  0  0  0
  -25.2270  -29.0770   19.7800 C   0  0  0  0  0  0  0  0  0  0  0  0
  -26.1070  -30.8910   21.2350 C   0  0  0  0  0  2  0  0  0  0  0  0
  -26.3240  -29.6020   20.4760 C   0  0  0  0  0  0  0  0  0  0  0  0
  -27.5730  -28.9230   20.4640 C   0  0  0  0  0  3  0  0  0  0  0  0
  -26.6120  -27.2980   18.9430 C   0  0  0  0  0  3  0  0  0  0  0  0
  -25.3690  -27.9240   19.0070 C   0  0  0  0  0  3  0  0  0  0  0  0
  -23.9130  -29.8090   19.8720 C   0  0  0  0  0  2  0  0  0  0  0  0
  -24.8030  -30.9540   21.9440 N   0  0  0  0  0  0  0  0  0  0  0  0
  -23.5220  -31.7550   23.6300 O   0  0  0  0  0  0  0  0  0  0  0  0
  -23.0410  -29.1280   22.1350 C   0  0  0  0  0  0  0  0  0  0  0  0
  -21.7370  -28.8540   21.9600 N   0  0  0  0  0  0  0  0  0  0  0  0
  -23.7620  -28.4780   22.8920 O   0  0  0  0  0  0  0  0  0  0  0  0
  -21.2100  -29.4500   21.3390 H   0  0  0  0  0  0  0  0  0  0  0  0
  -18.4440  -27.3960   22.3080 C   0  0  0  0  0  0  0  0  0  0  0  0
  -20.9850  -27.7780   22.6060 C   0  0  0  0  0  3  0  0  0  0  0  0
  -21.1690  -26.4380   21.8560 C   0  0  0  0  0  2  0  0  0  0  0  0
  -20.0780  -26.1770   20.8110 C   0  0  0  0  0  2  0  0  0  0  0  0
  -18.6960  -26.1520   21.4710 C   0  0  0  0  0  2  0  0  0  0  0  0
  -19.5170  -28.1690   22.8250 C   0  0  0  0  0  0  0  0  0  0  0  0
  -19.2270  -29.3370   23.5640 C   0  0  0  0  0  3  0  0  0  0  0  0
  -17.8970  -29.7330   23.7900 C   0  0  0  0  0  3  0  0  0  0  0  0
  -16.8380  -28.9560   23.2860 C   0  0  0  0  0  3  0  0  0  0  0  0
  -17.1130  -27.7890   22.5530 C   0  0  0  0  0  3  0  0  0  0  0  0
  -25.8450  -32.3130   23.8330 C   0  0  0  0  0  3  0  0  0  0  0  0
  -25.4430  -33.6900   24.1560 N   0  0  0  0  0  0  0  0  0  0  0  0
  -25.7590  -34.7670   23.4250 C   0  0  0  0  0  0  0  0  0  0  0  0
  -26.4910  -34.7120   22.4330 O   0  0  0  0  0  0  0  0  0  0  0  0
  -24.8040  -33.8000   24.9290 H   0  0  0  0  0  0  0  0  0  0  0  0
  -23.9460  -36.4610   22.9890 C   0  0  0  0  0  1  0  0  0  0  0  0
  -25.1660  -36.1220   23.8620 C   0  0  0  0  0  3  0  0  0  0  0  0
  -27.1960  -37.1300   24.8090 C   0  0  0  0  0  1  0  0  0  0  0  0
  -26.1400  -37.2350   23.8060 N   0  0  0  0  0  0  0  0  0  0  0  0
  -25.6720  -38.1290   23.9290 H   0  0  0  0  0  0  0  0  0  0  0  0
  -26.3050  -31.5400   25.1280 C   0  0  1  0  0  0  0  0  0  0  0  0
  -25.1580  -31.2280   26.1140 C   0  0  0  0  0  1  0  0  0  0  0  0
  -26.9800  -30.2010   24.7500 C   0  0  0  0  0  1  0  0  0  0  0  0
  -27.3650  -32.3770   25.8830 C   0  0  0  0  0  1  0  0  0  0  0  0
  1  3  2  0
  1  2  1  0
  2  5  2  0
  3  6  1  0
  6  5  1  0
  6  4  1  0
  8  7  1  0
  8  2  1  0
  8  9  1  0
 10 18  1  0
 11 16  1  0
 12 13  1  0
 12 11  1  0
 14 13  1  0
 14 23  1  0
 14 15  1  0
 16 10  1  0
 16 15  1  0
 17 10  2  0
 18  9  1  0
 18 19  1  0
 20 21  2  0
 21 40  1  0
 22 21  1  0
 22 25  1  0
 23 24  1  0
 23 20  1  0
 24 22  2  0
 25 26  1  0
 26 27  2  0
 28 31  1  0
 28 27  1  0
 29 28  2  0
 30 29  1  0
 30 25  2  0
 31 32  1  0
 32 33  1  0
 33 34  2  0
 35 34  1  0
 35 39  1  0
 36 35  2  0
 37 32  2  0
 37 36  1  0
 38 37  1  0
 40 41  1  0
 41 44  1  0
 41 43  1  0
 42 40  2  0
 45 20  1  0
 45 46  1  0
 47 45  1  0
 48  3  1  0
 48 49  1  0
 50 51  1  0
 50 49  1  0
 52 63  2  0
 53 51  1  0
 53 58  1  0
 54 62  1  0
 54 64  1  0
 55 61  1  0
 55 57  1  0
 56 62  1  0
 57 56  1  0
 58 57  2  0
 59 60  1  0
 59 53  2  0
 60 55  2  0
 61 54  1  0
 62 52  1  0
 64 66  2  0
 65 64  1  0
 67 65  1  0
 68 77  2  0
 68 73  1  0
 69 65  1  0
 69 73  1  0
 70 69  1  0
 71 72  1  0
 71 70  1  0
 72 68  1  0
 73 74  2  0
 74 75  1  0
 76 75  2  0
 77 76  1  0
 78 52  1  0
 78 79  1  0
 78 88  1  0
 79 82  1  0
 80 84  1  0
 80 79  1  0
 81 80  2  0
 84 83  1  0
 86 84  1  0
 86 87  1  0
 86 85  1  0
 88 91  1  1
 88 89  1  0
 90 88  1  0
M  ISO  4  10 100  18 100  50 101  51 101
M  END
>  <TORSDO>  (38) 
F 21

>  <SCORE>  (38) 
-11.781

>  <name>  (38) 
37

>  <ligand_id>  (38) 
37

>  <original_smiles>  (38) 
[H]c1c([H])c([H])c2c(c1[H])C([H])([H])C([H])([H])C([H])([H])C2([H])N([H])C(=O)C1([H])N(C(=O)C([H])(N([H])C(=O)C([H])(N([H])C([H])([H])[H])C([H])([H])[H])C(C([H])([H])[H])(C([H])([H])[H])C([H])([H])[H])C([H])([H])c2c([H])c(OC([H])([H])C([H])([H])C([H])([H])c3c([H])c(C([H])(C([H])([H])[H])C([H])([H])N([H])C(=O)N4C([H])([H])C([H])([H])C([H])([H])C([H])(n5nc(-c6c([H])c([H])c(Oc7c([H])c([H])c(F)c([H])c7F)c([H])c6[H])c(C(=O)N([H])[H])c5N([H])[H])C4([H])[H])nn3C([H])([H])[H])c([H])c([H])c2C1([H])[H]

>  <smiles>  (38) 
[H]c1c([H])c([H])c2c(c1[H])C([H])([H])C([H])([H])C([H])([H])C2([H])N([H])C(=O)C1([H])N(C(=O)C([H])(N([H])C(=O)C([H])(N([H])C([H])([H])[H])C([H])([H])[H])C(C([H])([H])[H])(C([H])([H])[H])C([H])([H])[H])C([H])([H])c2c([H])c(OC([H])([H])C([H])([H])C([H])([H])c3c([H])c(C([H])(C([H])([H])[H])C([H])([H])N([H])C(=O)N4C([H])([H])C([H])([H])C([H])([H])C([H])(n5nc(-c6c([H])c([H])c(Oc7c([H])c([H])c(F)c([H])c7F)c([H])c6[H])c(C(=O)N([H])[H])c5N([H])[H])C4([H])[H])nn3C([H])([H])[H])c([H])c([H])c2C1([H])[H]

$$$$
38:0:0
     RDKit          3D

 92100  0  0  1  0  0  0  0  0999 V2000
  -30.1110  -20.1160   22.0490 C   0  0  0  0  0  3  0  0  0  0  0  0
  -29.1680  -20.9860   21.5520 C   0  0  0  0  0  0  0  0  0  0  0  0
  -28.7490  -18.9480   20.7420 C   0  0  0  0  0  3  0  0  0  0  0  0
  -28.0750  -17.8350   20.0060 C   0  0  0  0  0  1  0  0  0  0  0  0
  -29.8170  -18.8670   21.5550 N   0  0  0  0  0  0  0  0  0  0  0  0
  -28.3670  -20.2290   20.7360 N   0  0  0  0  0  0  0  0  0  0  0  0
  -27.5700  -20.5810   20.2150 H   0  0  0  0  0  0  0  0  0  0  0  0
  -28.9160  -22.4440   21.8010 C   0  0  0  0  0  2  0  0  0  0  0  0
  -29.1000  -23.3140   20.5430 C   0  0  0  0  0  2  0  0  0  0  0  0
  -28.6810  -24.7810   20.7740 C   0  0  0  0  0  2  0  0  0  0  0  0
  -29.0060  -25.7080   19.5890 C   0  0  0  0  0  2  0  0  0  0  0  0
  -28.8330  -27.0740   19.9670 O   0  0  0  0  0  0  0  0  0  0  0  0
  -24.5770  -31.7420   23.2090 C   0  0  0  0  0  0  0  0  0  0  0  0
  -27.5800  -27.6550   19.9760 C   0  0  0  0  0  0  0  0  0  0  0  0
  -23.5120  -30.3840   21.4370 C   0  0  0  0  0  3  0  0  0  0  0  0
  -25.0970  -29.0140   19.9880 C   0  0  0  0  0  0  0  0  0  0  0  0
  -26.0160  -30.8920   21.3590 C   0  0  0  0  0  2  0  0  0  0  0  0
  -26.2000  -29.5680   20.6470 C   0  0  0  0  0  0  0  0  0  0  0  0
  -27.4420  -28.8970   20.6360 C   0  0  0  0  0  3  0  0  0  0  0  0
  -26.4500  -27.1020   19.3280 C   0  0  0  0  0  3  0  0  0  0  0  0
  -25.2160  -27.7790   19.3290 C   0  0  0  0  0  3  0  0  0  0  0  0
  -23.8090  -29.8030   20.0290 C   0  0  0  0  0  2  0  0  0  0  0  0
  -24.7170  -31.0180   22.0620 N   0  0  0  0  0  0  0  0  0  0  0  0
  -23.4640  -31.9220   23.7200 O   0  0  0  0  0  0  0  0  0  0  0  0
  -22.8840  -29.2710   22.3070 C   0  0  0  0  0  0  0  0  0  0  0  0
  -21.5640  -29.0730   22.1620 N   0  0  0  0  0  0  0  0  0  0  0  0
  -23.5810  -28.5920   23.0660 O   0  0  0  0  0  0  0  0  0  0  0  0
  -21.0630  -29.6750   21.5230 H   0  0  0  0  0  0  0  0  0  0  0  0
  -18.2080  -27.7980   22.5720 C   0  0  0  0  0  0  0  0  0  0  0  0
  -20.7650  -28.0590   22.8490 C   0  0  0  0  0  3  0  0  0  0  0  0
  -20.8800  -26.6890   22.1420 C   0  0  0  0  0  2  0  0  0  0  0  0
  -19.7730  -26.4500   21.1110 C   0  0  0  0  0  2  0  0  0  0  0  0
  -18.3940  -26.5190   21.7740 C   0  0  0  0  0  2  0  0  0  0  0  0
  -19.3220  -28.5300   23.0620 C   0  0  0  0  0  0  0  0  0  0  0  0
  -19.0950  -29.7320   23.7680 C   0  0  0  0  0  3  0  0  0  0  0  0
  -17.7860  -30.2000   23.9900 C   0  0  0  0  0  3  0  0  0  0  0  0
  -16.6870  -29.4640   23.5140 C   0  0  0  0  0  3  0  0  0  0  0  0
  -16.8990  -28.2650   22.8120 C   0  0  0  0  0  3  0  0  0  0  0  0
  -25.8030  -32.3990   23.9150 C   0  0  0  0  0  3  0  0  0  0  0  0
  -25.4360  -33.7840   24.2420 N   0  0  0  0  0  0  0  0  0  0  0  0
  -25.7830  -34.8540   23.5130 C   0  0  0  0  0  0  0  0  0  0  0  0
  -26.5160  -34.7810   22.5230 O   0  0  0  0  0  0  0  0  0  0  0  0
  -24.7930  -33.9110   25.0090 H   0  0  0  0  0  0  0  0  0  0  0  0
  -24.0180  -36.5920   23.0780 C   0  0  0  0  0  1  0  0  0  0  0  0
  -25.2270  -36.2220   23.9520 C   0  0  0  0  0  3  0  0  0  0  0  0
  -27.2870  -37.1650   24.8990 C   0  0  0  0  0  1  0  0  0  0  0  0
  -26.2300  -37.3080   23.9000 N   0  0  0  0  0  0  0  0  0  0  0  0
  -25.7880  -38.2140   24.0340 H   0  0  0  0  0  0  0  0  0  0  0  0
  -26.2630  -31.6240   25.2090 C   0  0  1  0  0  0  0  0  0  0  0  0
  -25.1160  -31.3420   26.2070 C   0  0  0  0  0  1  0  0  0  0  0  0
  -26.9050  -30.2680   24.8320 C   0  0  0  0  0  1  0  0  0  0  0  0
  -27.3520  -32.4370   25.9500 C   0  0  0  0  0  1  0  0  0  0  0  0
  -30.4970  -17.5950   21.8700 C   0  0  0  0  0  2  0  0  0  0  0  0
  -30.9060  -16.7920   20.6170 C   0  0  0  0  0  2  0  0  0  0  0  0
  -31.2410  -14.3780   20.0720 C   0  0  0  0  0  0  0  0  0  0  0  0
  -30.8340  -12.2070   18.9760 C   0  0  0  0  0  2  0  0  0  0  0  0
  -29.8520  -12.4010   17.8030 C   0  0  0  0  0  2  0  0  0  0  0  0
  -28.3910  -12.3270   18.2890 C   0  0  0  0  0  2  0  0  0  0  0  0
  -28.1280  -13.2180   19.5320 C   0  0  0  0  0  3  0  0  0  0  0  0
  -29.2120  -12.9820   20.6100 C   0  0  0  0  0  2  0  0  0  0  0  0
  -30.5320  -13.2210   19.9960 N   0  0  0  0  0  0  0  0  0  0  0  0
  -32.2960  -14.5720   19.4600 O   0  0  0  0  0  0  0  0  0  0  0  0
  -30.6460  -15.3560   20.7680 N   0  0  0  0  0  0  0  0  0  0  0  0
  -29.8110  -15.0850   21.2650 H   0  0  0  0  0  0  0  0  0  0  0  0
  -25.7920  -13.9350   20.3510 C   0  0  0  0  0  0  0  0  0  0  0  0
  -24.7030  -13.2090   20.7560 C   0  0  0  0  0  0  0  0  0  0  0  0
  -25.0930  -11.8370   20.6770 C   0  0  0  0  0  0  0  0  0  0  0  0
  -26.7820  -13.0070   20.0620 N   0  0  0  0  0  0  0  0  0  0  0  0
  -26.3640  -11.7390   20.3110 N   0  0  0  0  0  0  0  0  0  0  0  0
  -24.3110  -10.6100   20.8730 C   0  0  0  0  0  0  0  0  0  0  0  0
  -24.6950   -9.6330   21.8180 C   0  0  0  0  0  3  0  0  0  0  0  0
  -23.9180   -8.4700   22.0010 C   0  0  0  0  0  3  0  0  0  0  0  0
  -22.7410   -8.2770   21.2390 C   0  0  0  0  0  0  0  0  0  0  0  0
  -22.3760   -9.2410   20.2830 C   0  0  0  0  0  3  0  0  0  0  0  0
  -23.1530  -10.3960   20.0980 C   0  0  0  0  0  3  0  0  0  0  0  0
  -21.9370   -7.1660   21.3320 O   0  0  0  0  0  0  0  0  0  0  0  0
  -21.7750   -6.4900   22.5140 C   0  0  0  0  0  0  0  0  0  0  0  0
  -21.2850   -7.1280   23.6750 C   0  0  0  0  0  3  0  0  0  0  0  0
  -21.0670   -6.3820   24.8500 C   0  0  0  0  0  3  0  0  0  0  0  0
  -21.3310   -4.9980   24.8640 C   0  0  0  0  0  0  0  0  0  0  0  0
  -21.8140   -4.3610   23.7090 C   0  0  0  0  0  3  0  0  0  0  0  0
  -22.0310   -5.1050   22.5360 C   0  0  0  0  0  0  0  0  0  0  0  0
  -22.4780   -4.4810   21.4180 F   0  0  0  0  0  0  0  0  0  0  0  0
  -21.1150   -4.2780   25.9900 F   0  0  0  0  0  0  0  0  0  0  0  0
  -23.3470  -13.7510   21.1010 C   0  0  0  0  0  0  0  0  0  0  0  0
  -22.6310  -13.0900   22.0050 N   0  0  0  0  0  0  0  0  0  0  0  0
  -22.9310  -14.7980   20.6050 O   0  0  0  0  0  0  0  0  0  0  0  0
  -22.9780  -12.2420   22.4290 H   0  0  0  0  0  0  0  0  0  0  0  0
  -21.7220  -13.4380   22.2760 H   0  0  0  0  0  0  0  0  0  0  0  0
  -26.0140  -15.2970   20.1830 N   0  0  0  0  0  0  0  0  0  0  0  0
  -25.2610  -15.9690   20.2790 H   0  0  0  0  0  0  0  0  0  0  0  0
  -26.8350  -15.6790   19.7310 H   0  0  0  0  0  0  0  0  0  0  0  0
  2  8  1  0
  2  1  2  0
  3  4  1  0
  3  5  1  0
  5 53  1  0
  5  1  1  0
  6  3  1  0
  6  2  1  0
  7  6  1  0
  9 10  1  0
  9  8  1  0
 11 12  1  0
 11 10  1  0
 12 14  1  0
 13 24  2  0
 14 19  1  0
 15 23  1  0
 15 25  1  0
 16 22  1  0
 16 18  1  0
 17 23  1  0
 18 17  1  0
 19 18  2  0
 20 21  1  0
 20 14  2  0
 21 16  2  0
 22 15  1  0
 23 13  1  0
 25 27  2  0
 26 25  1  0
 28 26  1  0
 29 38  2  0
 29 34  1  0
 30 26  1  0
 30 34  1  0
 31 30  1  0
 32 33  1  0
 32 31  1  0
 33 29  1  0
 34 35  2  0
 35 36  1  0
 37 36  2  0
 38 37  1  0
 39 13  1  0
 39 40  1  0
 39 49  1  0
 40 43  1  0
 41 45  1  0
 41 40  1  0
 42 41  2  0
 45 44  1  0
 47 45  1  0
 47 48  1  0
 47 46  1  0
 49 52  1  1
 49 50  1  0
 51 49  1  0
 54 63  1  0
 54 53  1  0
 55 63  1  0
 56 61  1  0
 57 58  1  0
 57 56  1  0
 59 58  1  0
 59 68  1  0
 59 60  1  0
 61 55  1  0
 61 60  1  0
 62 55  2  0
 63 64  1  0
 65 66  2  0
 66 85  1  0
 67 66  1  0
 67 70  1  0
 68 69  1  0
 68 65  1  0
 69 67  2  0
 70 71  1  0
 71 72  2  0
 73 76  1  0
 73 72  1  0
 74 73  2  0
 75 74  1  0
 75 70  2  0
 76 77  1  0
 77 82  2  0
 77 78  1  0
 78 79  2  0
 79 80  1  0
 80 84  1  0
 81 80  2  0
 82 81  1  0
 83 82  1  0
 85 86  1  0
 86 89  1  0
 86 88  1  0
 87 85  2  0
 90 91  1  0
 90 65  1  0
 92 90  1  0
M  ISO  4  11 101  12 101  55 100  63 100
M  END
>  <TORSDO>  (39) 
F 22

>  <SCORE>  (39) 
-12.285

>  <name>  (39) 
38

>  <ligand_id>  (39) 
38

>  <original_smiles>  (39) 
[H]c1c([H])c([H])c2c(c1[H])C([H])([H])C([H])([H])C([H])([H])C2([H])N([H])C(=O)C1([H])N(C(=O)C([H])(N([H])C(=O)C([H])(N([H])C([H])([H])[H])C([H])([H])[H])C(C([H])([H])[H])(C([H])([H])[H])C([H])([H])[H])C([H])([H])c2c([H])c(OC([H])([H])C([H])([H])C([H])([H])C([H])([H])c3c([H])n(C([H])([H])C([H])([H])N([H])C(=O)N4C([H])([H])C([H])([H])C([H])([H])C([H])(n5nc(-c6c([H])c([H])c(Oc7c([H])c([H])c(F)c([H])c7F)c([H])c6[H])c(C(=O)N([H])[H])c5N([H])[H])C4([H])[H])c(C([H])([H])[H])[n+]3[H])c([H])c([H])c2C1([H])[H]

>  <smiles>  (39) 
[H]c1c([H])c([H])c2c(c1[H])C([H])([H])C([H])([H])C([H])([H])C2([H])N([H])C(=O)C1([H])N(C(=O)C([H])(N([H])C(=O)C([H])(N([H])C([H])([H])[H])C([H])([H])[H])C(C([H])([H])[H])(C([H])([H])[H])C([H])([H])[H])C([H])([H])c2c([H])c(OC([H])([H])C([H])([H])C([H])([H])C([H])([H])c3c([H])n(C([H])([H])C([H])([H])N([H])C(=O)N4C([H])([H])C([H])([H])C([H])([H])C([H])(n5nc(-c6c([H])c([H])c(Oc7c([H])c([H])c(F)c([H])c7F)c([H])c6[H])c(C(=O)N([H])[H])c5N([H])[H])C4([H])[H])c(C([H])([H])[H])[n+]3[H])c([H])c([H])c2C1([H])[H]

$$$$
39:0:0
     RDKit          3D

 93101  0  0  1  0  0  0  0  0999 V2000
  -30.7340  -19.6980   20.4270 C   0  0  0  0  0  3  0  0  0  0  0  0
  -29.8400  -18.7590   19.8300 C   0  0  0  0  0  0  0  0  0  0  0  0
  -28.2090  -20.4520   19.8580 C   0  0  0  0  0  0  0  0  0  0  0  0
  -29.1100  -21.3810   20.4560 C   0  0  0  0  0  0  0  0  0  0  0  0
  -26.7800  -20.8250   19.5050 C   0  0  0  0  0  1  0  0  0  0  0  0
  -30.3780  -20.9820   20.7370 N   0  0  0  0  0  0  0  0  0  0  0  0
  -28.5630  -19.1650   19.5720 N   0  0  0  0  0  0  0  0  0  0  0  0
  -31.6420  -17.4800   18.6130 C   0  0  0  0  0  1  0  0  0  0  0  0
  -29.3260  -16.8680   18.2100 C   0  0  0  0  0  1  0  0  0  0  0  0
  -30.2800  -17.3120   19.3520 C   0  0  2  0  0  0  0  0  0  0  0  0
  -29.0070  -16.1660   21.3050 C   0  0  0  0  0  1  0  0  0  0  0  0
  -31.3830  -16.5790   21.5640 C   0  0  0  0  0  1  0  0  0  0  0  0
  -30.3270  -16.1560   20.5010 C   0  0  2  0  0  0  0  0  0  0  0  0
  -30.7980  -14.7000   19.9840 C   0  0  0  0  0  0  0  0  0  0  0  0
  -30.4080  -12.4850   18.9220 C   0  0  0  0  0  2  0  0  0  0  0  0
  -29.3940  -12.6290   17.7650 C   0  0  0  0  0  2  0  0  0  0  0  0
  -27.9480  -12.4920   18.2810 C   0  0  0  0  0  2  0  0  0  0  0  0
  -27.6860  -13.3350   19.5560 C   0  0  0  0  0  3  0  0  0  0  0  0
  -28.8180  -13.1450   20.5850 C   0  0  0  0  0  2  0  0  0  0  0  0
  -30.0850  -13.5190   19.9380 N   0  0  0  0  0  0  0  0  0  0  0  0
  -31.9300  -14.6840   19.4960 O   0  0  0  0  0  0  0  0  0  0  0  0
  -25.3650  -13.9410   20.4760 C   0  0  0  0  0  0  0  0  0  0  0  0
  -24.3140  -13.1700   20.8910 C   0  0  0  0  0  0  0  0  0  0  0  0
  -24.7470  -11.8150   20.7680 C   0  0  0  0  0  0  0  0  0  0  0  0
  -26.3740  -13.0550   20.1290 N   0  0  0  0  0  0  0  0  0  0  0  0
  -26.0090  -11.7680   20.3620 N   0  0  0  0  0  0  0  0  0  0  0  0
  -24.0100  -10.5580   20.9570 C   0  0  0  0  0  0  0  0  0  0  0  0
  -24.4660   -9.5590   21.8450 C   0  0  0  0  0  3  0  0  0  0  0  0
  -23.7310   -8.3680   22.0210 C   0  0  0  0  0  3  0  0  0  0  0  0
  -22.5250   -8.1660   21.3070 C   0  0  0  0  0  0  0  0  0  0  0  0
  -22.0880   -9.1530   20.4060 C   0  0  0  0  0  3  0  0  0  0  0  0
  -22.8250  -10.3360   20.2280 C   0  0  0  0  0  3  0  0  0  0  0  0
  -21.7570   -7.0310   21.3950 O   0  0  0  0  0  0  0  0  0  0  0  0
  -21.7150   -6.2780   22.5410 C   0  0  0  0  0  0  0  0  0  0  0  0
  -21.2970   -6.8230   23.7750 C   0  0  0  0  0  3  0  0  0  0  0  0
  -21.2040   -5.9960   24.9130 C   0  0  0  0  0  3  0  0  0  0  0  0
  -21.5180   -4.6270   24.8170 C   0  0  0  0  0  0  0  0  0  0  0  0
  -21.9280   -4.0820   23.5870 C   0  0  0  0  0  3  0  0  0  0  0  0
  -22.0250   -4.9060   22.4520 C   0  0  0  0  0  0  0  0  0  0  0  0
  -22.4000   -4.3730   21.2650 F   0  0  0  0  0  0  0  0  0  0  0  0
  -21.4210   -3.8300   25.9080 F   0  0  0  0  0  0  0  0  0  0  0  0
  -22.9490  -13.6580   21.2860 C   0  0  0  0  0  0  0  0  0  0  0  0
  -22.2730  -12.9360   22.1710 N   0  0  0  0  0  0  0  0  0  0  0  0
  -22.4940  -14.7130   20.8460 O   0  0  0  0  0  0  0  0  0  0  0  0
  -22.6540  -12.0830   22.5550 H   0  0  0  0  0  0  0  0  0  0  0  0
  -21.3580  -13.2400   22.4730 H   0  0  0  0  0  0  0  0  0  0  0  0
  -25.5330  -15.3170   20.3410 N   0  0  0  0  0  0  0  0  0  0  0  0
  -24.7860  -15.9690   20.5490 H   0  0  0  0  0  0  0  0  0  0  0  0
  -26.3580  -15.7680   19.9710 H   0  0  0  0  0  0  0  0  0  0  0  0
  -28.6710  -22.7820   20.9800 C   0  0  0  0  0  2  0  0  0  0  0  0
  -28.9190  -24.0760   20.1200 C   0  0  0  0  0  2  0  0  0  0  0  0
  -28.3700  -25.3840   20.8100 C   0  0  0  0  0  2  0  0  0  0  0  0
  -28.5250  -26.6680   20.1300 O   0  0  0  0  0  0  0  0  0  0  0  0
  -24.6670  -31.8970   23.1800 C   0  0  0  0  0  0  0  0  0  0  0  0
  -27.3890  -27.4660   20.1100 C   0  0  0  0  0  0  0  0  0  0  0  0
  -23.5000  -30.4980   21.5100 C   0  0  0  0  0  3  0  0  0  0  0  0
  -24.9900  -28.9850   20.0880 C   0  0  0  0  0  0  0  0  0  0  0  0
  -26.0290  -30.8750   21.3510 C   0  0  0  0  0  2  0  0  0  0  0  0
  -26.1400  -29.5080   20.6970 C   0  0  0  0  0  0  0  0  0  0  0  0
  -27.3470  -28.7590   20.6980 C   0  0  0  0  0  3  0  0  0  0  0  0
  -26.2250  -26.9750   19.4860 C   0  0  0  0  0  3  0  0  0  0  0  0
  -25.0310  -27.7210   19.4770 C   0  0  0  0  0  3  0  0  0  0  0  0
  -23.7370  -29.8330   20.1270 C   0  0  0  0  0  2  0  0  0  0  0  0
  -24.7500  -31.1060   22.0720 N   0  0  0  0  0  0  0  0  0  0  0  0
  -23.5760  -32.1520   23.7090 O   0  0  0  0  0  0  0  0  0  0  0  0
  -22.8450  -29.4630   22.4530 C   0  0  0  0  0  0  0  0  0  0  0  0
  -21.5190  -29.2850   22.3250 N   0  0  0  0  0  0  0  0  0  0  0  0
  -23.5270  -28.8210   23.2580 O   0  0  0  0  0  0  0  0  0  0  0  0
  -21.0290  -29.8530   21.6480 H   0  0  0  0  0  0  0  0  0  0  0  0
  -18.1400  -28.1130   22.8390 C   0  0  0  0  0  0  0  0  0  0  0  0
  -20.7030  -28.3360   23.0800 C   0  0  0  0  0  3  0  0  0  0  0  0
  -20.7830  -26.9200   22.4630 C   0  0  0  0  0  2  0  0  0  0  0  0
  -19.6630  -26.6390   21.4550 C   0  0  0  0  0  2  0  0  0  0  0  0
  -18.2910  -26.7820   22.1210 C   0  0  0  0  0  2  0  0  0  0  0  0
  -19.2730  -28.8490   23.2750 C   0  0  0  0  0  0  0  0  0  0  0  0
  -19.0780  -30.0960   23.9060 C   0  0  0  0  0  3  0  0  0  0  0  0
  -17.7810  -30.6080   24.1050 C   0  0  0  0  0  3  0  0  0  0  0  0
  -16.6620  -29.8680   23.6840 C   0  0  0  0  0  3  0  0  0  0  0  0
  -16.8430  -28.6220   23.0560 C   0  0  0  0  0  3  0  0  0  0  0  0
  -25.9360  -32.5380   23.8220 C   0  0  0  0  0  3  0  0  0  0  0  0
  -25.6080  -33.9300   24.1590 N   0  0  0  0  0  0  0  0  0  0  0  0
  -25.9300  -34.9910   23.4070 C   0  0  0  0  0  0  0  0  0  0  0  0
  -26.6050  -34.9030   22.3800 O   0  0  0  0  0  0  0  0  0  0  0  0
  -25.0050  -34.0710   24.9560 H   0  0  0  0  0  0  0  0  0  0  0  0
  -24.1760  -36.7610   23.0590 C   0  0  0  0  0  1  0  0  0  0  0  0
  -25.4210  -36.3700   23.8720 C   0  0  0  0  0  3  0  0  0  0  0  0
  -27.5380  -37.2840   24.7160 C   0  0  0  0  0  1  0  0  0  0  0  0
  -26.4380  -37.4380   23.7660 N   0  0  0  0  0  0  0  0  0  0  0  0
  -26.0170  -38.3510   23.9150 H   0  0  0  0  0  0  0  0  0  0  0  0
  -26.4480  -31.7620   25.0980 C   0  0  1  0  0  0  0  0  0  0  0  0
  -25.3450  -31.5030   26.1490 C   0  0  0  0  0  1  0  0  0  0  0  0
  -27.0550  -30.3960   24.7020 C   0  0  0  0  0  1  0  0  0  0  0  0
  -27.5770  -32.5680   25.7810 C   0  0  0  0  0  1  0  0  0  0  0  0
  1  6  1  0
  2  1  2  0
  3  4  1  0
  4  6  2  0
  4 50  1  0
  5  3  1  0
  7  2  1  0
  7  3  2  0
 10  8  1  6
  9 10  1  0
 10  2  1  0
 10 13  1  0
 13 11  1  1
 13 12  1  0
 14 13  1  0
 15 20  1  0
 16 17  1  0
 16 15  1  0
 18 17  1  0
 18 25  1  0
 18 19  1  0
 20 14  1  0
 20 19  1  0
 21 14  2  0
 22 23  2  0
 23 42  1  0
 24 23  1  0
 24 27  1  0
 25 26  1  0
 25 22  1  0
 26 24  2  0
 27 28  1  0
 28 29  2  0
 30 33  1  0
 30 29  1  0
 31 30  2  0
 32 31  1  0
 32 27  2  0
 33 34  1  0
 34 35  1  0
 35 36  2  0
 37 36  1  0
 37 41  1  0
 38 37  2  0
 39 34  2  0
 39 38  1  0
 40 39  1  0
 42 43  1  0
 43 46  1  0
 43 45  1  0
 44 42  2  0
 47 22  1  0
 47 48  1  0
 49 47  1  0
 51 52  1  0
 51 50  1  0
 53 52  1  0
 54 65  2  0
 55 53  1  0
 55 60  1  0
 56 64  1  0
 56 66  1  0
 57 63  1  0
 57 59  1  0
 58 64  1  0
 59 60  2  0
 59 58  1  0
 61 55  2  0
 62 61  1  0
 62 57  2  0
 63 56  1  0
 64 54  1  0
 66 68  2  0
 67 66  1  0
 69 67  1  0
 70 79  2  0
 70 75  1  0
 71 67  1  0
 71 75  1  0
 72 71  1  0
 73 74  1  0
 73 72  1  0
 74 70  1  0
 75 76  2  0
 76 77  1  0
 78 77  2  0
 79 78  1  0
 80 54  1  0
 80 81  1  0
 80 90  1  0
 81 84  1  0
 82 86  1  0
 82 81  1  0
 83 82  2  0
 86 85  1  0
 88 86  1  0
 88 89  1  0
 88 87  1  0
 90 93  1  1
 90 91  1  0
 92 90  1  0
M  ISO  4  13 100  14 100  52 101  53 101
M  END
>  <TORSDO>  (40) 
F 21

>  <SCORE>  (40) 
-12.579

>  <name>  (40) 
39

>  <ligand_id>  (40) 
39

>  <original_smiles>  (40) 
[H]c1nc(C([H])([H])C([H])([H])C([H])([H])Oc2c([H])c([H])c3c(c2[H])C([H])([H])N(C(=O)C([H])(N([H])C(=O)C([H])(N([H])C([H])([H])[H])C([H])([H])[H])C(C([H])([H])[H])(C([H])([H])[H])C([H])([H])[H])C([H])(C(=O)N([H])C2([H])c4c([H])c([H])c([H])c([H])c4C([H])([H])C([H])([H])C2([H])[H])C3([H])[H])c(C([H])([H])[H])nc1C(C([H])([H])[H])(C([H])([H])[H])C(C(=O)N1C([H])([H])C([H])([H])C([H])([H])C([H])(n2nc(-c3c([H])c([H])c(Oc4c([H])c([H])c(F)c([H])c4F)c([H])c3[H])c(C(=O)N([H])[H])c2N([H])[H])C1([H])[H])(C([H])([H])[H])C([H])([H])[H]

>  <smiles>  (40) 
[H]c1nc(C([H])([H])C([H])([H])C([H])([H])Oc2c([H])c([H])c3c(c2[H])C([H])([H])N(C(=O)C([H])(N([H])C(=O)C([H])(N([H])C([H])([H])[H])C([H])([H])[H])C(C([H])([H])[H])(C([H])([H])[H])C([H])([H])[H])C([H])(C(=O)N([H])C2([H])c4c([H])c([H])c([H])c([H])c4C([H])([H])C([H])([H])C2([H])[H])C3([H])[H])c(C([H])([H])[H])nc1C(C([H])([H])[H])(C([H])([H])[H])C(C(=O)N1C([H])([H])C([H])([H])C([H])([H])C([H])(n2nc(-c3c([H])c([H])c(Oc4c([H])c([H])c(F)c([H])c4F)c([H])c3[H])c(C(=O)N([H])[H])c2N([H])[H])C1([H])[H])(C([H])([H])[H])C([H])([H])[H]

$$$$
40:0:0
     RDKit          3D

 92100  0  0  1  0  0  0  0  0999 V2000
  -26.0560  -22.1960   20.8830 C   0  0  0  0  0  1  0  0  0  0  0  0
  -27.5110  -23.5980   22.2860 C   0  0  0  0  0  1  0  0  0  0  0  0
  -27.4840  -22.7850   20.9710 C   0  0  1  0  0  0  0  0  0  0  0  0
  -29.6760  -21.5410   21.8600 C   0  0  0  0  0  3  0  0  0  0  0  0
  -30.1280  -20.2570   21.7040 C   0  0  0  0  0  3  0  0  0  0  0  0
  -28.4960  -21.6250   21.0630 C   0  0  0  0  0  0  0  0  0  0  0  0
  -28.3090  -20.4770   20.4020 N   0  0  0  0  0  0  0  0  0  0  0  0
  -29.2790  -19.6190   20.8250 N   0  0  0  0  0  0  0  0  0  0  0  0
  -29.2320  -18.2040   20.4200 C   0  0  0  0  0  2  0  0  0  0  0  0
  -30.5550  -17.3900   20.6140 C   0  0  0  0  0  2  0  0  0  0  0  0
  -31.3160  -15.0420   20.3100 C   0  0  0  0  0  0  0  0  0  0  0  0
  -31.0900  -12.7220   19.5360 C   0  0  0  0  0  2  0  0  0  0  0  0
  -30.2140  -12.7160   18.2640 C   0  0  0  0  0  2  0  0  0  0  0  0
  -28.7140  -12.6650   18.6220 C   0  0  0  0  0  2  0  0  0  0  0  0
  -28.3080  -13.6730   19.7310 C   0  0  0  0  0  3  0  0  0  0  0  0
  -29.3080  -13.6550   20.9100 C   0  0  0  0  0  2  0  0  0  0  0  0
  -30.6520  -13.8580   20.3570 N   0  0  0  0  0  0  0  0  0  0  0  0
  -32.5420  -15.1140   20.1790 O   0  0  0  0  0  0  0  0  0  0  0  0
  -30.5870  -16.3220   18.4350 C   0  0  0  0  0  1  0  0  0  0  0  0
  -30.5560  -16.0930   19.8930 N   0  0  0  0  0  0  0  0  0  0  0  0
  -25.9260  -14.3900   20.3840 C   0  0  0  0  0  0  0  0  0  0  0  0
  -24.8120  -13.6670   20.7120 C   0  0  0  0  0  0  0  0  0  0  0  0
  -25.2100  -12.2950   20.6910 C   0  0  0  0  0  0  0  0  0  0  0  0
  -26.9330  -13.4600   20.1790 N   0  0  0  0  0  0  0  0  0  0  0  0
  -26.5060  -12.1960   20.4260 N   0  0  0  0  0  0  0  0  0  0  0  0
  -24.4210  -11.0670   20.8470 C   0  0  0  0  0  0  0  0  0  0  0  0
  -24.7650  -10.0870   21.8050 C   0  0  0  0  0  3  0  0  0  0  0  0
  -23.9840   -8.9210   21.9490 C   0  0  0  0  0  3  0  0  0  0  0  0
  -22.8410   -8.7280   21.1350 C   0  0  0  0  0  0  0  0  0  0  0  0
  -22.5170   -9.6950   20.1680 C   0  0  0  0  0  3  0  0  0  0  0  0
  -23.2990  -10.8530   20.0220 C   0  0  0  0  0  3  0  0  0  0  0  0
  -22.0350   -7.6170   21.1890 O   0  0  0  0  0  0  0  0  0  0  0  0
  -21.8700   -6.9040   22.3500 C   0  0  0  0  0  0  0  0  0  0  0  0
  -21.3950   -7.5070   23.5340 C   0  0  0  0  0  3  0  0  0  0  0  0
  -21.1740   -6.7230   24.6840 C   0  0  0  0  0  3  0  0  0  0  0  0
  -21.4160   -5.3360   24.6490 C   0  0  0  0  0  0  0  0  0  0  0  0
  -21.8850   -4.7330   23.4690 C   0  0  0  0  0  3  0  0  0  0  0  0
  -22.1070   -5.5150   22.3210 C   0  0  0  0  0  0  0  0  0  0  0  0
  -22.5390   -4.9240   21.1800 F   0  0  0  0  0  0  0  0  0  0  0  0
  -21.1950   -4.5810   25.7500 F   0  0  0  0  0  0  0  0  0  0  0  0
  -23.4270  -14.2070   20.9340 C   0  0  0  0  0  0  0  0  0  0  0  0
  -22.6390  -13.5500   21.7780 N   0  0  0  0  0  0  0  0  0  0  0  0
  -23.0520  -15.2470   20.3920 O   0  0  0  0  0  0  0  0  0  0  0  0
  -22.9490  -12.7050   22.2350 H   0  0  0  0  0  0  0  0  0  0  0  0
  -21.7110  -13.9000   21.9700 H   0  0  0  0  0  0  0  0  0  0  0  0
  -26.1650  -15.7520   20.2180 N   0  0  0  0  0  0  0  0  0  0  0  0
  -25.4410  -16.4510   20.3260 H   0  0  0  0  0  0  0  0  0  0  0  0
  -27.0480  -16.1370   19.9040 H   0  0  0  0  0  0  0  0  0  0  0  0
  -27.6960  -23.7180   19.7300 C   0  0  0  0  0  2  0  0  0  0  0  0
  -28.8410  -24.7680   19.7700 C   0  0  0  0  0  2  0  0  0  0  0  0
  -28.4350  -26.2060   20.2110 C   0  0  0  0  0  2  0  0  0  0  0  0
  -28.0250  -27.0310   19.1120 O   0  0  0  0  0  0  0  0  0  0  0  0
  -24.5340  -31.8670   23.0560 C   0  0  0  0  0  0  0  0  0  0  0  0
  -26.8850  -27.7690   19.3340 C   0  0  0  0  0  0  0  0  0  0  0  0
  -23.1820  -30.6150   21.4050 C   0  0  0  0  0  3  0  0  0  0  0  0
  -24.5010  -29.2370   19.7110 C   0  0  0  0  0  0  0  0  0  0  0  0
  -25.6770  -31.0190   21.0110 C   0  0  0  0  0  2  0  0  0  0  0  0
  -25.7070  -29.7130   20.2430 C   0  0  0  0  0  0  0  0  0  0  0  0
  -26.9050  -28.9830   20.0570 C   0  0  0  0  0  3  0  0  0  0  0  0
  -25.6700  -27.3100   18.7910 C   0  0  0  0  0  3  0  0  0  0  0  0
  -24.4770  -28.0340   18.9820 C   0  0  0  0  0  3  0  0  0  0  0  0
  -23.2650  -30.0730   19.9520 C   0  0  0  0  0  2  0  0  0  0  0  0
  -24.4870  -31.1770   21.8820 N   0  0  0  0  0  0  0  0  0  0  0  0
  -23.5080  -32.0740   23.7180 O   0  0  0  0  0  0  0  0  0  0  0  0
  -22.6260  -29.4990   22.3200 C   0  0  0  0  0  0  0  0  0  0  0  0
  -21.3020  -29.2840   22.2640 N   0  0  0  0  0  0  0  0  0  0  0  0
  -23.3810  -28.8360   23.0360 O   0  0  0  0  0  0  0  0  0  0  0  0
  -20.7500  -29.8800   21.6630 H   0  0  0  0  0  0  0  0  0  0  0  0
  -18.0170  -27.8780   22.7990 C   0  0  0  0  0  0  0  0  0  0  0  0
  -20.5660  -28.2590   23.0040 C   0  0  0  0  0  3  0  0  0  0  0  0
  -20.7230  -26.8700   22.3420 C   0  0  0  0  0  2  0  0  0  0  0  0
  -19.6040  -26.5460   21.3450 C   0  0  0  0  0  2  0  0  0  0  0  0
  -18.2420  -26.5780   22.0420 C   0  0  0  0  0  2  0  0  0  0  0  0
  -19.1080  -28.6730   23.2370 C   0  0  0  0  0  0  0  0  0  0  0  0
  -18.8430  -29.8890   23.9040 C   0  0  0  0  0  3  0  0  0  0  0  0
  -17.5210  -30.3090   24.1400 C   0  0  0  0  0  3  0  0  0  0  0  0
  -16.4450  -29.5080   23.7200 C   0  0  0  0  0  3  0  0  0  0  0  0
  -16.6940  -28.2940   23.0550 C   0  0  0  0  0  3  0  0  0  0  0  0
  -25.8710  -32.4500   23.6120 C   0  0  0  0  0  3  0  0  0  0  0  0
  -25.5950  -33.8080   24.0990 N   0  0  0  0  0  0  0  0  0  0  0  0
  -25.8740  -34.9290   23.4220 C   0  0  0  0  0  0  0  0  0  0  0  0
  -26.4640  -34.9290   22.3380 O   0  0  0  0  0  0  0  0  0  0  0  0
  -25.0630  -33.8830   24.9540 H   0  0  0  0  0  0  0  0  0  0  0  0
  -24.1320  -36.7430   23.3690 C   0  0  0  0  0  1  0  0  0  0  0  0
  -25.4260  -36.2650   24.0460 C   0  0  0  0  0  3  0  0  0  0  0  0
  -27.6220  -37.0690   24.7990 C   0  0  0  0  0  1  0  0  0  0  0  0
  -26.4520  -37.3270   23.9610 N   0  0  0  0  0  0  0  0  0  0  0  0
  -26.0620  -38.2260   24.2320 H   0  0  0  0  0  0  0  0  0  0  0  0
  -26.5100  -31.5650   24.7530 C   0  0  1  0  0  0  0  0  0  0  0  0
  -25.5260  -31.2210   25.8960 C   0  0  0  0  0  1  0  0  0  0  0  0
  -27.0450  -30.2340   24.1730 C   0  0  0  0  0  1  0  0  0  0  0  0
  -27.7230  -32.2990   25.3690 C   0  0  0  0  0  1  0  0  0  0  0  0
  3  1  1  6
  3  6  1  0
  3  2  1  0
  5  4  2  0
  6  4  1  0
  7  8  1  0
  7  6  2  0
  8  5  1  0
  9 10  1  0
  9  8  1  0
 11 17  1  0
 12 17  1  0
 13 14  1  0
 13 12  1  0
 15 14  1  0
 15 24  1  0
 15 16  1  0
 17 16  1  0
 18 11  2  0
 19 20  1  0
 20 11  1  0
 20 10  1  0
 21 22  2  0
 22 41  1  0
 23 22  1  0
 23 26  1  0
 24 21  1  0
 24 25  1  0
 25 23  2  0
 26 27  1  0
 27 28  2  0
 29 32  1  0
 29 28  1  0
 30 29  2  0
 31 30  1  0
 31 26  2  0
 32 33  1  0
 33 34  1  0
 34 35  2  0
 36 35  1  0
 36 40  1  0
 37 36  2  0
 38 33  2  0
 38 37  1  0
 39 38  1  0
 41 42  1  0
 42 45  1  0
 42 44  1  0
 43 41  2  0
 46 47  1  0
 46 21  1  0
 48 46  1  0
 49 50  1  0
 49  3  1  0
 50 51  1  0
 52 54  1  0
 52 51  1  0
 53 64  2  0
 54 59  1  0
 55 63  1  0
 55 65  1  0
 56 62  1  0
 56 58  1  0
 57 63  1  0
 58 57  1  0
 59 58  2  0
 60 61  1  0
 60 54  2  0
 61 56  2  0
 62 55  1  0
 63 53  1  0
 65 67  2  0
 66 65  1  0
 68 66  1  0
 69 78  2  0
 69 74  1  0
 70 66  1  0
 70 74  1  0
 71 70  1  0
 72 73  1  0
 72 71  1  0
 73 69  1  0
 74 75  2  0
 75 76  1  0
 77 76  2  0
 78 77  1  0
 79 53  1  0
 79 80  1  0
 79 89  1  0
 80 83  1  0
 81 85  1  0
 81 80  1  0
 82 81  2  0
 85 84  1  0
 87 85  1  0
 87 88  1  0
 87 86  1  0
 89 92  1  1
 89 90  1  0
 91 89  1  0
M  ISO  4  11 100  20 100  51 101  52 101
M  END
>  <TORSDO>  (41) 
F 22

>  <SCORE>  (41) 
-10.684

>  <name>  (41) 
40

>  <ligand_id>  (41) 
40

>  <original_smiles>  (41) 
[H]c1c([H])c([H])c2c(c1[H])C([H])([H])C([H])([H])C([H])([H])C2([H])N([H])C(=O)C1([H])N(C(=O)C([H])(N([H])C(=O)C([H])(N([H])C([H])([H])[H])C([H])([H])[H])C(C([H])([H])[H])(C([H])([H])[H])C([H])([H])[H])C([H])([H])c2c([H])c(OC([H])([H])C([H])([H])C([H])([H])C(c3nn(C([H])([H])C([H])([H])N(C(=O)N4C([H])([H])C([H])([H])C([H])([H])C([H])(n5nc(-c6c([H])c([H])c(Oc7c([H])c([H])c(F)c([H])c7F)c([H])c6[H])c(C(=O)N([H])[H])c5N([H])[H])C4([H])[H])C([H])([H])[H])c([H])c3[H])(C([H])([H])[H])C([H])([H])[H])c([H])c([H])c2C1([H])[H]

>  <smiles>  (41) 
[H]c1c([H])c([H])c2c(c1[H])C([H])([H])C([H])([H])C([H])([H])C2([H])N([H])C(=O)C1([H])N(C(=O)C([H])(N([H])C(=O)C([H])(N([H])C([H])([H])[H])C([H])([H])[H])C(C([H])([H])[H])(C([H])([H])[H])C([H])([H])[H])C([H])([H])c2c([H])c(OC([H])([H])C([H])([H])C([H])([H])C(c3nn(C([H])([H])C([H])([H])N(C(=O)N4C([H])([H])C([H])([H])C([H])([H])C([H])(n5nc(-c6c([H])c([H])c(Oc7c([H])c([H])c(F)c([H])c7F)c([H])c6[H])c(C(=O)N([H])[H])c5N([H])[H])C4([H])[H])C([H])([H])[H])c([H])c3[H])(C([H])([H])[H])C([H])([H])[H])c([H])c([H])c2C1([H])[H]

$$$$
41:0:0
     RDKit          3D

 94102  0  0  1  0  0  0  0  0999 V2000
  -27.5460  -21.8000   21.3270 C   0  0  0  0  0  1  0  0  0  0  0  0
  -28.1950  -21.6620   18.9260 C   0  0  0  0  0  1  0  0  0  0  0  0
  -28.7500  -21.6410   20.3650 C   0  0  2  0  0  0  0  0  0  0  0  0
  -29.0530  -17.8900   20.7660 C   0  0  0  0  0  3  0  0  0  0  0  0
  -30.7540  -19.9020   20.2020 C   0  0  0  0  0  3  0  0  0  0  0  0
  -30.3490  -17.5770   20.2670 C   0  0  0  0  0  0  0  0  0  0  0  0
  -29.4110  -20.2140   20.5600 C   0  0  0  0  0  0  0  0  0  0  0  0
  -31.2050  -18.6230   20.0540 N   0  0  0  0  0  0  0  0  0  0  0  0
  -28.5850  -19.1710   20.8720 N   0  0  0  0  0  0  0  0  0  0  0  0
  -31.8930  -16.4210   18.5810 C   0  0  0  0  0  1  0  0  0  0  0  0
  -29.5090  -16.0770   18.4720 C   0  0  0  0  0  1  0  0  0  0  0  0
  -30.6490  -16.2140   19.5150 C   0  0  2  0  0  0  0  0  0  0  0  0
  -31.0320  -14.8870   20.3680 C   0  0  0  0  0  0  0  0  0  0  0  0
  -30.7480  -12.5700   19.5770 C   0  0  0  0  0  2  0  0  0  0  0  0
  -29.8670  -12.5120   18.3170 C   0  0  0  0  0  2  0  0  0  0  0  0
  -28.3630  -12.4780   18.6830 C   0  0  0  0  0  2  0  0  0  0  0  0
  -27.9500  -13.4160   19.8530 C   0  0  0  0  0  3  0  0  0  0  0  0
  -28.9930  -13.4710   20.9870 C   0  0  0  0  0  2  0  0  0  0  0  0
  -30.3050  -13.7230   20.3770 N   0  0  0  0  0  0  0  0  0  0  0  0
  -32.2330  -14.8020   20.6190 O   0  0  0  0  0  0  0  0  0  0  0  0
  -25.5620  -14.0680   20.5180 C   0  0  0  0  0  0  0  0  0  0  0  0
  -24.4730  -13.3150   20.8550 C   0  0  0  0  0  0  0  0  0  0  0  0
  -24.9200  -11.9580   20.8640 C   0  0  0  0  0  0  0  0  0  0  0  0
  -26.6000  -13.1660   20.3310 N   0  0  0  0  0  0  0  0  0  0  0  0
  -26.2200  -11.8970   20.6100 N   0  0  0  0  0  0  0  0  0  0  0  0
  -24.1770  -10.7070   21.0360 C   0  0  0  0  0  0  0  0  0  0  0  0
  -24.5640   -9.7470   21.9960 C   0  0  0  0  0  3  0  0  0  0  0  0
  -23.8190   -8.5590   22.1560 C   0  0  0  0  0  3  0  0  0  0  0  0
  -22.6770   -8.3240   21.3540 C   0  0  0  0  0  0  0  0  0  0  0  0
  -22.3130   -9.2720   20.3830 C   0  0  0  0  0  3  0  0  0  0  0  0
  -23.0570  -10.4520   20.2210 C   0  0  0  0  0  3  0  0  0  0  0  0
  -21.9090   -7.1870   21.4230 O   0  0  0  0  0  0  0  0  0  0  0  0
  -21.7950   -6.4670   22.5860 C   0  0  0  0  0  0  0  0  0  0  0  0
  -21.2950   -7.0450   23.7740 C   0  0  0  0  0  3  0  0  0  0  0  0
  -21.1290   -6.2520   24.9260 C   0  0  0  0  0  3  0  0  0  0  0  0
  -21.4530   -4.8830   24.8930 C   0  0  0  0  0  0  0  0  0  0  0  0
  -21.9470   -4.3050   23.7100 C   0  0  0  0  0  3  0  0  0  0  0  0
  -22.1160   -5.0960   22.5590 C   0  0  0  0  0  0  0  0  0  0  0  0
  -22.5720   -4.5300   21.4160 F   0  0  0  0  0  0  0  0  0  0  0  0
  -21.2880   -4.1190   25.9970 F   0  0  0  0  0  0  0  0  0  0  0  0
  -23.0700  -13.8120   21.0580 C   0  0  0  0  0  0  0  0  0  0  0  0
  -22.2990  -13.1400   21.9060 N   0  0  0  0  0  0  0  0  0  0  0  0
  -22.6670  -14.8320   20.5010 O   0  0  0  0  0  0  0  0  0  0  0  0
  -22.6350  -12.3150   22.3790 H   0  0  0  0  0  0  0  0  0  0  0  0
  -21.3580  -13.4610   22.0890 H   0  0  0  0  0  0  0  0  0  0  0  0
  -25.7480  -15.4340   20.3280 N   0  0  0  0  0  0  0  0  0  0  0  0
  -24.9830  -16.0950   20.4120 H   0  0  0  0  0  0  0  0  0  0  0  0
  -26.6090  -15.8630   20.0190 H   0  0  0  0  0  0  0  0  0  0  0  0
  -30.2480  -22.9810   22.0150 C   0  0  0  0  0  1  0  0  0  0  0  0
  -29.7250  -22.8910   20.5670 C   0  0  0  0  0  3  0  0  0  0  0  0
  -30.7170  -25.0770   19.6430 C   0  0  0  0  0  1  0  0  0  0  0  0
  -29.3920  -24.3400   19.9490 C   0  0  0  0  0  3  0  0  0  0  0  0
  -28.4220  -25.3300   20.7100 C   0  0  0  0  0  2  0  0  0  0  0  0
  -28.4770  -26.7230   20.2550 O   0  0  0  0  0  0  0  0  0  0  0  0
  -24.5970  -31.9630   23.2720 C   0  0  0  0  0  0  0  0  0  0  0  0
  -27.3080  -27.4810   20.2550 C   0  0  0  0  0  0  0  0  0  0  0  0
  -23.4220  -30.5410   21.6270 C   0  0  0  0  0  3  0  0  0  0  0  0
  -24.9040  -29.0070   20.2230 C   0  0  0  0  0  0  0  0  0  0  0  0
  -25.9490  -30.9140   21.4510 C   0  0  0  0  0  2  0  0  0  0  0  0
  -26.0580  -29.5360   20.8180 C   0  0  0  0  0  0  0  0  0  0  0  0
  -27.2640  -28.7850   20.8190 C   0  0  0  0  0  3  0  0  0  0  0  0
  -26.1360  -26.9820   19.6470 C   0  0  0  0  0  3  0  0  0  0  0  0
  -24.9420  -27.7310   19.6330 C   0  0  0  0  0  3  0  0  0  0  0  0
  -23.6530  -29.8580   20.2540 C   0  0  0  0  0  2  0  0  0  0  0  0
  -24.6750  -31.1560   22.1760 N   0  0  0  0  0  0  0  0  0  0  0  0
  -23.5070  -32.2270   23.8000 O   0  0  0  0  0  0  0  0  0  0  0  0
  -22.7700  -29.5180   22.5870 C   0  0  0  0  0  0  0  0  0  0  0  0
  -21.4470  -29.3270   22.4550 N   0  0  0  0  0  0  0  0  0  0  0  0
  -23.4510  -28.9000   23.4080 O   0  0  0  0  0  0  0  0  0  0  0  0
  -20.9560  -29.8830   21.7670 H   0  0  0  0  0  0  0  0  0  0  0  0
  -18.0760  -28.1170   22.9490 C   0  0  0  0  0  0  0  0  0  0  0  0
  -20.6330  -28.3820   23.2200 C   0  0  0  0  0  3  0  0  0  0  0  0
  -20.7390  -26.9550   22.6340 C   0  0  0  0  0  2  0  0  0  0  0  0
  -19.6360  -26.6350   21.6200 C   0  0  0  0  0  2  0  0  0  0  0  0
  -18.2560  -26.7700   22.2660 C   0  0  0  0  0  2  0  0  0  0  0  0
  -19.1920  -28.8810   23.3810 C   0  0  0  0  0  0  0  0  0  0  0  0
  -18.9690  -30.1400   23.9780 C   0  0  0  0  0  3  0  0  0  0  0  0
  -17.6630  -30.6370   24.1460 C   0  0  0  0  0  3  0  0  0  0  0  0
  -16.5610  -29.8700   23.7290 C   0  0  0  0  0  3  0  0  0  0  0  0
  -16.7680  -28.6110   23.1370 C   0  0  0  0  0  3  0  0  0  0  0  0
  -25.8690  -32.6100   23.9030 C   0  0  0  0  0  3  0  0  0  0  0  0
  -25.5490  -34.0120   24.2070 N   0  0  0  0  0  0  0  0  0  0  0  0
  -25.8990  -35.0560   23.4410 C   0  0  0  0  0  0  0  0  0  0  0  0
  -26.5930  -34.9390   22.4290 O   0  0  0  0  0  0  0  0  0  0  0  0
  -24.9320  -34.1750   24.9890 H   0  0  0  0  0  0  0  0  0  0  0  0
  -24.1880  -36.8480   23.0070 C   0  0  0  0  0  1  0  0  0  0  0  0
  -25.3980  -36.4500   23.8670 C   0  0  0  0  0  3  0  0  0  0  0  0
  -27.5040  -37.3380   24.7650 C   0  0  0  0  0  1  0  0  0  0  0  0
  -26.4370  -37.5000   23.7810 N   0  0  0  0  0  0  0  0  0  0  0  0
  -26.0300  -38.4230   23.9040 H   0  0  0  0  0  0  0  0  0  0  0  0
  -26.3740  -31.8620   25.1980 C   0  0  1  0  0  0  0  0  0  0  0  0
  -25.2660  -31.6300   26.2520 C   0  0  0  0  0  1  0  0  0  0  0  0
  -26.9730  -30.4840   24.8320 C   0  0  0  0  0  1  0  0  0  0  0  0
  -27.5110  -32.6730   25.8630 C   0  0  0  0  0  1  0  0  0  0  0  0
  3  2  1  6
  3  7  1  0
  3 50  1  0
  3  1  1  0
  4  9  1  0
  5  7  1  0
  6  4  2  0
  7  9  2  0
  8  5  2  0
  8  6  1  0
 12 10  1  6
 11 12  1  0
 12  6  1  0
 12 13  1  0
 13 19  1  0
 13 20  2  0
 14 19  1  0
 15 16  1  0
 15 14  1  0
 17 16  1  0
 17 24  1  0
 17 18  1  0
 19 18  1  0
 21 22  2  0
 22 23  1  0
 22 41  1  0
 23 26  1  0
 24 21  1  0
 24 25  1  0
 25 23  2  0
 26 27  1  0
 27 28  2  0
 29 32  1  0
 29 28  1  0
 30 29  2  0
 31 30  1  0
 31 26  2  0
 32 33  1  0
 33 34  1  0
 34 35  2  0
 36 35  1  0
 36 40  1  0
 37 36  2  0
 38 33  2  0
 38 37  1  0
 39 38  1  0
 41 42  1  0
 42 45  1  0
 42 44  1  0
 43 41  2  0
 46 47  1  0
 46 21  1  0
 48 46  1  0
 50 49  1  0
 52 51  1  0
 52 50  1  0
 52 53  1  0
 54 56  1  0
 54 53  1  0
 55 66  2  0
 56 61  1  0
 57 65  1  0
 57 67  1  0
 58 64  1  0
 58 60  1  0
 59 65  1  0
 60 61  2  0
 60 59  1  0
 62 56  2  0
 63 62  1  0
 63 58  2  0
 64 57  1  0
 65 55  1  0
 67 69  2  0
 68 67  1  0
 70 68  1  0
 71 80  2  0
 71 76  1  0
 72 68  1  0
 72 76  1  0
 73 72  1  0
 74 75  1  0
 74 73  1  0
 75 71  1  0
 76 77  2  0
 77 78  1  0
 79 78  2  0
 80 79  1  0
 81 55  1  0
 81 82  1  0
 81 91  1  0
 82 85  1  0
 83 87  1  0
 83 82  1  0
 84 83  2  0
 87 86  1  0
 89 87  1  0
 89 90  1  0
 89 88  1  0
 91 94  1  1
 91 92  1  0
 93 91  1  0
M  ISO  4  12 100  13 100  53 101  54 101
M  END
>  <TORSDO>  (42) 
F 21

>  <SCORE>  (42) 
-12.878

>  <name>  (42) 
41

>  <ligand_id>  (42) 
41

>  <original_smiles>  (42) 
[H]c1nc(C(C([H])([H])[H])(C([H])([H])[H])C([H])(C([H])([H])[H])C([H])(C([H])([H])[H])C([H])([H])Oc2c([H])c([H])c3c(c2[H])C([H])([H])N(C(=O)C([H])(N([H])C(=O)C([H])(N([H])C([H])([H])[H])C([H])([H])[H])C(C([H])([H])[H])(C([H])([H])[H])C([H])([H])[H])C([H])(C(=O)N([H])C2([H])c4c([H])c([H])c([H])c([H])c4C([H])([H])C([H])([H])C2([H])[H])C3([H])[H])c([H])nc1C(C(=O)N1C([H])([H])C([H])([H])C([H])([H])C([H])(n2nc(-c3c([H])c([H])c(Oc4c([H])c([H])c(F)c([H])c4F)c([H])c3[H])c(C(=O)N([H])[H])c2N([H])[H])C1([H])[H])(C([H])([H])[H])C([H])([H])[H]

>  <smiles>  (42) 
[H]c1nc(C(C([H])([H])[H])(C([H])([H])[H])C([H])(C([H])([H])[H])C([H])(C([H])([H])[H])C([H])([H])Oc2c([H])c([H])c3c(c2[H])C([H])([H])N(C(=O)C([H])(N([H])C(=O)C([H])(N([H])C([H])([H])[H])C([H])([H])[H])C(C([H])([H])[H])(C([H])([H])[H])C([H])([H])[H])C([H])(C(=O)N([H])C2([H])c4c([H])c([H])c([H])c([H])c4C([H])([H])C([H])([H])C2([H])[H])C3([H])[H])c([H])nc1C(C(=O)N1C([H])([H])C([H])([H])C([H])([H])C([H])(n2nc(-c3c([H])c([H])c(Oc4c([H])c([H])c(F)c([H])c4F)c([H])c3[H])c(C(=O)N([H])[H])c2N([H])[H])C1([H])[H])(C([H])([H])[H])C([H])([H])[H]

$$$$
42:0:0
     RDKit          3D

 94102  0  0  1  0  0  0  0  0999 V2000
  -27.9480  -20.6710   20.4240 C   0  0  0  0  0  3  0  0  0  0  0  0
  -28.5350  -22.4980   22.1430 C   0  0  0  0  0  1  0  0  0  0  0  0
  -26.2930  -22.4500   21.0440 C   0  0  0  0  0  1  0  0  0  0  0  0
  -27.8000  -22.1830   20.8210 C   0  0  2  0  0  0  0  0  0  0  0  0
  -28.3190  -23.1100   19.6780 C   0  0  0  0  0  2  0  0  0  0  0  0
  -28.2070  -24.6410   19.9270 C   0  0  0  0  0  2  0  0  0  0  0  0
  -28.4470  -25.5080   18.6700 C   0  0  0  0  0  2  0  0  0  0  0  0
  -28.3550  -26.9140   18.9430 O   0  0  0  0  0  0  0  0  0  0  0  0
  -24.4970  -31.4170   22.8600 C   0  0  0  0  0  0  0  0  0  0  0  0
  -27.1220  -27.5220   19.0940 C   0  0  0  0  0  0  0  0  0  0  0  0
  -23.2380  -30.1330   21.1590 C   0  0  0  0  0  3  0  0  0  0  0  0
  -24.6510  -28.8600   19.4620 C   0  0  0  0  0  0  0  0  0  0  0  0
  -25.7140  -30.6740   20.8130 C   0  0  0  0  0  2  0  0  0  0  0  0
  -25.8220  -29.3900   20.0160 C   0  0  0  0  0  0  0  0  0  0  0  0
  -27.0560  -28.7300   19.8270 C   0  0  0  0  0  3  0  0  0  0  0  0
  -25.9270  -27.0020   18.5410 C   0  0  0  0  0  3  0  0  0  0  0  0
  -24.6990  -27.6650   18.7230 C   0  0  0  0  0  3  0  0  0  0  0  0
  -23.3690  -29.6250   19.6990 C   0  0  0  0  0  2  0  0  0  0  0  0
  -24.5050  -30.7500   21.6700 N   0  0  0  0  0  0  0  0  0  0  0  0
  -23.4510  -31.5560   23.5080 O   0  0  0  0  0  0  0  0  0  0  0  0
  -22.7240  -28.9730   22.0410 C   0  0  0  0  0  0  0  0  0  0  0  0
  -21.4120  -28.6990   21.9630 N   0  0  0  0  0  0  0  0  0  0  0  0
  -23.5000  -28.3240   22.7480 O   0  0  0  0  0  0  0  0  0  0  0  0
  -20.8410  -29.2830   21.3670 H   0  0  0  0  0  0  0  0  0  0  0  0
  -18.1820  -27.1560   22.4530 C   0  0  0  0  0  0  0  0  0  0  0  0
  -20.7140  -27.6260   22.6700 C   0  0  0  0  0  3  0  0  0  0  0  0
  -20.9230  -26.2650   21.9650 C   0  0  0  0  0  2  0  0  0  0  0  0
  -19.8170  -25.9300   20.9590 C   0  0  0  0  0  2  0  0  0  0  0  0
  -18.4540  -25.8900   21.6550 C   0  0  0  0  0  2  0  0  0  0  0  0
  -19.2430  -27.9780   22.9160 C   0  0  0  0  0  0  0  0  0  0  0  0
  -18.9350  -29.1600   23.6230 C   0  0  0  0  0  3  0  0  0  0  0  0
  -17.5990  -29.5230   23.8690 C   0  0  0  0  0  3  0  0  0  0  0  0
  -16.5520  -28.6980   23.4230 C   0  0  0  0  0  3  0  0  0  0  0  0
  -16.8460  -27.5150   22.7210 C   0  0  0  0  0  3  0  0  0  0  0  0
  -25.7940  -32.0530   23.4510 C   0  0  0  0  0  3  0  0  0  0  0  0
  -25.4380  -33.3810   23.9670 N   0  0  0  0  0  0  0  0  0  0  0  0
  -25.6870  -34.5340   23.3310 C   0  0  0  0  0  0  0  0  0  0  0  0
  -26.3120  -34.5920   22.2680 O   0  0  0  0  0  0  0  0  0  0  0  0
  -24.8770  -33.4060   24.8050 H   0  0  0  0  0  0  0  0  0  0  0  0
  -23.8740  -36.2750   23.2590 C   0  0  0  0  0  1  0  0  0  0  0  0
  -25.1580  -35.8280   23.9770 C   0  0  0  0  0  3  0  0  0  0  0  0
  -27.2820  -36.6950   24.8530 C   0  0  0  0  0  1  0  0  0  0  0  0
  -26.1420  -36.9340   23.9720 N   0  0  0  0  0  0  0  0  0  0  0  0
  -25.7040  -37.8080   24.2490 H   0  0  0  0  0  0  0  0  0  0  0  0
  -26.4580  -31.1740   24.5810 C   0  0  1  0  0  0  0  0  0  0  0  0
  -25.4750  -30.7480   25.6970 C   0  0  0  0  0  1  0  0  0  0  0  0
  -27.0760  -29.8910   23.9810 C   0  0  0  0  0  1  0  0  0  0  0  0
  -27.6180  -31.9580   25.2400 C   0  0  0  0  0  1  0  0  0  0  0  0
  -29.1590  -19.8770   20.9940 C   0  0  0  0  0  3  0  0  0  0  0  0
  -30.2830  -16.6230   20.2060 C   0  0  0  0  0  0  0  0  0  0  0  0
  -28.5330  -17.6900   19.7930 C   0  0  0  0  0  3  0  0  0  0  0  0
  -27.1110  -18.0090   19.4590 C   0  0  0  0  0  1  0  0  0  0  0  0
  -29.0840  -16.5000   19.5610 N   0  0  0  0  0  0  0  0  0  0  0  0
  -30.5070  -17.8530   20.6970 N   0  0  0  0  0  2  0  0  0  0  0  0
  -29.3640  -18.5370   20.4230 N   0  0  0  0  0  0  0  0  0  0  0  0
  -30.9190  -14.8820   21.9460 C   0  0  0  0  0  1  0  0  0  0  0  0
  -32.6670  -15.9470   20.6420 C   0  0  0  0  0  1  0  0  0  0  0  0
  -31.1980  -15.4300   20.5170 C   0  0  2  0  0  0  0  0  0  0  0  0
  -31.1880  -14.3030   19.4130 C   0  0  0  0  0  0  0  0  0  0  0  0
  -30.6460  -12.0430   18.5410 C   0  0  0  0  0  2  0  0  0  0  0  0
  -29.5670  -12.0690   17.4430 C   0  0  0  0  0  2  0  0  0  0  0  0
  -28.1640  -11.9970   18.0710 C   0  0  0  0  0  2  0  0  0  0  0  0
  -27.9820  -13.0270   19.2130 C   0  0  0  0  0  3  0  0  0  0  0  0
  -29.1630  -12.9760   20.2050 C   0  0  0  0  0  2  0  0  0  0  0  0
  -30.4170  -13.1740   19.4640 N   0  0  0  0  0  0  0  0  0  0  0  0
  -32.0200  -14.4140   18.5020 O   0  0  0  0  0  0  0  0  0  0  0  0
  -25.8070  -13.8090   20.3430 C   0  0  0  0  0  0  0  0  0  0  0  0
  -24.7350  -13.1200   20.8420 C   0  0  0  0  0  0  0  0  0  0  0  0
  -25.0330  -11.7370   20.6530 C   0  0  0  0  0  0  0  0  0  0  0  0
  -26.7020  -12.8500   19.8950 N   0  0  0  0  0  0  0  0  0  0  0  0
  -26.2450  -11.5940   20.1310 N   0  0  0  0  0  0  0  0  0  0  0  0
  -24.2130  -10.5430   20.8870 C   0  0  0  0  0  0  0  0  0  0  0  0
  -24.6320   -9.5190   21.7640 C   0  0  0  0  0  3  0  0  0  0  0  0
  -23.8180   -8.3880   21.9850 C   0  0  0  0  0  3  0  0  0  0  0  0
  -22.5680   -8.2740   21.3300 C   0  0  0  0  0  0  0  0  0  0  0  0
  -22.1650   -9.2860   20.4410 C   0  0  0  0  0  3  0  0  0  0  0  0
  -22.9800  -10.4090   20.2190 C   0  0  0  0  0  3  0  0  0  0  0  0
  -21.7220   -7.2000   21.4640 O   0  0  0  0  0  0  0  0  0  0  0  0
  -21.6600   -6.4730   22.6240 C   0  0  0  0  0  0  0  0  0  0  0  0
  -21.3300   -7.0690   23.8600 C   0  0  0  0  0  3  0  0  0  0  0  0
  -21.2110   -6.2720   25.0160 C   0  0  0  0  0  3  0  0  0  0  0  0
  -21.4090   -4.8820   24.9370 C   0  0  0  0  0  0  0  0  0  0  0  0
  -21.7310   -4.2850   23.7060 C   0  0  0  0  0  3  0  0  0  0  0  0
  -21.8540   -5.0790   22.5520 C   0  0  0  0  0  0  0  0  0  0  0  0
  -22.1440   -4.4960   21.3640 F   0  0  0  0  0  0  0  0  0  0  0  0
  -21.2860   -4.1150   26.0470 F   0  0  0  0  0  0  0  0  0  0  0  0
  -23.4630  -13.7120   21.3830 C   0  0  0  0  0  0  0  0  0  0  0  0
  -22.8440  -13.0500   22.3520 N   0  0  0  0  0  0  0  0  0  0  0  0
  -23.0400  -14.7940   20.9800 O   0  0  0  0  0  0  0  0  0  0  0  0
  -23.2020  -12.1710   22.6970 H   0  0  0  0  0  0  0  0  0  0  0  0
  -21.9980  -13.4280   22.7560 H   0  0  0  0  0  0  0  0  0  0  0  0
  -26.0870  -15.1630   20.2180 N   0  0  0  0  0  0  0  0  0  0  0  0
  -25.4480  -15.8810   20.5370 H   0  0  0  0  0  0  0  0  0  0  0  0
  -27.0170  -15.5100   20.0110 H   0  0  0  0  0  0  0  0  0  0  0  0
  1  4  1  0
  1 49  2  0
  4  3  1  1
  4  2  1  0
  5  6  1  0
  5  4  1  0
  7  8  1  0
  7  6  1  0
  8 10  1  0
  9 20  2  0
 10 15  1  0
 11 19  1  0
 11 21  1  0
 12 18  1  0
 12 14  1  0
 13 19  1  0
 14 13  1  0
 15 14  2  0
 16 17  1  0
 16 10  2  0
 17 12  2  0
 18 11  1  0
 19  9  1  0
 21 23  2  0
 22 21  1  0
 24 22  1  0
 25 34  2  0
 25 30  1  0
 26 22  1  0
 26 30  1  0
 27 26  1  0
 28 29  1  0
 28 27  1  0
 29 25  1  0
 30 31  2  0
 31 32  1  0
 33 32  2  0
 34 33  1  0
 35  9  1  0
 35 36  1  0
 35 45  1  0
 36 39  1  0
 37 36  1  0
 37 41  1  0
 38 37  2  0
 41 40  1  0
 43 41  1  0
 43 44  1  0
 43 42  1  0
 45 48  1  1
 45 46  1  0
 47 45  1  0
 50 58  1  0
 50 54  1  0
 51 52  1  0
 51 55  1  0
 53 51  1  0
 53 50  2  0
 55 54  1  0
 55 49  1  0
 58 57  1  1
 58 56  1  0
 59 65  1  0
 59 58  1  0
 60 65  1  0
 61 62  1  0
 61 60  1  0
 63 62  1  0
 63 70  1  0
 63 64  1  0
 65 64  1  0
 66 59  2  0
 67 68  2  0
 68 87  1  0
 69 68  1  0
 69 72  1  0
 70 71  1  0
 70 67  1  0
 71 69  2  0
 72 73  1  0
 73 74  2  0
 75 78  1  0
 75 74  1  0
 76 75  2  0
 77 76  1  0
 77 72  2  0
 78 79  1  0
 79 80  1  0
 80 81  2  0
 82 81  1  0
 82 86  1  0
 83 82  2  0
 84 79  2  0
 84 83  1  0
 85 84  1  0
 87 88  1  0
 88 90  1  0
 88 91  1  0
 89 87  2  0
 92 67  1  0
 92 93  1  0
 94 92  1  0
M  ISO  4   7 101   8 101  58 100  59 100
M  END
>  <TORSDO>  (43) 
F 23

>  <SCORE>  (43) 
-9.751

>  <name>  (43) 
42

>  <ligand_id>  (43) 
42

>  <original_smiles>  (43) 
[H]c1c([H])c([H])c2c(c1[H])C([H])([H])C([H])([H])C([H])([H])C2([H])N([H])C(=O)C1([H])N(C(=O)C([H])(N([H])C(=O)C([H])(N([H])C([H])([H])[H])C([H])([H])[H])C(C([H])([H])[H])(C([H])([H])[H])C([H])([H])[H])C([H])([H])c2c([H])c(OC([H])([H])C([H])([H])C([H])([H])C(C([H])([H])[H])(C([H])([H])[H])C([H])([H])C([H])([H])n3nc(C(C(=O)N4C([H])([H])C([H])([H])C([H])([H])C([H])(n5nc(-c6c([H])c([H])c(Oc7c([H])c([H])c(F)c([H])c7F)c([H])c6[H])c(C(=O)N([H])[H])c5N([H])[H])C4([H])[H])(C([H])([H])[H])C([H])([H])[H])nc3C([H])([H])[H])c([H])c([H])c2C1([H])[H]

>  <smiles>  (43) 
[H]c1c([H])c([H])c2c(c1[H])C([H])([H])C([H])([H])C([H])([H])C2([H])N([H])C(=O)C1([H])N(C(=O)C([H])(N([H])C(=O)C([H])(N([H])C([H])([H])[H])C([H])([H])[H])C(C([H])([H])[H])(C([H])([H])[H])C([H])([H])[H])C([H])([H])c2c([H])c(OC([H])([H])C([H])([H])C([H])([H])C(C([H])([H])[H])(C([H])([H])[H])C([H])([H])C([H])([H])n3nc(C(C(=O)N4C([H])([H])C([H])([H])C([H])([H])C([H])(n5nc(-c6c([H])c([H])c(Oc7c([H])c([H])c(F)c([H])c7F)c([H])c6[H])c(C(=O)N([H])[H])c5N([H])[H])C4([H])[H])(C([H])([H])[H])C([H])([H])[H])nc3C([H])([H])[H])c([H])c([H])c2C1([H])[H]

$$$$
43:0:0
     RDKit          3D

 93101  0  0  1  0  0  0  0  0999 V2000
  -29.3520  -19.8820   21.3410 C   0  0  0  0  0  3  0  0  0  0  0  0
  -28.6700  -20.8560   20.5960 C   0  0  0  0  0  0  0  0  0  0  0  0
  -29.4310  -18.5960   20.7780 C   0  0  0  0  0  0  0  0  0  0  0  0
  -28.3230  -19.3400   18.9200 C   0  0  0  0  0  0  0  0  0  0  0  0
  -27.8640  -19.0670   17.5020 C   0  0  0  0  0  1  0  0  0  0  0  0
  -28.1660  -20.5760   19.3800 N   0  0  0  0  0  0  0  0  0  0  0  0
  -28.8910  -18.3360   19.5730 N   0  0  0  0  0  0  0  0  0  0  0  0
  -28.4300  -22.2620   21.1170 C   0  0  0  0  0  2  0  0  0  0  0  0
  -29.1060  -23.3440   20.2630 C   0  0  0  0  0  2  0  0  0  0  0  0
  -28.7920  -24.7560   20.7800 C   0  0  0  0  0  2  0  0  0  0  0  0
  -29.4620  -25.8610   19.9580 C   0  0  0  0  0  2  0  0  0  0  0  0
  -29.1970  -27.1180   20.5690 O   0  0  0  0  0  0  0  0  0  0  0  0
  -24.6810  -31.8320   23.3670 C   0  0  0  0  0  0  0  0  0  0  0  0
  -27.9370  -27.6740   20.4910 C   0  0  0  0  0  0  0  0  0  0  0  0
  -23.7450  -30.3810   21.5990 C   0  0  0  0  0  3  0  0  0  0  0  0
  -25.4360  -28.9790   20.3110 C   0  0  0  0  0  0  0  0  0  0  0  0
  -26.2460  -30.9270   21.6540 C   0  0  0  0  0  2  0  0  0  0  0  0
  -26.4890  -29.5800   21.0070 C   0  0  0  0  0  0  0  0  0  0  0  0
  -27.7410  -28.9350   21.0920 C   0  0  0  0  0  3  0  0  0  0  0  0
  -26.8510  -27.0670   19.8140 C   0  0  0  0  0  3  0  0  0  0  0  0
  -25.6100  -27.7210   19.7140 C   0  0  0  0  0  3  0  0  0  0  0  0
  -24.1330  -29.7420   20.2400 C   0  0  0  0  0  2  0  0  0  0  0  0
  -24.9020  -31.0600   22.2670 N   0  0  0  0  0  0  0  0  0  0  0  0
  -23.5360  -32.0170   23.8010 O   0  0  0  0  0  0  0  0  0  0  0  0
  -23.0800  -29.2960   22.4770 C   0  0  0  0  0  0  0  0  0  0  0  0
  -21.7720  -29.0770   22.2680 N   0  0  0  0  0  0  0  0  0  0  0  0
  -23.7420  -28.6560   23.2980 O   0  0  0  0  0  0  0  0  0  0  0  0
  -21.2990  -29.6510   21.5850 H   0  0  0  0  0  0  0  0  0  0  0  0
  -18.4040  -27.8200   22.5860 C   0  0  0  0  0  0  0  0  0  0  0  0
  -20.9500  -28.0780   22.9490 C   0  0  0  0  0  3  0  0  0  0  0  0
  -21.0820  -26.6930   22.2740 C   0  0  0  0  0  2  0  0  0  0  0  0
  -20.0110  -26.4350   21.2060 C   0  0  0  0  0  2  0  0  0  0  0  0
  -18.6120  -26.5230   21.8240 C   0  0  0  0  0  2  0  0  0  0  0  0
  -19.5030  -28.5570   23.1010 C   0  0  0  0  0  0  0  0  0  0  0  0
  -19.2560  -29.7760   23.7710 C   0  0  0  0  0  3  0  0  0  0  0  0
  -17.9430  -30.2580   23.9280 C   0  0  0  0  0  3  0  0  0  0  0  0
  -16.8580  -29.5150   23.4300 C   0  0  0  0  0  3  0  0  0  0  0  0
  -17.0900  -28.2970   22.7670 C   0  0  0  0  0  3  0  0  0  0  0  0
  -25.8520  -32.5370   24.1210 C   0  0  0  0  0  3  0  0  0  0  0  0
  -25.4580  -33.9350   24.3350 N   0  0  0  0  0  0  0  0  0  0  0  0
  -25.8460  -34.9600   23.5640 C   0  0  0  0  0  0  0  0  0  0  0  0
  -26.6440  -34.8310   22.6310 O   0  0  0  0  0  0  0  0  0  0  0  0
  -24.7580  -34.1050   25.0430 H   0  0  0  0  0  0  0  0  0  0  0  0
  -24.1050  -36.6500   22.9090 C   0  0  0  0  0  1  0  0  0  0  0  0
  -25.2580  -36.3480   23.8790 C   0  0  0  0  0  3  0  0  0  0  0  0
  -27.2510  -37.3630   24.8910 C   0  0  0  0  0  1  0  0  0  0  0  0
  -26.2570  -37.4360   23.8220 N   0  0  0  0  0  0  0  0  0  0  0  0
  -25.8050  -38.3450   23.8730 H   0  0  0  0  0  0  0  0  0  0  0  0
  -26.2190  -31.8440   25.4910 C   0  0  1  0  0  0  0  0  0  0  0  0
  -24.9990  -31.6020   26.4090 C   0  0  0  0  0  1  0  0  0  0  0  0
  -26.9030  -30.4790   25.2440 C   0  0  0  0  0  1  0  0  0  0  0  0
  -27.2400  -32.7150   26.2610 C   0  0  0  0  0  1  0  0  0  0  0  0
  -30.0990  -17.4250   21.4940 C   0  0  0  0  0  2  0  0  0  0  0  0
  -31.5330  -17.0170   19.3820 C   0  0  0  0  0  1  0  0  0  0  0  0
  -30.7290  -16.3710   20.5440 C   0  0  0  0  0  3  0  0  0  0  0  0
  -32.0050  -14.2650   20.8020 C   0  0  0  0  0  0  0  0  0  0  0  0
  -31.5880  -11.9200   20.1900 C   0  0  0  0  0  2  0  0  0  0  0  0
  -30.8120  -11.8100   18.8640 C   0  0  0  0  0  2  0  0  0  0  0  0
  -29.2940  -11.8840   19.1180 C   0  0  0  0  0  2  0  0  0  0  0  0
  -28.8950  -13.0830   20.0200 C   0  0  0  0  0  3  0  0  0  0  0  0
  -29.7900  -13.1490   21.2780 C   0  0  0  0  0  2  0  0  0  0  0  0
  -31.1960  -13.1760   20.8420 N   0  0  0  0  0  0  0  0  0  0  0  0
  -33.1530  -14.2430   20.3550 O   0  0  0  0  0  0  0  0  0  0  0  0
  -31.5280  -15.4020   21.3180 N   0  0  0  0  0  0  0  0  0  0  0  0
  -32.2540  -15.8810   21.8300 H   0  0  0  0  0  0  0  0  0  0  0  0
  -26.5610  -14.0730   20.4650 C   0  0  0  0  0  0  0  0  0  0  0  0
  -25.3540  -13.4850   20.7390 C   0  0  0  0  0  0  0  0  0  0  0  0
  -25.6010  -12.0820   20.7820 C   0  0  0  0  0  0  0  0  0  0  0  0
  -27.4750  -13.0360   20.3630 N   0  0  0  0  0  0  0  0  0  0  0  0
  -26.8940  -11.8350   20.6090 N   0  0  0  0  0  0  0  0  0  0  0  0
  -24.6730  -10.9520   20.9210 C   0  0  0  0  0  0  0  0  0  0  0  0
  -24.9120   -9.9080   21.8430 C   0  0  0  0  0  3  0  0  0  0  0  0
  -23.9950   -8.8430   21.9710 C   0  0  0  0  0  3  0  0  0  0  0  0
  -22.8230   -8.8130   21.1770 C   0  0  0  0  0  0  0  0  0  0  0  0
  -22.6020   -9.8430   20.2450 C   0  0  0  0  0  3  0  0  0  0  0  0
  -23.5180  -10.9000   20.1150 C   0  0  0  0  0  3  0  0  0  0  0  0
  -21.8910   -7.8050   21.2170 O   0  0  0  0  0  0  0  0  0  0  0  0
  -21.7240   -7.0220   22.3320 C   0  0  0  0  0  0  0  0  0  0  0  0
  -21.4190   -7.5750   23.5940 C   0  0  0  0  0  3  0  0  0  0  0  0
  -21.1880   -6.7290   24.6960 C   0  0  0  0  0  3  0  0  0  0  0  0
  -21.2540   -5.3320   24.5390 C   0  0  0  0  0  0  0  0  0  0  0  0
  -21.5520   -4.7780   23.2810 C   0  0  0  0  0  3  0  0  0  0  0  0
  -21.7850   -5.6220   22.1800 C   0  0  0  0  0  0  0  0  0  0  0  0
  -22.0510   -5.0810   20.9670 F   0  0  0  0  0  0  0  0  0  0  0  0
  -21.0260   -4.5200   25.5980 F   0  0  0  0  0  0  0  0  0  0  0  0
  -24.0290  -14.1820   20.8600 C   0  0  0  0  0  0  0  0  0  0  0  0
  -23.1280  -13.6420   21.6760 N   0  0  0  0  0  0  0  0  0  0  0  0
  -23.8030  -15.2360   20.2680 O   0  0  0  0  0  0  0  0  0  0  0  0
  -23.3200  -12.7870   22.1760 H   0  0  0  0  0  0  0  0  0  0  0  0
  -22.2310  -14.0910   21.8010 H   0  0  0  0  0  0  0  0  0  0  0  0
  -26.9530  -15.3920   20.2810 N   0  0  0  0  0  0  0  0  0  0  0  0
  -26.2990  -16.1620   20.3440 H   0  0  0  0  0  0  0  0  0  0  0  0
  -27.9060  -15.6970   20.1270 H   0  0  0  0  0  0  0  0  0  0  0  0
  2  8  1  0
  2  1  2  0
  3  1  1  0
  3 53  1  0
  4  6  2  0
  4  7  1  0
  5  4  1  0
  6  2  1  0
  7  3  2  0
  9 10  1  0
  9  8  1  0
 11 12  1  0
 11 10  1  0
 13 24  2  0
 14 12  1  0
 14 19  1  0
 15 23  1  0
 15 25  1  0
 16 18  1  0
 17 23  1  0
 18 19  2  0
 18 17  1  0
 20 14  2  0
 21 20  1  0
 21 16  2  0
 22 16  1  0
 22 15  1  0
 23 13  1  0
 25 27  2  0
 26 25  1  0
 28 26  1  0
 29 38  2  0
 29 34  1  0
 30 26  1  0
 30 34  1  0
 31 30  1  0
 32 33  1  0
 32 31  1  0
 33 29  1  0
 34 35  2  0
 35 36  1  0
 37 36  2  0
 38 37  1  0
 39 13  1  0
 39 40  1  0
 39 49  1  0
 40 43  1  0
 41 45  1  0
 41 40  1  0
 42 41  2  0
 45 44  1  0
 47 48  1  0
 47 45  1  0
 47 46  1  0
 49 52  1  1
 49 50  1  0
 51 49  1  0
 55 54  1  0
 55 64  1  0
 55 53  1  0
 56 62  1  0
 56 64  1  0
 57 62  1  0
 58 59  1  0
 58 57  1  0
 60 59  1  0
 60 69  1  0
 60 61  1  0
 62 61  1  0
 63 56  2  0
 64 65  1  0
 66 67  2  0
 67 68  1  0
 67 86  1  0
 68 71  1  0
 69 66  1  0
 69 70  1  0
 70 68  2  0
 71 72  1  0
 72 73  2  0
 74 77  1  0
 74 73  1  0
 75 74  2  0
 76 75  1  0
 76 71  2  0
 77 78  1  0
 78 79  1  0
 79 80  2  0
 81 80  1  0
 81 85  1  0
 82 81  2  0
 83 78  2  0
 83 82  1  0
 84 83  1  0
 86 87  1  0
 87 90  1  0
 87 89  1  0
 88 86  2  0
 91 92  1  0
 91 66  1  0
 93 91  1  0
M  ISO  4  11 101  12 101  56 100  64 100
M  END
>  <TORSDO>  (44) 
F 22

>  <SCORE>  (44) 
-11.942

>  <name>  (44) 
43

>  <ligand_id>  (44) 
43

>  <original_smiles>  (44) 
[H]c1c(C([H])([H])C([H])([H])C([H])([H])C([H])([H])Oc2c([H])c([H])c3c(c2[H])C([H])([H])N(C(=O)C([H])(N([H])C(=O)C([H])(N([H])C([H])([H])[H])C([H])([H])[H])C(C([H])([H])[H])(C([H])([H])[H])C([H])([H])[H])C([H])(C(=O)N([H])C2([H])c4c([H])c([H])c([H])c([H])c4C([H])([H])C([H])([H])C2([H])[H])C3([H])[H])nc(C([H])([H])[H])nc1C([H])([H])C([H])(N([H])C(=O)N1C([H])([H])C([H])([H])C([H])([H])C([H])(n2nc(-c3c([H])c([H])c(Oc4c([H])c([H])c(F)c([H])c4F)c([H])c3[H])c(C(=O)N([H])[H])c2N([H])[H])C1([H])[H])C([H])([H])[H]

>  <smiles>  (44) 
[H]c1c(C([H])([H])C([H])([H])C([H])([H])C([H])([H])Oc2c([H])c([H])c3c(c2[H])C([H])([H])N(C(=O)C([H])(N([H])C(=O)C([H])(N([H])C([H])([H])[H])C([H])([H])[H])C(C([H])([H])[H])(C([H])([H])[H])C([H])([H])[H])C([H])(C(=O)N([H])C2([H])c4c([H])c([H])c([H])c([H])c4C([H])([H])C([H])([H])C2([H])[H])C3([H])[H])nc(C([H])([H])[H])nc1C([H])([H])C([H])(N([H])C(=O)N1C([H])([H])C([H])([H])C([H])([H])C([H])(n2nc(-c3c([H])c([H])c(Oc4c([H])c([H])c(F)c([H])c4F)c([H])c3[H])c(C(=O)N([H])[H])c2N([H])[H])C1([H])[H])C([H])([H])[H]

$$$$
44:0:0
     RDKit          3D

 95103  0  0  1  0  0  0  0  0999 V2000
  -29.5320  -20.2760   20.8960 C   0  0  0  0  0  0  0  0  0  0  0  0
  -30.5930  -18.3960   20.9960 C   0  0  0  0  0  0  0  0  0  0  0  0
  -30.3500  -20.3710   21.9440 N   0  0  0  0  0  0  0  0  0  0  0  0
  -30.9900  -19.1560   22.0330 N   0  0  0  0  0  0  0  0  0  0  0  0
  -29.6020  -19.0370   20.2970 N   0  0  0  0  0  0  0  0  0  0  0  0
  -28.4790  -21.3650   20.6010 C   0  0  0  0  0  3  0  0  0  0  0  0
  -28.9090  -22.8320   20.1700 C   0  0  0  0  0  3  0  0  0  0  0  0
  -26.5970  -23.1930   19.2070 C   0  0  0  0  0  1  0  0  0  0  0  0
  -27.7360  -23.8950   19.9770 C   0  0  0  0  0  3  0  0  0  0  0  0
  -28.1160  -25.2680   19.2580 C   0  0  0  0  0  2  0  0  0  0  0  0
  -28.0190  -26.5750   19.9230 O   0  0  0  0  0  0  0  0  0  0  0  0
  -24.4960  -31.8960   23.1990 C   0  0  0  0  0  0  0  0  0  0  0  0
  -26.8770  -27.3840   19.9150 C   0  0  0  0  0  0  0  0  0  0  0  0
  -23.1870  -30.5580   21.5880 C   0  0  0  0  0  3  0  0  0  0  0  0
  -24.5340  -29.0110   20.0620 C   0  0  0  0  0  0  0  0  0  0  0  0
  -25.7170  -30.8360   21.2880 C   0  0  0  0  0  2  0  0  0  0  0  0
  -25.7330  -29.4700   20.6180 C   0  0  0  0  0  0  0  0  0  0  0  0
  -26.9000  -28.6620   20.5470 C   0  0  0  0  0  3  0  0  0  0  0  0
  -25.6610  -26.9770   19.3270 C   0  0  0  0  0  3  0  0  0  0  0  0
  -24.4970  -27.7670   19.4110 C   0  0  0  0  0  3  0  0  0  0  0  0
  -23.3160  -29.9010   20.1880 C   0  0  0  0  0  2  0  0  0  0  0  0
  -24.4890  -31.1140   22.0800 N   0  0  0  0  0  0  0  0  0  0  0  0
  -23.4450  -32.1850   23.7880 O   0  0  0  0  0  0  0  0  0  0  0  0
  -22.5510  -29.5370   22.5590 C   0  0  0  0  0  0  0  0  0  0  0  0
  -21.2300  -29.3160   22.4230 N   0  0  0  0  0  0  0  0  0  0  0  0
  -23.2440  -28.9490   23.3940 O   0  0  0  0  0  0  0  0  0  0  0  0
  -20.7290  -29.8480   21.7250 H   0  0  0  0  0  0  0  0  0  0  0  0
  -17.9060  -27.9530   22.8480 C   0  0  0  0  0  0  0  0  0  0  0  0
  -20.4310  -28.3650   23.2000 C   0  0  0  0  0  3  0  0  0  0  0  0
  -20.6350  -26.9200   22.6900 C   0  0  0  0  0  2  0  0  0  0  0  0
  -19.5920  -26.5000   21.6510 C   0  0  0  0  0  2  0  0  0  0  0  0
  -18.1850  -26.5840   22.2480 C   0  0  0  0  0  2  0  0  0  0  0  0
  -18.9620  -28.7940   23.2850 C   0  0  0  0  0  0  0  0  0  0  0  0
  -18.6520  -30.0660   23.8110 C   0  0  0  0  0  3  0  0  0  0  0  0
  -17.3170  -30.5020   23.9030 C   0  0  0  0  0  3  0  0  0  0  0  0
  -16.2750  -29.6620   23.4770 C   0  0  0  0  0  3  0  0  0  0  0  0
  -16.5700  -28.3890   22.9570 C   0  0  0  0  0  3  0  0  0  0  0  0
  -25.8240  -32.4820   23.7730 C   0  0  0  0  0  3  0  0  0  0  0  0
  -25.5650  -33.8810   24.1410 N   0  0  0  0  0  0  0  0  0  0  0  0
  -25.9030  -34.9400   23.3930 C   0  0  0  0  0  0  0  0  0  0  0  0
  -26.5340  -34.8390   22.3370 O   0  0  0  0  0  0  0  0  0  0  0  0
  -24.9950  -34.0370   24.9600 H   0  0  0  0  0  0  0  0  0  0  0  0
  -24.2150  -36.7890   23.1350 C   0  0  0  0  0  1  0  0  0  0  0  0
  -25.4690  -36.3300   23.8940 C   0  0  0  0  0  3  0  0  0  0  0  0
  -27.6540  -37.1390   24.6740 C   0  0  0  0  0  1  0  0  0  0  0  0
  -26.5280  -37.3560   23.7690 N   0  0  0  0  0  0  0  0  0  0  0  0
  -26.1510  -38.2820   23.9470 H   0  0  0  0  0  0  0  0  0  0  0  0
  -26.3790  -31.6710   25.0070 C   0  0  1  0  0  0  0  0  0  0  0  0
  -25.3230  -31.4130   26.1080 C   0  0  0  0  0  1  0  0  0  0  0  0
  -26.9360  -30.3010   24.5560 C   0  0  0  0  0  1  0  0  0  0  0  0
  -27.5570  -32.4410   25.6490 C   0  0  0  0  0  1  0  0  0  0  0  0
  -28.7470  -18.5420   19.2370 C   0  0  0  0  0  2  0  0  0  0  0  0
  -26.2350  -18.2930   18.7830 C   0  0  0  0  0  1  0  0  0  0  0  0
  -27.3600  -18.1980   19.8140 C   0  0  0  0  0  2  0  0  0  0  0  0
  -31.3010  -17.0110   20.7820 C   0  0  0  0  0  0  0  0  0  0  0  0
  -30.9730  -14.6790   19.6510 C   0  0  0  0  0  0  0  0  0  0  0  0
  -30.5490  -12.4170   18.7060 C   0  0  0  0  0  2  0  0  0  0  0  0
  -29.5070  -12.4800   17.5710 C   0  0  0  0  0  2  0  0  0  0  0  0
  -28.0890  -12.3340   18.1490 C   0  0  0  0  0  2  0  0  0  0  0  0
  -27.8440  -13.2690   19.3620 C   0  0  0  0  0  3  0  0  0  0  0  0
  -29.0040  -13.2260   20.3820 C   0  0  0  0  0  2  0  0  0  0  0  0
  -30.2530  -13.5100   19.6610 N   0  0  0  0  0  0  0  0  0  0  0  0
  -32.0080  -14.7310   18.9900 O   0  0  0  0  0  0  0  0  0  0  0  0
  -30.5160  -15.7860   20.3270 N   0  0  0  0  0  4  0  0  0  0  0  0
  -29.6120  -15.6790   20.7600 H   0  0  0  0  0  0  0  0  0  0  0  0
  -25.5620  -13.8810   20.3650 C   0  0  0  0  0  0  0  0  0  0  0  0
  -24.5270  -13.1240   20.8340 C   0  0  0  0  0  0  0  0  0  0  0  0
  -24.9480  -11.7650   20.7070 C   0  0  0  0  0  0  0  0  0  0  0  0
  -26.5540  -12.9920   19.9890 N   0  0  0  0  0  0  0  0  0  0  0  0
  -26.1940  -11.7080   20.2520 N   0  0  0  0  0  0  0  0  0  0  0  0
  -24.2140  -10.5150   20.9370 C   0  0  0  0  0  0  0  0  0  0  0  0
  -24.6600   -9.5610   21.8780 C   0  0  0  0  0  3  0  0  0  0  0  0
  -23.9250   -8.3750   22.0960 C   0  0  0  0  0  3  0  0  0  0  0  0
  -22.7290   -8.1390   21.3770 C   0  0  0  0  0  0  0  0  0  0  0  0
  -22.3040   -9.0810   20.4220 C   0  0  0  0  0  3  0  0  0  0  0  0
  -23.0400  -10.2580   20.2020 C   0  0  0  0  0  3  0  0  0  0  0  0
  -21.9640   -7.0050   21.5060 O   0  0  0  0  0  0  0  0  0  0  0  0
  -21.8610   -6.3390   22.7020 C   0  0  0  0  0  0  0  0  0  0  0  0
  -21.3630   -6.9680   23.8630 C   0  0  0  0  0  3  0  0  0  0  0  0
  -21.2070   -6.2300   25.0520 C   0  0  0  0  0  3  0  0  0  0  0  0
  -21.5370   -4.8630   25.0810 C   0  0  0  0  0  0  0  0  0  0  0  0
  -22.0250   -4.2320   23.9230 C   0  0  0  0  0  3  0  0  0  0  0  0
  -22.1830   -4.9670   22.7350 C   0  0  0  0  0  0  0  0  0  0  0  0
  -22.6350   -4.3510   21.6170 F   0  0  0  0  0  0  0  0  0  0  0  0
  -21.3790   -4.1480   26.2200 F   0  0  0  0  0  0  0  0  0  0  0  0
  -23.1850  -13.6220   21.2840 C   0  0  0  0  0  0  0  0  0  0  0  0
  -22.5570  -12.9220   22.2210 N   0  0  0  0  0  0  0  0  0  0  0  0
  -22.7090  -14.6670   20.8410 O   0  0  0  0  0  0  0  0  0  0  0  0
  -22.9590  -12.0740   22.5950 H   0  0  0  0  0  0  0  0  0  0  0  0
  -21.6580  -13.2290   22.5630 H   0  0  0  0  0  0  0  0  0  0  0  0
  -25.7330  -15.2510   20.2040 N   0  0  0  0  0  0  0  0  0  0  0  0
  -24.9840  -15.9120   20.3800 H   0  0  0  0  0  0  0  0  0  0  0  0
  -26.5140  -15.6640   19.7130 H   0  0  0  0  0  0  0  0  0  0  0  0
  -33.5110  -18.4520   20.3720 C   0  0  0  0  0  1  0  0  0  0  0  0
  -32.7070  -17.1670   20.1060 C   0  0  0  0  0  2  0  0  0  0  0  0
  1  3  2  0
  2  4  2  0
  3  4  1  0
  5  1  1  0
  5  2  1  0
  6  1  1  0
  7  6  2  0
  9  8  1  0
  9  7  1  0
 10 11  1  0
 10  9  1  0
 12 23  2  0
 13 11  1  0
 13 18  1  0
 14 22  1  0
 14 24  1  0
 15 21  1  0
 15 17  1  0
 16 22  1  0
 17 16  1  0
 18 17  2  0
 19 20  1  0
 19 13  2  0
 20 15  2  0
 21 14  1  0
 22 12  1  0
 24 26  2  0
 25 24  1  0
 27 25  1  0
 28 37  2  0
 28 33  1  0
 29 25  1  0
 29 33  1  0
 30 29  1  0
 31 32  1  0
 31 30  1  0
 32 28  1  0
 33 34  2  0
 34 35  1  0
 36 35  2  0
 37 36  1  0
 38 12  1  0
 38 39  1  0
 38 48  1  0
 39 42  1  0
 40 44  1  0
 40 39  1  0
 41 40  2  0
 44 43  1  0
 46 44  1  0
 46 47  1  0
 46 45  1  0
 48 51  1  1
 48 49  1  0
 50 48  1  0
 52 54  1  0
 52  5  1  0
 53 54  1  0
 55  2  1  0
 56 62  1  0
 56 64  1  0
 57 62  1  0
 58 59  1  0
 58 57  1  0
 60 59  1  0
 60 69  1  0
 60 61  1  0
 62 61  1  0
 63 56  2  0
 64 65  1  0
 64 55  2  0
 66 67  2  0
 67 86  1  0
 68 67  1  0
 68 71  1  0
 69 70  1  0
 69 66  1  0
 70 68  2  0
 71 72  1  0
 72 73  2  0
 74 77  1  0
 74 73  1  0
 75 74  2  0
 76 75  1  0
 76 71  2  0
 77 78  1  0
 78 83  2  0
 78 79  1  0
 79 80  2  0
 80 81  1  0
 81 85  1  0
 82 81  2  0
 83 82  1  0
 84 83  1  0
 86 87  1  0
 87 90  1  0
 87 89  1  0
 88 86  2  0
 91 66  1  0
 91 92  1  0
 93 91  1  0
 95 94  1  0
 95 55  1  0
M  ISO  4  10 101  11 101  56 100  64 100
M  END
>  <TORSDO>  (45) 
F 24

>  <SCORE>  (45) 
-11.813

>  <name>  (45) 
44

>  <ligand_id>  (45) 
44

>  <original_smiles>  (45) 
[H]c1c([H])c([H])c2c(c1[H])C([H])([H])C([H])([H])C([H])([H])C2([H])N([H])C(=O)C1([H])N(C(=O)C([H])(N([H])C(=O)C([H])(N([H])C([H])([H])[H])C([H])([H])[H])C(C([H])([H])[H])(C([H])([H])[H])C([H])([H])[H])C([H])([H])c2c([H])c(OC([H])([H])C([H])(C([H])([H])[H])C([H])([H])C([H])([H])c3nnc(C([H])(N([H])C(=O)N4C([H])([H])C([H])([H])C([H])([H])C([H])(n5nc(-c6c([H])c([H])c(Oc7c([H])c([H])c(F)c([H])c7F)c([H])c6[H])c(C(=O)N([H])[H])c5N([H])[H])C4([H])[H])C([H])([H])C([H])([H])[H])n3C([H])([H])C([H])([H])C([H])([H])[H])c([H])c([H])c2C1([H])[H]

>  <smiles>  (45) 
[H]c1c([H])c([H])c2c(c1[H])C([H])([H])C([H])([H])C([H])([H])C2([H])N([H])C(=O)C1([H])N(C(=O)C([H])(N([H])C(=O)C([H])(N([H])C([H])([H])[H])C([H])([H])[H])C(C([H])([H])[H])(C([H])([H])[H])C([H])([H])[H])C([H])([H])c2c([H])c(OC([H])([H])C([H])(C([H])([H])[H])C([H])([H])C([H])([H])c3nnc(C([H])(N([H])C(=O)N4C([H])([H])C([H])([H])C([H])([H])C([H])(n5nc(-c6c([H])c([H])c(Oc7c([H])c([H])c(F)c([H])c7F)c([H])c6[H])c(C(=O)N([H])[H])c5N([H])[H])C4([H])[H])C([H])([H])C([H])([H])[H])n3C([H])([H])C([H])([H])C([H])([H])[H])c([H])c([H])c2C1([H])[H]

$$$$
45:0:0
     RDKit          3D

 97 99  0  0  1  0  0  0  0  0999 V2000
  -24.6760  -25.1040   22.7230 C   0  0  0  0  0  3  0  0  0  0  0  0
  -26.0520  -24.4520   22.3660 C   0  0  0  0  0  3  0  0  0  0  0  0
  -25.8570  -26.7140   23.4050 C   0  0  0  0  0  0  0  0  0  0  0  0
  -26.4680  -27.9560   23.9750 C   0  0  0  0  0  1  0  0  0  0  0  0
  -24.4910  -26.5650   23.3450 N   0  0  0  0  0  0  0  0  0  0  0  0
  -26.6320  -25.6430   22.8830 N   0  0  0  0  0  0  0  0  0  0  0  0
  -27.6420  -25.7100   22.9140 H   0  0  0  0  0  0  0  0  0  0  0  0
  -22.5500  -27.6630   25.2610 C   0  0  0  0  0  1  0  0  0  0  0  0
  -23.1790  -28.0450   23.8980 C   0  0  0  0  0  2  0  0  0  0  0  0
  -21.8470  -29.3740   22.6470 C   0  0  0  0  0 15  0  0  0  0  0  0
  -21.6470  -28.9290   20.3710 C   0  0  0  0  0 15  0  0  0  0  0  0
  -23.2730  -28.1180   19.3100 O   0  0  0  0  0  1  0  0  0  0  0  0
  -24.2820  -31.9670   22.4950 C   0  0  0  0  0  0  0  0  0  0  0  0
  -24.8480  -27.9600   19.1380 C   0  0  0  0  0  3  0  0  0  0  0  0
  -23.5360  -30.2030   20.9900 C   0  0  0  0  0  3  0  0  0  0  0  0
  -24.4100  -30.2590   18.5080 C   0  0  0  0  0  3  0  0  0  0  0  0
  -25.5940  -31.2810   20.4510 C   0  0  0  0  0  2  0  0  0  0  0  0
  -25.5030  -30.2220   19.3590 C   0  0  0  0  0  3  0  0  0  0  0  0
  -25.8840  -28.8990   19.5820 C   0  0  0  0  0  2  0  0  0  0  0  0
  -24.9490  -27.9710   17.7760 C   0  0  0  0  0  2  0  0  0  0  0  0
  -24.3020  -29.2000   17.5170 C   0  0  0  0  0  2  0  0  0  0  0  0
  -23.2570  -30.6590   19.3880 C   0  0  0  0  0  2  0  0  0  0  0  0
  -24.4900  -31.1630   21.4220 N   0  0  0  0  0  0  0  0  0  0  0  0
  -23.2150  -32.0570   23.1310 O   0  0  0  0  0  0  0  0  0  0  0  0
  -23.8160  -28.4890   21.5920 C   0  0  0  0  0  3  0  0  0  0  0  0
  -23.1910  -27.1010   20.9520 N   0  0  0  0  0  0  0  0  0  0  0  0
  -24.1750  -28.4870   22.7210 O   0  0  0  0  0  0  0  0  0  0  0  0
  -23.8000  -26.3310   21.1760 H   0  0  0  0  0  0  0  0  0  0  0  0
  -18.8530  -26.1830   19.4370 C   0  0  0  0  0  0  0  0  0  0  0  0
  -21.4800  -26.4170   20.5370 C   0  0  0  0  0  3  0  0  0  0  0  0
  -21.8090  -25.3960   19.5620 C   0  0  0  0  0  2  0  0  0  0  0  0
  -20.8960  -25.3240   18.3800 C   0  0  0  0  0  2  0  0  0  0  0  0
  -19.4700  -25.0080   18.7650 C   0  0  0  0  0  2  0  0  0  0  0  0
  -19.7150  -26.9330   20.3210 C   0  0  0  0  0  0  0  0  0  0  0  0
  -18.7780  -27.8820   20.9860 C   0  0  0  0  0  3  0  0  0  0  0  0
  -17.4230  -28.2270   20.6290 C   0  0  0  0  0  3  0  0  0  0  0  0
  -16.7340  -27.4610   19.6870 C   0  0  0  0  0  3  0  0  0  0  0  0
  -17.4630  -26.3980   19.1450 C   0  0  0  0  0  3  0  0  0  0  0  0
  -25.4960  -32.7390   23.0050 C   0  0  0  0  0  3  0  0  0  0  0  0
  -25.0430  -34.0620   23.4410 N   0  0  0  0  0  0  0  0  0  0  0  0
  -25.2800  -35.1920   22.7680 C   0  0  0  0  0  0  0  0  0  0  0  0
  -25.9400  -35.2280   21.7250 O   0  0  0  0  0  0  0  0  0  0  0  0
  -24.4490  -34.0940   24.2590 H   0  0  0  0  0  0  0  0  0  0  0  0
  -23.4830  -36.9410   22.5530 C   0  0  0  0  0  1  0  0  0  0  0  0
  -24.7090  -36.4920   23.3600 C   0  0  0  0  0  3  0  0  0  0  0  0
  -26.7890  -37.3520   24.3530 C   0  0  0  0  0  1  0  0  0  0  0  0
  -25.6990  -37.5890   23.4080 N   0  0  0  0  0  0  0  0  0  0  0  0
  -25.2540  -38.4670   23.6610 H   0  0  0  0  0  0  0  0  0  0  0  0
  -26.2060  -31.9530   24.1650 C   0  0  1  0  0  0  0  0  0  0  0  0
  -25.2400  -31.4450   25.2670 C   0  0  0  0  0  1  0  0  0  0  0  0
  -26.9970  -30.7370   23.6330 C   0  0  0  0  0  1  0  0  0  0  0  0
  -27.2590  -32.8800   24.7960 C   0  0  0  0  0  1  0  0  0  0  0  0
  -28.3470  -23.0530   22.8270 C   0  0  0  0  0  1  0  0  0  0  0  0
  -27.1310  -22.7920   21.9360 C   0  0  0  0  0  2  0  0  0  0  0  0
  -26.3570  -21.7910   22.6340 N   0  0  0  0  0  0  0  0  0  0  0  0
  -25.6670  -22.2880   23.1840 H   0  0  0  0  0  0  0  0  0  0  0  0
  -26.9740  -21.3560   23.3090 H   0  0  0  0  0  0  0  0  0  0  0  0
  -27.9580  -21.4120   20.5790 C   0  0  0  0  0 15  0  0  0  0  0  0
  -29.4330  -19.9430   20.2030 C   0  0  0  0  0  1  0  0  0  0  0  0
  -31.0080  -16.9810   19.2840 C   0  0  0  0  0  0  0  0  0  0  0  0
  -31.6130  -14.3690   18.4970 C   0  0  0  0  0  2  0  0  0  0  0  0
  -30.7790  -13.6150   17.3950 C   0  0  0  0  0  2  0  0  0  0  0  0
  -29.4040  -13.1860   17.9260 C   0  0  0  0  0  2  0  0  0  0  0  0
  -28.8560  -14.2930   18.8450 C   0  0  0  0  0  3  0  0  0  0  0  0
  -29.8270  -14.7420   19.9400 C   0  0  0  0  0  2  0  0  0  0  0  0
  -30.8270  -15.5090   19.2320 N   0  0  0  0  0  0  0  0  0  0  0  0
  -32.2090  -17.0960   18.8970 O   0  0  0  0  0  0  0  0  0  0  0  0
  -29.9200  -18.1770   19.6380 N   0  0  0  0  0  0  0  0  0  0  0  0
  -29.0620  -17.6470   19.7350 H   0  0  0  0  0  0  0  0  0  0  0  0
  -26.6600  -14.9410   19.8550 C   0  0  0  0  0  0  0  0  0  0  0  0
  -25.6180  -14.2110   20.3350 C   0  0  0  0  0  0  0  0  0  0  0  0
  -25.9950  -12.8410   20.1960 C   0  0  0  0  0  0  0  0  0  0  0  0
  -27.5850  -14.0110   19.4360 N   0  0  0  0  0  0  0  0  0  0  0  0
  -27.2240  -12.7370   19.7120 N   0  0  0  0  0  0  0  0  0  0  0  0
  -25.2310  -11.6160   20.4300 C   0  0  0  0  0  0  0  0  0  0  0  0
  -25.6470  -10.6500   21.3720 C   0  0  0  0  0  3  0  0  0  0  0  0
  -24.8760   -9.4910   21.5910 C   0  0  0  0  0  3  0  0  0  0  0  0
  -23.6760   -9.2910   20.8670 C   0  0  0  0  0  0  0  0  0  0  0  0
  -23.2820  -10.2430   19.9100 C   0  0  0  0  0  3  0  0  0  0  0  0
  -24.0540  -11.3950   19.6890 C   0  0  0  0  0  3  0  0  0  0  0  0
  -22.8730   -8.1840   20.9950 O   0  0  0  0  0  0  0  0  0  0  0  0
  -22.6770   -7.5760   22.2080 C   0  0  0  0  0  0  0  0  0  0  0  0
  -22.1990   -8.2880   23.3300 C   0  0  0  0  0  3  0  0  0  0  0  0
  -21.9460   -7.6080   24.5380 C   0  0  0  0  0  3  0  0  0  0  0  0
  -22.1610   -6.2190   24.6240 C   0  0  0  0  0  0  0  0  0  0  0  0
  -22.6330   -5.5080   23.5060 C   0  0  0  0  0  3  0  0  0  0  0  0
  -22.8870   -6.1850   22.3010 C   0  0  0  0  0  0  0  0  0  0  0  0
  -23.3210   -5.4950   21.2190 F   0  0  0  0  0  0  0  0  0  0  0  0
  -21.9100   -5.5630   25.7820 F   0  0  0  0  0  0  0  0  0  0  0  0
  -24.3050  -14.7610   20.7960 C   0  0  0  0  0  0  0  0  0  0  0  0
  -23.6790  -14.1090   21.7700 N   0  0  0  0  0  0  0  0  0  0  0  0
  -23.8510  -15.8050   20.3250 O   0  0  0  0  0  0  0  0  0  0  0  0
  -24.0660  -13.2670   22.1690 H   0  0  0  0  0  0  0  0  0  0  0  0
  -22.8010  -14.4590   22.1250 H   0  0  0  0  0  0  0  0  0  0  0  0
  -26.8920  -16.3090   19.7040 N   0  0  0  0  0  0  0  0  0  0  0  0
  -26.1550  -16.9800   19.8960 H   0  0  0  0  0  0  0  0  0  0  0  0
  -27.6030  -16.6760   19.0860 H   0  0  0  0  0  0  0  0  0  0  0  0
  1  5  1  0
  2  1  2  0
  2  6  1  0
  3  4  1  0
  5  3  2  0
  6  7  1  0
  6  3  1  0
  9  8  1  0
 13 24  2  0
 14 12  1  0
 14 19  1  0
 15 23  1  0
 15 25  1  0
 16 21  1  0
 16 18  1  0
 16 22  1  0
 17 23  1  0
 18 19  1  0
 18 17  1  0
 20 14  1  0
 21 20  1  0
 22 15  1  0
 23 13  1  0
 25 27  1  0
 26 28  1  0
 26 25  1  0
 27  9  1  0
 29 34  1  0
 30 26  1  0
 31 30  1  0
 32 33  1  0
 32 31  1  0
 33 29  1  0
 34 30  1  0
 34 35  2  0
 36 35  1  0
 37 36  2  0
 38 29  2  0
 38 37  1  0
 39 13  1  0
 39 40  1  0
 39 49  1  0
 40 43  1  0
 41 45  1  0
 41 40  1  0
 42 41  2  0
 45 44  1  0
 45 47  1  0
 47 48  1  0
 47 46  1  0
 49 52  1  1
 49 50  1  0
 51 49  1  0
 54 55  1  0
 54 53  1  0
 55 56  1  0
 55 57  1  0
 60 68  1  0
 61 66  1  0
 62 63  1  0
 62 61  1  0
 64 63  1  0
 64 73  1  0
 64 65  1  0
 66 60  1  0
 66 65  1  0
 67 60  2  0
 68 69  1  0
 68 59  1  0
 70 71  2  0
 71 90  1  0
 72 71  1  0
 72 75  1  0
 73 74  1  0
 73 70  1  0
 74 72  2  0
 75 76  1  0
 76 77  2  0
 78 81  1  0
 78 77  1  0
 79 78  2  0
 80 79  1  0
 80 75  2  0
 81 82  1  0
 82 87  2  0
 82 83  1  0
 83 84  2  0
 84 85  1  0
 85 89  1  0
 86 85  2  0
 87 86  1  0
 88 87  1  0
 90 91  1  0
 91 94  1  0
 91 93  1  0
 92 90  2  0
 95 70  1  0
 95 96  1  0
 97 95  1  0
M  ISO  4  11 101  12 101  60 100  68 100
M  END
>  <TORSDO>  (46) 
F 23

>  <SCORE>  (46) 
-0.587

>  <name>  (46) 
45

>  <ligand_id>  (46) 
45

>  <original_smiles>  (46) 
[H]c1c([H])c([H])c2c(c1[H])C([H])([H])C([H])([H])C([H])([H])C2([H])N([H])C(=O)C1([H])N(C(=O)C([H])(N([H])C(=O)C([H])(N([H])C([H])([H])[H])C([H])([H])[H])C(C([H])([H])[H])(C([H])([H])[H])C([H])([H])[H])C([H])([H])c2c([H])c(OC([H])([H])C([H])([H])C([H])(n3c([H])c(C(N([H])[H])(C([H])([H])[H])C([H])([H])C([H])([H])N([H])C(=O)N4C([H])([H])C([H])([H])C([H])([H])C([H])(n5nc(-c6c([H])c([H])c(Oc7c([H])c([H])c(F)c([H])c7F)c([H])c6[H])c(C(=O)N([H])[H])c5N([H])[H])C4([H])[H])[n+]([H])c3C([H])([H])[H])C([H])([H])[H])c([H])c([H])c2C1([H])[H]

>  <smiles>  (46) 
[H]c1c([H])c([H])c2c(c1[H])C([H])([H])C([H])([H])C([H])([H])C2([H])N([H])C(=O)C1([H])N(C(=O)C([H])(N([H])C(=O)C([H])(N([H])C([H])([H])[H])C([H])([H])[H])C(C([H])([H])[H])(C([H])([H])[H])C([H])([H])[H])C([H])([H])c2c([H])c(OC([H])([H])C([H])([H])C([H])(n3c([H])c(C(N([H])[H])(C([H])([H])[H])C([H])([H])C([H])([H])N([H])C(=O)N4C([H])([H])C([H])([H])C([H])([H])C([H])(n5nc(-c6c([H])c([H])c(Oc7c([H])c([H])c(F)c([H])c7F)c([H])c6[H])c(C(=O)N([H])[H])c5N([H])[H])C4([H])[H])[n+]([H])c3C([H])([H])[H])C([H])([H])[H])c([H])c([H])c2C1([H])[H]

$$$$
46:0:0
     RDKit          3D

 96104  0  0  1  0  0  0  0  0999 V2000
  -30.6650  -19.0690   19.1260 C   0  0  0  0  0  3  0  0  0  0  0  0
  -30.6030  -20.4790   18.9550 C   0  0  0  0  0  0  0  0  0  0  0  0
  -29.7390  -18.4260   19.9690 C   0  0  0  0  0  0  0  0  0  0  0  0
  -29.5670  -21.2030   19.6250 C   0  0  0  0  0  0  0  0  0  0  0  0
  -28.8530  -19.1920   20.6740 N   0  0  0  0  0  0  0  0  0  0  0  0
  -28.7410  -20.5250   20.4720 N   0  0  0  0  0  0  0  0  0  0  0  0
  -28.1260  -16.5200   20.3660 C   0  0  0  0  0  1  0  0  0  0  0  0
  -29.5640  -16.8600   19.9530 C   0  0  0  0  0  3  0  0  0  0  0  0
  -30.4130  -15.4520   22.0360 C   0  0  0  0  0  1  0  0  0  0  0  0
  -32.0200  -16.6030   20.6050 C   0  0  0  0  0  1  0  0  0  0  0  0
  -30.6610  -15.8400   20.5470 C   0  0  2  0  0  0  0  0  0  0  0  0
  -30.8970  -14.5300   19.6370 C   0  0  0  0  0  0  0  0  0  0  0  0
  -30.3910  -12.3410   18.5420 C   0  0  0  0  0  2  0  0  0  0  0  0
  -29.3250  -12.5020   17.4380 C   0  0  0  0  0  2  0  0  0  0  0  0
  -27.9150  -12.3320   18.0270 C   0  0  0  0  0  2  0  0  0  0  0  0
  -27.7130  -13.1930   19.3000 C   0  0  0  0  0  3  0  0  0  0  0  0
  -28.8960  -13.0340   20.2870 C   0  0  0  0  0  2  0  0  0  0  0  0
  -30.1480  -13.3690   19.5890 N   0  0  0  0  0  0  0  0  0  0  0  0
  -31.8710  -14.6020   18.8840 O   0  0  0  0  0  0  0  0  0  0  0  0
  -25.4410  -13.8010   20.3530 C   0  0  0  0  0  0  0  0  0  0  0  0
  -24.4240  -13.0350   20.8440 C   0  0  0  0  0  0  0  0  0  0  0  0
  -24.8400  -11.6810   20.6810 C   0  0  0  0  0  0  0  0  0  0  0  0
  -26.4300  -12.9180   19.9450 N   0  0  0  0  0  0  0  0  0  0  0  0
  -26.0760  -11.6310   20.1970 N   0  0  0  0  0  0  0  0  0  0  0  0
  -24.1050  -10.4320   20.9010 C   0  0  0  0  0  0  0  0  0  0  0  0
  -24.5460   -9.4690   21.8330 C   0  0  0  0  0  3  0  0  0  0  0  0
  -23.8080   -8.2840   22.0400 C   0  0  0  0  0  3  0  0  0  0  0  0
  -22.6150   -8.0550   21.3150 C   0  0  0  0  0  0  0  0  0  0  0  0
  -22.1910   -9.0080   20.3720 C   0  0  0  0  0  3  0  0  0  0  0  0
  -22.9290  -10.1830   20.1630 C   0  0  0  0  0  3  0  0  0  0  0  0
  -21.8480   -6.9210   21.4320 O   0  0  0  0  0  0  0  0  0  0  0  0
  -21.7230   -6.2570   22.6250 C   0  0  0  0  0  0  0  0  0  0  0  0
  -21.1860   -6.8800   23.7720 C   0  0  0  0  0  3  0  0  0  0  0  0
  -21.0100   -6.1390   24.9580 C   0  0  0  0  0  3  0  0  0  0  0  0
  -21.3610   -4.7770   24.9960 C   0  0  0  0  0  0  0  0  0  0  0  0
  -21.8900   -4.1540   23.8530 C   0  0  0  0  0  3  0  0  0  0  0  0
  -22.0680   -4.8920   22.6690 C   0  0  0  0  0  0  0  0  0  0  0  0
  -22.5600   -4.2800   21.5640 F   0  0  0  0  0  0  0  0  0  0  0  0
  -21.1840   -4.0630   26.1330 F   0  0  0  0  0  0  0  0  0  0  0  0
  -23.0960  -13.5360   21.3340 C   0  0  0  0  0  0  0  0  0  0  0  0
  -22.4690  -12.8070   22.2500 N   0  0  0  0  0  0  0  0  0  0  0  0
  -22.6310  -14.6060   20.9460 O   0  0  0  0  0  0  0  0  0  0  0  0
  -22.8630  -11.9400   22.5860 H   0  0  0  0  0  0  0  0  0  0  0  0
  -21.5820  -13.1200   22.6180 H   0  0  0  0  0  0  0  0  0  0  0  0
  -25.5670  -15.1720   20.1980 N   0  0  0  0  0  0  0  0  0  0  0  0
  -24.8040  -15.8010   20.4270 H   0  0  0  0  0  0  0  0  0  0  0  0
  -26.3560  -15.6440   19.7780 H   0  0  0  0  0  0  0  0  0  0  0  0
  -31.6060  -21.0930   17.9830 C   0  0  0  0  0  2  0  0  0  0  0  0
  -33.9130  -20.1500   17.4790 C   0  0  0  0  0  1  0  0  0  0  0  0
  -33.0730  -20.9680   18.4760 C   0  0  0  0  0  3  0  0  0  0  0  0
  -35.0730  -22.3290   19.3930 C   0  0  0  0  0  1  0  0  0  0  0  0
  -33.6800  -22.3610   18.7490 C   0  0  0  0  0  2  0  0  0  0  0  0
  -29.1590  -22.6730   19.2460 C   0  0  0  0  0  3  0  0  0  0  0  0
  -28.6700  -23.6980   20.3370 C   0  0  0  0  0  3  0  0  0  0  0  0
  -28.0620  -25.0620   19.7670 C   0  0  0  0  0  2  0  0  0  0  0  0
  -28.1940  -26.4890   20.0850 O   0  0  0  0  0  0  0  0  0  0  0  0
  -24.5440  -31.8410   23.1440 C   0  0  0  0  0  0  0  0  0  0  0  0
  -27.0560  -27.2990   20.0380 C   0  0  0  0  0  0  0  0  0  0  0  0
  -23.2850  -30.4560   21.5290 C   0  0  0  0  0  3  0  0  0  0  0  0
  -24.6870  -28.8920   20.0730 C   0  0  0  0  0  0  0  0  0  0  0  0
  -25.8170  -30.7640   21.2810 C   0  0  0  0  0  2  0  0  0  0  0  0
  -25.8710  -29.3870   20.6390 C   0  0  0  0  0  0  0  0  0  0  0  0
  -27.0530  -28.5990   20.6130 C   0  0  0  0  0  3  0  0  0  0  0  0
  -25.8520  -26.8390   19.4530 C   0  0  0  0  0  3  0  0  0  0  0  0
  -24.6800  -27.6190   19.4720 C   0  0  0  0  0  3  0  0  0  0  0  0
  -23.4600  -29.7740   20.1440 C   0  0  0  0  0  2  0  0  0  0  0  0
  -24.5690  -31.0350   22.0450 N   0  0  0  0  0  0  0  0  0  0  0  0
  -23.4760  -32.1330   23.7040 O   0  0  0  0  0  0  0  0  0  0  0  0
  -22.6370  -29.4460   22.5050 C   0  0  0  0  0  0  0  0  0  0  0  0
  -21.3090  -29.2700   22.3940 N   0  0  0  0  0  0  0  0  0  0  0  0
  -23.3250  -28.8240   23.3180 O   0  0  0  0  0  0  0  0  0  0  0  0
  -20.8130  -29.8320   21.7180 H   0  0  0  0  0  0  0  0  0  0  0  0
  -17.9310  -28.1090   22.9540 C   0  0  0  0  0  0  0  0  0  0  0  0
  -20.4970  -28.3420   23.1820 C   0  0  0  0  0  3  0  0  0  0  0  0
  -20.5730  -26.9080   22.6080 C   0  0  0  0  0  2  0  0  0  0  0  0
  -19.4510  -26.5960   21.6140 C   0  0  0  0  0  2  0  0  0  0  0  0
  -18.0810  -26.7560   22.2800 C   0  0  0  0  0  2  0  0  0  0  0  0
  -19.0660  -28.8590   23.3630 C   0  0  0  0  0  0  0  0  0  0  0  0
  -18.8710  -30.1250   23.9570 C   0  0  0  0  0  3  0  0  0  0  0  0
  -17.5750  -30.6420   24.1450 C   0  0  0  0  0  3  0  0  0  0  0  0
  -16.4550  -29.8890   23.7530 C   0  0  0  0  0  3  0  0  0  0  0  0
  -16.6350  -28.6250   23.1610 C   0  0  0  0  0  3  0  0  0  0  0  0
  -25.8500  -32.4560   23.7360 C   0  0  0  0  0  3  0  0  0  0  0  0
  -25.5520  -33.8430   24.1200 N   0  0  0  0  0  0  0  0  0  0  0  0
  -25.8570  -34.9190   23.3820 C   0  0  0  0  0  0  0  0  0  0  0  0
  -26.4880  -34.8480   22.3230 O   0  0  0  0  0  0  0  0  0  0  0  0
  -24.9900  -33.9720   24.9480 H   0  0  0  0  0  0  0  0  0  0  0  0
  -24.1200  -36.7240   23.1400 C   0  0  0  0  0  1  0  0  0  0  0  0
  -25.3850  -36.2920   23.8990 C   0  0  0  0  0  3  0  0  0  0  0  0
  -27.5400  -37.1580   24.6950 C   0  0  0  0  0  1  0  0  0  0  0  0
  -26.4140  -37.3490   23.7860 N   0  0  0  0  0  0  0  0  0  0  0  0
  -26.0130  -38.2640   23.9660 H   0  0  0  0  0  0  0  0  0  0  0  0
  -26.4150  -31.6480   24.9700 C   0  0  1  0  0  0  0  0  0  0  0  0
  -25.3600  -31.3660   26.0660 C   0  0  0  0  0  1  0  0  0  0  0  0
  -26.9950  -30.2890   24.5100 C   0  0  0  0  0  1  0  0  0  0  0  0
  -27.5770  -32.4300   25.6220 C   0  0  0  0  0  1  0  0  0  0  0  0
  1  3  1  0
  2  1  2  0
  2  4  1  0
  3  5  2  0
  4  6  2  0
  6  5  1  0
  8  3  1  0
  8  7  1  0
  8 11  1  0
 11 10  1  1
 11  9  1  0
 12 11  1  0
 13 18  1  0
 14 15  1  0
 14 13  1  0
 16 15  1  0
 16 23  1  0
 16 17  1  0
 18 12  1  0
 18 17  1  0
 19 12  2  0
 20 21  2  0
 21 40  1  0
 22 21  1  0
 22 25  1  0
 23 24  1  0
 23 20  1  0
 24 22  2  0
 25 26  1  0
 26 27  2  0
 28 31  1  0
 28 27  1  0
 29 28  2  0
 30 29  1  0
 30 25  2  0
 31 32  1  0
 32 37  2  0
 32 33  1  0
 33 34  2  0
 34 35  1  0
 35 39  1  0
 36 35  2  0
 37 36  1  0
 38 37  1  0
 40 41  1  0
 41 43  1  0
 41 44  1  0
 42 40  2  0
 45 20  1  0
 45 46  1  0
 47 45  1  0
 48 50  1  0
 48  2  1  0
 50 49  1  0
 50 52  1  0
 52 51  1  0
 53  4  1  0
 53 54  2  0
 55 56  1  0
 55 54  1  0
 57 68  2  0
 58 56  1  0
 58 63  1  0
 59 67  1  0
 59 69  1  0
 60 66  1  0
 60 62  1  0
 61 67  1  0
 62 61  1  0
 63 62  2  0
 64 65  1  0
 64 58  2  0
 65 60  2  0
 66 59  1  0
 67 57  1  0
 69 71  2  0
 70 69  1  0
 72 70  1  0
 73 82  2  0
 73 78  1  0
 74 70  1  0
 74 78  1  0
 75 74  1  0
 76 77  1  0
 76 75  1  0
 77 73  1  0
 78 79  2  0
 79 80  1  0
 81 80  2  0
 82 81  1  0
 83 57  1  0
 83 84  1  0
 83 93  1  0
 84 87  1  0
 85 89  1  0
 85 84  1  0
 86 85  2  0
 89 88  1  0
 91 89  1  0
 91 92  1  0
 91 90  1  0
 93 96  1  1
 93 94  1  0
 95 93  1  0
M  ISO  4  11 100  12 100  55 101  56 101
M  END
>  <TORSDO>  (47) 
F 24

>  <SCORE>  (47) 
-11.684

>  <name>  (47) 
46

>  <ligand_id>  (47) 
46

>  <original_smiles>  (47) 
[H]c1c([H])c([H])c2c(c1[H])C([H])([H])C([H])([H])C([H])([H])C2([H])N([H])C(=O)C1([H])N(C(=O)C([H])(N([H])C(=O)C([H])(N([H])C([H])([H])[H])C([H])([H])[H])C(C([H])([H])[H])(C([H])([H])[H])C([H])([H])[H])C([H])([H])c2c([H])c(OC([H])([H])C([H])([H])C([H])([H])c3nnc(C([H])(C([H])([H])[H])C(C(=O)N4C([H])([H])C([H])([H])C([H])([H])C([H])(n5nc(-c6c([H])c([H])c(Oc7c([H])c([H])c(F)c([H])c7F)c([H])c6[H])c(C(=O)N([H])[H])c5N([H])[H])C4([H])[H])(C([H])([H])[H])C([H])([H])[H])c([H])c3C([H])([H])C([H])(C([H])([H])[H])C([H])([H])C([H])([H])[H])c([H])c([H])c2C1([H])[H]

>  <smiles>  (47) 
[H]c1c([H])c([H])c2c(c1[H])C([H])([H])C([H])([H])C([H])([H])C2([H])N([H])C(=O)C1([H])N(C(=O)C([H])(N([H])C(=O)C([H])(N([H])C([H])([H])[H])C([H])([H])[H])C(C([H])([H])[H])(C([H])([H])[H])C([H])([H])[H])C([H])([H])c2c([H])c(OC([H])([H])C([H])([H])C([H])([H])c3nnc(C([H])(C([H])([H])[H])C(C(=O)N4C([H])([H])C([H])([H])C([H])([H])C([H])(n5nc(-c6c([H])c([H])c(Oc7c([H])c([H])c(F)c([H])c7F)c([H])c6[H])c(C(=O)N([H])[H])c5N([H])[H])C4([H])[H])(C([H])([H])[H])C([H])([H])[H])c([H])c3C([H])([H])C([H])(C([H])([H])[H])C([H])([H])C([H])([H])[H])c([H])c([H])c2C1([H])[H]

$$$$
47:0:0
     RDKit          3D

 97105  0  0  1  0  0  0  0  0999 V2000
  -31.2790  -19.9230   20.0650 C   0  0  0  0  0  3  0  0  0  0  0  0
  -30.3210  -18.9880   19.6220 C   0  0  0  0  0  0  0  0  0  0  0  0
  -29.1220  -19.5620   19.1340 C   0  0  0  0  0  0  0  0  0  0  0  0
  -29.9570  -21.6890   19.4430 C   0  0  0  0  0  0  0  0  0  0  0  0
  -31.1040  -21.2570   19.9530 N   0  0  0  0  0  0  0  0  0  0  0  0
  -28.9390  -20.9030   19.1070 N   0  0  0  0  0  0  0  0  0  0  0  0
  -30.6850  -17.4830   19.5790 C   0  0  0  0  0  3  0  0  0  0  0  0
  -30.0650  -16.5480   20.6650 C   0  0  0  0  0  3  0  0  0  0  0  0
  -30.8940  -14.3570   19.7150 C   0  0  0  0  0  0  0  0  0  0  0  0
  -30.3570  -12.2860   18.4700 C   0  0  0  0  0  2  0  0  0  0  0  0
  -29.3010  -12.5530   17.3790 C   0  0  0  0  0  2  0  0  0  0  0  0
  -27.8760  -12.4460   17.9530 C   0  0  0  0  0  2  0  0  0  0  0  0
  -27.7010  -13.2460   19.2720 C   0  0  0  0  0  3  0  0  0  0  0  0
  -28.8570  -12.9590   20.2600 C   0  0  0  0  0  2  0  0  0  0  0  0
  -30.1340  -13.2340   19.5750 N   0  0  0  0  0  0  0  0  0  0  0  0
  -31.8390  -14.6180   18.9650 O   0  0  0  0  0  0  0  0  0  0  0  0
  -31.3370  -14.9360   22.0120 C   0  0  0  0  0  1  0  0  0  0  0  0
  -30.6060  -15.1660   20.7630 N   0  0  0  0  0  0  0  0  0  0  0  0
  -25.4080  -13.8930   20.2490 C   0  0  0  0  0  0  0  0  0  0  0  0
  -24.3580  -13.1400   20.7020 C   0  0  0  0  0  0  0  0  0  0  0  0
  -24.7640  -11.7770   20.5660 C   0  0  0  0  0  0  0  0  0  0  0  0
  -26.3930  -12.9900   19.8750 N   0  0  0  0  0  0  0  0  0  0  0  0
  -26.0120  -11.7100   20.1190 N   0  0  0  0  0  0  0  0  0  0  0  0
  -24.0140  -10.5310   20.7790 C   0  0  0  0  0  0  0  0  0  0  0  0
  -24.4340   -9.5700   21.7260 C   0  0  0  0  0  3  0  0  0  0  0  0
  -23.6880   -8.3880   21.9270 C   0  0  0  0  0  3  0  0  0  0  0  0
  -22.5070   -8.1590   21.1830 C   0  0  0  0  0  0  0  0  0  0  0  0
  -22.1060   -9.1080   20.2250 C   0  0  0  0  0  3  0  0  0  0  0  0
  -22.8510  -10.2800   20.0220 C   0  0  0  0  0  3  0  0  0  0  0  0
  -21.7300   -7.0320   21.2970 O   0  0  0  0  0  0  0  0  0  0  0  0
  -21.5800   -6.3770   22.4930 C   0  0  0  0  0  0  0  0  0  0  0  0
  -21.0500   -7.0210   23.6340 C   0  0  0  0  0  3  0  0  0  0  0  0
  -20.8510   -6.2910   24.8230 C   0  0  0  0  0  3  0  0  0  0  0  0
  -21.1670   -4.9210   24.8710 C   0  0  0  0  0  0  0  0  0  0  0  0
  -21.6840   -4.2770   23.7340 C   0  0  0  0  0  3  0  0  0  0  0  0
  -21.8880   -5.0030   22.5470 C   0  0  0  0  0  0  0  0  0  0  0  0
  -22.3710   -4.3730   21.4490 F   0  0  0  0  0  0  0  0  0  0  0  0
  -20.9660   -4.2190   26.0110 F   0  0  0  0  0  0  0  0  0  0  0  0
  -23.0170  -13.6510   21.1420 C   0  0  0  0  0  0  0  0  0  0  0  0
  -22.3630  -12.9480   22.0610 N   0  0  0  0  0  0  0  0  0  0  0  0
  -22.5600  -14.7060   20.7020 O   0  0  0  0  0  0  0  0  0  0  0  0
  -22.7480  -12.0960   22.4410 H   0  0  0  0  0  0  0  0  0  0  0  0
  -21.4640  -13.2680   22.3930 H   0  0  0  0  0  0  0  0  0  0  0  0
  -25.6020  -15.2630   20.1000 N   0  0  0  0  0  0  0  0  0  0  0  0
  -24.8290  -15.9060   20.2250 H   0  0  0  0  0  0  0  0  0  0  0  0
  -26.3590  -15.6370   19.5490 H   0  0  0  0  0  0  0  0  0  0  0  0
  -29.8700  -23.1500   18.9870 C   0  0  0  0  0  2  0  0  0  0  0  0
  -29.5140  -24.2480   20.0320 C   0  0  0  0  0  2  0  0  0  0  0  0
  -28.7960  -25.4280   19.3210 C   0  0  0  0  0  2  0  0  0  0  0  0
  -28.6590  -26.6660   20.0620 O   0  0  0  0  0  0  0  0  0  0  0  0
  -24.6850  -31.7660   23.1070 C   0  0  0  0  0  0  0  0  0  0  0  0
  -27.4690  -27.3880   20.0010 C   0  0  0  0  0  0  0  0  0  0  0  0
  -23.5340  -30.3560   21.4380 C   0  0  0  0  0  3  0  0  0  0  0  0
  -25.0400  -28.8790   20.0090 C   0  0  0  0  0  0  0  0  0  0  0  0
  -26.0600  -30.7640   21.2800 C   0  0  0  0  0  2  0  0  0  0  0  0
  -26.1840  -29.4040   20.6200 C   0  0  0  0  0  0  0  0  0  0  0  0
  -27.3940  -28.6630   20.6230 C   0  0  0  0  0  3  0  0  0  0  0  0
  -26.2970  -26.9090   19.3590 C   0  0  0  0  0  3  0  0  0  0  0  0
  -25.0960  -27.6310   19.3750 C   0  0  0  0  0  3  0  0  0  0  0  0
  -23.7780  -29.7080   20.0510 C   0  0  0  0  0  2  0  0  0  0  0  0
  -24.7770  -30.9770   21.9990 N   0  0  0  0  0  0  0  0  0  0  0  0
  -23.5900  -32.0040   23.6380 O   0  0  0  0  0  0  0  0  0  0  0  0
  -22.9010  -29.3010   22.3750 C   0  0  0  0  0  0  0  0  0  0  0  0
  -21.5770  -29.1090   22.2550 N   0  0  0  0  0  0  0  0  0  0  0  0
  -23.5970  -28.6620   23.1690 O   0  0  0  0  0  0  0  0  0  0  0  0
  -21.0720  -29.6790   21.5930 H   0  0  0  0  0  0  0  0  0  0  0  0
  -18.2130  -27.9060   22.7900 C   0  0  0  0  0  0  0  0  0  0  0  0
  -20.7770  -28.1440   23.0120 C   0  0  0  0  0  3  0  0  0  0  0  0
  -20.8600  -26.7330   22.3840 C   0  0  0  0  0  2  0  0  0  0  0  0
  -19.7340  -26.4510   21.3850 C   0  0  0  0  0  2  0  0  0  0  0  0
  -18.3690  -26.5790   22.0660 C   0  0  0  0  0  2  0  0  0  0  0  0
  -19.3440  -28.6470   23.2230 C   0  0  0  0  0  0  0  0  0  0  0  0
  -19.1450  -29.8900   23.8610 C   0  0  0  0  0  3  0  0  0  0  0  0
  -17.8490  -30.3920   24.0750 C   0  0  0  0  0  3  0  0  0  0  0  0
  -16.7310  -29.6450   23.6620 C   0  0  0  0  0  3  0  0  0  0  0  0
  -16.9140  -28.4050   23.0240 C   0  0  0  0  0  3  0  0  0  0  0  0
  -25.9460  -32.4240   23.7460 C   0  0  0  0  0  3  0  0  0  0  0  0
  -26.5080  -31.6200   24.9820 C   0  0  1  0  0  0  0  0  0  0  0  0
  -25.4350  -31.2850   26.0440 C   0  0  0  0  0  1  0  0  0  0  0  0
  -27.1540  -30.2930   24.5200 C   0  0  0  0  0  1  0  0  0  0  0  0
  -27.6250  -32.4350   25.6720 C   0  0  0  0  0  1  0  0  0  0  0  0
  -25.5840  -33.7910   24.1380 N   0  0  0  0  0  0  0  0  0  0  0  0
  -25.8470  -34.8840   23.4100 C   0  0  0  0  0  0  0  0  0  0  0  0
  -26.4930  -34.8530   22.3580 O   0  0  0  0  0  0  0  0  0  0  0  0
  -25.0100  -33.8890   24.9630 H   0  0  0  0  0  0  0  0  0  0  0  0
  -24.0240  -36.5970   23.1670 C   0  0  0  0  0  1  0  0  0  0  0  0
  -25.3050  -36.2290   23.9320 C   0  0  0  0  0  3  0  0  0  0  0  0
  -27.4150  -37.1910   24.7390 C   0  0  0  0  0  1  0  0  0  0  0  0
  -26.2810  -37.3360   23.8290 N   0  0  0  0  0  0  0  0  0  0  0  0
  -25.8340  -38.2280   24.0200 H   0  0  0  0  0  0  0  0  0  0  0  0
  -27.9360  -18.7810   18.5830 C   0  0  0  0  0  3  0  0  0  0  0  0
  -26.7910  -19.0990   19.4380 N   0  0  0  0  0  4  0  0  0  0  0  0
  -26.7770  -20.1030   19.5170 H   0  0  0  0  0  0  0  0  0  0  0  0
  -26.9500  -18.7220   20.3540 H   0  0  0  0  0  0  0  0  0  0  0  0
  -25.9310  -18.7500   19.0650 H   0  0  0  0  0  0  0  0  0  0  0  0
  -28.8430  -18.8810   16.1510 C   0  0  0  0  0  1  0  0  0  0  0  0
  -27.6450  -19.0990   17.0950 C   0  0  0  0  0  2  0  0  0  0  0  0
  2  1  2  0
  3  2  1  0
  4  5  2  0
  5  1  1  0
  6  3  2  0
  6  4  1  0
  7  2  1  0
  7  8  2  0
  8 18  1  0
  9 18  1  0
 10 15  1  0
 11 12  1  0
 11 10  1  0
 13 12  1  0
 13 22  1  0
 13 14  1  0
 15  9  1  0
 15 14  1  0
 16  9  2  0
 18 17  1  0
 19 20  2  0
 20 39  1  0
 21 20  1  0
 21 24  1  0
 22 23  1  0
 22 19  1  0
 23 21  2  0
 24 25  1  0
 25 26  2  0
 27 30  1  0
 27 26  1  0
 28 27  2  0
 29 28  1  0
 29 24  2  0
 30 31  1  0
 31 36  2  0
 31 32  1  0
 32 33  2  0
 33 34  1  0
 34 38  1  0
 35 34  2  0
 36 35  1  0
 37 36  1  0
 39 40  1  0
 40 43  1  0
 40 42  1  0
 41 39  2  0
 44 45  1  0
 44 19  1  0
 46 44  1  0
 47  4  1  0
 47 48  1  0
 49 48  1  0
 49 50  1  0
 51 62  2  0
 52 50  1  0
 52 57  1  0
 53 61  1  0
 53 63  1  0
 54 60  1  0
 54 56  1  0
 55 61  1  0
 56 57  2  0
 56 55  1  0
 58 59  1  0
 58 52  2  0
 59 54  2  0
 60 53  1  0
 61 51  1  0
 63 65  2  0
 64 63  1  0
 66 64  1  0
 67 76  2  0
 67 72  1  0
 68 64  1  0
 68 72  1  0
 69 68  1  0
 70 71  1  0
 70 69  1  0
 71 67  1  0
 72 73  2  0
 73 74  1  0
 75 74  2  0
 76 75  1  0
 77 51  1  0
 77 82  1  0
 77 78  1  0
 78 81  1  1
 78 79  1  0
 80 78  1  0
 82 85  1  0
 83 87  1  0
 83 82  1  0
 84 83  2  0
 87 86  1  0
 89 87  1  0
 89 90  1  0
 89 88  1  0
 91 97  1  0
 91  3  1  0
 91 92  1  0
 92 93  1  0
 92 94  1  0
 95 92  1  0
 96 97  1  0
M  ISO  4   9 100  18 100  49 101  50 101
M  END
>  <TORSDO>  (48) 
F 24

>  <SCORE>  (48) 
-11.795

>  <name>  (48) 
47

>  <ligand_id>  (48) 
47

>  <original_smiles>  (48) 
[H]c1nc(C([H])([H])C([H])([H])C([H])([H])Oc2c([H])c([H])c3c(c2[H])C([H])([H])N(C(=O)C([H])(N([H])C(=O)C([H])(N([H])C([H])([H])[H])C([H])([H])[H])C(C([H])([H])[H])(C([H])([H])[H])C([H])([H])[H])C([H])(C(=O)N([H])C2([H])c4c([H])c([H])c([H])c([H])c4C([H])([H])C([H])([H])C2([H])[H])C3([H])[H])nc(C([H])(C([H])([H])C([H])([H])[H])[N+]([H])([H])[H])c1C([H])([H])C([H])([H])N(C(=O)N1C([H])([H])C([H])([H])C([H])([H])C([H])(n2nc(-c3c([H])c([H])c(Oc4c([H])c([H])c(F)c([H])c4F)c([H])c3[H])c(C(=O)N([H])[H])c2N([H])[H])C1([H])[H])C([H])([H])[H]

>  <smiles>  (48) 
[H]c1nc(C([H])([H])C([H])([H])C([H])([H])Oc2c([H])c([H])c3c(c2[H])C([H])([H])N(C(=O)C([H])(N([H])C(=O)C([H])(N([H])C([H])([H])[H])C([H])([H])[H])C(C([H])([H])[H])(C([H])([H])[H])C([H])([H])[H])C([H])(C(=O)N([H])C2([H])c4c([H])c([H])c([H])c([H])c4C([H])([H])C([H])([H])C2([H])[H])C3([H])[H])nc(C([H])(C([H])([H])C([H])([H])[H])[N+]([H])([H])[H])c1C([H])([H])C([H])([H])N(C(=O)N1C([H])([H])C([H])([H])C([H])([H])C([H])(n2nc(-c3c([H])c([H])c(Oc4c([H])c([H])c(F)c([H])c4F)c([H])c3[H])c(C(=O)N([H])[H])c2N([H])[H])C1([H])[H])C([H])([H])[H]

$$$$
48:0:0
     RDKit          3D

 89 97  0  0  1  0  0  0  0  0999 V2000
  -28.5020  -22.7020   18.2390 C   0  0  0  0  0  1  0  0  0  0  0  0
  -30.6760  -23.3450   19.2820 C   0  0  0  0  0  1  0  0  0  0  0  0
  -29.2510  -22.8500   19.5760 C   0  0  2  0  0  0  0  0  0  0  0  0
  -29.5250  -20.5800   21.4240 C   0  0  0  0  0  3  0  0  0  0  0  0
  -29.8280  -19.2050   21.3680 C   0  0  0  0  0  3  0  0  0  0  0  0
  -29.4820  -21.1700   20.1120 C   0  0  0  0  0  0  0  0  0  0  0  0
  -29.8210  -19.9800   19.3530 N   0  0  0  0  0  0  0  0  0  0  0  0
  -30.0700  -18.7050   20.0800 N   0  0  0  0  0  0  0  0  0  0  0  0
  -30.7770  -17.3190   18.0950 C   0  0  0  0  0  1  0  0  0  0  0  0
  -28.6380  -16.8620   19.2090 C   0  0  0  0  0  1  0  0  0  0  0  0
  -30.1190  -17.1150   19.4810 C   0  0  2  0  0  0  0  0  0  0  0  0
  -30.8240  -15.5180   19.9440 C   0  0  0  0  0  0  0  0  0  0  0  0
  -30.7540  -13.0190   19.1870 C   0  0  0  0  0  2  0  0  0  0  0  0
  -29.8140  -12.7610   17.9820 C   0  0  0  0  0  2  0  0  0  0  0  0
  -28.3800  -12.4730   18.4650 C   0  0  0  0  0  2  0  0  0  0  0  0
  -27.9400  -13.4710   19.5580 C   0  0  0  0  0  3  0  0  0  0  0  0
  -29.0150  -13.7230   20.6380 C   0  0  0  0  0  2  0  0  0  0  0  0
  -30.2340  -14.2070   19.9620 N   0  0  0  0  0  0  0  0  0  0  0  0
  -32.0600  -15.4140   19.8880 O   0  0  0  0  0  0  0  0  0  0  0  0
  -25.6120  -14.0960   20.3870 C   0  0  0  0  0  0  0  0  0  0  0  0
  -24.5390  -13.3490   20.7750 C   0  0  0  0  0  0  0  0  0  0  0  0
  -24.9690  -11.9880   20.7190 C   0  0  0  0  0  0  0  0  0  0  0  0
  -26.6250  -13.1930   20.1110 N   0  0  0  0  0  0  0  0  0  0  0  0
  -26.2520  -11.9170   20.3770 N   0  0  0  0  0  0  0  0  0  0  0  0
  -24.2130  -10.7480   20.9120 C   0  0  0  0  0  0  0  0  0  0  0  0
  -24.6200   -9.7760   21.8520 C   0  0  0  0  0  3  0  0  0  0  0  0
  -23.8660   -8.5970   22.0330 C   0  0  0  0  0  3  0  0  0  0  0  0
  -22.6910   -8.3840   21.2730 C   0  0  0  0  0  0  0  0  0  0  0  0
  -22.3030   -9.3440   20.3220 C   0  0  0  0  0  3  0  0  0  0  0  0
  -23.0570  -10.5150   20.1390 C   0  0  0  0  0  3  0  0  0  0  0  0
  -21.9100   -7.2590   21.3620 O   0  0  0  0  0  0  0  0  0  0  0  0
  -21.8030   -6.5480   22.5300 C   0  0  0  0  0  0  0  0  0  0  0  0
  -21.3310   -7.1390   23.7220 C   0  0  0  0  0  3  0  0  0  0  0  0
  -21.1730   -6.3560   24.8820 C   0  0  0  0  0  3  0  0  0  0  0  0
  -21.4760   -4.9810   24.8500 C   0  0  0  0  0  0  0  0  0  0  0  0
  -21.9430   -4.3900   23.6630 C   0  0  0  0  0  3  0  0  0  0  0  0
  -22.1030   -5.1710   22.5060 C   0  0  0  0  0  0  0  0  0  0  0  0
  -22.5320   -4.5930   21.3580 F   0  0  0  0  0  0  0  0  0  0  0  0
  -21.3180   -4.2260   25.9630 F   0  0  0  0  0  0  0  0  0  0  0  0
  -23.1630  -13.8640   21.0790 C   0  0  0  0  0  0  0  0  0  0  0  0
  -22.4480  -13.1970   21.9740 N   0  0  0  0  0  0  0  0  0  0  0  0
  -22.7370  -14.8950   20.5590 O   0  0  0  0  0  0  0  0  0  0  0  0
  -22.8100  -12.3640   22.4130 H   0  0  0  0  0  0  0  0  0  0  0  0
  -21.5250  -13.5230   22.2250 H   0  0  0  0  0  0  0  0  0  0  0  0
  -25.7920  -15.4610   20.2080 N   0  0  0  0  0  0  0  0  0  0  0  0
  -25.0320  -16.1210   20.3320 H   0  0  0  0  0  0  0  0  0  0  0  0
  -26.6130  -15.8790   19.7940 H   0  0  0  0  0  0  0  0  0  0  0  0
  -28.4340  -24.3110   20.2960 C   0  0  0  0  0  2  0  0  0  0  0  0
  -28.5070  -25.9600   20.0570 O   0  0  0  0  0  0  0  0  0  0  0  0
  -24.6290  -31.7570   23.0930 C   0  0  0  0  0  0  0  0  0  0  0  0
  -27.4250  -26.9950   20.0690 C   0  0  0  0  0  0  0  0  0  0  0  0
  -23.5180  -30.3360   21.4190 C   0  0  0  0  0  3  0  0  0  0  0  0
  -25.0510  -28.7920   20.0120 C   0  0  0  0  0  0  0  0  0  0  0  0
  -26.0790  -30.6390   21.3210 C   0  0  0  0  0  2  0  0  0  0  0  0
  -26.2150  -29.2370   20.6520 C   0  0  0  0  0  0  0  0  0  0  0  0
  -27.3970  -28.3630   20.6460 C   0  0  0  0  0  3  0  0  0  0  0  0
  -26.2170  -26.7000   19.3970 C   0  0  0  0  0  3  0  0  0  0  0  0
  -25.0780  -27.5460   19.3660 C   0  0  0  0  0  3  0  0  0  0  0  0
  -23.7980  -29.6700   20.0430 C   0  0  0  0  0  2  0  0  0  0  0  0
  -24.7610  -30.9380   22.0000 N   0  0  0  0  0  0  0  0  0  0  0  0
  -23.5200  -32.0030   23.5950 O   0  0  0  0  0  0  0  0  0  0  0  0
  -22.8380  -29.3100   22.3620 C   0  0  0  0  0  0  0  0  0  0  0  0
  -21.5120  -29.1200   22.2260 N   0  0  0  0  0  0  0  0  0  0  0  0
  -23.5110  -28.6810   23.1830 O   0  0  0  0  0  0  0  0  0  0  0  0
  -21.0220  -29.6780   21.5410 H   0  0  0  0  0  0  0  0  0  0  0  0
  -18.1510  -27.8320   22.6950 C   0  0  0  0  0  0  0  0  0  0  0  0
  -20.7050  -28.1480   22.9730 C   0  0  0  0  0  3  0  0  0  0  0  0
  -20.8380  -26.7320   22.3670 C   0  0  0  0  0  2  0  0  0  0  0  0
  -19.7460  -26.4080   21.3430 C   0  0  0  0  0  2  0  0  0  0  0  0
  -18.3590  -26.5050   21.9860 C   0  0  0  0  0  2  0  0  0  0  0  0
  -19.2510  -28.6100   23.1440 C   0  0  0  0  0  0  0  0  0  0  0  0
  -19.0000  -29.8490   23.7740 C   0  0  0  0  0  3  0  0  0  0  0  0
  -17.6820  -30.3110   23.9550 C   0  0  0  0  0  3  0  0  0  0  0  0
  -16.5970  -29.5300   23.5200 C   0  0  0  0  0  3  0  0  0  0  0  0
  -16.8320  -28.2920   22.8970 C   0  0  0  0  0  3  0  0  0  0  0  0
  -25.8620  -32.4370   23.7610 C   0  0  0  0  0  3  0  0  0  0  0  0
  -26.3650  -31.6780   25.0530 C   0  0  1  0  0  0  0  0  0  0  0  0
  -25.2480  -31.4020   26.0880 C   0  0  0  0  0  1  0  0  0  0  0  0
  -27.0000  -30.3190   24.6830 C   0  0  0  0  0  1  0  0  0  0  0  0
  -27.4720  -32.5050   25.7470 C   0  0  0  0  0  1  0  0  0  0  0  0
  -25.4920  -33.8220   24.1030 N   0  0  0  0  0  0  0  0  0  0  0  0
  -25.8100  -34.9020   23.3770 C   0  0  0  0  0  0  0  0  0  0  0  0
  -26.5090  -34.8370   22.3620 O   0  0  0  0  0  0  0  0  0  0  0  0
  -24.8710  -33.9430   24.8890 H   0  0  0  0  0  0  0  0  0  0  0  0
  -24.0400  -36.6550   23.0160 C   0  0  0  0  0  1  0  0  0  0  0  0
  -25.2740  -36.2710   23.8470 C   0  0  0  0  0  3  0  0  0  0  0  0
  -27.3590  -37.2080   24.7460 C   0  0  0  0  0  1  0  0  0  0  0  0
  -26.2790  -37.3560   23.7740 N   0  0  0  0  0  0  0  0  0  0  0  0
  -25.8420  -38.2600   23.9230 H   0  0  0  0  0  0  0  0  0  0  0  0
  3  1  1  6
  2  3  1  0
  3  6  1  0
  3 48  1  0
  5  4  2  0
  6  4  1  0
  7  8  1  0
  7  6  2  0
  8  5  1  0
 11  9  1  6
 10 11  1  0
 11 12  1  0
 11  8  1  0
 12 18  1  0
 13 18  1  0
 14 15  1  0
 14 13  1  0
 16 15  1  0
 16 23  1  0
 16 17  1  0
 18 17  1  0
 19 12  2  0
 20 21  2  0
 21 40  1  0
 22 21  1  0
 22 25  1  0
 23 24  1  0
 23 20  1  0
 24 22  2  0
 25 26  1  0
 26 27  2  0
 28 31  1  0
 28 27  1  0
 29 28  2  0
 30 29  1  0
 30 25  2  0
 31 32  1  0
 32 33  1  0
 33 34  2  0
 35 34  1  0
 35 39  1  0
 36 35  2  0
 37 32  2  0
 37 36  1  0
 38 37  1  0
 40 41  1  0
 41 44  1  0
 41 43  1  0
 42 40  2  0
 45 46  1  0
 45 20  1  0
 47 45  1  0
 49 51  1  0
 49 48  1  0
 50 61  2  0
 51 56  1  0
 52 60  1  0
 52 62  1  0
 53 59  1  0
 53 55  1  0
 54 60  1  0
 55 54  1  0
 56 55  2  0
 57 51  2  0
 58 57  1  0
 58 53  2  0
 59 52  1  0
 60 50  1  0
 62 64  2  0
 63 62  1  0
 65 63  1  0
 66 75  2  0
 66 71  1  0
 67 63  1  0
 67 71  1  0
 68 67  1  0
 69 70  1  0
 69 68  1  0
 70 66  1  0
 71 72  2  0
 72 73  1  0
 74 73  2  0
 75 74  1  0
 76 50  1  0
 76 81  1  0
 76 77  1  0
 77 80  1  1
 77 78  1  0
 79 77  1  0
 81 84  1  0
 82 86  1  0
 82 81  1  0
 83 82  2  0
 86 85  1  0
 88 86  1  0
 88 89  1  0
 88 87  1  0
M  ISO  4  11 100  12 100  48 101  49 101
M  END
>  <TORSDO>  (49) 
F 19

>  <SCORE>  (49) 
-16.204

>  <name>  (49) 
48

>  <ligand_id>  (49) 
48

>  <original_smiles>  (49) 
[H]c1c([H])c([H])c2c(c1[H])C([H])([H])C([H])([H])C([H])([H])C2([H])N([H])C(=O)C1([H])N(C(=O)C([H])(N([H])C(=O)C([H])(N([H])C([H])([H])[H])C([H])([H])[H])C(C([H])([H])[H])(C([H])([H])[H])C([H])([H])[H])C([H])([H])c2c([H])c(OC([H])([H])C(c3nn(C(C(=O)N4C([H])([H])C([H])([H])C([H])([H])C([H])(n5nc(-c6c([H])c([H])c(Oc7c([H])c([H])c(F)c([H])c7F)c([H])c6[H])c(C(=O)N([H])[H])c5N([H])[H])C4([H])[H])(C([H])([H])[H])C([H])([H])[H])c([H])c3[H])(C([H])([H])[H])C([H])([H])[H])c([H])c([H])c2C1([H])[H]

>  <smiles>  (49) 
[H]c1c([H])c([H])c2c(c1[H])C([H])([H])C([H])([H])C([H])([H])C2([H])N([H])C(=O)C1([H])N(C(=O)C([H])(N([H])C(=O)C([H])(N([H])C([H])([H])[H])C([H])([H])[H])C(C([H])([H])[H])(C([H])([H])[H])C([H])([H])[H])C([H])([H])c2c([H])c(OC([H])([H])C(c3nn(C(C(=O)N4C([H])([H])C([H])([H])C([H])([H])C([H])(n5nc(-c6c([H])c([H])c(Oc7c([H])c([H])c(F)c([H])c7F)c([H])c6[H])c(C(=O)N([H])[H])c5N([H])[H])C4([H])[H])(C([H])([H])[H])C([H])([H])[H])c([H])c3[H])(C([H])([H])[H])C([H])([H])[H])c([H])c([H])c2C1([H])[H]

$$$$
49:0:0
     RDKit          3D

 89 97  0  0  1  0  0  0  0  0999 V2000
  -29.7020  -20.5190   20.6830 C   0  0  0  0  0  3  0  0  0  0  0  0
  -30.3720  -17.7880   20.8470 C   0  0  0  0  0  3  0  0  0  0  0  0
  -29.8130  -16.4870   20.4170 C   0  0  0  0  0  0  0  0  0  0  0  0
  -29.5370  -18.8860   20.5000 C   0  0  0  0  0  0  0  0  0  0  0  0
  -28.6630  -16.8260   19.8150 N   0  0  0  0  0  0  0  0  0  0  0  0
  -28.5030  -18.2070   19.8490 N   0  0  0  0  0  0  0  0  0  0  0  0
  -30.5760  -15.0590   20.3950 C   0  0  0  0  0  0  0  0  0  0  0  0
  -30.4510  -12.7250   19.4320 C   0  0  0  0  0  2  0  0  0  0  0  0
  -29.5260  -12.7170   18.1920 C   0  0  0  0  0  2  0  0  0  0  0  0
  -28.0610  -12.4920   18.6120 C   0  0  0  0  0  2  0  0  0  0  0  0
  -27.6450  -13.3830   19.8130 C   0  0  0  0  0  3  0  0  0  0  0  0
  -28.6970  -13.3920   20.9370 C   0  0  0  0  0  2  0  0  0  0  0  0
  -29.9730  -13.8030   20.3440 N   0  0  0  0  0  0  0  0  0  0  0  0
  -31.7990  -15.0810   20.2070 O   0  0  0  0  0  0  0  0  0  0  0  0
  -25.2600  -13.9100   20.5610 C   0  0  0  0  0  0  0  0  0  0  0  0
  -24.2040  -13.1170   20.9130 C   0  0  0  0  0  0  0  0  0  0  0  0
  -24.6900  -11.7750   20.8730 C   0  0  0  0  0  0  0  0  0  0  0  0
  -26.3140  -13.0530   20.3090 N   0  0  0  0  0  0  0  0  0  0  0  0
  -25.9840  -11.7610   20.5690 N   0  0  0  0  0  0  0  0  0  0  0  0
  -23.9830  -10.5000   21.0490 C   0  0  0  0  0  0  0  0  0  0  0  0
  -24.4040   -9.5450   21.9990 C   0  0  0  0  0  3  0  0  0  0  0  0
  -23.6930   -8.3360   22.1630 C   0  0  0  0  0  3  0  0  0  0  0  0
  -22.5460   -8.0760   21.3760 C   0  0  0  0  0  0  0  0  0  0  0  0
  -22.1440   -9.0210   20.4160 C   0  0  0  0  0  3  0  0  0  0  0  0
  -22.8560  -10.2200   20.2500 C   0  0  0  0  0  3  0  0  0  0  0  0
  -21.8080   -6.9190   21.4480 O   0  0  0  0  0  0  0  0  0  0  0  0
  -21.7160   -6.1960   22.6100 C   0  0  0  0  0  0  0  0  0  0  0  0
  -21.1880   -6.7530   23.7960 C   0  0  0  0  0  3  0  0  0  0  0  0
  -21.0470   -5.9540   24.9470 C   0  0  0  0  0  3  0  0  0  0  0  0
  -21.4230   -4.5980   24.9140 C   0  0  0  0  0  0  0  0  0  0  0  0
  -21.9440   -4.0410   23.7340 C   0  0  0  0  0  3  0  0  0  0  0  0
  -22.0870   -4.8360   22.5840 C   0  0  0  0  0  0  0  0  0  0  0  0
  -22.5690   -4.2890   21.4420 F   0  0  0  0  0  0  0  0  0  0  0  0
  -21.2810   -3.8270   26.0180 F   0  0  0  0  0  0  0  0  0  0  0  0
  -22.7970  -13.5720   21.1750 C   0  0  0  0  0  0  0  0  0  0  0  0
  -22.0740  -12.8610   22.0310 N   0  0  0  0  0  0  0  0  0  0  0  0
  -22.3500  -14.5940   20.6560 O   0  0  0  0  0  0  0  0  0  0  0  0
  -22.4490  -12.0330   22.4700 H   0  0  0  0  0  0  0  0  0  0  0  0
  -21.1300  -13.1480   22.2510 H   0  0  0  0  0  0  0  0  0  0  0  0
  -25.4060  -15.2820   20.4120 N   0  0  0  0  0  0  0  0  0  0  0  0
  -24.6330  -15.9240   20.5380 H   0  0  0  0  0  0  0  0  0  0  0  0
  -26.2640  -15.7410   20.1250 H   0  0  0  0  0  0  0  0  0  0  0  0
  -26.0690  -18.0590   19.2720 C   0  0  0  0  0  1  0  0  0  0  0  0
  -27.7730  -18.9590   17.6250 C   0  0  0  0  0  1  0  0  0  0  0  0
  -27.3970  -18.8110   19.1060 C   0  0  0  0  0  3  0  0  0  0  0  0
  -28.7040  -21.8130   20.2540 C   0  0  0  0  0  3  0  0  0  0  0  0
  -29.0360  -23.4460   20.5490 C   0  0  0  0  0  3  0  0  0  0  0  0
  -28.0380  -24.7530   20.1810 C   0  0  0  0  0  3  0  0  0  0  0  0
  -28.2870  -26.2690   20.4310 O   0  0  0  0  0  0  0  0  0  0  0  0
  -24.6370  -31.9700   23.3390 C   0  0  0  0  0  0  0  0  0  0  0  0
  -27.2290  -27.2460   20.3450 C   0  0  0  0  0  0  0  0  0  0  0  0
  -23.4440  -30.5690   21.6990 C   0  0  0  0  0  3  0  0  0  0  0  0
  -24.9000  -28.9860   20.2910 C   0  0  0  0  0  0  0  0  0  0  0  0
  -26.0000  -30.8310   21.5480 C   0  0  0  0  0  2  0  0  0  0  0  0
  -26.0760  -29.4370   20.9020 C   0  0  0  0  0  0  0  0  0  0  0  0
  -27.2420  -28.5830   20.9120 C   0  0  0  0  0  3  0  0  0  0  0  0
  -26.0270  -26.8950   19.6930 C   0  0  0  0  0  3  0  0  0  0  0  0
  -24.8870  -27.7270   19.6720 C   0  0  0  0  0  3  0  0  0  0  0  0
  -23.6720  -29.8830   20.3260 C   0  0  0  0  0  2  0  0  0  0  0  0
  -24.7130  -31.1450   22.2510 N   0  0  0  0  0  0  0  0  0  0  0  0
  -23.5480  -32.2590   23.8590 O   0  0  0  0  0  0  0  0  0  0  0  0
  -22.7580  -29.5670   22.6620 C   0  0  0  0  0  0  0  0  0  0  0  0
  -21.4360  -29.3780   22.5110 N   0  0  0  0  0  0  0  0  0  0  0  0
  -23.4200  -28.9610   23.5080 O   0  0  0  0  0  0  0  0  0  0  0  0
  -20.9580  -29.9190   21.8040 H   0  0  0  0  0  0  0  0  0  0  0  0
  -18.0600  -28.1410   22.9560 C   0  0  0  0  0  0  0  0  0  0  0  0
  -20.6080  -28.4440   23.2800 C   0  0  0  0  0  3  0  0  0  0  0  0
  -20.7430  -27.0040   22.7370 C   0  0  0  0  0  2  0  0  0  0  0  0
  -19.6710  -26.6450   21.7030 C   0  0  0  0  0  2  0  0  0  0  0  0
  -18.2720  -26.7830   22.3100 C   0  0  0  0  0  2  0  0  0  0  0  0
  -19.1580  -28.9280   23.3970 C   0  0  0  0  0  0  0  0  0  0  0  0
  -18.9050  -30.1980   23.9620 C   0  0  0  0  0  3  0  0  0  0  0  0
  -17.5880  -30.6810   24.0890 C   0  0  0  0  0  3  0  0  0  0  0  0
  -16.5070  -29.8910   23.6640 C   0  0  0  0  0  3  0  0  0  0  0  0
  -16.7420  -28.6230   23.1040 C   0  0  0  0  0  3  0  0  0  0  0  0
  -25.9120  -32.6080   23.9710 C   0  0  0  0  0  3  0  0  0  0  0  0
  -25.6060  -34.0130   24.2760 N   0  0  0  0  0  0  0  0  0  0  0  0
  -25.9260  -35.0540   23.4940 C   0  0  0  0  0  0  0  0  0  0  0  0
  -26.5760  -34.9280   22.4540 O   0  0  0  0  0  0  0  0  0  0  0  0
  -25.0230  -34.1830   25.0840 H   0  0  0  0  0  0  0  0  0  0  0  0
  -24.1820  -36.8370   23.1570 C   0  0  0  0  0  1  0  0  0  0  0  0
  -25.4500  -36.4520   23.9360 C   0  0  0  0  0  3  0  0  0  0  0  0
  -27.6040  -37.3670   24.6810 C   0  0  0  0  0  1  0  0  0  0  0  0
  -26.4760  -37.5040   23.7640 N   0  0  0  0  0  0  0  0  0  0  0  0
  -26.0710  -38.4270   23.8940 H   0  0  0  0  0  0  0  0  0  0  0  0
  -26.4010  -31.8570   25.2700 C   0  0  1  0  0  0  0  0  0  0  0  0
  -25.2870  -31.6390   26.3220 C   0  0  0  0  0  1  0  0  0  0  0  0
  -26.9860  -30.4700   24.9170 C   0  0  0  0  0  1  0  0  0  0  0  0
  -27.5430  -32.6580   25.9380 C   0  0  0  0  0  1  0  0  0  0  0  0
  3  2  1  0
  4  1  1  0
  4  2  2  0
  5  6  1  0
  5  3  2  0
  6  4  1  0
  7  3  1  0
  8 13  1  0
  9 10  1  0
  9  8  1  0
 11 10  1  0
 11 18  1  0
 11 12  1  0
 13  7  1  0
 13 12  1  0
 14  7  2  0
 15 16  2  0
 16 35  1  0
 17 16  1  0
 17 20  1  0
 18 15  1  0
 18 19  1  0
 19 17  2  0
 20 21  1  0
 21 22  2  0
 23 26  1  0
 23 22  1  0
 24 23  2  0
 25 24  1  0
 25 20  2  0
 26 27  1  0
 27 28  1  0
 28 29  2  0
 30 29  1  0
 30 34  1  0
 31 30  2  0
 32 27  2  0
 32 31  1  0
 33 32  1  0
 35 36  1  0
 36 39  1  0
 36 38  1  0
 37 35  2  0
 40 41  1  0
 40 15  1  0
 42 40  1  0
 44 45  1  0
 45 43  1  0
 45  6  1  0
 46 47  1  0
 46  1  2  0
 48 49  1  0
 48 47  2  0
 50 61  2  0
 51 49  1  0
 51 56  1  0
 52 60  1  0
 52 62  1  0
 53 59  1  0
 53 55  1  0
 54 60  1  0
 55 56  2  0
 55 54  1  0
 57 51  2  0
 58 57  1  0
 58 53  2  0
 59 52  1  0
 60 50  1  0
 62 64  2  0
 63 62  1  0
 65 63  1  0
 66 75  2  0
 66 71  1  0
 67 63  1  0
 67 71  1  0
 68 67  1  0
 69 70  1  0
 69 68  1  0
 70 66  1  0
 71 72  2  0
 72 73  1  0
 74 73  2  0
 75 74  1  0
 76 50  1  0
 76 77  1  0
 76 86  1  0
 77 80  1  0
 78 82  1  0
 78 77  1  0
 79 78  2  0
 82 81  1  0
 84 85  1  0
 84 82  1  0
 84 83  1  0
 86 89  1  1
 86 87  1  0
 88 86  1  0
M  ISO  4   3 100   7 100  48 101  49 101
M  END
>  <TORSDO>  (50) 
F 21

>  <SCORE>  (50) 
-13.298

>  <name>  (50) 
49

>  <ligand_id>  (50) 
49

>  <original_smiles>  (50) 
[H]c1c([H])c([H])c2c(c1[H])C([H])([H])C([H])([H])C([H])([H])C2([H])N([H])C(=O)C1([H])N(C(=O)C([H])(N([H])C(=O)C([H])(N([H])C([H])([H])[H])C([H])([H])[H])C(C([H])([H])[H])(C([H])([H])[H])C([H])([H])[H])C([H])([H])c2c([H])c(OC([H])([H])C([H])([H])C([H])([H])C([H])([H])c3c([H])c(C(=O)N4C([H])([H])C([H])([H])C([H])([H])C([H])(n5nc(-c6c([H])c([H])c(Oc7c([H])c([H])c(F)c([H])c7F)c([H])c6[H])c(C(=O)N([H])[H])c5N([H])[H])C4([H])[H])nn3C([H])(C([H])([H])[H])C([H])([H])[H])c([H])c([H])c2C1([H])[H]

>  <smiles>  (50) 
[H]c1c([H])c([H])c2c(c1[H])C([H])([H])C([H])([H])C([H])([H])C2([H])N([H])C(=O)C1([H])N(C(=O)C([H])(N([H])C(=O)C([H])(N([H])C([H])([H])[H])C([H])([H])[H])C(C([H])([H])[H])(C([H])([H])[H])C([H])([H])[H])C([H])([H])c2c([H])c(OC([H])([H])C([H])([H])C([H])([H])C([H])([H])c3c([H])c(C(=O)N4C([H])([H])C([H])([H])C([H])([H])C([H])(n5nc(-c6c([H])c([H])c(Oc7c([H])c([H])c(F)c([H])c7F)c([H])c6[H])c(C(=O)N([H])[H])c5N([H])[H])C4([H])[H])nn3C([H])(C([H])([H])[H])C([H])([H])[H])c([H])c([H])c2C1([H])[H]

$$$$
50:0:0
     RDKit          3D

 93101  0  0  1  0  0  0  0  0999 V2000
  -29.5020  -18.8790   20.1100 C   0  0  0  0  0  3  0  0  0  0  0  0
  -30.1070  -17.8170   20.8240 C   0  0  0  0  0  0  0  0  0  0  0  0
  -31.0900  -19.3680   22.2340 C   0  0  0  0  0  0  0  0  0  0  0  0
  -30.3840  -20.4230   21.5850 C   0  0  0  0  0  0  0  0  0  0  0  0
  -31.9690  -19.6090   23.4470 C   0  0  0  0  0  1  0  0  0  0  0  0
  -29.6250  -20.1740   20.4900 N   0  0  0  0  0  0  0  0  0  0  0  0
  -30.9470  -18.0660   21.8620 N   0  0  0  0  0  0  0  0  0  0  0  0
  -28.2420  -16.3230   21.4840 C   0  0  0  0  0  1  0  0  0  0  0  0
  -29.5370  -16.4040   20.6540 C   0  0  0  0  0  3  0  0  0  0  0  0
  -30.8530  -14.3860   20.1080 C   0  0  0  0  0  0  0  0  0  0  0  0
  -30.4800  -12.2380   18.9350 C   0  0  0  0  0  2  0  0  0  0  0  0
  -29.4720  -12.4600   17.7870 C   0  0  0  0  0  2  0  0  0  0  0  0
  -28.0200  -12.3370   18.2890 C   0  0  0  0  0  2  0  0  0  0  0  0
  -27.7660  -13.1780   19.5680 C   0  0  0  0  0  3  0  0  0  0  0  0
  -28.8720  -12.9060   20.6180 C   0  0  0  0  0  2  0  0  0  0  0  0
  -30.1850  -13.2020   20.0100 N   0  0  0  0  0  0  0  0  0  0  0  0
  -31.8270  -14.6750   19.4060 O   0  0  0  0  0  0  0  0  0  0  0  0
  -30.3650  -15.2410   21.0200 N   0  0  0  0  0  0  0  0  0  0  0  0
  -29.9640  -14.7510   21.8030 H   0  0  0  0  0  0  0  0  0  0  0  0
  -25.3990  -13.8420   20.3550 C   0  0  0  0  0  0  0  0  0  0  0  0
  -24.3410  -13.0980   20.8030 C   0  0  0  0  0  0  0  0  0  0  0  0
  -24.7790  -11.7390   20.7800 C   0  0  0  0  0  0  0  0  0  0  0  0
  -26.4250  -12.9410   20.1070 N   0  0  0  0  0  0  0  0  0  0  0  0
  -26.0530  -11.6710   20.4120 N   0  0  0  0  0  0  0  0  0  0  0  0
  -24.0450  -10.4950   21.0350 C   0  0  0  0  0  0  0  0  0  0  0  0
  -24.5020   -9.5490   21.9810 C   0  0  0  0  0  3  0  0  0  0  0  0
  -23.7690   -8.3660   22.2210 C   0  0  0  0  0  3  0  0  0  0  0  0
  -22.5670   -8.1220   21.5180 C   0  0  0  0  0  0  0  0  0  0  0  0
  -22.1270   -9.0560   20.5630 C   0  0  0  0  0  3  0  0  0  0  0  0
  -22.8590  -10.2300   20.3210 C   0  0  0  0  0  3  0  0  0  0  0  0
  -21.8030   -6.9890   21.6680 O   0  0  0  0  0  0  0  0  0  0  0  0
  -21.7750   -6.2900   22.8480 C   0  0  0  0  0  0  0  0  0  0  0  0
  -21.3860   -6.8970   24.0620 C   0  0  0  0  0  3  0  0  0  0  0  0
  -21.3040   -6.1260   25.2390 C   0  0  0  0  0  3  0  0  0  0  0  0
  -21.6000   -4.7500   25.2020 C   0  0  0  0  0  0  0  0  0  0  0  0
  -21.9830   -4.1440   23.9930 C   0  0  0  0  0  3  0  0  0  0  0  0
  -22.0670   -4.9120   22.8190 C   0  0  0  0  0  0  0  0  0  0  0  0
  -22.4150   -4.3190   21.6520 F   0  0  0  0  0  0  0  0  0  0  0  0
  -21.5120   -4.0070   26.3300 F   0  0  0  0  0  0  0  0  0  0  0  0
  -22.9670  -13.6060   21.1360 C   0  0  0  0  0  0  0  0  0  0  0  0
  -22.2780  -12.9480   22.0610 N   0  0  0  0  0  0  0  0  0  0  0  0
  -22.5160  -14.6230   20.6120 O   0  0  0  0  0  0  0  0  0  0  0  0
  -22.6550  -12.1250   22.5080 H   0  0  0  0  0  0  0  0  0  0  0  0
  -21.3600  -13.2730   22.3280 H   0  0  0  0  0  0  0  0  0  0  0  0
  -25.5640  -15.2030   20.1160 N   0  0  0  0  0  0  0  0  0  0  0  0
  -24.8040  -15.8650   20.2300 H   0  0  0  0  0  0  0  0  0  0  0  0
  -26.3770  -15.6090   19.6750 H   0  0  0  0  0  0  0  0  0  0  0  0
  -30.1970  -21.8180   22.2010 C   0  0  0  0  0  2  0  0  0  0  0  0
  -30.7080  -23.0320   21.3860 C   0  0  0  0  0  2  0  0  0  0  0  0
  -29.9960  -24.3470   21.8040 C   0  0  0  0  0  2  0  0  0  0  0  0
  -30.5200  -25.6320   21.1190 C   0  0  0  0  0  2  0  0  0  0  0  0
  -29.5640  -26.8460   21.2380 C   0  0  0  0  0  2  0  0  0  0  0  0
  -28.4580  -26.6070   20.3770 O   0  0  0  0  0  0  0  0  0  0  0  0
  -24.6010  -31.9230   23.2990 C   0  0  0  0  0  0  0  0  0  0  0  0
  -27.3470  -27.4230   20.4050 C   0  0  0  0  0  0  0  0  0  0  0  0
  -23.4440  -30.4840   21.6510 C   0  0  0  0  0  3  0  0  0  0  0  0
  -24.9450  -28.9160   20.3120 C   0  0  0  0  0  0  0  0  0  0  0  0
  -25.9750  -30.8410   21.5240 C   0  0  0  0  0  2  0  0  0  0  0  0
  -26.0830  -29.4540   20.9270 C   0  0  0  0  0  0  0  0  0  0  0  0
  -27.2880  -28.7160   20.9820 C   0  0  0  0  0  3  0  0  0  0  0  0
  -26.1930  -26.9000   19.7880 C   0  0  0  0  0  3  0  0  0  0  0  0
  -24.9910  -27.6330   19.7420 C   0  0  0  0  0  3  0  0  0  0  0  0
  -23.6980  -29.7730   20.2950 C   0  0  0  0  0  2  0  0  0  0  0  0
  -24.6890  -31.0990   22.2170 N   0  0  0  0  0  0  0  0  0  0  0  0
  -23.5040  -32.2080   23.7980 O   0  0  0  0  0  0  0  0  0  0  0  0
  -22.7610  -29.4870   22.6140 C   0  0  0  0  0  0  0  0  0  0  0  0
  -21.4430  -29.2960   22.4420 N   0  0  0  0  0  0  0  0  0  0  0  0
  -23.4150  -28.8860   23.4700 O   0  0  0  0  0  0  0  0  0  0  0  0
  -20.9770  -29.8320   21.7230 H   0  0  0  0  0  0  0  0  0  0  0  0
  -18.0570  -28.0990   22.8380 C   0  0  0  0  0  0  0  0  0  0  0  0
  -20.6000  -28.3770   23.2050 C   0  0  0  0  0  3  0  0  0  0  0  0
  -20.7310  -26.9300   22.6740 C   0  0  0  0  0  2  0  0  0  0  0  0
  -19.6720  -26.5740   21.6260 C   0  0  0  0  0  2  0  0  0  0  0  0
  -18.2650  -26.7320   22.2100 C   0  0  0  0  0  2  0  0  0  0  0  0
  -19.1540  -28.8780   23.2910 C   0  0  0  0  0  0  0  0  0  0  0  0
  -18.9080  -30.1560   23.8350 C   0  0  0  0  0  3  0  0  0  0  0  0
  -17.5970  -30.6580   23.9340 C   0  0  0  0  0  3  0  0  0  0  0  0
  -16.5120  -29.8760   23.4990 C   0  0  0  0  0  3  0  0  0  0  0  0
  -16.7430  -28.5990   22.9570 C   0  0  0  0  0  3  0  0  0  0  0  0
  -25.8700  -32.5650   23.9430 C   0  0  0  0  0  3  0  0  0  0  0  0
  -25.5510  -33.9670   24.2430 N   0  0  0  0  0  0  0  0  0  0  0  0
  -25.9010  -35.0060   23.4740 C   0  0  0  0  0  0  0  0  0  0  0  0
  -26.5970  -34.8870   22.4620 O   0  0  0  0  0  0  0  0  0  0  0  0
  -24.9360  -34.1340   25.0250 H   0  0  0  0  0  0  0  0  0  0  0  0
  -24.1740  -36.7840   23.0490 C   0  0  0  0  0  1  0  0  0  0  0  0
  -25.3990  -36.4010   23.8940 C   0  0  0  0  0  3  0  0  0  0  0  0
  -27.5120  -37.3080   24.7530 C   0  0  0  0  0  1  0  0  0  0  0  0
  -26.4300  -37.4550   23.7850 N   0  0  0  0  0  0  0  0  0  0  0  0
  -26.0170  -38.3760   23.9070 H   0  0  0  0  0  0  0  0  0  0  0  0
  -26.3580  -31.8110   25.2410 C   0  0  1  0  0  0  0  0  0  0  0  0
  -25.2370  -31.5790   26.2810 C   0  0  0  0  0  1  0  0  0  0  0  0
  -26.9580  -30.4320   24.8770 C   0  0  0  0  0  1  0  0  0  0  0  0
  -27.4850  -32.6190   25.9230 C   0  0  0  0  0  1  0  0  0  0  0  0
  1  6  2  0
  1  2  1  0
  2  7  2  0
  3  5  1  0
  4 48  1  0
  4  3  2  0
  6  4  1  0
  7  3  1  0
  9  2  1  0
  9 18  1  0
  9  8  1  0
 10 18  1  0
 11 16  1  0
 12 13  1  0
 12 11  1  0
 14 13  1  0
 14 23  1  0
 14 15  1  0
 16 10  1  0
 16 15  1  0
 17 10  2  0
 18 19  1  0
 20 21  2  0
 21 40  1  0
 22 21  1  0
 22 25  1  0
 23 20  1  0
 23 24  1  0
 24 22  2  0
 25 26  1  0
 26 27  2  0
 28 31  1  0
 28 27  1  0
 29 28  2  0
 30 29  1  0
 30 25  2  0
 31 32  1  0
 32 33  1  0
 33 34  2  0
 35 34  1  0
 35 39  1  0
 36 35  2  0
 37 32  2  0
 37 36  1  0
 38 37  1  0
 40 41  1  0
 41 44  1  0
 41 43  1  0
 42 40  2  0
 45 46  1  0
 45 20  1  0
 47 45  1  0
 49 50  1  0
 49 48  1  0
 51 52  1  0
 51 50  1  0
 53 55  1  0
 53 52  1  0
 54 65  2  0
 55 60  1  0
 56 64  1  0
 56 66  1  0
 57 59  1  0
 58 64  1  0
 59 60  2  0
 59 58  1  0
 61 55  2  0
 62 61  1  0
 62 57  2  0
 63 57  1  0
 63 56  1  0
 64 54  1  0
 66 68  2  0
 67 66  1  0
 69 67  1  0
 70 79  2  0
 70 75  1  0
 71 67  1  0
 71 75  1  0
 72 71  1  0
 73 74  1  0
 73 72  1  0
 74 70  1  0
 75 76  2  0
 76 77  1  0
 78 77  2  0
 79 78  1  0
 80 54  1  0
 80 81  1  0
 80 90  1  0
 81 84  1  0
 82 86  1  0
 82 81  1  0
 83 82  2  0
 86 85  1  0
 88 86  1  0
 88 89  1  0
 88 87  1  0
 90 93  1  1
 90 91  1  0
 92 90  1  0
M  ISO  4  10 100  18 100  52 101  53 101
M  END
>  <TORSDO>  (51) 
F 22

>  <SCORE>  (51) 
-12.196

>  <name>  (51) 
50

>  <ligand_id>  (51) 
50

>  <original_smiles>  (51) 
[H]c1nc(C([H])([H])C([H])([H])C([H])([H])C([H])([H])C([H])([H])Oc2c([H])c([H])c3c(c2[H])C([H])([H])N(C(=O)C([H])(N([H])C(=O)C([H])(N([H])C([H])([H])[H])C([H])([H])[H])C(C([H])([H])[H])(C([H])([H])[H])C([H])([H])[H])C([H])(C(=O)N([H])C2([H])c4c([H])c([H])c([H])c([H])c4C([H])([H])C([H])([H])C2([H])[H])C3([H])[H])c(C([H])([H])[H])nc1C([H])(N([H])C(=O)N1C([H])([H])C([H])([H])C([H])([H])C([H])(n2nc(-c3c([H])c([H])c(Oc4c([H])c([H])c(F)c([H])c4F)c([H])c3[H])c(C(=O)N([H])[H])c2N([H])[H])C1([H])[H])C([H])([H])[H]

>  <smiles>  (51) 
[H]c1nc(C([H])([H])C([H])([H])C([H])([H])C([H])([H])C([H])([H])Oc2c([H])c([H])c3c(c2[H])C([H])([H])N(C(=O)C([H])(N([H])C(=O)C([H])(N([H])C([H])([H])[H])C([H])([H])[H])C(C([H])([H])[H])(C([H])([H])[H])C([H])([H])[H])C([H])(C(=O)N([H])C2([H])c4c([H])c([H])c([H])c([H])c4C([H])([H])C([H])([H])C2([H])[H])C3([H])[H])c(C([H])([H])[H])nc1C([H])(N([H])C(=O)N1C([H])([H])C([H])([H])C([H])([H])C([H])(n2nc(-c3c([H])c([H])c(Oc4c([H])c([H])c(F)c([H])c4F)c([H])c3[H])c(C(=O)N([H])[H])c2N([H])[H])C1([H])[H])C([H])([H])[H]

$$$$
51:0:0
     RDKit          3D

100108  0  0  1  0  0  0  0  0999 V2000
  -28.9700  -20.7760   19.9480 C   0  0  2  0  0  0  0  0  0  0  0  0
  -30.3150  -17.5320   18.5930 C   0  0  0  0  0  2  0  0  0  0  0  0
  -30.2630  -18.6060   20.5020 C   0  0  0  0  0  2  0  0  0  0  0  0
  -30.5140  -17.3600   19.9810 C   0  0  0  0  0  3  0  0  0  0  0  0
  -29.8630  -18.7990   18.3210 C   0  0  0  0  0  3  0  0  0  0  0  0
  -29.6710  -19.4690   19.5670 N   0  0  0  0  0  0  0  0  0  0  0  0
  -29.8520  -15.8550   21.8500 C   0  0  0  0  0  1  0  0  0  0  0  0
  -32.2300  -16.3680   21.5030 C   0  0  0  0  0  1  0  0  0  0  0  0
  -30.9080  -16.0730   20.7440 C   0  0  2  0  0  0  0  0  0  0  0  0
  -31.1820  -14.8420   19.7630 C   0  0  0  0  0  0  0  0  0  0  0  0
  -30.7060  -12.7170   18.5450 C   0  0  0  0  0  2  0  0  0  0  0  0
  -29.6770  -12.9320   17.4130 C   0  0  0  0  0  2  0  0  0  0  0  0
  -28.2310  -12.8100   17.9410 C   0  0  0  0  0  2  0  0  0  0  0  0
  -28.0140  -13.6320   19.2400 C   0  0  0  0  0  3  0  0  0  0  0  0
  -29.1430  -13.3250   20.2430 C   0  0  0  0  0  2  0  0  0  0  0  0
  -30.4270  -13.6980   19.6260 N   0  0  0  0  0  0  0  0  0  0  0  0
  -32.1760  -14.9720   19.0380 O   0  0  0  0  0  0  0  0  0  0  0  0
  -25.7050  -14.2910   20.1730 C   0  0  0  0  0  0  0  0  0  0  0  0
  -24.6490  -13.5370   20.6210 C   0  0  0  0  0  0  0  0  0  0  0  0
  -25.0670  -12.1760   20.5240 C   0  0  0  0  0  0  0  0  0  0  0  0
  -26.6960  -13.3840   19.8290 N   0  0  0  0  0  0  0  0  0  0  0  0
  -26.3210  -12.1070   20.0950 N   0  0  0  0  0  0  0  0  0  0  0  0
  -24.3220  -10.9320   20.7610 C   0  0  0  0  0  0  0  0  0  0  0  0
  -24.7370   -9.9900   21.7290 C   0  0  0  0  0  3  0  0  0  0  0  0
  -23.9950   -8.8080   21.9440 C   0  0  0  0  0  3  0  0  0  0  0  0
  -22.8230   -8.5590   21.1910 C   0  0  0  0  0  0  0  0  0  0  0  0
  -22.4270   -9.4870   20.2120 C   0  0  0  0  0  3  0  0  0  0  0  0
  -23.1700  -10.6600   19.9950 C   0  0  0  0  0  3  0  0  0  0  0  0
  -22.0540   -7.4270   21.3130 O   0  0  0  0  0  0  0  0  0  0  0  0
  -21.9050   -6.7850   22.5150 C   0  0  0  0  0  0  0  0  0  0  0  0
  -21.3860   -7.4430   23.6520 C   0  0  0  0  0  3  0  0  0  0  0  0
  -21.1850   -6.7250   24.8490 C   0  0  0  0  0  3  0  0  0  0  0  0
  -21.4930   -5.3530   24.9090 C   0  0  0  0  0  0  0  0  0  0  0  0
  -22.0080   -4.6960   23.7770 C   0  0  0  0  0  3  0  0  0  0  0  0
  -22.2110   -5.4110   22.5830 C   0  0  0  0  0  0  0  0  0  0  0  0
  -22.6850   -4.7680   21.4890 F   0  0  0  0  0  0  0  0  0  0  0  0
  -21.2940   -4.6620   26.0570 F   0  0  0  0  0  0  0  0  0  0  0  0
  -23.2960  -14.0450   21.0300 C   0  0  0  0  0  0  0  0  0  0  0  0
  -22.6460  -13.3730   21.9740 N   0  0  0  0  0  0  0  0  0  0  0  0
  -22.8260  -15.0730   20.5450 O   0  0  0  0  0  0  0  0  0  0  0  0
  -23.0400  -12.5410   22.3860 H   0  0  0  0  0  0  0  0  0  0  0  0
  -21.7380  -13.6920   22.2860 H   0  0  0  0  0  0  0  0  0  0  0  0
  -25.8980  -15.6600   20.0160 N   0  0  0  0  0  0  0  0  0  0  0  0
  -25.1780  -16.3460   20.2120 H   0  0  0  0  0  0  0  0  0  0  0  0
  -26.7620  -16.0780   19.6880 H   0  0  0  0  0  0  0  0  0  0  0  0
  -28.6480  -18.1690   16.2340 C   0  0  0  0  0  1  0  0  0  0  0  0
  -29.5500  -19.2380   16.8960 C   0  0  0  0  0  3  0  0  0  0  0  0
  -31.4450  -20.8920   16.5380 C   0  0  0  0  0  1  0  0  0  0  0  0
  -30.4000  -19.8370   14.5490 C   0  0  0  0  0  1  0  0  0  0  0  0
  -31.8950  -18.4940   16.0560 C   0  0  0  0  0  1  0  0  0  0  0  0
  -30.8060  -19.5900   16.0220 C   0  0  2  0  0  0  0  0  0  0  0  0
  -29.5520  -21.1590   22.6010 C   0  0  0  0  0  1  0  0  0  0  0  0
  -28.5720  -20.7210   21.4830 C   0  0  0  0  0  2  0  0  0  0  0  0
  -26.5910  -22.0000   19.5240 C   0  0  0  0  0  1  0  0  0  0  0  0
  -27.5920  -20.8680   19.1970 C   0  0  0  0  0  2  0  0  0  0  0  0
  -29.8470  -22.0990   19.7410 C   0  0  0  0  0  2  0  0  0  0  0  0
  -29.4870  -23.1460   18.6280 C   0  0  0  0  0  2  0  0  0  0  0  0
  -29.8550  -24.6550   18.8670 C   0  0  0  0  0  2  0  0  0  0  0  0
  -28.6570  -25.5930   18.5190 C   0  0  0  0  0  2  0  0  0  0  0  0
  -28.7030  -26.9930   18.9120 O   0  0  0  0  0  0  0  0  0  0  0  0
  -24.6470  -31.3320   22.9270 C   0  0  0  0  0  0  0  0  0  0  0  0
  -27.4780  -27.6460   19.0490 C   0  0  0  0  0  0  0  0  0  0  0  0
  -23.4710  -30.0440   21.1800 C   0  0  0  0  0  3  0  0  0  0  0  0
  -24.9520  -28.9020   19.4460 C   0  0  0  0  0  0  0  0  0  0  0  0
  -25.9300  -30.6940   20.8790 C   0  0  0  0  0  2  0  0  0  0  0  0
  -26.1030  -29.4440   20.0330 C   0  0  0  0  0  0  0  0  0  0  0  0
  -27.3660  -28.8240   19.8360 C   0  0  0  0  0  3  0  0  0  0  0  0
  -26.2950  -27.1500   18.4420 C   0  0  0  0  0  3  0  0  0  0  0  0
  -25.0470  -27.7540   18.6490 C   0  0  0  0  0  3  0  0  0  0  0  0
  -23.6360  -29.5980   19.7040 C   0  0  0  0  0  2  0  0  0  0  0  0
  -24.7030  -30.6990   21.7190 N   0  0  0  0  0  0  0  0  0  0  0  0
  -23.5890  -31.4020   23.5660 O   0  0  0  0  0  0  0  0  0  0  0  0
  -23.0030  -28.8290   22.0180 C   0  0  0  0  0  0  0  0  0  0  0  0
  -21.7250  -28.4480   21.8610 N   0  0  0  0  0  0  0  0  0  0  0  0
  -23.7890  -28.2390   22.7640 O   0  0  0  0  0  0  0  0  0  0  0  0
  -21.1510  -28.9830   21.2250 H   0  0  0  0  0  0  0  0  0  0  0  0
  -18.6220  -26.6100   22.1310 C   0  0  0  0  0  0  0  0  0  0  0  0
  -21.0790  -27.3110   22.5200 C   0  0  0  0  0  3  0  0  0  0  0  0
  -21.4640  -25.9830   21.8310 C   0  0  0  0  0  2  0  0  0  0  0  0
  -20.4640  -25.5510   20.7540 C   0  0  0  0  0  2  0  0  0  0  0  0
  -19.0640  -25.3810   21.3530 C   0  0  0  0  0  2  0  0  0  0  0  0
  -19.5680  -27.5240   22.6630 C   0  0  0  0  0  0  0  0  0  0  0  0
  -19.1060  -28.6680   23.3500 C   0  0  0  0  0  3  0  0  0  0  0  0
  -17.7280  -28.9030   23.5080 C   0  0  0  0  0  3  0  0  0  0  0  0
  -16.7960  -27.9880   22.9920 C   0  0  0  0  0  3  0  0  0  0  0  0
  -17.2410  -26.8430   22.3100 C   0  0  0  0  0  3  0  0  0  0  0  0
  -25.9020  -32.0140   23.5500 C   0  0  0  0  0  3  0  0  0  0  0  0
  -26.5490  -31.1730   24.7190 C   0  0  1  0  0  0  0  0  0  0  0  0
  -25.5350  -30.7310   25.8030 C   0  0  0  0  0  1  0  0  0  0  0  0
  -27.2310  -29.9030   24.1630 C   0  0  0  0  0  1  0  0  0  0  0  0
  -27.6570  -32.0040   25.4090 C   0  0  0  0  0  1  0  0  0  0  0  0
  -25.4900  -33.3380   24.0330 N   0  0  0  0  0  0  0  0  0  0  0  0
  -25.7100  -34.4880   23.3810 C   0  0  0  0  0  0  0  0  0  0  0  0
  -26.3540  -34.5500   22.3300 O   0  0  0  0  0  0  0  0  0  0  0  0
  -24.9050  -33.3540   24.8560 H   0  0  0  0  0  0  0  0  0  0  0  0
  -23.8310  -36.1560   23.2510 C   0  0  0  0  0  1  0  0  0  0  0  0
  -25.1230  -35.7760   23.9910 C   0  0  0  0  0  3  0  0  0  0  0  0
  -27.2000  -36.7450   24.8700 C   0  0  0  0  0  1  0  0  0  0  0  0
  -26.0640  -36.9190   23.9700 N   0  0  0  0  0  0  0  0  0  0  0  0
  -25.5890  -37.7830   24.2200 H   0  0  0  0  0  0  0  0  0  0  0  0
  1 53  1  1
  2  4  1  0
  4  3  1  0
  4  9  1  0
  5 47  1  0
  5  2  1  0
  5  6  1  0
  6  1  1  0
  6  3  1  0
  9  8  1  1
  9  7  1  0
 10  9  1  0
 11 16  1  0
 12 13  1  0
 12 11  1  0
 14 13  1  0
 14 21  1  0
 14 15  1  0
 16 10  1  0
 16 15  1  0
 17 10  2  0
 18 19  2  0
 19 38  1  0
 20 19  1  0
 20 23  1  0
 21 22  1  0
 21 18  1  0
 22 20  2  0
 23 24  1  0
 24 25  2  0
 26 29  1  0
 26 25  1  0
 27 26  2  0
 28 27  1  0
 28 23  2  0
 29 30  1  0
 30 35  2  0
 30 31  1  0
 31 32  2  0
 32 33  1  0
 33 37  1  0
 34 33  2  0
 35 34  1  0
 36 35  1  0
 38 39  1  0
 39 42  1  0
 39 41  1  0
 40 38  2  0
 43 18  1  0
 43 44  1  0
 45 43  1  0
 47 46  1  0
 51 49  1  6
 51 50  1  0
 51 48  1  0
 51 47  1  0
 53 52  1  0
 55 54  1  0
 55  1  1  0
 56  1  1  0
 57 58  1  0
 57 56  1  0
 59 58  1  0
 59 60  1  0
 60 62  1  0
 61 72  2  0
 62 67  1  0
 63 71  1  0
 63 73  1  0
 64 70  1  0
 64 66  1  0
 65 71  1  0
 66 65  1  0
 67 66  2  0
 68 69  1  0
 68 62  2  0
 69 64  2  0
 70 63  1  0
 71 61  1  0
 73 75  2  0
 74 73  1  0
 76 74  1  0
 77 86  2  0
 77 82  1  0
 78 74  1  0
 78 82  1  0
 79 78  1  0
 80 81  1  0
 80 79  1  0
 81 77  1  0
 82 83  2  0
 83 84  1  0
 85 84  2  0
 86 85  1  0
 87 61  1  0
 87 92  1  0
 87 88  1  0
 88 91  1  1
 88 89  1  0
 90 88  1  0
 92 95  1  0
 93 97  1  0
 93 92  1  0
 94 93  2  0
 97 96  1  0
 99 97  1  0
 99100  1  0
 99 98  1  0
M  ISO  4   9 100  10 100  59 101  60 101
M  END
>  <TORSDO>  (52) 
F 26

>  <SCORE>  (52) 
-7.438

>  <name>  (52) 
51

>  <ligand_id>  (52) 
51

>  <original_smiles>  (52) 
[H]c1c([H])c([H])c2c(c1[H])C([H])([H])C([H])([H])C([H])([H])C2([H])N([H])C(=O)C1([H])N(C(=O)C([H])(N([H])C(=O)C([H])(N([H])C([H])([H])[H])C([H])([H])[H])C(C([H])([H])[H])(C([H])([H])[H])C([H])([H])[H])C([H])([H])c2c([H])c(OC([H])([H])C([H])([H])C([H])([H])C([H])([H])C(n3c([H])c(C(C(=O)N4C([H])([H])C([H])([H])C([H])([H])C([H])(n5nc(-c6c([H])c([H])c(Oc7c([H])c([H])c(F)c([H])c7F)c([H])c6[H])c(C(=O)N([H])[H])c5N([H])[H])C4([H])[H])(C([H])([H])[H])C([H])([H])[H])c([H])c3C([H])(C([H])([H])[H])C(C([H])([H])[H])(C([H])([H])[H])C([H])([H])[H])(C([H])([H])C([H])([H])[H])C([H])([H])C([H])([H])[H])c([H])c([H])c2C1([H])[H]

>  <smiles>  (52) 
[H]c1c([H])c([H])c2c(c1[H])C([H])([H])C([H])([H])C([H])([H])C2([H])N([H])C(=O)C1([H])N(C(=O)C([H])(N([H])C(=O)C([H])(N([H])C([H])([H])[H])C([H])([H])[H])C(C([H])([H])[H])(C([H])([H])[H])C([H])([H])[H])C([H])([H])c2c([H])c(OC([H])([H])C([H])([H])C([H])([H])C([H])([H])C(n3c([H])c(C(C(=O)N4C([H])([H])C([H])([H])C([H])([H])C([H])(n5nc(-c6c([H])c([H])c(Oc7c([H])c([H])c(F)c([H])c7F)c([H])c6[H])c(C(=O)N([H])[H])c5N([H])[H])C4([H])[H])(C([H])([H])[H])C([H])([H])[H])c([H])c3C([H])(C([H])([H])[H])C(C([H])([H])[H])(C([H])([H])[H])C([H])([H])[H])(C([H])([H])C([H])([H])[H])C([H])([H])C([H])([H])[H])c([H])c([H])c2C1([H])[H]

$$$$
52:0:0
     RDKit          3D

 96104  0  0  1  0  0  0  0  0999 V2000
  -27.4140  -22.4340   20.2040 C   0  0  0  0  0  0  0  0  0  0  0  0
  -28.6670  -23.1130   20.1120 C   0  0  0  0  0  0  0  0  0  0  0  0
  -27.5320  -21.2490   19.5220 C   0  0  0  0  0  0  0  0  0  0  0  0
  -29.5180  -22.3060   19.4020 C   0  0  0  0  0  0  0  0  0  0  0  0
  -26.1820  -22.9400   20.9140 C   0  0  0  0  0  1  0  0  0  0  0  0
  -26.5050  -20.1860   19.2670 C   0  0  0  0  0  1  0  0  0  0  0  0
  -30.9450  -22.5410   19.0030 C   0  0  0  0  0  1  0  0  0  0  0  0
  -28.8420  -21.1400   19.0720 N   0  0  0  0  0  0  0  0  0  0  0  0
  -29.0010  -24.4920   20.6460 C   0  0  0  0  0  2  0  0  0  0  0  0
  -30.4630  -24.6540   21.1250 C   0  0  0  0  0  2  0  0  0  0  0  0
  -31.3320  -25.6410   20.3070 C   0  0  0  0  0  2  0  0  0  0  0  0
  -31.2650  -26.9920   20.7580 O   0  0  0  0  0  0  0  0  0  0  0  0
  -27.1810  -30.6120   25.2550 C   0  0  0  0  0  0  0  0  0  0  0  0
  -30.0520  -27.6300   20.9050 C   0  0  0  0  0  0  0  0  0  0  0  0
  -26.0790  -29.9270   23.1480 C   0  0  0  0  0  3  0  0  0  0  0  0
  -27.6280  -29.0220   21.3350 C   0  0  0  0  0  0  0  0  0  0  0  0
  -28.6020  -30.3260   23.2320 C   0  0  0  0  0  2  0  0  0  0  0  0
  -28.7390  -29.2850   22.1420 C   0  0  0  0  0  0  0  0  0  0  0  0
  -29.9480  -28.5910   21.9330 C   0  0  0  0  0  3  0  0  0  0  0  0
  -28.9300  -27.4010   20.0750 C   0  0  0  0  0  3  0  0  0  0  0  0
  -27.7150  -28.0740   20.3000 C   0  0  0  0  0  3  0  0  0  0  0  0
  -26.3690  -29.8060   21.6270 C   0  0  0  0  0  2  0  0  0  0  0  0
  -27.3020  -30.2790   23.9390 N   0  0  0  0  0  0  0  0  0  0  0  0
  -26.0710  -30.6700   25.8010 O   0  0  0  0  0  0  0  0  0  0  0  0
  -25.3980  -28.6250   23.6230 C   0  0  0  0  0  0  0  0  0  0  0  0
  -24.2600  -28.2840   22.9990 N   0  0  0  0  0  0  0  0  0  0  0  0
  -25.9030  -27.9340   24.5140 O   0  0  0  0  0  0  0  0  0  0  0  0
  -23.9060  -28.9050   22.2860 H   0  0  0  0  0  0  0  0  0  0  0  0
  -21.4530  -26.3470   21.8150 C   0  0  0  0  0  0  0  0  0  0  0  0
  -23.4650  -27.0840   23.2550 C   0  0  0  0  0  3  0  0  0  0  0  0
  -24.1820  -25.8200   22.7230 C   0  0  0  0  0  2  0  0  0  0  0  0
  -23.7570  -25.4360   21.3030 C   0  0  0  0  0  2  0  0  0  0  0  0
  -22.2480  -25.1850   21.2440 C   0  0  0  0  0  2  0  0  0  0  0  0
  -22.0280  -27.2460   22.7500 C   0  0  0  0  0  0  0  0  0  0  0  0
  -21.2550  -28.3270   23.2270 C   0  0  0  0  0  3  0  0  0  0  0  0
  -19.9310  -28.5140   22.7880 C   0  0  0  0  0  3  0  0  0  0  0  0
  -19.3600  -27.6110   21.8740 C   0  0  0  0  0  3  0  0  0  0  0  0
  -20.1190  -26.5280   21.3940 C   0  0  0  0  0  3  0  0  0  0  0  0
  -28.4270  -30.9610   26.1280 C   0  0  0  0  0  3  0  0  0  0  0  0
  -28.2320  -32.3190   26.6520 N   0  0  0  0  0  0  0  0  0  0  0  0
  -28.8020  -33.4180   26.1430 C   0  0  0  0  0  0  0  0  0  0  0  0
  -29.6130  -33.3850   25.2140 O   0  0  0  0  0  0  0  0  0  0  0  0
  -27.5390  -32.4290   27.3790 H   0  0  0  0  0  0  0  0  0  0  0  0
  -27.3620  -35.4620   25.8700 C   0  0  0  0  0  1  0  0  0  0  0  0
  -28.4070  -34.7730   26.7620 C   0  0  0  0  0  3  0  0  0  0  0  0
  -30.4950  -35.1950   27.9830 C   0  0  0  0  0  1  0  0  0  0  0  0
  -29.5560  -35.6800   26.9750 N   0  0  0  0  0  0  0  0  0  0  0  0
  -29.2370  -36.6030   27.2570 H   0  0  0  0  0  0  0  0  0  0  0  0
  -28.6700  -29.9360   27.3040 C   0  0  1  0  0  0  0  0  0  0  0  0
  -27.3840  -29.5600   28.0750 C   0  0  0  0  0  1  0  0  0  0  0  0
  -29.3010  -28.6290   26.7670 C   0  0  0  0  0  1  0  0  0  0  0  0
  -29.6740  -30.5310   28.3200 C   0  0  0  0  0  1  0  0  0  0  0  0
  -29.4250  -20.0040   18.3560 C   0  0  0  0  0  2  0  0  0  0  0  0
  -29.6320  -18.7770   19.2700 C   0  0  0  0  0  2  0  0  0  0  0  0
  -30.8290  -17.4180   17.4380 C   0  0  0  0  0  1  0  0  0  0  0  0
  -32.1560  -18.6020   19.1920 C   0  0  0  0  0  1  0  0  0  0  0  0
  -30.8300  -17.8500   18.9290 C   0  0  1  0  0  0  0  0  0  0  0  0
  -30.7360  -16.6110   19.8640 C   0  0  0  0  0  2  0  0  0  0  0  0
  -32.3820  -14.7120   20.3100 C   0  0  0  0  0  0  0  0  0  0  0  0
  -32.0450  -12.3230   19.9030 C   0  0  0  0  0  2  0  0  0  0  0  0
  -31.2900  -12.1490   18.5710 C   0  0  0  0  0  2  0  0  0  0  0  0
  -29.7660  -12.1950   18.8030 C   0  0  0  0  0  2  0  0  0  0  0  0
  -29.3210  -13.4060   19.6680 C   0  0  0  0  0  3  0  0  0  0  0  0
  -30.2160  -13.5510   20.9230 C   0  0  0  0  0  2  0  0  0  0  0  0
  -31.6100  -13.6070   20.4680 N   0  0  0  0  0  0  0  0  0  0  0  0
  -33.6070  -14.6660   20.2240 O   0  0  0  0  0  0  0  0  0  0  0  0
  -31.8390  -15.7000   19.5950 N   0  0  0  0  0  0  0  0  0  0  0  0
  -32.5590  -16.1640   19.0640 H   0  0  0  0  0  0  0  0  0  0  0  0
  -26.9460  -14.3430   20.0220 C   0  0  0  0  0  0  0  0  0  0  0  0
  -25.7590  -13.7320   20.3210 C   0  0  0  0  0  0  0  0  0  0  0  0
  -26.0620  -12.3470   20.4800 C   0  0  0  0  0  0  0  0  0  0  0  0
  -27.9020  -13.3370   20.0060 N   0  0  0  0  0  0  0  0  0  0  0  0
  -27.3650  -12.1380   20.3440 N   0  0  0  0  0  0  0  0  0  0  0  0
  -25.1800  -11.1980   20.7040 C   0  0  0  0  0  0  0  0  0  0  0  0
  -25.4170  -10.2800   21.7510 C   0  0  0  0  0  3  0  0  0  0  0  0
  -24.5430   -9.1920   21.9560 C   0  0  0  0  0  3  0  0  0  0  0  0
  -23.4180   -9.0160   21.1160 C   0  0  0  0  0  0  0  0  0  0  0  0
  -23.2000   -9.9210   20.0640 C   0  0  0  0  0  3  0  0  0  0  0  0
  -24.0720  -11.0010   19.8550 C   0  0  0  0  0  3  0  0  0  0  0  0
  -22.5290   -7.9740   21.2270 O   0  0  0  0  0  0  0  0  0  0  0  0
  -22.2180   -7.4200   22.4420 C   0  0  0  0  0  0  0  0  0  0  0  0
  -21.6720   -8.1880   23.4950 C   0  0  0  0  0  3  0  0  0  0  0  0
  -21.3010   -7.5620   24.7030 C   0  0  0  0  0  3  0  0  0  0  0  0
  -21.4650   -6.1720   24.8570 C   0  0  0  0  0  0  0  0  0  0  0  0
  -22.0060   -5.4070   23.8080 C   0  0  0  0  0  3  0  0  0  0  0  0
  -22.3760   -6.0290   22.6030 C   0  0  0  0  0  0  0  0  0  0  0  0
  -22.8760   -5.2840   21.5880 F   0  0  0  0  0  0  0  0  0  0  0  0
  -21.1040   -5.5710   26.0130 F   0  0  0  0  0  0  0  0  0  0  0  0
  -24.4070  -14.3820   20.3600 C   0  0  0  0  0  0  0  0  0  0  0  0
  -23.5080  -13.8770   21.1980 N   0  0  0  0  0  0  0  0  0  0  0  0
  -24.1540  -15.3750   19.6790 O   0  0  0  0  0  0  0  0  0  0  0  0
  -23.7210  -13.0760   21.7740 H   0  0  0  0  0  0  0  0  0  0  0  0
  -22.5930  -14.3010   21.2670 H   0  0  0  0  0  0  0  0  0  0  0  0
  -27.2760  -15.6620   19.7460 N   0  0  0  0  0  0  0  0  0  0  0  0
  -26.5740  -16.3940   19.7280 H   0  0  0  0  0  0  0  0  0  0  0  0
  -28.2070  -15.9870   19.5200 H   0  0  0  0  0  0  0  0  0  0  0  0
  1  5  1  0
  2  1  1  0
  2  9  1  0
  3  1  2  0
  4  2  2  0
  6  3  1  0
  7  4  1  0
  8  4  1  0
  8  3  1  0
  9 10  1  0
 11 12  1  0
 11 10  1  0
 12 14  1  0
 13 24  2  0
 14 19  1  0
 15 25  1  0
 15 23  1  0
 16 22  1  0
 16 18  1  0
 17 23  1  0
 18 17  1  0
 19 18  2  0
 20 21  1  0
 20 14  2  0
 21 16  2  0
 22 15  1  0
 23 13  1  0
 25 27  2  0
 26 25  1  0
 28 26  1  0
 29 34  1  0
 30 26  1  0
 31 30  1  0
 32 31  1  0
 33 32  1  0
 33 29  1  0
 34 35  2  0
 34 30  1  0
 36 35  1  0
 37 36  2  0
 38 29  2  0
 38 37  1  0
 39 13  1  0
 39 40  1  0
 39 49  1  0
 40 43  1  0
 41 40  1  0
 41 45  1  0
 42 41  2  0
 45 44  1  0
 45 47  1  0
 47 48  1  0
 47 46  1  0
 49 50  1  1
 49 52  1  0
 51 49  1  0
 53  8  1  0
 53 54  1  0
 57 55  1  6
 57 56  1  0
 57 54  1  0
 57 58  1  0
 59 65  1  0
 60 65  1  0
 61 62  1  0
 61 60  1  0
 63 62  1  0
 63 72  1  0
 63 64  1  0
 65 64  1  0
 66 59  2  0
 67 58  1  0
 67 59  1  0
 68 67  1  0
 69 70  2  0
 70 89  1  0
 70 71  1  0
 71 74  1  0
 72 69  1  0
 72 73  1  0
 73 71  2  0
 74 75  1  0
 75 76  2  0
 77 80  1  0
 77 76  1  0
 78 77  2  0
 79 78  1  0
 79 74  2  0
 80 81  1  0
 81 86  2  0
 81 82  1  0
 82 83  2  0
 83 84  1  0
 84 88  1  0
 85 84  2  0
 86 85  1  0
 87 86  1  0
 89 90  1  0
 90 93  1  0
 90 92  1  0
 91 89  2  0
 94 69  1  0
 95 94  1  0
 96 94  1  0
M  ISO  4  11 101  12 101  59 100  67 100
M  END
>  <TORSDO>  (53) 
F 23

>  <SCORE>  (53) 
-7.342

>  <name>  (53) 
52

>  <ligand_id>  (53) 
52

>  <original_smiles>  (53) 
[H]c1c([H])c([H])c2c(c1[H])C([H])([H])C([H])([H])C([H])([H])C2([H])N([H])C(=O)C1([H])N(C(=O)C([H])(N([H])C(=O)C([H])(N([H])C([H])([H])[H])C([H])([H])[H])C(C([H])([H])[H])(C([H])([H])[H])C([H])([H])[H])C([H])([H])c2c([H])c(OC([H])([H])C([H])([H])C([H])([H])c3c(C([H])([H])[H])c(C([H])([H])[H])n(C([H])([H])C([H])([H])C(C([H])([H])[H])(C([H])([H])[H])C([H])([H])N([H])C(=O)N4C([H])([H])C([H])([H])C([H])([H])C([H])(n5nc(-c6c([H])c([H])c(Oc7c([H])c([H])c(F)c([H])c7F)c([H])c6[H])c(C(=O)N([H])[H])c5N([H])[H])C4([H])[H])c3C([H])([H])[H])c([H])c([H])c2C1([H])[H]

>  <smiles>  (53) 
[H]c1c([H])c([H])c2c(c1[H])C([H])([H])C([H])([H])C([H])([H])C2([H])N([H])C(=O)C1([H])N(C(=O)C([H])(N([H])C(=O)C([H])(N([H])C([H])([H])[H])C([H])([H])[H])C(C([H])([H])[H])(C([H])([H])[H])C([H])([H])[H])C([H])([H])c2c([H])c(OC([H])([H])C([H])([H])C([H])([H])c3c(C([H])([H])[H])c(C([H])([H])[H])n(C([H])([H])C([H])([H])C(C([H])([H])[H])(C([H])([H])[H])C([H])([H])N([H])C(=O)N4C([H])([H])C([H])([H])C([H])([H])C([H])(n5nc(-c6c([H])c([H])c(Oc7c([H])c([H])c(F)c([H])c7F)c([H])c6[H])c(C(=O)N([H])[H])c5N([H])[H])C4([H])[H])c3C([H])([H])[H])c([H])c([H])c2C1([H])[H]

$$$$
53:0:0
     RDKit          3D

 93101  0  0  1  0  0  0  0  0999 V2000
  -27.5710  -23.6320   21.2940 C   0  0  0  0  0  3  0  0  0  0  0  0
  -28.0380  -21.3420   21.3560 C   0  0  0  0  0  3  0  0  0  0  0  0
  -28.4140  -23.8150   20.1770 C   0  0  0  0  0  0  0  0  0  0  0  0
  -28.9110  -21.4390   20.2470 C   0  0  0  0  0  0  0  0  0  0  0  0
  -27.3850  -22.4170   21.8760 N   0  0  0  0  0  0  0  0  0  0  0  0
  -29.0820  -22.7010   19.6680 N   0  0  0  0  0  0  0  0  0  0  0  0
  -31.1940  -20.4740   19.7650 C   0  0  0  0  0  1  0  0  0  0  0  0
  -29.3060  -20.0490   18.1710 C   0  0  0  0  0  1  0  0  0  0  0  0
  -29.6880  -20.1600   19.6640 C   0  0  2  0  0  0  0  0  0  0  0  0
  -29.4520  -18.6770   20.3370 C   0  0  2  0  0  0  0  0  0  0  0  0
  -28.1570  -18.3760   20.2360 F   0  0  0  0  0  0  0  0  0  0  0  0
  -29.7490  -18.7570   21.6340 F   0  0  0  0  0  0  0  0  0  0  0  0
  -30.2830  -17.3870   19.7920 C   0  0  0  0  0  2  0  0  0  0  0  0
  -30.6830  -14.8280   19.9650 C   0  0  0  0  0  0  0  0  0  0  0  0
  -30.4150  -12.5710   18.9460 C   0  0  0  0  0  2  0  0  0  0  0  0
  -29.4140  -12.6770   17.7740 C   0  0  0  0  0  2  0  0  0  0  0  0
  -27.9680  -12.5100   18.2770 C   0  0  0  0  0  2  0  0  0  0  0  0
  -27.6670  -13.3760   19.5300 C   0  0  0  0  0  3  0  0  0  0  0  0
  -28.7820  -13.2580   20.5920 C   0  0  0  0  0  2  0  0  0  0  0  0
  -30.0480  -13.6070   19.9370 N   0  0  0  0  0  0  0  0  0  0  0  0
  -31.8430  -14.9260   19.5540 O   0  0  0  0  0  0  0  0  0  0  0  0
  -29.9350  -15.9630   20.2160 N   0  0  0  0  0  0  0  0  0  0  0  0
  -28.9930  -15.8180   20.5450 H   0  0  0  0  0  0  0  0  0  0  0  0
  -25.3220  -13.9620   20.3890 C   0  0  0  0  0  0  0  0  0  0  0  0
  -24.2750  -13.1840   20.8030 C   0  0  0  0  0  0  0  0  0  0  0  0
  -24.7320  -11.8330   20.7280 C   0  0  0  0  0  0  0  0  0  0  0  0
  -26.3500  -13.0830   20.0850 N   0  0  0  0  0  0  0  0  0  0  0  0
  -26.0050  -11.7980   20.3530 N   0  0  0  0  0  0  0  0  0  0  0  0
  -24.0130  -10.5690   20.9370 C   0  0  0  0  0  0  0  0  0  0  0  0
  -24.4570   -9.6130   21.8770 C   0  0  0  0  0  3  0  0  0  0  0  0
  -23.7360   -8.4150   22.0740 C   0  0  0  0  0  3  0  0  0  0  0  0
  -22.5590   -8.1650   21.3300 C   0  0  0  0  0  0  0  0  0  0  0  0
  -22.1350   -9.1100   20.3790 C   0  0  0  0  0  3  0  0  0  0  0  0
  -22.8560  -10.2990   20.1810 C   0  0  0  0  0  3  0  0  0  0  0  0
  -21.8090   -7.0180   21.4360 O   0  0  0  0  0  0  0  0  0  0  0  0
  -21.7270   -6.3160   22.6120 C   0  0  0  0  0  0  0  0  0  0  0  0
  -21.2540   -6.9110   23.8030 C   0  0  0  0  0  3  0  0  0  0  0  0
  -21.1210   -6.1360   24.9720 C   0  0  0  0  0  3  0  0  0  0  0  0
  -21.4510   -4.7670   24.9510 C   0  0  0  0  0  0  0  0  0  0  0  0
  -21.9180   -4.1730   23.7650 C   0  0  0  0  0  3  0  0  0  0  0  0
  -22.0520   -4.9450   22.5990 C   0  0  0  0  0  0  0  0  0  0  0  0
  -22.4820   -4.3630   21.4540 F   0  0  0  0  0  0  0  0  0  0  0  0
  -21.3170   -4.0200   26.0720 F   0  0  0  0  0  0  0  0  0  0  0  0
  -22.8950  -13.6600   21.1530 C   0  0  0  0  0  0  0  0  0  0  0  0
  -22.2100  -12.9540   22.0460 N   0  0  0  0  0  0  0  0  0  0  0  0
  -22.4330  -14.6930   20.6700 O   0  0  0  0  0  0  0  0  0  0  0  0
  -22.5980  -12.1170   22.4560 H   0  0  0  0  0  0  0  0  0  0  0  0
  -21.2880  -13.2550   22.3240 H   0  0  0  0  0  0  0  0  0  0  0  0
  -25.4780  -15.3350   20.2230 N   0  0  0  0  0  0  0  0  0  0  0  0
  -24.7180  -15.9850   20.3970 H   0  0  0  0  0  0  0  0  0  0  0  0
  -26.3020  -15.7840   19.8470 H   0  0  0  0  0  0  0  0  0  0  0  0
  -28.5040  -25.2200   19.4340 C   0  0  0  0  0  2  0  0  0  0  0  0
  -28.3740  -26.5330   20.1440 O   0  0  0  0  0  0  0  0  0  0  0  0
  -24.6220  -31.8960   23.2180 C   0  0  0  0  0  0  0  0  0  0  0  0
  -27.2350  -27.3640   20.0840 C   0  0  0  0  0  0  0  0  0  0  0  0
  -23.4130  -30.5060   21.5770 C   0  0  0  0  0  3  0  0  0  0  0  0
  -24.8590  -28.9780   20.1150 C   0  0  0  0  0  0  0  0  0  0  0  0
  -25.9480  -30.8380   21.3710 C   0  0  0  0  0  2  0  0  0  0  0  0
  -26.0300  -29.4650   20.7080 C   0  0  0  0  0  0  0  0  0  0  0  0
  -27.2150  -28.6680   20.6860 C   0  0  0  0  0  3  0  0  0  0  0  0
  -26.0350  -26.9340   19.4760 C   0  0  0  0  0  3  0  0  0  0  0  0
  -24.8660  -27.7210   19.4910 C   0  0  0  0  0  3  0  0  0  0  0  0
  -23.6170  -29.8450   20.1860 C   0  0  0  0  0  2  0  0  0  0  0  0
  -24.6810  -31.0990   22.1120 N   0  0  0  0  0  0  0  0  0  0  0  0
  -23.5430  -32.1610   23.7670 O   0  0  0  0  0  0  0  0  0  0  0  0
  -22.7670  -29.4750   22.5350 C   0  0  0  0  0  0  0  0  0  0  0  0
  -21.4420  -29.2880   22.4210 N   0  0  0  0  0  0  0  0  0  0  0  0
  -23.4600  -28.8460   23.3400 O   0  0  0  0  0  0  0  0  0  0  0  0
  -20.9420  -29.8470   21.7450 H   0  0  0  0  0  0  0  0  0  0  0  0
  -18.0810  -28.0580   22.9380 C   0  0  0  0  0  0  0  0  0  0  0  0
  -20.6390  -28.3370   23.1900 C   0  0  0  0  0  3  0  0  0  0  0  0
  -20.7480  -26.9110   22.6000 C   0  0  0  0  0  2  0  0  0  0  0  0
  -19.6400  -26.5890   21.5920 C   0  0  0  0  0  2  0  0  0  0  0  0
  -18.2620  -26.7160   22.2490 C   0  0  0  0  0  2  0  0  0  0  0  0
  -19.1960  -28.8250   23.3650 C   0  0  0  0  0  0  0  0  0  0  0  0
  -18.9710  -30.0810   23.9710 C   0  0  0  0  0  3  0  0  0  0  0  0
  -17.6620  -30.5670   24.1540 C   0  0  0  0  0  3  0  0  0  0  0  0
  -16.5610  -29.7960   23.7440 C   0  0  0  0  0  3  0  0  0  0  0  0
  -16.7710  -28.5440   23.1400 C   0  0  0  0  0  3  0  0  0  0  0  0
  -25.9070  -32.5330   23.8330 C   0  0  0  0  0  3  0  0  0  0  0  0
  -26.4410  -31.7560   25.0990 C   0  0  1  0  0  0  0  0  0  0  0  0
  -25.3590  -31.5040   26.1760 C   0  0  0  0  0  1  0  0  0  0  0  0
  -27.0290  -30.3860   24.6930 C   0  0  0  0  0  1  0  0  0  0  0  0
  -27.5930  -32.5530   25.7560 C   0  0  0  0  0  1  0  0  0  0  0  0
  -25.5900  -33.9260   24.1790 N   0  0  0  0  0  0  0  0  0  0  0  0
  -25.9070  -34.9900   23.4280 C   0  0  0  0  0  0  0  0  0  0  0  0
  -26.5660  -34.9020   22.3890 O   0  0  0  0  0  0  0  0  0  0  0  0
  -25.0020  -34.0690   24.9880 H   0  0  0  0  0  0  0  0  0  0  0  0
  -24.1640  -36.7770   23.1120 C   0  0  0  0  0  1  0  0  0  0  0  0
  -25.4160  -36.3700   23.9060 C   0  0  0  0  0  3  0  0  0  0  0  0
  -27.5520  -37.2610   24.7270 C   0  0  0  0  0  1  0  0  0  0  0  0
  -26.4410  -37.4320   23.7950 N   0  0  0  0  0  0  0  0  0  0  0  0
  -26.0310  -38.3480   23.9550 H   0  0  0  0  0  0  0  0  0  0  0  0
  1  5  1  0
  2  5  2  0
  3  1  2  0
  4  2  1  0
  6  3  1  0
  6  4  2  0
  9  8  1  6
  9  7  1  0
  9  4  1  0
  9 10  1  0
 10 12  1  1
 11 10  1  0
 13 22  1  0
 13 10  1  0
 14 22  1  0
 15 20  1  0
 16 17  1  0
 16 15  1  0
 18 17  1  0
 18 27  1  0
 18 19  1  0
 20 14  1  0
 20 19  1  0
 21 14  2  0
 22 23  1  0
 24 25  2  0
 25 44  1  0
 26 25  1  0
 26 29  1  0
 27 28  1  0
 27 24  1  0
 28 26  2  0
 29 30  1  0
 30 31  2  0
 32 35  1  0
 32 31  1  0
 33 32  2  0
 34 33  1  0
 34 29  2  0
 35 36  1  0
 36 37  1  0
 37 38  2  0
 39 38  1  0
 39 43  1  0
 40 39  2  0
 41 36  2  0
 41 40  1  0
 42 41  1  0
 44 45  1  0
 45 48  1  0
 45 47  1  0
 46 44  2  0
 49 24  1  0
 49 50  1  0
 51 49  1  0
 52 53  1  0
 52  3  1  0
 54 65  2  0
 55 53  1  0
 55 60  1  0
 56 64  1  0
 56 66  1  0
 57 63  1  0
 57 59  1  0
 58 64  1  0
 59 58  1  0
 60 59  2  0
 61 62  1  0
 61 55  2  0
 62 57  2  0
 63 56  1  0
 64 54  1  0
 66 68  2  0
 67 66  1  0
 69 67  1  0
 70 79  2  0
 70 75  1  0
 71 67  1  0
 71 75  1  0
 72 71  1  0
 73 74  1  0
 73 72  1  0
 74 70  1  0
 75 76  2  0
 76 77  1  0
 78 77  2  0
 79 78  1  0
 80 54  1  0
 80 85  1  0
 80 81  1  0
 81 84  1  1
 81 82  1  0
 83 81  1  0
 85 88  1  0
 86 90  1  0
 86 85  1  0
 87 86  2  0
 90 89  1  0
 92 90  1  0
 92 93  1  0
 92 91  1  0
M  ISO  4  14 100  22 100  52 101  53 101
M  END
>  <TORSDO>  (54) 
F 20

>  <SCORE>  (54) 
-13.579

>  <name>  (54) 
53

>  <ligand_id>  (54) 
53

>  <original_smiles>  (54) 
[H]c1nc([H])c(C(C([H])([H])[H])(C([H])([H])[H])C(F)(F)C([H])([H])N([H])C(=O)N2C([H])([H])C([H])([H])C([H])([H])C([H])(n3nc(-c4c([H])c([H])c(Oc5c([H])c([H])c(F)c([H])c5F)c([H])c4[H])c(C(=O)N([H])[H])c3N([H])[H])C2([H])[H])nc1C([H])([H])Oc1c([H])c([H])c2c(c1[H])C([H])([H])N(C(=O)C([H])(N([H])C(=O)C([H])(N([H])C([H])([H])[H])C([H])([H])[H])C(C([H])([H])[H])(C([H])([H])[H])C([H])([H])[H])C([H])(C(=O)N([H])C1([H])c3c([H])c([H])c([H])c([H])c3C([H])([H])C([H])([H])C1([H])[H])C2([H])[H]

>  <smiles>  (54) 
[H]c1nc([H])c(C(C([H])([H])[H])(C([H])([H])[H])C(F)(F)C([H])([H])N([H])C(=O)N2C([H])([H])C([H])([H])C([H])([H])C([H])(n3nc(-c4c([H])c([H])c(Oc5c([H])c([H])c(F)c([H])c5F)c([H])c4[H])c(C(=O)N([H])[H])c3N([H])[H])C2([H])[H])nc1C([H])([H])Oc1c([H])c([H])c2c(c1[H])C([H])([H])N(C(=O)C([H])(N([H])C(=O)C([H])(N([H])C([H])([H])[H])C([H])([H])[H])C(C([H])([H])[H])(C([H])([H])[H])C([H])([H])[H])C([H])(C(=O)N([H])C1([H])c3c([H])c([H])c([H])c([H])c3C([H])([H])C([H])([H])C1([H])[H])C2([H])[H]

$$$$
54:0:0
     RDKit          3D

 92100  0  0  1  0  0  0  0  0999 V2000
  -28.9590  -23.7570   18.6660 C   0  0  0  0  0  3  0  0  0  0  0  0
  -29.2660  -22.5890   20.7450 C   0  0  0  0  0  3  0  0  0  0  0  0
  -28.9030  -23.8130   20.0690 C   0  0  0  0  0  0  0  0  0  0  0  0
  -29.3640  -22.5660   18.0260 C   0  0  0  0  0  0  0  0  0  0  0  0
  -29.6790  -21.3980   20.0360 C   0  0  0  0  0  0  0  0  0  0  0  0
  -29.4500  -22.5010   16.5140 C   0  0  0  0  0  1  0  0  0  0  0  0
  -29.7190  -21.4350   18.6830 N   0  0  0  0  0  0  0  0  0  0  0  0
  -31.8710  -20.2430   20.4060 C   0  0  0  0  0  1  0  0  0  0  0  0
  -30.1860  -20.1890   22.2370 C   0  0  0  0  0  1  0  0  0  0  0  0
  -30.3610  -20.1130   20.7040 C   0  0  1  0  0  0  0  0  0  0  0  0
  -29.8700  -18.6270   20.2560 C   0  0  0  0  0  3  0  0  0  0  0  0
  -30.7450  -17.3390   20.7080 C   0  0  0  0  0  3  0  0  0  0  0  0
  -30.9800  -14.7670   20.3010 C   0  0  0  0  0  0  0  0  0  0  0  0
  -30.7300  -12.4880   19.3210 C   0  0  0  0  0  2  0  0  0  0  0  0
  -29.8030  -12.5580   18.0900 C   0  0  0  0  0  2  0  0  0  0  0  0
  -28.3280  -12.4210   18.5130 C   0  0  0  0  0  2  0  0  0  0  0  0
  -27.9600  -13.3480   19.7050 C   0  0  0  0  0  3  0  0  0  0  0  0
  -29.0060  -13.2650   20.8360 C   0  0  0  0  0  2  0  0  0  0  0  0
  -30.3150  -13.5670   20.2440 N   0  0  0  0  0  0  0  0  0  0  0  0
  -32.1710  -14.8370   19.9910 O   0  0  0  0  0  0  0  0  0  0  0  0
  -30.2440  -15.9140   20.5230 N   0  0  0  0  0  0  0  0  0  0  0  0
  -29.2590  -15.7660   20.6850 H   0  0  0  0  0  0  0  0  0  0  0  0
  -25.5800  -13.9990   20.4110 C   0  0  0  0  0  0  0  0  0  0  0  0
  -24.4960  -13.2520   20.7820 C   0  0  0  0  0  0  0  0  0  0  0  0
  -24.9300  -11.8920   20.7700 C   0  0  0  0  0  0  0  0  0  0  0  0
  -26.6060  -13.0950   20.1900 N   0  0  0  0  0  0  0  0  0  0  0  0
  -26.2220  -11.8220   20.4690 N   0  0  0  0  0  0  0  0  0  0  0  0
  -24.1750  -10.6470   20.9670 C   0  0  0  0  0  0  0  0  0  0  0  0
  -24.5730   -9.6850   21.9230 C   0  0  0  0  0  3  0  0  0  0  0  0
  -23.8210   -8.5060   22.1070 C   0  0  0  0  0  3  0  0  0  0  0  0
  -22.6550   -8.2790   21.3370 C   0  0  0  0  0  0  0  0  0  0  0  0
  -22.2770   -9.2280   20.3720 C   0  0  0  0  0  3  0  0  0  0  0  0
  -23.0290  -10.3990   20.1840 C   0  0  0  0  0  3  0  0  0  0  0  0
  -21.8770   -7.1500   21.4300 O   0  0  0  0  0  0  0  0  0  0  0  0
  -21.7810   -6.4370   22.5970 C   0  0  0  0  0  0  0  0  0  0  0  0
  -21.3180   -7.0250   23.7940 C   0  0  0  0  0  3  0  0  0  0  0  0
  -21.1690   -6.2380   24.9540 C   0  0  0  0  0  3  0  0  0  0  0  0
  -21.4720   -4.8630   24.9170 C   0  0  0  0  0  0  0  0  0  0  0  0
  -21.9270   -4.2740   23.7240 C   0  0  0  0  0  3  0  0  0  0  0  0
  -22.0780   -5.0590   22.5670 C   0  0  0  0  0  0  0  0  0  0  0  0
  -22.4960   -4.4830   21.4140 F   0  0  0  0  0  0  0  0  0  0  0  0
  -21.3220   -4.1050   26.0280 F   0  0  0  0  0  0  0  0  0  0  0  0
  -23.1070  -13.7620   21.0380 C   0  0  0  0  0  0  0  0  0  0  0  0
  -22.3600  -13.0960   21.9100 N   0  0  0  0  0  0  0  0  0  0  0  0
  -22.6930  -14.7870   20.4960 O   0  0  0  0  0  0  0  0  0  0  0  0
  -22.7070  -12.2690   22.3720 H   0  0  0  0  0  0  0  0  0  0  0  0
  -21.4260  -13.4200   22.1210 H   0  0  0  0  0  0  0  0  0  0  0  0
  -25.7740  -15.3640   20.2170 N   0  0  0  0  0  0  0  0  0  0  0  0
  -25.0170  -16.0320   20.3060 H   0  0  0  0  0  0  0  0  0  0  0  0
  -26.6250  -15.7790   19.8610 H   0  0  0  0  0  0  0  0  0  0  0  0
  -28.4020  -25.1170   20.8110 C   0  0  0  0  0  2  0  0  0  0  0  0
  -28.5960  -26.4760   20.2230 O   0  0  0  0  0  0  0  0  0  0  0  0
  -24.6860  -31.7830   23.2350 C   0  0  0  0  0  0  0  0  0  0  0  0
  -27.4730  -27.3180   20.1970 C   0  0  0  0  0  0  0  0  0  0  0  0
  -23.5490  -30.3600   21.5690 C   0  0  0  0  0  3  0  0  0  0  0  0
  -25.0660  -28.8610   20.1550 C   0  0  0  0  0  0  0  0  0  0  0  0
  -26.0790  -30.7560   21.4210 C   0  0  0  0  0  2  0  0  0  0  0  0
  -26.2120  -29.3830   20.7700 C   0  0  0  0  0  0  0  0  0  0  0  0
  -27.4230  -28.6240   20.7770 C   0  0  0  0  0  3  0  0  0  0  0  0
  -26.3080  -26.8520   19.5550 C   0  0  0  0  0  3  0  0  0  0  0  0
  -25.1160  -27.6020   19.5380 C   0  0  0  0  0  3  0  0  0  0  0  0
  -23.8030  -29.7000   20.1880 C   0  0  0  0  0  2  0  0  0  0  0  0
  -24.7900  -30.9840   22.1320 N   0  0  0  0  0  0  0  0  0  0  0  0
  -23.5870  -32.0220   23.7560 O   0  0  0  0  0  0  0  0  0  0  0  0
  -22.9040  -29.3180   22.5130 C   0  0  0  0  0  0  0  0  0  0  0  0
  -21.5900  -29.0840   22.3520 N   0  0  0  0  0  0  0  0  0  0  0  0
  -23.5870  -28.7190   23.3490 O   0  0  0  0  0  0  0  0  0  0  0  0
  -21.0970  -29.6220   21.6520 H   0  0  0  0  0  0  0  0  0  0  0  0
  -18.2600  -27.7240   22.7370 C   0  0  0  0  0  0  0  0  0  0  0  0
  -20.7900  -28.1140   23.1020 C   0  0  0  0  0  3  0  0  0  0  0  0
  -20.9860  -26.6840   22.5470 C   0  0  0  0  0  2  0  0  0  0  0  0
  -19.9410  -26.2960   21.4950 C   0  0  0  0  0  2  0  0  0  0  0  0
  -18.5300  -26.3790   22.0850 C   0  0  0  0  0  2  0  0  0  0  0  0
  -19.3220  -28.5460   23.2010 C   0  0  0  0  0  0  0  0  0  0  0  0
  -19.0180  -29.8020   23.7680 C   0  0  0  0  0  3  0  0  0  0  0  0
  -17.6840  -30.2380   23.8800 C   0  0  0  0  0  3  0  0  0  0  0  0
  -16.6360  -29.4140   23.4330 C   0  0  0  0  0  3  0  0  0  0  0  0
  -16.9250  -28.1600   22.8660 C   0  0  0  0  0  3  0  0  0  0  0  0
  -25.9380  -32.4500   23.8790 C   0  0  0  0  0  3  0  0  0  0  0  0
  -26.4370  -31.7060   25.1790 C   0  0  1  0  0  0  0  0  0  0  0  0
  -25.3220  -31.4600   26.2220 C   0  0  0  0  0  1  0  0  0  0  0  0
  -27.0580  -30.3350   24.8190 C   0  0  0  0  0  1  0  0  0  0  0  0
  -27.5540  -32.5320   25.8590 C   0  0  0  0  0  1  0  0  0  0  0  0
  -25.5900  -33.8450   24.1850 N   0  0  0  0  0  0  0  0  0  0  0  0
  -25.9220  -34.8980   23.4270 C   0  0  0  0  0  0  0  0  0  0  0  0
  -26.6240  -34.7980   22.4160 O   0  0  0  0  0  0  0  0  0  0  0  0
  -24.9650  -33.9940   24.9640 H   0  0  0  0  0  0  0  0  0  0  0  0
  -24.1690  -36.6530   23.0100 C   0  0  0  0  0  1  0  0  0  0  0  0
  -25.3960  -36.2810   23.8580 C   0  0  0  0  0  3  0  0  0  0  0  0
  -27.4880  -37.2180   24.7360 C   0  0  0  0  0  1  0  0  0  0  0  0
  -26.4100  -37.3550   23.7610 N   0  0  0  0  0  0  0  0  0  0  0  0
  -25.9810  -38.2670   23.8860 H   0  0  0  0  0  0  0  0  0  0  0  0
  1  3  1  0
  3  2  2  0
  3 51  1  0
  4  1  2  0
  4  7  1  0
  5 10  1  0
  5  2  1  0
  6  4  1  0
  7  5  2  0
 10  8  1  1
 10  9  1  0
 11 10  1  0
 11 12  2  0
 13 21  1  0
 14 19  1  0
 15 16  1  0
 15 14  1  0
 17 16  1  0
 17 26  1  0
 17 18  1  0
 19 13  1  0
 19 18  1  0
 20 13  2  0
 21 22  1  0
 21 12  1  0
 23 24  2  0
 24 43  1  0
 25 24  1  0
 25 28  1  0
 26 23  1  0
 26 27  1  0
 27 25  2  0
 28 29  1  0
 29 30  2  0
 31 34  1  0
 31 30  1  0
 32 31  2  0
 33 32  1  0
 33 28  2  0
 34 35  1  0
 35 36  1  0
 36 37  2  0
 38 37  1  0
 38 42  1  0
 39 38  2  0
 40 35  2  0
 40 39  1  0
 41 40  1  0
 43 44  1  0
 44 47  1  0
 44 46  1  0
 45 43  2  0
 48 49  1  0
 48 23  1  0
 50 48  1  0
 52 51  1  0
 53 64  2  0
 54 52  1  0
 54 59  1  0
 55 63  1  0
 55 65  1  0
 56 62  1  0
 56 58  1  0
 57 63  1  0
 58 59  2  0
 58 57  1  0
 60 54  2  0
 61 60  1  0
 61 56  2  0
 62 55  1  0
 63 53  1  0
 65 67  2  0
 66 65  1  0
 68 66  1  0
 69 78  2  0
 69 74  1  0
 70 66  1  0
 70 74  1  0
 71 70  1  0
 72 73  1  0
 72 71  1  0
 73 69  1  0
 74 75  2  0
 75 76  1  0
 77 76  2  0
 78 77  1  0
 79 53  1  0
 79 84  1  0
 79 80  1  0
 80 83  1  1
 80 81  1  0
 82 80  1  0
 84 87  1  0
 85 89  1  0
 85 84  1  0
 86 85  2  0
 89 88  1  0
 91 89  1  0
 91 92  1  0
 91 90  1  0
M  ISO  4  13 100  21 100  51 101  52 101
M  END
>  <TORSDO>  (55) 
F 20

>  <SCORE>  (55) 
-13.297

>  <name>  (55) 
54

>  <ligand_id>  (55) 
54

>  <original_smiles>  (55) 
[H]c1c([H])c([H])c2c(c1[H])C([H])([H])C([H])([H])C([H])([H])C2([H])N([H])C(=O)C1([H])N(C(=O)C([H])(N([H])C(=O)C([H])(N([H])C([H])([H])[H])C([H])([H])[H])C(C([H])([H])[H])(C([H])([H])[H])C([H])([H])[H])C([H])([H])c2c([H])c(OC([H])([H])c3c([H])c(C([H])([H])[H])nc(C(C([H])([H])[H])(C([H])([H])[H])C([H])([H])C([H])([H])N([H])C(=O)N4C([H])([H])C([H])([H])C([H])([H])C([H])(n5nc(-c6c([H])c([H])c(Oc7c([H])c([H])c(F)c([H])c7F)c([H])c6[H])c(C(=O)N([H])[H])c5N([H])[H])C4([H])[H])c3[H])c([H])c([H])c2C1([H])[H]

>  <smiles>  (55) 
[H]c1c([H])c([H])c2c(c1[H])C([H])([H])C([H])([H])C([H])([H])C2([H])N([H])C(=O)C1([H])N(C(=O)C([H])(N([H])C(=O)C([H])(N([H])C([H])([H])[H])C([H])([H])[H])C(C([H])([H])[H])(C([H])([H])[H])C([H])([H])[H])C([H])([H])c2c([H])c(OC([H])([H])c3c([H])c(C([H])([H])[H])nc(C(C([H])([H])[H])(C([H])([H])[H])C([H])([H])C([H])([H])N([H])C(=O)N4C([H])([H])C([H])([H])C([H])([H])C([H])(n5nc(-c6c([H])c([H])c(Oc7c([H])c([H])c(F)c([H])c7F)c([H])c6[H])c(C(=O)N([H])[H])c5N([H])[H])C4([H])[H])c3[H])c([H])c([H])c2C1([H])[H]

$$$$
55:0:0
     RDKit          3D

 93101  0  0  1  0  0  0  0  0999 V2000
  -28.7820  -19.1100   19.6490 C   0  0  0  0  0  2  0  0  0  0  0  0
  -30.4090  -17.9990   20.2920 C   0  0  0  0  0  0  0  0  0  0  0  0
  -29.0820  -17.8550   19.9830 N   0  0  0  0  0  0  0  0  0  0  0  0
  -30.8950  -19.2380   20.1410 N   0  0  0  0  0  2  0  0  0  0  0  0
  -29.8120  -19.9560   19.7380 N   0  0  0  0  0  0  0  0  0  0  0  0
  -29.9020  -21.3940   19.4680 C   0  0  0  0  0  2  0  0  0  0  0  0
  -29.3630  -22.2740   20.6260 C   0  0  0  0  0  2  0  0  0  0  0  0
  -29.8920  -23.7370   20.6750 C   0  0  0  0  0  2  0  0  0  0  0  0
  -29.5160  -24.6700   19.4930 C   0  0  0  0  0  2  0  0  0  0  0  0
  -28.1530  -25.4000   19.5910 C   0  0  0  0  0  2  0  0  0  0  0  0
  -28.2600  -26.7920   19.9560 O   0  0  0  0  0  0  0  0  0  0  0  0
  -24.5580  -31.9660   23.2060 C   0  0  0  0  0  0  0  0  0  0  0  0
  -27.0910  -27.5430   19.9770 C   0  0  0  0  0  0  0  0  0  0  0  0
  -23.3080  -30.6140   21.5590 C   0  0  0  0  0  3  0  0  0  0  0  0
  -24.7150  -29.0960   20.0730 C   0  0  0  0  0  0  0  0  0  0  0  0
  -25.8360  -30.9450   21.3230 C   0  0  0  0  0  2  0  0  0  0  0  0
  -25.8940  -29.5860   20.6480 C   0  0  0  0  0  0  0  0  0  0  0  0
  -27.0840  -28.8200   20.5950 C   0  0  0  0  0  3  0  0  0  0  0  0
  -25.8830  -27.0740   19.4030 C   0  0  0  0  0  3  0  0  0  0  0  0
  -24.7060  -27.8400   19.4490 C   0  0  0  0  0  3  0  0  0  0  0  0
  -23.4840  -29.9680   20.1610 C   0  0  0  0  0  2  0  0  0  0  0  0
  -24.5870  -31.1870   22.0890 N   0  0  0  0  0  0  0  0  0  0  0  0
  -23.4890  -32.2370   23.7720 O   0  0  0  0  0  0  0  0  0  0  0  0
  -22.6640  -29.5760   22.5080 C   0  0  0  0  0  0  0  0  0  0  0  0
  -21.3380  -29.3950   22.3880 N   0  0  0  0  0  0  0  0  0  0  0  0
  -23.3540  -28.9390   23.3090 O   0  0  0  0  0  0  0  0  0  0  0  0
  -20.8430  -29.9600   21.7120 H   0  0  0  0  0  0  0  0  0  0  0  0
  -17.9740  -28.1680   22.8700 C   0  0  0  0  0  0  0  0  0  0  0  0
  -20.5290  -28.4450   23.1510 C   0  0  0  0  0  3  0  0  0  0  0  0
  -20.6450  -27.0200   22.5640 C   0  0  0  0  0  2  0  0  0  0  0  0
  -19.5480  -26.6940   21.5450 C   0  0  0  0  0  2  0  0  0  0  0  0
  -18.1640  -26.8250   22.1860 C   0  0  0  0  0  2  0  0  0  0  0  0
  -19.0840  -28.9360   23.3090 C   0  0  0  0  0  0  0  0  0  0  0  0
  -18.8540  -30.1950   23.9060 C   0  0  0  0  0  3  0  0  0  0  0  0
  -17.5450  -30.6840   24.0700 C   0  0  0  0  0  3  0  0  0  0  0  0
  -16.4480  -29.9130   23.6490 C   0  0  0  0  0  3  0  0  0  0  0  0
  -16.6630  -28.6570   23.0540 C   0  0  0  0  0  3  0  0  0  0  0  0
  -25.8610  -32.5720   23.8150 C   0  0  0  0  0  3  0  0  0  0  0  0
  -25.5670  -33.9570   24.2030 N   0  0  0  0  0  0  0  0  0  0  0  0
  -25.8880  -35.0340   23.4750 C   0  0  0  0  0  0  0  0  0  0  0  0
  -26.5360  -34.9650   22.4270 O   0  0  0  0  0  0  0  0  0  0  0  0
  -24.9890  -34.0850   25.0210 H   0  0  0  0  0  0  0  0  0  0  0  0
  -24.1620  -36.8450   23.2180 C   0  0  0  0  0  1  0  0  0  0  0  0
  -25.4160  -36.4070   23.9910 C   0  0  0  0  0  3  0  0  0  0  0  0
  -27.5720  -37.2480   24.8130 C   0  0  0  0  0  1  0  0  0  0  0  0
  -26.4530  -37.4580   23.8980 N   0  0  0  0  0  0  0  0  0  0  0  0
  -26.0550  -38.3740   24.0890 H   0  0  0  0  0  0  0  0  0  0  0  0
  -26.4110  -31.7510   25.0460 C   0  0  1  0  0  0  0  0  0  0  0  0
  -25.3460  -31.4770   26.1330 C   0  0  0  0  0  1  0  0  0  0  0  0
  -26.9780  -30.3880   24.5850 C   0  0  0  0  0  1  0  0  0  0  0  0
  -27.5840  -32.5170   25.7020 C   0  0  0  0  0  1  0  0  0  0  0  0
  -31.2620  -16.8760   20.8540 C   0  0  0  0  0  3  0  0  0  0  0  0
  -31.3650  -14.5750   19.8520 C   0  0  0  0  0  0  0  0  0  0  0  0
  -31.0020  -12.3460   18.8540 C   0  0  0  0  0  2  0  0  0  0  0  0
  -30.0130  -12.4600   17.6780 C   0  0  0  0  0  2  0  0  0  0  0  0
  -28.5530  -12.3880   18.1710 C   0  0  0  0  0  2  0  0  0  0  0  0
  -28.2770  -13.3400   19.3640 C   0  0  0  0  0  3  0  0  0  0  0  0
  -29.3630  -13.1670   20.4480 C   0  0  0  0  0  2  0  0  0  0  0  0
  -30.6720  -13.4080   19.8140 N   0  0  0  0  0  0  0  0  0  0  0  0
  -32.4530  -14.7420   19.2920 O   0  0  0  0  0  0  0  0  0  0  0  0
  -30.7410  -15.5600   20.4980 N   0  0  0  0  0  0  0  0  0  0  0  0
  -29.8110  -15.3640   20.8260 H   0  0  0  0  0  0  0  0  0  0  0  0
  -25.9440  -14.0800   20.1640 C   0  0  0  0  0  0  0  0  0  0  0  0
  -24.8540  -13.3670   20.5860 C   0  0  0  0  0  0  0  0  0  0  0  0
  -25.2450  -11.9950   20.5570 C   0  0  0  0  0  0  0  0  0  0  0  0
  -26.9330  -13.1440   19.9050 N   0  0  0  0  0  0  0  0  0  0  0  0
  -26.5170  -11.8850   20.1970 N   0  0  0  0  0  0  0  0  0  0  0  0
  -24.4670  -10.7740   20.7990 C   0  0  0  0  0  0  0  0  0  0  0  0
  -24.8590   -9.8250   21.7690 C   0  0  0  0  0  3  0  0  0  0  0  0
  -24.0860   -8.6670   21.9900 C   0  0  0  0  0  3  0  0  0  0  0  0
  -22.9050   -8.4480   21.2430 C   0  0  0  0  0  0  0  0  0  0  0  0
  -22.5300   -9.3820   20.2610 C   0  0  0  0  0  3  0  0  0  0  0  0
  -23.3050  -10.5340   20.0380 C   0  0  0  0  0  3  0  0  0  0  0  0
  -22.1030   -7.3400   21.3750 O   0  0  0  0  0  0  0  0  0  0  0  0
  -21.9730   -6.6830   22.5710 C   0  0  0  0  0  0  0  0  0  0  0  0
  -21.5210   -7.3400   23.7370 C   0  0  0  0  0  3  0  0  0  0  0  0
  -21.3340   -6.6110   24.9280 C   0  0  0  0  0  3  0  0  0  0  0  0
  -21.5920   -5.2270   24.9560 C   0  0  0  0  0  0  0  0  0  0  0  0
  -22.0370   -4.5710   23.7960 C   0  0  0  0  0  3  0  0  0  0  0  0
  -22.2240   -5.2970   22.6060 C   0  0  0  0  0  0  0  0  0  0  0  0
  -22.6350   -4.6540   21.4860 F   0  0  0  0  0  0  0  0  0  0  0  0
  -21.4060   -4.5260   26.0990 F   0  0  0  0  0  0  0  0  0  0  0  0
  -23.4940  -13.9180   20.9110 C   0  0  0  0  0  0  0  0  0  0  0  0
  -22.7740  -13.2770   21.8250 N   0  0  0  0  0  0  0  0  0  0  0  0
  -23.0810  -14.9540   20.3880 O   0  0  0  0  0  0  0  0  0  0  0  0
  -23.1190  -12.4400   22.2720 H   0  0  0  0  0  0  0  0  0  0  0  0
  -21.8650  -13.6330   22.0870 H   0  0  0  0  0  0  0  0  0  0  0  0
  -26.1700  -15.4400   19.9640 N   0  0  0  0  0  0  0  0  0  0  0  0
  -25.4480  -16.1350   20.1180 H   0  0  0  0  0  0  0  0  0  0  0  0
  -27.0360  -15.8410   19.6250 H   0  0  0  0  0  0  0  0  0  0  0  0
  -32.1430  -18.0950   22.9490 C   0  0  0  0  0  1  0  0  0  0  0  0
  -30.0180  -16.7170   23.1200 C   0  0  0  0  0  1  0  0  0  0  0  0
  -31.3750  -16.8840   22.4040 C   0  0  0  0  0  3  0  0  0  0  0  0
  1  5  1  0
  1  3  1  0
  2 52  1  0
  3  2  2  0
  4  2  1  0
  5  4  1  0
  6  5  1  0
  6  7  1  0
  7  8  1  0
  9 10  1  0
  9  8  1  0
 10 11  1  0
 11 13  1  0
 12 23  2  0
 13 18  1  0
 14 22  1  0
 14 24  1  0
 15 21  1  0
 15 17  1  0
 16 22  1  0
 17 16  1  0
 18 17  2  0
 19 20  1  0
 19 13  2  0
 20 15  2  0
 21 14  1  0
 22 12  1  0
 24 26  2  0
 25 24  1  0
 27 25  1  0
 28 37  2  0
 28 33  1  0
 29 25  1  0
 29 33  1  0
 30 29  1  0
 31 32  1  0
 31 30  1  0
 32 28  1  0
 33 34  2  0
 34 35  1  0
 36 35  2  0
 37 36  1  0
 38 12  1  0
 38 39  1  0
 38 48  1  0
 39 42  1  0
 40 44  1  0
 40 39  1  0
 41 40  2  0
 44 43  1  0
 46 44  1  0
 46 47  1  0
 46 45  1  0
 48 51  1  1
 48 49  1  0
 50 48  1  0
 52 93  1  0
 53 61  1  0
 54 59  1  0
 55 56  1  0
 55 54  1  0
 57 56  1  0
 57 66  1  0
 57 58  1  0
 59 53  1  0
 59 58  1  0
 60 53  2  0
 61 62  1  0
 61 52  1  0
 63 64  2  0
 64 83  1  0
 65 64  1  0
 65 68  1  0
 66 63  1  0
 66 67  1  0
 67 65  2  0
 68 69  1  0
 69 70  2  0
 71 74  1  0
 71 70  1  0
 72 71  2  0
 73 72  1  0
 73 68  2  0
 74 75  1  0
 75 80  2  0
 75 76  1  0
 76 77  2  0
 77 78  1  0
 78 82  1  0
 79 78  2  0
 80 79  1  0
 81 80  1  0
 83 84  1  0
 84 87  1  0
 84 86  1  0
 85 83  2  0
 88 89  1  0
 88 63  1  0
 90 88  1  0
 93 91  1  0
 93 92  1  0
M  ISO  4  10 101  11 101  53 100  61 100
M  END
>  <TORSDO>  (56) 
F 23

>  <SCORE>  (56) 
-9.299

>  <name>  (56) 
55

>  <ligand_id>  (56) 
55

>  <original_smiles>  (56) 
[H]c1c([H])c([H])c2c(c1[H])C([H])([H])C([H])([H])C([H])([H])C2([H])N([H])C(=O)C1([H])N(C(=O)C([H])(N([H])C(=O)C([H])(N([H])C([H])([H])[H])C([H])([H])[H])C(C([H])([H])[H])(C([H])([H])[H])C([H])([H])[H])C([H])([H])c2c([H])c(OC([H])([H])C([H])([H])C([H])([H])C([H])([H])C([H])([H])n3nc(C([H])(N([H])C(=O)N4C([H])([H])C([H])([H])C([H])([H])C([H])(n5nc(-c6c([H])c([H])c(Oc7c([H])c([H])c(F)c([H])c7F)c([H])c6[H])c(C(=O)N([H])[H])c5N([H])[H])C4([H])[H])C([H])(C([H])([H])[H])C([H])([H])[H])nc3[H])c([H])c([H])c2C1([H])[H]

>  <smiles>  (56) 
[H]c1c([H])c([H])c2c(c1[H])C([H])([H])C([H])([H])C([H])([H])C2([H])N([H])C(=O)C1([H])N(C(=O)C([H])(N([H])C(=O)C([H])(N([H])C([H])([H])[H])C([H])([H])[H])C(C([H])([H])[H])(C([H])([H])[H])C([H])([H])[H])C([H])([H])c2c([H])c(OC([H])([H])C([H])([H])C([H])([H])C([H])([H])C([H])([H])n3nc(C([H])(N([H])C(=O)N4C([H])([H])C([H])([H])C([H])([H])C([H])(n5nc(-c6c([H])c([H])c(Oc7c([H])c([H])c(F)c([H])c7F)c([H])c6[H])c(C(=O)N([H])[H])c5N([H])[H])C4([H])[H])C([H])(C([H])([H])[H])C([H])([H])[H])nc3[H])c([H])c([H])c2C1([H])[H]

$$$$
56:0:0
     RDKit          3D

 91 99  0  0  1  0  0  0  0  0999 V2000
  -29.9860  -18.6160   20.8200 C   0  0  0  0  0  3  0  0  0  0  0  0
  -29.2790  -19.7120   20.2430 C   0  0  0  0  0  0  0  0  0  0  0  0
  -29.7110  -17.2690   20.3990 C   0  0  0  0  0  0  0  0  0  0  0  0
  -28.1200  -18.1690   18.9860 C   0  0  0  0  0  0  0  0  0  0  0  0
  -27.0300  -17.9190   17.9660 C   0  0  0  0  0  1  0  0  0  0  0  0
  -28.3600  -19.4450   19.2950 N   0  0  0  0  0  0  0  0  0  0  0  0
  -28.7280  -17.0930   19.4900 N   0  0  0  0  0  0  0  0  0  0  0  0
  -29.4010  -15.6400   22.2770 C   0  0  0  0  0  1  0  0  0  0  0  0
  -31.6770  -16.3500   21.7470 C   0  0  0  0  0  1  0  0  0  0  0  0
  -30.3230  -15.9700   21.0840 C   0  0  2  0  0  0  0  0  0  0  0  0
  -30.6790  -14.7050   20.1340 C   0  0  0  0  0  0  0  0  0  0  0  0
  -30.3090  -12.5600   18.8950 C   0  0  0  0  0  2  0  0  0  0  0  0
  -29.2960  -12.7710   17.7450 C   0  0  0  0  0  2  0  0  0  0  0  0
  -27.8430  -12.6170   18.2410 C   0  0  0  0  0  2  0  0  0  0  0  0
  -27.5910  -13.3940   19.5600 C   0  0  0  0  0  3  0  0  0  0  0  0
  -28.7050  -13.0930   20.5770 C   0  0  0  0  0  2  0  0  0  0  0  0
  -29.9820  -13.5190   19.9830 N   0  0  0  0  0  0  0  0  0  0  0  0
  -31.7300  -14.8160   19.4850 O   0  0  0  0  0  0  0  0  0  0  0  0
  -25.2550  -14.0130   20.4300 C   0  0  0  0  0  0  0  0  0  0  0  0
  -24.2000  -13.2460   20.8480 C   0  0  0  0  0  0  0  0  0  0  0  0
  -24.6410  -11.8890   20.7650 C   0  0  0  0  0  0  0  0  0  0  0  0
  -26.2690  -13.1210   20.1150 N   0  0  0  0  0  0  0  0  0  0  0  0
  -25.9070  -11.8380   20.3750 N   0  0  0  0  0  0  0  0  0  0  0  0
  -23.9090  -10.6320   20.9720 C   0  0  0  0  0  0  0  0  0  0  0  0
  -24.3760   -9.6420   21.8660 C   0  0  0  0  0  3  0  0  0  0  0  0
  -23.6490   -8.4470   22.0570 C   0  0  0  0  0  3  0  0  0  0  0  0
  -22.4370   -8.2340   21.3580 C   0  0  0  0  0  0  0  0  0  0  0  0
  -21.9870   -9.2130   20.4560 C   0  0  0  0  0  3  0  0  0  0  0  0
  -22.7150  -10.4000   20.2610 C   0  0  0  0  0  3  0  0  0  0  0  0
  -21.6730   -7.0980   21.4690 O   0  0  0  0  0  0  0  0  0  0  0  0
  -21.6680   -6.3400   22.6140 C   0  0  0  0  0  0  0  0  0  0  0  0
  -21.3190   -6.8850   23.8690 C   0  0  0  0  0  3  0  0  0  0  0  0
  -21.2630   -6.0540   25.0070 C   0  0  0  0  0  3  0  0  0  0  0  0
  -21.5430   -4.6790   24.8900 C   0  0  0  0  0  0  0  0  0  0  0  0
  -21.8840   -4.1340   23.6400 C   0  0  0  0  0  3  0  0  0  0  0  0
  -21.9430   -4.9610   22.5050 C   0  0  0  0  0  0  0  0  0  0  0  0
  -22.2510   -4.4270   21.2990 F   0  0  0  0  0  0  0  0  0  0  0  0
  -21.4800   -3.8790   25.9790 F   0  0  0  0  0  0  0  0  0  0  0  0
  -22.8290  -13.7370   21.2150 C   0  0  0  0  0  0  0  0  0  0  0  0
  -22.1440  -13.0330   22.1110 N   0  0  0  0  0  0  0  0  0  0  0  0
  -22.3750  -14.7760   20.7410 O   0  0  0  0  0  0  0  0  0  0  0  0
  -22.5190  -12.1830   22.5060 H   0  0  0  0  0  0  0  0  0  0  0  0
  -21.2290  -13.3500   22.4000 H   0  0  0  0  0  0  0  0  0  0  0  0
  -25.4390  -15.3840   20.2770 N   0  0  0  0  0  0  0  0  0  0  0  0
  -26.3150  -15.8070   19.9920 H   0  0  0  0  0  0  0  0  0  0  0  0
  -24.6960  -16.0570   20.4240 H   0  0  0  0  0  0  0  0  0  0  0  0
  -29.6330  -21.2230   20.5140 C   0  0  0  0  0  3  0  0  0  0  0  0
  -28.5210  -22.3650   20.4390 C   0  0  0  0  0  3  0  0  0  0  0  0
  -28.9850  -23.8960   20.5810 C   0  0  0  0  0  3  0  0  0  0  0  0
  -27.9290  -25.0240   20.2050 C   0  0  0  0  0  3  0  0  0  0  0  0
  -28.2310  -26.4760   20.3520 O   0  0  0  0  0  0  0  0  0  0  0  0
  -24.5610  -31.9890   23.2590 C   0  0  0  0  0  0  0  0  0  0  0  0
  -27.1390  -27.3630   20.2740 C   0  0  0  0  0  0  0  0  0  0  0  0
  -23.3520  -30.5700   21.6460 C   0  0  0  0  0  3  0  0  0  0  0  0
  -24.7910  -29.0000   20.2390 C   0  0  0  0  0  0  0  0  0  0  0  0
  -25.8940  -30.8720   21.4570 C   0  0  0  0  0  2  0  0  0  0  0  0
  -25.9660  -29.4840   20.8310 C   0  0  0  0  0  0  0  0  0  0  0  0
  -27.1450  -28.6770   20.8400 C   0  0  0  0  0  3  0  0  0  0  0  0
  -25.9420  -26.9450   19.6470 C   0  0  0  0  0  3  0  0  0  0  0  0
  -24.7830  -27.7360   19.6380 C   0  0  0  0  0  3  0  0  0  0  0  0
  -23.5620  -29.8800   20.2730 C   0  0  0  0  0  2  0  0  0  0  0  0
  -24.6210  -31.1630   22.1750 N   0  0  0  0  0  0  0  0  0  0  0  0
  -23.4780  -32.2790   23.7900 O   0  0  0  0  0  0  0  0  0  0  0  0
  -22.6880  -29.5660   22.6210 C   0  0  0  0  0  0  0  0  0  0  0  0
  -21.3670  -29.3680   22.4800 N   0  0  0  0  0  0  0  0  0  0  0  0
  -23.3620  -28.9700   23.4660 O   0  0  0  0  0  0  0  0  0  0  0  0
  -20.8810  -29.9020   21.7740 H   0  0  0  0  0  0  0  0  0  0  0  0
  -18.0000  -28.1290   22.9500 C   0  0  0  0  0  0  0  0  0  0  0  0
  -20.5470  -28.4440   23.2660 C   0  0  0  0  0  3  0  0  0  0  0  0
  -20.6870  -26.9950   22.7430 C   0  0  0  0  0  2  0  0  0  0  0  0
  -19.6130  -26.6160   21.7180 C   0  0  0  0  0  2  0  0  0  0  0  0
  -18.2150  -26.7610   22.3260 C   0  0  0  0  0  2  0  0  0  0  0  0
  -19.0950  -28.9250   23.3770 C   0  0  0  0  0  0  0  0  0  0  0  0
  -18.8420  -30.2050   23.9180 C   0  0  0  0  0  3  0  0  0  0  0  0
  -17.5250  -30.6870   24.0390 C   0  0  0  0  0  3  0  0  0  0  0  0
  -16.4440  -29.8880   23.6280 C   0  0  0  0  0  3  0  0  0  0  0  0
  -16.6820  -28.6120   23.0880 C   0  0  0  0  0  3  0  0  0  0  0  0
  -25.8460  -32.6300   23.8690 C   0  0  0  0  0  3  0  0  0  0  0  0
  -25.5390  -34.0350   24.1740 N   0  0  0  0  0  0  0  0  0  0  0  0
  -25.8550  -35.0710   23.3850 C   0  0  0  0  0  0  0  0  0  0  0  0
  -26.5060  -34.9470   22.3440 O   0  0  0  0  0  0  0  0  0  0  0  0
  -24.9620  -34.2060   24.9840 H   0  0  0  0  0  0  0  0  0  0  0  0
  -24.1040  -36.8440   23.0410 C   0  0  0  0  0  1  0  0  0  0  0  0
  -25.3730  -36.4690   23.8230 C   0  0  0  0  0  3  0  0  0  0  0  0
  -27.5270  -37.3870   24.5630 C   0  0  0  0  0  1  0  0  0  0  0  0
  -26.3940  -37.5250   23.6510 N   0  0  0  0  0  0  0  0  0  0  0  0
  -25.9860  -38.4450   23.7880 H   0  0  0  0  0  0  0  0  0  0  0  0
  -26.3600  -31.8810   25.1590 C   0  0  1  0  0  0  0  0  0  0  0  0
  -25.2640  -31.6550   26.2270 C   0  0  0  0  0  1  0  0  0  0  0  0
  -26.9510  -30.5000   24.7920 C   0  0  0  0  0  1  0  0  0  0  0  0
  -27.5040  -32.6910   25.8150 C   0  0  0  0  0  1  0  0  0  0  0  0
  2 47  1  0
  2  1  2  0
  3  1  1  0
  3 10  1  0
  4  6  2  0
  4  7  1  0
  5  4  1  0
  6  2  1  0
  7  3  2  0
 10  9  1  1
 10  8  1  0
 11 10  1  0
 12 17  1  0
 13 14  1  0
 13 12  1  0
 15 14  1  0
 15 22  1  0
 15 16  1  0
 17 11  1  0
 17 16  1  0
 18 11  2  0
 19 20  2  0
 20 39  1  0
 21 20  1  0
 21 24  1  0
 22 23  1  0
 22 19  1  0
 23 21  2  0
 24 25  1  0
 25 26  2  0
 27 30  1  0
 27 26  1  0
 28 27  2  0
 29 28  1  0
 29 24  2  0
 30 31  1  0
 31 32  1  0
 32 33  2  0
 34 33  1  0
 34 38  1  0
 35 34  2  0
 36 31  2  0
 36 35  1  0
 37 36  1  0
 39 40  1  0
 40 43  1  0
 40 42  1  0
 41 39  2  0
 44 46  1  0
 44 19  1  0
 45 44  1  0
 48 47  2  0
 48 49  1  0
 50 51  1  0
 50 49  2  0
 52 63  2  0
 53 51  1  0
 53 58  1  0
 54 62  1  0
 54 64  1  0
 55 61  1  0
 55 57  1  0
 56 62  1  0
 57 58  2  0
 57 56  1  0
 59 53  2  0
 60 59  1  0
 60 55  2  0
 61 54  1  0
 62 52  1  0
 64 66  2  0
 65 64  1  0
 67 65  1  0
 68 77  2  0
 68 73  1  0
 69 65  1  0
 69 73  1  0
 70 69  1  0
 71 72  1  0
 71 70  1  0
 72 68  1  0
 73 74  2  0
 74 75  1  0
 76 75  2  0
 77 76  1  0
 78 52  1  0
 78 79  1  0
 78 88  1  0
 79 82  1  0
 80 84  1  0
 80 79  1  0
 81 80  2  0
 84 83  1  0
 86 87  1  0
 86 84  1  0
 86 85  1  0
 88 91  1  1
 88 89  1  0
 90 88  1  0
M  ISO  4  10 100  11 100  50 101  51 101
M  END
>  <TORSDO>  (57) 
F 21

>  <SCORE>  (57) 
-11.038

>  <name>  (57) 
56

>  <ligand_id>  (57) 
56

>  <original_smiles>  (57) 
[H]c1c(C([H])([H])C([H])([H])C([H])([H])C([H])([H])Oc2c([H])c([H])c3c(c2[H])C([H])([H])N(C(=O)C([H])(N([H])C(=O)C([H])(N([H])C([H])([H])[H])C([H])([H])[H])C(C([H])([H])[H])(C([H])([H])[H])C([H])([H])[H])C([H])(C(=O)N([H])C2([H])c4c([H])c([H])c([H])c([H])c4C([H])([H])C([H])([H])C2([H])[H])C3([H])[H])nc(C([H])([H])[H])nc1C(C(=O)N1C([H])([H])C([H])([H])C([H])([H])C([H])(n2nc(-c3c([H])c([H])c(Oc4c([H])c([H])c(F)c([H])c4F)c([H])c3[H])c(C(=O)N([H])[H])c2N([H])[H])C1([H])[H])(C([H])([H])[H])C([H])([H])[H]

>  <smiles>  (57) 
[H]c1c(C([H])([H])C([H])([H])C([H])([H])C([H])([H])Oc2c([H])c([H])c3c(c2[H])C([H])([H])N(C(=O)C([H])(N([H])C(=O)C([H])(N([H])C([H])([H])[H])C([H])([H])[H])C(C([H])([H])[H])(C([H])([H])[H])C([H])([H])[H])C([H])(C(=O)N([H])C2([H])c4c([H])c([H])c([H])c([H])c4C([H])([H])C([H])([H])C2([H])[H])C3([H])[H])nc(C([H])([H])[H])nc1C(C(=O)N1C([H])([H])C([H])([H])C([H])([H])C([H])(n2nc(-c3c([H])c([H])c(Oc4c([H])c([H])c(F)c([H])c4F)c([H])c3[H])c(C(=O)N([H])[H])c2N([H])[H])C1([H])[H])(C([H])([H])[H])C([H])([H])[H]

$$$$
57:0:0
     RDKit          3D

 94102  0  0  1  0  0  0  0  0999 V2000
  -31.1120  -17.6930   19.9420 C   0  0  0  0  0  3  0  0  0  0  0  0
  -28.7550  -17.5410   19.8070 C   0  0  0  0  0  3  0  0  0  0  0  0
  -29.9630  -16.9140   20.1630 C   0  0  0  0  0  0  0  0  0  0  0  0
  -29.8480  -19.4440   19.1730 C   0  0  0  0  0  0  0  0  0  0  0  0
  -31.0480  -18.9530   19.4660 N   0  0  0  0  0  0  0  0  0  0  0  0
  -28.7050  -18.7930   19.3150 N   0  0  0  0  0  0  0  0  0  0  0  0
  -28.8640  -15.2910   21.7770 C   0  0  0  0  0  1  0  0  0  0  0  0
  -30.0370  -15.4830   20.7760 C   0  0  1  0  0  0  0  0  0  0  0  0
  -30.1530  -14.4440   19.5860 C   0  0  0  0  0  0  0  0  0  0  0  0
  -29.6450  -12.4220   18.2380 C   0  0  0  0  0  2  0  0  0  0  0  0
  -28.4810  -12.6700   17.2550 C   0  0  0  0  0  2  0  0  0  0  0  0
  -27.1150  -12.4250   17.9270 C   0  0  0  0  0  2  0  0  0  0  0  0
  -27.0120  -13.1250   19.3080 C   0  0  0  0  0  3  0  0  0  0  0  0
  -28.2570  -12.7740   20.1470 C   0  0  0  0  0  2  0  0  0  0  0  0
  -29.4480  -13.2720   19.4350 N   0  0  0  0  0  0  0  0  0  0  0  0
  -30.9640  -14.7580   18.7080 O   0  0  0  0  0  0  0  0  0  0  0  0
  -24.7740  -13.5960   20.4880 C   0  0  0  0  0  0  0  0  0  0  0  0
  -23.8120  -12.7610   20.9920 C   0  0  0  0  0  0  0  0  0  0  0  0
  -24.2900  -11.4330   20.7720 C   0  0  0  0  0  0  0  0  0  0  0  0
  -25.7760  -12.7720   20.0000 N   0  0  0  0  0  0  0  0  0  0  0  0
  -25.4970  -11.4620   20.2210 N   0  0  0  0  0  0  0  0  0  0  0  0
  -23.6440  -10.1340   20.9990 C   0  0  0  0  0  0  0  0  0  0  0  0
  -24.2010   -9.1770   21.8740 C   0  0  0  0  0  3  0  0  0  0  0  0
  -23.5540   -7.9410   22.0890 C   0  0  0  0  0  3  0  0  0  0  0  0
  -22.3360   -7.6560   21.4300 C   0  0  0  0  0  0  0  0  0  0  0  0
  -21.7980   -8.6010   20.5390 C   0  0  0  0  0  3  0  0  0  0  0  0
  -22.4460   -9.8290   20.3230 C   0  0  0  0  0  3  0  0  0  0  0  0
  -21.6490   -6.4720   21.5590 O   0  0  0  0  0  0  0  0  0  0  0  0
  -21.6530   -5.7610   22.7320 C   0  0  0  0  0  0  0  0  0  0  0  0
  -21.1880   -6.3210   23.9430 C   0  0  0  0  0  3  0  0  0  0  0  0
  -21.1460   -5.5330   25.1100 C   0  0  0  0  0  3  0  0  0  0  0  0
  -21.5570   -4.1870   25.0680 C   0  0  0  0  0  0  0  0  0  0  0  0
  -22.0140   -3.6270   23.8620 C   0  0  0  0  0  3  0  0  0  0  0  0
  -22.0600   -4.4120   22.6960 C   0  0  0  0  0  0  0  0  0  0  0  0
  -22.4820   -3.8610   21.5330 F   0  0  0  0  0  0  0  0  0  0  0  0
  -21.5090   -3.4290   26.1870 F   0  0  0  0  0  0  0  0  0  0  0  0
  -22.4820  -13.1650   21.5590 C   0  0  0  0  0  0  0  0  0  0  0  0
  -21.9580  -12.3930   22.5040 N   0  0  0  0  0  0  0  0  0  0  0  0
  -21.9210  -14.1990   21.1990 O   0  0  0  0  0  0  0  0  0  0  0  0
  -22.4260  -11.5550   22.8160 H   0  0  0  0  0  0  0  0  0  0  0  0
  -21.0750  -12.6460   22.9260 H   0  0  0  0  0  0  0  0  0  0  0  0
  -24.8710  -14.9800   20.3870 N   0  0  0  0  0  0  0  0  0  0  0  0
  -24.1170  -15.5930   20.6760 H   0  0  0  0  0  0  0  0  0  0  0  0
  -25.6040  -15.4660   19.8890 H   0  0  0  0  0  0  0  0  0  0  0  0
  -31.3200  -15.3460   21.6760 C   0  0  1  0  0  0  0  0  0  0  0  0
  -31.2860  -16.2470   22.6610 F   0  0  0  0  0  0  0  0  0  0  0  0
  -31.3690  -14.1290   22.2270 F   0  0  0  0  0  0  0  0  0  0  0  0
  -32.4820  -15.5120   21.0460 F   0  0  0  0  0  0  0  0  0  0  0  0
  -29.7770  -20.8540   18.5930 C   0  0  0  0  0  2  0  0  0  0  0  0
  -29.3390  -21.9470   19.5940 C   0  0  0  0  0  2  0  0  0  0  0  0
  -29.2880  -23.3470   18.9380 C   0  0  0  0  0  2  0  0  0  0  0  0
  -28.8480  -24.4960   19.8720 C   0  0  0  0  0  2  0  0  0  0  0  0
  -28.9680  -25.8760   19.1920 C   0  0  0  0  0  2  0  0  0  0  0  0
  -28.6840  -26.9380   20.1060 O   0  0  0  0  0  0  0  0  0  0  0  0
  -24.6590  -31.9070   23.2030 C   0  0  0  0  0  0  0  0  0  0  0  0
  -27.4550  -27.5680   20.0990 C   0  0  0  0  0  0  0  0  0  0  0  0
  -23.5070  -30.4970   21.5290 C   0  0  0  0  0  3  0  0  0  0  0  0
  -25.0120  -29.0030   20.1120 C   0  0  0  0  0  0  0  0  0  0  0  0
  -26.0250  -30.9160   21.3670 C   0  0  0  0  0  2  0  0  0  0  0  0
  -26.1480  -29.5530   20.7160 C   0  0  0  0  0  0  0  0  0  0  0  0
  -27.3680  -28.8410   20.7090 C   0  0  0  0  0  3  0  0  0  0  0  0
  -26.2890  -27.0150   19.5190 C   0  0  0  0  0  3  0  0  0  0  0  0
  -25.0760  -27.7320   19.5160 C   0  0  0  0  0  3  0  0  0  0  0  0
  -23.7500  -29.8350   20.1460 C   0  0  0  0  0  2  0  0  0  0  0  0
  -24.7480  -31.1210   22.0920 N   0  0  0  0  0  0  0  0  0  0  0  0
  -23.5650  -32.1490   23.7310 O   0  0  0  0  0  0  0  0  0  0  0  0
  -22.8670  -29.4510   22.4680 C   0  0  0  0  0  0  0  0  0  0  0  0
  -21.5430  -29.2640   22.3410 N   0  0  0  0  0  0  0  0  0  0  0  0
  -23.5570  -28.8110   23.2670 O   0  0  0  0  0  0  0  0  0  0  0  0
  -21.0480  -29.8350   21.6710 H   0  0  0  0  0  0  0  0  0  0  0  0
  -18.1680  -28.0880   22.8670 C   0  0  0  0  0  0  0  0  0  0  0  0
  -20.7330  -28.3050   23.0910 C   0  0  0  0  0  3  0  0  0  0  0  0
  -20.8060  -26.8970   22.4580 C   0  0  0  0  0  2  0  0  0  0  0  0
  -19.6770  -26.6280   21.4560 C   0  0  0  0  0  2  0  0  0  0  0  0
  -18.3130  -26.7640   22.1370 C   0  0  0  0  0  2  0  0  0  0  0  0
  -19.3050  -28.8190   23.3020 C   0  0  0  0  0  0  0  0  0  0  0  0
  -19.1160  -30.0630   23.9450 C   0  0  0  0  0  3  0  0  0  0  0  0
  -17.8220  -30.5730   24.1580 C   0  0  0  0  0  3  0  0  0  0  0  0
  -16.6990  -29.8380   23.7390 C   0  0  0  0  0  3  0  0  0  0  0  0
  -16.8740  -28.5970   23.1000 C   0  0  0  0  0  3  0  0  0  0  0  0
  -25.9240  -32.5590   23.8470 C   0  0  0  0  0  3  0  0  0  0  0  0
  -26.4410  -31.7850   25.1210 C   0  0  1  0  0  0  0  0  0  0  0  0
  -25.3360  -31.4840   26.1600 C   0  0  0  0  0  1  0  0  0  0  0  0
  -27.0850  -30.4390   24.7160 C   0  0  0  0  0  1  0  0  0  0  0  0
  -27.5450  -32.6110   25.8230 C   0  0  0  0  0  1  0  0  0  0  0  0
  -25.5810  -33.9460   24.1840 N   0  0  0  0  0  0  0  0  0  0  0  0
  -25.9030  -35.0110   23.4370 C   0  0  0  0  0  0  0  0  0  0  0  0
  -26.5920  -34.9300   22.4160 O   0  0  0  0  0  0  0  0  0  0  0  0
  -24.9720  -34.0830   24.9770 H   0  0  0  0  0  0  0  0  0  0  0  0
  -24.1450  -36.7700   23.0640 C   0  0  0  0  0  1  0  0  0  0  0  0
  -25.3790  -36.3850   23.8960 C   0  0  0  0  0  3  0  0  0  0  0  0
  -27.4790  -37.3060   24.7740 C   0  0  0  0  0  1  0  0  0  0  0  0
  -26.3910  -37.4600   23.8110 N   0  0  0  0  0  0  0  0  0  0  0  0
  -25.9650  -38.3700   23.9580 H   0  0  0  0  0  0  0  0  0  0  0  0
  1  3  2  0
  2  3  1  0
  3  8  1  0
  4  6  1  0
  4  5  2  0
  5  1  1  0
  6  2  2  0
  8 45  1  0
  8  7  1  1
  9  8  1  0
 10 15  1  0
 11 12  1  0
 11 10  1  0
 13 12  1  0
 13 20  1  0
 13 14  1  0
 15  9  1  0
 15 14  1  0
 16  9  2  0
 17 18  2  0
 18 37  1  0
 19 18  1  0
 19 22  1  0
 20 21  1  0
 20 17  1  0
 21 19  2  0
 22 23  1  0
 23 24  2  0
 25 28  1  0
 25 24  1  0
 26 25  2  0
 27 26  1  0
 27 22  2  0
 28 29  1  0
 29 30  1  0
 30 31  2  0
 32 31  1  0
 32 36  1  0
 33 32  2  0
 34 29  2  0
 34 33  1  0
 35 34  1  0
 37 38  1  0
 38 40  1  0
 38 41  1  0
 39 37  2  0
 42 17  1  0
 42 43  1  0
 44 42  1  0
 45 47  1  1
 45 46  1  0
 48 45  1  0
 49  4  1  0
 49 50  1  0
 51 50  1  0
 51 52  1  0
 53 52  1  0
 53 54  1  0
 55 66  2  0
 56 54  1  0
 56 61  1  0
 57 65  1  0
 57 67  1  0
 58 64  1  0
 58 60  1  0
 59 65  1  0
 60 59  1  0
 61 60  2  0
 62 56  2  0
 63 62  1  0
 63 58  2  0
 64 57  1  0
 65 55  1  0
 67 69  2  0
 68 67  1  0
 70 68  1  0
 71 80  2  0
 71 76  1  0
 72 68  1  0
 72 76  1  0
 73 72  1  0
 74 75  1  0
 74 73  1  0
 75 71  1  0
 76 77  2  0
 77 78  1  0
 79 78  2  0
 80 79  1  0
 81 55  1  0
 81 86  1  0
 81 82  1  0
 82 85  1  1
 82 83  1  0
 84 82  1  0
 86 89  1  0
 87 91  1  0
 87 86  1  0
 88 87  2  0
 91 90  1  0
 93 91  1  0
 93 94  1  0
 93 92  1  0
M  ISO  4   8 100   9 100  53 101  54 101
M  END
>  <TORSDO>  (58) 
F 23

>  <SCORE>  (58) 
-10.267

>  <name>  (58) 
57

>  <ligand_id>  (58) 
57

>  <original_smiles>  (58) 
[H]c1nc(C([H])([H])C([H])([H])C([H])([H])C([H])([H])C([H])([H])Oc2c([H])c([H])c3c(c2[H])C([H])([H])N(C(=O)C([H])(N([H])C(=O)C([H])(N([H])C([H])([H])[H])C([H])([H])[H])C(C([H])([H])[H])(C([H])([H])[H])C([H])([H])[H])C([H])(C(=O)N([H])C2([H])c4c([H])c([H])c([H])c([H])c4C([H])([H])C([H])([H])C2([H])[H])C3([H])[H])nc([H])c1C(C(=O)N1C([H])([H])C([H])([H])C([H])([H])C([H])(n2nc(-c3c([H])c([H])c(Oc4c([H])c([H])c(F)c([H])c4F)c([H])c3[H])c(C(=O)N([H])[H])c2N([H])[H])C1([H])[H])(C([H])([H])[H])C(F)(F)F

>  <smiles>  (58) 
[H]c1nc(C([H])([H])C([H])([H])C([H])([H])C([H])([H])C([H])([H])Oc2c([H])c([H])c3c(c2[H])C([H])([H])N(C(=O)C([H])(N([H])C(=O)C([H])(N([H])C([H])([H])[H])C([H])([H])[H])C(C([H])([H])[H])(C([H])([H])[H])C([H])([H])[H])C([H])(C(=O)N([H])C2([H])c4c([H])c([H])c([H])c([H])c4C([H])([H])C([H])([H])C2([H])[H])C3([H])[H])nc([H])c1C(C(=O)N1C([H])([H])C([H])([H])C([H])([H])C([H])(n2nc(-c3c([H])c([H])c(Oc4c([H])c([H])c(F)c([H])c4F)c([H])c3[H])c(C(=O)N([H])[H])c2N([H])[H])C1([H])[H])(C([H])([H])[H])C(F)(F)F

$$$$
58:0:0
     RDKit          3D

 94102  0  0  1  0  0  0  0  0999 V2000
  -29.9150  -17.5190   19.7990 C   0  0  0  0  0  0  0  0  0  0  0  0
  -29.3370  -19.5560   19.1150 C   0  0  0  0  0  0  0  0  0  0  0  0
  -29.4890  -17.4070   18.5380 N   0  0  0  0  0  0  0  0  0  0  0  0
  -29.1170  -18.6750   18.1170 N   0  0  0  0  0  0  0  0  0  0  0  0
  -29.8570  -18.8680   20.1930 N   0  0  0  0  0  0  0  0  0  0  0  0
  -28.8080  -21.4710   17.5200 C   0  0  0  0  0  1  0  0  0  0  0  0
  -27.2560  -20.9300   19.3950 C   0  0  0  0  0  1  0  0  0  0  0  0
  -28.7450  -21.0570   19.0150 C   0  0  1  0  0  0  0  0  0  0  0  0
  -29.3400  -22.3640   19.8090 C   0  0  0  0  0  2  0  0  0  0  0  0
  -28.8090  -23.8830   19.4580 C   0  0  0  0  0  2  0  0  0  0  0  0
  -28.9030  -25.1170   20.5100 C   0  0  0  0  0  2  0  0  0  0  0  0
  -28.8980  -26.5760   20.1510 O   0  0  0  0  0  0  0  0  0  0  0  0
  -24.7530  -31.7090   23.2550 C   0  0  0  0  0  0  0  0  0  0  0  0
  -27.7310  -27.3620   20.1770 C   0  0  0  0  0  0  0  0  0  0  0  0
  -23.7040  -30.3100   21.5140 C   0  0  0  0  0  3  0  0  0  0  0  0
  -25.2950  -28.8760   20.1120 C   0  0  0  0  0  0  0  0  0  0  0  0
  -26.2330  -30.7530   21.4640 C   0  0  0  0  0  2  0  0  0  0  0  0
  -26.4130  -29.4000   20.7720 C   0  0  0  0  0  0  0  0  0  0  0  0
  -27.6400  -28.6620   20.7810 C   0  0  0  0  0  3  0  0  0  0  0  0
  -26.5820  -26.8840   19.5180 C   0  0  0  0  0  3  0  0  0  0  0  0
  -25.3830  -27.6280   19.4720 C   0  0  0  0  0  3  0  0  0  0  0  0
  -24.0160  -29.6930   20.1250 C   0  0  0  0  0  2  0  0  0  0  0  0
  -24.9110  -30.9430   22.1350 N   0  0  0  0  0  0  0  0  0  0  0  0
  -23.6310  -31.9130   23.7420 O   0  0  0  0  0  0  0  0  0  0  0  0
  -23.0460  -29.2320   22.4080 C   0  0  0  0  0  0  0  0  0  0  0  0
  -21.7340  -29.0070   22.2230 N   0  0  0  0  0  0  0  0  0  0  0  0
  -23.7180  -28.5990   23.2270 O   0  0  0  0  0  0  0  0  0  0  0  0
  -21.2500  -29.5680   21.5360 H   0  0  0  0  0  0  0  0  0  0  0  0
  -18.3790  -27.7010   22.5980 C   0  0  0  0  0  0  0  0  0  0  0  0
  -20.9270  -28.0080   22.9230 C   0  0  0  0  0  3  0  0  0  0  0  0
  -21.0740  -26.6170   22.2660 C   0  0  0  0  0  2  0  0  0  0  0  0
  -19.9960  -26.3270   21.2170 C   0  0  0  0  0  2  0  0  0  0  0  0
  -18.6010  -26.3990   21.8440 C   0  0  0  0  0  2  0  0  0  0  0  0
  -19.4730  -28.4640   23.0890 C   0  0  0  0  0  0  0  0  0  0  0  0
  -19.2120  -29.6810   23.7550 C   0  0  0  0  0  3  0  0  0  0  0  0
  -17.8920  -30.1380   23.9310 C   0  0  0  0  0  3  0  0  0  0  0  0
  -16.8140  -29.3730   23.4540 C   0  0  0  0  0  3  0  0  0  0  0  0
  -17.0590  -28.1550   22.7960 C   0  0  0  0  0  3  0  0  0  0  0  0
  -25.9660  -32.3860   23.9620 C   0  0  0  0  0  3  0  0  0  0  0  0
  -25.6000  -33.7840   24.2400 N   0  0  0  0  0  0  0  0  0  0  0  0
  -25.9550  -34.8300   23.4820 C   0  0  0  0  0  0  0  0  0  0  0  0
  -26.6920  -34.7230   22.4980 O   0  0  0  0  0  0  0  0  0  0  0  0
  -24.9540  -33.9400   24.9990 H   0  0  0  0  0  0  0  0  0  0  0  0
  -24.2070  -36.5700   22.9840 C   0  0  0  0  0  1  0  0  0  0  0  0
  -25.4070  -36.2150   23.8780 C   0  0  0  0  0  3  0  0  0  0  0  0
  -27.4520  -37.1840   24.8300 C   0  0  0  0  0  1  0  0  0  0  0  0
  -26.4180  -37.2920   23.8050 N   0  0  0  0  0  0  0  0  0  0  0  0
  -25.9790  -38.2050   23.8940 H   0  0  0  0  0  0  0  0  0  0  0  0
  -26.3980  -31.6540   25.2910 C   0  0  1  0  0  0  0  0  0  0  0  0
  -25.2320  -31.4040   26.2760 C   0  0  0  0  0  1  0  0  0  0  0  0
  -27.0440  -30.2850   24.9780 C   0  0  0  0  0  1  0  0  0  0  0  0
  -27.4710  -32.4940   26.0240 C   0  0  0  0  0  1  0  0  0  0  0  0
  -29.0840  -16.0360   21.6600 C   0  0  0  0  0  1  0  0  0  0  0  0
  -31.5060  -16.5500   21.5880 C   0  0  0  0  0  1  0  0  0  0  0  0
  -30.2710  -16.2430   20.7000 C   0  0  2  0  0  0  0  0  0  0  0  0
  -30.7210  -14.8550   19.9360 C   0  0  0  0  0  0  0  0  0  0  0  0
  -30.4710  -12.5710   18.9090 C   0  0  0  0  0  2  0  0  0  0  0  0
  -29.4460  -12.6200   17.7520 C   0  0  0  0  0  2  0  0  0  0  0  0
  -27.9990  -12.4590   18.2630 C   0  0  0  0  0  2  0  0  0  0  0  0
  -27.7160  -13.3180   19.5230 C   0  0  0  0  0  3  0  0  0  0  0  0
  -28.8500  -13.1510   20.5520 C   0  0  0  0  0  2  0  0  0  0  0  0
  -30.0910  -13.6120   19.9070 N   0  0  0  0  0  0  0  0  0  0  0  0
  -31.8000  -14.9200   19.3340 O   0  0  0  0  0  0  0  0  0  0  0  0
  -25.3890  -13.9210   20.4200 C   0  0  0  0  0  0  0  0  0  0  0  0
  -24.3380  -13.1510   20.8440 C   0  0  0  0  0  0  0  0  0  0  0  0
  -24.7750  -11.7970   20.7400 C   0  0  0  0  0  0  0  0  0  0  0  0
  -26.4000  -13.0340   20.0940 N   0  0  0  0  0  0  0  0  0  0  0  0
  -26.0380  -11.7480   20.3390 N   0  0  0  0  0  0  0  0  0  0  0  0
  -24.0400  -10.5410   20.9460 C   0  0  0  0  0  0  0  0  0  0  0  0
  -24.4970   -9.5550   21.8480 C   0  0  0  0  0  3  0  0  0  0  0  0
  -23.7650   -8.3630   22.0380 C   0  0  0  0  0  3  0  0  0  0  0  0
  -22.5620   -8.1470   21.3260 C   0  0  0  0  0  0  0  0  0  0  0  0
  -22.1280   -9.1190   20.4050 C   0  0  0  0  0  3  0  0  0  0  0  0
  -22.8600  -10.3030   20.2140 C   0  0  0  0  0  3  0  0  0  0  0  0
  -21.7960   -7.0110   21.4300 O   0  0  0  0  0  0  0  0  0  0  0  0
  -21.7590   -6.2710   22.5860 C   0  0  0  0  0  0  0  0  0  0  0  0
  -21.3090   -6.8180   23.8070 C   0  0  0  0  0  3  0  0  0  0  0  0
  -21.2240   -6.0040   24.9550 C   0  0  0  0  0  3  0  0  0  0  0  0
  -21.5760   -4.6420   24.8800 C   0  0  0  0  0  0  0  0  0  0  0  0
  -22.0190   -4.0950   23.6640 C   0  0  0  0  0  3  0  0  0  0  0  0
  -22.1100   -4.9070   22.5200 C   0  0  0  0  0  0  0  0  0  0  0  0
  -22.5160   -4.3690   21.3450 F   0  0  0  0  0  0  0  0  0  0  0  0
  -21.4860   -3.8560   25.9790 F   0  0  0  0  0  0  0  0  0  0  0  0
  -22.9720  -13.6400   21.2330 C   0  0  0  0  0  0  0  0  0  0  0  0
  -22.3030  -12.9210   22.1330 N   0  0  0  0  0  0  0  0  0  0  0  0
  -22.5100  -14.6860   20.7820 O   0  0  0  0  0  0  0  0  0  0  0  0
  -22.6920  -12.0750   22.5200 H   0  0  0  0  0  0  0  0  0  0  0  0
  -21.3860  -13.2170   22.4380 H   0  0  0  0  0  0  0  0  0  0  0  0
  -25.5630  -15.2930   20.2630 N   0  0  0  0  0  0  0  0  0  0  0  0
  -24.8170  -15.9640   20.4090 H   0  0  0  0  0  0  0  0  0  0  0  0
  -26.3910  -15.7130   19.8580 H   0  0  0  0  0  0  0  0  0  0  0  0
  -30.2490  -19.4950   21.4450 C   0  0  0  0  0  2  0  0  0  0  0  0
  -32.3100  -20.4510   22.6620 C   0  0  0  0  0  1  0  0  0  0  0  0
  -31.6900  -20.0260   21.3290 C   0  0  0  0  0  2  0  0  0  0  0  0
  1  5  1  0
  1 55  1  0
  2  5  1  0
  3  1  2  0
  4  3  1  0
  4  2  2  0
  5 92  1  0
  8  6  1  6
  8  2  1  0
  8  7  1  0
  8  9  1  0
 10  9  1  0
 10 11  1  0
 12 14  1  0
 12 11  1  0
 13 24  2  0
 14 19  1  0
 15 23  1  0
 15 25  1  0
 16 22  1  0
 16 18  1  0
 17 23  1  0
 18 19  2  0
 18 17  1  0
 20 14  2  0
 21 20  1  0
 21 16  2  0
 22 15  1  0
 23 13  1  0
 25 27  2  0
 26 25  1  0
 28 26  1  0
 29 38  2  0
 29 34  1  0
 30 26  1  0
 30 34  1  0
 31 30  1  0
 32 33  1  0
 32 31  1  0
 33 29  1  0
 34 35  2  0
 35 36  1  0
 37 36  2  0
 38 37  1  0
 39 13  1  0
 39 40  1  0
 39 49  1  0
 40 43  1  0
 41 45  1  0
 41 40  1  0
 42 41  2  0
 45 44  1  0
 47 45  1  0
 47 48  1  0
 47 46  1  0
 49 52  1  1
 49 50  1  0
 51 49  1  0
 55 54  1  1
 55 53  1  0
 56 55  1  0
 57 62  1  0
 58 59  1  0
 58 57  1  0
 60 59  1  0
 60 67  1  0
 60 61  1  0
 62 56  1  0
 62 61  1  0
 63 56  2  0
 64 65  2  0
 65 84  1  0
 66 65  1  0
 66 69  1  0
 67 68  1  0
 67 64  1  0
 68 66  2  0
 69 70  1  0
 70 71  2  0
 72 75  1  0
 72 71  1  0
 73 72  2  0
 74 73  1  0
 74 69  2  0
 75 76  1  0
 76 77  1  0
 77 78  2  0
 79 78  1  0
 79 83  1  0
 80 79  2  0
 81 76  2  0
 81 80  1  0
 82 81  1  0
 84 85  1  0
 85 88  1  0
 85 87  1  0
 86 84  2  0
 89 90  1  0
 89 64  1  0
 91 89  1  0
 94 92  1  0
 94 93  1  0
M  ISO  4  11 101  12 101  55 100  56 100
M  END
>  <TORSDO>  (59) 
F 23

>  <SCORE>  (59) 
-11.872

>  <name>  (59) 
58

>  <ligand_id>  (59) 
58

>  <original_smiles>  (59) 
[H]c1c([H])c([H])c2c(c1[H])C([H])([H])C([H])([H])C([H])([H])C2([H])N([H])C(=O)C1([H])N(C(=O)C([H])(N([H])C(=O)C([H])(N([H])C([H])([H])[H])C([H])([H])[H])C(C([H])([H])[H])(C([H])([H])[H])C([H])([H])[H])C([H])([H])c2c([H])c(OC([H])([H])C([H])([H])C([H])([H])C(c3nnc(C(C(=O)N4C([H])([H])C([H])([H])C([H])([H])C([H])(n5nc(-c6c([H])c([H])c(Oc7c([H])c([H])c(F)c([H])c7F)c([H])c6[H])c(C(=O)N([H])[H])c5N([H])[H])C4([H])[H])(C([H])([H])[H])C([H])([H])[H])n3C([H])([H])C([H])([H])C([H])([H])[H])(C([H])([H])[H])C([H])([H])[H])c([H])c([H])c2C1([H])[H]

>  <smiles>  (59) 
[H]c1c([H])c([H])c2c(c1[H])C([H])([H])C([H])([H])C([H])([H])C2([H])N([H])C(=O)C1([H])N(C(=O)C([H])(N([H])C(=O)C([H])(N([H])C([H])([H])[H])C([H])([H])[H])C(C([H])([H])[H])(C([H])([H])[H])C([H])([H])[H])C([H])([H])c2c([H])c(OC([H])([H])C([H])([H])C([H])([H])C(c3nnc(C(C(=O)N4C([H])([H])C([H])([H])C([H])([H])C([H])(n5nc(-c6c([H])c([H])c(Oc7c([H])c([H])c(F)c([H])c7F)c([H])c6[H])c(C(=O)N([H])[H])c5N([H])[H])C4([H])[H])(C([H])([H])[H])C([H])([H])[H])n3C([H])([H])C([H])([H])C([H])([H])[H])(C([H])([H])[H])C([H])([H])[H])c([H])c([H])c2C1([H])[H]

$$$$
59:0:0
     RDKit          3D

 94102  0  0  1  0  0  0  0  0999 V2000
  -29.8580  -22.8580   21.6310 C   0  0  0  0  0  2  0  0  0  0  0  0
  -28.9840  -24.1370   21.6900 C   0  0  0  0  0  2  0  0  0  0  0  0
  -30.9210  -25.7210   22.2440 C   0  0  0  0  0  1  0  0  0  0  0  0
  -29.7430  -25.4380   21.2980 C   0  0  1  0  0  0  0  0  0  0  0  0
  -30.2670  -25.2750   20.0820 F   0  0  0  0  0  0  0  0  0  0  0  0
  -28.8210  -26.6800   21.2370 C   0  0  0  0  0  2  0  0  0  0  0  0
  -27.9860  -26.6410   20.0780 O   0  0  0  0  0  0  0  0  0  0  0  0
  -24.4340  -31.9610   23.2100 C   0  0  0  0  0  0  0  0  0  0  0  0
  -26.8830  -27.4620   20.1010 C   0  0  0  0  0  0  0  0  0  0  0  0
  -23.1470  -30.5870   21.6030 C   0  0  0  0  0  3  0  0  0  0  0  0
  -24.5270  -29.0100   20.1440 C   0  0  0  0  0  0  0  0  0  0  0  0
  -25.6650  -30.8910   21.3330 C   0  0  0  0  0  2  0  0  0  0  0  0
  -25.7030  -29.5120   20.7120 C   0  0  0  0  0  0  0  0  0  0  0  0
  -26.8850  -28.7430   20.7040 C   0  0  0  0  0  3  0  0  0  0  0  0
  -25.7010  -26.9820   19.5030 C   0  0  0  0  0  3  0  0  0  0  0  0
  -24.5170  -27.7420   19.5350 C   0  0  0  0  0  3  0  0  0  0  0  0
  -23.3040  -29.8980   20.2180 C   0  0  0  0  0  2  0  0  0  0  0  0
  -24.4350  -31.1610   22.1070 N   0  0  0  0  0  0  0  0  0  0  0  0
  -23.3780  -32.2630   23.7830 O   0  0  0  0  0  0  0  0  0  0  0  0
  -22.4990  -29.5880   22.5880 C   0  0  0  0  0  0  0  0  0  0  0  0
  -21.1700  -29.4230   22.4870 N   0  0  0  0  0  0  0  0  0  0  0  0
  -23.1870  -28.9630   23.4010 O   0  0  0  0  0  0  0  0  0  0  0  0
  -20.6720  -29.9900   21.8160 H   0  0  0  0  0  0  0  0  0  0  0  0
  -17.7980  -28.2440   23.0150 C   0  0  0  0  0  0  0  0  0  0  0  0
  -20.3550  -28.5030   23.2790 C   0  0  0  0  0  3  0  0  0  0  0  0
  -20.4520  -27.0590   22.7370 C   0  0  0  0  0  2  0  0  0  0  0  0
  -19.3510  -26.7150   21.7300 C   0  0  0  0  0  2  0  0  0  0  0  0
  -17.9700  -26.8760   22.3710 C   0  0  0  0  0  2  0  0  0  0  0  0
  -18.9180  -29.0130   23.4280 C   0  0  0  0  0  0  0  0  0  0  0  0
  -18.7040  -30.2900   23.9900 C   0  0  0  0  0  3  0  0  0  0  0  0
  -17.4000  -30.7990   24.1430 C   0  0  0  0  0  3  0  0  0  0  0  0
  -16.2940  -30.0280   23.7450 C   0  0  0  0  0  3  0  0  0  0  0  0
  -16.4930  -28.7530   23.1870 C   0  0  0  0  0  3  0  0  0  0  0  0
  -25.7550  -32.5580   23.7890 C   0  0  0  0  0  3  0  0  0  0  0  0
  -25.4880  -33.9580   24.1410 N   0  0  0  0  0  0  0  0  0  0  0  0
  -25.8540  -35.0130   23.4000 C   0  0  0  0  0  0  0  0  0  0  0  0
  -26.5240  -34.9070   22.3680 O   0  0  0  0  0  0  0  0  0  0  0  0
  -24.8810  -34.1140   24.9330 H   0  0  0  0  0  0  0  0  0  0  0  0
  -24.1930  -36.8740   23.0700 C   0  0  0  0  0  1  0  0  0  0  0  0
  -25.4120  -36.4070   23.8810 C   0  0  0  0  0  3  0  0  0  0  0  0
  -27.5730  -37.2000   24.7380 C   0  0  0  0  0  1  0  0  0  0  0  0
  -26.4770  -37.4270   23.7960 N   0  0  0  0  0  0  0  0  0  0  0  0
  -26.0990  -38.3540   23.9660 H   0  0  0  0  0  0  0  0  0  0  0  0
  -26.3050  -31.7570   25.0340 C   0  0  1  0  0  0  0  0  0  0  0  0
  -25.2480  -31.5240   26.1400 C   0  0  0  0  0  1  0  0  0  0  0  0
  -26.8400  -30.3750   24.5900 C   0  0  0  0  0  1  0  0  0  0  0  0
  -27.4940  -32.5190   25.6600 C   0  0  0  0  0  1  0  0  0  0  0  0
  -29.1310  -21.5020   21.8200 C   0  0  0  0  0  2  0  0  0  0  0  0
  -30.0250  -20.3550   21.4940 N   0  0  0  0  0  4  0  0  0  0  0  0
  -30.1500  -20.3280   20.4950 H   0  0  0  0  0  0  0  0  0  0  0  0
  -30.9350  -20.5090   21.8960 H   0  0  0  0  0  0  0  0  0  0  0  0
  -29.5800  -19.0050   21.9260 C   0  0  0  0  0  2  0  0  0  0  0  0
  -29.7910  -16.2910   18.6930 C   0  0  0  0  0  3  0  0  0  0  0  0
  -29.0020  -18.2520   19.5780 C   0  0  0  0  0  3  0  0  0  0  0  0
  -30.3850  -15.9200   19.9240 C   0  0  0  0  0  0  0  0  0  0  0  0
  -29.6620  -17.9710   20.7970 C   0  0  0  0  0  0  0  0  0  0  0  0
  -29.0680  -17.4210   18.5200 N   0  0  0  0  0  0  0  0  0  0  0  0
  -30.3460  -16.7940   20.9840 N   0  0  0  0  0  0  0  0  0  0  0  0
  -31.1880  -14.6190   19.9460 C   0  0  0  0  0  0  0  0  0  0  0  0
  -30.8240  -12.3870   18.9710 C   0  0  0  0  0  2  0  0  0  0  0  0
  -29.8370  -12.5400   17.7920 C   0  0  0  0  0  2  0  0  0  0  0  0
  -28.3730  -12.4550   18.2780 C   0  0  0  0  0  2  0  0  0  0  0  0
  -28.0870  -13.3570   19.5080 C   0  0  0  0  0  3  0  0  0  0  0  0
  -29.1920  -13.2290   20.5830 C   0  0  0  0  0  2  0  0  0  0  0  0
  -30.4980  -13.4410   19.9470 N   0  0  0  0  0  0  0  0  0  0  0  0
  -32.3720  -14.6880   19.6090 O   0  0  0  0  0  0  0  0  0  0  0  0
  -25.7840  -14.0800   20.3810 C   0  0  0  0  0  0  0  0  0  0  0  0
  -24.6930  -13.3580   20.7860 C   0  0  0  0  0  0  0  0  0  0  0  0
  -25.0730  -11.9850   20.6890 C   0  0  0  0  0  0  0  0  0  0  0  0
  -26.7560  -13.1430   20.0610 N   0  0  0  0  0  0  0  0  0  0  0  0
  -26.3380  -11.8780   20.3060 N   0  0  0  0  0  0  0  0  0  0  0  0
  -24.2860  -10.7610   20.8860 C   0  0  0  0  0  0  0  0  0  0  0  0
  -24.6750   -9.7770   21.8200 C   0  0  0  0  0  3  0  0  0  0  0  0
  -23.8920   -8.6170   22.0020 C   0  0  0  0  0  3  0  0  0  0  0  0
  -22.7060   -8.4360   21.2510 C   0  0  0  0  0  0  0  0  0  0  0  0
  -22.3390   -9.4090   20.3040 C   0  0  0  0  0  3  0  0  0  0  0  0
  -23.1220  -10.5590   20.1190 C   0  0  0  0  0  3  0  0  0  0  0  0
  -21.8980   -7.3290   21.3430 O   0  0  0  0  0  0  0  0  0  0  0  0
  -21.7630   -6.6340   22.5180 C   0  0  0  0  0  0  0  0  0  0  0  0
  -21.2970   -7.2510   23.7000 C   0  0  0  0  0  3  0  0  0  0  0  0
  -21.0970   -6.4840   24.8640 C   0  0  0  0  0  3  0  0  0  0  0  0
  -21.3590   -5.1010   24.8520 C   0  0  0  0  0  0  0  0  0  0  0  0
  -21.8230   -4.4840   23.6760 C   0  0  0  0  0  3  0  0  0  0  0  0
  -22.0190   -5.2490   22.5120 C   0  0  0  0  0  0  0  0  0  0  0  0
  -22.4430   -4.6450   21.3760 F   0  0  0  0  0  0  0  0  0  0  0  0
  -21.1640   -4.3620   25.9690 F   0  0  0  0  0  0  0  0  0  0  0  0
  -23.3430  -13.9060   21.1470 C   0  0  0  0  0  0  0  0  0  0  0  0
  -22.6300  -13.2280   22.0420 N   0  0  0  0  0  0  0  0  0  0  0  0
  -22.9340  -14.9660   20.6750 O   0  0  0  0  0  0  0  0  0  0  0  0
  -22.9770  -12.3650   22.4360 H   0  0  0  0  0  0  0  0  0  0  0  0
  -21.7260  -13.5700   22.3340 H   0  0  0  0  0  0  0  0  0  0  0  0
  -26.0140  -15.4430   20.2370 N   0  0  0  0  0  0  0  0  0  0  0  0
  -25.2830  -16.1240   20.4100 H   0  0  0  0  0  0  0  0  0  0  0  0
  -26.8460  -15.8550   19.8340 H   0  0  0  0  0  0  0  0  0  0  0  0
  1  2  1  0
  1 48  1  0
  4  2  1  0
  4  3  1  1
  5  4  1  0
  6  4  1  0
  7  9  1  0
  7  6  1  0
  8 19  2  0
  9 14  1  0
 10 18  1  0
 10 20  1  0
 11 17  1  0
 11 13  1  0
 12 18  1  0
 13 12  1  0
 14 13  2  0
 15 16  1  0
 15  9  2  0
 16 11  2  0
 17 10  1  0
 18  8  1  0
 20 22  2  0
 21 20  1  0
 23 21  1  0
 24 33  2  0
 24 29  1  0
 25 21  1  0
 25 29  1  0
 26 25  1  0
 27 28  1  0
 27 26  1  0
 28 24  1  0
 29 30  2  0
 30 31  1  0
 32 31  2  0
 33 32  1  0
 34  8  1  0
 34 35  1  0
 34 44  1  0
 35 38  1  0
 36 40  1  0
 36 35  1  0
 37 36  2  0
 40 39  1  0
 42 40  1  0
 42 43  1  0
 42 41  1  0
 44 47  1  1
 44 45  1  0
 46 44  1  0
 49 48  1  0
 49 51  1  0
 49 52  1  0
 50 49  1  0
 53 55  1  0
 54 56  2  0
 55 59  1  0
 55 58  2  0
 56 58  1  0
 56 52  1  0
 57 53  2  0
 57 54  1  0
 59 65  1  0
 60 65  1  0
 61 62  1  0
 61 60  1  0
 63 62  1  0
 63 70  1  0
 63 64  1  0
 65 64  1  0
 66 59  2  0
 67 68  2  0
 68 87  1  0
 69 68  1  0
 69 72  1  0
 70 71  1  0
 70 67  1  0
 71 69  2  0
 72 73  1  0
 73 74  2  0
 75 78  1  0
 75 74  1  0
 76 75  2  0
 77 76  1  0
 77 72  2  0
 78 79  1  0
 79 80  1  0
 80 81  2  0
 82 81  1  0
 82 86  1  0
 83 82  2  0
 84 79  2  0
 84 83  1  0
 85 84  1  0
 87 88  1  0
 88 91  1  0
 88 90  1  0
 89 87  2  0
 92 67  1  0
 92 93  1  0
 94 92  1  0
M  ISO  4   6 101   7 101  55 100  59 100
M  END
>  <TORSDO>  (60) 
F 23

>  <SCORE>  (60) 
-11.171

>  <name>  (60) 
59

>  <ligand_id>  (60) 
59

>  <original_smiles>  (60) 
[H]c1nc([H])c(C([H])([H])[N+]([H])([H])C([H])([H])C([H])([H])C([H])([H])C(F)(C([H])([H])[H])C([H])([H])Oc2c([H])c([H])c3c(c2[H])C([H])([H])N(C(=O)C([H])(N([H])C(=O)C([H])(N([H])C([H])([H])[H])C([H])([H])[H])C(C([H])([H])[H])(C([H])([H])[H])C([H])([H])[H])C([H])(C(=O)N([H])C2([H])c4c([H])c([H])c([H])c([H])c4C([H])([H])C([H])([H])C2([H])[H])C3([H])[H])nc1C(=O)N1C([H])([H])C([H])([H])C([H])([H])C([H])(n2nc(-c3c([H])c([H])c(Oc4c([H])c([H])c(F)c([H])c4F)c([H])c3[H])c(C(=O)N([H])[H])c2N([H])[H])C1([H])[H]

>  <smiles>  (60) 
[H]c1nc([H])c(C([H])([H])[N+]([H])([H])C([H])([H])C([H])([H])C([H])([H])C(F)(C([H])([H])[H])C([H])([H])Oc2c([H])c([H])c3c(c2[H])C([H])([H])N(C(=O)C([H])(N([H])C(=O)C([H])(N([H])C([H])([H])[H])C([H])([H])[H])C(C([H])([H])[H])(C([H])([H])[H])C([H])([H])[H])C([H])(C(=O)N([H])C2([H])c4c([H])c([H])c([H])c([H])c4C([H])([H])C([H])([H])C2([H])[H])C3([H])[H])nc1C(=O)N1C([H])([H])C([H])([H])C([H])([H])C([H])(n2nc(-c3c([H])c([H])c(Oc4c([H])c([H])c(F)c([H])c4F)c([H])c3[H])c(C(=O)N([H])[H])c2N([H])[H])C1([H])[H]

$$$$
60:0:0
     RDKit          3D

 92100  0  0  1  0  0  0  0  0999 V2000
  -27.6750  -21.1230   20.1730 C   0  0  0  0  0  2  0  0  0  0  0  0
  -28.1320  -17.8370   18.6850 C   0  0  0  0  0  3  0  0  0  0  0  0
  -28.8150  -17.7730   19.9280 C   0  0  0  0  0  0  0  0  0  0  0  0
  -27.6550  -19.1120   18.6120 C   0  0  0  0  0  0  0  0  0  0  0  0
  -26.8250  -19.7600   17.5520 C   0  0  0  0  0  1  0  0  0  0  0  0
  -28.7710  -18.9390   20.5740 N   0  0  0  0  0  0  0  0  0  0  0  0
  -28.0540  -19.7670   19.7660 N   0  0  0  0  0  0  0  0  0  0  0  0
  -29.4750  -16.5480   20.5210 C   0  0  0  0  0  2  0  0  0  0  0  0
  -30.5290  -15.8870   19.5990 C   0  0  0  0  0  2  0  0  0  0  0  0
  -31.6160  -13.7240   19.5010 C   0  0  0  0  0  0  0  0  0  0  0  0
  -31.0840  -11.3800   18.9270 C   0  0  0  0  0  2  0  0  0  0  0  0
  -30.0800  -11.3040   17.7630 C   0  0  0  0  0  2  0  0  0  0  0  0
  -28.6350  -11.3690   18.2900 C   0  0  0  0  0  2  0  0  0  0  0  0
  -28.4170  -12.5480   19.2750 C   0  0  0  0  0  3  0  0  0  0  0  0
  -29.5250  -12.5870   20.3510 C   0  0  0  0  0  2  0  0  0  0  0  0
  -30.8330  -12.6250   19.6740 N   0  0  0  0  0  0  0  0  0  0  0  0
  -32.6180  -13.7230   18.7770 O   0  0  0  0  0  0  0  0  0  0  0  0
  -32.3670  -15.3040   21.1410 C   0  0  0  0  0  1  0  0  0  0  0  0
  -31.3120  -14.8120   20.2480 N   0  0  0  0  0  0  0  0  0  0  0  0
  -26.2350  -13.5450   20.2050 C   0  0  0  0  0  0  0  0  0  0  0  0
  -25.0860  -12.9640   20.6680 C   0  0  0  0  0  0  0  0  0  0  0  0
  -25.2970  -11.5540   20.5790 C   0  0  0  0  0  0  0  0  0  0  0  0
  -27.0850  -12.5020   19.8730 N   0  0  0  0  0  0  0  0  0  0  0  0
  -26.5260  -11.2970   20.1520 N   0  0  0  0  0  0  0  0  0  0  0  0
  -24.3780  -10.4340   20.8200 C   0  0  0  0  0  0  0  0  0  0  0  0
  -24.6990   -9.3980   21.7260 C   0  0  0  0  0  3  0  0  0  0  0  0
  -23.7910   -8.3410   21.9550 C   0  0  0  0  0  3  0  0  0  0  0  0
  -22.5490   -8.3140   21.2780 C   0  0  0  0  0  0  0  0  0  0  0  0
  -22.2450   -9.3350   20.3610 C   0  0  0  0  0  3  0  0  0  0  0  0
  -23.1510  -10.3830   20.1300 C   0  0  0  0  0  3  0  0  0  0  0  0
  -21.6170   -7.3130   21.4180 O   0  0  0  0  0  0  0  0  0  0  0  0
  -21.5140   -6.5830   22.5750 C   0  0  0  0  0  0  0  0  0  0  0  0
  -21.2580   -7.1950   23.8220 C   0  0  0  0  0  3  0  0  0  0  0  0
  -21.0900   -6.4000   24.9730 C   0  0  0  0  0  3  0  0  0  0  0  0
  -21.1670   -4.9970   24.8800 C   0  0  0  0  0  0  0  0  0  0  0  0
  -21.4170   -4.3870   23.6380 C   0  0  0  0  0  3  0  0  0  0  0  0
  -21.5860   -5.1780   22.4880 C   0  0  0  0  0  0  0  0  0  0  0  0
  -21.8050   -4.5850   21.2910 F   0  0  0  0  0  0  0  0  0  0  0  0
  -20.9990   -4.2340   25.9850 F   0  0  0  0  0  0  0  0  0  0  0  0
  -23.8270  -13.6710   21.0780 C   0  0  0  0  0  0  0  0  0  0  0  0
  -23.0860  -13.1050   22.0240 N   0  0  0  0  0  0  0  0  0  0  0  0
  -23.5170  -14.7590   20.5930 O   0  0  0  0  0  0  0  0  0  0  0  0
  -23.3510  -12.2230   22.4370 H   0  0  0  0  0  0  0  0  0  0  0  0
  -22.2440  -13.5620   22.3420 H   0  0  0  0  0  0  0  0  0  0  0  0
  -26.6170  -14.8680   20.0170 N   0  0  0  0  0  0  0  0  0  0  0  0
  -25.9820  -15.6400   20.1860 H   0  0  0  0  0  0  0  0  0  0  0  0
  -27.4970  -15.1630   19.6140 H   0  0  0  0  0  0  0  0  0  0  0  0
  -28.8270  -22.1200   20.4190 C   0  0  0  0  0  2  0  0  0  0  0  0
  -28.3550  -23.5850   20.2510 C   0  0  0  0  0  2  0  0  0  0  0  0
  -29.5070  -24.5870   20.0480 C   0  0  0  0  0  2  0  0  0  0  0  0
  -29.0800  -25.9720   19.5170 C   0  0  0  0  0  2  0  0  0  0  0  0
  -28.6950  -26.8650   20.5680 O   0  0  0  0  0  0  0  0  0  0  0  0
  -24.7200  -31.9970   23.4570 C   0  0  0  0  0  0  0  0  0  0  0  0
  -27.4880  -27.5320   20.5110 C   0  0  0  0  0  0  0  0  0  0  0  0
  -23.5640  -30.5470   21.8200 C   0  0  0  0  0  3  0  0  0  0  0  0
  -25.0640  -28.9960   20.4590 C   0  0  0  0  0  0  0  0  0  0  0  0
  -26.0870  -30.9330   21.6660 C   0  0  0  0  0  2  0  0  0  0  0  0
  -26.2010  -29.5490   21.0590 C   0  0  0  0  0  0  0  0  0  0  0  0
  -27.4100  -28.8190   21.0900 C   0  0  0  0  0  3  0  0  0  0  0  0
  -26.3210  -26.9800   19.9310 C   0  0  0  0  0  3  0  0  0  0  0  0
  -25.1170  -27.7090   19.8990 C   0  0  0  0  0  3  0  0  0  0  0  0
  -23.8090  -29.8400   20.4600 C   0  0  0  0  0  2  0  0  0  0  0  0
  -24.8070  -31.1760   22.3730 N   0  0  0  0  0  0  0  0  0  0  0  0
  -23.6250  -32.2690   23.9690 O   0  0  0  0  0  0  0  0  0  0  0  0
  -22.9050  -29.5390   22.7880 C   0  0  0  0  0  0  0  0  0  0  0  0
  -21.6080  -29.2630   22.5740 N   0  0  0  0  0  0  0  0  0  0  0  0
  -23.5610  -29.0050   23.6870 O   0  0  0  0  0  0  0  0  0  0  0  0
  -21.1410  -29.7490   21.8210 H   0  0  0  0  0  0  0  0  0  0  0  0
  -18.3050  -27.8260   22.8390 C   0  0  0  0  0  0  0  0  0  0  0  0
  -20.7930  -28.3170   23.3340 C   0  0  0  0  0  3  0  0  0  0  0  0
  -21.0650  -26.8610   22.8830 C   0  0  0  0  0  2  0  0  0  0  0  0
  -20.1000  -26.3770   21.7960 C   0  0  0  0  0  2  0  0  0  0  0  0
  -18.6530  -26.4520   22.2920 C   0  0  0  0  0  2  0  0  0  0  0  0
  -19.3120  -28.7080   23.3130 C   0  0  0  0  0  0  0  0  0  0  0  0
  -18.9400  -29.9880   23.7780 C   0  0  0  0  0  3  0  0  0  0  0  0
  -17.5910  -30.3890   23.7760 C   0  0  0  0  0  3  0  0  0  0  0  0
  -16.5960  -29.5080   23.3200 C   0  0  0  0  0  3  0  0  0  0  0  0
  -16.9530  -28.2280   22.8570 C   0  0  0  0  0  3  0  0  0  0  0  0
  -25.9860  -32.6550   24.0900 C   0  0  0  0  0  3  0  0  0  0  0  0
  -25.6660  -34.0640   24.3560 N   0  0  0  0  0  0  0  0  0  0  0  0
  -26.0280  -35.0870   23.5710 C   0  0  0  0  0  0  0  0  0  0  0  0
  -26.7390  -34.9460   22.5720 O   0  0  0  0  0  0  0  0  0  0  0  0
  -25.0410  -34.2470   25.1260 H   0  0  0  0  0  0  0  0  0  0  0  0
  -24.3100  -36.8580   23.0870 C   0  0  0  0  0  1  0  0  0  0  0  0
  -25.5230  -36.4900   23.9570 C   0  0  0  0  0  3  0  0  0  0  0  0
  -27.6330  -37.4050   24.8150 C   0  0  0  0  0  1  0  0  0  0  0  0
  -26.5570  -37.5410   23.8380 N   0  0  0  0  0  0  0  0  0  0  0  0
  -26.1460  -38.4650   23.9450 H   0  0  0  0  0  0  0  0  0  0  0  0
  -26.4710  -31.9340   25.4070 C   0  0  1  0  0  0  0  0  0  0  0  0
  -25.3340  -31.6600   26.4190 C   0  0  0  0  0  1  0  0  0  0  0  0
  -27.1410  -30.5810   25.0720 C   0  0  0  0  0  1  0  0  0  0  0  0
  -27.5440  -32.7960   26.1130 C   0  0  0  0  0  1  0  0  0  0  0  0
  1 48  1  0
  2  3  1  0
  3  8  1  0
  3  6  2  0
  4  2  2  0
  4  7  1  0
  5  4  1  0
  7  1  1  0
  7  6  1  0
  9 19  1  0
  9  8  1  0
 10 16  1  0
 10 19  1  0
 11 16  1  0
 12 13  1  0
 12 11  1  0
 14 13  1  0
 14 23  1  0
 14 15  1  0
 16 15  1  0
 17 10  2  0
 19 18  1  0
 20 21  2  0
 21 40  1  0
 22 21  1  0
 22 25  1  0
 23 24  1  0
 23 20  1  0
 24 22  2  0
 25 26  1  0
 26 27  2  0
 28 31  1  0
 28 27  1  0
 29 28  2  0
 30 29  1  0
 30 25  2  0
 31 32  1  0
 32 33  1  0
 33 34  2  0
 35 34  1  0
 35 39  1  0
 36 35  2  0
 37 32  2  0
 37 36  1  0
 38 37  1  0
 40 41  1  0
 41 44  1  0
 41 43  1  0
 42 40  2  0
 45 46  1  0
 45 20  1  0
 47 45  1  0
 49 48  1  0
 50 49  1  0
 51 50  1  0
 51 52  1  0
 53 64  2  0
 54 52  1  0
 54 59  1  0
 55 63  1  0
 55 65  1  0
 56 62  1  0
 56 58  1  0
 57 63  1  0
 58 59  2  0
 58 57  1  0
 60 54  2  0
 61 60  1  0
 61 56  2  0
 62 55  1  0
 63 53  1  0
 65 67  2  0
 66 65  1  0
 68 66  1  0
 69 78  2  0
 69 74  1  0
 70 66  1  0
 71 70  1  0
 72 73  1  0
 72 71  1  0
 73 69  1  0
 74 70  1  0
 74 75  2  0
 76 75  1  0
 77 76  2  0
 78 77  1  0
 79 53  1  0
 79 80  1  0
 79 89  1  0
 80 83  1  0
 81 85  1  0
 81 80  1  0
 82 81  2  0
 85 84  1  0
 87 88  1  0
 87 85  1  0
 87 86  1  0
 89 92  1  1
 89 90  1  0
 91 89  1  0
M  ISO  4  10 100  19 100  51 101  52 101
M  END
>  <TORSDO>  (61) 
F 23

>  <SCORE>  (61) 
-11.217

>  <name>  (61) 
60

>  <ligand_id>  (61) 
60

>  <original_smiles>  (61) 
[H]c1c([H])c([H])c2c(c1[H])C([H])([H])C([H])([H])C([H])([H])C2([H])N([H])C(=O)C1([H])N(C(=O)C([H])(N([H])C(=O)C([H])(N([H])C([H])([H])[H])C([H])([H])[H])C(C([H])([H])[H])(C([H])([H])[H])C([H])([H])[H])C([H])([H])c2c([H])c(OC([H])([H])C([H])([H])C([H])([H])C([H])([H])C([H])([H])n3nc(C([H])([H])C([H])([H])N(C(=O)N4C([H])([H])C([H])([H])C([H])([H])C([H])(n5nc(-c6c([H])c([H])c(Oc7c([H])c([H])c(F)c([H])c7F)c([H])c6[H])c(C(=O)N([H])[H])c5N([H])[H])C4([H])[H])C([H])([H])[H])c([H])c3C([H])([H])[H])c([H])c([H])c2C1([H])[H]

>  <smiles>  (61) 
[H]c1c([H])c([H])c2c(c1[H])C([H])([H])C([H])([H])C([H])([H])C2([H])N([H])C(=O)C1([H])N(C(=O)C([H])(N([H])C(=O)C([H])(N([H])C([H])([H])[H])C([H])([H])[H])C(C([H])([H])[H])(C([H])([H])[H])C([H])([H])[H])C([H])([H])c2c([H])c(OC([H])([H])C([H])([H])C([H])([H])C([H])([H])C([H])([H])n3nc(C([H])([H])C([H])([H])N(C(=O)N4C([H])([H])C([H])([H])C([H])([H])C([H])(n5nc(-c6c([H])c([H])c(Oc7c([H])c([H])c(F)c([H])c7F)c([H])c6[H])c(C(=O)N([H])[H])c5N([H])[H])C4([H])[H])C([H])([H])[H])c([H])c3C([H])([H])[H])c([H])c([H])c2C1([H])[H]

$$$$
61:0:0
     RDKit          3D

 95103  0  0  1  0  0  0  0  0999 V2000
  -29.7190  -18.8800   21.0390 C   0  0  0  0  0  3  0  0  0  0  0  0
  -29.8740  -17.8770   20.0600 C   0  0  0  0  0  0  0  0  0  0  0  0
  -30.1430  -18.3630   18.7640 C   0  0  0  0  0  0  0  0  0  0  0  0
  -30.0050  -20.5520   19.4900 C   0  0  0  0  0  0  0  0  0  0  0  0
  -30.3620  -17.4560   17.5680 C   0  0  0  0  0  1  0  0  0  0  0  0
  -29.7960  -20.1970   20.7540 N   0  0  0  0  0  0  0  0  0  0  0  0
  -30.2230  -19.6810   18.5070 N   0  0  0  0  0  0  0  0  0  0  0  0
  -31.7200  -22.3860   19.5810 C   0  0  0  0  0  1  0  0  0  0  0  0
  -30.0770  -22.3410   17.6680 C   0  0  0  0  0  1  0  0  0  0  0  0
  -30.2660  -22.0560   19.1840 C   0  0  1  0  0  0  0  0  0  0  0  0
  -29.2720  -22.9790   19.9690 C   0  0  0  0  0  2  0  0  0  0  0  0
  -29.2900  -24.5020   19.6350 C   0  0  0  0  0  2  0  0  0  0  0  0
  -28.4920  -25.3660   20.6300 C   0  0  0  0  0  2  0  0  0  0  0  0
  -28.6110  -26.7660   20.3340 O   0  0  0  0  0  0  0  0  0  0  0  0
  -24.7370  -31.9370   23.3320 C   0  0  0  0  0  0  0  0  0  0  0  0
  -27.4360  -27.4870   20.3190 C   0  0  0  0  0  0  0  0  0  0  0  0
  -23.5560  -30.5170   21.6840 C   0  0  0  0  0  3  0  0  0  0  0  0
  -25.0340  -28.9760   20.2890 C   0  0  0  0  0  0  0  0  0  0  0  0
  -26.0830  -30.8850   21.5170 C   0  0  0  0  0  2  0  0  0  0  0  0
  -26.1820  -29.5120   20.8840 C   0  0  0  0  0  0  0  0  0  0  0  0
  -27.3890  -28.7770   20.8910 C   0  0  0  0  0  3  0  0  0  0  0  0
  -26.2730  -26.9620   19.7150 C   0  0  0  0  0  3  0  0  0  0  0  0
  -25.0720  -27.6980   19.7020 C   0  0  0  0  0  3  0  0  0  0  0  0
  -23.7850  -29.8270   20.3140 C   0  0  0  0  0  2  0  0  0  0  0  0
  -24.8090  -31.1290   22.2360 N   0  0  0  0  0  0  0  0  0  0  0  0
  -23.6490  -32.2110   23.8540 O   0  0  0  0  0  0  0  0  0  0  0  0
  -22.8970  -29.5030   22.6440 C   0  0  0  0  0  0  0  0  0  0  0  0
  -21.5790  -29.2970   22.4850 N   0  0  0  0  0  0  0  0  0  0  0  0
  -23.5690  -28.9010   23.4860 O   0  0  0  0  0  0  0  0  0  0  0  0
  -21.1020  -29.8340   21.7750 H   0  0  0  0  0  0  0  0  0  0  0  0
  -18.2130  -28.0540   22.9050 C   0  0  0  0  0  0  0  0  0  0  0  0
  -20.7560  -28.3610   23.2480 C   0  0  0  0  0  3  0  0  0  0  0  0
  -20.9010  -26.9220   22.7000 C   0  0  0  0  0  2  0  0  0  0  0  0
  -19.8370  -26.5620   21.6610 C   0  0  0  0  0  2  0  0  0  0  0  0
  -18.4320  -26.6970   22.2580 C   0  0  0  0  0  2  0  0  0  0  0  0
  -19.3050  -28.8420   23.3540 C   0  0  0  0  0  0  0  0  0  0  0  0
  -19.0500  -30.1130   23.9130 C   0  0  0  0  0  3  0  0  0  0  0  0
  -17.7320  -30.5950   24.0320 C   0  0  0  0  0  3  0  0  0  0  0  0
  -16.6530  -29.8030   23.6020 C   0  0  0  0  0  3  0  0  0  0  0  0
  -16.8950  -28.5350   23.0460 C   0  0  0  0  0  3  0  0  0  0  0  0
  -26.0140  -32.5760   23.9630 C   0  0  0  0  0  3  0  0  0  0  0  0
  -25.7080  -33.9820   24.2540 N   0  0  0  0  0  0  0  0  0  0  0  0
  -26.0500  -35.0130   23.4700 C   0  0  0  0  0  0  0  0  0  0  0  0
  -26.7300  -34.8810   22.4480 O   0  0  0  0  0  0  0  0  0  0  0  0
  -25.1100  -34.1600   25.0480 H   0  0  0  0  0  0  0  0  0  0  0  0
  -24.3240  -36.7940   23.0540 C   0  0  0  0  0  1  0  0  0  0  0  0
  -25.5590  -36.4130   23.8860 C   0  0  0  0  0  3  0  0  0  0  0  0
  -27.6890  -37.3150   24.7080 C   0  0  0  0  0  1  0  0  0  0  0  0
  -26.5910  -37.4650   23.7560 N   0  0  0  0  0  0  0  0  0  0  0  0
  -26.1820  -38.3860   23.8890 H   0  0  0  0  0  0  0  0  0  0  0  0
  -26.5070  -31.8300   25.2630 C   0  0  1  0  0  0  0  0  0  0  0  0
  -25.3840  -31.5680   26.2930 C   0  0  0  0  0  1  0  0  0  0  0  0
  -27.1420  -30.4670   24.9050 C   0  0  0  0  0  1  0  0  0  0  0  0
  -27.6130  -32.6620   25.9550 C   0  0  0  0  0  1  0  0  0  0  0  0
  -28.6840  -16.1620   21.5050 C   0  0  0  0  0  1  0  0  0  0  0  0
  -29.7380  -16.3610   20.3840 C   0  0  0  0  0  3  0  0  0  0  0  0
  -31.3030  -15.0250   22.0510 C   0  0  0  0  0  1  0  0  0  0  0  0
  -32.2980  -16.5280   20.4070 C   0  0  0  0  0  1  0  0  0  0  0  0
  -31.0960  -15.5520   20.6040 C   0  0  2  0  0  0  0  0  0  0  0  0
  -31.2840  -14.3360   19.6080 C   0  0  0  0  0  0  0  0  0  0  0  0
  -30.7190  -12.1410   18.5940 C   0  0  0  0  0  2  0  0  0  0  0  0
  -29.7070  -12.2720   17.4400 C   0  0  0  0  0  2  0  0  0  0  0  0
  -28.2680  -12.2120   17.9810 C   0  0  0  0  0  2  0  0  0  0  0  0
  -28.0510  -13.1810   19.1680 C   0  0  0  0  0  3  0  0  0  0  0  0
  -29.1760  -13.0400   20.2190 C   0  0  0  0  0  2  0  0  0  0  0  0
  -30.4760  -13.2310   19.5610 N   0  0  0  0  0  0  0  0  0  0  0  0
  -32.2490  -14.4050   18.8410 O   0  0  0  0  0  0  0  0  0  0  0  0
  -25.7880  -13.9770   20.1000 C   0  0  0  0  0  0  0  0  0  0  0  0
  -24.6960  -13.2880   20.5590 C   0  0  0  0  0  0  0  0  0  0  0  0
  -25.0410  -11.9050   20.4790 C   0  0  0  0  0  0  0  0  0  0  0  0
  -26.7300  -13.0140   19.7690 N   0  0  0  0  0  0  0  0  0  0  0  0
  -26.2900  -11.7640   20.0560 N   0  0  0  0  0  0  0  0  0  0  0  0
  -24.2330  -10.7030   20.7250 C   0  0  0  0  0  0  0  0  0  0  0  0
  -24.6000   -9.7530   21.7040 C   0  0  0  0  0  3  0  0  0  0  0  0
  -23.7980   -8.6150   21.9330 C   0  0  0  0  0  3  0  0  0  0  0  0
  -22.6150   -8.4190   21.1820 C   0  0  0  0  0  0  0  0  0  0  0  0
  -22.2670   -9.3550   20.1930 C   0  0  0  0  0  3  0  0  0  0  0  0
  -23.0690  -10.4850   19.9620 C   0  0  0  0  0  3  0  0  0  0  0  0
  -21.7870   -7.3310   21.3180 O   0  0  0  0  0  0  0  0  0  0  0  0
  -21.6020   -6.7140   22.5290 C   0  0  0  0  0  0  0  0  0  0  0  0
  -21.1010   -7.4110   23.6520 C   0  0  0  0  0  3  0  0  0  0  0  0
  -20.8610   -6.7220   24.8570 C   0  0  0  0  0  3  0  0  0  0  0  0
  -21.1100   -5.3390   24.9420 C   0  0  0  0  0  0  0  0  0  0  0  0
  -21.6040   -4.6430   23.8230 C   0  0  0  0  0  3  0  0  0  0  0  0
  -21.8460   -5.3280   22.6200 C   0  0  0  0  0  0  0  0  0  0  0  0
  -22.3010   -4.6490   21.5400 F   0  0  0  0  0  0  0  0  0  0  0  0
  -20.8720   -4.6760   26.0970 F   0  0  0  0  0  0  0  0  0  0  0  0
  -23.3720  -13.8740   20.9580 C   0  0  0  0  0  0  0  0  0  0  0  0
  -22.6800  -13.2380   21.8980 N   0  0  0  0  0  0  0  0  0  0  0  0
  -22.9660  -14.9280   20.4720 O   0  0  0  0  0  0  0  0  0  0  0  0
  -23.0220  -12.3830   22.3100 H   0  0  0  0  0  0  0  0  0  0  0  0
  -21.7950  -13.6130   22.2100 H   0  0  0  0  0  0  0  0  0  0  0  0
  -26.0480  -15.3300   19.9170 N   0  0  0  0  0  0  0  0  0  0  0  0
  -25.3530  -16.0440   20.1090 H   0  0  0  0  0  0  0  0  0  0  0  0
  -26.9060  -15.7070   19.5380 H   0  0  0  0  0  0  0  0  0  0  0  0
  2 56  1  0
  2  1  2  0
  3  2  1  0
  4  6  2  0
  5  3  1  0
  6  1  1  0
  7  3  2  0
  7  4  1  0
 10  9  1  6
 10  4  1  0
 10  8  1  0
 10 11  1  0
 12 11  1  0
 12 13  1  0
 14 13  1  0
 15 26  2  0
 16 14  1  0
 16 21  1  0
 17 25  1  0
 17 27  1  0
 18 24  1  0
 18 20  1  0
 19 25  1  0
 20 21  2  0
 20 19  1  0
 22 16  2  0
 23 22  1  0
 23 18  2  0
 24 17  1  0
 25 15  1  0
 27 29  2  0
 28 27  1  0
 30 28  1  0
 31 40  2  0
 31 36  1  0
 32 28  1  0
 32 36  1  0
 33 32  1  0
 34 35  1  0
 34 33  1  0
 35 31  1  0
 36 37  2  0
 37 38  1  0
 39 38  2  0
 40 39  1  0
 41 15  1  0
 41 42  1  0
 41 51  1  0
 42 45  1  0
 43 47  1  0
 43 42  1  0
 44 43  2  0
 47 46  1  0
 49 47  1  0
 49 50  1  0
 49 48  1  0
 51 54  1  1
 51 52  1  0
 53 51  1  0
 56 59  1  0
 56 55  1  0
 59 58  1  6
 59 57  1  0
 60 59  1  0
 61 66  1  0
 62 63  1  0
 62 61  1  0
 64 63  1  0
 64 71  1  0
 64 65  1  0
 66 60  1  0
 66 65  1  0
 67 60  2  0
 68 69  2  0
 69 88  1  0
 70 69  1  0
 70 73  1  0
 71 72  1  0
 71 68  1  0
 72 70  2  0
 73 74  1  0
 74 75  2  0
 76 79  1  0
 76 75  1  0
 77 76  2  0
 78 77  1  0
 78 73  2  0
 79 80  1  0
 80 85  2  0
 80 81  1  0
 81 82  2  0
 82 83  1  0
 83 87  1  0
 84 83  2  0
 85 84  1  0
 86 85  1  0
 88 89  1  0
 89 92  1  0
 89 91  1  0
 90 88  2  0
 93 68  1  0
 93 94  1  0
 95 93  1  0
M  ISO  4  13 101  14 101  59 100  60 100
M  END
>  <TORSDO>  (62) 
F 22

>  <SCORE>  (62) 
-11.121

>  <name>  (62) 
61

>  <ligand_id>  (62) 
61

>  <original_smiles>  (62) 
[H]c1nc(C(C([H])([H])[H])(C([H])([H])[H])C([H])([H])C([H])([H])C([H])([H])Oc2c([H])c([H])c3c(c2[H])C([H])([H])N(C(=O)C([H])(N([H])C(=O)C([H])(N([H])C([H])([H])[H])C([H])([H])[H])C(C([H])([H])[H])(C([H])([H])[H])C([H])([H])[H])C([H])(C(=O)N([H])C2([H])c4c([H])c([H])c([H])c([H])c4C([H])([H])C([H])([H])C2([H])[H])C3([H])[H])nc(C([H])([H])[H])c1C([H])(C([H])([H])[H])C(C(=O)N1C([H])([H])C([H])([H])C([H])([H])C([H])(n2nc(-c3c([H])c([H])c(Oc4c([H])c([H])c(F)c([H])c4F)c([H])c3[H])c(C(=O)N([H])[H])c2N([H])[H])C1([H])[H])(C([H])([H])[H])C([H])([H])[H]

>  <smiles>  (62) 
[H]c1nc(C(C([H])([H])[H])(C([H])([H])[H])C([H])([H])C([H])([H])C([H])([H])Oc2c([H])c([H])c3c(c2[H])C([H])([H])N(C(=O)C([H])(N([H])C(=O)C([H])(N([H])C([H])([H])[H])C([H])([H])[H])C(C([H])([H])[H])(C([H])([H])[H])C([H])([H])[H])C([H])(C(=O)N([H])C2([H])c4c([H])c([H])c([H])c([H])c4C([H])([H])C([H])([H])C2([H])[H])C3([H])[H])nc(C([H])([H])[H])c1C([H])(C([H])([H])[H])C(C(=O)N1C([H])([H])C([H])([H])C([H])([H])C([H])(n2nc(-c3c([H])c([H])c(Oc4c([H])c([H])c(F)c([H])c4F)c([H])c3[H])c(C(=O)N([H])[H])c2N([H])[H])C1([H])[H])(C([H])([H])[H])C([H])([H])[H]

$$$$
62:0:0
     RDKit          3D

 94102  0  0  1  0  0  0  0  0999 V2000
  -29.6410  -21.9930   21.1020 C   0  0  0  0  0  3  0  0  0  0  0  0
  -28.8910  -22.3570   20.0050 C   0  0  0  0  0  0  0  0  0  0  0  0
  -29.1250  -20.0080   20.1460 C   0  0  0  0  0  3  0  0  0  0  0  0
  -28.5550  -21.0760   19.4610 N   0  0  0  0  0  0  0  0  0  0  0  0
  -29.7590  -20.6170   21.1560 N   0  0  0  0  0  0  0  0  0  0  0  0
  -30.2710  -20.1290   21.8800 H   0  0  0  0  0  0  0  0  0  0  0  0
  -27.6020  -23.9730   18.3420 C   0  0  0  0  0  1  0  0  0  0  0  0
  -30.0080  -24.2930   18.8680 C   0  0  0  0  0  1  0  0  0  0  0  0
  -28.6540  -23.8570   19.4630 C   0  0  2  0  0  0  0  0  0  0  0  0
  -28.2380  -25.0010   20.5330 C   0  0  0  0  0  2  0  0  0  0  0  0
  -28.3440  -26.4630   20.1980 O   0  0  0  0  0  0  0  0  0  0  0  0
  -24.5990  -31.9020   23.2470 C   0  0  0  0  0  0  0  0  0  0  0  0
  -27.2150  -27.3060   20.2190 C   0  0  0  0  0  0  0  0  0  0  0  0
  -23.4030  -30.4970   21.6110 C   0  0  0  0  0  3  0  0  0  0  0  0
  -24.8530  -28.9330   20.2050 C   0  0  0  0  0  0  0  0  0  0  0  0
  -25.9450  -30.8100   21.4310 C   0  0  0  0  0  2  0  0  0  0  0  0
  -26.0280  -29.4260   20.7900 C   0  0  0  0  0  0  0  0  0  0  0  0
  -27.2150  -28.6300   20.7730 C   0  0  0  0  0  3  0  0  0  0  0  0
  -26.0080  -26.8600   19.6420 C   0  0  0  0  0  3  0  0  0  0  0  0
  -24.8470  -27.6570   19.6240 C   0  0  0  0  0  3  0  0  0  0  0  0
  -23.6230  -29.8150   20.2360 C   0  0  0  0  0  2  0  0  0  0  0  0
  -24.6690  -31.0880   22.1530 N   0  0  0  0  0  0  0  0  0  0  0  0
  -23.5130  -32.1850   23.7720 O   0  0  0  0  0  0  0  0  0  0  0  0
  -22.7350  -29.4860   22.5730 C   0  0  0  0  0  0  0  0  0  0  0  0
  -21.4120  -29.2970   22.4280 N   0  0  0  0  0  0  0  0  0  0  0  0
  -23.4050  -28.8760   23.4100 O   0  0  0  0  0  0  0  0  0  0  0  0
  -20.9320  -29.8380   21.7230 H   0  0  0  0  0  0  0  0  0  0  0  0
  -18.0390  -28.0620   22.8800 C   0  0  0  0  0  0  0  0  0  0  0  0
  -20.5890  -28.3610   23.1980 C   0  0  0  0  0  3  0  0  0  0  0  0
  -20.7220  -26.9230   22.6450 C   0  0  0  0  0  2  0  0  0  0  0  0
  -19.6430  -26.5700   21.6160 C   0  0  0  0  0  2  0  0  0  0  0  0
  -18.2470  -26.7060   22.2310 C   0  0  0  0  0  2  0  0  0  0  0  0
  -19.1390  -28.8470   23.3210 C   0  0  0  0  0  0  0  0  0  0  0  0
  -18.8900  -30.1150   23.8890 C   0  0  0  0  0  3  0  0  0  0  0  0
  -17.5760  -30.5980   24.0240 C   0  0  0  0  0  3  0  0  0  0  0  0
  -16.4900  -29.8120   23.6010 C   0  0  0  0  0  3  0  0  0  0  0  0
  -16.7230  -28.5480   23.0330 C   0  0  0  0  0  3  0  0  0  0  0  0
  -25.8770  -32.5370   23.8730 C   0  0  0  0  0  3  0  0  0  0  0  0
  -25.5720  -33.9430   24.1790 N   0  0  0  0  0  0  0  0  0  0  0  0
  -25.9150  -34.9830   23.4080 C   0  0  0  0  0  0  0  0  0  0  0  0
  -26.5900  -34.8610   22.3830 O   0  0  0  0  0  0  0  0  0  0  0  0
  -24.9730  -34.1120   24.9730 H   0  0  0  0  0  0  0  0  0  0  0  0
  -24.2050  -36.7880   23.0100 C   0  0  0  0  0  1  0  0  0  0  0  0
  -25.4330  -36.3840   23.8430 C   0  0  0  0  0  3  0  0  0  0  0  0
  -27.5590  -37.2660   24.6980 C   0  0  0  0  0  1  0  0  0  0  0  0
  -26.4760  -37.4280   23.7320 N   0  0  0  0  0  0  0  0  0  0  0  0
  -26.0750  -38.3530   23.8580 H   0  0  0  0  0  0  0  0  0  0  0  0
  -26.3730  -31.7870   25.1700 C   0  0  1  0  0  0  0  0  0  0  0  0
  -25.2650  -31.5700   26.2290 C   0  0  0  0  0  1  0  0  0  0  0  0
  -26.9550  -30.4020   24.8090 C   0  0  0  0  0  1  0  0  0  0  0  0
  -27.5220  -32.5870   25.8320 C   0  0  0  0  0  1  0  0  0  0  0  0
  -28.4110  -20.7500   16.9630 C   0  0  0  0  0  1  0  0  0  0  0  0
  -27.6680  -20.8290   18.3160 C   0  0  0  0  0  2  0  0  0  0  0  0
  -29.0290  -17.8980   18.5200 C   0  0  0  0  0  1  0  0  0  0  0  0
  -29.0000  -18.4030   19.9810 C   0  0  0  0  0  3  0  0  0  0  0  0
  -29.9760  -17.3780   20.7840 C   0  0  0  0  0  2  0  0  0  0  0  0
  -30.5220  -14.7690   20.5130 C   0  0  0  0  0  0  0  0  0  0  0  0
  -30.3770  -12.5030   19.4640 C   0  0  0  0  0  2  0  0  0  0  0  0
  -29.4470  -12.5950   18.2340 C   0  0  0  0  0  2  0  0  0  0  0  0
  -27.9760  -12.3970   18.6510 C   0  0  0  0  0  2  0  0  0  0  0  0
  -27.5850  -13.2570   19.8810 C   0  0  0  0  0  3  0  0  0  0  0  0
  -28.6350  -13.1500   21.0080 C   0  0  0  0  0  2  0  0  0  0  0  0
  -29.9290  -13.5320   20.4290 N   0  0  0  0  0  0  0  0  0  0  0  0
  -31.7120  -14.9080   20.2180 O   0  0  0  0  0  0  0  0  0  0  0  0
  -29.6960  -15.8650   20.7260 N   0  0  0  0  0  0  0  0  0  0  0  0
  -28.7330  -15.6130   20.8870 H   0  0  0  0  0  0  0  0  0  0  0  0
  -25.1840  -13.8260   20.5740 C   0  0  0  0  0  0  0  0  0  0  0  0
  -24.1210  -13.0420   20.9300 C   0  0  0  0  0  0  0  0  0  0  0  0
  -24.5970  -11.6960   20.9010 C   0  0  0  0  0  0  0  0  0  0  0  0
  -26.2380  -12.9560   20.3520 N   0  0  0  0  0  0  0  0  0  0  0  0
  -25.8910  -11.6690   20.6100 N   0  0  0  0  0  0  0  0  0  0  0  0
  -23.8800  -10.4260   21.0800 C   0  0  0  0  0  0  0  0  0  0  0  0
  -24.3010   -9.4660   22.0270 C   0  0  0  0  0  3  0  0  0  0  0  0
  -23.5840   -8.2620   22.1910 C   0  0  0  0  0  3  0  0  0  0  0  0
  -22.4340   -8.0070   21.4080 C   0  0  0  0  0  0  0  0  0  0  0  0
  -22.0320   -8.9550   20.4500 C   0  0  0  0  0  3  0  0  0  0  0  0
  -22.7490  -10.1520   20.2840 C   0  0  0  0  0  3  0  0  0  0  0  0
  -21.6910   -6.8530   21.4790 O   0  0  0  0  0  0  0  0  0  0  0  0
  -21.6090   -6.1200   22.6360 C   0  0  0  0  0  0  0  0  0  0  0  0
  -21.1030   -6.6720   23.8330 C   0  0  0  0  0  3  0  0  0  0  0  0
  -20.9730   -5.8650   24.9810 C   0  0  0  0  0  3  0  0  0  0  0  0
  -21.3380   -4.5070   24.9330 C   0  0  0  0  0  0  0  0  0  0  0  0
  -21.8370   -3.9540   23.7400 C   0  0  0  0  0  3  0  0  0  0  0  0
  -21.9700   -4.7590   22.5950 C   0  0  0  0  0  0  0  0  0  0  0  0
  -22.4330   -4.2150   21.4430 F   0  0  0  0  0  0  0  0  0  0  0  0
  -21.2050   -3.7290   26.0330 F   0  0  0  0  0  0  0  0  0  0  0  0
  -22.7170  -13.5050   21.1850 C   0  0  0  0  0  0  0  0  0  0  0  0
  -21.9800  -12.7920   22.0290 N   0  0  0  0  0  0  0  0  0  0  0  0
  -22.2820  -14.5340   20.6690 O   0  0  0  0  0  0  0  0  0  0  0  0
  -22.3480  -11.9580   22.4630 H   0  0  0  0  0  0  0  0  0  0  0  0
  -21.0380  -13.0860   22.2430 H   0  0  0  0  0  0  0  0  0  0  0  0
  -25.3360  -15.1980   20.3940 N   0  0  0  0  0  0  0  0  0  0  0  0
  -24.5490  -15.8350   20.4580 H   0  0  0  0  0  0  0  0  0  0  0  0
  -26.1610  -15.6310   20.0000 H   0  0  0  0  0  0  0  0  0  0  0  0
  1  5  1  0
  2  1  2  0
  3 55  1  0
  3  5  1  0
  4  2  1  0
  4  3  1  0
  5  6  1  0
  9  7  1  6
  8  9  1  0
  9  2  1  0
  9 10  1  0
 11 13  1  0
 11 10  1  0
 12 23  2  0
 13 18  1  0
 14 22  1  0
 14 24  1  0
 15 21  1  0
 15 17  1  0
 16 22  1  0
 17 16  1  0
 18 17  2  0
 19 13  2  0
 20 19  1  0
 20 15  2  0
 21 14  1  0
 22 12  1  0
 24 26  2  0
 25 24  1  0
 27 25  1  0
 28 37  2  0
 28 33  1  0
 29 25  1  0
 29 33  1  0
 30 29  1  0
 31 32  1  0
 31 30  1  0
 32 28  1  0
 33 34  2  0
 34 35  1  0
 36 35  2  0
 37 36  1  0
 38 12  1  0
 38 39  1  0
 38 48  1  0
 39 42  1  0
 40 44  1  0
 40 39  1  0
 41 40  2  0
 44 43  1  0
 46 44  1  0
 46 47  1  0
 46 45  1  0
 48 51  1  1
 48 49  1  0
 50 48  1  0
 52 53  1  0
 53  4  1  0
 55 54  1  0
 55 56  1  0
 57 65  1  0
 58 63  1  0
 59 60  1  0
 59 58  1  0
 61 60  1  0
 61 70  1  0
 61 62  1  0
 63 57  1  0
 63 62  1  0
 64 57  2  0
 65 56  1  0
 65 66  1  0
 67 68  2  0
 68 87  1  0
 69 68  1  0
 69 72  1  0
 70 67  1  0
 70 71  1  0
 71 69  2  0
 72 73  1  0
 73 74  2  0
 75 78  1  0
 75 74  1  0
 76 75  2  0
 77 76  1  0
 77 72  2  0
 78 79  1  0
 79 80  1  0
 80 81  2  0
 82 81  1  0
 82 86  1  0
 83 82  2  0
 84 79  2  0
 84 83  1  0
 85 84  1  0
 87 88  1  0
 88 91  1  0
 88 90  1  0
 89 87  2  0
 92 93  1  0
 92 67  1  0
 94 92  1  0
M  ISO  4  10 101  11 101  57 100  65 100
M  END
>  <TORSDO>  (63) 
F 21

>  <SCORE>  (63) 
-13.714

>  <name>  (63) 
62

>  <ligand_id>  (63) 
62

>  <original_smiles>  (63) 
[H]c1c([H])c([H])c2c(c1[H])C([H])([H])C([H])([H])C([H])([H])C2([H])N([H])C(=O)C1([H])N(C(=O)C([H])(N([H])C(=O)C([H])(N([H])C([H])([H])[H])C([H])([H])[H])C(C([H])([H])[H])(C([H])([H])[H])C([H])([H])[H])C([H])([H])c2c([H])c(OC([H])([H])C(c3c([H])[n+]([H])c(C([H])(C([H])([H])[H])C([H])([H])N([H])C(=O)N4C([H])([H])C([H])([H])C([H])([H])C([H])(n5nc(-c6c([H])c([H])c(Oc7c([H])c([H])c(F)c([H])c7F)c([H])c6[H])c(C(=O)N([H])[H])c5N([H])[H])C4([H])[H])n3C([H])([H])C([H])([H])[H])(C([H])([H])[H])C([H])([H])[H])c([H])c([H])c2C1([H])[H]

>  <smiles>  (63) 
[H]c1c([H])c([H])c2c(c1[H])C([H])([H])C([H])([H])C([H])([H])C2([H])N([H])C(=O)C1([H])N(C(=O)C([H])(N([H])C(=O)C([H])(N([H])C([H])([H])[H])C([H])([H])[H])C(C([H])([H])[H])(C([H])([H])[H])C([H])([H])[H])C([H])([H])c2c([H])c(OC([H])([H])C(c3c([H])[n+]([H])c(C([H])(C([H])([H])[H])C([H])([H])N([H])C(=O)N4C([H])([H])C([H])([H])C([H])([H])C([H])(n5nc(-c6c([H])c([H])c(Oc7c([H])c([H])c(F)c([H])c7F)c([H])c6[H])c(C(=O)N([H])[H])c5N([H])[H])C4([H])[H])n3C([H])([H])C([H])([H])[H])(C([H])([H])[H])C([H])([H])[H])c([H])c([H])c2C1([H])[H]

$$$$
63:0:0
     RDKit          3D

 93101  0  0  1  0  0  0  0  0999 V2000
  -31.4220  -18.3150   21.1930 C   0  0  0  0  0  3  0  0  0  0  0  0
  -31.1740  -19.6250   21.5420 C   0  0  0  0  0  3  0  0  0  0  0  0
  -29.3520  -18.8050   20.6010 C   0  0  0  0  0  3  0  0  0  0  0  0
  -30.2870  -17.7640   20.5220 C   0  0  0  0  0  0  0  0  0  0  0  0
  -29.8750  -19.9730   21.1970 N   0  0  0  0  0  0  0  0  0  0  0  0
  -29.6080  -21.7500   22.9230 C   0  0  0  0  0  1  0  0  0  0  0  0
  -29.1850  -21.2960   21.5110 C   0  0  0  0  0  3  0  0  0  0  0  0
  -29.2820  -22.5310   20.4840 C   0  0  0  0  0  2  0  0  0  0  0  0
  -28.9040  -24.0290   20.9700 C   0  0  0  0  0  3  0  0  0  0  0  0
  -28.5380  -25.1580   19.8920 C   0  0  0  0  0  3  0  0  0  0  0  0
  -28.4910  -26.5980   20.2860 O   0  0  0  0  0  0  0  0  0  0  0  0
  -24.6810  -31.9440   23.2550 C   0  0  0  0  0  0  0  0  0  0  0  0
  -27.3450  -27.4130   20.1920 C   0  0  0  0  0  0  0  0  0  0  0  0
  -23.4950  -30.5480   21.6010 C   0  0  0  0  0  3  0  0  0  0  0  0
  -24.9650  -29.0190   20.1690 C   0  0  0  0  0  0  0  0  0  0  0  0
  -26.0350  -30.8810   21.4390 C   0  0  0  0  0  2  0  0  0  0  0  0
  -26.1250  -29.5080   20.7810 C   0  0  0  0  0  0  0  0  0  0  0  0
  -27.3110  -28.7150   20.7870 C   0  0  0  0  0  3  0  0  0  0  0  0
  -26.1610  -26.9880   19.5410 C   0  0  0  0  0  3  0  0  0  0  0  0
  -24.9870  -27.7670   19.5380 C   0  0  0  0  0  3  0  0  0  0  0  0
  -23.7220  -29.8850   20.2150 C   0  0  0  0  0  2  0  0  0  0  0  0
  -24.7540  -31.1440   22.1520 N   0  0  0  0  0  0  0  0  0  0  0  0
  -23.5940  -32.2080   23.7890 O   0  0  0  0  0  0  0  0  0  0  0  0
  -22.8380  -29.5200   22.5520 C   0  0  0  0  0  0  0  0  0  0  0  0
  -21.5130  -29.3350   22.4220 N   0  0  0  0  0  0  0  0  0  0  0  0
  -23.5190  -28.8920   23.3680 O   0  0  0  0  0  0  0  0  0  0  0  0
  -21.0250  -29.8940   21.7370 H   0  0  0  0  0  0  0  0  0  0  0  0
  -18.1430  -28.1100   22.9090 C   0  0  0  0  0  0  0  0  0  0  0  0
  -20.6990  -28.3870   23.1850 C   0  0  0  0  0  3  0  0  0  0  0  0
  -20.8140  -26.9610   22.5990 C   0  0  0  0  0  2  0  0  0  0  0  0
  -19.7150  -26.6350   21.5820 C   0  0  0  0  0  2  0  0  0  0  0  0
  -18.3310  -26.7670   22.2240 C   0  0  0  0  0  2  0  0  0  0  0  0
  -19.2560  -28.8770   23.3450 C   0  0  0  0  0  0  0  0  0  0  0  0
  -19.0280  -30.1320   23.9480 C   0  0  0  0  0  3  0  0  0  0  0  0
  -17.7190  -30.6240   24.1180 C   0  0  0  0  0  3  0  0  0  0  0  0
  -16.6200  -29.8550   23.6960 C   0  0  0  0  0  3  0  0  0  0  0  0
  -16.8330  -28.5990   23.0990 C   0  0  0  0  0  3  0  0  0  0  0  0
  -25.9560  -32.5840   23.8850 C   0  0  0  0  0  3  0  0  0  0  0  0
  -25.6350  -33.9820   24.2100 N   0  0  0  0  0  0  0  0  0  0  0  0
  -25.9710  -35.0370   23.4560 C   0  0  0  0  0  0  0  0  0  0  0  0
  -26.6520  -34.9380   22.4330 O   0  0  0  0  0  0  0  0  0  0  0  0
  -25.0400  -34.1320   25.0110 H   0  0  0  0  0  0  0  0  0  0  0  0
  -24.2420  -36.8250   23.0870 C   0  0  0  0  0  1  0  0  0  0  0  0
  -25.4740  -36.4230   23.9120 C   0  0  0  0  0  3  0  0  0  0  0  0
  -27.5930  -37.3140   24.7780 C   0  0  0  0  0  1  0  0  0  0  0  0
  -26.5060  -37.4800   23.8160 N   0  0  0  0  0  0  0  0  0  0  0  0
  -26.0940  -38.3990   23.9590 H   0  0  0  0  0  0  0  0  0  0  0  0
  -26.4610  -31.8200   25.1690 C   0  0  1  0  0  0  0  0  0  0  0  0
  -25.3570  -31.5910   26.2280 C   0  0  0  0  0  1  0  0  0  0  0  0
  -27.0520  -30.4420   24.7940 C   0  0  0  0  0  1  0  0  0  0  0  0
  -27.6000  -32.6250   25.8380 C   0  0  0  0  0  1  0  0  0  0  0  0
  -28.7740  -16.3520   19.1230 C   0  0  0  0  0  1  0  0  0  0  0  0
  -30.2070  -16.4090   19.6690 C   0  0  2  0  0  0  0  0  0  0  0  0
  -30.7440  -14.9600   20.2500 C   0  0  0  0  0  0  0  0  0  0  0  0
  -30.4970  -12.6410   19.3730 C   0  0  0  0  0  2  0  0  0  0  0  0
  -29.5860  -12.6350   18.1300 C   0  0  0  0  0  2  0  0  0  0  0  0
  -28.1140  -12.4250   18.5360 C   0  0  0  0  0  2  0  0  0  0  0  0
  -27.6830  -13.3300   19.7170 C   0  0  0  0  0  3  0  0  0  0  0  0
  -28.7450  -13.4390   20.8370 C   0  0  0  0  0  2  0  0  0  0  0  0
  -30.0450  -13.7610   20.2300 N   0  0  0  0  0  0  0  0  0  0  0  0
  -31.9660  -14.8650   20.3540 O   0  0  0  0  0  0  0  0  0  0  0  0
  -25.2990  -13.9330   20.4130 C   0  0  0  0  0  0  0  0  0  0  0  0
  -24.2350  -13.1590   20.7710 C   0  0  0  0  0  0  0  0  0  0  0  0
  -24.7150  -11.8130   20.7830 C   0  0  0  0  0  0  0  0  0  0  0  0
  -26.3520  -13.0500   20.2180 N   0  0  0  0  0  0  0  0  0  0  0  0
  -26.0110  -11.7750   20.5080 N   0  0  0  0  0  0  0  0  0  0  0  0
  -24.0040  -10.5480   20.9720 C   0  0  0  0  0  0  0  0  0  0  0  0
  -24.4220   -9.6100   21.9420 C   0  0  0  0  0  3  0  0  0  0  0  0
  -23.7090   -8.4060   22.1210 C   0  0  0  0  0  3  0  0  0  0  0  0
  -22.5680   -8.1340   21.3280 C   0  0  0  0  0  0  0  0  0  0  0  0
  -22.1750   -9.0600   20.3470 C   0  0  0  0  0  3  0  0  0  0  0  0
  -22.8870  -10.2560   20.1660 C   0  0  0  0  0  3  0  0  0  0  0  0
  -21.8280   -6.9810   21.4160 O   0  0  0  0  0  0  0  0  0  0  0  0
  -21.7450   -6.2710   22.5850 C   0  0  0  0  0  0  0  0  0  0  0  0
  -21.2580   -6.8500   23.7770 C   0  0  0  0  0  3  0  0  0  0  0  0
  -21.1250   -6.0630   24.9400 C   0  0  0  0  0  3  0  0  0  0  0  0
  -21.4680   -4.6990   24.9100 C   0  0  0  0  0  0  0  0  0  0  0  0
  -21.9480   -4.1180   23.7220 C   0  0  0  0  0  3  0  0  0  0  0  0
  -22.0820   -4.9020   22.5630 C   0  0  0  0  0  0  0  0  0  0  0  0
  -22.5260   -4.3350   21.4160 F   0  0  0  0  0  0  0  0  0  0  0  0
  -21.3340   -3.9390   26.0220 F   0  0  0  0  0  0  0  0  0  0  0  0
  -22.8240  -13.6250   20.9890 C   0  0  0  0  0  0  0  0  0  0  0  0
  -22.0810  -12.9440   21.8520 N   0  0  0  0  0  0  0  0  0  0  0  0
  -22.3890  -14.6300   20.4270 O   0  0  0  0  0  0  0  0  0  0  0  0
  -22.4470  -12.1350   22.3310 H   0  0  0  0  0  0  0  0  0  0  0  0
  -21.1320  -13.2360   22.0420 H   0  0  0  0  0  0  0  0  0  0  0  0
  -25.4410  -15.3050   20.2090 N   0  0  0  0  0  0  0  0  0  0  0  0
  -24.6510  -15.9350   20.2890 H   0  0  0  0  0  0  0  0  0  0  0  0
  -26.2800  -15.7600   19.8780 H   0  0  0  0  0  0  0  0  0  0  0  0
  -31.0870  -16.7090   18.3940 C   0  0  1  0  0  0  0  0  0  0  0  0
  -31.0670  -15.6900   17.5320 F   0  0  0  0  0  0  0  0  0  0  0  0
  -30.6390  -17.7830   17.7340 F   0  0  0  0  0  0  0  0  0  0  0  0
  -32.3660  -16.9590   18.6840 F   0  0  0  0  0  0  0  0  0  0  0  0
  1  2  2  0
  3  5  1  0
  4  3  2  0
  4  1  1  0
  5  7  1  0
  5  2  1  0
  7  6  1  0
  8  9  1  0
  8  7  1  0
 10 11  1  0
 10  9  2  0
 12 23  2  0
 13 11  1  0
 13 18  1  0
 14 22  1  0
 14 24  1  0
 15 21  1  0
 15 17  1  0
 16 22  1  0
 17 18  2  0
 17 16  1  0
 19 13  2  0
 20 19  1  0
 20 15  2  0
 21 14  1  0
 22 12  1  0
 24 26  2  0
 25 24  1  0
 27 25  1  0
 28 37  2  0
 28 33  1  0
 29 25  1  0
 29 33  1  0
 30 29  1  0
 31 32  1  0
 31 30  1  0
 32 28  1  0
 33 34  2  0
 34 35  1  0
 36 35  2  0
 37 36  1  0
 38 12  1  0
 38 39  1  0
 38 48  1  0
 39 42  1  0
 40 44  1  0
 40 39  1  0
 41 40  2  0
 44 43  1  0
 46 44  1  0
 46 47  1  0
 46 45  1  0
 48 51  1  1
 48 49  1  0
 50 48  1  0
 53 52  1  6
 53 54  1  0
 53  4  1  0
 54 61  2  0
 55 60  1  0
 56 57  1  0
 56 55  1  0
 58 57  1  0
 58 65  1  0
 58 59  1  0
 60 54  1  0
 60 59  1  0
 62 63  2  0
 63 64  1  0
 63 82  1  0
 64 67  1  0
 65 62  1  0
 65 66  1  0
 66 64  2  0
 67 68  1  0
 68 69  2  0
 70 73  1  0
 70 69  1  0
 71 70  2  0
 72 71  1  0
 72 67  2  0
 73 74  1  0
 74 75  1  0
 75 76  2  0
 77 76  1  0
 77 81  1  0
 78 77  2  0
 79 74  2  0
 79 78  1  0
 80 79  1  0
 82 83  1  0
 83 86  1  0
 83 85  1  0
 84 82  2  0
 87 88  1  0
 87 62  1  0
 89 87  1  0
 90 93  1  1
 90 53  1  0
 91 90  1  0
 92 90  1  0
M  ISO  4  10 101  11 101  53 100  54 100
M  END
>  <TORSDO>  (64) 
F 22

>  <SCORE>  (64) 
-13.297

>  <name>  (64) 
63

>  <ligand_id>  (64) 
63

>  <original_smiles>  (64) 
[H]c1c([H])c([H])c2c(c1[H])C([H])([H])C([H])([H])C([H])([H])C2([H])N([H])C(=O)C1([H])N(C(=O)C([H])(N([H])C(=O)C([H])(N([H])C([H])([H])[H])C([H])([H])[H])C(C([H])([H])[H])(C([H])([H])[H])C([H])([H])[H])C([H])([H])c2c([H])c(OC([H])([H])C([H])([H])C([H])([H])C([H])(n3c([H])c([H])c(C(C(=O)N4C([H])([H])C([H])([H])C([H])([H])C([H])(n5nc(-c6c([H])c([H])c(Oc7c([H])c([H])c(F)c([H])c7F)c([H])c6[H])c(C(=O)N([H])[H])c5N([H])[H])C4([H])[H])(C([H])([H])[H])C(F)(F)F)c3[H])C([H])([H])[H])c([H])c([H])c2C1([H])[H]

>  <smiles>  (64) 
[H]c1c([H])c([H])c2c(c1[H])C([H])([H])C([H])([H])C([H])([H])C2([H])N([H])C(=O)C1([H])N(C(=O)C([H])(N([H])C(=O)C([H])(N([H])C([H])([H])[H])C([H])([H])[H])C(C([H])([H])[H])(C([H])([H])[H])C([H])([H])[H])C([H])([H])c2c([H])c(OC([H])([H])C([H])([H])C([H])([H])C([H])(n3c([H])c([H])c(C(C(=O)N4C([H])([H])C([H])([H])C([H])([H])C([H])(n5nc(-c6c([H])c([H])c(Oc7c([H])c([H])c(F)c([H])c7F)c([H])c6[H])c(C(=O)N([H])[H])c5N([H])[H])C4([H])[H])(C([H])([H])[H])C(F)(F)F)c3[H])C([H])([H])[H])c([H])c([H])c2C1([H])[H]

$$$$
64:0:0
     RDKit          3D

 93101  0  0  1  0  0  0  0  0999 V2000
  -28.8260  -18.2750   19.7690 C   0  0  0  0  0  3  0  0  0  0  0  0
  -29.8740  -17.6420   20.4860 C   0  0  0  0  0  0  0  0  0  0  0  0
  -30.5070  -19.7240   21.3110 C   0  0  0  0  0  0  0  0  0  0  0  0
  -29.3940  -20.3370   20.6690 C   0  0  0  0  0  0  0  0  0  0  0  0
  -31.4710  -20.4920   22.1940 C   0  0  0  0  0  1  0  0  0  0  0  0
  -28.5810  -19.6090   19.8610 N   0  0  0  0  0  0  0  0  0  0  0  0
  -30.7340  -18.3880   21.2300 N   0  0  0  0  0  0  0  0  0  0  0  0
  -29.0730  -15.8160   21.9550 C   0  0  0  0  0  1  0  0  0  0  0  0
  -29.9050  -16.1030   20.6770 C   0  0  0  0  0  3  0  0  0  0  0  0
  -31.6980  -14.5960   21.9040 C   0  0  0  0  0  1  0  0  0  0  0  0
  -32.4770  -16.3280   20.3790 C   0  0  0  0  0  1  0  0  0  0  0  0
  -31.3030  -15.3230   20.5840 C   0  0  2  0  0  0  0  0  0  0  0  0
  -31.3600  -14.2670   19.4040 C   0  0  0  0  0  0  0  0  0  0  0  0
  -30.7350  -12.1250   18.2980 C   0  0  0  0  0  2  0  0  0  0  0  0
  -29.6490  -12.3040   17.2180 C   0  0  0  0  0  2  0  0  0  0  0  0
  -28.2430  -12.2390   17.8410 C   0  0  0  0  0  2  0  0  0  0  0  0
  -28.1140  -13.1620   19.0770 C   0  0  0  0  0  3  0  0  0  0  0  0
  -29.2910  -12.9410   20.0510 C   0  0  0  0  0  2  0  0  0  0  0  0
  -30.5530  -13.1640   19.3330 N   0  0  0  0  0  0  0  0  0  0  0  0
  -32.2390  -14.4240   18.5490 O   0  0  0  0  0  0  0  0  0  0  0  0
  -25.9250  -13.9590   20.1730 C   0  0  0  0  0  0  0  0  0  0  0  0
  -24.8540  -13.2710   20.6750 C   0  0  0  0  0  0  0  0  0  0  0  0
  -25.1660  -11.8860   20.5240 C   0  0  0  0  0  0  0  0  0  0  0  0
  -26.8280  -12.9960   19.7470 N   0  0  0  0  0  0  0  0  0  0  0  0
  -26.3830  -11.7420   20.0170 N   0  0  0  0  0  0  0  0  0  0  0  0
  -24.3560  -10.6890   20.7760 C   0  0  0  0  0  0  0  0  0  0  0  0
  -24.7670   -9.6990   21.6950 C   0  0  0  0  0  3  0  0  0  0  0  0
  -23.9600   -8.5660   21.9340 C   0  0  0  0  0  3  0  0  0  0  0  0
  -22.7270   -8.4150   21.2550 C   0  0  0  0  0  0  0  0  0  0  0  0
  -22.3340   -9.3930   20.3240 C   0  0  0  0  0  3  0  0  0  0  0  0
  -23.1410  -10.5170   20.0830 C   0  0  0  0  0  3  0  0  0  0  0  0
  -21.8910   -7.3360   21.4050 O   0  0  0  0  0  0  0  0  0  0  0  0
  -21.7720   -6.6780   22.6030 C   0  0  0  0  0  0  0  0  0  0  0  0
  -21.3730   -7.3450   23.7820 C   0  0  0  0  0  3  0  0  0  0  0  0
  -21.1960   -6.6160   24.9750 C   0  0  0  0  0  3  0  0  0  0  0  0
  -21.4060   -5.2250   24.9900 C   0  0  0  0  0  0  0  0  0  0  0  0
  -21.7970   -4.5590   23.8150 C   0  0  0  0  0  3  0  0  0  0  0  0
  -21.9760   -5.2840   22.6230 C   0  0  0  0  0  0  0  0  0  0  0  0
  -22.3330   -4.6350   21.4890 F   0  0  0  0  0  0  0  0  0  0  0  0
  -21.2270   -4.5240   26.1340 F   0  0  0  0  0  0  0  0  0  0  0  0
  -23.5680  -13.8630   21.1770 C   0  0  0  0  0  0  0  0  0  0  0  0
  -22.9390  -13.2190   22.1550 N   0  0  0  0  0  0  0  0  0  0  0  0
  -23.1370  -14.9270   20.7350 O   0  0  0  0  0  0  0  0  0  0  0  0
  -23.3030  -12.3570   22.5300 H   0  0  0  0  0  0  0  0  0  0  0  0
  -22.0810  -13.5960   22.5330 H   0  0  0  0  0  0  0  0  0  0  0  0
  -26.1970  -15.3150   20.0210 N   0  0  0  0  0  0  0  0  0  0  0  0
  -25.5170  -16.0250   20.2670 H   0  0  0  0  0  0  0  0  0  0  0  0
  -27.0050  -15.6900   19.5440 H   0  0  0  0  0  0  0  0  0  0  0  0
  -28.9260  -21.7610   21.0130 C   0  0  0  0  0  2  0  0  0  0  0  0
  -29.1670  -22.8690   19.9590 C   0  0  0  0  0  2  0  0  0  0  0  0
  -28.6450  -24.2550   20.4340 C   0  0  0  0  0  2  0  0  0  0  0  0
  -28.8020  -25.4020   19.4060 C   0  0  0  0  0  2  0  0  0  0  0  0
  -28.6350  -26.7080   19.9810 O   0  0  0  0  0  0  0  0  0  0  0  0
  -24.6970  -31.7180   23.1290 C   0  0  0  0  0  0  0  0  0  0  0  0
  -27.4160  -27.3610   19.9780 C   0  0  0  0  0  0  0  0  0  0  0  0
  -23.5100  -30.3240   21.4640 C   0  0  0  0  0  3  0  0  0  0  0  0
  -24.9860  -28.8270   20.0170 C   0  0  0  0  0  0  0  0  0  0  0  0
  -26.0280  -30.7250   21.2680 C   0  0  0  0  0  2  0  0  0  0  0  0
  -26.1340  -29.3620   20.6110 C   0  0  0  0  0  0  0  0  0  0  0  0
  -27.3470  -28.6360   20.5880 C   0  0  0  0  0  3  0  0  0  0  0  0
  -26.2440  -26.8330   19.3890 C   0  0  0  0  0  3  0  0  0  0  0  0
  -25.0360  -27.5610   19.4050 C   0  0  0  0  0  3  0  0  0  0  0  0
  -23.7290  -29.6670   20.0740 C   0  0  0  0  0  2  0  0  0  0  0  0
  -24.7640  -30.9370   22.0130 N   0  0  0  0  0  0  0  0  0  0  0  0
  -23.6120  -31.9630   23.6740 O   0  0  0  0  0  0  0  0  0  0  0  0
  -22.8760  -29.2790   22.4110 C   0  0  0  0  0  0  0  0  0  0  0  0
  -21.5560  -29.0750   22.2780 N   0  0  0  0  0  0  0  0  0  0  0  0
  -23.5690  -28.6560   23.2200 O   0  0  0  0  0  0  0  0  0  0  0  0
  -21.0560  -29.6320   21.6000 H   0  0  0  0  0  0  0  0  0  0  0  0
  -18.2070  -27.7940   22.7230 C   0  0  0  0  0  0  0  0  0  0  0  0
  -20.7550  -28.1100   23.0310 C   0  0  0  0  0  3  0  0  0  0  0  0
  -20.8990  -26.6860   22.4450 C   0  0  0  0  0  2  0  0  0  0  0  0
  -19.8190  -26.3450   21.4150 C   0  0  0  0  0  2  0  0  0  0  0  0
  -18.4250  -26.4540   22.0410 C   0  0  0  0  0  2  0  0  0  0  0  0
  -19.3010  -28.5770   23.1750 C   0  0  0  0  0  0  0  0  0  0  0  0
  -19.0450  -29.8320   23.7700 C   0  0  0  0  0  3  0  0  0  0  0  0
  -17.7270  -30.3020   23.9210 C   0  0  0  0  0  3  0  0  0  0  0  0
  -16.6470  -29.5120   23.4890 C   0  0  0  0  0  3  0  0  0  0  0  0
  -16.8870  -28.2600   22.8950 C   0  0  0  0  0  3  0  0  0  0  0  0
  -25.9720  -32.3610   23.7580 C   0  0  0  0  0  3  0  0  0  0  0  0
  -25.6330  -33.7380   24.1430 N   0  0  0  0  0  0  0  0  0  0  0  0
  -25.9300  -34.8250   23.4170 C   0  0  0  0  0  0  0  0  0  0  0  0
  -26.5920  -34.7750   22.3760 O   0  0  0  0  0  0  0  0  0  0  0  0
  -25.0490  -33.8480   24.9580 H   0  0  0  0  0  0  0  0  0  0  0  0
  -24.1560  -36.5840   23.1430 C   0  0  0  0  0  1  0  0  0  0  0  0
  -25.4140  -36.1820   23.9290 C   0  0  0  0  0  3  0  0  0  0  0  0
  -27.5340  -37.0870   24.7750 C   0  0  0  0  0  1  0  0  0  0  0  0
  -26.4200  -37.2640   23.8480 N   0  0  0  0  0  0  0  0  0  0  0  0
  -25.9930  -38.1680   24.0350 H   0  0  0  0  0  0  0  0  0  0  0  0
  -26.5250  -31.5580   24.9990 C   0  0  1  0  0  0  0  0  0  0  0  0
  -25.4530  -31.2480   26.0700 C   0  0  0  0  0  1  0  0  0  0  0  0
  -27.1420  -30.2170   24.5430 C   0  0  0  0  0  1  0  0  0  0  0  0
  -27.6610  -32.3570   25.6790 C   0  0  0  0  0  1  0  0  0  0  0  0
  1  6  2  0
  1  2  1  0
  2  9  1  0
  2  7  2  0
  3  5  1  0
  4 49  1  0
  4  3  2  0
  6  4  1  0
  7  3  1  0
  9  8  1  0
 12 11  1  6
 12  9  1  0
 12 10  1  0
 13 12  1  0
 14 19  1  0
 15 16  1  0
 15 14  1  0
 17 16  1  0
 17 24  1  0
 17 18  1  0
 19 13  1  0
 19 18  1  0
 20 13  2  0
 21 22  2  0
 22 41  1  0
 23 22  1  0
 23 26  1  0
 24 25  1  0
 24 21  1  0
 25 23  2  0
 26 27  1  0
 27 28  2  0
 29 32  1  0
 29 28  1  0
 30 29  2  0
 31 30  1  0
 31 26  2  0
 32 33  1  0
 33 38  2  0
 33 34  1  0
 34 35  2  0
 35 36  1  0
 36 40  1  0
 37 36  2  0
 38 37  1  0
 39 38  1  0
 41 42  1  0
 42 44  1  0
 42 45  1  0
 43 41  2  0
 46 21  1  0
 46 47  1  0
 48 46  1  0
 50 51  1  0
 50 49  1  0
 52 53  1  0
 52 51  1  0
 54 65  2  0
 55 53  1  0
 55 60  1  0
 56 64  1  0
 56 66  1  0
 57 63  1  0
 57 59  1  0
 58 64  1  0
 59 58  1  0
 60 59  2  0
 61 62  1  0
 61 55  2  0
 62 57  2  0
 63 56  1  0
 64 54  1  0
 66 68  2  0
 67 66  1  0
 69 67  1  0
 70 79  2  0
 70 75  1  0
 71 67  1  0
 71 75  1  0
 72 71  1  0
 73 74  1  0
 73 72  1  0
 74 70  1  0
 75 76  2  0
 76 77  1  0
 78 77  2  0
 79 78  1  0
 80 54  1  0
 80 81  1  0
 80 90  1  0
 81 84  1  0
 82 86  1  0
 82 81  1  0
 83 82  2  0
 86 85  1  0
 88 86  1  0
 88 89  1  0
 88 87  1  0
 90 93  1  1
 90 91  1  0
 92 90  1  0
M  ISO  4  12 100  13 100  52 101  53 101
M  END
>  <TORSDO>  (65) 
F 22

>  <SCORE>  (65) 
-10.562

>  <name>  (65) 
64

>  <ligand_id>  (65) 
64

>  <original_smiles>  (65) 
[H]c1nc(C([H])([H])C([H])([H])C([H])([H])C([H])([H])Oc2c([H])c([H])c3c(c2[H])C([H])([H])N(C(=O)C([H])(N([H])C(=O)C([H])(N([H])C([H])([H])[H])C([H])([H])[H])C(C([H])([H])[H])(C([H])([H])[H])C([H])([H])[H])C([H])(C(=O)N([H])C2([H])c4c([H])c([H])c([H])c([H])c4C([H])([H])C([H])([H])C2([H])[H])C3([H])[H])c(C([H])([H])[H])nc1C([H])(C([H])([H])[H])C(C(=O)N1C([H])([H])C([H])([H])C([H])([H])C([H])(n2nc(-c3c([H])c([H])c(Oc4c([H])c([H])c(F)c([H])c4F)c([H])c3[H])c(C(=O)N([H])[H])c2N([H])[H])C1([H])[H])(C([H])([H])[H])C([H])([H])[H]

>  <smiles>  (65) 
[H]c1nc(C([H])([H])C([H])([H])C([H])([H])C([H])([H])Oc2c([H])c([H])c3c(c2[H])C([H])([H])N(C(=O)C([H])(N([H])C(=O)C([H])(N([H])C([H])([H])[H])C([H])([H])[H])C(C([H])([H])[H])(C([H])([H])[H])C([H])([H])[H])C([H])(C(=O)N([H])C2([H])c4c([H])c([H])c([H])c([H])c4C([H])([H])C([H])([H])C2([H])[H])C3([H])[H])c(C([H])([H])[H])nc1C([H])(C([H])([H])[H])C(C(=O)N1C([H])([H])C([H])([H])C([H])([H])C([H])(n2nc(-c3c([H])c([H])c(Oc4c([H])c([H])c(F)c([H])c4F)c([H])c3[H])c(C(=O)N([H])[H])c2N([H])[H])C1([H])[H])(C([H])([H])[H])C([H])([H])[H]

$$$$
65:0:0
     RDKit          3D

 94102  0  0  1  0  0  0  0  0999 V2000
  -29.1640  -21.5220   20.0850 C   0  0  0  0  0  0  0  0  0  0  0  0
  -29.5980  -19.4940   20.6070 C   0  0  0  0  0  0  0  0  0  0  0  0
  -28.1090  -21.0770   20.7770 N   0  0  0  0  0  0  0  0  0  0  0  0
  -28.3930  -19.7740   21.1230 N   0  0  0  0  0  0  0  0  0  0  0  0
  -30.1210  -20.5510   19.9140 N   0  0  0  0  0  0  0  0  0  0  0  0
  -29.1790  -22.9130   19.4350 C   0  0  0  0  0  2  0  0  0  0  0  0
  -28.6170  -24.1350   20.2420 C   0  0  0  0  0  2  0  0  0  0  0  0
  -28.6860  -25.4840   19.4460 C   0  0  0  0  0  2  0  0  0  0  0  0
  -28.4730  -26.7030   20.2020 O   0  0  0  0  0  0  0  0  0  0  0  0
  -24.5990  -31.8920   23.2120 C   0  0  0  0  0  0  0  0  0  0  0  0
  -27.2800  -27.4150   20.1570 C   0  0  0  0  0  0  0  0  0  0  0  0
  -23.4090  -30.4760   21.5710 C   0  0  0  0  0  3  0  0  0  0  0  0
  -24.8780  -28.9380   20.1550 C   0  0  0  0  0  0  0  0  0  0  0  0
  -25.9380  -30.8370   21.3870 C   0  0  0  0  0  2  0  0  0  0  0  0
  -26.0320  -29.4620   20.7470 C   0  0  0  0  0  0  0  0  0  0  0  0
  -27.2320  -28.7080   20.7440 C   0  0  0  0  0  3  0  0  0  0  0  0
  -26.0980  -26.9100   19.5690 C   0  0  0  0  0  3  0  0  0  0  0  0
  -24.9070  -27.6640   19.5630 C   0  0  0  0  0  3  0  0  0  0  0  0
  -23.6310  -29.7950   20.1940 C   0  0  0  0  0  2  0  0  0  0  0  0
  -24.6660  -31.0850   22.1130 N   0  0  0  0  0  0  0  0  0  0  0  0
  -23.5130  -32.1600   23.7450 O   0  0  0  0  0  0  0  0  0  0  0  0
  -22.7570  -29.4560   22.5320 C   0  0  0  0  0  0  0  0  0  0  0  0
  -21.4360  -29.2560   22.3900 N   0  0  0  0  0  0  0  0  0  0  0  0
  -23.4360  -28.8470   23.3620 O   0  0  0  0  0  0  0  0  0  0  0  0
  -20.9450  -29.8040   21.6980 H   0  0  0  0  0  0  0  0  0  0  0  0
  -18.0720  -28.0170   22.8540 C   0  0  0  0  0  0  0  0  0  0  0  0
  -20.6220  -28.3130   23.1590 C   0  0  0  0  0  3  0  0  0  0  0  0
  -20.7530  -26.8790   22.5970 C   0  0  0  0  0  2  0  0  0  0  0  0
  -19.6700  -26.5310   21.5700 C   0  0  0  0  0  2  0  0  0  0  0  0
  -18.2770  -26.6640   22.1930 C   0  0  0  0  0  2  0  0  0  0  0  0
  -19.1740  -28.7980   23.2930 C   0  0  0  0  0  0  0  0  0  0  0  0
  -18.9300  -30.0640   23.8660 C   0  0  0  0  0  3  0  0  0  0  0  0
  -17.6170  -30.5490   24.0120 C   0  0  0  0  0  3  0  0  0  0  0  0
  -16.5280  -29.7640   23.5910 C   0  0  0  0  0  3  0  0  0  0  0  0
  -16.7570  -28.5010   23.0170 C   0  0  0  0  0  3  0  0  0  0  0  0
  -25.8780  -32.5330   23.8330 C   0  0  0  0  0  3  0  0  0  0  0  0
  -25.5560  -33.9280   24.1660 N   0  0  0  0  0  0  0  0  0  0  0  0
  -25.8800  -34.9850   23.4080 C   0  0  0  0  0  0  0  0  0  0  0  0
  -26.5500  -34.8880   22.3760 O   0  0  0  0  0  0  0  0  0  0  0  0
  -24.9620  -34.0740   24.9680 H   0  0  0  0  0  0  0  0  0  0  0  0
  -24.1430  -36.7700   23.0470 C   0  0  0  0  0  1  0  0  0  0  0  0
  -25.3790  -36.3690   23.8680 C   0  0  0  0  0  3  0  0  0  0  0  0
  -27.4950  -37.2680   24.7300 C   0  0  0  0  0  1  0  0  0  0  0  0
  -26.4070  -37.4290   23.7690 N   0  0  0  0  0  0  0  0  0  0  0  0
  -25.9930  -38.3450   23.9120 H   0  0  0  0  0  0  0  0  0  0  0  0
  -26.4030  -31.7650   25.1090 C   0  0  1  0  0  0  0  0  0  0  0  0
  -25.3100  -31.5090   26.1730 C   0  0  0  0  0  1  0  0  0  0  0  0
  -27.0080  -30.3980   24.7140 C   0  0  0  0  0  1  0  0  0  0  0  0
  -27.5370  -32.5740   25.7780 C   0  0  0  0  0  1  0  0  0  0  0  0
  -30.2620  -18.1290   20.8490 C   0  0  0  0  0  2  0  0  0  0  0  0
  -29.7800  -16.9380   19.9610 C   0  0  0  0  0  2  0  0  0  0  0  0
  -30.7030  -14.5620   20.0390 C   0  0  0  0  0  0  0  0  0  0  0  0
  -30.3950  -12.3800   18.9230 C   0  0  0  0  0  2  0  0  0  0  0  0
  -29.3830  -12.5920   17.7750 C   0  0  0  0  0  2  0  0  0  0  0  0
  -27.9340  -12.4570   18.2850 C   0  0  0  0  0  2  0  0  0  0  0  0
  -27.6730  -13.2790   19.5770 C   0  0  0  0  0  3  0  0  0  0  0  0
  -28.7880  -13.0320   20.6210 C   0  0  0  0  0  2  0  0  0  0  0  0
  -30.0800  -13.3510   19.9870 N   0  0  0  0  0  0  0  0  0  0  0  0
  -31.7900  -14.7790   19.4960 O   0  0  0  0  0  0  0  0  0  0  0  0
  -29.9330  -15.5670   20.5200 N   0  0  0  0  0  0  0  0  0  0  0  0
  -29.1270  -15.2340   21.0270 H   0  0  0  0  0  0  0  0  0  0  0  0
  -25.3330  -13.9090   20.4460 C   0  0  0  0  0  0  0  0  0  0  0  0
  -24.2740  -13.1450   20.8570 C   0  0  0  0  0  0  0  0  0  0  0  0
  -24.7070  -11.7870   20.7600 C   0  0  0  0  0  0  0  0  0  0  0  0
  -26.3440  -13.0160   20.1250 N   0  0  0  0  0  0  0  0  0  0  0  0
  -25.9740  -11.7340   20.3700 N   0  0  0  0  0  0  0  0  0  0  0  0
  -23.9690  -10.5340   20.9590 C   0  0  0  0  0  0  0  0  0  0  0  0
  -24.4030   -9.5620   21.8880 C   0  0  0  0  0  3  0  0  0  0  0  0
  -23.6670   -8.3720   22.0740 C   0  0  0  0  0  3  0  0  0  0  0  0
  -22.4850   -8.1450   21.3300 C   0  0  0  0  0  0  0  0  0  0  0  0
  -22.0710   -9.1050   20.3890 C   0  0  0  0  0  3  0  0  0  0  0  0
  -22.8070  -10.2870   20.2010 C   0  0  0  0  0  3  0  0  0  0  0  0
  -21.7200   -7.0080   21.4250 O   0  0  0  0  0  0  0  0  0  0  0  0
  -21.6390   -6.2900   22.5920 C   0  0  0  0  0  0  0  0  0  0  0  0
  -21.1460   -6.8620   23.7850 C   0  0  0  0  0  3  0  0  0  0  0  0
  -21.0160   -6.0700   24.9430 C   0  0  0  0  0  3  0  0  0  0  0  0
  -21.3680   -4.7070   24.9080 C   0  0  0  0  0  0  0  0  0  0  0  0
  -21.8530   -4.1340   23.7190 C   0  0  0  0  0  3  0  0  0  0  0  0
  -21.9860   -4.9240   22.5640 C   0  0  0  0  0  0  0  0  0  0  0  0
  -22.4340   -4.3630   21.4150 F   0  0  0  0  0  0  0  0  0  0  0  0
  -21.2350   -3.9430   26.0180 F   0  0  0  0  0  0  0  0  0  0  0  0
  -22.9070  -13.6390   21.2310 C   0  0  0  0  0  0  0  0  0  0  0  0
  -22.2180  -12.9230   22.1130 N   0  0  0  0  0  0  0  0  0  0  0  0
  -22.4600  -14.6920   20.7770 O   0  0  0  0  0  0  0  0  0  0  0  0
  -22.5930  -12.0700   22.5000 H   0  0  0  0  0  0  0  0  0  0  0  0
  -21.3040  -13.2350   22.4080 H   0  0  0  0  0  0  0  0  0  0  0  0
  -25.5120  -15.2820   20.3000 N   0  0  0  0  0  0  0  0  0  0  0  0
  -24.7670  -15.9450   20.4860 H   0  0  0  0  0  0  0  0  0  0  0  0
  -26.3450  -15.7200   19.9290 H   0  0  0  0  0  0  0  0  0  0  0  0
  -31.3890  -20.6400   19.1680 C   0  0  0  0  0  3  0  0  0  0  0  0
  -30.1790  -19.6980   17.0780 C   0  0  0  0  0  1  0  0  0  0  0  0
  -31.4530  -19.7070   17.9390 C   0  0  0  0  0  2  0  0  0  0  0  0
  -32.5560  -21.2720   21.4000 C   0  0  0  0  0  1  0  0  0  0  0  0
  -32.6490  -20.5330   20.0570 C   0  0  0  0  0  2  0  0  0  0  0  0
  1  3  2  0
  2 50  1  0
  2  4  2  0
  3  4  1  0
  5  1  1  0
  5  2  1  0
  6  1  1  0
  6  7  1  0
  8  9  1  0
  8  7  1  0
 10 21  2  0
 11  9  1  0
 11 16  1  0
 12 20  1  0
 12 22  1  0
 13 19  1  0
 13 15  1  0
 14 20  1  0
 15 14  1  0
 16 15  2  0
 17 11  2  0
 18 17  1  0
 18 13  2  0
 19 12  1  0
 20 10  1  0
 22 24  2  0
 23 22  1  0
 25 23  1  0
 26 35  2  0
 26 31  1  0
 27 23  1  0
 27 31  1  0
 28 27  1  0
 29 30  1  0
 29 28  1  0
 30 26  1  0
 31 32  2  0
 32 33  1  0
 34 33  2  0
 35 34  1  0
 36 10  1  0
 36 37  1  0
 36 46  1  0
 37 40  1  0
 38 42  1  0
 38 37  1  0
 39 38  2  0
 42 41  1  0
 44 42  1  0
 44 45  1  0
 44 43  1  0
 46 49  1  1
 46 47  1  0
 48 46  1  0
 51 60  1  0
 51 50  1  0
 52 60  1  0
 53 58  1  0
 54 55  1  0
 54 53  1  0
 56 55  1  0
 56 65  1  0
 56 57  1  0
 58 52  1  0
 58 57  1  0
 59 52  2  0
 60 61  1  0
 62 63  2  0
 63 82  1  0
 64 63  1  0
 64 67  1  0
 65 66  1  0
 65 62  1  0
 66 64  2  0
 67 68  1  0
 68 69  2  0
 70 73  1  0
 70 69  1  0
 71 70  2  0
 72 71  1  0
 72 67  2  0
 73 74  1  0
 74 75  1  0
 75 76  2  0
 77 76  1  0
 77 81  1  0
 78 77  2  0
 79 74  2  0
 79 78  1  0
 80 79  1  0
 82 83  1  0
 83 86  1  0
 83 85  1  0
 84 82  2  0
 87 62  1  0
 87 88  1  0
 89 87  1  0
 90  5  1  0
 90 94  1  0
 91 92  1  0
 92 90  1  0
 94 93  1  0
M  ISO  4   8 101   9 101  52 100  60 100
M  END
>  <TORSDO>  (66) 
F 24

>  <SCORE>  (66) 
-12.302

>  <name>  (66) 
65

>  <ligand_id>  (66) 
65

>  <original_smiles>  (66) 
[H]c1c([H])c([H])c2c(c1[H])C([H])([H])C([H])([H])C([H])([H])C2([H])N([H])C(=O)C1([H])N(C(=O)C([H])(N([H])C(=O)C([H])(N([H])C([H])([H])[H])C([H])([H])[H])C(C([H])([H])[H])(C([H])([H])[H])C([H])([H])[H])C([H])([H])c2c([H])c(OC([H])([H])C([H])([H])C([H])([H])c3nnc(C([H])([H])C([H])([H])N([H])C(=O)N4C([H])([H])C([H])([H])C([H])([H])C([H])(n5nc(-c6c([H])c([H])c(Oc7c([H])c([H])c(F)c([H])c7F)c([H])c6[H])c(C(=O)N([H])[H])c5N([H])[H])C4([H])[H])n3C([H])(C([H])([H])C([H])([H])[H])C([H])([H])C([H])([H])[H])c([H])c([H])c2C1([H])[H]

>  <smiles>  (66) 
[H]c1c([H])c([H])c2c(c1[H])C([H])([H])C([H])([H])C([H])([H])C2([H])N([H])C(=O)C1([H])N(C(=O)C([H])(N([H])C(=O)C([H])(N([H])C([H])([H])[H])C([H])([H])[H])C(C([H])([H])[H])(C([H])([H])[H])C([H])([H])[H])C([H])([H])c2c([H])c(OC([H])([H])C([H])([H])C([H])([H])c3nnc(C([H])([H])C([H])([H])N([H])C(=O)N4C([H])([H])C([H])([H])C([H])([H])C([H])(n5nc(-c6c([H])c([H])c(Oc7c([H])c([H])c(F)c([H])c7F)c([H])c6[H])c(C(=O)N([H])[H])c5N([H])[H])C4([H])[H])n3C([H])(C([H])([H])C([H])([H])[H])C([H])([H])C([H])([H])[H])c([H])c([H])c2C1([H])[H]

$$$$
66:0:0
     RDKit          3D

 96104  0  0  1  0  0  0  0  0999 V2000
  -30.7740  -20.0300   20.6790 C   0  0  0  0  0  3  0  0  0  0  0  0
  -29.9480  -20.9250   19.9470 C   0  0  0  0  0  0  0  0  0  0  0  0
  -28.9990  -20.2380   19.1350 C   0  0  0  0  0  0  0  0  0  0  0  0
  -29.8160  -18.1640   19.7790 C   0  0  0  0  0  0  0  0  0  0  0  0
  -30.7340  -18.6840   20.5760 N   0  0  0  0  0  0  0  0  0  0  0  0
  -28.9350  -18.8860   19.1000 N   0  0  0  0  0  0  0  0  0  0  0  0
  -30.8540  -22.8850   21.3590 C   0  0  0  0  0  1  0  0  0  0  0  0
  -31.4600  -22.6120   18.9610 C   0  0  0  0  0  1  0  0  0  0  0  0
  -30.3020  -22.4670   19.9730 C   0  0  1  0  0  0  0  0  0  0  0  0
  -29.2550  -23.5900   19.5590 C   0  0  0  0  0  2  0  0  0  0  0  0
  -28.2210  -24.1640   20.5710 C   0  0  0  0  0  2  0  0  0  0  0  0
  -28.4990  -25.6080   21.1030 C   0  0  0  0  0  2  0  0  0  0  0  0
  -28.4170  -26.6820   20.1440 O   0  0  0  0  0  0  0  0  0  0  0  0
  -24.5950  -31.8860   23.2310 C   0  0  0  0  0  0  0  0  0  0  0  0
  -27.2580  -27.4300   20.1750 C   0  0  0  0  0  0  0  0  0  0  0  0
  -23.3990  -30.4760   21.5900 C   0  0  0  0  0  3  0  0  0  0  0  0
  -24.8610  -28.9350   20.1760 C   0  0  0  0  0  0  0  0  0  0  0  0
  -25.9250  -30.8410   21.3970 C   0  0  0  0  0  2  0  0  0  0  0  0
  -26.0180  -29.4650   20.7620 C   0  0  0  0  0  0  0  0  0  0  0  0
  -27.2220  -28.7210   20.7560 C   0  0  0  0  0  3  0  0  0  0  0  0
  -26.0870  -26.9140   19.5860 C   0  0  0  0  0  3  0  0  0  0  0  0
  -24.8900  -27.6590   19.5850 C   0  0  0  0  0  3  0  0  0  0  0  0
  -23.6150  -29.7930   20.2130 C   0  0  0  0  0  2  0  0  0  0  0  0
  -24.6580  -31.0830   22.1300 N   0  0  0  0  0  0  0  0  0  0  0  0
  -23.5120  -32.1560   23.7680 O   0  0  0  0  0  0  0  0  0  0  0  0
  -22.7490  -29.4550   22.5520 C   0  0  0  0  0  0  0  0  0  0  0  0
  -21.4240  -29.2720   22.4260 N   0  0  0  0  0  0  0  0  0  0  0  0
  -23.4340  -28.8300   23.3650 O   0  0  0  0  0  0  0  0  0  0  0  0
  -20.9330  -29.8290   21.7410 H   0  0  0  0  0  0  0  0  0  0  0  0
  -18.0470  -28.0900   22.9400 C   0  0  0  0  0  0  0  0  0  0  0  0
  -20.6090  -28.3350   23.1970 C   0  0  0  0  0  3  0  0  0  0  0  0
  -20.7010  -26.9070   22.6120 C   0  0  0  0  0  2  0  0  0  0  0  0
  -19.5910  -26.5940   21.6040 C   0  0  0  0  0  2  0  0  0  0  0  0
  -18.2130  -26.7440   22.2570 C   0  0  0  0  0  2  0  0  0  0  0  0
  -19.1730  -28.8440   23.3670 C   0  0  0  0  0  0  0  0  0  0  0  0
  -18.9640  -30.1050   23.9660 C   0  0  0  0  0  3  0  0  0  0  0  0
  -17.6630  -30.6140   24.1420 C   0  0  0  0  0  3  0  0  0  0  0  0
  -16.5520  -29.8560   23.7320 C   0  0  0  0  0  3  0  0  0  0  0  0
  -16.7460  -28.5970   23.1370 C   0  0  0  0  0  3  0  0  0  0  0  0
  -25.8780  -32.5240   23.8520 C   0  0  0  0  0  3  0  0  0  0  0  0
  -25.5640  -33.9220   24.1750 N   0  0  0  0  0  0  0  0  0  0  0  0
  -25.9040  -34.9740   23.4170 C   0  0  0  0  0  0  0  0  0  0  0  0
  -26.5850  -34.8690   22.3940 O   0  0  0  0  0  0  0  0  0  0  0  0
  -24.9630  -34.0780   24.9710 H   0  0  0  0  0  0  0  0  0  0  0  0
  -24.1810  -36.7660   23.0320 C   0  0  0  0  0  1  0  0  0  0  0  0
  -25.4080  -36.3610   23.8660 C   0  0  0  0  0  3  0  0  0  0  0  0
  -27.5280  -37.2450   24.7330 C   0  0  0  0  0  1  0  0  0  0  0  0
  -26.4420  -37.4150   23.7710 N   0  0  0  0  0  0  0  0  0  0  0  0
  -26.0330  -38.3350   23.9130 H   0  0  0  0  0  0  0  0  0  0  0  0
  -26.3980  -31.7590   25.1300 C   0  0  1  0  0  0  0  0  0  0  0  0
  -25.3060  -31.5190   26.1980 C   0  0  0  0  0  1  0  0  0  0  0  0
  -26.9860  -30.3820   24.7410 C   0  0  0  0  0  1  0  0  0  0  0  0
  -27.5440  -32.5610   25.7920 C   0  0  0  0  0  1  0  0  0  0  0  0
  -28.0090  -20.8820   18.1780 C   0  0  0  0  0  2  0  0  0  0  0  0
  -26.7000  -21.2930   18.8710 C   0  0  0  0  0  2  0  0  0  0  0  0
  -24.5530  -22.6770   18.7120 C   0  0  0  0  0  1  0  0  0  0  0  0
  -25.7880  -22.1480   17.9740 C   0  0  0  0  0  2  0  0  0  0  0  0
  -29.9060  -16.6740   19.3950 C   0  0  0  0  0  2  0  0  0  0  0  0
  -30.8510  -14.5260   20.1110 C   0  0  0  0  0  0  0  0  0  0  0  0
  -30.4740  -12.3870   18.9290 C   0  0  0  0  0  2  0  0  0  0  0  0
  -29.4800  -12.6330   17.7730 C   0  0  0  0  0  2  0  0  0  0  0  0
  -28.0220  -12.5170   18.2650 C   0  0  0  0  0  2  0  0  0  0  0  0
  -27.7620  -13.3100   19.5730 C   0  0  0  0  0  3  0  0  0  0  0  0
  -28.8650  -13.0270   20.6160 C   0  0  0  0  0  2  0  0  0  0  0  0
  -30.1590  -13.3530   19.9970 N   0  0  0  0  0  0  0  0  0  0  0  0
  -31.9700  -14.6690   19.6050 O   0  0  0  0  0  0  0  0  0  0  0  0
  -29.7260  -15.9160   21.8110 C   0  0  0  0  0  1  0  0  0  0  0  0
  -30.1080  -15.6190   20.4250 N   0  0  0  0  0  0  0  0  0  0  0  0
  -25.4090  -13.9510   20.3940 C   0  0  0  0  0  0  0  0  0  0  0  0
  -24.3450  -13.1930   20.8030 C   0  0  0  0  0  0  0  0  0  0  0  0
  -24.7800  -11.8350   20.7380 C   0  0  0  0  0  0  0  0  0  0  0  0
  -26.4270  -13.0530   20.1090 N   0  0  0  0  0  0  0  0  0  0  0  0
  -26.0540  -11.7750   20.3720 N   0  0  0  0  0  0  0  0  0  0  0  0
  -24.0420  -10.5830   20.9500 C   0  0  0  0  0  0  0  0  0  0  0  0
  -24.4860   -9.6100   21.8700 C   0  0  0  0  0  3  0  0  0  0  0  0
  -23.7510   -8.4210   22.0670 C   0  0  0  0  0  3  0  0  0  0  0  0
  -22.5560   -8.1970   21.3430 C   0  0  0  0  0  0  0  0  0  0  0  0
  -22.1310   -9.1600   20.4110 C   0  0  0  0  0  3  0  0  0  0  0  0
  -22.8660  -10.3400   20.2120 C   0  0  0  0  0  3  0  0  0  0  0  0
  -21.7900   -7.0620   21.4490 O   0  0  0  0  0  0  0  0  0  0  0  0
  -21.7410   -6.3350   22.6110 C   0  0  0  0  0  0  0  0  0  0  0  0
  -21.3420   -6.9100   23.8370 C   0  0  0  0  0  3  0  0  0  0  0  0
  -21.2380   -6.1090   24.9900 C   0  0  0  0  0  3  0  0  0  0  0  0
  -21.5260   -4.7320   24.9210 C   0  0  0  0  0  0  0  0  0  0  0  0
  -21.9190   -4.1570   23.7010 C   0  0  0  0  0  3  0  0  0  0  0  0
  -22.0240   -4.9550   22.5490 C   0  0  0  0  0  0  0  0  0  0  0  0
  -22.3840   -4.3890   21.3710 F   0  0  0  0  0  0  0  0  0  0  0  0
  -21.4200   -3.9610   26.0290 F   0  0  0  0  0  0  0  0  0  0  0  0
  -22.9700  -13.6920   21.1430 C   0  0  0  0  0  0  0  0  0  0  0  0
  -22.2710  -13.0070   22.0420 N   0  0  0  0  0  0  0  0  0  0  0  0
  -22.5240  -14.7260   20.6470 O   0  0  0  0  0  0  0  0  0  0  0  0
  -22.6440  -12.1710   22.4670 H   0  0  0  0  0  0  0  0  0  0  0  0
  -21.3500  -13.3230   22.3080 H   0  0  0  0  0  0  0  0  0  0  0  0
  -25.5930  -15.3190   20.2230 N   0  0  0  0  0  0  0  0  0  0  0  0
  -24.8470  -15.9920   20.3790 H   0  0  0  0  0  0  0  0  0  0  0  0
  -26.4380  -15.7470   19.8710 H   0  0  0  0  0  0  0  0  0  0  0  0
  2  9  1  0
  2  1  2  0
  3  2  1  0
  4  5  2  0
  5  1  1  0
  6  3  2  0
  6  4  1  0
  9  8  1  6
  9  7  1  0
 10  9  1  0
 10 11  1  0
 11 12  1  0
 13 15  1  0
 13 12  1  0
 14 25  2  0
 15 20  1  0
 16 24  1  0
 16 26  1  0
 17 23  1  0
 17 19  1  0
 18 24  1  0
 19 18  1  0
 20 19  2  0
 21 15  2  0
 22 21  1  0
 22 17  2  0
 23 16  1  0
 24 14  1  0
 26 28  2  0
 27 26  1  0
 29 27  1  0
 30 39  2  0
 30 35  1  0
 31 27  1  0
 31 35  1  0
 32 31  1  0
 33 34  1  0
 33 32  1  0
 34 30  1  0
 35 36  2  0
 36 37  1  0
 38 37  2  0
 39 38  1  0
 40 14  1  0
 40 41  1  0
 40 50  1  0
 41 44  1  0
 42 46  1  0
 42 41  1  0
 43 42  2  0
 46 45  1  0
 48 46  1  0
 48 49  1  0
 48 47  1  0
 50 53  1  1
 50 51  1  0
 52 50  1  0
 54 55  1  0
 54  3  1  0
 57 56  1  0
 57 55  1  0
 58  4  1  0
 58 68  1  0
 59 68  1  0
 60 65  1  0
 61 62  1  0
 61 60  1  0
 63 62  1  0
 63 72  1  0
 63 64  1  0
 65 59  1  0
 65 64  1  0
 66 59  2  0
 68 67  1  0
 69 70  2  0
 70 89  1  0
 71 70  1  0
 71 74  1  0
 72 73  1  0
 72 69  1  0
 73 71  2  0
 74 75  1  0
 75 76  2  0
 77 80  1  0
 77 76  1  0
 78 77  2  0
 79 78  1  0
 79 74  2  0
 80 81  1  0
 81 82  1  0
 82 83  2  0
 84 83  1  0
 84 88  1  0
 85 84  2  0
 86 81  2  0
 86 85  1  0
 87 86  1  0
 89 90  1  0
 90 93  1  0
 90 92  1  0
 91 89  2  0
 94 95  1  0
 94 69  1  0
 96 94  1  0
M  ISO  4  12 101  13 101  59 100  68 100
M  END
>  <TORSDO>  (67) 
F 24

>  <SCORE>  (67) 
-12.544

>  <name>  (67) 
66

>  <ligand_id>  (67) 
66

>  <original_smiles>  (67) 
[H]c1nc(C([H])([H])N(C(=O)N2C([H])([H])C([H])([H])C([H])([H])C([H])(n3nc(-c4c([H])c([H])c(Oc5c([H])c([H])c(F)c([H])c5F)c([H])c4[H])c(C(=O)N([H])[H])c3N([H])[H])C2([H])[H])C([H])([H])[H])nc(C([H])([H])C([H])([H])C([H])([H])C([H])([H])[H])c1C(C([H])([H])[H])(C([H])([H])[H])C([H])([H])C([H])([H])C([H])([H])Oc1c([H])c([H])c2c(c1[H])C([H])([H])N(C(=O)C([H])(N([H])C(=O)C([H])(N([H])C([H])([H])[H])C([H])([H])[H])C(C([H])([H])[H])(C([H])([H])[H])C([H])([H])[H])C([H])(C(=O)N([H])C1([H])c3c([H])c([H])c([H])c([H])c3C([H])([H])C([H])([H])C1([H])[H])C2([H])[H]

>  <smiles>  (67) 
[H]c1nc(C([H])([H])N(C(=O)N2C([H])([H])C([H])([H])C([H])([H])C([H])(n3nc(-c4c([H])c([H])c(Oc5c([H])c([H])c(F)c([H])c5F)c([H])c4[H])c(C(=O)N([H])[H])c3N([H])[H])C2([H])[H])C([H])([H])[H])nc(C([H])([H])C([H])([H])C([H])([H])C([H])([H])[H])c1C(C([H])([H])[H])(C([H])([H])[H])C([H])([H])C([H])([H])C([H])([H])Oc1c([H])c([H])c2c(c1[H])C([H])([H])N(C(=O)C([H])(N([H])C(=O)C([H])(N([H])C([H])([H])[H])C([H])([H])[H])C(C([H])([H])[H])(C([H])([H])[H])C([H])([H])[H])C([H])(C(=O)N([H])C1([H])c3c([H])c([H])c([H])c([H])c3C([H])([H])C([H])([H])C1([H])[H])C2([H])[H]

$$$$
67:0:0
     RDKit          3D

 94103  0  0  1  0  0  0  0  0999 V2000
  -29.0440  -21.0570   21.6030 C   0  0  0  0  0  2  0  0  0  0  0  0
  -30.6270  -21.4200   19.7860 C   0  0  0  0  0  2  0  0  0  0  0  0
  -28.4490  -22.5370   21.3610 C   0  0  0  0  0  2  0  0  0  0  0  0
  -30.0420  -22.8890   19.5270 C   0  0  0  0  0  2  0  0  0  0  0  0
  -29.5910  -20.3590   20.3130 C   0  0  0  0  0  3  0  0  0  0  0  0
  -29.3550  -23.6840   20.7160 C   0  0  2  0  0  0  0  0  0  0  0  0
  -30.4140  -24.1260   21.7380 C   0  0  0  0  0  1  0  0  0  0  0  0
  -30.4290  -17.8050   21.1430 C   0  0  0  0  0  3  0  0  0  0  0  0
  -30.4780  -16.5510   20.4840 C   0  0  0  0  0  0  0  0  0  0  0  0
  -29.8050  -18.1540   19.0490 C   0  0  0  0  0  3  0  0  0  0  0  0
  -29.9420  -18.8010   20.2400 N   0  0  0  0  0  0  0  0  0  0  0  0
  -30.1190  -16.8490   19.2000 N   0  0  0  0  0  0  0  0  0  0  0  0
  -30.1810  -16.1930   18.4320 H   0  0  0  0  0  0  0  0  0  0  0  0
  -31.1920  -15.1740   20.8260 C   0  0  0  0  0  0  0  0  0  0  0  0
  -31.0680  -12.8010   20.0220 C   0  0  0  0  0  2  0  0  0  0  0  0
  -30.2690  -12.7410   18.7000 C   0  0  0  0  0  2  0  0  0  0  0  0
  -28.7590  -12.6010   18.9810 C   0  0  0  0  0  2  0  0  0  0  0  0
  -28.2560  -13.5890   20.0650 C   0  0  0  0  0  3  0  0  0  0  0  0
  -29.1930  -13.6430   21.2880 C   0  0  0  0  0  2  0  0  0  0  0  0
  -30.5440  -13.9490   20.8050 N   0  0  0  0  0  0  0  0  0  0  0  0
  -32.4250  -15.1780   20.7910 O   0  0  0  0  0  0  0  0  0  0  0  0
  -25.8350  -14.2430   20.5850 C   0  0  0  0  0  0  0  0  0  0  0  0
  -24.7170  -13.5010   20.8480 C   0  0  0  0  0  0  0  0  0  0  0  0
  -25.1450  -12.1370   20.8680 C   0  0  0  0  0  0  0  0  0  0  0  0
  -26.8700  -13.3340   20.4430 N   0  0  0  0  0  0  0  0  0  0  0  0
  -26.4580  -12.0620   20.6840 N   0  0  0  0  0  0  0  0  0  0  0  0
  -24.3680  -10.8970   20.9930 C   0  0  0  0  0  0  0  0  0  0  0  0
  -24.6920   -9.9160   21.9560 C   0  0  0  0  0  3  0  0  0  0  0  0
  -23.9180   -8.7410   22.0700 C   0  0  0  0  0  3  0  0  0  0  0  0
  -22.8040   -8.5410   21.2210 C   0  0  0  0  0  0  0  0  0  0  0  0
  -22.4990   -9.5110   20.2490 C   0  0  0  0  0  3  0  0  0  0  0  0
  -23.2740  -10.6770   20.1330 C   0  0  0  0  0  3  0  0  0  0  0  0
  -22.0090   -7.4210   21.2410 O   0  0  0  0  0  0  0  0  0  0  0  0
  -21.7850   -6.7190   22.3990 C   0  0  0  0  0  0  0  0  0  0  0  0
  -21.2000   -7.3210   23.5340 C   0  0  0  0  0  3  0  0  0  0  0  0
  -20.9240   -6.5460   24.6790 C   0  0  0  0  0  3  0  0  0  0  0  0
  -21.2230   -5.1710   24.6870 C   0  0  0  0  0  0  0  0  0  0  0  0
  -21.8000   -4.5680   23.5560 C   0  0  0  0  0  3  0  0  0  0  0  0
  -22.0770   -5.3410   22.4130 C   0  0  0  0  0  0  0  0  0  0  0  0
  -22.6140   -4.7500   21.3180 F   0  0  0  0  0  0  0  0  0  0  0  0
  -20.9500   -4.4240   25.7830 F   0  0  0  0  0  0  0  0  0  0  0  0
  -23.3150  -14.0190   20.9790 C   0  0  0  0  0  0  0  0  0  0  0  0
  -22.4940  -13.3650   21.7930 N   0  0  0  0  0  0  0  0  0  0  0  0
  -22.9550  -15.0400   20.3950 O   0  0  0  0  0  0  0  0  0  0  0  0
  -22.7960  -12.5390   22.2860 H   0  0  0  0  0  0  0  0  0  0  0  0
  -21.5490  -13.6980   21.9250 H   0  0  0  0  0  0  0  0  0  0  0  0
  -26.0530  -15.6090   20.4350 N   0  0  0  0  0  0  0  0  0  0  0  0
  -25.2950  -16.2800   20.4870 H   0  0  0  0  0  0  0  0  0  0  0  0
  -26.9490  -16.0400   20.2570 H   0  0  0  0  0  0  0  0  0  0  0  0
  -29.4010  -18.7340   17.7170 C   0  0  0  0  0  2  0  0  0  0  0  0
  -26.8870  -18.2140   17.9330 C   0  0  0  0  0  1  0  0  0  0  0  0
  -27.9630  -19.2800   17.6760 C   0  0  0  0  0  2  0  0  0  0  0  0
  -28.5110  -25.0420   20.2360 C   0  0  0  0  0  2  0  0  0  0  0  0
  -28.7690  -26.5280   20.5210 O   0  0  0  0  0  0  0  0  0  0  0  0
  -24.8680  -32.0260   23.3910 C   0  0  0  0  0  0  0  0  0  0  0  0
  -27.6870  -27.4610   20.4130 C   0  0  0  0  0  0  0  0  0  0  0  0
  -23.7680  -30.6220   21.6900 C   0  0  0  0  0  3  0  0  0  0  0  0
  -25.3110  -29.1120   20.3070 C   0  0  0  0  0  0  0  0  0  0  0  0
  -26.3170  -30.9660   21.6290 C   0  0  0  0  0  2  0  0  0  0  0  0
  -26.4510  -29.5900   20.9660 C   0  0  0  0  0  0  0  0  0  0  0  0
  -27.6410  -28.7790   21.0050 C   0  0  0  0  0  3  0  0  0  0  0  0
  -26.5190  -27.0760   19.7130 C   0  0  0  0  0  3  0  0  0  0  0  0
  -25.3540  -27.8670   19.6670 C   0  0  0  0  0  3  0  0  0  0  0  0
  -24.0590  -29.9700   20.3130 C   0  0  0  0  0  2  0  0  0  0  0  0
  -25.0010  -31.2240   22.2930 N   0  0  0  0  0  0  0  0  0  0  0  0
  -23.7550  -32.2770   23.8790 O   0  0  0  0  0  0  0  0  0  0  0  0
  -23.0820  -29.5820   22.6120 C   0  0  0  0  0  0  0  0  0  0  0  0
  -21.7670  -29.3730   22.4240 N   0  0  0  0  0  0  0  0  0  0  0  0
  -23.7350  -28.9690   23.4600 O   0  0  0  0  0  0  0  0  0  0  0  0
  -21.2970  -29.9220   21.7170 H   0  0  0  0  0  0  0  0  0  0  0  0
  -18.3900  -28.1240   22.8080 C   0  0  0  0  0  0  0  0  0  0  0  0
  -20.9370  -28.4090   23.1510 C   0  0  0  0  0  3  0  0  0  0  0  0
  -21.0720  -26.9920   22.5460 C   0  0  0  0  0  2  0  0  0  0  0  0
  -20.0010  -26.6810   21.4950 C   0  0  0  0  0  2  0  0  0  0  0  0
  -18.6010  -26.7940   22.1060 C   0  0  0  0  0  2  0  0  0  0  0  0
  -19.4880  -28.8900   23.2850 C   0  0  0  0  0  0  0  0  0  0  0  0
  -19.2370  -30.1350   23.9020 C   0  0  0  0  0  3  0  0  0  0  0  0
  -17.9210  -30.6150   24.0460 C   0  0  0  0  0  3  0  0  0  0  0  0
  -16.8370  -29.8470   23.5860 C   0  0  0  0  0  3  0  0  0  0  0  0
  -17.0730  -28.6020   22.9730 C   0  0  0  0  0  3  0  0  0  0  0  0
  -26.1060  -32.6840   24.0740 C   0  0  0  0  0  3  0  0  0  0  0  0
  -26.5430  -31.9520   25.4020 C   0  0  1  0  0  0  0  0  0  0  0  0
  -25.3720  -31.6750   26.3750 C   0  0  0  0  0  1  0  0  0  0  0  0
  -27.2210  -30.5980   25.0880 C   0  0  0  0  0  1  0  0  0  0  0  0
  -27.5930  -32.8070   26.1500 C   0  0  0  0  0  1  0  0  0  0  0  0
  -25.7690  -34.0900   24.3480 N   0  0  0  0  0  0  0  0  0  0  0  0
  -26.0850  -35.1200   23.5540 C   0  0  0  0  0  0  0  0  0  0  0  0
  -26.7580  -34.9900   22.5270 O   0  0  0  0  0  0  0  0  0  0  0  0
  -25.1720  -34.2630   25.1440 H   0  0  0  0  0  0  0  0  0  0  0  0
  -24.3020  -36.8530   23.1630 C   0  0  0  0  0  1  0  0  0  0  0  0
  -25.5740  -36.5170   23.9590 C   0  0  0  0  0  3  0  0  0  0  0  0
  -27.6990  -37.5000   24.6990 C   0  0  0  0  0  1  0  0  0  0  0  0
  -26.5760  -37.5890   23.7700 N   0  0  0  0  0  0  0  0  0  0  0  0
  -26.1480  -38.5050   23.8760 H   0  0  0  0  0  0  0  0  0  0  0  0
  3  1  1  0
  4  2  1  0
  4  6  1  0
  5  2  1  0
  5  1  1  0
  6  3  1  0
  6  7  1  1
  9 14  1  0
  9  8  2  0
 10 50  1  0
 10 12  1  0
 10 11  1  0
 11  5  1  0
 11  8  1  0
 12  9  1  0
 13 12  1  0
 15 20  1  0
 16 17  1  0
 16 15  1  0
 18 17  1  0
 18 25  1  0
 18 19  1  0
 20 14  1  0
 20 19  1  0
 21 14  2  0
 22 23  2  0
 23 24  1  0
 23 42  1  0
 24 27  1  0
 25 22  1  0
 25 26  1  0
 26 24  2  0
 27 28  1  0
 28 29  2  0
 30 33  1  0
 30 29  1  0
 31 30  2  0
 32 31  1  0
 32 27  2  0
 33 34  1  0
 34 39  2  0
 34 35  1  0
 35 36  2  0
 36 37  1  0
 37 41  1  0
 38 37  2  0
 39 38  1  0
 40 39  1  0
 42 43  1  0
 43 46  1  0
 43 45  1  0
 44 42  2  0
 47 48  1  0
 47 22  1  0
 49 47  1  0
 52 50  1  0
 52 51  1  0
 53 54  1  0
 53  6  1  0
 55 66  2  0
 56 54  1  0
 56 61  1  0
 57 65  1  0
 57 67  1  0
 58 64  1  0
 58 60  1  0
 59 65  1  0
 60 61  2  0
 60 59  1  0
 62 56  2  0
 63 62  1  0
 63 58  2  0
 64 57  1  0
 65 55  1  0
 67 69  2  0
 68 67  1  0
 70 68  1  0
 71 80  2  0
 71 76  1  0
 72 68  1  0
 72 76  1  0
 73 72  1  0
 74 75  1  0
 74 73  1  0
 75 71  1  0
 76 77  2  0
 77 78  1  0
 79 78  2  0
 80 79  1  0
 81 55  1  0
 81 86  1  0
 81 82  1  0
 82 85  1  1
 82 83  1  0
 84 82  1  0
 86 89  1  0
 87 91  1  0
 87 86  1  0
 88 87  2  0
 91 90  1  0
 93 94  1  0
 93 91  1  0
 93 92  1  0
M  ISO  4   9 100  14 100  53 101  54 101
M  END
>  <TORSDO>  (68) 
F 20

>  <SCORE>  (68) 
-12.689

>  <name>  (68) 
67

>  <ligand_id>  (68) 
67

>  <original_smiles>  (68) 
[H]c1c([H])c([H])c2c(c1[H])C([H])([H])C([H])([H])C([H])([H])C2([H])N([H])C(=O)C1([H])N(C(=O)C([H])(N([H])C(=O)C([H])(N([H])C([H])([H])[H])C([H])([H])[H])C(C([H])([H])[H])(C([H])([H])[H])C([H])([H])[H])C([H])([H])c2c([H])c(OC([H])([H])C3(C([H])([H])[H])C([H])([H])C([H])([H])C([H])(n4c([H])c(C(=O)N5C([H])([H])C([H])([H])C([H])([H])C([H])(n6nc(-c7c([H])c([H])c(Oc8c([H])c([H])c(F)c([H])c8F)c([H])c7[H])c(C(=O)N([H])[H])c6N([H])[H])C5([H])[H])[n+]([H])c4C([H])([H])C([H])([H])C([H])([H])[H])C([H])([H])C3([H])[H])c([H])c([H])c2C1([H])[H]

>  <smiles>  (68) 
[H]c1c([H])c([H])c2c(c1[H])C([H])([H])C([H])([H])C([H])([H])C2([H])N([H])C(=O)C1([H])N(C(=O)C([H])(N([H])C(=O)C([H])(N([H])C([H])([H])[H])C([H])([H])[H])C(C([H])([H])[H])(C([H])([H])[H])C([H])([H])[H])C([H])([H])c2c([H])c(OC([H])([H])C3(C([H])([H])[H])C([H])([H])C([H])([H])C([H])(n4c([H])c(C(=O)N5C([H])([H])C([H])([H])C([H])([H])C([H])(n6nc(-c7c([H])c([H])c(Oc8c([H])c([H])c(F)c([H])c8F)c([H])c7[H])c(C(=O)N([H])[H])c6N([H])[H])C5([H])[H])[n+]([H])c4C([H])([H])C([H])([H])C([H])([H])[H])C([H])([H])C3([H])[H])c([H])c([H])c2C1([H])[H]

$$$$
68:0:0
     RDKit          3D

 94102  0  0  1  0  0  0  0  0999 V2000
  -29.5520  -17.9940   21.2100 C   0  0  0  0  0  2  0  0  0  0  0  0
  -28.8450  -19.1560   20.7980 C   0  0  0  0  0  3  0  0  0  0  0  0
  -29.8400  -17.2760   20.0610 C   0  0  0  0  0  3  0  0  0  0  0  0
  -28.4400  -18.9970   19.5670 N   0  0  0  0  0  2  0  0  0  0  0  0
  -29.0240  -17.8780   19.0500 N   0  0  0  0  0  0  0  0  0  0  0  0
  -28.3740  -16.3490   17.1150 C   0  0  0  0  0  1  0  0  0  0  0  0
  -30.0730  -18.2290   16.7850 C   0  0  0  0  0  1  0  0  0  0  0  0
  -27.6570  -18.6590   17.0660 C   0  0  0  0  0  1  0  0  0  0  0  0
  -28.8250  -17.7500   17.5640 C   0  0  2  0  0  0  0  0  0  0  0  0
  -32.2500  -17.2680   20.4650 C   0  0  0  0  0  1  0  0  0  0  0  0
  -31.5980  -16.0820   18.5080 C   0  0  0  0  0  1  0  0  0  0  0  0
  -31.0880  -16.3420   19.9450 C   0  0  2  0  0  0  0  0  0  0  0  0
  -31.2550  -14.9640   20.7590 C   0  0  0  0  0  0  0  0  0  0  0  0
  -30.9020  -12.6870   19.9500 C   0  0  0  0  0  2  0  0  0  0  0  0
  -30.1130  -12.6740   18.6340 C   0  0  0  0  0  2  0  0  0  0  0  0
  -28.5990  -12.6640   18.9150 C   0  0  0  0  0  2  0  0  0  0  0  0
  -28.1420  -13.6510   20.0300 C   0  0  0  0  0  3  0  0  0  0  0  0
  -29.0940  -13.6740   21.2340 C   0  0  0  0  0  2  0  0  0  0  0  0
  -30.4460  -13.8660   20.7020 N   0  0  0  0  0  0  0  0  0  0  0  0
  -32.4280  -14.7610   21.0590 O   0  0  0  0  0  0  0  0  0  0  0  0
  -25.7300  -14.3480   20.5520 C   0  0  0  0  0  0  0  0  0  0  0  0
  -24.5960  -13.6180   20.7810 C   0  0  0  0  0  0  0  0  0  0  0  0
  -24.9970  -12.2470   20.7580 C   0  0  0  0  0  0  0  0  0  0  0  0
  -26.7500  -13.4240   20.3990 N   0  0  0  0  0  0  0  0  0  0  0  0
  -26.3090  -12.1540   20.5900 N   0  0  0  0  0  0  0  0  0  0  0  0
  -24.1960  -11.0170   20.8300 C   0  0  0  0  0  0  0  0  0  0  0  0
  -24.5370   -9.9650   21.7090 C   0  0  0  0  0  3  0  0  0  0  0  0
  -23.7400   -8.8010   21.7750 C   0  0  0  0  0  3  0  0  0  0  0  0
  -22.5880   -8.6820   20.9610 C   0  0  0  0  0  0  0  0  0  0  0  0
  -22.2670   -9.7230   20.0710 C   0  0  0  0  0  3  0  0  0  0  0  0
  -23.0640  -10.8770   20.0020 C   0  0  0  0  0  3  0  0  0  0  0  0
  -21.7680   -7.5790   20.9420 O   0  0  0  0  0  0  0  0  0  0  0  0
  -21.6890   -6.7230   22.0110 C   0  0  0  0  0  0  0  0  0  0  0  0
  -21.3320   -7.1720   23.3010 C   0  0  0  0  0  3  0  0  0  0  0  0
  -21.1950   -6.2470   24.3550 C   0  0  0  0  0  3  0  0  0  0  0  0
  -21.4050   -4.8750   24.1210 C   0  0  0  0  0  0  0  0  0  0  0  0
  -21.7540   -4.4250   22.8360 C   0  0  0  0  0  3  0  0  0  0  0  0
  -21.8930   -5.3470   21.7840 C   0  0  0  0  0  0  0  0  0  0  0  0
  -22.2090   -4.9050   20.5420 F   0  0  0  0  0  0  0  0  0  0  0  0
  -21.2660   -3.9850   25.1330 F   0  0  0  0  0  0  0  0  0  0  0  0
  -23.2010  -14.1560   20.9170 C   0  0  0  0  0  0  0  0  0  0  0  0
  -22.3610  -13.4890   21.7000 N   0  0  0  0  0  0  0  0  0  0  0  0
  -22.8630  -15.2030   20.3670 O   0  0  0  0  0  0  0  0  0  0  0  0
  -22.6440  -12.6400   22.1680 H   0  0  0  0  0  0  0  0  0  0  0  0
  -21.4200  -13.8310   21.8320 H   0  0  0  0  0  0  0  0  0  0  0  0
  -25.9710  -15.7130   20.4380 N   0  0  0  0  0  0  0  0  0  0  0  0
  -25.2240  -16.3950   20.5050 H   0  0  0  0  0  0  0  0  0  0  0  0
  -26.8720  -16.1370   20.2490 H   0  0  0  0  0  0  0  0  0  0  0  0
  -28.5220  -20.4590   21.5350 C   0  0  0  0  0  2  0  0  0  0  0  0
  -29.0840  -21.7560   20.8550 C   0  0  0  0  0  3  0  0  0  0  0  0
  -28.7480  -23.1040   21.5780 C   0  0  0  0  0  3  0  0  0  0  0  0
  -29.1210  -24.4220   20.8180 C   0  0  0  0  0  2  0  0  0  0  0  0
  -28.8310  -25.7280   21.6250 C   0  0  0  0  0  2  0  0  0  0  0  0
  -29.0130  -26.9840   20.9160 O   0  0  0  0  0  0  0  0  0  0  0  0
  -24.7440  -32.0960   23.4930 C   0  0  0  0  0  0  0  0  0  0  0  0
  -27.8580  -27.7250   20.7610 C   0  0  0  0  0  0  0  0  0  0  0  0
  -23.7660  -30.6160   21.7720 C   0  0  0  0  0  3  0  0  0  0  0  0
  -25.4190  -29.1370   20.5080 C   0  0  0  0  0  0  0  0  0  0  0  0
  -26.2810  -31.0950   21.8000 C   0  0  0  0  0  2  0  0  0  0  0  0
  -26.4940  -29.7210   21.1910 C   0  0  0  0  0  0  0  0  0  0  0  0
  -27.7230  -29.0260   21.3090 C   0  0  0  0  0  3  0  0  0  0  0  0
  -26.7710  -27.1640   20.0610 C   0  0  0  0  0  3  0  0  0  0  0  0
  -25.5560  -27.8610   19.9340 C   0  0  0  0  0  3  0  0  0  0  0  0
  -24.1350  -29.9340   20.4270 C   0  0  0  0  0  2  0  0  0  0  0  0
  -24.9420  -31.2860   22.4140 N   0  0  0  0  0  0  0  0  0  0  0  0
  -23.6050  -32.3200   23.9270 O   0  0  0  0  0  0  0  0  0  0  0  0
  -23.0770  -29.5760   22.6850 C   0  0  0  0  0  0  0  0  0  0  0  0
  -21.7780  -29.3350   22.4480 N   0  0  0  0  0  0  0  0  0  0  0  0
  -23.7160  -28.9860   23.5610 O   0  0  0  0  0  0  0  0  0  0  0  0
  -21.3240  -29.8650   21.7170 H   0  0  0  0  0  0  0  0  0  0  0  0
  -18.4140  -28.0400   22.7100 C   0  0  0  0  0  0  0  0  0  0  0  0
  -20.9390  -28.3690   23.1560 C   0  0  0  0  0  3  0  0  0  0  0  0
  -21.1220  -26.9460   22.5810 C   0  0  0  0  0  2  0  0  0  0  0  0
  -20.1010  -26.6000   21.4920 C   0  0  0  0  0  2  0  0  0  0  0  0
  -18.6750  -26.7010   22.0410 C   0  0  0  0  0  2  0  0  0  0  0  0
  -19.4790  -28.8300   23.2200 C   0  0  0  0  0  0  0  0  0  0  0  0
  -19.1830  -30.0830   23.8000 C   0  0  0  0  0  3  0  0  0  0  0  0
  -17.8560  -30.5460   23.8790 C   0  0  0  0  0  3  0  0  0  0  0  0
  -16.8060  -29.7530   23.3880 C   0  0  0  0  0  3  0  0  0  0  0  0
  -17.0850  -28.5010   22.8090 C   0  0  0  0  0  3  0  0  0  0  0  0
  -25.9340  -32.8000   24.2180 C   0  0  0  0  0  3  0  0  0  0  0  0
  -25.5530  -34.2020   24.4340 N   0  0  0  0  0  0  0  0  0  0  0  0
  -25.9310  -35.2210   23.6500 C   0  0  0  0  0  0  0  0  0  0  0  0
  -26.7020  -35.0820   22.6980 O   0  0  0  0  0  0  0  0  0  0  0  0
  -24.8780  -34.3810   25.1630 H   0  0  0  0  0  0  0  0  0  0  0  0
  -24.1880  -36.9250   23.0300 C   0  0  0  0  0  1  0  0  0  0  0  0
  -25.3600  -36.6150   23.9750 C   0  0  0  0  0  3  0  0  0  0  0  0
  -27.3890  -37.6160   24.9290 C   0  0  0  0  0  1  0  0  0  0  0  0
  -26.3650  -37.6970   23.8900 N   0  0  0  0  0  0  0  0  0  0  0  0
  -25.9200  -38.6070   23.9550 H   0  0  0  0  0  0  0  0  0  0  0  0
  -26.3240  -32.1120   25.5840 C   0  0  1  0  0  0  0  0  0  0  0  0
  -25.1160  -31.8400   26.5120 C   0  0  0  0  0  1  0  0  0  0  0  0
  -27.0360  -30.7620   25.3310 C   0  0  0  0  0  1  0  0  0  0  0  0
  -27.3270  -33.0030   26.3530 C   0  0  0  0  0  1  0  0  0  0  0  0
  2  1  1  0
  2 49  1  0
  3 12  1  0
  3  1  1  0
  4  2  1  0
  5  4  1  0
  5  3  1  0
  9  6  1  1
  7  9  1  0
  8  9  1  0
  9  5  1  0
 12 11  1  6
 12 10  1  0
 12 13  1  0
 13 20  2  0
 14 19  1  0
 15 16  1  0
 15 14  1  0
 17 16  1  0
 17 24  1  0
 17 18  1  0
 19 13  1  0
 19 18  1  0
 21 22  2  0
 22 41  1  0
 23 22  1  0
 23 26  1  0
 24 21  1  0
 24 25  1  0
 25 23  2  0
 26 27  1  0
 27 28  2  0
 29 28  1  0
 30 29  2  0
 31 30  1  0
 31 26  2  0
 32 29  1  0
 32 33  1  0
 33 34  1  0
 34 35  2  0
 36 35  1  0
 36 40  1  0
 37 36  2  0
 38 33  2  0
 38 37  1  0
 39 38  1  0
 41 42  1  0
 42 45  1  0
 42 44  1  0
 43 41  2  0
 46 47  1  0
 46 21  1  0
 48 46  1  0
 50 49  1  0
 50 51  2  0
 52 51  1  0
 52 53  1  0
 54 53  1  0
 55 66  2  0
 56 54  1  0
 56 61  1  0
 57 65  1  0
 57 67  1  0
 58 60  1  0
 59 65  1  0
 60 61  2  0
 60 59  1  0
 62 56  2  0
 63 62  1  0
 63 58  2  0
 64 58  1  0
 64 57  1  0
 65 55  1  0
 67 69  2  0
 68 67  1  0
 70 68  1  0
 71 80  2  0
 71 76  1  0
 72 68  1  0
 72 76  1  0
 73 72  1  0
 74 75  1  0
 74 73  1  0
 75 71  1  0
 76 77  2  0
 77 78  1  0
 79 78  2  0
 80 79  1  0
 81 55  1  0
 81 82  1  0
 81 91  1  0
 82 85  1  0
 83 87  1  0
 83 82  1  0
 84 83  2  0
 87 86  1  0
 89 90  1  0
 89 87  1  0
 89 88  1  0
 91 94  1  1
 91 92  1  0
 93 91  1  0
M  ISO  4  12 100  13 100  53 101  54 101
M  END
>  <TORSDO>  (69) 
F 23

>  <SCORE>  (69) 
-7.194

>  <name>  (69) 
68

>  <ligand_id>  (69) 
68

>  <original_smiles>  (69) 
[H]c1c([H])c([H])c2c(c1[H])C([H])([H])C([H])([H])C([H])([H])C2([H])N([H])C(=O)C1([H])N(C(=O)C([H])(N([H])C(=O)C([H])(N([H])C([H])([H])[H])C([H])([H])[H])C(C([H])([H])[H])(C([H])([H])[H])C([H])([H])[H])C([H])([H])c2c([H])c(OC([H])([H])C([H])([H])C([H])([H])C([H])([H])C([H])([H])c3nn(C(C([H])([H])[H])(C([H])([H])[H])C([H])([H])[H])c(C(C(=O)N4C([H])([H])C([H])([H])C([H])([H])C([H])(n5nc(-c6c([H])c([H])c(Oc7c([H])c([H])c(F)c([H])c7F)c([H])c6[H])c(C(=O)N([H])[H])c5N([H])[H])C4([H])[H])(C([H])([H])[H])C([H])([H])[H])c3[H])c([H])c([H])c2C1([H])[H]

>  <smiles>  (69) 
[H]c1c([H])c([H])c2c(c1[H])C([H])([H])C([H])([H])C([H])([H])C2([H])N([H])C(=O)C1([H])N(C(=O)C([H])(N([H])C(=O)C([H])(N([H])C([H])([H])[H])C([H])([H])[H])C(C([H])([H])[H])(C([H])([H])[H])C([H])([H])[H])C([H])([H])c2c([H])c(OC([H])([H])C([H])([H])C([H])([H])C([H])([H])C([H])([H])c3nn(C(C([H])([H])[H])(C([H])([H])[H])C([H])([H])[H])c(C(C(=O)N4C([H])([H])C([H])([H])C([H])([H])C([H])(n5nc(-c6c([H])c([H])c(Oc7c([H])c([H])c(F)c([H])c7F)c([H])c6[H])c(C(=O)N([H])[H])c5N([H])[H])C4([H])[H])(C([H])([H])[H])C([H])([H])[H])c3[H])c([H])c([H])c2C1([H])[H]

$$$$
69:0:0
     RDKit          3D

 97105  0  0  1  0  0  0  0  0999 V2000
  -30.0330  -20.5100   22.9150 C   0  0  0  0  0  3  0  0  0  0  0  0
  -30.2940  -19.1760   22.7570 C   0  0  0  0  0  0  0  0  0  0  0  0
  -29.8920  -18.9120   21.3980 C   0  0  0  0  0  0  0  0  0  0  0  0
  -29.4230  -20.0320   20.8180 N   0  0  0  0  0  0  0  0  0  0  0  0
  -29.4490  -20.9960   21.7690 N   0  0  0  0  0  0  0  0  0  0  0  0
  -30.7860  -18.3090   23.9050 C   0  0  1  0  0  0  0  0  0  0  0  0
  -31.8170  -18.9190   24.4920 F   0  0  0  0  0  0  0  0  0  0  0  0
  -29.8070  -18.1960   24.8010 F   0  0  0  0  0  0  0  0  0  0  0  0
  -31.1760  -17.0870   23.5780 F   0  0  0  0  0  0  0  0  0  0  0  0
  -28.9390  -16.5270   21.3430 C   0  0  0  0  0  1  0  0  0  0  0  0
  -29.7380  -17.6040   20.6000 C   0  0  0  0  0  3  0  0  0  0  0  0
  -31.0010  -17.0690   19.8440 C   0  0  0  0  0  2  0  0  0  0  0  0
  -32.1370  -14.8960   19.8130 C   0  0  0  0  0  0  0  0  0  0  0  0
  -31.5900  -12.6260   18.9930 C   0  0  0  0  0  2  0  0  0  0  0  0
  -30.6320  -12.6980   17.7900 C   0  0  0  0  0  2  0  0  0  0  0  0
  -29.1680  -12.7220   18.2670 C   0  0  0  0  0  2  0  0  0  0  0  0
  -28.9250  -13.7340   19.4220 C   0  0  0  0  0  3  0  0  0  0  0  0
  -30.0200  -13.6520   20.5130 C   0  0  0  0  0  2  0  0  0  0  0  0
  -31.3310  -13.7890   19.8630 N   0  0  0  0  0  0  0  0  0  0  0  0
  -33.1840  -14.8810   19.1560 O   0  0  0  0  0  0  0  0  0  0  0  0
  -32.9520  -16.6750   21.1980 C   0  0  0  0  0  1  0  0  0  0  0  0
  -31.8150  -16.0220   20.5160 N   0  0  0  0  0  0  0  0  0  0  0  0
  -26.6760  -14.5740   20.3440 C   0  0  0  0  0  0  0  0  0  0  0  0
  -25.5470  -13.9220   20.7480 C   0  0  0  0  0  0  0  0  0  0  0  0
  -25.8160  -12.5290   20.5830 C   0  0  0  0  0  0  0  0  0  0  0  0
  -27.5810  -13.5890   19.9820 N   0  0  0  0  0  0  0  0  0  0  0  0
  -27.0680  -12.3460   20.1750 N   0  0  0  0  0  0  0  0  0  0  0  0
  -24.9360  -11.3650   20.7340 C   0  0  0  0  0  0  0  0  0  0  0  0
  -25.2640  -10.3010   21.6000 C   0  0  0  0  0  3  0  0  0  0  0  0
  -24.3940   -9.1990   21.7410 C   0  0  0  0  0  3  0  0  0  0  0  0
  -23.1780   -9.1550   21.0170 C   0  0  0  0  0  0  0  0  0  0  0  0
  -22.8670  -10.2090   20.1360 C   0  0  0  0  0  3  0  0  0  0  0  0
  -23.7380  -11.3010   19.9960 C   0  0  0  0  0  3  0  0  0  0  0  0
  -22.2800   -8.1150   21.0730 O   0  0  0  0  0  0  0  0  0  0  0  0
  -22.0590   -7.4170   22.2340 C   0  0  0  0  0  0  0  0  0  0  0  0
  -21.6390   -8.0630   23.4190 C   0  0  0  0  0  3  0  0  0  0  0  0
  -21.3460   -7.3010   24.5680 C   0  0  0  0  0  3  0  0  0  0  0  0
  -21.4620   -5.9000   24.5350 C   0  0  0  0  0  0  0  0  0  0  0  0
  -21.8700   -5.2550   23.3540 C   0  0  0  0  0  3  0  0  0  0  0  0
  -22.1650   -6.0110   22.2060 C   0  0  0  0  0  0  0  0  0  0  0  0
  -22.5350   -5.3810   21.0640 F   0  0  0  0  0  0  0  0  0  0  0  0
  -21.1790   -5.1700   25.6400 F   0  0  0  0  0  0  0  0  0  0  0  0
  -24.2540  -14.5530   21.1750 C   0  0  0  0  0  0  0  0  0  0  0  0
  -23.5210  -13.9030   22.0690 N   0  0  0  0  0  0  0  0  0  0  0  0
  -23.9090  -15.6570   20.7510 O   0  0  0  0  0  0  0  0  0  0  0  0
  -23.8090  -13.0080   22.4360 H   0  0  0  0  0  0  0  0  0  0  0  0
  -22.6620  -14.3200   22.4000 H   0  0  0  0  0  0  0  0  0  0  0  0
  -27.0060  -15.9220   20.2300 N   0  0  0  0  0  0  0  0  0  0  0  0
  -26.3350  -16.6570   20.4200 H   0  0  0  0  0  0  0  0  0  0  0  0
  -27.8590  -16.2590   19.8070 H   0  0  0  0  0  0  0  0  0  0  0  0
  -28.7060  -22.2620   21.6460 C   0  0  0  0  0  2  0  0  0  0  0  0
  -29.1840  -23.3130   20.6020 C   0  0  0  0  0  2  0  0  0  0  0  0
  -27.3180  -24.8500   21.5110 C   0  0  0  0  0  1  0  0  0  0  0  0
  -29.7200  -25.4720   21.8310 C   0  0  0  0  0  1  0  0  0  0  0  0
  -28.7200  -24.8020   20.8650 C   0  0  1  0  0  0  0  0  0  0  0  0
  -28.6970  -25.6160   19.5280 C   0  0  0  0  0  2  0  0  0  0  0  0
  -28.6890  -27.0560   19.6830 O   0  0  0  0  0  0  0  0  0  0  0  0
  -24.9000  -31.6620   23.5500 C   0  0  0  0  0  0  0  0  0  0  0  0
  -27.5070  -27.7720   19.7580 C   0  0  0  0  0  0  0  0  0  0  0  0
  -23.6920  -30.6040   21.6710 C   0  0  0  0  0  3  0  0  0  0  0  0
  -25.1360  -29.3130   20.0080 C   0  0  0  0  0  0  0  0  0  0  0  0
  -26.2260  -30.9410   21.5600 C   0  0  0  0  0  2  0  0  0  0  0  0
  -26.2940  -29.6980   20.6930 C   0  0  0  0  0  0  0  0  0  0  0  0
  -27.4810  -28.9410   20.5580 C   0  0  0  0  0  3  0  0  0  0  0  0
  -26.3290  -27.4100   19.0630 C   0  0  0  0  0  3  0  0  0  0  0  0
  -25.1520  -28.1730   19.1860 C   0  0  0  0  0  3  0  0  0  0  0  0
  -23.9090  -30.1770   20.1940 C   0  0  0  0  0  2  0  0  0  0  0  0
  -24.9590  -31.0700   22.3230 N   0  0  0  0  0  0  0  0  0  0  0  0
  -23.8140  -31.8570   24.1160 O   0  0  0  0  0  0  0  0  0  0  0  0
  -23.0030  -29.4430   22.4260 C   0  0  0  0  0  0  0  0  0  0  0  0
  -21.6770  -29.3180   22.2500 N   0  0  0  0  0  0  0  0  0  0  0  0
  -23.6600  -28.6700   23.1280 O   0  0  0  0  0  0  0  0  0  0  0  0
  -21.2130  -29.9990   21.6660 H   0  0  0  0  0  0  0  0  0  0  0  0
  -18.2740  -28.1140   22.4620 C   0  0  0  0  0  0  0  0  0  0  0  0
  -20.8290  -28.2760   22.8280 C   0  0  0  0  0  3  0  0  0  0  0  0
  -20.9260  -26.9620   22.0190 C   0  0  0  0  0  2  0  0  0  0  0  0
  -19.8450  -26.8380   20.9420 C   0  0  0  0  0  2  0  0  0  0  0  0
  -18.4490  -26.8950   21.5720 C   0  0  0  0  0  2  0  0  0  0  0  0
  -19.3930  -28.7690   23.0420 C   0  0  0  0  0  0  0  0  0  0  0  0
  -19.1780  -29.9140   23.8380 C   0  0  0  0  0  3  0  0  0  0  0  0
  -17.8760  -30.4040   24.0590 C   0  0  0  0  0  3  0  0  0  0  0  0
  -16.7720  -29.7430   23.4950 C   0  0  0  0  0  3  0  0  0  0  0  0
  -16.9710  -28.5990   22.7020 C   0  0  0  0  0  3  0  0  0  0  0  0
  -26.1870  -32.1440   24.2870 C   0  0  0  0  0  3  0  0  0  0  0  0
  -26.6150  -31.1980   25.4750 C   0  0  1  0  0  0  0  0  0  0  0  0
  -25.4590  -30.8580   26.4450 C   0  0  0  0  0  1  0  0  0  0  0  0
  -27.1800  -29.8640   24.9320 C   0  0  0  0  0  1  0  0  0  0  0  0
  -27.7500  -31.8590   26.2910 C   0  0  0  0  0  1  0  0  0  0  0  0
  -25.9330  -33.5080   24.7740 N   0  0  0  0  0  0  0  0  0  0  0  0
  -26.3670  -34.6250   24.1740 C   0  0  0  0  0  0  0  0  0  0  0  0
  -27.0970  -34.6100   23.1790 O   0  0  0  0  0  0  0  0  0  0  0  0
  -25.2950  -33.5980   25.5510 H   0  0  0  0  0  0  0  0  0  0  0  0
  -24.7710  -36.5590   23.9490 C   0  0  0  0  0  1  0  0  0  0  0  0
  -25.9260  -35.9740   24.7770 C   0  0  0  0  0  3  0  0  0  0  0  0
  -28.0530  -36.6000   25.8340 C   0  0  0  0  0  1  0  0  0  0  0  0
  -27.0220  -36.9640   24.8680 N   0  0  0  0  0  0  0  0  0  0  0  0
  -26.6590  -37.8800   25.1210 H   0  0  0  0  0  0  0  0  0  0  0  0
  2  1  2  0
  2  6  1  0
  3  2  1  0
  4  3  2  0
  4  5  1  0
  5  1  1  0
  6  7  1  1
  6  8  1  0
  9  6  1  0
 11 10  1  0
 11  3  1  0
 12 22  1  0
 12 11  1  0
 13 19  1  0
 13 22  1  0
 14 19  1  0
 15 16  1  0
 15 14  1  0
 17 16  1  0
 17 26  1  0
 17 18  1  0
 19 18  1  0
 20 13  2  0
 22 21  1  0
 23 24  2  0
 24 43  1  0
 25 28  1  0
 25 24  1  0
 26 27  1  0
 26 23  1  0
 27 25  2  0
 28 29  1  0
 29 30  2  0
 31 34  1  0
 31 30  1  0
 32 31  2  0
 33 32  1  0
 33 28  2  0
 34 35  1  0
 35 36  1  0
 36 37  2  0
 38 37  1  0
 38 42  1  0
 39 38  2  0
 40 35  2  0
 40 39  1  0
 41 40  1  0
 43 44  1  0
 44 47  1  0
 44 46  1  0
 45 43  2  0
 48 23  1  0
 48 49  1  0
 50 48  1  0
 51  5  1  0
 52 55  1  0
 52 51  1  0
 55 53  1  1
 55 54  1  0
 56 57  1  0
 56 55  1  0
 57 59  1  0
 58 69  2  0
 59 64  1  0
 60 68  1  0
 60 70  1  0
 61 67  1  0
 61 63  1  0
 62 68  1  0
 63 62  1  0
 64 63  2  0
 65 66  1  0
 65 59  2  0
 66 61  2  0
 67 60  1  0
 68 58  1  0
 70 72  2  0
 71 70  1  0
 73 71  1  0
 74 83  2  0
 74 79  1  0
 75 71  1  0
 75 79  1  0
 76 75  1  0
 77 78  1  0
 77 76  1  0
 78 74  1  0
 79 80  2  0
 80 81  1  0
 82 81  2  0
 83 82  1  0
 84 58  1  0
 84 89  1  0
 84 85  1  0
 85 88  1  1
 85 86  1  0
 87 85  1  0
 89 92  1  0
 90 89  1  0
 90 94  1  0
 91 90  2  0
 94 93  1  0
 94 96  1  0
 96 97  1  0
 96 95  1  0
M  ISO  4  13 100  22 100  56 101  57 101
M  END
>  <TORSDO>  (70) 
F 23

>  <SCORE>  (70) 
-5.813

>  <name>  (70) 
69

>  <ligand_id>  (70) 
69

>  <original_smiles>  (70) 
[H]c1c([H])c([H])c2c(c1[H])C([H])([H])C([H])([H])C([H])([H])C2([H])N([H])C(=O)C1([H])N(C(=O)C([H])(N([H])C(=O)C([H])(N([H])C([H])([H])[H])C([H])([H])[H])C(C([H])([H])[H])(C([H])([H])[H])C([H])([H])[H])C([H])([H])c2c([H])c(OC([H])([H])C(C([H])([H])[H])(C([H])([H])[H])C([H])([H])C([H])([H])n3nc(C([H])(C([H])([H])[H])C([H])([H])N(C(=O)N4C([H])([H])C([H])([H])C([H])([H])C([H])(n5nc(-c6c([H])c([H])c(Oc7c([H])c([H])c(F)c([H])c7F)c([H])c6[H])c(C(=O)N([H])[H])c5N([H])[H])C4([H])[H])C([H])([H])[H])c(C(F)(F)F)c3[H])c([H])c([H])c2C1([H])[H]

>  <smiles>  (70) 
[H]c1c([H])c([H])c2c(c1[H])C([H])([H])C([H])([H])C([H])([H])C2([H])N([H])C(=O)C1([H])N(C(=O)C([H])(N([H])C(=O)C([H])(N([H])C([H])([H])[H])C([H])([H])[H])C(C([H])([H])[H])(C([H])([H])[H])C([H])([H])[H])C([H])([H])c2c([H])c(OC([H])([H])C(C([H])([H])[H])(C([H])([H])[H])C([H])([H])C([H])([H])n3nc(C([H])(C([H])([H])[H])C([H])([H])N(C(=O)N4C([H])([H])C([H])([H])C([H])([H])C([H])(n5nc(-c6c([H])c([H])c(Oc7c([H])c([H])c(F)c([H])c7F)c([H])c6[H])c(C(=O)N([H])[H])c5N([H])[H])C4([H])[H])C([H])([H])[H])c(C(F)(F)F)c3[H])c([H])c([H])c2C1([H])[H]

$$$$
70:0:0
     RDKit          3D

 97105  0  0  1  0  0  0  0  0999 V2000
  -29.6410  -23.3060   22.1540 C   0  0  0  0  0  2  0  0  0  0  0  0
  -27.1530  -22.9590   22.2770 C   0  0  0  0  0  1  0  0  0  0  0  0
  -28.1730  -24.8920   23.5010 C   0  0  0  0  0  1  0  0  0  0  0  0
  -28.2620  -24.0430   22.2080 C   0  0  1  0  0  0  0  0  0  0  0  0
  -28.1090  -24.1940   19.6160 C   0  0  0  0  0  1  0  0  0  0  0  0
  -28.0220  -24.9740   20.9460 C   0  0  1  0  0  0  0  0  0  0  0  0
  -26.7540  -25.3760   21.0440 F   0  0  0  0  0  0  0  0  0  0  0  0
  -28.8950  -26.2770   20.9010 C   0  0  0  0  0  2  0  0  0  0  0  0
  -28.6710  -27.1550   19.7810 O   0  0  0  0  0  0  0  0  0  0  0  0
  -24.7250  -31.8170   23.4600 C   0  0  0  0  0  0  0  0  0  0  0  0
  -27.5230  -27.9050   19.8600 C   0  0  0  0  0  0  0  0  0  0  0  0
  -23.5840  -30.6310   21.6120 C   0  0  0  0  0  3  0  0  0  0  0  0
  -25.1050  -29.3490   20.0130 C   0  0  0  0  0  0  0  0  0  0  0  0
  -26.1040  -31.0670   21.5270 C   0  0  0  0  0  2  0  0  0  0  0  0
  -26.2350  -29.8000   20.7080 C   0  0  0  0  0  0  0  0  0  0  0  0
  -27.4500  -29.0800   20.6400 C   0  0  0  0  0  3  0  0  0  0  0  0
  -26.3920  -27.4930   19.1280 C   0  0  0  0  0  3  0  0  0  0  0  0
  -25.1810  -28.1960   19.2160 C   0  0  0  0  0  3  0  0  0  0  0  0
  -23.8340  -30.1550   20.1560 C   0  0  0  0  0  2  0  0  0  0  0  0
  -24.8200  -31.1790   22.2590 N   0  0  0  0  0  0  0  0  0  0  0  0
  -23.6270  -31.9900   24.0080 O   0  0  0  0  0  0  0  0  0  0  0  0
  -22.9410  -29.4710   22.4060 C   0  0  0  0  0  0  0  0  0  0  0  0
  -21.6250  -29.2780   22.2220 N   0  0  0  0  0  0  0  0  0  0  0  0
  -23.6230  -28.7540   23.1420 O   0  0  0  0  0  0  0  0  0  0  0  0
  -21.1340  -29.9150   21.6080 H   0  0  0  0  0  0  0  0  0  0  0  0
  -18.2690  -27.9680   22.4850 C   0  0  0  0  0  0  0  0  0  0  0  0
  -20.8170  -28.2240   22.8330 C   0  0  0  0  0  3  0  0  0  0  0  0
  -20.9580  -26.8950   22.0510 C   0  0  0  0  0  2  0  0  0  0  0  0
  -19.8690  -26.7050   20.9890 C   0  0  0  0  0  2  0  0  0  0  0  0
  -18.4830  -26.7260   21.6380 C   0  0  0  0  0  2  0  0  0  0  0  0
  -19.3670  -28.6800   23.0360 C   0  0  0  0  0  0  0  0  0  0  0  0
  -19.1190  -29.8420   23.7960 C   0  0  0  0  0  3  0  0  0  0  0  0
  -17.8040  -30.2950   24.0100 C   0  0  0  0  0  3  0  0  0  0  0  0
  -16.7200  -29.5810   23.4710 C   0  0  0  0  0  3  0  0  0  0  0  0
  -16.9540  -28.4170   22.7160 C   0  0  0  0  0  3  0  0  0  0  0  0
  -25.9850  -32.3790   24.1860 C   0  0  0  0  0  3  0  0  0  0  0  0
  -25.6530  -33.7280   24.6630 N   0  0  0  0  0  0  0  0  0  0  0  0
  -25.9930  -34.8600   24.0340 C   0  0  0  0  0  0  0  0  0  0  0  0
  -26.6900  -34.8800   23.0150 O   0  0  0  0  0  0  0  0  0  0  0  0
  -25.0380  -33.7890   25.4610 H   0  0  0  0  0  0  0  0  0  0  0  0
  -24.2420  -36.6560   23.8370 C   0  0  0  0  0  1  0  0  0  0  0  0
  -25.4740  -36.1840   24.6270 C   0  0  0  0  0  3  0  0  0  0  0  0
  -27.5730  -37.0030   25.6000 C   0  0  0  0  0  1  0  0  0  0  0  0
  -26.4910  -37.2580   24.6520 N   0  0  0  0  0  0  0  0  0  0  0  0
  -26.0660  -38.1500   24.8920 H   0  0  0  0  0  0  0  0  0  0  0  0
  -26.4730  -31.4660   25.3790 C   0  0  1  0  0  0  0  0  0  0  0  0
  -25.3530  -31.1090   26.3840 C   0  0  0  0  0  1  0  0  0  0  0  0
  -27.0740  -30.1440   24.8470 C   0  0  0  0  0  1  0  0  0  0  0  0
  -27.6000  -32.1840   26.1590 C   0  0  0  0  0  1  0  0  0  0  0  0
  -30.0640  -22.5650   23.4560 C   0  0  0  0  0  2  0  0  0  0  0  0
  -31.9500  -20.8770   23.5500 C   0  0  0  0  0  2  0  0  0  0  0  0
  -30.9020  -19.2020   22.9290 C   0  0  0  0  0  0  0  0  0  0  0  0
  -32.1410  -19.5700   23.3820 N   0  0  0  0  0  0  0  0  0  0  0  0
  -30.0110  -20.1920   22.8300 N   0  0  0  0  0  2  0  0  0  0  0  0
  -30.7120  -21.2780   23.2510 N   0  0  0  0  0  0  0  0  0  0  0  0
  -30.5390  -17.7740   22.6190 C   0  0  0  0  0  2  0  0  0  0  0  0
  -31.2300  -17.1430   21.3690 C   0  0  0  0  0  3  0  0  0  0  0  0
  -31.3810  -14.7680   20.5160 C   0  0  0  0  0  0  0  0  0  0  0  0
  -31.0580  -12.6180   19.3390 C   0  0  0  0  0  2  0  0  0  0  0  0
  -30.1430  -12.8140   18.1110 C   0  0  0  0  0  2  0  0  0  0  0  0
  -28.6580  -12.7070   18.5120 C   0  0  0  0  0  2  0  0  0  0  0  0
  -28.3110  -13.5750   19.7500 C   0  0  0  0  0  3  0  0  0  0  0  0
  -29.3310  -13.3460   20.8870 C   0  0  0  0  0  2  0  0  0  0  0  0
  -30.6750  -13.6180   20.3490 N   0  0  0  0  0  0  0  0  0  0  0  0
  -32.5020  -14.9390   20.0290 O   0  0  0  0  0  0  0  0  0  0  0  0
  -30.7340  -15.7640   21.1570 N   0  0  0  0  0  0  0  0  0  0  0  0
  -29.7970  -15.5520   21.4680 H   0  0  0  0  0  0  0  0  0  0  0  0
  -25.9180  -14.2460   20.4230 C   0  0  0  0  0  0  0  0  0  0  0  0
  -24.8220  -13.5030   20.7760 C   0  0  0  0  0  0  0  0  0  0  0  0
  -25.2440  -12.1360   20.7450 C   0  0  0  0  0  0  0  0  0  0  0  0
  -26.9400  -13.3340   20.2030 N   0  0  0  0  0  0  0  0  0  0  0  0
  -26.5380  -12.0630   20.4570 N   0  0  0  0  0  0  0  0  0  0  0  0
  -24.4780  -10.8950   20.9190 C   0  0  0  0  0  0  0  0  0  0  0  0
  -24.8430   -9.9370   21.8900 C   0  0  0  0  0  3  0  0  0  0  0  0
  -24.0870   -8.7560   22.0500 C   0  0  0  0  0  3  0  0  0  0  0  0
  -22.9480   -8.5260   21.2420 C   0  0  0  0  0  0  0  0  0  0  0  0
  -22.6030   -9.4730   20.2610 C   0  0  0  0  0  3  0  0  0  0  0  0
  -23.3590  -10.6450   20.1000 C   0  0  0  0  0  3  0  0  0  0  0  0
  -22.1660   -7.4010   21.3090 O   0  0  0  0  0  0  0  0  0  0  0  0
  -21.9570   -6.7410   22.4970 C   0  0  0  0  0  0  0  0  0  0  0  0
  -21.3980   -7.3870   23.6210 C   0  0  0  0  0  3  0  0  0  0  0  0
  -21.1390   -6.6510   24.7970 C   0  0  0  0  0  3  0  0  0  0  0  0
  -21.4280   -5.2740   24.8450 C   0  0  0  0  0  0  0  0  0  0  0  0
  -21.9800   -4.6310   23.7230 C   0  0  0  0  0  3  0  0  0  0  0  0
  -22.2420   -5.3640   22.5510 C   0  0  0  0  0  0  0  0  0  0  0  0
  -22.7560   -4.7350   21.4660 F   0  0  0  0  0  0  0  0  0  0  0  0
  -21.1700   -4.5650   25.9680 F   0  0  0  0  0  0  0  0  0  0  0  0
  -23.4350  -14.0160   21.0290 C   0  0  0  0  0  0  0  0  0  0  0  0
  -22.6780  -13.3540   21.8990 N   0  0  0  0  0  0  0  0  0  0  0  0
  -23.0270  -15.0410   20.4860 O   0  0  0  0  0  0  0  0  0  0  0  0
  -23.0110  -12.5210   22.3640 H   0  0  0  0  0  0  0  0  0  0  0  0
  -21.7460  -13.6860   22.1020 H   0  0  0  0  0  0  0  0  0  0  0  0
  -26.1330  -15.6090   20.2440 N   0  0  0  0  0  0  0  0  0  0  0  0
  -25.3860  -16.2910   20.3110 H   0  0  0  0  0  0  0  0  0  0  0  0
  -27.0010  -16.0020   19.8990 H   0  0  0  0  0  0  0  0  0  0  0  0
  -32.0380  -19.1480   19.9160 C   0  0  0  0  0  1  0  0  0  0  0  0
  -31.0460  -17.9820   20.0760 C   0  0  0  0  0  2  0  0  0  0  0  0
  1  4  1  0
  1 50  1  0
  4  2  1  1
  4  3  1  0
  6  5  1  6
  6  7  1  0
  6  4  1  0
  8  6  1  0
  9 11  1  0
  9  8  1  0
 10 21  2  0
 11 16  1  0
 12 20  1  0
 12 22  1  0
 13 19  1  0
 13 15  1  0
 14 20  1  0
 15 14  1  0
 16 15  2  0
 17 18  1  0
 17 11  2  0
 18 13  2  0
 19 12  1  0
 20 10  1  0
 22 24  2  0
 23 22  1  0
 25 23  1  0
 26 35  2  0
 26 31  1  0
 27 23  1  0
 27 31  1  0
 28 27  1  0
 29 30  1  0
 29 28  1  0
 30 26  1  0
 31 32  2  0
 32 33  1  0
 34 33  2  0
 35 34  1  0
 36 10  1  0
 36 37  1  0
 36 46  1  0
 37 40  1  0
 38 42  1  0
 38 37  1  0
 39 38  2  0
 42 41  1  0
 42 44  1  0
 44 45  1  0
 44 43  1  0
 46 49  1  1
 46 47  1  0
 48 46  1  0
 52 53  2  0
 53 51  1  0
 54 52  1  0
 54 55  1  0
 55 50  1  0
 55 51  1  0
 56 52  1  0
 57 97  1  0
 57 56  1  0
 58 66  1  0
 59 64  1  0
 60 61  1  0
 60 59  1  0
 62 61  1  0
 62 71  1  0
 62 63  1  0
 64 58  1  0
 64 63  1  0
 65 58  2  0
 66 57  1  0
 66 67  1  0
 68 69  2  0
 69 88  1  0
 70 69  1  0
 70 73  1  0
 71 68  1  0
 71 72  1  0
 72 70  2  0
 73 74  1  0
 74 75  2  0
 76 79  1  0
 76 75  1  0
 77 76  2  0
 78 77  1  0
 78 73  2  0
 79 80  1  0
 80 85  2  0
 80 81  1  0
 81 82  2  0
 82 83  1  0
 83 87  1  0
 84 83  2  0
 85 84  1  0
 86 85  1  0
 88 89  1  0
 89 92  1  0
 89 91  1  0
 90 88  2  0
 93 94  1  0
 93 68  1  0
 95 93  1  0
 96 97  1  0
M  ISO  4   8 101   9 101  58 100  66 100
M  END
>  <TORSDO>  (71) 
F 24

>  <SCORE>  (71) 
-9.845

>  <name>  (71) 
70

>  <ligand_id>  (71) 
70

>  <original_smiles>  (71) 
[H]c1c([H])c([H])c2c(c1[H])C([H])([H])C([H])([H])C([H])([H])C2([H])N([H])C(=O)C1([H])N(C(=O)C([H])(N([H])C(=O)C([H])(N([H])C([H])([H])[H])C([H])([H])[H])C(C([H])([H])[H])(C([H])([H])[H])C([H])([H])[H])C([H])([H])c2c([H])c(OC([H])([H])C(F)(C([H])([H])[H])C(C([H])([H])[H])(C([H])([H])[H])C([H])([H])C([H])([H])n3nc(C([H])([H])C([H])(N([H])C(=O)N4C([H])([H])C([H])([H])C([H])([H])C([H])(n5nc(-c6c([H])c([H])c(Oc7c([H])c([H])c(F)c([H])c7F)c([H])c6[H])c(C(=O)N([H])[H])c5N([H])[H])C4([H])[H])C([H])([H])C([H])([H])[H])nc3[H])c([H])c([H])c2C1([H])[H]

>  <smiles>  (71) 
[H]c1c([H])c([H])c2c(c1[H])C([H])([H])C([H])([H])C([H])([H])C2([H])N([H])C(=O)C1([H])N(C(=O)C([H])(N([H])C(=O)C([H])(N([H])C([H])([H])[H])C([H])([H])[H])C(C([H])([H])[H])(C([H])([H])[H])C([H])([H])[H])C([H])([H])c2c([H])c(OC([H])([H])C(F)(C([H])([H])[H])C(C([H])([H])[H])(C([H])([H])[H])C([H])([H])C([H])([H])n3nc(C([H])([H])C([H])(N([H])C(=O)N4C([H])([H])C([H])([H])C([H])([H])C([H])(n5nc(-c6c([H])c([H])c(Oc7c([H])c([H])c(F)c([H])c7F)c([H])c6[H])c(C(=O)N([H])[H])c5N([H])[H])C4([H])[H])C([H])([H])C([H])([H])[H])nc3[H])c([H])c([H])c2C1([H])[H]

$$$$
72:0:0
     RDKit          3D

 92100  0  0  1  0  0  0  0  0999 V2000
  -30.4520  -20.0150   22.0210 C   0  0  0  0  0  3  0  0  0  0  0  0
  -30.8330  -18.8340   22.6650 C   0  0  0  0  0  0  0  0  0  0  0  0
  -29.8750  -19.9200   20.7510 C   0  0  0  0  0  0  0  0  0  0  0  0
  -30.1380  -17.5440   20.8760 C   0  0  0  0  0  0  0  0  0  0  0  0
  -30.6760  -17.6230   22.0950 N   0  0  0  0  0  0  0  0  0  0  0  0
  -29.7240  -18.6660   20.2010 N   0  0  0  0  0  0  0  0  0  0  0  0
  -29.6250  -16.1010   20.4410 C   0  0  2  0  0  0  0  0  0  0  0  0
  -29.1050  -16.2210   19.2150 F   0  0  0  0  0  0  0  0  0  0  0  0
  -28.5960  -15.9060   21.2680 F   0  0  0  0  0  0  0  0  0  0  0  0
  -30.5580  -14.7760   20.4030 C   0  0  0  0  0  0  0  0  0  0  0  0
  -30.4240  -12.5410   19.3000 C   0  0  0  0  0  2  0  0  0  0  0  0
  -29.4730  -12.6830   18.0860 C   0  0  0  0  0  2  0  0  0  0  0  0
  -28.0000  -12.4850   18.5040 C   0  0  0  0  0  2  0  0  0  0  0  0
  -27.6320  -13.3020   19.7680 C   0  0  0  0  0  3  0  0  0  0  0  0
  -28.6930  -13.1050   20.8740 C   0  0  0  0  0  2  0  0  0  0  0  0
  -29.9930  -13.5170   20.3260 N   0  0  0  0  0  0  0  0  0  0  0  0
  -31.7620  -14.8940   20.1340 O   0  0  0  0  0  0  0  0  0  0  0  0
  -25.2360  -13.8890   20.4840 C   0  0  0  0  0  0  0  0  0  0  0  0
  -24.1710  -13.1090   20.8390 C   0  0  0  0  0  0  0  0  0  0  0  0
  -24.6400  -11.7590   20.7990 C   0  0  0  0  0  0  0  0  0  0  0  0
  -26.2840  -13.0130   20.2450 N   0  0  0  0  0  0  0  0  0  0  0  0
  -25.9310  -11.7280   20.4990 N   0  0  0  0  0  0  0  0  0  0  0  0
  -23.9190  -10.4930   20.9740 C   0  0  0  0  0  0  0  0  0  0  0  0
  -24.3430   -9.5270   21.9130 C   0  0  0  0  0  3  0  0  0  0  0  0
  -23.6250   -8.3230   22.0750 C   0  0  0  0  0  3  0  0  0  0  0  0
  -22.4690   -8.0780   21.2970 C   0  0  0  0  0  0  0  0  0  0  0  0
  -22.0650   -9.0310   20.3480 C   0  0  0  0  0  3  0  0  0  0  0  0
  -22.7830  -10.2280   20.1840 C   0  0  0  0  0  3  0  0  0  0  0  0
  -21.7230   -6.9260   21.3680 O   0  0  0  0  0  0  0  0  0  0  0  0
  -21.6480   -6.1870   22.5220 C   0  0  0  0  0  0  0  0  0  0  0  0
  -21.1670   -6.7390   23.7290 C   0  0  0  0  0  3  0  0  0  0  0  0
  -21.0400   -5.9250   24.8720 C   0  0  0  0  0  3  0  0  0  0  0  0
  -21.3850   -4.5610   24.8090 C   0  0  0  0  0  0  0  0  0  0  0  0
  -21.8610   -4.0100   23.6070 C   0  0  0  0  0  3  0  0  0  0  0  0
  -21.9900   -4.8220   22.4660 C   0  0  0  0  0  0  0  0  0  0  0  0
  -22.4290   -4.2800   21.3030 F   0  0  0  0  0  0  0  0  0  0  0  0
  -21.2550   -3.7760   25.9040 F   0  0  0  0  0  0  0  0  0  0  0  0
  -22.7700  -13.5770   21.1070 C   0  0  0  0  0  0  0  0  0  0  0  0
  -22.0430  -12.8690   21.9620 N   0  0  0  0  0  0  0  0  0  0  0  0
  -22.3290  -14.6060   20.5940 O   0  0  0  0  0  0  0  0  0  0  0  0
  -22.4140  -12.0380   22.3970 H   0  0  0  0  0  0  0  0  0  0  0  0
  -21.1010  -13.1600   22.1840 H   0  0  0  0  0  0  0  0  0  0  0  0
  -25.3940  -15.2620   20.3230 N   0  0  0  0  0  0  0  0  0  0  0  0
  -24.6260  -15.9130   20.4500 H   0  0  0  0  0  0  0  0  0  0  0  0
  -26.2590  -15.7130   20.0550 H   0  0  0  0  0  0  0  0  0  0  0  0
  -30.1510  -19.2330   25.0480 C   0  0  0  0  0  1  0  0  0  0  0  0
  -31.3060  -18.8710   24.1030 C   0  0  0  0  0  2  0  0  0  0  0  0
  -29.4660  -21.2250   19.9660 C   0  0  0  0  0  3  0  0  0  0  0  0
  -28.9560  -22.5210   20.7660 C   0  0  0  0  0  3  0  0  0  0  0  0
  -28.8530  -23.9400   20.0200 C   0  0  0  0  0  3  0  0  0  0  0  0
  -28.2660  -25.1710   20.8530 C   0  0  0  0  0  3  0  0  0  0  0  0
  -28.4050  -26.5620   20.3580 O   0  0  0  0  0  0  0  0  0  0  0  0
  -24.6440  -31.9700   23.3570 C   0  0  0  0  0  0  0  0  0  0  0  0
  -27.2690  -27.3830   20.3640 C   0  0  0  0  0  0  0  0  0  0  0  0
  -23.4370  -30.5390   21.7450 C   0  0  0  0  0  3  0  0  0  0  0  0
  -24.8890  -28.9640   20.3460 C   0  0  0  0  0  0  0  0  0  0  0  0
  -25.9730  -30.8700   21.5410 C   0  0  0  0  0  2  0  0  0  0  0  0
  -26.0590  -29.4800   20.9200 C   0  0  0  0  0  0  0  0  0  0  0  0
  -27.2550  -28.7020   20.9120 C   0  0  0  0  0  3  0  0  0  0  0  0
  -26.0760  -26.9090   19.7780 C   0  0  0  0  0  3  0  0  0  0  0  0
  -24.8970  -27.6820   19.7700 C   0  0  0  0  0  3  0  0  0  0  0  0
  -23.6480  -29.8330   20.3800 C   0  0  0  0  0  2  0  0  0  0  0  0
  -24.7040  -31.1440   22.2720 N   0  0  0  0  0  0  0  0  0  0  0  0
  -23.5620  -32.2520   23.8920 O   0  0  0  0  0  0  0  0  0  0  0  0
  -22.7810  -29.5380   22.7260 C   0  0  0  0  0  0  0  0  0  0  0  0
  -21.4660  -29.3120   22.5700 N   0  0  0  0  0  0  0  0  0  0  0  0
  -23.4560  -28.9670   23.5860 O   0  0  0  0  0  0  0  0  0  0  0  0
  -20.9790  -29.8270   21.8490 H   0  0  0  0  0  0  0  0  0  0  0  0
  -18.1290  -27.9760   22.9750 C   0  0  0  0  0  0  0  0  0  0  0  0
  -20.6550  -28.3780   23.3530 C   0  0  0  0  0  3  0  0  0  0  0  0
  -20.8530  -26.9240   22.8660 C   0  0  0  0  0  2  0  0  0  0  0  0
  -19.8220  -26.4910   21.8190 C   0  0  0  0  0  2  0  0  0  0  0  0
  -18.4030  -26.6030   22.3870 C   0  0  0  0  0  2  0  0  0  0  0  0
  -19.1860  -28.8170   23.4130 C   0  0  0  0  0  0  0  0  0  0  0  0
  -18.8780  -30.0980   23.9200 C   0  0  0  0  0  3  0  0  0  0  0  0
  -17.5430  -30.5410   23.9930 C   0  0  0  0  0  3  0  0  0  0  0  0
  -16.4990  -29.6990   23.5720 C   0  0  0  0  0  3  0  0  0  0  0  0
  -16.7930  -28.4190   23.0700 C   0  0  0  0  0  3  0  0  0  0  0  0
  -25.9290  -32.6160   23.9620 C   0  0  0  0  0  3  0  0  0  0  0  0
  -25.6220  -34.0240   24.2530 N   0  0  0  0  0  0  0  0  0  0  0  0
  -25.9580  -35.0540   23.4650 C   0  0  0  0  0  0  0  0  0  0  0  0
  -26.6250  -34.9190   22.4360 O   0  0  0  0  0  0  0  0  0  0  0  0
  -25.0260  -34.2010   25.0480 H   0  0  0  0  0  0  0  0  0  0  0  0
  -24.2300  -36.8410   23.0690 C   0  0  0  0  0  1  0  0  0  0  0  0
  -25.4770  -36.4570   23.8820 C   0  0  0  0  0  3  0  0  0  0  0  0
  -27.6160  -37.3650   24.6750 C   0  0  0  0  0  1  0  0  0  0  0  0
  -26.5120  -37.5040   23.7290 N   0  0  0  0  0  0  0  0  0  0  0  0
  -26.1080  -38.4300   23.8520 H   0  0  0  0  0  0  0  0  0  0  0  0
  -26.4420  -31.8800   25.2600 C   0  0  1  0  0  0  0  0  0  0  0  0
  -25.3440  -31.6660   26.3290 C   0  0  0  0  0  1  0  0  0  0  0  0
  -27.0310  -30.4940   24.9080 C   0  0  0  0  0  1  0  0  0  0  0  0
  -27.5910  -32.6910   25.9050 C   0  0  0  0  0  1  0  0  0  0  0  0
  1  2  2  0
  2 47  1  0
  3  1  1  0
  4  5  2  0
  5  2  1  0
  6  3  2  0
  6  4  1  0
  7  4  1  0
  7  9  1  1
  8  7  1  0
 10  7  1  0
 11 16  1  0
 12 13  1  0
 12 11  1  0
 14 13  1  0
 14 21  1  0
 14 15  1  0
 16 10  1  0
 16 15  1  0
 17 10  2  0
 18 19  2  0
 19 38  1  0
 20 19  1  0
 20 23  1  0
 21 18  1  0
 21 22  1  0
 22 20  2  0
 23 24  1  0
 24 25  2  0
 26 29  1  0
 26 25  1  0
 27 26  2  0
 28 27  1  0
 28 23  2  0
 29 30  1  0
 30 31  1  0
 31 32  2  0
 33 32  1  0
 33 37  1  0
 34 33  2  0
 35 30  2  0
 35 34  1  0
 36 35  1  0
 38 39  1  0
 39 42  1  0
 39 41  1  0
 40 38  2  0
 43 44  1  0
 43 18  1  0
 45 43  1  0
 47 46  1  0
 48  3  1  0
 48 49  2  0
 50 49  1  0
 50 51  2  0
 52 54  1  0
 52 51  1  0
 53 64  2  0
 54 59  1  0
 55 63  1  0
 55 65  1  0
 56 62  1  0
 56 58  1  0
 57 63  1  0
 58 57  1  0
 59 58  2  0
 60 54  2  0
 61 60  1  0
 61 56  2  0
 62 55  1  0
 63 53  1  0
 65 67  2  0
 66 65  1  0
 68 66  1  0
 69 78  2  0
 69 74  1  0
 70 66  1  0
 70 74  1  0
 71 70  1  0
 72 73  1  0
 72 71  1  0
 73 69  1  0
 74 75  2  0
 75 76  1  0
 77 76  2  0
 78 77  1  0
 79 53  1  0
 79 80  1  0
 79 89  1  0
 80 83  1  0
 81 85  1  0
 81 80  1  0
 82 81  2  0
 85 84  1  0
 87 88  1  0
 87 85  1  0
 87 86  1  0
 89 92  1  1
 89 90  1  0
 91 89  1  0
M  ISO  4   7 100  10 100  51 101  52 101
M  END
>  <TORSDO>  (72) 
F 22

>  <SCORE>  (72) 
-11.247

>  <name>  (72) 
72

>  <ligand_id>  (72) 
72

>  <original_smiles>  (72) 
[H]c1c(C([H])([H])C([H])([H])[H])nc(C(F)(F)C(=O)N2C([H])([H])C([H])([H])C([H])([H])C([H])(n3nc(-c4c([H])c([H])c(Oc5c([H])c([H])c(F)c([H])c5F)c([H])c4[H])c(C(=O)N([H])[H])c3N([H])[H])C2([H])[H])nc1C([H])([H])C([H])([H])C([H])([H])C([H])([H])Oc1c([H])c([H])c2c(c1[H])C([H])([H])N(C(=O)C([H])(N([H])C(=O)C([H])(N([H])C([H])([H])[H])C([H])([H])[H])C(C([H])([H])[H])(C([H])([H])[H])C([H])([H])[H])C([H])(C(=O)N([H])C1([H])c3c([H])c([H])c([H])c([H])c3C([H])([H])C([H])([H])C1([H])[H])C2([H])[H]

>  <smiles>  (72) 
[H]c1c(C([H])([H])C([H])([H])[H])nc(C(F)(F)C(=O)N2C([H])([H])C([H])([H])C([H])([H])C([H])(n3nc(-c4c([H])c([H])c(Oc5c([H])c([H])c(F)c([H])c5F)c([H])c4[H])c(C(=O)N([H])[H])c3N([H])[H])C2([H])[H])nc1C([H])([H])C([H])([H])C([H])([H])C([H])([H])Oc1c([H])c([H])c2c(c1[H])C([H])([H])N(C(=O)C([H])(N([H])C(=O)C([H])(N([H])C([H])([H])[H])C([H])([H])[H])C(C([H])([H])[H])(C([H])([H])[H])C([H])([H])[H])C([H])(C(=O)N([H])C1([H])c3c([H])c([H])c([H])c([H])c3C([H])([H])C([H])([H])C1([H])[H])C2([H])[H]

$$$$
73:0:0
     RDKit          3D

 93101  0  0  1  0  0  0  0  0999 V2000
  -30.3100  -19.1230   18.9960 C   0  0  0  0  0  3  0  0  0  0  0  0
  -28.4950  -17.9670   20.5870 C   0  0  0  0  0  3  0  0  0  0  0  0
  -29.2520  -19.9090   19.5380 C   0  0  0  0  0  0  0  0  0  0  0  0
  -29.5770  -17.1680   20.0880 C   0  0  0  0  0  0  0  0  0  0  0  0
  -28.3200  -19.2950   20.3110 N   0  0  0  0  0  0  0  0  0  0  0  0
  -30.4680  -17.7870   19.2550 N   0  0  0  0  0  0  0  0  0  0  0  0
  -28.8440  -15.3380   21.7420 C   0  0  0  0  0  1  0  0  0  0  0  0
  -29.8910  -15.7090   20.6590 C   0  0  1  0  0  0  0  0  0  0  0  0
  -30.1200  -14.5100   19.5920 C   0  0  0  0  0  0  0  0  0  0  0  0
  -29.7260  -12.3440   18.3900 C   0  0  0  0  0  2  0  0  0  0  0  0
  -28.5870  -12.4740   17.3520 C   0  0  0  0  0  2  0  0  0  0  0  0
  -27.2090  -12.2310   17.9990 C   0  0  0  0  0  2  0  0  0  0  0  0
  -27.0430  -13.0090   19.3300 C   0  0  0  0  0  3  0  0  0  0  0  0
  -28.2750  -12.7810   20.2270 C   0  0  0  0  0  2  0  0  0  0  0  0
  -29.4620  -13.2900   19.5100 N   0  0  0  0  0  0  0  0  0  0  0  0
  -31.0230  -14.6970   18.7700 O   0  0  0  0  0  0  0  0  0  0  0  0
  -24.7980  -13.4850   20.4870 C   0  0  0  0  0  0  0  0  0  0  0  0
  -23.8290  -12.6570   20.9860 C   0  0  0  0  0  0  0  0  0  0  0  0
  -24.3080  -11.3260   20.7840 C   0  0  0  0  0  0  0  0  0  0  0  0
  -25.8020  -12.6540   20.0150 N   0  0  0  0  0  0  0  0  0  0  0  0
  -25.5220  -11.3470   20.2500 N   0  0  0  0  0  0  0  0  0  0  0  0
  -23.6530  -10.0300   21.0160 C   0  0  0  0  0  0  0  0  0  0  0  0
  -24.2010   -9.0730   21.8970 C   0  0  0  0  0  3  0  0  0  0  0  0
  -23.5430   -7.8430   22.1170 C   0  0  0  0  0  3  0  0  0  0  0  0
  -22.3240   -7.5620   21.4550 C   0  0  0  0  0  0  0  0  0  0  0  0
  -21.7950   -8.5100   20.5610 C   0  0  0  0  0  3  0  0  0  0  0  0
  -22.4530   -9.7300   20.3400 C   0  0  0  0  0  3  0  0  0  0  0  0
  -21.6300   -6.3840   21.5860 O   0  0  0  0  0  0  0  0  0  0  0  0
  -21.6430   -5.6680   22.7560 C   0  0  0  0  0  0  0  0  0  0  0  0
  -21.1990   -6.2240   23.9760 C   0  0  0  0  0  3  0  0  0  0  0  0
  -21.1630   -5.4310   25.1400 C   0  0  0  0  0  3  0  0  0  0  0  0
  -21.5600   -4.0810   25.0850 C   0  0  0  0  0  0  0  0  0  0  0  0
  -21.9970   -3.5230   23.8710 C   0  0  0  0  0  3  0  0  0  0  0  0
  -22.0350   -4.3140   22.7090 C   0  0  0  0  0  0  0  0  0  0  0  0
  -22.4360   -3.7660   21.5370 F   0  0  0  0  0  0  0  0  0  0  0  0
  -21.5170   -3.3160   26.2010 F   0  0  0  0  0  0  0  0  0  0  0  0
  -22.4930  -13.0710   21.5290 C   0  0  0  0  0  0  0  0  0  0  0  0
  -21.9440  -12.2990   22.4610 N   0  0  0  0  0  0  0  0  0  0  0  0
  -21.9470  -14.1110   21.1630 O   0  0  0  0  0  0  0  0  0  0  0  0
  -22.4010  -11.4560   22.7770 H   0  0  0  0  0  0  0  0  0  0  0  0
  -21.0550  -12.5570   22.8660 H   0  0  0  0  0  0  0  0  0  0  0  0
  -24.8980  -14.8690   20.3750 N   0  0  0  0  0  0  0  0  0  0  0  0
  -24.1430  -15.4850   20.6570 H   0  0  0  0  0  0  0  0  0  0  0  0
  -25.6440  -15.3550   19.8940 H   0  0  0  0  0  0  0  0  0  0  0  0
  -31.2290  -15.8510   21.4750 C   0  0  1  0  0  0  0  0  0  0  0  0
  -31.0910  -16.7220   22.4810 F   0  0  0  0  0  0  0  0  0  0  0  0
  -31.5880  -14.6800   22.0110 F   0  0  0  0  0  0  0  0  0  0  0  0
  -32.2640  -16.2820   20.7480 F   0  0  0  0  0  0  0  0  0  0  0  0
  -29.0300  -21.4000   19.1140 C   0  0  0  0  0  3  0  0  0  0  0  0
  -28.7890  -22.5330   20.1940 C   0  0  0  0  0  3  0  0  0  0  0  0
  -28.7310  -24.0280   19.6460 C   0  0  0  0  0  3  0  0  0  0  0  0
  -28.3240  -25.1750   20.6570 C   0  0  0  0  0  3  0  0  0  0  0  0
  -28.4740  -26.5740   20.2300 O   0  0  0  0  0  0  0  0  0  0  0  0
  -24.6610  -31.9070   23.2040 C   0  0  0  0  0  0  0  0  0  0  0  0
  -27.3340  -27.3730   20.2140 C   0  0  0  0  0  0  0  0  0  0  0  0
  -23.4770  -30.4810   21.5700 C   0  0  0  0  0  3  0  0  0  0  0  0
  -24.9480  -28.9260   20.1730 C   0  0  0  0  0  0  0  0  0  0  0  0
  -26.0080  -30.8330   21.3900 C   0  0  0  0  0  2  0  0  0  0  0  0
  -26.1070  -29.4490   20.7640 C   0  0  0  0  0  0  0  0  0  0  0  0
  -27.3070  -28.6840   20.7720 C   0  0  0  0  0  3  0  0  0  0  0  0
  -26.1580  -26.8860   19.6080 C   0  0  0  0  0  3  0  0  0  0  0  0
  -24.9730  -27.6490   19.5860 C   0  0  0  0  0  3  0  0  0  0  0  0
  -23.7030  -29.7890   20.2000 C   0  0  0  0  0  2  0  0  0  0  0  0
  -24.7330  -31.0910   22.1130 N   0  0  0  0  0  0  0  0  0  0  0  0
  -23.5740  -32.1800   23.7300 O   0  0  0  0  0  0  0  0  0  0  0  0
  -22.8200  -29.4690   22.5380 C   0  0  0  0  0  0  0  0  0  0  0  0
  -21.4940  -29.2920   22.4140 N   0  0  0  0  0  0  0  0  0  0  0  0
  -23.5010  -28.8460   23.3570 O   0  0  0  0  0  0  0  0  0  0  0  0
  -21.0030  -29.8470   21.7270 H   0  0  0  0  0  0  0  0  0  0  0  0
  -18.1100  -28.1340   22.9560 C   0  0  0  0  0  0  0  0  0  0  0  0
  -20.6750  -28.3600   23.1910 C   0  0  0  0  0  3  0  0  0  0  0  0
  -20.7510  -26.9310   22.6050 C   0  0  0  0  0  2  0  0  0  0  0  0
  -19.6310  -26.6290   21.6040 C   0  0  0  0  0  2  0  0  0  0  0  0
  -18.2610  -26.7870   22.2690 C   0  0  0  0  0  2  0  0  0  0  0  0
  -19.2440  -28.8800   23.3750 C   0  0  0  0  0  0  0  0  0  0  0  0
  -19.0520  -30.1420   23.9760 C   0  0  0  0  0  3  0  0  0  0  0  0
  -17.7560  -30.6600   24.1620 C   0  0  0  0  0  3  0  0  0  0  0  0
  -16.6370  -29.9120   23.7610 C   0  0  0  0  0  3  0  0  0  0  0  0
  -16.8140  -28.6510   23.1640 C   0  0  0  0  0  3  0  0  0  0  0  0
  -25.9370  -32.5540   23.8260 C   0  0  0  0  0  3  0  0  0  0  0  0
  -25.6120  -33.9480   24.1560 N   0  0  0  0  0  0  0  0  0  0  0  0
  -25.9350  -35.0050   23.3980 C   0  0  0  0  0  0  0  0  0  0  0  0
  -26.6100  -34.9090   22.3700 O   0  0  0  0  0  0  0  0  0  0  0  0
  -25.0120  -34.0960   24.9540 H   0  0  0  0  0  0  0  0  0  0  0  0
  -24.1930  -36.7830   23.0360 C   0  0  0  0  0  1  0  0  0  0  0  0
  -25.4320  -36.3880   23.8540 C   0  0  0  0  0  3  0  0  0  0  0  0
  -27.5510  -37.2940   24.7020 C   0  0  0  0  0  1  0  0  0  0  0  0
  -26.4550  -37.4520   23.7500 N   0  0  0  0  0  0  0  0  0  0  0  0
  -26.0380  -38.3670   23.8960 H   0  0  0  0  0  0  0  0  0  0  0  0
  -26.4630  -31.7880   25.1030 C   0  0  1  0  0  0  0  0  0  0  0  0
  -25.3680  -31.5200   26.1640 C   0  0  0  0  0  1  0  0  0  0  0  0
  -27.0780  -30.4260   24.7060 C   0  0  0  0  0  1  0  0  0  0  0  0
  -27.5910  -32.6050   25.7770 C   0  0  0  0  0  1  0  0  0  0  0  0
  1  6  2  0
  1  3  1  0
  3  5  2  0
  4  2  2  0
  4  8  1  0
  5  2  1  0
  6  4  1  0
  8 45  1  0
  8  7  1  1
  9  8  1  0
 10 15  1  0
 11 12  1  0
 11 10  1  0
 13 12  1  0
 13 20  1  0
 13 14  1  0
 15  9  1  0
 15 14  1  0
 16  9  2  0
 17 18  2  0
 18 37  1  0
 19 18  1  0
 19 22  1  0
 20 21  1  0
 20 17  1  0
 21 19  2  0
 22 23  1  0
 23 24  2  0
 25 28  1  0
 25 24  1  0
 26 25  2  0
 27 26  1  0
 27 22  2  0
 28 29  1  0
 29 30  1  0
 30 31  2  0
 32 31  1  0
 32 36  1  0
 33 32  2  0
 34 29  2  0
 34 33  1  0
 35 34  1  0
 37 38  1  0
 38 40  1  0
 38 41  1  0
 39 37  2  0
 42 17  1  0
 42 43  1  0
 44 42  1  0
 45 47  1  1
 45 46  1  0
 48 45  1  0
 49  3  1  0
 49 50  2  0
 51 50  1  0
 51 52  2  0
 53 52  1  0
 54 65  2  0
 55 53  1  0
 55 60  1  0
 56 64  1  0
 56 66  1  0
 57 63  1  0
 57 59  1  0
 58 64  1  0
 59 60  2  0
 59 58  1  0
 61 55  2  0
 62 61  1  0
 62 57  2  0
 63 56  1  0
 64 54  1  0
 66 68  2  0
 67 66  1  0
 69 67  1  0
 70 79  2  0
 70 75  1  0
 71 67  1  0
 71 75  1  0
 72 71  1  0
 73 74  1  0
 73 72  1  0
 74 70  1  0
 75 76  2  0
 76 77  1  0
 78 77  2  0
 79 78  1  0
 80 54  1  0
 80 81  1  0
 80 90  1  0
 81 84  1  0
 82 86  1  0
 82 81  1  0
 83 82  2  0
 86 85  1  0
 88 86  1  0
 88 89  1  0
 88 87  1  0
 90 93  1  1
 90 91  1  0
 92 90  1  0
M  ISO  4   8 100   9 100  52 101  53 101
M  END
>  <TORSDO>  (73) 
F 22

>  <SCORE>  (73) 
-11.309

>  <name>  (73) 
73

>  <ligand_id>  (73) 
73

>  <original_smiles>  (73) 
[H]c1nc(C(C(=O)N2C([H])([H])C([H])([H])C([H])([H])C([H])(n3nc(-c4c([H])c([H])c(Oc5c([H])c([H])c(F)c([H])c5F)c([H])c4[H])c(C(=O)N([H])[H])c3N([H])[H])C2([H])[H])(C([H])([H])[H])C(F)(F)F)c([H])nc1C([H])([H])C([H])([H])C([H])([H])C([H])([H])Oc1c([H])c([H])c2c(c1[H])C([H])([H])N(C(=O)C([H])(N([H])C(=O)C([H])(N([H])C([H])([H])[H])C([H])([H])[H])C(C([H])([H])[H])(C([H])([H])[H])C([H])([H])[H])C([H])(C(=O)N([H])C1([H])c3c([H])c([H])c([H])c([H])c3C([H])([H])C([H])([H])C1([H])[H])C2([H])[H]

>  <smiles>  (73) 
[H]c1nc(C(C(=O)N2C([H])([H])C([H])([H])C([H])([H])C([H])(n3nc(-c4c([H])c([H])c(Oc5c([H])c([H])c(F)c([H])c5F)c([H])c4[H])c(C(=O)N([H])[H])c3N([H])[H])C2([H])[H])(C([H])([H])[H])C(F)(F)F)c([H])nc1C([H])([H])C([H])([H])C([H])([H])C([H])([H])Oc1c([H])c([H])c2c(c1[H])C([H])([H])N(C(=O)C([H])(N([H])C(=O)C([H])(N([H])C([H])([H])[H])C([H])([H])[H])C(C([H])([H])[H])(C([H])([H])[H])C([H])([H])[H])C([H])(C(=O)N([H])C1([H])c3c([H])c([H])c([H])c([H])c3C([H])([H])C([H])([H])C1([H])[H])C2([H])[H]

$$$$
74:0:0
     RDKit          3D

 96104  0  0  1  0  0  0  0  0999 V2000
  -29.8730  -18.1860   20.4570 C   0  0  0  0  0  3  0  0  0  0  0  0
  -31.9140  -19.9490   20.5100 C   0  0  0  0  0  3  0  0  0  0  0  0
  -31.2050  -17.7470   20.6940 C   0  0  0  0  0  0  0  0  0  0  0  0
  -30.5860  -20.3840   20.3040 C   0  0  0  0  0  0  0  0  0  0  0  0
  -32.2230  -18.6480   20.7170 N   0  0  0  0  0  0  0  0  0  0  0  0
  -29.5560  -19.4980   20.2630 N   0  0  0  0  0  0  0  0  0  0  0  0
  -33.0750  -16.0180   20.9750 C   0  0  0  0  0  1  0  0  0  0  0  0
  -31.5530  -16.3020   21.1380 C   0  0  2  0  0  0  0  0  0  0  0  0
  -31.0420  -14.5150   19.3740 C   0  0  0  0  0  0  0  0  0  0  0  0
  -30.5010  -12.4120   18.1860 C   0  0  0  0  0  2  0  0  0  0  0  0
  -29.3920  -12.6070   17.1370 C   0  0  0  0  0  2  0  0  0  0  0  0
  -27.9990  -12.4720   17.7800 C   0  0  0  0  0  2  0  0  0  0  0  0
  -27.8540  -13.3320   19.0620 C   0  0  0  0  0  3  0  0  0  0  0  0
  -29.0480  -13.1000   20.0110 C   0  0  0  0  0  2  0  0  0  0  0  0
  -30.2930  -13.3850   19.2690 N   0  0  0  0  0  0  0  0  0  0  0  0
  -31.9440  -14.8000   18.5830 O   0  0  0  0  0  0  0  0  0  0  0  0
  -30.7730  -15.2540   20.4570 N   0  0  0  0  0  0  0  0  0  0  0  0
  -30.0020  -14.9170   21.0130 H   0  0  0  0  0  0  0  0  0  0  0  0
  -25.6300  -13.9870   20.1850 C   0  0  0  0  0  0  0  0  0  0  0  0
  -24.5940  -13.2360   20.6690 C   0  0  0  0  0  0  0  0  0  0  0  0
  -24.9700  -11.8720   20.4700 C   0  0  0  0  0  0  0  0  0  0  0  0
  -26.5770  -13.0830   19.7300 N   0  0  0  0  0  0  0  0  0  0  0  0
  -26.1900  -11.8010   19.9560 N   0  0  0  0  0  0  0  0  0  0  0  0
  -24.2160  -10.6310   20.6890 C   0  0  0  0  0  0  0  0  0  0  0  0
  -24.7020   -9.6110   21.5360 C   0  0  0  0  0  3  0  0  0  0  0  0
  -23.9510   -8.4350   21.7440 C   0  0  0  0  0  3  0  0  0  0  0  0
  -22.6990   -8.2700   21.1050 C   0  0  0  0  0  0  0  0  0  0  0  0
  -22.2300   -9.2780   20.2450 C   0  0  0  0  0  3  0  0  0  0  0  0
  -22.9810  -10.4460   20.0350 C   0  0  0  0  0  3  0  0  0  0  0  0
  -21.9120   -7.1510   21.2270 O   0  0  0  0  0  0  0  0  0  0  0  0
  -21.8910   -6.4080   22.3800 C   0  0  0  0  0  0  0  0  0  0  0  0
  -21.5370   -6.9720   23.6250 C   0  0  0  0  0  3  0  0  0  0  0  0
  -21.4620   -6.1570   24.7720 C   0  0  0  0  0  3  0  0  0  0  0  0
  -21.7310   -4.7790   24.6760 C   0  0  0  0  0  0  0  0  0  0  0  0
  -22.0780   -4.2140   23.4360 C   0  0  0  0  0  3  0  0  0  0  0  0
  -22.1550   -5.0250   22.2910 C   0  0  0  0  0  0  0  0  0  0  0  0
  -22.4700   -4.4720   21.0960 F   0  0  0  0  0  0  0  0  0  0  0  0
  -21.6500   -3.9940   25.7760 F   0  0  0  0  0  0  0  0  0  0  0  0
  -23.2850  -13.7500   21.1970 C   0  0  0  0  0  0  0  0  0  0  0  0
  -22.6770  -13.0310   22.1350 N   0  0  0  0  0  0  0  0  0  0  0  0
  -22.8170  -14.8210   20.8130 O   0  0  0  0  0  0  0  0  0  0  0  0
  -23.0720  -12.1620   22.4650 H   0  0  0  0  0  0  0  0  0  0  0  0
  -21.8060  -13.3550   22.5290 H   0  0  0  0  0  0  0  0  0  0  0  0
  -25.8400  -15.3590   20.0780 N   0  0  0  0  0  0  0  0  0  0  0  0
  -25.1360  -16.0360   20.3530 H   0  0  0  0  0  0  0  0  0  0  0  0
  -26.6500  -15.7860   19.6460 H   0  0  0  0  0  0  0  0  0  0  0  0
  -31.1800  -16.1360   22.6380 C   0  0  2  0  0  0  0  0  0  0  0  0
  -29.8580  -16.2350   22.7910 F   0  0  0  0  0  0  0  0  0  0  0  0
  -31.7660  -17.0530   23.4090 F   0  0  0  0  0  0  0  0  0  0  0  0
  -31.5460  -14.9280   23.0740 F   0  0  0  0  0  0  0  0  0  0  0  0
  -30.3450  -21.7370   20.1610 O   0  0  0  0  0  0  0  0  0  0  0  0
  -29.0320  -22.2100   19.8640 C   0  0  0  0  0  2  0  0  0  0  0  0
  -29.1270  -23.7360   19.6290 C   0  0  0  0  0  2  0  0  0  0  0  0
  -27.8620  -24.3720   19.0110 C   0  0  0  0  0  2  0  0  0  0  0  0
  -28.0710  -25.8090   18.4700 C   0  0  0  0  0  2  0  0  0  0  0  0
  -27.9660  -26.8420   19.4610 O   0  0  0  0  0  0  0  0  0  0  0  0
  -24.3100  -31.7490   23.1160 C   0  0  0  0  0  0  0  0  0  0  0  0
  -26.7660  -27.5160   19.5950 C   0  0  0  0  0  0  0  0  0  0  0  0
  -22.9980  -30.4170   21.4960 C   0  0  0  0  0  3  0  0  0  0  0  0
  -24.3550  -28.9770   19.8880 C   0  0  0  0  0  0  0  0  0  0  0  0
  -25.4970  -30.8200   21.1310 C   0  0  0  0  0  2  0  0  0  0  0  0
  -25.5480  -29.4840   20.4170 C   0  0  0  0  0  0  0  0  0  0  0  0
  -26.7510  -28.7550   20.2790 C   0  0  0  0  0  3  0  0  0  0  0  0
  -25.5470  -27.0150   19.0830 C   0  0  0  0  0  3  0  0  0  0  0  0
  -24.3480  -27.7380   19.2250 C   0  0  0  0  0  3  0  0  0  0  0  0
  -23.1100  -29.8140   20.0710 C   0  0  0  0  0  2  0  0  0  0  0  0
  -24.2910  -31.0080   21.9710 N   0  0  0  0  0  0  0  0  0  0  0  0
  -23.2700  -31.9770   23.7480 O   0  0  0  0  0  0  0  0  0  0  0  0
  -22.4330  -29.3370   22.4460 C   0  0  0  0  0  0  0  0  0  0  0  0
  -21.1290  -29.0450   22.3120 N   0  0  0  0  0  0  0  0  0  0  0  0
  -23.1650  -28.7650   23.2590 O   0  0  0  0  0  0  0  0  0  0  0  0
  -20.5970  -29.5640   21.6280 H   0  0  0  0  0  0  0  0  0  0  0  0
  -17.8970  -27.4770   22.6930 C   0  0  0  0  0  0  0  0  0  0  0  0
  -20.3920  -28.0360   23.0720 C   0  0  0  0  0  3  0  0  0  0  0  0
  -20.6870  -26.6140   22.5400 C   0  0  0  0  0  2  0  0  0  0  0  0
  -19.6790  -26.1430   21.4880 C   0  0  0  0  0  2  0  0  0  0  0  0
  -18.2600  -26.1410   22.0640 C   0  0  0  0  0  2  0  0  0  0  0  0
  -18.8990  -28.3730   23.1510 C   0  0  0  0  0  0  0  0  0  0  0  0
  -18.5090  -29.6160   23.6950 C   0  0  0  0  0  3  0  0  0  0  0  0
  -17.1480  -29.9670   23.7860 C   0  0  0  0  0  3  0  0  0  0  0  0
  -16.1600  -29.0690   23.3460 C   0  0  0  0  0  3  0  0  0  0  0  0
  -16.5350  -27.8270   22.8040 C   0  0  0  0  0  3  0  0  0  0  0  0
  -25.6320  -32.3650   23.6700 C   0  0  0  0  0  3  0  0  0  0  0  0
  -25.3420  -33.7480   24.0700 N   0  0  0  0  0  0  0  0  0  0  0  0
  -25.6260  -34.8300   23.3310 C   0  0  0  0  0  0  0  0  0  0  0  0
  -26.2330  -34.7680   22.2590 O   0  0  0  0  0  0  0  0  0  0  0  0
  -24.7950  -33.8710   24.9100 H   0  0  0  0  0  0  0  0  0  0  0  0
  -23.8740  -36.6230   23.1470 C   0  0  0  0  0  1  0  0  0  0  0  0
  -25.1620  -36.1970   23.8680 C   0  0  0  0  0  3  0  0  0  0  0  0
  -27.3410  -37.0600   24.6000 C   0  0  0  0  0  1  0  0  0  0  0  0
  -26.1830  -37.2590   23.7330 N   0  0  0  0  0  0  0  0  0  0  0  0
  -25.7850  -38.1700   23.9420 H   0  0  0  0  0  0  0  0  0  0  0  0
  -26.2410  -31.5500   24.8770 C   0  0  1  0  0  0  0  0  0  0  0  0
  -25.2210  -31.2470   25.9980 C   0  0  0  0  0  1  0  0  0  0  0  0
  -26.8210  -30.2030   24.3870 C   0  0  0  0  0  1  0  0  0  0  0  0
  -27.4170  -32.3380   25.5000 C   0  0  0  0  0  1  0  0  0  0  0  0
  1  3  2  0
  2  5  2  0
  3  5  1  0
  3  8  1  0
  4  2  1  0
  6  4  2  0
  6  1  1  0
  8  7  1  1
  8 47  1  0
  9 17  1  0
 10 15  1  0
 11 12  1  0
 11 10  1  0
 13 12  1  0
 13 22  1  0
 13 14  1  0
 15  9  1  0
 15 14  1  0
 16  9  2  0
 17 18  1  0
 17  8  1  0
 19 20  2  0
 20 39  1  0
 21 20  1  0
 21 24  1  0
 22 23  1  0
 22 19  1  0
 23 21  2  0
 24 25  1  0
 25 26  2  0
 27 30  1  0
 27 26  1  0
 28 27  2  0
 29 28  1  0
 29 24  2  0
 30 31  1  0
 31 32  1  0
 32 33  2  0
 34 33  1  0
 34 38  1  0
 35 34  2  0
 36 31  2  0
 36 35  1  0
 37 36  1  0
 39 40  1  0
 40 42  1  0
 40 43  1  0
 41 39  2  0
 44 19  1  0
 44 45  1  0
 46 44  1  0
 47 48  1  6
 47 50  1  0
 47 49  1  0
 51  4  1  0
 52 51  1  0
 53 52  1  0
 54 53  1  0
 55 54  1  0
 55 56  1  0
 56 58  1  0
 57 68  2  0
 58 63  1  0
 59 67  1  0
 59 69  1  0
 60 66  1  0
 60 62  1  0
 61 67  1  0
 62 61  1  0
 63 62  2  0
 64 65  1  0
 64 58  2  0
 65 60  2  0
 66 59  1  0
 67 57  1  0
 69 71  2  0
 70 69  1  0
 72 70  1  0
 73 82  2  0
 73 78  1  0
 74 70  1  0
 74 78  1  0
 75 74  1  0
 76 77  1  0
 76 75  1  0
 77 73  1  0
 78 79  2  0
 79 80  1  0
 81 80  2  0
 82 81  1  0
 83 57  1  0
 83 84  1  0
 83 93  1  0
 84 87  1  0
 85 89  1  0
 85 84  1  0
 86 85  2  0
 89 88  1  0
 91 89  1  0
 91 92  1  0
 91 90  1  0
 93 96  1  1
 93 94  1  0
 95 93  1  0
M  ISO  4   9 100  17 100  55 101  56 101
M  END
>  <TORSDO>  (74) 
F 23

>  <SCORE>  (74) 
-7.347

>  <name>  (74) 
74

>  <ligand_id>  (74) 
74

>  <original_smiles>  (74) 
[H]c1nc(C(N([H])C(=O)N2C([H])([H])C([H])([H])C([H])([H])C([H])(n3nc(-c4c([H])c([H])c(Oc5c([H])c([H])c(F)c([H])c5F)c([H])c4[H])c(C(=O)N([H])[H])c3N([H])[H])C2([H])[H])(C([H])([H])[H])C(F)(F)F)c([H])nc1OC([H])([H])C([H])([H])C([H])([H])C([H])([H])Oc1c([H])c([H])c2c(c1[H])C([H])([H])N(C(=O)C([H])(N([H])C(=O)C([H])(N([H])C([H])([H])[H])C([H])([H])[H])C(C([H])([H])[H])(C([H])([H])[H])C([H])([H])[H])C([H])(C(=O)N([H])C1([H])c3c([H])c([H])c([H])c([H])c3C([H])([H])C([H])([H])C1([H])[H])C2([H])[H]

>  <smiles>  (74) 
[H]c1nc(C(N([H])C(=O)N2C([H])([H])C([H])([H])C([H])([H])C([H])(n3nc(-c4c([H])c([H])c(Oc5c([H])c([H])c(F)c([H])c5F)c([H])c4[H])c(C(=O)N([H])[H])c3N([H])[H])C2([H])[H])(C([H])([H])[H])C(F)(F)F)c([H])nc1OC([H])([H])C([H])([H])C([H])([H])C([H])([H])Oc1c([H])c([H])c2c(c1[H])C([H])([H])N(C(=O)C([H])(N([H])C(=O)C([H])(N([H])C([H])([H])[H])C([H])([H])[H])C(C([H])([H])[H])(C([H])([H])[H])C([H])([H])[H])C([H])(C(=O)N([H])C1([H])c3c([H])c([H])c([H])c([H])c3C([H])([H])C([H])([H])C1([H])[H])C2([H])[H]

$$$$
75:0:0
     RDKit          3D

 97105  0  0  1  0  0  0  0  0999 V2000
  -28.1850  -22.8290   19.3270 C   0  0  0  0  0  3  0  0  0  0  0  0
  -28.8730  -23.9610   19.8320 C   0  0  0  0  0  0  0  0  0  0  0  0
  -29.9480  -23.6070   20.6900 C   0  0  0  0  0  0  0  0  0  0  0  0
  -29.5700  -21.2860   20.3970 C   0  0  0  0  0  0  0  0  0  0  0  0
  -30.8260  -24.6400   21.3910 C   0  0  0  0  0  1  0  0  0  0  0  0
  -28.5060  -21.5430   19.6330 N   0  0  0  0  0  0  0  0  0  0  0  0
  -30.2700  -22.3010   20.9450 N   0  0  0  0  0  0  0  0  0  0  0  0
  -29.8300  -19.8070   20.9420 C   0  0  2  0  0  0  0  0  0  0  0  0
  -28.7820  -19.5340   21.7260 F   0  0  0  0  0  0  0  0  0  0  0  0
  -30.8870  -19.8850   21.7640 F   0  0  0  0  0  0  0  0  0  0  0  0
  -31.4300  -18.7020   19.2190 C   0  0  0  0  0  1  0  0  0  0  0  0
  -30.1190  -18.4990   20.0180 C   0  0  2  0  0  0  0  0  0  0  0  0
  -28.9620  -18.2770   18.9960 C   0  0  1  0  0  0  0  0  0  0  0  0
  -29.1550  -17.1680   18.2740 F   0  0  0  0  0  0  0  0  0  0  0  0
  -27.7950  -18.1430   19.6300 F   0  0  0  0  0  0  0  0  0  0  0  0
  -28.8630  -19.2680   18.1130 F   0  0  0  0  0  0  0  0  0  0  0  0
  -30.3610  -17.1890   20.9410 C   0  0  0  0  0  2  0  0  0  0  0  0
  -30.8900  -14.7370   20.0810 C   0  0  0  0  0  0  0  0  0  0  0  0
  -30.6390  -12.5150   18.9700 C   0  0  0  0  0  2  0  0  0  0  0  0
  -29.6580  -12.6660   17.7860 C   0  0  0  0  0  2  0  0  0  0  0  0
  -28.2030  -12.4850   18.2660 C   0  0  0  0  0  2  0  0  0  0  0  0
  -27.8790  -13.3550   19.5090 C   0  0  0  0  0  3  0  0  0  0  0  0
  -28.9670  -13.1890   20.5950 C   0  0  0  0  0  2  0  0  0  0  0  0
  -30.2590  -13.5260   19.9790 N   0  0  0  0  0  0  0  0  0  0  0  0
  -32.0460  -14.9050   19.6900 O   0  0  0  0  0  0  0  0  0  0  0  0
  -30.0940  -15.7690   20.4940 N   0  0  0  0  0  0  0  0  0  0  0  0
  -29.1560  -15.4570   20.6990 H   0  0  0  0  0  0  0  0  0  0  0  0
  -25.5310  -13.9880   20.3310 C   0  0  0  0  0  0  0  0  0  0  0  0
  -24.4660  -13.2300   20.7280 C   0  0  0  0  0  0  0  0  0  0  0  0
  -24.9000  -11.8730   20.6650 C   0  0  0  0  0  0  0  0  0  0  0  0
  -26.5450  -13.0900   20.0420 N   0  0  0  0  0  0  0  0  0  0  0  0
  -26.1740  -11.8110   20.3020 N   0  0  0  0  0  0  0  0  0  0  0  0
  -24.1570  -10.6200   20.8630 C   0  0  0  0  0  0  0  0  0  0  0  0
  -24.5690   -9.6620   21.8140 C   0  0  0  0  0  3  0  0  0  0  0  0
  -23.8300   -8.4750   22.0050 C   0  0  0  0  0  3  0  0  0  0  0  0
  -22.6630   -8.2360   21.2390 C   0  0  0  0  0  0  0  0  0  0  0  0
  -22.2690   -9.1840   20.2780 C   0  0  0  0  0  3  0  0  0  0  0  0
  -23.0090  -10.3620   20.0880 C   0  0  0  0  0  3  0  0  0  0  0  0
  -21.8990   -7.0990   21.3340 O   0  0  0  0  0  0  0  0  0  0  0  0
  -21.7820   -6.4040   22.5100 C   0  0  0  0  0  0  0  0  0  0  0  0
  -21.2690   -7.0050   23.6800 C   0  0  0  0  0  3  0  0  0  0  0  0
  -21.1000   -6.2390   24.8510 C   0  0  0  0  0  3  0  0  0  0  0  0
  -21.4370   -4.8720   24.8530 C   0  0  0  0  0  0  0  0  0  0  0  0
  -21.9440   -4.2700   23.6870 C   0  0  0  0  0  3  0  0  0  0  0  0
  -22.1160   -5.0340   22.5210 C   0  0  0  0  0  0  0  0  0  0  0  0
  -22.5860   -4.4450   21.3950 F   0  0  0  0  0  0  0  0  0  0  0  0
  -21.2660   -4.1330   25.9740 F   0  0  0  0  0  0  0  0  0  0  0  0
  -23.0880  -13.7290   21.0570 C   0  0  0  0  0  0  0  0  0  0  0  0
  -22.3830  -13.0350   21.9430 N   0  0  0  0  0  0  0  0  0  0  0  0
  -22.6500  -14.7670   20.5670 O   0  0  0  0  0  0  0  0  0  0  0  0
  -22.7560  -12.1900   22.3520 H   0  0  0  0  0  0  0  0  0  0  0  0
  -21.4580  -13.3470   22.2050 H   0  0  0  0  0  0  0  0  0  0  0  0
  -25.7250  -15.3560   20.1690 N   0  0  0  0  0  0  0  0  0  0  0  0
  -24.9780  -16.0280   20.2980 H   0  0  0  0  0  0  0  0  0  0  0  0
  -26.5580  -15.7660   19.7690 H   0  0  0  0  0  0  0  0  0  0  0  0
  -28.5560  -25.3950   19.2450 C   0  0  0  0  0  2  0  0  0  0  0  0
  -28.3130  -26.5740   20.0940 O   0  0  0  0  0  0  0  0  0  0  0  0
  -24.5500  -31.8690   23.1510 C   0  0  0  0  0  0  0  0  0  0  0  0
  -27.1560  -27.3720   20.0090 C   0  0  0  0  0  0  0  0  0  0  0  0
  -23.3220  -30.4890   21.5090 C   0  0  0  0  0  3  0  0  0  0  0  0
  -24.7590  -28.9520   20.0440 C   0  0  0  0  0  0  0  0  0  0  0  0
  -25.8510  -30.8250   21.2830 C   0  0  0  0  0  2  0  0  0  0  0  0
  -25.9290  -29.4530   20.6280 C   0  0  0  0  0  0  0  0  0  0  0  0
  -27.1220  -28.6690   20.6070 C   0  0  0  0  0  3  0  0  0  0  0  0
  -25.9570  -26.9150   19.4130 C   0  0  0  0  0  3  0  0  0  0  0  0
  -24.7750  -27.6880   19.4310 C   0  0  0  0  0  3  0  0  0  0  0  0
  -23.5140  -29.8150   20.1230 C   0  0  0  0  0  2  0  0  0  0  0  0
  -24.5940  -31.0770   22.0390 N   0  0  0  0  0  0  0  0  0  0  0  0
  -23.4770  -32.1360   23.7090 O   0  0  0  0  0  0  0  0  0  0  0  0
  -22.6690  -29.4660   22.4700 C   0  0  0  0  0  0  0  0  0  0  0  0
  -21.3390  -29.3020   22.3690 N   0  0  0  0  0  0  0  0  0  0  0  0
  -23.3590  -28.8180   23.2600 O   0  0  0  0  0  0  0  0  0  0  0  0
  -20.8380  -29.8710   21.7030 H   0  0  0  0  0  0  0  0  0  0  0  0
  -17.9660  -28.1160   22.9170 C   0  0  0  0  0  0  0  0  0  0  0  0
  -20.5310  -28.3580   23.1430 C   0  0  0  0  0  3  0  0  0  0  0  0
  -20.6160  -26.9340   22.5460 C   0  0  0  0  0  2  0  0  0  0  0  0
  -19.4930  -26.6350   21.5470 C   0  0  0  0  0  2  0  0  0  0  0  0
  -18.1230  -26.7770   22.2150 C   0  0  0  0  0  2  0  0  0  0  0  0
  -19.0970  -28.8650   23.3390 C   0  0  0  0  0  0  0  0  0  0  0  0
  -18.8960  -30.1200   23.9550 C   0  0  0  0  0  3  0  0  0  0  0  0
  -17.6000  -30.6270   24.1520 C   0  0  0  0  0  3  0  0  0  0  0  0
  -16.4840  -29.8740   23.7480 C   0  0  0  0  0  3  0  0  0  0  0  0
  -16.6670  -28.6210   23.1370 C   0  0  0  0  0  3  0  0  0  0  0  0
  -25.8420  -32.4930   23.7640 C   0  0  0  0  0  3  0  0  0  0  0  0
  -25.5340  -33.8790   24.1440 N   0  0  0  0  0  0  0  0  0  0  0  0
  -25.8390  -34.9540   23.4050 C   0  0  0  0  0  0  0  0  0  0  0  0
  -26.4780  -34.8830   22.3510 O   0  0  0  0  0  0  0  0  0  0  0  0
  -24.9650  -34.0070   24.9670 H   0  0  0  0  0  0  0  0  0  0  0  0
  -24.0930  -36.7460   23.1470 C   0  0  0  0  0  1  0  0  0  0  0  0
  -25.3580  -36.3270   23.9120 C   0  0  0  0  0  3  0  0  0  0  0  0
  -27.5070  -37.2040   24.7140 C   0  0  0  0  0  1  0  0  0  0  0  0
  -26.3830  -37.3890   23.8000 N   0  0  0  0  0  0  0  0  0  0  0  0
  -25.9770  -38.3040   23.9790 H   0  0  0  0  0  0  0  0  0  0  0  0
  -26.3900  -31.6850   25.0040 C   0  0  1  0  0  0  0  0  0  0  0  0
  -25.3190  -31.4080   26.0840 C   0  0  0  0  0  1  0  0  0  0  0  0
  -26.9710  -30.3230   24.5570 C   0  0  0  0  0  1  0  0  0  0  0  0
  -27.5540  -32.4600   25.6640 C   0  0  0  0  0  1  0  0  0  0  0  0
  1  6  1  0
  1  2  2  0
  2  3  1  0
  3  7  2  0
  3  5  1  0
  4  8  1  0
  4  7  1  0
  6  4  2  0
  8  9  1  1
  8 10  1  0
 12 11  1  6
 12 17  1  0
 12  8  1  0
 13 15  1  1
 13 12  1  0
 14 13  1  0
 16 13  1  0
 18 26  1  0
 19 24  1  0
 20 21  1  0
 20 19  1  0
 22 21  1  0
 22 31  1  0
 22 23  1  0
 24 18  1  0
 24 23  1  0
 25 18  2  0
 26 27  1  0
 26 17  1  0
 28 29  2  0
 29 48  1  0
 30 29  1  0
 30 33  1  0
 31 32  1  0
 31 28  1  0
 32 30  2  0
 33 34  1  0
 34 35  2  0
 36 39  1  0
 36 35  1  0
 37 36  2  0
 38 37  1  0
 38 33  2  0
 39 40  1  0
 40 45  2  0
 40 41  1  0
 41 42  2  0
 42 43  1  0
 43 47  1  0
 44 43  2  0
 45 44  1  0
 46 45  1  0
 48 49  1  0
 49 52  1  0
 49 51  1  0
 50 48  2  0
 53 54  1  0
 53 28  1  0
 55 53  1  0
 56  2  1  0
 56 57  1  0
 58 69  2  0
 59 57  1  0
 59 64  1  0
 60 68  1  0
 60 70  1  0
 61 67  1  0
 61 63  1  0
 62 68  1  0
 63 62  1  0
 64 63  2  0
 65 66  1  0
 65 59  2  0
 66 61  2  0
 67 60  1  0
 68 58  1  0
 70 72  2  0
 71 70  1  0
 73 71  1  0
 74 83  2  0
 74 79  1  0
 75 71  1  0
 75 79  1  0
 76 75  1  0
 77 78  1  0
 77 76  1  0
 78 74  1  0
 79 80  2  0
 80 81  1  0
 82 81  2  0
 83 82  1  0
 84 58  1  0
 84 85  1  0
 84 94  1  0
 85 88  1  0
 86 90  1  0
 86 85  1  0
 87 86  2  0
 90 89  1  0
 92 90  1  0
 92 93  1  0
 92 91  1  0
 94 97  1  1
 94 95  1  0
 96 94  1  0
M  ISO  4  18 100  26 100  56 101  57 101
M  END
>  <TORSDO>  (75) 
F 21

>  <SCORE>  (75) 
-13.218

>  <name>  (75) 
75

>  <ligand_id>  (75) 
75

>  <original_smiles>  (75) 
[H]c1nc(C(F)(F)C(C([H])([H])[H])(C(F)(F)F)C([H])([H])N([H])C(=O)N2C([H])([H])C([H])([H])C([H])([H])C([H])(n3nc(-c4c([H])c([H])c(Oc5c([H])c([H])c(F)c([H])c5F)c([H])c4[H])c(C(=O)N([H])[H])c3N([H])[H])C2([H])[H])nc(C([H])([H])[H])c1C([H])([H])Oc1c([H])c([H])c2c(c1[H])C([H])([H])N(C(=O)C([H])(N([H])C(=O)C([H])(N([H])C([H])([H])[H])C([H])([H])[H])C(C([H])([H])[H])(C([H])([H])[H])C([H])([H])[H])C([H])(C(=O)N([H])C1([H])c3c([H])c([H])c([H])c([H])c3C([H])([H])C([H])([H])C1([H])[H])C2([H])[H]

>  <smiles>  (75) 
[H]c1nc(C(F)(F)C(C([H])([H])[H])(C(F)(F)F)C([H])([H])N([H])C(=O)N2C([H])([H])C([H])([H])C([H])([H])C([H])(n3nc(-c4c([H])c([H])c(Oc5c([H])c([H])c(F)c([H])c5F)c([H])c4[H])c(C(=O)N([H])[H])c3N([H])[H])C2([H])[H])nc(C([H])([H])[H])c1C([H])([H])Oc1c([H])c([H])c2c(c1[H])C([H])([H])N(C(=O)C([H])(N([H])C(=O)C([H])(N([H])C([H])([H])[H])C([H])([H])[H])C(C([H])([H])[H])(C([H])([H])[H])C([H])([H])[H])C([H])(C(=O)N([H])C1([H])c3c([H])c([H])c([H])c([H])c3C([H])([H])C([H])([H])C1([H])[H])C2([H])[H]

$$$$
76:0:0
     RDKit          3D

 98107  0  0  1  0  0  0  0  0999 V2000
  -27.6490  -24.5250   20.0270 C   0  0  0  0  0  3  0  0  0  0  0  0
  -29.8890  -23.6850   19.8920 C   0  0  0  0  0  3  0  0  0  0  0  0
  -29.0100  -24.6310   20.4460 C   0  0  0  0  0  0  0  0  0  0  0  0
  -27.2310  -23.5150   19.0990 C   0  0  0  0  0  0  0  0  0  0  0  0
  -28.2370  -22.6380   18.6300 C   0  0  0  0  0  0  0  0  0  0  0  0
  -29.5330  -22.7340   18.9960 N   0  0  0  0  0  0  0  0  0  0  0  0
  -25.2690  -21.9150   18.8650 C   0  0  0  0  0  1  0  0  0  0  0  0
  -25.4680  -23.6830   17.1440 C   0  0  0  0  0  1  0  0  0  0  0  0
  -24.7680  -24.2830   19.4240 C   0  0  0  0  0  1  0  0  0  0  0  0
  -25.7330  -23.3650   18.6420 C   0  0  2  0  0  0  0  0  0  0  0  0
  -29.4720  -25.6340   21.5590 C   0  0  0  0  0  2  0  0  0  0  0  0
  -29.6760  -27.0550   21.2380 O   0  0  0  0  0  0  0  0  0  0  0  0
  -25.0250  -31.8930   23.6810 C   0  0  0  0  0  0  0  0  0  0  0  0
  -28.5050  -27.7610   21.0340 C   0  0  0  0  0  0  0  0  0  0  0  0
  -24.2000  -30.3360   21.9520 C   0  0  0  0  0  3  0  0  0  0  0  0
  -25.9900  -29.0020   20.7150 C   0  0  0  0  0  0  0  0  0  0  0  0
  -26.6700  -31.0290   22.0070 C   0  0  0  0  0  2  0  0  0  0  0  0
  -27.0060  -29.6740   21.4070 C   0  0  0  0  0  0  0  0  0  0  0  0
  -28.2790  -29.0680   21.5550 C   0  0  0  0  0  3  0  0  0  0  0  0
  -27.4730  -27.1230   20.3180 C   0  0  0  0  0  3  0  0  0  0  0  0
  -26.2180  -27.7310   20.1680 C   0  0  0  0  0  3  0  0  0  0  0  0
  -24.6470  -29.6980   20.6160 C   0  0  0  0  0  2  0  0  0  0  0  0
  -25.3080  -31.1110   22.6010 N   0  0  0  0  0  0  0  0  0  0  0  0
  -23.8650  -32.0050   24.1010 O   0  0  0  0  0  0  0  0  0  0  0  0
  -23.6060  -29.2290   22.8570 C   0  0  0  0  0  0  0  0  0  0  0  0
  -22.4740  -28.6470   22.4300 N   0  0  0  0  0  0  0  0  0  0  0  0
  -24.1730  -28.8960   23.9020 O   0  0  0  0  0  0  0  0  0  0  0  0
  -22.0710  -28.9820   21.5660 H   0  0  0  0  0  0  0  0  0  0  0  0
  -19.4960  -26.5990   22.2900 C   0  0  0  0  0  0  0  0  0  0  0  0
  -21.7550  -27.5670   23.1020 C   0  0  0  0  0  3  0  0  0  0  0  0
  -22.3530  -26.1870   22.7390 C   0  0  0  0  0  2  0  0  0  0  0  0
  -21.6590  -25.5200   21.5470 C   0  0  0  0  0  2  0  0  0  0  0  0
  -20.1710  -25.3160   21.8400 C   0  0  0  0  0  2  0  0  0  0  0  0
  -20.2420  -27.6610   22.8690 C   0  0  0  0  0  0  0  0  0  0  0  0
  -19.5680  -28.8450   23.2390 C   0  0  0  0  0  3  0  0  0  0  0  0
  -18.1790  -28.9760   23.0430 C   0  0  0  0  0  3  0  0  0  0  0  0
  -17.4460  -27.9160   22.4810 C   0  0  0  0  0  3  0  0  0  0  0  0
  -18.1030  -26.7290   22.1110 C   0  0  0  0  0  3  0  0  0  0  0  0
  -26.1360  -32.7040   24.4180 C   0  0  0  0  0  3  0  0  0  0  0  0
  -25.6530  -34.0830   24.5580 N   0  0  0  0  0  0  0  0  0  0  0  0
  -25.9290  -35.0800   23.7040 C   0  0  0  0  0  0  0  0  0  0  0  0
  -26.6860  -34.9430   22.7390 O   0  0  0  0  0  0  0  0  0  0  0  0
  -24.9850  -34.2510   25.2960 H   0  0  0  0  0  0  0  0  0  0  0  0
  -24.0320  -36.5990   23.0450 C   0  0  0  0  0  1  0  0  0  0  0  0
  -25.2580  -36.4460   23.9590 C   0  0  0  0  0  3  0  0  0  0  0  0
  -27.2540  -37.6430   24.7430 C   0  0  0  0  0  1  0  0  0  0  0  0
  -26.1710  -37.5930   23.7660 N   0  0  0  0  0  0  0  0  0  0  0  0
  -25.6600  -38.4710   23.8150 H   0  0  0  0  0  0  0  0  0  0  0  0
  -26.5150  -32.1010   25.8240 C   0  0  1  0  0  0  0  0  0  0  0  0
  -25.2990  -31.5960   26.6340 C   0  0  0  0  0  1  0  0  0  0  0  0
  -27.4980  -30.9200   25.6610 C   0  0  0  0  0  1  0  0  0  0  0  0
  -27.2440  -33.1720   26.6710 C   0  0  0  0  0  1  0  0  0  0  0  0
  -27.9620  -21.7640   17.6100 O   0  0  0  0  0  0  0  0  0  0  0  0
  -27.7990  -19.5640   16.5520 C   0  0  0  0  0  3  0  0  0  0  0  0
  -28.6630  -19.5390   18.5800 C   0  0  0  0  0  3  0  0  0  0  0  0
  -28.1850  -20.4080   17.6240 C   0  0  0  0  0  0  0  0  0  0  0  0
  -28.0070  -18.2910   16.8090 N   0  0  0  0  0  0  0  0  0  0  0  0
  -28.5220  -18.2570   18.0640 N   0  0  0  0  0  0  0  0  0  0  0  0
  -28.8040  -16.9090   18.5740 C   0  0  0  0  0  2  0  0  0  0  0  0
  -30.1380  -16.5580   19.2930 C   0  0  0  0  0  2  0  0  0  0  0  0
  -30.7880  -14.7120   20.8170 C   0  0  0  0  0  0  0  0  0  0  0  0
  -30.5750  -12.4430   19.9480 C   0  0  0  0  0  2  0  0  0  0  0  0
  -29.7400  -12.5930   18.6480 C   0  0  0  0  0  2  0  0  0  0  0  0
  -28.2380  -12.5210   18.9600 C   0  0  0  0  0  2  0  0  0  0  0  0
  -27.8090  -13.3860   20.1710 C   0  0  0  0  0  3  0  0  0  0  0  0
  -28.7630  -13.2580   21.3560 C   0  0  0  0  0  2  0  0  0  0  0  0
  -30.1130  -13.5230   20.8390 N   0  0  0  0  0  0  0  0  0  0  0  0
  -32.0180  -14.7490   20.6900 O   0  0  0  0  0  0  0  0  0  0  0  0
  -30.4460  -16.8680   21.6890 C   0  0  0  0  0  1  0  0  0  0  0  0
  -30.0850  -15.8780   20.6400 N   0  0  0  0  0  0  0  0  0  0  0  0
  -25.3610  -14.0120   20.5730 C   0  0  0  0  0  0  0  0  0  0  0  0
  -24.2650  -13.2440   20.8380 C   0  0  0  0  0  0  0  0  0  0  0  0
  -24.7080  -11.8780   20.8680 C   0  0  0  0  0  0  0  0  0  0  0  0
  -26.4270  -13.1220   20.4950 N   0  0  0  0  0  0  0  0  0  0  0  0
  -26.0280  -11.8430   20.7090 N   0  0  0  0  0  0  0  0  0  0  0  0
  -23.9710  -10.6110   21.0310 C   0  0  0  0  0  0  0  0  0  0  0  0
  -24.4200   -9.5890   21.9060 C   0  0  0  0  0  3  0  0  0  0  0  0
  -23.6670   -8.4050   22.0710 C   0  0  0  0  0  3  0  0  0  0  0  0
  -22.4580   -8.2280   21.3440 C   0  0  0  0  0  0  0  0  0  0  0  0
  -22.0060   -9.2490   20.4840 C   0  0  0  0  0  3  0  0  0  0  0  0
  -22.7730  -10.4120   20.3180 C   0  0  0  0  0  3  0  0  0  0  0  0
  -21.6540   -7.1140   21.4330 O   0  0  0  0  0  0  0  0  0  0  0  0
  -21.5910   -6.3460   22.5670 C   0  0  0  0  0  0  0  0  0  0  0  0
  -21.2420   -6.9220   23.8140 C   0  0  0  0  0  3  0  0  0  0  0  0
  -21.1050   -6.0980   24.9490 C   0  0  0  0  0  3  0  0  0  0  0  0
  -21.3070   -4.7050   24.8360 C   0  0  0  0  0  0  0  0  0  0  0  0
  -21.6450   -4.1330   23.5950 C   0  0  0  0  0  3  0  0  0  0  0  0
  -21.7700   -4.9510   22.4590 C   0  0  0  0  0  0  0  0  0  0  0  0
  -22.0740   -4.4050   21.2490 F   0  0  0  0  0  0  0  0  0  0  0  0
  -21.1720   -3.9080   25.9150 F   0  0  0  0  0  0  0  0  0  0  0  0
  -22.8580  -13.7230   21.0070 C   0  0  0  0  0  0  0  0  0  0  0  0
  -22.1280  -13.0700   21.8900 N   0  0  0  0  0  0  0  0  0  0  0  0
  -22.4360  -14.7190   20.4410 O   0  0  0  0  0  0  0  0  0  0  0  0
  -21.2810  -13.5170   22.2170 H   0  0  0  0  0  0  0  0  0  0  0  0
  -22.5320  -12.3120   22.4210 H   0  0  0  0  0  0  0  0  0  0  0  0
  -25.5600  -15.3770   20.3330 N   0  0  0  0  0  0  0  0  0  0  0  0
  -24.7640  -15.9660   20.1780 H   0  0  0  0  0  0  0  0  0  0  0  0
  -26.3880  -15.7350   19.8780 H   0  0  0  0  0  0  0  0  0  0  0  0
  1  3  1  0
  2  3  2  0
  3 11  1  0
  4  1  2  0
  5  6  2  0
  5  4  1  0
  6  2  1  0
 10  8  1  6
 10  7  1  0
 10  4  1  0
 10  9  1  0
 12 11  1  0
 13 24  2  0
 14 12  1  0
 14 19  1  0
 15 23  1  0
 15 25  1  0
 16 18  1  0
 17 23  1  0
 18 19  2  0
 18 17  1  0
 20 14  2  0
 21 20  1  0
 21 16  2  0
 22 16  1  0
 22 15  1  0
 23 13  1  0
 25 27  2  0
 26 25  1  0
 28 26  1  0
 29 34  1  0
 30 26  1  0
 31 30  1  0
 32 33  1  0
 32 31  1  0
 33 29  1  0
 34 30  1  0
 34 35  2  0
 36 35  1  0
 37 36  2  0
 38 29  2  0
 38 37  1  0
 39 13  1  0
 39 40  1  0
 39 49  1  0
 40 43  1  0
 41 45  1  0
 41 40  1  0
 42 41  2  0
 45 44  1  0
 47 48  1  0
 47 45  1  0
 47 46  1  0
 49 50  1  1
 49 52  1  0
 51 49  1  0
 53 56  1  0
 53  5  1  0
 54 57  2  0
 54 56  1  0
 56 55  2  0
 57 58  1  0
 58 59  1  0
 58 55  1  0
 59 60  1  0
 60 70  1  0
 61 67  1  0
 62 67  1  0
 63 64  1  0
 63 62  1  0
 65 64  1  0
 65 74  1  0
 65 66  1  0
 67 66  1  0
 68 61  2  0
 70 61  1  0
 70 69  1  0
 71 72  2  0
 72 73  1  0
 72 91  1  0
 73 76  1  0
 74 71  1  0
 74 75  1  0
 75 73  2  0
 76 77  1  0
 77 78  2  0
 79 82  1  0
 79 78  1  0
 80 79  2  0
 81 80  1  0
 81 76  2  0
 82 83  1  0
 83 84  1  0
 84 85  2  0
 86 85  1  0
 86 90  1  0
 87 86  2  0
 88 83  2  0
 88 87  1  0
 89 88  1  0
 91 92  1  0
 92 94  1  0
 92 95  1  0
 93 91  2  0
 96 71  1  0
 97 96  1  0
 98 96  1  0
M  ISO  4  11 101  12 101  61 100  70 100
M  END
>  <TORSDO>  (76) 
F 22

>  <SCORE>  (76) 
-11.903

>  <name>  (76) 
76

>  <ligand_id>  (76) 
76

>  <original_smiles>  (76) 
[H]c1nn(C([H])([H])C([H])([H])N(C(=O)N2C([H])([H])C([H])([H])C([H])([H])C([H])(n3nc(-c4c([H])c([H])c(Oc5c([H])c([H])c(F)c([H])c5F)c([H])c4[H])c(C(=O)N([H])[H])c3N([H])[H])C2([H])[H])C([H])([H])[H])c([H])c1Oc1nc([H])c(C([H])([H])Oc2c([H])c([H])c3c(c2[H])C([H])([H])N(C(=O)C([H])(N([H])C(=O)C([H])(N([H])C([H])([H])[H])C([H])([H])[H])C(C([H])([H])[H])(C([H])([H])[H])C([H])([H])[H])C([H])(C(=O)N([H])C2([H])c4c([H])c([H])c([H])c([H])c4C([H])([H])C([H])([H])C2([H])[H])C3([H])[H])c([H])c1C(C([H])([H])[H])(C([H])([H])[H])C([H])([H])[H]

>  <smiles>  (76) 
[H]c1nn(C([H])([H])C([H])([H])N(C(=O)N2C([H])([H])C([H])([H])C([H])([H])C([H])(n3nc(-c4c([H])c([H])c(Oc5c([H])c([H])c(F)c([H])c5F)c([H])c4[H])c(C(=O)N([H])[H])c3N([H])[H])C2([H])[H])C([H])([H])[H])c([H])c1Oc1nc([H])c(C([H])([H])Oc2c([H])c([H])c3c(c2[H])C([H])([H])N(C(=O)C([H])(N([H])C(=O)C([H])(N([H])C([H])([H])[H])C([H])([H])[H])C(C([H])([H])[H])(C([H])([H])[H])C([H])([H])[H])C([H])(C(=O)N([H])C2([H])c4c([H])c([H])c([H])c([H])c4C([H])([H])C([H])([H])C2([H])[H])C3([H])[H])c([H])c1C(C([H])([H])[H])(C([H])([H])[H])C([H])([H])[H]

$$$$
77:0:0
     RDKit          3D

 94102  0  0  1  0  0  0  0  0999 V2000
  -31.1470  -19.3900   20.5630 C   0  0  0  0  0  3  0  0  0  0  0  0
  -29.8910  -19.8000   20.0760 C   0  0  0  0  0  0  0  0  0  0  0  0
  -29.1490  -18.7560   19.4750 C   0  0  0  0  0  0  0  0  0  0  0  0
  -30.7500  -17.1470   20.0420 C   0  0  0  0  0  0  0  0  0  0  0  0
  -31.5450  -18.0930   20.5680 N   0  0  0  0  0  0  0  0  0  0  0  0
  -29.6010  -17.4700   19.4290 N   0  0  0  0  0  0  0  0  0  0  0  0
  -26.7110  -18.3910   20.0240 C   0  0  0  0  0  1  0  0  0  0  0  0
  -27.7170  -18.9520   19.0080 C   0  0  0  0  0  2  0  0  0  0  0  0
  -29.3270  -21.2210   20.4280 C   0  0  0  0  0  2  0  0  0  0  0  0
  -29.1570  -22.3450   19.3360 C   0  0  0  0  0  2  0  0  0  0  0  0
  -29.0940  -23.8300   19.9000 C   0  0  0  0  0  3  0  0  0  0  0  0
  -28.4200  -24.9310   18.9930 C   0  0  0  0  0  3  0  0  0  0  0  0
  -28.5260  -26.3420   19.4170 O   0  0  0  0  0  0  0  0  0  0  0  0
  -24.7530  -31.4210   22.8340 C   0  0  0  0  0  0  0  0  0  0  0  0
  -27.3820  -27.1520   19.4170 C   0  0  0  0  0  0  0  0  0  0  0  0
  -23.5380  -30.1020   21.1380 C   0  0  0  0  0  3  0  0  0  0  0  0
  -24.9810  -28.6940   19.5680 C   0  0  0  0  0  0  0  0  0  0  0  0
  -26.0600  -30.4970   20.9120 C   0  0  0  0  0  2  0  0  0  0  0  0
  -26.1500  -29.1660   20.1780 C   0  0  0  0  0  0  0  0  0  0  0  0
  -27.3500  -28.4040   20.1020 C   0  0  0  0  0  3  0  0  0  0  0  0
  -26.1970  -26.7510   18.7560 C   0  0  0  0  0  3  0  0  0  0  0  0
  -25.0060  -27.4920   18.8480 C   0  0  0  0  0  3  0  0  0  0  0  0
  -23.7270  -29.5280   19.7090 C   0  0  0  0  0  2  0  0  0  0  0  0
  -24.8030  -30.6880   21.6840 N   0  0  0  0  0  0  0  0  0  0  0  0
  -23.6770  -31.6400   23.4080 O   0  0  0  0  0  0  0  0  0  0  0  0
  -22.9300  -29.0050   22.0450 C   0  0  0  0  0  0  0  0  0  0  0  0
  -21.5990  -28.8340   21.9700 N   0  0  0  0  0  0  0  0  0  0  0  0
  -23.6480  -28.3160   22.7740 O   0  0  0  0  0  0  0  0  0  0  0  0
  -21.0780  -29.4480   21.3600 H   0  0  0  0  0  0  0  0  0  0  0  0
  -18.2430  -27.6240   22.5750 C   0  0  0  0  0  0  0  0  0  0  0  0
  -20.8160  -27.8370   22.7010 C   0  0  0  0  0  3  0  0  0  0  0  0
  -20.8600  -26.4630   21.9910 C   0  0  0  0  0  2  0  0  0  0  0  0
  -19.6910  -26.2450   21.0250 C   0  0  0  0  0  2  0  0  0  0  0  0
  -18.3570  -26.3410   21.7700 C   0  0  0  0  0  2  0  0  0  0  0  0
  -19.3970  -28.3350   22.9980 C   0  0  0  0  0  0  0  0  0  0  0  0
  -19.2370  -29.5380   23.7190 C   0  0  0  0  0  3  0  0  0  0  0  0
  -17.9540  -30.0350   24.0120 C   0  0  0  0  0  3  0  0  0  0  0  0
  -16.8140  -29.3220   23.6010 C   0  0  0  0  0  3  0  0  0  0  0  0
  -16.9600  -28.1150   22.8920 C   0  0  0  0  0  3  0  0  0  0  0  0
  -26.0370  -32.0400   23.4680 C   0  0  0  0  0  3  0  0  0  0  0  0
  -26.6380  -31.1680   24.6390 C   0  0  1  0  0  0  0  0  0  0  0  0
  -25.6000  -30.7820   25.7180 C   0  0  0  0  0  1  0  0  0  0  0  0
  -27.2560  -29.8620   24.0860 C   0  0  0  0  0  1  0  0  0  0  0  0
  -27.7860  -31.9410   25.3310 C   0  0  0  0  0  1  0  0  0  0  0  0
  -25.6880  -33.3850   23.9490 N   0  0  0  0  0  0  0  0  0  0  0  0
  -25.9630  -34.5220   23.2950 C   0  0  0  0  0  0  0  0  0  0  0  0
  -26.6080  -34.5490   22.2440 O   0  0  0  0  0  0  0  0  0  0  0  0
  -25.1090  -33.4360   24.7740 H   0  0  0  0  0  0  0  0  0  0  0  0
  -24.1580  -36.2710   23.1780 C   0  0  0  0  0  1  0  0  0  0  0  0
  -25.4410  -35.8370   23.9070 C   0  0  0  0  0  3  0  0  0  0  0  0
  -27.5710  -36.7160   24.7550 C   0  0  0  0  0  1  0  0  0  0  0  0
  -26.4310  -36.9360   23.8680 N   0  0  0  0  0  0  0  0  0  0  0  0
  -25.9980  -37.8210   24.1170 H   0  0  0  0  0  0  0  0  0  0  0  0
  -31.0290  -15.6390   20.4340 C   0  0  0  0  0  3  0  0  0  0  0  0
  -31.1160  -14.5040   19.3210 C   0  0  0  0  0  0  0  0  0  0  0  0
  -30.5220  -12.3740   18.1520 C   0  0  0  0  0  2  0  0  0  0  0  0
  -29.3900  -12.5920   17.1250 C   0  0  0  0  0  2  0  0  0  0  0  0
  -28.0150  -12.4490   17.8020 C   0  0  0  0  0  2  0  0  0  0  0  0
  -27.9190  -13.2690   19.1130 C   0  0  0  0  0  3  0  0  0  0  0  0
  -29.1430  -13.0150   20.0120 C   0  0  0  0  0  2  0  0  0  0  0  0
  -30.3550  -13.3570   19.2520 N   0  0  0  0  0  0  0  0  0  0  0  0
  -32.0110  -14.6540   18.4760 O   0  0  0  0  0  0  0  0  0  0  0  0
  -25.7680  -13.9180   20.3600 C   0  0  0  0  0  0  0  0  0  0  0  0
  -24.7330  -13.1700   20.8540 C   0  0  0  0  0  0  0  0  0  0  0  0
  -25.0660  -11.8090   20.5810 C   0  0  0  0  0  0  0  0  0  0  0  0
  -26.6690  -13.0130   19.8240 N   0  0  0  0  0  0  0  0  0  0  0  0
  -26.2610  -11.7300   20.0100 N   0  0  0  0  0  0  0  0  0  0  0  0
  -24.2880  -10.5780   20.7790 C   0  0  0  0  0  0  0  0  0  0  0  0
  -24.7670   -9.5230   21.5860 C   0  0  0  0  0  3  0  0  0  0  0  0
  -23.9930   -8.3580   21.7750 C   0  0  0  0  0  3  0  0  0  0  0  0
  -22.7260   -8.2410   21.1570 C   0  0  0  0  0  0  0  0  0  0  0  0
  -22.2640   -9.2840   20.3350 C   0  0  0  0  0  3  0  0  0  0  0  0
  -23.0390  -10.4400   20.1440 C   0  0  0  0  0  3  0  0  0  0  0  0
  -21.9150   -7.1380   21.2630 O   0  0  0  0  0  0  0  0  0  0  0  0
  -21.8780   -6.3770   22.4040 C   0  0  0  0  0  0  0  0  0  0  0  0
  -21.5600   -6.9370   23.6610 C   0  0  0  0  0  3  0  0  0  0  0  0
  -21.4670   -6.1060   24.7960 C   0  0  0  0  0  3  0  0  0  0  0  0
  -21.6800   -4.7210   24.6740 C   0  0  0  0  0  0  0  0  0  0  0  0
  -21.9920   -4.1630   23.4230 C   0  0  0  0  0  3  0  0  0  0  0  0
  -22.0880   -4.9880   22.2910 C   0  0  0  0  0  0  0  0  0  0  0  0
  -22.3680   -4.4430   21.0820 F   0  0  0  0  0  0  0  0  0  0  0  0
  -21.5820   -3.9220   25.7640 F   0  0  0  0  0  0  0  0  0  0  0  0
  -23.4640  -13.6930   21.4590 C   0  0  0  0  0  0  0  0  0  0  0  0
  -22.8890  -12.9590   22.4070 N   0  0  0  0  0  0  0  0  0  0  0  0
  -23.0000  -14.7850   21.1330 O   0  0  0  0  0  0  0  0  0  0  0  0
  -23.2810  -12.0740   22.6940 H   0  0  0  0  0  0  0  0  0  0  0  0
  -22.0480  -13.2920   22.8560 H   0  0  0  0  0  0  0  0  0  0  0  0
  -26.0100  -15.2860   20.3100 N   0  0  0  0  0  0  0  0  0  0  0  0
  -25.3440  -15.9630   20.6660 H   0  0  0  0  0  0  0  0  0  0  0  0
  -26.8690  -15.7110   19.9790 H   0  0  0  0  0  0  0  0  0  0  0  0
  -30.6190  -15.2680   21.8880 C   0  0  1  0  0  0  0  0  0  0  0  0
  -31.0150  -14.0310   22.2050 F   0  0  0  0  0  0  0  0  0  0  0  0
  -31.2130  -16.0930   22.7560 F   0  0  0  0  0  0  0  0  0  0  0  0
  -29.3050  -15.3550   22.1050 F   0  0  0  0  0  0  0  0  0  0  0  0
  1  5  1  0
  2  9  1  0
  2  1  2  0
  3  2  1  0
  4 54  1  0
  4  5  2  0
  6  3  2  0
  6  4  1  0
  8  3  1  0
  8  7  1  0
 10 11  1  0
 10  9  1  0
 12 13  1  0
 12 11  2  0
 13 15  1  0
 14 25  2  0
 15 20  1  0
 16 24  1  0
 16 26  1  0
 17 23  1  0
 17 19  1  0
 18 24  1  0
 19 18  1  0
 20 19  2  0
 21 22  1  0
 21 15  2  0
 22 17  2  0
 23 16  1  0
 24 14  1  0
 26 28  2  0
 27 26  1  0
 29 27  1  0
 30 39  2  0
 30 35  1  0
 31 27  1  0
 31 35  1  0
 32 31  1  0
 33 34  1  0
 33 32  1  0
 34 30  1  0
 35 36  2  0
 36 37  1  0
 38 37  2  0
 39 38  1  0
 40 14  1  0
 40 45  1  0
 40 41  1  0
 41 44  1  1
 41 42  1  0
 43 41  1  0
 45 48  1  0
 46 50  1  0
 46 45  1  0
 47 46  2  0
 50 49  1  0
 52 50  1  0
 52 53  1  0
 52 51  1  0
 54 55  1  0
 54 91  1  0
 56 61  1  0
 57 58  1  0
 57 56  1  0
 59 58  1  0
 59 66  1  0
 59 60  1  0
 61 55  1  0
 61 60  1  0
 62 55  2  0
 63 64  2  0
 64 83  1  0
 65 68  1  0
 65 64  1  0
 66 67  1  0
 66 63  1  0
 67 65  2  0
 68 69  1  0
 69 70  2  0
 71 74  1  0
 71 70  1  0
 72 71  2  0
 73 72  1  0
 73 68  2  0
 74 75  1  0
 75 76  1  0
 76 77  2  0
 78 77  1  0
 78 82  1  0
 79 78  2  0
 80 75  2  0
 80 79  1  0
 81 80  1  0
 83 84  1  0
 84 86  1  0
 84 87  1  0
 85 83  2  0
 88 63  1  0
 88 89  1  0
 90 88  1  0
 91 94  1  6
 91 92  1  0
 91 93  1  0
M  ISO  4  12 101  13 101  54 100  55 100
M  END
>  <TORSDO>  (77) 
F 23

>  <SCORE>  (77) 
-9.440

>  <name>  (77) 
77

>  <ligand_id>  (77) 
77

>  <original_smiles>  (77) 
[H]c1nc(C([H])(C(=O)N2C([H])([H])C([H])([H])C([H])([H])C([H])(n3nc(-c4c([H])c([H])c(Oc5c([H])c([H])c(F)c([H])c5F)c([H])c4[H])c(C(=O)N([H])[H])c3N([H])[H])C2([H])[H])C(F)(F)F)nc(C([H])([H])C([H])([H])[H])c1C([H])([H])C([H])([H])C([H])([H])C([H])([H])Oc1c([H])c([H])c2c(c1[H])C([H])([H])N(C(=O)C([H])(N([H])C(=O)C([H])(N([H])C([H])([H])[H])C([H])([H])[H])C(C([H])([H])[H])(C([H])([H])[H])C([H])([H])[H])C([H])(C(=O)N([H])C1([H])c3c([H])c([H])c([H])c([H])c3C([H])([H])C([H])([H])C1([H])[H])C2([H])[H]

>  <smiles>  (77) 
[H]c1nc(C([H])(C(=O)N2C([H])([H])C([H])([H])C([H])([H])C([H])(n3nc(-c4c([H])c([H])c(Oc5c([H])c([H])c(F)c([H])c5F)c([H])c4[H])c(C(=O)N([H])[H])c3N([H])[H])C2([H])[H])C(F)(F)F)nc(C([H])([H])C([H])([H])[H])c1C([H])([H])C([H])([H])C([H])([H])C([H])([H])Oc1c([H])c([H])c2c(c1[H])C([H])([H])N(C(=O)C([H])(N([H])C(=O)C([H])(N([H])C([H])([H])[H])C([H])([H])[H])C(C([H])([H])[H])(C([H])([H])[H])C([H])([H])[H])C([H])(C(=O)N([H])C1([H])c3c([H])c([H])c([H])c([H])c3C([H])([H])C([H])([H])C1([H])[H])C2([H])[H]

$$$$
78:0:0
     RDKit          3D

 89 97  0  0  1  0  0  0  0  0999 V2000
  -29.7600  -20.2940   20.0300 C   0  0  0  0  0  2  0  0  0  0  0  0
  -30.5810  -19.2870   22.1870 C   0  0  0  0  0  3  0  0  0  0  0  0
  -30.5270  -17.6510   20.8370 C   0  0  0  0  0  0  0  0  0  0  0  0
  -31.0220  -18.2450   22.8840 N   0  0  0  0  0  0  0  0  0  0  0  0
  -30.9800  -17.1920   22.0160 N   0  0  0  0  0  0  0  0  0  0  0  0
  -30.2360  -19.0730   20.9020 N   0  0  0  0  0  0  0  0  0  0  0  0
  -31.0460  -17.0690   18.4520 C   0  0  0  0  0  1  0  0  0  0  0  0
  -28.8390  -16.5030   19.3860 C   0  0  0  0  0  1  0  0  0  0  0  0
  -30.3350  -16.5200   19.7140 C   0  0  2  0  0  0  0  0  0  0  0  0
  -30.9140  -14.9340   19.9110 C   0  0  0  0  0  0  0  0  0  0  0  0
  -30.5920  -12.6100   18.9580 C   0  0  0  0  0  2  0  0  0  0  0  0
  -29.5830  -12.6040   17.7900 C   0  0  0  0  0  2  0  0  0  0  0  0
  -28.1540  -12.3900   18.3200 C   0  0  0  0  0  2  0  0  0  0  0  0
  -27.8330  -13.3030   19.5280 C   0  0  0  0  0  3  0  0  0  0  0  0
  -28.9690  -13.3520   20.5710 C   0  0  0  0  0  2  0  0  0  0  0  0
  -30.2130  -13.7220   19.8810 N   0  0  0  0  0  0  0  0  0  0  0  0
  -32.1310  -14.8020   19.7390 O   0  0  0  0  0  0  0  0  0  0  0  0
  -25.5340  -13.9190   20.4580 C   0  0  0  0  0  0  0  0  0  0  0  0
  -24.4800  -13.1570   20.8770 C   0  0  0  0  0  0  0  0  0  0  0  0
  -24.9150  -11.8000   20.7850 C   0  0  0  0  0  0  0  0  0  0  0  0
  -26.5370  -13.0240   20.1240 N   0  0  0  0  0  0  0  0  0  0  0  0
  -26.1800  -11.7430   20.3900 N   0  0  0  0  0  0  0  0  0  0  0  0
  -24.1770  -10.5480   20.9890 C   0  0  0  0  0  0  0  0  0  0  0  0
  -24.6040   -9.5840   21.9280 C   0  0  0  0  0  3  0  0  0  0  0  0
  -23.8660   -8.3970   22.1190 C   0  0  0  0  0  3  0  0  0  0  0  0
  -22.6860   -8.1680   21.3710 C   0  0  0  0  0  0  0  0  0  0  0  0
  -22.2800   -9.1190   20.4200 C   0  0  0  0  0  3  0  0  0  0  0  0
  -23.0180  -10.2980   20.2270 C   0  0  0  0  0  3  0  0  0  0  0  0
  -21.9190   -7.0320   21.4720 O   0  0  0  0  0  0  0  0  0  0  0  0
  -21.8130   -6.3400   22.6500 C   0  0  0  0  0  0  0  0  0  0  0  0
  -21.3250   -6.9450   23.8300 C   0  0  0  0  0  3  0  0  0  0  0  0
  -21.1670   -6.1780   25.0010 C   0  0  0  0  0  3  0  0  0  0  0  0
  -21.4880   -4.8080   24.9940 C   0  0  0  0  0  0  0  0  0  0  0  0
  -21.9690   -4.2030   23.8210 C   0  0  0  0  0  3  0  0  0  0  0  0
  -22.1280   -4.9660   22.6510 C   0  0  0  0  0  0  0  0  0  0  0  0
  -22.5730   -4.3740   21.5170 F   0  0  0  0  0  0  0  0  0  0  0  0
  -21.3280   -4.0680   26.1170 F   0  0  0  0  0  0  0  0  0  0  0  0
  -23.1130  -13.6550   21.2440 C   0  0  0  0  0  0  0  0  0  0  0  0
  -22.4310  -12.9580   22.1450 N   0  0  0  0  0  0  0  0  0  0  0  0
  -22.6620  -14.6960   20.7680 O   0  0  0  0  0  0  0  0  0  0  0  0
  -22.8130  -12.1160   22.5500 H   0  0  0  0  0  0  0  0  0  0  0  0
  -21.5150  -13.2700   22.4350 H   0  0  0  0  0  0  0  0  0  0  0  0
  -25.7100  -15.2900   20.3020 N   0  0  0  0  0  0  0  0  0  0  0  0
  -24.9700  -15.9560   20.4960 H   0  0  0  0  0  0  0  0  0  0  0  0
  -26.5390  -15.7230   19.9220 H   0  0  0  0  0  0  0  0  0  0  0  0
  -29.1640  -21.7310   20.7110 C   0  0  0  0  0  2  0  0  0  0  0  0
  -29.1950  -23.2900   20.0650 C   0  0  0  0  0  3  0  0  0  0  0  0
  -28.3480  -24.6140   20.6740 C   0  0  0  0  0  3  0  0  0  0  0  0
  -28.5840  -26.1320   20.4240 O   0  0  0  0  0  0  0  0  0  0  0  0
  -24.7010  -31.7310   23.2400 C   0  0  0  0  0  0  0  0  0  0  0  0
  -27.4960  -27.0710   20.3500 C   0  0  0  0  0  0  0  0  0  0  0  0
  -23.5910  -30.2880   21.5790 C   0  0  0  0  0  3  0  0  0  0  0  0
  -25.1230  -28.7410   20.2170 C   0  0  0  0  0  0  0  0  0  0  0  0
  -26.1390  -30.6250   21.4900 C   0  0  0  0  0  2  0  0  0  0  0  0
  -26.2710  -29.2290   20.8570 C   0  0  0  0  0  0  0  0  0  0  0  0
  -27.4590  -28.4100   20.9040 C   0  0  0  0  0  3  0  0  0  0  0  0
  -26.3270  -26.6810   19.6620 C   0  0  0  0  0  3  0  0  0  0  0  0
  -25.1640  -27.4790   19.6030 C   0  0  0  0  0  3  0  0  0  0  0  0
  -23.8720  -29.6050   20.2150 C   0  0  0  0  0  2  0  0  0  0  0  0
  -24.8270  -30.9040   22.1580 N   0  0  0  0  0  0  0  0  0  0  0  0
  -23.5910  -31.9910   23.7310 O   0  0  0  0  0  0  0  0  0  0  0  0
  -22.9110  -29.2700   22.5290 C   0  0  0  0  0  0  0  0  0  0  0  0
  -21.5900  -29.0710   22.3700 N   0  0  0  0  0  0  0  0  0  0  0  0
  -23.5740  -28.6630   23.3740 O   0  0  0  0  0  0  0  0  0  0  0  0
  -21.1120  -29.6130   21.6620 H   0  0  0  0  0  0  0  0  0  0  0  0
  -18.2280  -27.7840   22.7760 C   0  0  0  0  0  0  0  0  0  0  0  0
  -20.7680  -28.1220   23.1250 C   0  0  0  0  0  3  0  0  0  0  0  0
  -20.9280  -26.6860   22.5750 C   0  0  0  0  0  2  0  0  0  0  0  0
  -19.8710  -26.3190   21.5300 C   0  0  0  0  0  2  0  0  0  0  0  0
  -18.4640  -26.4330   22.1230 C   0  0  0  0  0  2  0  0  0  0  0  0
  -19.3090  -28.5850   23.2320 C   0  0  0  0  0  0  0  0  0  0  0  0
  -19.0340  -29.8460   23.8010 C   0  0  0  0  0  3  0  0  0  0  0  0
  -17.7090  -30.3110   23.9170 C   0  0  0  0  0  3  0  0  0  0  0  0
  -16.6430  -29.5090   23.4760 C   0  0  0  0  0  3  0  0  0  0  0  0
  -16.9020  -28.2480   22.9110 C   0  0  0  0  0  3  0  0  0  0  0  0
  -25.9420  -32.4040   23.9020 C   0  0  0  0  0  3  0  0  0  0  0  0
  -25.5780  -33.7920   24.2250 N   0  0  0  0  0  0  0  0  0  0  0  0
  -25.9040  -34.8600   23.4820 C   0  0  0  0  0  0  0  0  0  0  0  0
  -26.6080  -34.7800   22.4720 O   0  0  0  0  0  0  0  0  0  0  0  0
  -24.9510  -33.9250   25.0040 H   0  0  0  0  0  0  0  0  0  0  0  0
  -24.1330  -36.6050   23.0910 C   0  0  0  0  0  1  0  0  0  0  0  0
  -25.3650  -36.2320   23.9300 C   0  0  0  0  0  3  0  0  0  0  0  0
  -27.4520  -37.1780   24.8160 C   0  0  0  0  0  1  0  0  0  0  0  0
  -26.3700  -37.3150   23.8450 N   0  0  0  0  0  0  0  0  0  0  0  0
  -25.9340  -38.2240   23.9780 H   0  0  0  0  0  0  0  0  0  0  0  0
  -26.4400  -31.6500   25.1970 C   0  0  1  0  0  0  0  0  0  0  0  0
  -25.3190  -31.3760   26.2280 C   0  0  0  0  0  1  0  0  0  0  0  0
  -27.0820  -30.2920   24.8310 C   0  0  0  0  0  1  0  0  0  0  0  0
  -27.5410  -32.4830   25.8940 C   0  0  0  0  0  1  0  0  0  0  0  0
  1 46  1  0
  1  6  1  0
  2  4  2  0
  3  6  1  0
  3  5  2  0
  5  4  1  0
  6  2  1  0
  9  7  1  6
  8  9  1  0
  9 10  1  0
  9  3  1  0
 11 16  1  0
 12 13  1  0
 12 11  1  0
 14 13  1  0
 14 21  1  0
 14 15  1  0
 16 10  1  0
 16 15  1  0
 17 10  2  0
 18 19  2  0
 19 38  1  0
 20 19  1  0
 20 23  1  0
 21 22  1  0
 21 18  1  0
 22 20  2  0
 23 24  1  0
 24 25  2  0
 26 29  1  0
 26 25  1  0
 27 26  2  0
 28 27  1  0
 28 23  2  0
 29 30  1  0
 30 35  2  0
 30 31  1  0
 31 32  2  0
 33 32  1  0
 33 37  1  0
 34 33  2  0
 35 34  1  0
 36 35  1  0
 38 39  1  0
 39 42  1  0
 39 41  1  0
 40 38  2  0
 43 18  1  0
 43 44  1  0
 45 43  1  0
 47 48  2  0
 47 46  1  0
 49 48  1  0
 50 61  2  0
 51 49  1  0
 51 56  1  0
 52 60  1  0
 52 62  1  0
 53 55  1  0
 54 60  1  0
 55 56  2  0
 55 54  1  0
 57 51  2  0
 58 57  1  0
 58 53  2  0
 59 53  1  0
 59 52  1  0
 60 50  1  0
 62 64  2  0
 63 62  1  0
 65 63  1  0
 66 75  2  0
 66 71  1  0
 67 63  1  0
 67 71  1  0
 68 67  1  0
 69 70  1  0
 69 68  1  0
 70 66  1  0
 71 72  2  0
 72 73  1  0
 74 73  2  0
 75 74  1  0
 76 50  1  0
 76 77  1  0
 76 86  1  0
 77 80  1  0
 78 82  1  0
 78 77  1  0
 79 78  2  0
 82 81  1  0
 84 82  1  0
 84 85  1  0
 84 83  1  0
 86 89  1  1
 86 87  1  0
 88 86  1  0
M  ISO  4   9 100  10 100  48 101  49 101
M  END
>  <TORSDO>  (78) 
F 21

>  <SCORE>  (78) 
-13.944

>  <name>  (78) 
78

>  <ligand_id>  (78) 
78

>  <original_smiles>  (78) 
[H]c1c([H])c([H])c2c(c1[H])C([H])([H])C([H])([H])C([H])([H])C2([H])N([H])C(=O)C1([H])N(C(=O)C([H])(N([H])C(=O)C([H])(N([H])C([H])([H])[H])C([H])([H])[H])C(C([H])([H])[H])(C([H])([H])[H])C([H])([H])[H])C([H])([H])c2c([H])c(OC([H])([H])C([H])([H])C([H])([H])C([H])([H])n3c([H])nnc3C(C(=O)N3C([H])([H])C([H])([H])C([H])([H])C([H])(n4nc(-c5c([H])c([H])c(Oc6c([H])c([H])c(F)c([H])c6F)c([H])c5[H])c(C(=O)N([H])[H])c4N([H])[H])C3([H])[H])(C([H])([H])[H])C([H])([H])[H])c([H])c([H])c2C1([H])[H]

>  <smiles>  (78) 
[H]c1c([H])c([H])c2c(c1[H])C([H])([H])C([H])([H])C([H])([H])C2([H])N([H])C(=O)C1([H])N(C(=O)C([H])(N([H])C(=O)C([H])(N([H])C([H])([H])[H])C([H])([H])[H])C(C([H])([H])[H])(C([H])([H])[H])C([H])([H])[H])C([H])([H])c2c([H])c(OC([H])([H])C([H])([H])C([H])([H])C([H])([H])n3c([H])nnc3C(C(=O)N3C([H])([H])C([H])([H])C([H])([H])C([H])(n4nc(-c5c([H])c([H])c(Oc6c([H])c([H])c(F)c([H])c6F)c([H])c5[H])c(C(=O)N([H])[H])c4N([H])[H])C3([H])[H])(C([H])([H])[H])C([H])([H])[H])c([H])c([H])c2C1([H])[H]

$$$$
79:0:0
     RDKit          3D

 94102  0  0  1  0  0  0  0  0999 V2000
  -30.7140  -20.1000   21.9750 C   0  0  0  0  0  1  0  0  0  0  0  0
  -30.1560  -19.4440   20.6940 C   0  0  0  0  0  3  0  0  0  0  0  0
  -29.6020  -20.6300   19.6670 C   0  0  0  0  0  2  0  0  0  0  0  0
  -29.8020  -22.2960   19.7350 C   0  0  0  0  0  2  0  0  0  0  0  0
  -28.6810  -23.4820   20.0690 C   0  0  0  0  0  3  0  0  0  0  0  0
  -28.3810  -23.4200   21.3670 F   0  0  0  0  0  0  0  0  0  0  0  0
  -28.9210  -25.0590   19.6060 C   0  0  0  0  0  2  0  0  0  0  0  0
  -28.5550  -26.3810   20.2810 O   0  0  0  0  0  0  0  0  0  0  0  0
  -24.6000  -31.7600   23.1300 C   0  0  0  0  0  0  0  0  0  0  0  0
  -27.4070  -27.2140   20.1180 C   0  0  0  0  0  0  0  0  0  0  0  0
  -23.4660  -30.3460   21.4500 C   0  0  0  0  0  3  0  0  0  0  0  0
  -24.9920  -28.8140   20.0490 C   0  0  0  0  0  0  0  0  0  0  0  0
  -26.0090  -30.7020   21.3380 C   0  0  0  0  0  2  0  0  0  0  0  0
  -26.1380  -29.3240   20.6730 C   0  0  0  0  0  0  0  0  0  0  0  0
  -27.3370  -28.5380   20.6890 C   0  0  0  0  0  3  0  0  0  0  0  0
  -26.2330  -26.7650   19.4740 C   0  0  0  0  0  3  0  0  0  0  0  0
  -25.0460  -27.5390   19.4480 C   0  0  0  0  0  3  0  0  0  0  0  0
  -23.7290  -29.6640   20.0800 C   0  0  0  0  0  2  0  0  0  0  0  0
  -24.7090  -30.9570   22.0290 N   0  0  0  0  0  0  0  0  0  0  0  0
  -23.4990  -32.0140   23.6420 O   0  0  0  0  0  0  0  0  0  0  0  0
  -22.7870  -29.3230   22.3920 C   0  0  0  0  0  0  0  0  0  0  0  0
  -21.4590  -29.1610   22.2680 N   0  0  0  0  0  0  0  0  0  0  0  0
  -23.4590  -28.6780   23.2010 O   0  0  0  0  0  0  0  0  0  0  0  0
  -20.9680  -29.7260   21.5880 H   0  0  0  0  0  0  0  0  0  0  0  0
  -18.0760  -27.9780   22.7680 C   0  0  0  0  0  0  0  0  0  0  0  0
  -20.6400  -28.2070   23.0210 C   0  0  0  0  0  3  0  0  0  0  0  0
  -20.7230  -26.7900   22.4080 C   0  0  0  0  0  2  0  0  0  0  0  0
  -19.6100  -26.5080   21.3940 C   0  0  0  0  0  2  0  0  0  0  0  0
  -18.2340  -26.6480   22.0520 C   0  0  0  0  0  2  0  0  0  0  0  0
  -19.2070  -28.7170   23.2110 C   0  0  0  0  0  0  0  0  0  0  0  0
  -19.0000  -29.9640   23.8390 C   0  0  0  0  0  3  0  0  0  0  0  0
  -17.7030  -30.4710   24.0310 C   0  0  0  0  0  3  0  0  0  0  0  0
  -16.5870  -29.7270   23.6090 C   0  0  0  0  0  3  0  0  0  0  0  0
  -16.7770  -28.4830   22.9810 C   0  0  0  0  0  3  0  0  0  0  0  0
  -25.8540  -32.4130   23.7880 C   0  0  0  0  0  3  0  0  0  0  0  0
  -25.5110  -33.8010   24.1310 N   0  0  0  0  0  0  0  0  0  0  0  0
  -25.8420  -34.8740   23.3990 C   0  0  0  0  0  0  0  0  0  0  0  0
  -26.5360  -34.7990   22.3800 O   0  0  0  0  0  0  0  0  0  0  0  0
  -24.8980  -33.9380   24.9200 H   0  0  0  0  0  0  0  0  0  0  0  0
  -24.0870  -36.6380   23.0460 C   0  0  0  0  0  1  0  0  0  0  0  0
  -25.3250  -36.2440   23.8670 C   0  0  0  0  0  3  0  0  0  0  0  0
  -27.4260  -37.1590   24.7420 C   0  0  0  0  0  1  0  0  0  0  0  0
  -26.3350  -37.3210   23.7850 N   0  0  0  0  0  0  0  0  0  0  0  0
  -25.9080  -38.2290   23.9440 H   0  0  0  0  0  0  0  0  0  0  0  0
  -26.3620  -31.6400   25.0680 C   0  0  1  0  0  0  0  0  0  0  0  0
  -25.2550  -31.3790   26.1140 C   0  0  0  0  0  1  0  0  0  0  0  0
  -26.9750  -30.2730   24.6840 C   0  0  0  0  0  1  0  0  0  0  0  0
  -27.4860  -32.4510   25.7580 C   0  0  0  0  0  1  0  0  0  0  0  0
  -31.0380  -18.0370   20.3280 C   0  0  0  0  0  3  0  0  0  0  0  0
  -30.8210  -16.7220   18.1370 C   0  0  0  0  0  1  0  0  0  0  0  0
  -30.4730  -16.5990   19.6440 C   0  0  1  0  0  0  0  0  0  0  0  0
  -31.1240  -15.0780   20.0200 C   0  0  0  0  0  0  0  0  0  0  0  0
  -30.9420  -12.6590   19.3020 C   0  0  0  0  0  2  0  0  0  0  0  0
  -30.0460  -12.5420   18.0420 C   0  0  0  0  0  2  0  0  0  0  0  0
  -28.5590  -12.4140   18.4450 C   0  0  0  0  0  2  0  0  0  0  0  0
  -28.1490  -13.4310   19.5400 C   0  0  0  0  0  3  0  0  0  0  0  0
  -29.1760  -13.4770   20.6840 C   0  0  0  0  0  2  0  0  0  0  0  0
  -30.4730  -13.8400   20.0910 N   0  0  0  0  0  0  0  0  0  0  0  0
  -32.3530  -14.9920   19.9260 O   0  0  0  0  0  0  0  0  0  0  0  0
  -25.7790  -14.1300   20.1980 C   0  0  0  0  0  0  0  0  0  0  0  0
  -24.6780  -13.4400   20.5880 C   0  0  0  0  0  0  0  0  0  0  0  0
  -25.0740  -12.0660   20.6050 C   0  0  0  0  0  0  0  0  0  0  0  0
  -26.7920  -13.2100   20.0220 N   0  0  0  0  0  0  0  0  0  0  0  0
  -26.3700  -11.9550   20.3230 N   0  0  0  0  0  0  0  0  0  0  0  0
  -24.2820  -10.8490   20.7950 C   0  0  0  0  0  0  0  0  0  0  0  0
  -24.6720   -9.8560   21.7210 C   0  0  0  0  0  3  0  0  0  0  0  0
  -23.8760   -8.7100   21.9160 C   0  0  0  0  0  3  0  0  0  0  0  0
  -22.6800   -8.5410   21.1760 C   0  0  0  0  0  0  0  0  0  0  0  0
  -22.3110   -9.5170   20.2330 C   0  0  0  0  0  3  0  0  0  0  0  0
  -23.1080  -10.6570   20.0360 C   0  0  0  0  0  3  0  0  0  0  0  0
  -21.8570   -7.4470   21.2770 O   0  0  0  0  0  0  0  0  0  0  0  0
  -21.7890   -6.7030   22.4280 C   0  0  0  0  0  0  0  0  0  0  0  0
  -21.4520   -7.2820   23.6690 C   0  0  0  0  0  3  0  0  0  0  0  0
  -21.3300   -6.4690   24.8120 C   0  0  0  0  0  3  0  0  0  0  0  0
  -21.5330   -5.0780   24.7150 C   0  0  0  0  0  0  0  0  0  0  0  0
  -21.8650   -4.5020   23.4770 C   0  0  0  0  0  3  0  0  0  0  0  0
  -21.9890   -5.3120   22.3360 C   0  0  0  0  0  0  0  0  0  0  0  0
  -22.2910   -4.7470   21.1420 F   0  0  0  0  0  0  0  0  0  0  0  0
  -21.4120   -4.2970   25.8150 F   0  0  0  0  0  0  0  0  0  0  0  0
  -23.3070  -14.0100   20.8340 C   0  0  0  0  0  0  0  0  0  0  0  0
  -22.5370  -13.3940   21.7200 N   0  0  0  0  0  0  0  0  0  0  0  0
  -22.9310  -15.0410   20.2690 O   0  0  0  0  0  0  0  0  0  0  0  0
  -22.8440  -12.5680   22.2160 H   0  0  0  0  0  0  0  0  0  0  0  0
  -21.6130  -13.7560   21.9060 H   0  0  0  0  0  0  0  0  0  0  0  0
  -25.9950  -15.4700   19.9500 N   0  0  0  0  0  0  0  0  0  0  0  0
  -25.2950  -16.1900   20.0650 H   0  0  0  0  0  0  0  0  0  0  0  0
  -26.9240  -15.8650   19.9240 H   0  0  0  0  0  0  0  0  0  0  0  0
  -27.0410  -17.0500   20.8070 C   0  0  0  0  0  3  0  0  0  0  0  0
  -28.2790  -16.4670   20.9700 C   0  0  0  0  0  3  0  0  0  0  0  0
  -28.1850  -17.4680   19.0490 C   0  0  0  0  0  3  0  0  0  0  0  0
  -26.9910  -17.7040   19.5760 N   0  0  0  0  0  0  0  0  0  0  0  0
  -29.0190  -16.7390   19.8250 N   0  0  0  0  0  0  0  0  0  0  0  0
  -32.7400  -19.5600   19.0150 C   0  0  0  0  0  1  0  0  0  0  0  0
  -32.5230  -18.3930   20.0030 C   0  0  0  0  0  2  0  0  0  0  0  0
  2  1  1  0
  3  4  1  0
  3  2  1  0
  4  5  1  0
  5  6  1  0
  7  5  1  0
  7  8  1  0
  9 20  2  0
 10  8  1  0
 10 15  1  0
 11 19  1  0
 11 21  1  0
 12 18  1  0
 12 14  1  0
 13 19  1  0
 14 15  2  0
 14 13  1  0
 16 10  2  0
 17 16  1  0
 17 12  2  0
 18 11  1  0
 19  9  1  0
 21 23  2  0
 22 21  1  0
 24 22  1  0
 25 34  2  0
 25 30  1  0
 26 22  1  0
 26 30  1  0
 27 26  1  0
 28 29  1  0
 28 27  1  0
 29 25  1  0
 30 31  2  0
 31 32  1  0
 33 32  2  0
 34 33  1  0
 35  9  1  0
 35 36  1  0
 35 45  1  0
 36 39  1  0
 37 41  1  0
 37 36  1  0
 38 37  2  0
 41 40  1  0
 43 41  1  0
 43 44  1  0
 43 42  1  0
 45 48  1  1
 45 46  1  0
 47 45  1  0
 49 94  1  0
 49  2  1  0
 51 50  1  6
 51 92  1  0
 51 52  1  0
 51 49  1  0
 52 58  1  0
 53 58  1  0
 54 55  1  0
 54 53  1  0
 56 55  1  0
 56 63  1  0
 56 57  1  0
 58 57  1  0
 59 52  2  0
 60 61  2  0
 61 62  1  0
 61 80  1  0
 62 65  1  0
 63 60  1  0
 63 64  1  0
 64 62  2  0
 65 66  1  0
 66 67  2  0
 68 71  1  0
 68 67  1  0
 69 68  2  0
 70 69  1  0
 70 65  2  0
 71 72  1  0
 72 73  1  0
 73 74  2  0
 75 74  1  0
 75 79  1  0
 76 75  2  0
 77 72  2  0
 77 76  1  0
 78 77  1  0
 80 81  1  0
 81 84  1  0
 81 83  1  0
 82 80  2  0
 85 86  1  0
 85 60  1  0
 87 85  1  0
 88 89  2  0
 90 91  2  0
 90 92  1  0
 91 88  1  0
 92 89  1  0
 93 94  1  0
M  ISO  4   7 101   8 101  51 100  52 100
M  END
>  <TORSDO>  (79) 
F 24

>  <SCORE>  (79) 
-12.143

>  <name>  (79) 
79

>  <ligand_id>  (79) 
79

>  <original_smiles>  (79) 
[H]c1nc([H])n(C(C(=O)N2C([H])([H])C([H])([H])C([H])([H])C([H])(n3nc(-c4c([H])c([H])c(Oc5c([H])c([H])c(F)c([H])c5F)c([H])c4[H])c(C(=O)N([H])[H])c3N([H])[H])C2([H])[H])(C([H])([H])[H])C([H])(C([H])([H])C([H])([H])[H])C([H])(C([H])([H])[H])C([H])([H])C([H])([H])C([H])(F)C([H])([H])Oc2c([H])c([H])c3c(c2[H])C([H])([H])N(C(=O)C([H])(N([H])C(=O)C([H])(N([H])C([H])([H])[H])C([H])([H])[H])C(C([H])([H])[H])(C([H])([H])[H])C([H])([H])[H])C([H])(C(=O)N([H])C2([H])c4c([H])c([H])c([H])c([H])c4C([H])([H])C([H])([H])C2([H])[H])C3([H])[H])c1[H]

>  <smiles>  (79) 
[H]c1nc([H])n(C(C(=O)N2C([H])([H])C([H])([H])C([H])([H])C([H])(n3nc(-c4c([H])c([H])c(Oc5c([H])c([H])c(F)c([H])c5F)c([H])c4[H])c(C(=O)N([H])[H])c3N([H])[H])C2([H])[H])(C([H])([H])[H])C([H])(C([H])([H])C([H])([H])[H])C([H])(C([H])([H])[H])C([H])([H])C([H])([H])C([H])(F)C([H])([H])Oc2c([H])c([H])c3c(c2[H])C([H])([H])N(C(=O)C([H])(N([H])C(=O)C([H])(N([H])C([H])([H])[H])C([H])([H])[H])C(C([H])([H])[H])(C([H])([H])[H])C([H])([H])[H])C([H])(C(=O)N([H])C2([H])c4c([H])c([H])c([H])c([H])c4C([H])([H])C([H])([H])C2([H])[H])C3([H])[H])c1[H]

$$$$
80:0:0
     RDKit          3D

 94102  0  0  1  0  0  0  0  0999 V2000
  -29.8690  -21.5280   22.9920 C   0  0  0  0  0  3  0  0  0  0  0  0
  -30.2520  -20.5050   23.8560 C   0  0  0  0  0  0  0  0  0  0  0  0
  -29.9270  -21.2650   21.6140 C   0  0  0  0  0  0  0  0  0  0  0  0
  -30.7680  -19.1580   22.0590 C   0  0  0  0  0  0  0  0  0  0  0  0
  -30.1750  -20.6700   25.3600 C   0  0  0  0  0  1  0  0  0  0  0  0
  -30.6880  -19.3320   23.3820 N   0  0  0  0  0  0  0  0  0  0  0  0
  -30.4040  -20.0840   21.1550 N   0  0  0  0  0  0  0  0  0  0  0  0
  -31.4940  -16.7610   22.6930 C   0  0  0  0  0  1  0  0  0  0  0  0
  -31.4550  -17.8430   21.5750 C   0  0  2  0  0  0  0  0  0  0  0  0
  -32.7360  -18.1220   21.3200 F   0  0  0  0  0  0  0  0  0  0  0  0
  -30.8450  -17.2730   20.2550 C   0  0  0  0  0  2  0  0  0  0  0  0
  -31.3830  -14.8700   19.5310 C   0  0  0  0  0  0  0  0  0  0  0  0
  -30.9580  -12.6850   18.4570 C   0  0  0  0  0  2  0  0  0  0  0  0
  -29.8570  -12.8570   17.3850 C   0  0  0  0  0  2  0  0  0  0  0  0
  -28.4470  -12.7740   18.0120 C   0  0  0  0  0  2  0  0  0  0  0  0
  -28.2980  -13.6660   19.2720 C   0  0  0  0  0  3  0  0  0  0  0  0
  -29.4720  -13.3960   20.2370 C   0  0  0  0  0  2  0  0  0  0  0  0
  -30.7250  -13.6820   19.5090 N   0  0  0  0  0  0  0  0  0  0  0  0
  -32.4050  -15.1050   18.8770 O   0  0  0  0  0  0  0  0  0  0  0  0
  -30.7170  -15.8060   20.2200 N   0  0  0  0  0  0  0  0  0  0  0  0
  -29.9090  -15.4440   20.7020 H   0  0  0  0  0  0  0  0  0  0  0  0
  -26.1430  -14.4110   20.4720 C   0  0  0  0  0  0  0  0  0  0  0  0
  -25.0470  -13.7080   20.8970 C   0  0  0  0  0  0  0  0  0  0  0  0
  -25.3040  -12.3420   20.5720 C   0  0  0  0  0  0  0  0  0  0  0  0
  -27.0060  -13.4730   19.9250 N   0  0  0  0  0  0  0  0  0  0  0  0
  -26.5110  -12.2150   20.0370 N   0  0  0  0  0  0  0  0  0  0  0  0
  -24.4520  -11.1520   20.6830 C   0  0  0  0  0  0  0  0  0  0  0  0
  -24.9190   -9.9620   21.2850 C   0  0  0  0  0  3  0  0  0  0  0  0
  -24.0760   -8.8360   21.3960 C   0  0  0  0  0  3  0  0  0  0  0  0
  -22.7490   -8.8950   20.9060 C   0  0  0  0  0  0  0  0  0  0  0  0
  -22.2950  -10.0750   20.2900 C   0  0  0  0  0  3  0  0  0  0  0  0
  -23.1380  -11.1930   20.1760 C   0  0  0  0  0  3  0  0  0  0  0  0
  -21.8670   -7.8440   20.9480 O   0  0  0  0  0  0  0  0  0  0  0  0
  -21.9240   -6.8940   21.9370 C   0  0  0  0  0  0  0  0  0  0  0  0
  -21.8470   -7.2370   23.3060 C   0  0  0  0  0  3  0  0  0  0  0  0
  -21.8400   -6.2240   24.2860 C   0  0  0  0  0  3  0  0  0  0  0  0
  -21.8990   -4.8710   23.9000 C   0  0  0  0  0  0  0  0  0  0  0  0
  -21.9710   -4.5280   22.5380 C   0  0  0  0  0  3  0  0  0  0  0  0
  -21.9800   -5.5380   21.5600 C   0  0  0  0  0  0  0  0  0  0  0  0
  -22.0270   -5.2010   20.2480 F   0  0  0  0  0  0  0  0  0  0  0  0
  -21.8840   -3.8970   24.8390 F   0  0  0  0  0  0  0  0  0  0  0  0
  -23.7870  -14.2790   21.4850 C   0  0  0  0  0  0  0  0  0  0  0  0
  -23.1300  -13.5390   22.3700 N   0  0  0  0  0  0  0  0  0  0  0  0
  -23.4030  -15.4110   21.1960 O   0  0  0  0  0  0  0  0  0  0  0  0
  -23.4490  -12.6150   22.6210 H   0  0  0  0  0  0  0  0  0  0  0  0
  -22.2960  -13.9070   22.8050 H   0  0  0  0  0  0  0  0  0  0  0  0
  -26.4680  -15.7640   20.4850 N   0  0  0  0  0  0  0  0  0  0  0  0
  -25.8180  -16.4710   20.8100 H   0  0  0  0  0  0  0  0  0  0  0  0
  -27.2900  -16.1570   20.0410 H   0  0  0  0  0  0  0  0  0  0  0  0
  -29.4970  -22.1600   20.6410 O   0  0  0  0  0  0  0  0  0  0  0  0
  -28.8140  -23.3310   21.1200 C   0  0  0  0  0  2  0  0  0  0  0  0
  -28.5630  -24.4540   20.0840 C   0  0  0  0  0  2  0  0  0  0  0  0
  -27.8670  -25.6690   20.7520 C   0  0  0  0  0  2  0  0  0  0  0  0
  -28.0250  -26.9120   20.0490 O   0  0  0  0  0  0  0  0  0  0  0  0
  -24.5000  -32.1090   23.4320 C   0  0  0  0  0  0  0  0  0  0  0  0
  -26.8980  -27.7020   20.1120 C   0  0  0  0  0  0  0  0  0  0  0  0
  -23.1830  -30.7640   21.8270 C   0  0  0  0  0  3  0  0  0  0  0  0
  -24.5330  -29.2380   20.2880 C   0  0  0  0  0  0  0  0  0  0  0  0
  -25.7020  -31.0830   21.5060 C   0  0  0  0  0  2  0  0  0  0  0  0
  -25.7290  -29.7300   20.8270 C   0  0  0  0  0  0  0  0  0  0  0  0
  -26.9180  -28.9690   20.7360 C   0  0  0  0  0  3  0  0  0  0  0  0
  -25.6910  -27.2250   19.5630 C   0  0  0  0  0  3  0  0  0  0  0  0
  -24.5080  -27.9840   19.6520 C   0  0  0  0  0  3  0  0  0  0  0  0
  -23.3060  -30.1120   20.4230 C   0  0  0  0  0  2  0  0  0  0  0  0
  -24.4820  -31.3330   22.3110 N   0  0  0  0  0  0  0  0  0  0  0  0
  -23.4560  -32.3870   24.0360 O   0  0  0  0  0  0  0  0  0  0  0  0
  -22.5650  -29.7330   22.8000 C   0  0  0  0  0  0  0  0  0  0  0  0
  -21.2640  -29.4440   22.6230 N   0  0  0  0  0  0  0  0  0  0  0  0
  -23.2550  -29.1930   23.6690 O   0  0  0  0  0  0  0  0  0  0  0  0
  -20.7670  -29.9320   21.8910 H   0  0  0  0  0  0  0  0  0  0  0  0
  -18.0290  -27.8600   22.8950 C   0  0  0  0  0  0  0  0  0  0  0  0
  -20.4870  -28.4770   23.3970 C   0  0  0  0  0  3  0  0  0  0  0  0
  -20.8250  -27.0270   22.9830 C   0  0  0  0  0  2  0  0  0  0  0  0
  -19.8930  -26.4710   21.9000 C   0  0  0  0  0  2  0  0  0  0  0  0
  -18.4410  -26.4900   22.3860 C   0  0  0  0  0  2  0  0  0  0  0  0
  -18.9880  -28.7980   23.3580 C   0  0  0  0  0  0  0  0  0  0  0  0
  -18.5500  -30.0680   23.7940 C   0  0  0  0  0  3  0  0  0  0  0  0
  -17.1820  -30.4020   23.7790 C   0  0  0  0  0  3  0  0  0  0  0  0
  -16.2350  -29.4640   23.3330 C   0  0  0  0  0  3  0  0  0  0  0  0
  -16.6580  -28.1970   22.8940 C   0  0  0  0  0  3  0  0  0  0  0  0
  -25.8310  -32.7060   23.9910 C   0  0  0  0  0  3  0  0  0  0  0  0
  -25.6120  -34.1400   24.2220 N   0  0  0  0  0  0  0  0  0  0  0  0
  -26.0170  -35.1140   23.3960 C   0  0  0  0  0  0  0  0  0  0  0  0
  -26.6860  -34.8960   22.3820 O   0  0  0  0  0  0  0  0  0  0  0  0
  -25.0290  -34.3880   25.0080 H   0  0  0  0  0  0  0  0  0  0  0  0
  -24.4090  -36.9810   22.8980 C   0  0  0  0  0  1  0  0  0  0  0  0
  -25.6160  -36.5580   23.7520 C   0  0  0  0  0  3  0  0  0  0  0  0
  -27.7960  -37.3600   24.5460 C   0  0  0  0  0  1  0  0  0  0  0  0
  -26.7140  -37.5340   23.5800 N   0  0  0  0  0  0  0  0  0  0  0  0
  -26.3670  -38.4850   23.6620 H   0  0  0  0  0  0  0  0  0  0  0  0
  -26.3240  -31.9980   25.3120 C   0  0  1  0  0  0  0  0  0  0  0  0
  -25.2240  -31.8540   26.3890 C   0  0  0  0  0  1  0  0  0  0  0  0
  -26.8690  -30.5840   25.0060 C   0  0  0  0  0  1  0  0  0  0  0  0
  -27.4960  -32.7990   25.9290 C   0  0  0  0  0  1  0  0  0  0  0  0
  1  2  2  0
  2  5  1  0
  3  1  1  0
  4  6  2  0
  6  2  1  0
  7  3  2  0
  7  4  1  0
  9  4  1  0
  9  8  1  1
 10  9  1  0
 11  9  1  0
 12 20  1  0
 13 18  1  0
 14 15  1  0
 14 13  1  0
 16 15  1  0
 16 25  1  0
 16 17  1  0
 18 12  1  0
 18 17  1  0
 19 12  2  0
 20 11  1  0
 20 21  1  0
 22 47  1  0
 22 23  2  0
 23 42  1  0
 24 27  1  0
 24 23  1  0
 25 26  1  0
 25 22  1  0
 26 24  2  0
 27 28  1  0
 28 29  2  0
 30 33  1  0
 30 29  1  0
 31 30  2  0
 32 31  1  0
 32 27  2  0
 33 34  1  0
 34 35  1  0
 35 36  2  0
 37 36  1  0
 37 41  1  0
 38 37  2  0
 39 34  2  0
 39 38  1  0
 40 39  1  0
 42 43  1  0
 43 45  1  0
 43 46  1  0
 44 42  2  0
 47 48  1  0
 49 47  1  0
 50 51  1  0
 50  3  1  0
 52 53  1  0
 52 51  1  0
 54 56  1  0
 54 53  1  0
 55 66  2  0
 56 61  1  0
 57 65  1  0
 57 67  1  0
 58 64  1  0
 58 60  1  0
 59 65  1  0
 60 59  1  0
 61 60  2  0
 62 63  1  0
 62 56  2  0
 63 58  2  0
 64 57  1  0
 65 55  1  0
 67 69  2  0
 68 67  1  0
 70 68  1  0
 71 76  1  0
 72 68  1  0
 73 72  1  0
 74 75  1  0
 74 73  1  0
 75 71  1  0
 76 72  1  0
 76 77  2  0
 78 77  1  0
 79 78  2  0
 80 71  2  0
 80 79  1  0
 81 55  1  0
 81 82  1  0
 81 91  1  0
 82 85  1  0
 83 87  1  0
 83 82  1  0
 84 83  2  0
 87 86  1  0
 89 90  1  0
 89 87  1  0
 89 88  1  0
 91 94  1  1
 91 92  1  0
 93 91  1  0
M  ISO  4  12 100  20 100  53 101  54 101
M  END
>  <TORSDO>  (80) 
F 22

>  <SCORE>  (80) 
-8.128

>  <name>  (80) 
80

>  <ligand_id>  (80) 
80

>  <original_smiles>  (80) 
[H]c1c(OC([H])([H])C([H])([H])C([H])([H])Oc2c([H])c([H])c3c(c2[H])C([H])([H])N(C(=O)C([H])(N([H])C(=O)C([H])(N([H])C([H])([H])[H])C([H])([H])[H])C(C([H])([H])[H])(C([H])([H])[H])C([H])([H])[H])C([H])(C(=O)N([H])C2([H])c4c([H])c([H])c([H])c([H])c4C([H])([H])C([H])([H])C2([H])[H])C3([H])[H])nc(C(F)(C([H])([H])[H])C([H])([H])N([H])C(=O)N2C([H])([H])C([H])([H])C([H])([H])C([H])(n3nc(-c4c([H])c([H])c(Oc5c([H])c([H])c(F)c([H])c5F)c([H])c4[H])c(C(=O)N([H])[H])c3N([H])[H])C2([H])[H])nc1C([H])([H])[H]

>  <smiles>  (80) 
[H]c1c(OC([H])([H])C([H])([H])C([H])([H])Oc2c([H])c([H])c3c(c2[H])C([H])([H])N(C(=O)C([H])(N([H])C(=O)C([H])(N([H])C([H])([H])[H])C([H])([H])[H])C(C([H])([H])[H])(C([H])([H])[H])C([H])([H])[H])C([H])(C(=O)N([H])C2([H])c4c([H])c([H])c([H])c([H])c4C([H])([H])C([H])([H])C2([H])[H])C3([H])[H])nc(C(F)(C([H])([H])[H])C([H])([H])N([H])C(=O)N2C([H])([H])C([H])([H])C([H])([H])C([H])(n3nc(-c4c([H])c([H])c(Oc5c([H])c([H])c(F)c([H])c5F)c([H])c4[H])c(C(=O)N([H])[H])c3N([H])[H])C2([H])[H])nc1C([H])([H])[H]

$$$$
81:0:0
     RDKit          3D

 92100  0  0  1  0  0  0  0  0999 V2000
  -30.5080  -21.0850   20.6560 C   0  0  0  0  0  3  0  0  0  0  0  0
  -28.6840  -20.0610   19.6020 C   0  0  0  0  0  3  0  0  0  0  0  0
  -29.8950  -19.8520   20.2890 C   0  0  0  0  0  0  0  0  0  0  0  0
  -28.7950  -22.4120   19.7740 C   0  0  0  0  0  0  0  0  0  0  0  0
  -29.9570  -22.3250   20.4350 N   0  0  0  0  0  0  0  0  0  0  0  0
  -28.1640  -21.2940   19.3790 N   0  0  0  0  0  0  0  0  0  0  0  0
  -27.0410  -23.7770   20.9920 C   0  0  0  0  0  1  0  0  0  0  0  0
  -27.0270  -23.5930   18.4460 C   0  0  0  0  0  1  0  0  0  0  0  0
  -27.9160  -23.7610   19.7230 C   0  0  2  0  0  0  0  0  0  0  0  0
  -28.6180  -25.2120   19.5200 C   0  0  0  0  0  2  0  0  0  0  0  0
  -28.3250  -26.4870   20.2630 O   0  0  0  0  0  0  0  0  0  0  0  0
  -24.5940  -31.9360   23.2420 C   0  0  0  0  0  0  0  0  0  0  0  0
  -27.1850  -27.3160   20.1800 C   0  0  0  0  0  0  0  0  0  0  0  0
  -23.3780  -30.5240   21.6250 C   0  0  0  0  0  3  0  0  0  0  0  0
  -24.8130  -28.9510   20.2020 C   0  0  0  0  0  0  0  0  0  0  0  0
  -25.9170  -30.8160   21.4300 C   0  0  0  0  0  2  0  0  0  0  0  0
  -25.9890  -29.4290   20.7930 C   0  0  0  0  0  0  0  0  0  0  0  0
  -27.1670  -28.6180   20.7850 C   0  0  0  0  0  3  0  0  0  0  0  0
  -25.9820  -26.9030   19.5710 C   0  0  0  0  0  3  0  0  0  0  0  0
  -24.8140  -27.6910   19.5880 C   0  0  0  0  0  3  0  0  0  0  0  0
  -23.5720  -29.8230   20.2550 C   0  0  0  0  0  2  0  0  0  0  0  0
  -24.6500  -31.1090   22.1570 N   0  0  0  0  0  0  0  0  0  0  0  0
  -23.5140  -32.2310   23.7760 O   0  0  0  0  0  0  0  0  0  0  0  0
  -22.7060  -29.5260   22.5980 C   0  0  0  0  0  0  0  0  0  0  0  0
  -21.3820  -29.3500   22.4640 N   0  0  0  0  0  0  0  0  0  0  0  0
  -23.3750  -28.9120   23.4350 O   0  0  0  0  0  0  0  0  0  0  0  0
  -20.9000  -29.8810   21.7500 H   0  0  0  0  0  0  0  0  0  0  0  0
  -18.0070  -28.1770   22.9710 C   0  0  0  0  0  0  0  0  0  0  0  0
  -20.5630  -28.4300   23.2500 C   0  0  0  0  0  3  0  0  0  0  0  0
  -20.6680  -26.9930   22.6910 C   0  0  0  0  0  2  0  0  0  0  0  0
  -19.5690  -26.6610   21.6770 C   0  0  0  0  0  2  0  0  0  0  0  0
  -18.1850  -26.8200   22.3130 C   0  0  0  0  0  2  0  0  0  0  0  0
  -19.1240  -28.9400   23.3980 C   0  0  0  0  0  0  0  0  0  0  0  0
  -18.9080  -30.2140   23.9690 C   0  0  0  0  0  3  0  0  0  0  0  0
  -17.6030  -30.7190   24.1260 C   0  0  0  0  0  3  0  0  0  0  0  0
  -16.4990  -29.9510   23.7220 C   0  0  0  0  0  3  0  0  0  0  0  0
  -16.7010  -28.6840   23.1470 C   0  0  0  0  0  3  0  0  0  0  0  0
  -25.8830  -32.5700   23.8530 C   0  0  0  0  0  3  0  0  0  0  0  0
  -26.4040  -31.8010   25.1300 C   0  0  1  0  0  0  0  0  0  0  0  0
  -25.3120  -31.5630   26.1980 C   0  0  0  0  0  1  0  0  0  0  0  0
  -26.9810  -30.4220   24.7380 C   0  0  0  0  0  1  0  0  0  0  0  0
  -27.5630  -32.5850   25.7860 C   0  0  0  0  0  1  0  0  0  0  0  0
  -25.5820  -33.9690   24.1860 N   0  0  0  0  0  0  0  0  0  0  0  0
  -25.9100  -35.0190   23.4230 C   0  0  0  0  0  0  0  0  0  0  0  0
  -26.5730  -34.9140   22.3890 O   0  0  0  0  0  0  0  0  0  0  0  0
  -24.9990  -34.1260   24.9950 H   0  0  0  0  0  0  0  0  0  0  0  0
  -24.1860  -36.8140   23.0670 C   0  0  0  0  0  1  0  0  0  0  0  0
  -25.4270  -36.4100   23.8800 C   0  0  0  0  0  3  0  0  0  0  0  0
  -27.5620  -37.2910   24.7110 C   0  0  0  0  0  1  0  0  0  0  0  0
  -26.4620  -37.4610   23.7640 N   0  0  0  0  0  0  0  0  0  0  0  0
  -26.0590  -38.3830   23.9100 H   0  0  0  0  0  0  0  0  0  0  0  0
  -30.5670  -18.1720   22.1680 C   0  0  0  0  0  1  0  0  0  0  0  0
  -30.4970  -18.4210   20.6470 C   0  0  0  0  0  3  0  0  0  0  0  0
  -29.9840  -17.1300   19.8480 C   0  0  0  0  0  2  0  0  0  0  0  0
  -30.6600  -14.6450   20.3040 C   0  0  0  0  0  0  0  0  0  0  0  0
  -30.3710  -12.3890   19.3110 C   0  0  0  0  0  2  0  0  0  0  0  0
  -29.4420  -12.5380   18.0860 C   0  0  0  0  0  2  0  0  0  0  0  0
  -27.9640  -12.4060   18.5080 C   0  0  0  0  0  2  0  0  0  0  0  0
  -27.6140  -13.2740   19.7480 C   0  0  0  0  0  3  0  0  0  0  0  0
  -28.6830  -13.1390   20.8620 C   0  0  0  0  0  2  0  0  0  0  0  0
  -29.9950  -13.4430   20.2730 N   0  0  0  0  0  0  0  0  0  0  0  0
  -31.8290  -14.7440   19.9400 O   0  0  0  0  0  0  0  0  0  0  0  0
  -29.8950  -15.7640   20.4950 N   0  0  0  0  0  0  0  0  0  0  0  0
  -28.9680  -15.5290   20.8120 H   0  0  0  0  0  0  0  0  0  0  0  0
  -25.2230  -13.8760   20.4720 C   0  0  0  0  0  0  0  0  0  0  0  0
  -24.1540  -13.1100   20.8430 C   0  0  0  0  0  0  0  0  0  0  0  0
  -24.6120  -11.7550   20.8180 C   0  0  0  0  0  0  0  0  0  0  0  0
  -26.2660  -12.9940   20.2380 N   0  0  0  0  0  0  0  0  0  0  0  0
  -25.9050  -11.7130   20.5110 N   0  0  0  0  0  0  0  0  0  0  0  0
  -23.8780  -10.4960   21.0140 C   0  0  0  0  0  0  0  0  0  0  0  0
  -24.3080   -9.5280   21.9490 C   0  0  0  0  0  3  0  0  0  0  0  0
  -23.5780   -8.3360   22.1350 C   0  0  0  0  0  3  0  0  0  0  0  0
  -22.4020   -8.1020   21.3840 C   0  0  0  0  0  0  0  0  0  0  0  0
  -21.9870   -9.0580   20.4420 C   0  0  0  0  0  3  0  0  0  0  0  0
  -22.7190  -10.2430   20.2540 C   0  0  0  0  0  3  0  0  0  0  0  0
  -21.6440   -6.9600   21.4770 O   0  0  0  0  0  0  0  0  0  0  0  0
  -21.5970   -6.2180   22.6300 C   0  0  0  0  0  0  0  0  0  0  0  0
  -21.1820   -6.7760   23.8600 C   0  0  0  0  0  3  0  0  0  0  0  0
  -21.0830   -5.9590   25.0050 C   0  0  0  0  0  3  0  0  0  0  0  0
  -21.3890   -4.5880   24.9200 C   0  0  0  0  0  0  0  0  0  0  0  0
  -21.7970   -4.0310   23.6970 C   0  0  0  0  0  3  0  0  0  0  0  0
  -21.8990   -4.8430   22.5540 C   0  0  0  0  0  0  0  0  0  0  0  0
  -22.2710   -4.2960   21.3720 F   0  0  0  0  0  0  0  0  0  0  0  0
  -21.2880   -3.8030   26.0190 F   0  0  0  0  0  0  0  0  0  0  0  0
  -22.7590  -13.5920   21.1130 C   0  0  0  0  0  0  0  0  0  0  0  0
  -22.0290  -12.9050   21.9810 N   0  0  0  0  0  0  0  0  0  0  0  0
  -22.3250  -14.6170   20.5850 O   0  0  0  0  0  0  0  0  0  0  0  0
  -22.3900  -12.0730   22.4210 H   0  0  0  0  0  0  0  0  0  0  0  0
  -21.0940  -13.2160   22.2060 H   0  0  0  0  0  0  0  0  0  0  0  0
  -25.3890  -15.2470   20.2830 N   0  0  0  0  0  0  0  0  0  0  0  0
  -24.6070  -15.8890   20.3670 H   0  0  0  0  0  0  0  0  0  0  0  0
  -26.2250  -15.6800   19.9140 H   0  0  0  0  0  0  0  0  0  0  0  0
  2  3  1  0
  3 53  1  0
  3  1  2  0
  4  5  2  0
  5  1  1  0
  6  2  2  0
  6  4  1  0
  9  8  1  6
  9  4  1  0
  9  7  1  0
 10  9  1  0
 10 11  1  0
 12 23  2  0
 13 11  1  0
 13 18  1  0
 14 22  1  0
 14 24  1  0
 15 21  1  0
 15 17  1  0
 16 22  1  0
 17 16  1  0
 18 17  2  0
 19 20  1  0
 19 13  2  0
 20 15  2  0
 21 14  1  0
 22 12  1  0
 24 26  2  0
 25 24  1  0
 27 25  1  0
 28 37  2  0
 28 33  1  0
 29 25  1  0
 29 33  1  0
 30 29  1  0
 31 32  1  0
 31 30  1  0
 32 28  1  0
 33 34  2  0
 34 35  1  0
 36 35  2  0
 37 36  1  0
 38 12  1  0
 38 43  1  0
 38 39  1  0
 39 42  1  1
 39 40  1  0
 41 39  1  0
 43 46  1  0
 44 48  1  0
 44 43  1  0
 45 44  2  0
 48 47  1  0
 50 48  1  0
 50 51  1  0
 50 49  1  0
 53 52  1  0
 54 63  1  0
 54 53  1  0
 55 63  1  0
 56 61  1  0
 57 58  1  0
 57 56  1  0
 59 58  1  0
 59 68  1  0
 59 60  1  0
 61 55  1  0
 61 60  1  0
 62 55  2  0
 63 64  1  0
 65 66  2  0
 66 85  1  0
 67 66  1  0
 67 70  1  0
 68 65  1  0
 68 69  1  0
 69 67  2  0
 70 71  1  0
 71 72  2  0
 73 76  1  0
 73 72  1  0
 74 73  2  0
 75 74  1  0
 75 70  2  0
 76 77  1  0
 77 78  1  0
 78 79  2  0
 80 79  1  0
 80 84  1  0
 81 80  2  0
 82 77  2  0
 82 81  1  0
 83 82  1  0
 85 86  1  0
 86 89  1  0
 86 88  1  0
 87 85  2  0
 90 91  1  0
 90 65  1  0
 92 90  1  0
M  ISO  4  10 101  11 101  55 100  63 100
M  END
>  <TORSDO>  (81) 
F 20

>  <SCORE>  (81) 
-13.825

>  <name>  (81) 
81

>  <ligand_id>  (81) 
81

>  <original_smiles>  (81) 
[H]c1nc(C(C([H])([H])[H])(C([H])([H])[H])C([H])([H])Oc2c([H])c([H])c3c(c2[H])C([H])([H])N(C(=O)C([H])(N([H])C(=O)C([H])(N([H])C([H])([H])[H])C([H])([H])[H])C(C([H])([H])[H])(C([H])([H])[H])C([H])([H])[H])C([H])(C(=O)N([H])C2([H])c4c([H])c([H])c([H])c([H])c4C([H])([H])C([H])([H])C2([H])[H])C3([H])[H])nc([H])c1C([H])(C([H])([H])[H])C([H])([H])N([H])C(=O)N1C([H])([H])C([H])([H])C([H])([H])C([H])(n2nc(-c3c([H])c([H])c(Oc4c([H])c([H])c(F)c([H])c4F)c([H])c3[H])c(C(=O)N([H])[H])c2N([H])[H])C1([H])[H]

>  <smiles>  (81) 
[H]c1nc(C(C([H])([H])[H])(C([H])([H])[H])C([H])([H])Oc2c([H])c([H])c3c(c2[H])C([H])([H])N(C(=O)C([H])(N([H])C(=O)C([H])(N([H])C([H])([H])[H])C([H])([H])[H])C(C([H])([H])[H])(C([H])([H])[H])C([H])([H])[H])C([H])(C(=O)N([H])C2([H])c4c([H])c([H])c([H])c([H])c4C([H])([H])C([H])([H])C2([H])[H])C3([H])[H])nc([H])c1C([H])(C([H])([H])[H])C([H])([H])N([H])C(=O)N1C([H])([H])C([H])([H])C([H])([H])C([H])(n2nc(-c3c([H])c([H])c(Oc4c([H])c([H])c(F)c([H])c4F)c([H])c3[H])c(C(=O)N([H])[H])c2N([H])[H])C1([H])[H]

$$$$
82:0:0
     RDKit          3D

 90 98  0  0  1  0  0  0  0  0999 V2000
  -29.9210  -20.1160   21.1140 C   0  0  0  0  0  3  0  0  0  0  0  0
  -30.0020  -19.0910   20.1790 C   0  0  0  0  0  0  0  0  0  0  0  0
  -29.4020  -19.6320   19.0300 N   0  0  0  0  0  0  0  0  0  0  0  0
  -28.9730  -20.8520   19.2320 N   0  0  0  0  0  0  0  0  0  0  0  0
  -29.2940  -21.2200   20.4960 N   0  0  0  0  0  0  0  0  0  0  0  0
  -31.8850  -17.8140   19.1520 C   0  0  0  0  0  1  0  0  0  0  0  0
  -30.7410  -17.6850   20.1940 C   0  0  0  0  0  3  0  0  0  0  0  0
  -29.0740  -16.4050   18.7650 C   0  0  0  0  0  1  0  0  0  0  0  0
  -28.8990  -16.3500   21.3060 C   0  0  0  0  0  1  0  0  0  0  0  0
  -29.8730  -16.2950   20.1010 C   0  0  2  0  0  0  0  0  0  0  0  0
  -30.6550  -14.8520   20.1310 C   0  0  0  0  0  0  0  0  0  0  0  0
  -30.4710  -12.5450   19.2060 C   0  0  0  0  0  2  0  0  0  0  0  0
  -29.5110  -12.5640   17.9970 C   0  0  0  0  0  2  0  0  0  0  0  0
  -28.0400  -12.4120   18.4380 C   0  0  0  0  0  2  0  0  0  0  0  0
  -27.6700  -13.3060   19.6510 C   0  0  0  0  0  3  0  0  0  0  0  0
  -28.7500  -13.2230   20.7450 C   0  0  0  0  0  2  0  0  0  0  0  0
  -30.0350  -13.6120   20.1390 N   0  0  0  0  0  0  0  0  0  0  0  0
  -31.8680  -14.8570   19.9190 O   0  0  0  0  0  0  0  0  0  0  0  0
  -25.2950  -13.9220   20.4030 C   0  0  0  0  0  0  0  0  0  0  0  0
  -24.2300  -13.1540   20.7890 C   0  0  0  0  0  0  0  0  0  0  0  0
  -24.6890  -11.8030   20.7560 C   0  0  0  0  0  0  0  0  0  0  0  0
  -26.3330  -13.0340   20.1600 N   0  0  0  0  0  0  0  0  0  0  0  0
  -25.9750  -11.7570   20.4350 N   0  0  0  0  0  0  0  0  0  0  0  0
  -23.9620  -10.5460   20.9560 C   0  0  0  0  0  0  0  0  0  0  0  0
  -24.3820   -9.5920   21.9080 C   0  0  0  0  0  3  0  0  0  0  0  0
  -23.6550   -8.3980   22.0900 C   0  0  0  0  0  3  0  0  0  0  0  0
  -22.4950   -8.1480   21.3220 C   0  0  0  0  0  0  0  0  0  0  0  0
  -22.0940   -9.0900   20.3570 C   0  0  0  0  0  3  0  0  0  0  0  0
  -22.8230  -10.2760   20.1720 C   0  0  0  0  0  3  0  0  0  0  0  0
  -21.7380   -7.0070   21.4150 O   0  0  0  0  0  0  0  0  0  0  0  0
  -21.6480   -6.2980   22.5870 C   0  0  0  0  0  0  0  0  0  0  0  0
  -21.1550   -6.8800   23.7740 C   0  0  0  0  0  3  0  0  0  0  0  0
  -21.0100   -6.0940   24.9350 C   0  0  0  0  0  3  0  0  0  0  0  0
  -21.3530   -4.7290   24.9090 C   0  0  0  0  0  0  0  0  0  0  0  0
  -21.8410   -4.1480   23.7270 C   0  0  0  0  0  3  0  0  0  0  0  0
  -21.9860   -4.9300   22.5660 C   0  0  0  0  0  0  0  0  0  0  0  0
  -22.4360   -4.3590   21.4240 F   0  0  0  0  0  0  0  0  0  0  0  0
  -21.2080   -3.9740   26.0230 F   0  0  0  0  0  0  0  0  0  0  0  0
  -22.8380  -13.6410   21.0670 C   0  0  0  0  0  0  0  0  0  0  0  0
  -22.1090  -12.9520   21.9360 N   0  0  0  0  0  0  0  0  0  0  0  0
  -22.4060  -14.6710   20.5490 O   0  0  0  0  0  0  0  0  0  0  0  0
  -22.4700  -12.1230   22.3820 H   0  0  0  0  0  0  0  0  0  0  0  0
  -21.1760  -13.2670   22.1630 H   0  0  0  0  0  0  0  0  0  0  0  0
  -25.4480  -15.2910   20.2170 N   0  0  0  0  0  0  0  0  0  0  0  0
  -24.6720  -15.9280   20.3460 H   0  0  0  0  0  0  0  0  0  0  0  0
  -26.2850  -15.7560   19.8920 H   0  0  0  0  0  0  0  0  0  0  0  0
  -28.7960  -22.5270   21.0710 C   0  0  0  0  0  2  0  0  0  0  0  0
  -29.0180  -23.9220   20.3170 C   0  0  0  0  0  3  0  0  0  0  0  0
  -28.1800  -25.1640   20.8720 C   0  0  0  0  0  3  0  0  0  0  0  0
  -28.4130  -26.5400   20.3610 O   0  0  0  0  0  0  0  0  0  0  0  0
  -24.5990  -31.9530   23.2380 C   0  0  0  0  0  0  0  0  0  0  0  0
  -27.2980  -27.3880   20.3000 C   0  0  0  0  0  0  0  0  0  0  0  0
  -23.4350  -30.5230   21.5970 C   0  0  0  0  0  3  0  0  0  0  0  0
  -24.9220  -28.9690   20.2120 C   0  0  0  0  0  0  0  0  0  0  0  0
  -25.9710  -30.8710   21.4410 C   0  0  0  0  0  2  0  0  0  0  0  0
  -26.0760  -29.4840   20.8200 C   0  0  0  0  0  0  0  0  0  0  0  0
  -27.2700  -28.7050   20.8540 C   0  0  0  0  0  3  0  0  0  0  0  0
  -26.1280  -26.9290   19.6610 C   0  0  0  0  0  3  0  0  0  0  0  0
  -24.9490  -27.6960   19.6230 C   0  0  0  0  0  3  0  0  0  0  0  0
  -23.6780  -29.8330   20.2280 C   0  0  0  0  0  2  0  0  0  0  0  0
  -24.6880  -31.1320   22.1500 N   0  0  0  0  0  0  0  0  0  0  0  0
  -23.5040  -32.2260   23.7510 O   0  0  0  0  0  0  0  0  0  0  0  0
  -22.7670  -29.5090   22.5580 C   0  0  0  0  0  0  0  0  0  0  0  0
  -21.4410  -29.3350   22.4260 N   0  0  0  0  0  0  0  0  0  0  0  0
  -23.4410  -28.8840   23.3800 O   0  0  0  0  0  0  0  0  0  0  0  0
  -20.9590  -29.8970   21.7390 H   0  0  0  0  0  0  0  0  0  0  0  0
  -18.0520  -28.1840   22.9410 C   0  0  0  0  0  0  0  0  0  0  0  0
  -20.6150  -28.4020   23.1940 C   0  0  0  0  0  3  0  0  0  0  0  0
  -20.6910  -26.9730   22.6060 C   0  0  0  0  0  2  0  0  0  0  0  0
  -19.5760  -26.6770   21.5990 C   0  0  0  0  0  2  0  0  0  0  0  0
  -18.2010  -26.8370   22.2550 C   0  0  0  0  0  2  0  0  0  0  0  0
  -19.1850  -28.9260   23.3680 C   0  0  0  0  0  0  0  0  0  0  0  0
  -18.9900  -30.1890   23.9700 C   0  0  0  0  0  3  0  0  0  0  0  0
  -17.6940  -30.7060   24.1500 C   0  0  0  0  0  3  0  0  0  0  0  0
  -16.5760  -29.9620   23.7390 C   0  0  0  0  0  3  0  0  0  0  0  0
  -16.7560  -28.7020   23.1390 C   0  0  0  0  0  3  0  0  0  0  0  0
  -25.8660  -32.6040   23.8770 C   0  0  0  0  0  3  0  0  0  0  0  0
  -25.5370  -34.0020   24.1850 N   0  0  0  0  0  0  0  0  0  0  0  0
  -25.8830  -35.0500   23.4260 C   0  0  0  0  0  0  0  0  0  0  0  0
  -26.5780  -34.9430   22.4120 O   0  0  0  0  0  0  0  0  0  0  0  0
  -24.9190  -34.1610   24.9680 H   0  0  0  0  0  0  0  0  0  0  0  0
  -24.1600  -36.8360   23.0060 C   0  0  0  0  0  1  0  0  0  0  0  0
  -25.3760  -36.4390   23.8590 C   0  0  0  0  0  3  0  0  0  0  0  0
  -27.4800  -37.3370   24.7530 C   0  0  0  0  0  1  0  0  0  0  0  0
  -26.4060  -37.4970   23.7750 N   0  0  0  0  0  0  0  0  0  0  0  0
  -25.9910  -38.4150   23.9070 H   0  0  0  0  0  0  0  0  0  0  0  0
  -26.3640  -31.8510   25.1710 C   0  0  1  0  0  0  0  0  0  0  0  0
  -25.2550  -31.6130   26.2220 C   0  0  0  0  0  1  0  0  0  0  0  0
  -26.9690  -30.4770   24.8000 C   0  0  0  0  0  1  0  0  0  0  0  0
  -27.4920  -32.6660   25.8480 C   0  0  0  0  0  1  0  0  0  0  0  0
  2  7  1  0
  2  1  2  0
  3  4  2  0
  3  2  1  0
  4  5  1  0
  5 47  1  0
  5  1  1  0
  7  6  1  0
 10  8  1  6
 10 11  1  0
 10  7  1  0
 10  9  1  0
 11 17  1  0
 12 17  1  0
 13 14  1  0
 13 12  1  0
 15 14  1  0
 15 22  1  0
 15 16  1  0
 17 16  1  0
 18 11  2  0
 19 20  2  0
 20 39  1  0
 21 20  1  0
 21 24  1  0
 22 19  1  0
 22 23  1  0
 23 21  2  0
 24 25  1  0
 25 26  2  0
 27 30  1  0
 27 26  1  0
 28 27  2  0
 29 28  1  0
 29 24  2  0
 30 31  1  0
 31 32  1  0
 32 33  2  0
 34 33  1  0
 34 38  1  0
 35 34  2  0
 36 31  2  0
 36 35  1  0
 37 36  1  0
 39 40  1  0
 40 43  1  0
 40 42  1  0
 41 39  2  0
 44 45  1  0
 44 19  1  0
 46 44  1  0
 48 49  2  0
 48 47  1  0
 50 49  1  0
 51 62  2  0
 52 50  1  0
 52 57  1  0
 53 61  1  0
 53 63  1  0
 54 60  1  0
 54 56  1  0
 55 61  1  0
 56 57  2  0
 56 55  1  0
 58 52  2  0
 59 58  1  0
 59 54  2  0
 60 53  1  0
 61 51  1  0
 63 65  2  0
 64 63  1  0
 66 64  1  0
 67 76  2  0
 67 72  1  0
 68 64  1  0
 68 72  1  0
 69 68  1  0
 70 71  1  0
 70 69  1  0
 71 67  1  0
 72 73  2  0
 73 74  1  0
 75 74  2  0
 76 75  1  0
 77 51  1  0
 77 78  1  0
 77 87  1  0
 78 81  1  0
 79 83  1  0
 79 78  1  0
 80 79  2  0
 83 82  1  0
 85 83  1  0
 85 86  1  0
 85 84  1  0
 87 90  1  1
 87 88  1  0
 89 87  1  0
M  ISO  4  10 100  11 100  49 101  50 101
M  END
>  <TORSDO>  (82) 
F 21

>  <SCORE>  (82) 
-13.171

>  <name>  (82) 
82

>  <ligand_id>  (82) 
82

>  <original_smiles>  (82) 
[H]c1c([H])c([H])c2c(c1[H])C([H])([H])C([H])([H])C([H])([H])C2([H])N([H])C(=O)C1([H])N(C(=O)C([H])(N([H])C(=O)C([H])(N([H])C([H])([H])[H])C([H])([H])[H])C(C([H])([H])[H])(C([H])([H])[H])C([H])([H])[H])C([H])([H])c2c([H])c(OC([H])([H])C([H])([H])C([H])([H])n3nnc(C([H])(C([H])([H])[H])C(C(=O)N4C([H])([H])C([H])([H])C([H])([H])C([H])(n5nc(-c6c([H])c([H])c(Oc7c([H])c([H])c(F)c([H])c7F)c([H])c6[H])c(C(=O)N([H])[H])c5N([H])[H])C4([H])[H])(C([H])([H])[H])C([H])([H])[H])c3[H])c([H])c([H])c2C1([H])[H]

>  <smiles>  (82) 
[H]c1c([H])c([H])c2c(c1[H])C([H])([H])C([H])([H])C([H])([H])C2([H])N([H])C(=O)C1([H])N(C(=O)C([H])(N([H])C(=O)C([H])(N([H])C([H])([H])[H])C([H])([H])[H])C(C([H])([H])[H])(C([H])([H])[H])C([H])([H])[H])C([H])([H])c2c([H])c(OC([H])([H])C([H])([H])C([H])([H])n3nnc(C([H])(C([H])([H])[H])C(C(=O)N4C([H])([H])C([H])([H])C([H])([H])C([H])(n5nc(-c6c([H])c([H])c(Oc7c([H])c([H])c(F)c([H])c7F)c([H])c6[H])c(C(=O)N([H])[H])c5N([H])[H])C4([H])[H])(C([H])([H])[H])C([H])([H])[H])c3[H])c([H])c([H])c2C1([H])[H]

$$$$
83:0:0
     RDKit          3D

 92100  0  0  1  0  0  0  0  0999 V2000
  -27.6600  -20.1380   19.0480 C   0  0  0  0  0  1  0  0  0  0  0  0
  -28.4780  -20.8800   21.3060 C   0  0  0  0  0  1  0  0  0  0  0  0
  -28.9100  -20.2860   19.9380 C   0  0  1  0  0  0  0  0  0  0  0  0
  -29.4930  -18.8400   20.2070 C   0  0  0  0  0  0  0  0  0  0  0  0
  -29.4250  -16.8570   20.9400 C   0  0  0  0  0  3  0  0  0  0  0  0
  -29.0590  -15.7280   21.8510 C   0  0  0  0  0  1  0  0  0  0  0  0
  -28.7070  -17.9680   20.9090 N   0  0  0  0  0  0  0  0  0  0  0  0
  -30.5790  -18.2180   19.6700 N   0  0  0  0  0  2  0  0  0  0  0  0
  -30.5370  -16.9110   20.1890 N   0  0  0  0  0  0  0  0  0  0  0  0
  -33.0030  -16.6680   20.3870 C   0  0  0  0  0  1  0  0  0  0  0  0
  -31.6720  -15.9070   20.2140 C   0  0  0  0  0  3  0  0  0  0  0  0
  -31.8110  -14.7160   19.1750 C   0  0  0  0  0  0  0  0  0  0  0  0
  -31.2390  -12.4500   18.2780 C   0  0  0  0  0  2  0  0  0  0  0  0
  -30.1610  -12.5390   17.1780 C   0  0  0  0  0  2  0  0  0  0  0  0
  -28.7510  -12.5270   17.8000 C   0  0  0  0  0  2  0  0  0  0  0  0
  -28.6170  -13.5380   18.9680 C   0  0  0  0  0  3  0  0  0  0  0  0
  -29.7870  -13.3970   19.9630 C   0  0  0  0  0  2  0  0  0  0  0  0
  -31.0400  -13.5800   19.2170 N   0  0  0  0  0  0  0  0  0  0  0  0
  -32.7590  -14.7720   18.3810 O   0  0  0  0  0  0  0  0  0  0  0  0
  -26.4980  -14.4360   20.1110 C   0  0  0  0  0  0  0  0  0  0  0  0
  -25.3790  -13.8050   20.5900 C   0  0  0  0  0  0  0  0  0  0  0  0
  -25.5910  -12.4090   20.3790 C   0  0  0  0  0  0  0  0  0  0  0  0
  -27.3240  -13.4290   19.6390 N   0  0  0  0  0  0  0  0  0  0  0  0
  -26.7920  -12.1980   19.8560 N   0  0  0  0  0  0  0  0  0  0  0  0
  -24.6950  -11.2650   20.5910 C   0  0  0  0  0  0  0  0  0  0  0  0
  -25.0400  -10.2080   21.4620 C   0  0  0  0  0  3  0  0  0  0  0  0
  -24.1540   -9.1280   21.6620 C   0  0  0  0  0  3  0  0  0  0  0  0
  -22.9080   -9.0960   20.9900 C   0  0  0  0  0  0  0  0  0  0  0  0
  -22.5800  -10.1390   20.1040 C   0  0  0  0  0  3  0  0  0  0  0  0
  -23.4660  -11.2110   19.9020 C   0  0  0  0  0  3  0  0  0  0  0  0
  -21.9940   -8.0780   21.1020 O   0  0  0  0  0  0  0  0  0  0  0  0
  -21.8600   -7.3570   22.2620 C   0  0  0  0  0  0  0  0  0  0  0  0
  -21.5400   -7.9730   23.4910 C   0  0  0  0  0  3  0  0  0  0  0  0
  -21.3440   -7.1870   24.6440 C   0  0  0  0  0  3  0  0  0  0  0  0
  -21.4580   -5.7860   24.5690 C   0  0  0  0  0  0  0  0  0  0  0  0
  -21.7700   -5.1690   23.3440 C   0  0  0  0  0  3  0  0  0  0  0  0
  -21.9690   -5.9530   22.1940 C   0  0  0  0  0  0  0  0  0  0  0  0
  -22.2500   -5.3510   21.0130 F   0  0  0  0  0  0  0  0  0  0  0  0
  -21.2620   -5.0290   25.6740 F   0  0  0  0  0  0  0  0  0  0  0  0
  -24.1410  -14.4670   21.1250 C   0  0  0  0  0  0  0  0  0  0  0  0
  -23.4720  -13.8220   22.0760 N   0  0  0  0  0  0  0  0  0  0  0  0
  -23.7870  -15.5780   20.7370 O   0  0  0  0  0  0  0  0  0  0  0  0
  -23.7750  -12.9160   22.3990 H   0  0  0  0  0  0  0  0  0  0  0  0
  -22.6410  -14.2310   22.4790 H   0  0  0  0  0  0  0  0  0  0  0  0
  -26.8740  -15.7720   20.0270 N   0  0  0  0  0  0  0  0  0  0  0  0
  -26.2750  -16.5280   20.3450 H   0  0  0  0  0  0  0  0  0  0  0  0
  -27.7510  -16.1000   19.6410 H   0  0  0  0  0  0  0  0  0  0  0  0
  -29.8480  -21.3980   19.2910 C   0  0  0  0  0  2  0  0  0  0  0  0
  -29.7320  -22.9800   19.6020 C   0  0  0  0  0  2  0  0  0  0  0  0
  -28.4260  -23.8750   19.4150 C   0  0  0  0  0  2  0  0  0  0  0  0
  -28.5510  -25.3440   18.8050 C   0  0  0  0  0  2  0  0  0  0  0  0
  -28.4270  -26.5690   19.6110 O   0  0  0  0  0  0  0  0  0  0  0  0
  -24.7050  -31.6360   23.0870 C   0  0  0  0  0  0  0  0  0  0  0  0
  -27.2750  -27.3670   19.6210 C   0  0  0  0  0  0  0  0  0  0  0  0
  -23.4760  -30.3840   21.3480 C   0  0  0  0  0  3  0  0  0  0  0  0
  -24.9040  -28.9560   19.7790 C   0  0  0  0  0  0  0  0  0  0  0  0
  -26.0110  -30.7200   21.1570 C   0  0  0  0  0  2  0  0  0  0  0  0
  -26.0780  -29.3990   20.4000 C   0  0  0  0  0  0  0  0  0  0  0  0
  -27.2610  -28.6120   20.3170 C   0  0  0  0  0  3  0  0  0  0  0  0
  -26.0750  -26.9600   18.9980 C   0  0  0  0  0  3  0  0  0  0  0  0
  -24.9030  -27.7400   19.0730 C   0  0  0  0  0  3  0  0  0  0  0  0
  -23.6690  -29.8240   19.9140 C   0  0  0  0  0  2  0  0  0  0  0  0
  -24.7510  -30.9250   21.9230 N   0  0  0  0  0  0  0  0  0  0  0  0
  -23.6290  -31.8680   23.6560 O   0  0  0  0  0  0  0  0  0  0  0  0
  -22.8210  -29.2930   22.2270 C   0  0  0  0  0  0  0  0  0  0  0  0
  -21.4870  -29.1610   22.1380 N   0  0  0  0  0  0  0  0  0  0  0  0
  -23.5120  -28.5730   22.9510 O   0  0  0  0  0  0  0  0  0  0  0  0
  -20.9820  -29.8070   21.5470 H   0  0  0  0  0  0  0  0  0  0  0  0
  -18.1040  -28.0020   22.6480 C   0  0  0  0  0  0  0  0  0  0  0  0
  -20.6750  -28.1660   22.8400 C   0  0  0  0  0  3  0  0  0  0  0  0
  -20.7120  -26.7970   22.1200 C   0  0  0  0  0  2  0  0  0  0  0  0
  -19.5640  -26.6090   21.1240 C   0  0  0  0  0  2  0  0  0  0  0  0
  -18.2130  -26.7230   21.8350 C   0  0  0  0  0  2  0  0  0  0  0  0
  -19.2600  -28.6860   23.1080 C   0  0  0  0  0  0  0  0  0  0  0  0
  -19.1030  -29.8880   23.8320 C   0  0  0  0  0  3  0  0  0  0  0  0
  -17.8200  -30.4040   24.0990 C   0  0  0  0  0  3  0  0  0  0  0  0
  -16.6790  -29.7140   23.6570 C   0  0  0  0  0  3  0  0  0  0  0  0
  -16.8220  -28.5120   22.9400 C   0  0  0  0  0  3  0  0  0  0  0  0
  -25.9980  -32.2140   23.7430 C   0  0  0  0  0  3  0  0  0  0  0  0
  -25.6920  -33.5750   24.2060 N   0  0  0  0  0  0  0  0  0  0  0  0
  -26.0260  -34.6960   23.5530 C   0  0  0  0  0  0  0  0  0  0  0  0
  -26.6960  -34.6890   22.5150 O   0  0  0  0  0  0  0  0  0  0  0  0
  -25.0920  -33.6520   25.0160 H   0  0  0  0  0  0  0  0  0  0  0  0
  -24.2990  -36.5170   23.3820 C   0  0  0  0  0  1  0  0  0  0  0  0
  -25.5460  -36.0360   24.1420 C   0  0  0  0  0  3  0  0  0  0  0  0
  -27.6860  -36.8390   25.0390 C   0  0  0  0  0  1  0  0  0  0  0  0
  -26.5800  -37.0950   24.1210 N   0  0  0  0  0  0  0  0  0  0  0  0
  -26.1750  -37.9970   24.3570 H   0  0  0  0  0  0  0  0  0  0  0  0
  -26.5380  -31.3310   24.9340 C   0  0  1  0  0  0  0  0  0  0  0  0
  -25.4720  -31.0040   26.0060 C   0  0  0  0  0  1  0  0  0  0  0  0
  -27.1020  -29.9900   24.4090 C   0  0  0  0  0  1  0  0  0  0  0  0
  -27.7090  -32.0570   25.6370 C   0  0  0  0  0  1  0  0  0  0  0  0
  3  1  1  6
  3  4  1  0
  3  2  1  0
  4  7  2  0
  5  6  1  0
  7  5  1  0
  8  9  1  0
  8  4  1  0
  9 11  1  0
  9  5  1  0
 11 10  1  0
 12 18  1  0
 12 11  1  0
 13 18  1  0
 14 15  1  0
 14 13  1  0
 16 15  1  0
 16 23  1  0
 16 17  1  0
 18 17  1  0
 19 12  2  0
 20 21  2  0
 21 40  1  0
 22 21  1  0
 22 25  1  0
 23 24  1  0
 23 20  1  0
 24 22  2  0
 25 26  1  0
 26 27  2  0
 28 31  1  0
 28 27  1  0
 29 28  2  0
 30 29  1  0
 30 25  2  0
 31 32  1  0
 32 33  1  0
 33 34  2  0
 35 34  1  0
 35 39  1  0
 36 35  2  0
 37 32  2  0
 37 36  1  0
 38 37  1  0
 40 41  1  0
 41 43  1  0
 41 44  1  0
 42 40  2  0
 45 20  1  0
 45 46  1  0
 47 45  1  0
 48 49  1  0
 48  3  1  0
 50 49  1  0
 51 50  1  0
 51 52  1  0
 52 54  1  0
 53 64  2  0
 54 59  1  0
 55 63  1  0
 55 65  1  0
 56 62  1  0
 56 58  1  0
 57 63  1  0
 58 57  1  0
 59 58  2  0
 60 61  1  0
 60 54  2  0
 61 56  2  0
 62 55  1  0
 63 53  1  0
 65 67  2  0
 66 65  1  0
 68 66  1  0
 69 78  2  0
 69 74  1  0
 70 66  1  0
 70 74  1  0
 71 70  1  0
 72 73  1  0
 72 71  1  0
 73 69  1  0
 74 75  2  0
 75 76  1  0
 77 76  2  0
 78 77  1  0
 79 53  1  0
 79 80  1  0
 79 89  1  0
 80 83  1  0
 81 85  1  0
 81 80  1  0
 82 81  2  0
 85 84  1  0
 87 85  1  0
 87 88  1  0
 87 86  1  0
 89 92  1  1
 89 90  1  0
 91 89  1  0
M  ISO  4  11 100  12 100  51 101  52 101
M  END
>  <TORSDO>  (83) 
F 22

>  <SCORE>  (83) 
-9.313

>  <name>  (83) 
83

>  <ligand_id>  (83) 
83

>  <original_smiles>  (83) 
[H]c1c([H])c([H])c2c(c1[H])C([H])([H])C([H])([H])C([H])([H])C2([H])N([H])C(=O)C1([H])N(C(=O)C([H])(N([H])C(=O)C([H])(N([H])C([H])([H])[H])C([H])([H])[H])C(C([H])([H])[H])(C([H])([H])[H])C([H])([H])[H])C([H])([H])c2c([H])c(OC([H])([H])C([H])([H])C([H])([H])C([H])([H])C(c3nc(C([H])([H])[H])n(C([H])(C(=O)N4C([H])([H])C([H])([H])C([H])([H])C([H])(n5nc(-c6c([H])c([H])c(Oc7c([H])c([H])c(F)c([H])c7F)c([H])c6[H])c(C(=O)N([H])[H])c5N([H])[H])C4([H])[H])C([H])([H])[H])n3)(C([H])([H])[H])C([H])([H])[H])c([H])c([H])c2C1([H])[H]

>  <smiles>  (83) 
[H]c1c([H])c([H])c2c(c1[H])C([H])([H])C([H])([H])C([H])([H])C2([H])N([H])C(=O)C1([H])N(C(=O)C([H])(N([H])C(=O)C([H])(N([H])C([H])([H])[H])C([H])([H])[H])C(C([H])([H])[H])(C([H])([H])[H])C([H])([H])[H])C([H])([H])c2c([H])c(OC([H])([H])C([H])([H])C([H])([H])C([H])([H])C(c3nc(C([H])([H])[H])n(C([H])(C(=O)N4C([H])([H])C([H])([H])C([H])([H])C([H])(n5nc(-c6c([H])c([H])c(Oc7c([H])c([H])c(F)c([H])c7F)c([H])c6[H])c(C(=O)N([H])[H])c5N([H])[H])C4([H])[H])C([H])([H])[H])n3)(C([H])([H])[H])C([H])([H])[H])c([H])c([H])c2C1([H])[H]

$$$$
84:0:0
     RDKit          3D

 91 99  0  0  1  0  0  0  0  0999 V2000
  -29.8370  -22.6910   20.3390 C   0  0  0  0  0  3  0  0  0  0  0  0
  -30.2140  -24.4730   18.4410 C   0  0  0  0  0  1  0  0  0  0  0  0
  -30.8780  -25.0110   20.7890 C   0  0  0  0  0  1  0  0  0  0  0  0
  -29.8180  -24.2820   19.9270 C   0  0  2  0  0  0  0  0  0  0  0  0
  -28.4420  -25.0880   20.1780 C   0  0  0  0  0  2  0  0  0  0  0  0
  -28.4680  -26.5790   20.1420 O   0  0  0  0  0  0  0  0  0  0  0  0
  -24.6030  -31.8940   23.2360 C   0  0  0  0  0  0  0  0  0  0  0  0
  -27.2860  -27.3460   20.1740 C   0  0  0  0  0  0  0  0  0  0  0  0
  -23.4110  -30.4810   21.6000 C   0  0  0  0  0  3  0  0  0  0  0  0
  -24.8760  -28.9130   20.2000 C   0  0  0  0  0  0  0  0  0  0  0  0
  -25.9490  -30.8120   21.4190 C   0  0  0  0  0  2  0  0  0  0  0  0
  -26.0410  -29.4270   20.7820 C   0  0  0  0  0  0  0  0  0  0  0  0
  -27.2430  -28.6550   20.7530 C   0  0  0  0  0  3  0  0  0  0  0  0
  -26.0860  -26.8790   19.5850 C   0  0  0  0  0  3  0  0  0  0  0  0
  -24.8980  -27.6430   19.6030 C   0  0  0  0  0  3  0  0  0  0  0  0
  -23.6340  -29.7840   20.2310 C   0  0  0  0  0  2  0  0  0  0  0  0
  -24.6740  -31.0810   22.1420 N   0  0  0  0  0  0  0  0  0  0  0  0
  -23.5170  -32.1700   23.7680 O   0  0  0  0  0  0  0  0  0  0  0  0
  -22.7420  -29.4760   22.5660 C   0  0  0  0  0  0  0  0  0  0  0  0
  -21.4140  -29.3050   22.4420 N   0  0  0  0  0  0  0  0  0  0  0  0
  -23.4200  -28.8470   23.3820 O   0  0  0  0  0  0  0  0  0  0  0  0
  -20.9290  -29.8670   21.7580 H   0  0  0  0  0  0  0  0  0  0  0  0
  -18.0330  -28.1270   22.9510 C   0  0  0  0  0  0  0  0  0  0  0  0
  -20.5920  -28.3690   23.2120 C   0  0  0  0  0  3  0  0  0  0  0  0
  -20.6830  -26.9390   22.6320 C   0  0  0  0  0  2  0  0  0  0  0  0
  -19.5760  -26.6260   21.6210 C   0  0  0  0  0  2  0  0  0  0  0  0
  -18.1990  -26.7780   22.2720 C   0  0  0  0  0  2  0  0  0  0  0  0
  -19.1570  -28.8820   23.3780 C   0  0  0  0  0  0  0  0  0  0  0  0
  -18.9490  -30.1450   23.9730 C   0  0  0  0  0  3  0  0  0  0  0  0
  -17.6460  -30.6520   24.1430 C   0  0  0  0  0  3  0  0  0  0  0  0
  -16.5350  -29.8950   23.7320 C   0  0  0  0  0  3  0  0  0  0  0  0
  -16.7310  -28.6330   23.1430 C   0  0  0  0  0  3  0  0  0  0  0  0
  -25.8810  -32.5320   23.8630 C   0  0  0  0  0  3  0  0  0  0  0  0
  -25.5680  -33.9300   24.1890 N   0  0  0  0  0  0  0  0  0  0  0  0
  -25.9090  -34.9800   23.4320 C   0  0  0  0  0  0  0  0  0  0  0  0
  -26.5880  -34.8720   22.4060 O   0  0  0  0  0  0  0  0  0  0  0  0
  -24.9610  -34.0860   24.9810 H   0  0  0  0  0  0  0  0  0  0  0  0
  -24.1870  -36.7790   23.0610 C   0  0  0  0  0  1  0  0  0  0  0  0
  -25.4230  -36.3730   23.8820 C   0  0  0  0  0  3  0  0  0  0  0  0
  -27.5550  -37.2550   24.7240 C   0  0  0  0  0  1  0  0  0  0  0  0
  -26.4590  -37.4220   23.7720 N   0  0  0  0  0  0  0  0  0  0  0  0
  -26.0540  -38.3440   23.9090 H   0  0  0  0  0  0  0  0  0  0  0  0
  -26.3910  -31.7640   25.1430 C   0  0  1  0  0  0  0  0  0  0  0  0
  -25.2950  -31.5280   26.2090 C   0  0  0  0  0  1  0  0  0  0  0  0
  -26.9730  -30.3850   24.7580 C   0  0  0  0  0  1  0  0  0  0  0  0
  -27.5440  -32.5580   25.8040 C   0  0  0  0  0  1  0  0  0  0  0  0
  -30.3600  -21.5230   19.3500 C   0  0  0  0  0  3  0  0  0  0  0  0
  -29.6370  -18.9180   19.5680 C   0  0  0  0  0  3  0  0  0  0  0  0
  -30.4730  -20.0000   19.7890 C   0  0  0  0  0  0  0  0  0  0  0  0
  -31.6120  -19.4130   20.3740 N   0  0  0  0  0  0  0  0  0  0  0  0
  -31.4890  -18.0990   20.4990 N   0  0  0  0  0  0  0  0  0  0  0  0
  -30.2980  -17.7170   19.9590 N   0  0  0  0  0  0  0  0  0  0  0  0
  -28.9910  -16.2580   18.5830 C   0  0  0  0  0  1  0  0  0  0  0  0
  -28.7200  -16.3290   21.1520 C   0  0  0  0  0  1  0  0  0  0  0  0
  -29.7120  -16.2840   19.9650 C   0  0  2  0  0  0  0  0  0  0  0  0
  -30.5860  -14.8850   20.0350 C   0  0  0  0  0  0  0  0  0  0  0  0
  -30.4130  -12.5540   19.1310 C   0  0  0  0  0  2  0  0  0  0  0  0
  -29.4150  -12.5230   17.9440 C   0  0  0  0  0  2  0  0  0  0  0  0
  -27.9560  -12.3620   18.4270 C   0  0  0  0  0  2  0  0  0  0  0  0
  -27.6020  -13.2620   19.6400 C   0  0  0  0  0  3  0  0  0  0  0  0
  -28.7280  -13.2050   20.7020 C   0  0  0  0  0  2  0  0  0  0  0  0
  -29.9950  -13.6230   20.0660 N   0  0  0  0  0  0  0  0  0  0  0  0
  -31.7920  -14.9420   19.7750 O   0  0  0  0  0  0  0  0  0  0  0  0
  -25.2430  -13.8720   20.4430 C   0  0  0  0  0  0  0  0  0  0  0  0
  -24.1880  -13.0980   20.8460 C   0  0  0  0  0  0  0  0  0  0  0  0
  -24.6520  -11.7510   20.8000 C   0  0  0  0  0  0  0  0  0  0  0  0
  -26.2810  -12.9850   20.1850 N   0  0  0  0  0  0  0  0  0  0  0  0
  -25.9340  -11.7060   20.4610 N   0  0  0  0  0  0  0  0  0  0  0  0
  -23.9310  -10.4880   21.0000 C   0  0  0  0  0  0  0  0  0  0  0  0
  -24.3970   -9.5190   21.9140 C   0  0  0  0  0  3  0  0  0  0  0  0
  -23.6770   -8.3210   22.1120 C   0  0  0  0  0  3  0  0  0  0  0  0
  -22.4840   -8.0870   21.3890 C   0  0  0  0  0  0  0  0  0  0  0  0
  -22.0390   -9.0440   20.4610 C   0  0  0  0  0  3  0  0  0  0  0  0
  -22.7580  -10.2340   20.2630 C   0  0  0  0  0  3  0  0  0  0  0  0
  -21.7380   -6.9400   21.4940 O   0  0  0  0  0  0  0  0  0  0  0  0
  -21.7230   -6.1920   22.6440 C   0  0  0  0  0  0  0  0  0  0  0  0
  -21.3460   -6.7430   23.8890 C   0  0  0  0  0  3  0  0  0  0  0  0
  -21.2820   -5.9230   25.0300 C   0  0  0  0  0  3  0  0  0  0  0  0
  -21.5800   -4.5510   24.9310 C   0  0  0  0  0  0  0  0  0  0  0  0
  -21.9500   -3.9980   23.6910 C   0  0  0  0  0  3  0  0  0  0  0  0
  -22.0170   -4.8180   22.5510 C   0  0  0  0  0  0  0  0  0  0  0  0
  -22.3530   -4.2760   21.3550 F   0  0  0  0  0  0  0  0  0  0  0  0
  -21.5140   -3.7590   26.0270 F   0  0  0  0  0  0  0  0  0  0  0  0
  -22.8000  -13.5770   21.1560 C   0  0  0  0  0  0  0  0  0  0  0  0
  -22.1000  -12.8770   22.0430 N   0  0  0  0  0  0  0  0  0  0  0  0
  -22.3430  -14.6010   20.6510 O   0  0  0  0  0  0  0  0  0  0  0  0
  -22.4780  -12.0440   22.4690 H   0  0  0  0  0  0  0  0  0  0  0  0
  -21.1690  -13.1790   22.2970 H   0  0  0  0  0  0  0  0  0  0  0  0
  -25.3810  -15.2420   20.2490 N   0  0  0  0  0  0  0  0  0  0  0  0
  -24.6100  -15.8830   20.4000 H   0  0  0  0  0  0  0  0  0  0  0  0
  -26.2150  -15.6980   19.9050 H   0  0  0  0  0  0  0  0  0  0  0  0
  4  2  1  6
  4  5  1  0
  4  1  1  0
  4  3  1  0
  6  8  1  0
  6  5  1  0
  7 18  2  0
  8 13  1  0
  9 17  1  0
  9 19  1  0
 10 16  1  0
 10 12  1  0
 11 17  1  0
 12 11  1  0
 13 12  2  0
 14 15  1  0
 14  8  2  0
 15 10  2  0
 16  9  1  0
 17  7  1  0
 19 21  2  0
 20 19  1  0
 22 20  1  0
 23 32  2  0
 23 28  1  0
 24 20  1  0
 24 28  1  0
 25 24  1  0
 26 27  1  0
 26 25  1  0
 27 23  1  0
 28 29  2  0
 29 30  1  0
 31 30  2  0
 32 31  1  0
 33  7  1  0
 33 34  1  0
 33 43  1  0
 34 37  1  0
 35 39  1  0
 35 34  1  0
 36 35  2  0
 39 38  1  0
 41 39  1  0
 41 42  1  0
 41 40  1  0
 43 46  1  1
 43 44  1  0
 45 43  1  0
 47 49  1  0
 47  1  2  0
 48 49  2  0
 48 52  1  0
 49 50  1  0
 50 51  2  0
 52 55  1  0
 52 51  1  0
 55 53  1  6
 55 56  1  0
 55 54  1  0
 56 62  1  0
 57 62  1  0
 58 59  1  0
 58 57  1  0
 60 59  1  0
 60 67  1  0
 60 61  1  0
 62 61  1  0
 63 56  2  0
 64 65  2  0
 65 84  1  0
 66 65  1  0
 66 69  1  0
 67 64  1  0
 67 68  1  0
 68 66  2  0
 69 70  1  0
 70 71  2  0
 72 75  1  0
 72 71  1  0
 73 72  2  0
 74 73  1  0
 74 69  2  0
 75 76  1  0
 76 77  1  0
 77 78  2  0
 79 78  1  0
 79 83  1  0
 80 79  2  0
 81 76  2  0
 81 80  1  0
 82 81  1  0
 84 85  1  0
 85 88  1  0
 85 87  1  0
 86 84  2  0
 89 90  1  0
 89 64  1  0
 91 89  1  0
M  ISO  4   5 101   6 101  55 100  56 100
M  END
>  <TORSDO>  (84) 
F 21

>  <SCORE>  (84) 
-13.000

>  <name>  (84) 
84

>  <ligand_id>  (84) 
84

>  <original_smiles>  (84) 
[H]c1c([H])c([H])c2c(c1[H])C([H])([H])C([H])([H])C([H])([H])C2([H])N([H])C(=O)C1([H])N(C(=O)C([H])(N([H])C(=O)C([H])(N([H])C([H])([H])[H])C([H])([H])[H])C(C([H])([H])[H])(C([H])([H])[H])C([H])([H])[H])C([H])([H])c2c([H])c(OC([H])([H])C(C([H])([H])[H])(C([H])([H])[H])C([H])([H])C([H])([H])c3nnn(C(C(=O)N4C([H])([H])C([H])([H])C([H])([H])C([H])(n5nc(-c6c([H])c([H])c(Oc7c([H])c([H])c(F)c([H])c7F)c([H])c6[H])c(C(=O)N([H])[H])c5N([H])[H])C4([H])[H])(C([H])([H])[H])C([H])([H])[H])c3[H])c([H])c([H])c2C1([H])[H]

>  <smiles>  (84) 
[H]c1c([H])c([H])c2c(c1[H])C([H])([H])C([H])([H])C([H])([H])C2([H])N([H])C(=O)C1([H])N(C(=O)C([H])(N([H])C(=O)C([H])(N([H])C([H])([H])[H])C([H])([H])[H])C(C([H])([H])[H])(C([H])([H])[H])C([H])([H])[H])C([H])([H])c2c([H])c(OC([H])([H])C(C([H])([H])[H])(C([H])([H])[H])C([H])([H])C([H])([H])c3nnn(C(C(=O)N4C([H])([H])C([H])([H])C([H])([H])C([H])(n5nc(-c6c([H])c([H])c(Oc7c([H])c([H])c(F)c([H])c7F)c([H])c6[H])c(C(=O)N([H])[H])c5N([H])[H])C4([H])[H])(C([H])([H])[H])C([H])([H])[H])c3[H])c([H])c([H])c2C1([H])[H]

$$$$
85:0:0
     RDKit          3D

 87 95  0  0  1  0  0  0  0  0999 V2000
  -28.9640  -21.2430   19.0290 C   0  0  0  0  0  3  0  0  0  0  0  0
  -29.5480  -20.1120   21.3040 C   0  0  0  0  0  3  0  0  0  0  0  0
  -28.8510  -22.2860   20.0940 C   0  0  0  0  0  0  0  0  0  0  0  0
  -29.6700  -19.0640   20.2440 C   0  0  0  0  0  0  0  0  0  0  0  0
  -29.1780  -21.5250   21.2460 N   0  0  0  0  0  0  0  0  0  0  0  0
  -29.3150  -19.8200   19.0910 N   0  0  0  0  0  0  0  0  0  0  0  0
  -30.1040  -17.1210   21.9940 C   0  0  0  0  0  1  0  0  0  0  0  0
  -28.2200  -16.9370   20.4310 C   0  0  0  0  0  1  0  0  0  0  0  0
  -29.7200  -17.2270   20.4980 C   0  0  1  0  0  0  0  0  0  0  0  0
  -30.5140  -15.6350   19.9260 C   0  0  0  0  0  0  0  0  0  0  0  0
  -30.5360  -13.1560   18.9270 C   0  0  0  0  0  2  0  0  0  0  0  0
  -29.5240  -12.8920   17.7720 C   0  0  0  0  0  2  0  0  0  0  0  0
  -28.1280  -12.5370   18.3150 C   0  0  0  0  0  2  0  0  0  0  0  0
  -27.7410  -13.4560   19.4940 C   0  0  0  0  0  3  0  0  0  0  0  0
  -28.8800  -13.5950   20.5370 C   0  0  0  0  0  2  0  0  0  0  0  0
  -30.0200  -14.2600   19.8520 N   0  0  0  0  0  0  0  0  0  0  0  0
  -31.6940  -15.6260   19.5270 O   0  0  0  0  0  0  0  0  0  0  0  0
  -25.4130  -13.9670   20.4110 C   0  0  0  0  0  0  0  0  0  0  0  0
  -24.3860  -13.1770   20.8320 C   0  0  0  0  0  0  0  0  0  0  0  0
  -24.8570  -11.8330   20.7260 C   0  0  0  0  0  0  0  0  0  0  0  0
  -26.4510  -13.1110   20.0830 N   0  0  0  0  0  0  0  0  0  0  0  0
  -26.1270  -11.8150   20.3320 N   0  0  0  0  0  0  0  0  0  0  0  0
  -24.1400  -10.5650   20.9210 C   0  0  0  0  0  0  0  0  0  0  0  0
  -24.5820   -9.6020   21.8550 C   0  0  0  0  0  3  0  0  0  0  0  0
  -23.8580   -8.4050   22.0420 C   0  0  0  0  0  3  0  0  0  0  0  0
  -22.6800   -8.1620   21.2960 C   0  0  0  0  0  0  0  0  0  0  0  0
  -22.2570   -9.1170   20.3540 C   0  0  0  0  0  3  0  0  0  0  0  0
  -22.9820  -10.3050   20.1630 C   0  0  0  0  0  3  0  0  0  0  0  0
  -21.9280   -7.0160   21.3920 O   0  0  0  0  0  0  0  0  0  0  0  0
  -21.8210   -6.3240   22.5720 C   0  0  0  0  0  0  0  0  0  0  0  0
  -21.3220   -6.9280   23.7460 C   0  0  0  0  0  3  0  0  0  0  0  0
  -21.1610   -6.1630   24.9190 C   0  0  0  0  0  3  0  0  0  0  0  0
  -21.4910   -4.7940   24.9170 C   0  0  0  0  0  0  0  0  0  0  0  0
  -21.9830   -4.1890   23.7460 C   0  0  0  0  0  3  0  0  0  0  0  0
  -22.1460   -4.9520   22.5760 C   0  0  0  0  0  0  0  0  0  0  0  0
  -22.5990   -4.3600   21.4460 F   0  0  0  0  0  0  0  0  0  0  0  0
  -21.3310   -4.0550   26.0400 F   0  0  0  0  0  0  0  0  0  0  0  0
  -23.0120  -13.6460   21.2080 C   0  0  0  0  0  0  0  0  0  0  0  0
  -22.3500  -12.9390   22.1150 N   0  0  0  0  0  0  0  0  0  0  0  0
  -22.5420  -14.6830   20.7410 O   0  0  0  0  0  0  0  0  0  0  0  0
  -22.7450  -12.1010   22.5150 H   0  0  0  0  0  0  0  0  0  0  0  0
  -21.4350  -13.2420   22.4170 H   0  0  0  0  0  0  0  0  0  0  0  0
  -25.5220  -15.3420   20.2510 N   0  0  0  0  0  0  0  0  0  0  0  0
  -24.7430  -15.9620   20.4400 H   0  0  0  0  0  0  0  0  0  0  0  0
  -26.3350  -15.8250   19.8950 H   0  0  0  0  0  0  0  0  0  0  0  0
  -28.0170  -23.9310   20.0090 C   0  0  0  0  0  2  0  0  0  0  0  0
  -28.2690  -25.6160   20.2820 O   0  0  0  0  0  0  0  0  0  0  0  0
  -24.6750  -31.7970   23.1670 C   0  0  0  0  0  0  0  0  0  0  0  0
  -27.2870  -26.7970   20.1960 C   0  0  0  0  0  0  0  0  0  0  0  0
  -23.5140  -30.3950   21.5150 C   0  0  0  0  0  3  0  0  0  0  0  0
  -24.9900  -28.7680   20.1180 C   0  0  0  0  0  0  0  0  0  0  0  0
  -26.0910  -30.5720   21.4210 C   0  0  0  0  0  2  0  0  0  0  0  0
  -26.1760  -29.1480   20.7610 C   0  0  0  0  0  0  0  0  0  0  0  0
  -27.3100  -28.1890   20.7690 C   0  0  0  0  0  3  0  0  0  0  0  0
  -26.0670  -26.6130   19.4980 C   0  0  0  0  0  3  0  0  0  0  0  0
  -24.9720  -27.5250   19.4620 C   0  0  0  0  0  3  0  0  0  0  0  0
  -23.7730  -29.7050   20.1450 C   0  0  0  0  0  2  0  0  0  0  0  0
  -24.7820  -30.9530   22.0860 N   0  0  0  0  0  0  0  0  0  0  0  0
  -23.5760  -32.0880   23.6680 O   0  0  0  0  0  0  0  0  0  0  0  0
  -22.7960  -29.4090   22.4750 C   0  0  0  0  0  0  0  0  0  0  0  0
  -21.4690  -29.2360   22.3260 N   0  0  0  0  0  0  0  0  0  0  0  0
  -23.4460  -28.7960   23.3260 O   0  0  0  0  0  0  0  0  0  0  0  0
  -20.9940  -29.7790   21.6200 H   0  0  0  0  0  0  0  0  0  0  0  0
  -18.0930  -27.9640   22.7590 C   0  0  0  0  0  0  0  0  0  0  0  0
  -20.6400  -28.2930   23.0880 C   0  0  0  0  0  3  0  0  0  0  0  0
  -20.7870  -26.8540   22.5420 C   0  0  0  0  0  2  0  0  0  0  0  0
  -19.7240  -26.4920   21.5010 C   0  0  0  0  0  2  0  0  0  0  0  0
  -18.3210  -26.6120   22.1020 C   0  0  0  0  0  2  0  0  0  0  0  0
  -19.1820  -28.7600   23.2080 C   0  0  0  0  0  0  0  0  0  0  0  0
  -18.9130  -30.0200   23.7840 C   0  0  0  0  0  3  0  0  0  0  0  0
  -17.5920  -30.4870   23.9140 C   0  0  0  0  0  3  0  0  0  0  0  0
  -16.5180  -29.6900   23.4790 C   0  0  0  0  0  3  0  0  0  0  0  0
  -16.7700  -28.4300   22.9080 C   0  0  0  0  0  3  0  0  0  0  0  0
  -25.9310  -32.4510   23.8190 C   0  0  0  0  0  3  0  0  0  0  0  0
  -25.5960  -33.8490   24.1590 N   0  0  0  0  0  0  0  0  0  0  0  0
  -25.9130  -34.9190   23.4180 C   0  0  0  0  0  0  0  0  0  0  0  0
  -26.5770  -34.8350   22.3810 O   0  0  0  0  0  0  0  0  0  0  0  0
  -25.0050  -33.9850   24.9660 H   0  0  0  0  0  0  0  0  0  0  0  0
  -24.1570  -36.7010   23.1210 C   0  0  0  0  0  1  0  0  0  0  0  0
  -25.4220  -36.3010   23.8980 C   0  0  0  0  0  3  0  0  0  0  0  0
  -27.5560  -37.2180   24.6960 C   0  0  0  0  0  1  0  0  0  0  0  0
  -26.4390  -37.3670   23.7660 N   0  0  0  0  0  0  0  0  0  0  0  0
  -26.0250  -38.2840   23.9120 H   0  0  0  0  0  0  0  0  0  0  0  0
  -26.4200  -31.6900   25.1140 C   0  0  1  0  0  0  0  0  0  0  0  0
  -25.3060  -31.4610   26.1630 C   0  0  0  0  0  1  0  0  0  0  0  0
  -27.0140  -30.3090   24.7570 C   0  0  0  0  0  1  0  0  0  0  0  0
  -27.5570  -32.4900   25.7930 C   0  0  0  0  0  1  0  0  0  0  0  0
  1  6  2  0
  1  3  1  0
  3  5  2  0
  4  9  1  0
  4  2  2  0
  5  2  1  0
  6  4  1  0
  9  8  1  1
  9  7  1  0
 10  9  1  0
 11 16  1  0
 12 13  1  0
 12 11  1  0
 14 13  1  0
 14 21  1  0
 14 15  1  0
 16 10  1  0
 16 15  1  0
 17 10  2  0
 18 19  2  0
 19 38  1  0
 20 19  1  0
 20 23  1  0
 21 22  1  0
 21 18  1  0
 22 20  2  0
 23 24  1  0
 24 25  2  0
 26 29  1  0
 26 25  1  0
 27 26  2  0
 28 27  1  0
 28 23  2  0
 29 30  1  0
 30 35  2  0
 30 31  1  0
 31 32  2  0
 33 32  1  0
 33 37  1  0
 34 33  2  0
 35 34  1  0
 36 35  1  0
 38 39  1  0
 39 42  1  0
 39 41  1  0
 40 38  2  0
 43 18  1  0
 43 44  1  0
 45 43  1  0
 46  3  1  0
 46 47  1  0
 48 59  2  0
 49 47  1  0
 49 54  1  0
 50 58  1  0
 50 60  1  0
 51 57  1  0
 51 53  1  0
 52 58  1  0
 53 54  2  0
 53 52  1  0
 55 49  2  0
 56 55  1  0
 56 51  2  0
 57 50  1  0
 58 48  1  0
 60 62  2  0
 61 60  1  0
 63 61  1  0
 64 73  2  0
 64 69  1  0
 65 61  1  0
 65 69  1  0
 66 65  1  0
 67 68  1  0
 67 66  1  0
 68 64  1  0
 69 70  2  0
 70 71  1  0
 72 71  2  0
 73 72  1  0
 74 48  1  0
 74 75  1  0
 74 84  1  0
 75 78  1  0
 76 80  1  0
 76 75  1  0
 77 76  2  0
 80 79  1  0
 82 80  1  0
 82 83  1  0
 82 81  1  0
 84 87  1  1
 84 85  1  0
 86 84  1  0
M  ISO  4   9 100  10 100  46 101  47 101
M  END
>  <TORSDO>  (85) 
F 18

>  <SCORE>  (85) 
-16.296

>  <name>  (85) 
85

>  <ligand_id>  (85) 
85

>  <original_smiles>  (85) 
[H]c1nc(C(C(=O)N2C([H])([H])C([H])([H])C([H])([H])C([H])(n3nc(-c4c([H])c([H])c(Oc5c([H])c([H])c(F)c([H])c5F)c([H])c4[H])c(C(=O)N([H])[H])c3N([H])[H])C2([H])[H])(C([H])([H])[H])C([H])([H])[H])c([H])nc1C([H])([H])Oc1c([H])c([H])c2c(c1[H])C([H])([H])N(C(=O)C([H])(N([H])C(=O)C([H])(N([H])C([H])([H])[H])C([H])([H])[H])C(C([H])([H])[H])(C([H])([H])[H])C([H])([H])[H])C([H])(C(=O)N([H])C1([H])c3c([H])c([H])c([H])c([H])c3C([H])([H])C([H])([H])C1([H])[H])C2([H])[H]

>  <smiles>  (85) 
[H]c1nc(C(C(=O)N2C([H])([H])C([H])([H])C([H])([H])C([H])(n3nc(-c4c([H])c([H])c(Oc5c([H])c([H])c(F)c([H])c5F)c([H])c4[H])c(C(=O)N([H])[H])c3N([H])[H])C2([H])[H])(C([H])([H])[H])C([H])([H])[H])c([H])nc1C([H])([H])Oc1c([H])c([H])c2c(c1[H])C([H])([H])N(C(=O)C([H])(N([H])C(=O)C([H])(N([H])C([H])([H])[H])C([H])([H])[H])C(C([H])([H])[H])(C([H])([H])[H])C([H])([H])[H])C([H])(C(=O)N([H])C1([H])c3c([H])c([H])c([H])c([H])c3C([H])([H])C([H])([H])C1([H])[H])C2([H])[H]

$$$$
86:0:0
     RDKit          3D

 88 96  0  0  1  0  0  0  0  0999 V2000
  -30.7710  -20.0050   20.6560 C   0  0  0  0  0  3  0  0  0  0  0  0
  -28.9430  -19.1520   20.0160 C   0  0  0  0  0  3  0  0  0  0  0  0
  -29.4520  -20.4420   20.2630 C   0  0  0  0  0  0  0  0  0  0  0  0
  -30.9860  -18.6500   20.6490 N   0  0  0  0  0  0  0  0  0  0  0  0
  -29.8440  -18.0440   20.2140 N   0  0  0  0  0  0  0  0  0  0  0  0
  -28.8330  -16.5070   18.6620 C   0  0  0  0  0  1  0  0  0  0  0  0
  -28.4820  -16.2810   21.2050 C   0  0  0  0  0  1  0  0  0  0  0  0
  -29.5110  -16.4870   20.0650 C   0  0  2  0  0  0  0  0  0  0  0  0
  -30.4940  -15.0950   20.0300 C   0  0  0  0  0  0  0  0  0  0  0  0
  -30.4670  -12.7100   19.1230 C   0  0  0  0  0  2  0  0  0  0  0  0
  -29.4670  -12.6180   17.9390 C   0  0  0  0  0  2  0  0  0  0  0  0
  -28.0110  -12.4000   18.4160 C   0  0  0  0  0  2  0  0  0  0  0  0
  -27.6440  -13.2870   19.6330 C   0  0  0  0  0  3  0  0  0  0  0  0
  -28.7680  -13.2490   20.6930 C   0  0  0  0  0  2  0  0  0  0  0  0
  -29.9930  -13.7760   20.0560 N   0  0  0  0  0  0  0  0  0  0  0  0
  -31.6920  -15.1940   19.7360 O   0  0  0  0  0  0  0  0  0  0  0  0
  -25.2880  -13.8840   20.4500 C   0  0  0  0  0  0  0  0  0  0  0  0
  -24.2380  -13.1090   20.8540 C   0  0  0  0  0  0  0  0  0  0  0  0
  -24.6970  -11.7580   20.7850 C   0  0  0  0  0  0  0  0  0  0  0  0
  -26.3240  -13.0020   20.1750 N   0  0  0  0  0  0  0  0  0  0  0  0
  -25.9760  -11.7180   20.4310 N   0  0  0  0  0  0  0  0  0  0  0  0
  -23.9740  -10.4990   20.9760 C   0  0  0  0  0  0  0  0  0  0  0  0
  -24.4080   -9.5370   21.9130 C   0  0  0  0  0  3  0  0  0  0  0  0
  -23.6850   -8.3380   22.0930 C   0  0  0  0  0  3  0  0  0  0  0  0
  -22.5160   -8.0970   21.3340 C   0  0  0  0  0  0  0  0  0  0  0  0
  -22.1020   -9.0480   20.3850 C   0  0  0  0  0  3  0  0  0  0  0  0
  -22.8260  -10.2380   20.2030 C   0  0  0  0  0  3  0  0  0  0  0  0
  -21.7620   -6.9520   21.4250 O   0  0  0  0  0  0  0  0  0  0  0  0
  -21.6630   -6.2490   22.5980 C   0  0  0  0  0  0  0  0  0  0  0  0
  -21.1500   -6.8320   23.7770 C   0  0  0  0  0  3  0  0  0  0  0  0
  -21.0030   -6.0530   24.9430 C   0  0  0  0  0  3  0  0  0  0  0  0
  -21.3560   -4.6900   24.9270 C   0  0  0  0  0  0  0  0  0  0  0  0
  -21.8600   -4.1050   23.7520 C   0  0  0  0  0  3  0  0  0  0  0  0
  -22.0110   -4.8830   22.5900 C   0  0  0  0  0  0  0  0  0  0  0  0
  -22.4770   -4.3110   21.4540 F   0  0  0  0  0  0  0  0  0  0  0  0
  -21.2070   -3.9370   26.0430 F   0  0  0  0  0  0  0  0  0  0  0  0
  -22.8540  -13.5880   21.1860 C   0  0  0  0  0  0  0  0  0  0  0  0
  -22.1610  -12.8880   22.0760 N   0  0  0  0  0  0  0  0  0  0  0  0
  -22.3990  -14.6210   20.6950 O   0  0  0  0  0  0  0  0  0  0  0  0
  -22.5430  -12.0560   22.4980 H   0  0  0  0  0  0  0  0  0  0  0  0
  -21.2340  -13.1920   22.3410 H   0  0  0  0  0  0  0  0  0  0  0  0
  -25.4220  -15.2550   20.2670 N   0  0  0  0  0  0  0  0  0  0  0  0
  -24.6420  -15.8900   20.3990 H   0  0  0  0  0  0  0  0  0  0  0  0
  -26.2450  -15.7110   19.8970 H   0  0  0  0  0  0  0  0  0  0  0  0
  -28.6660  -21.8910   20.0910 C   0  0  0  0  0  2  0  0  0  0  0  0
  -29.1200  -23.4700   20.4300 C   0  0  0  0  0  3  0  0  0  0  0  0
  -28.1160  -24.7780   20.0760 C   0  0  0  0  0  3  0  0  0  0  0  0
  -28.3250  -26.2900   20.3520 O   0  0  0  0  0  0  0  0  0  0  0  0
  -24.6320  -31.9170   23.3090 C   0  0  0  0  0  0  0  0  0  0  0  0
  -27.2470  -27.2450   20.2710 C   0  0  0  0  0  0  0  0  0  0  0  0
  -23.4420  -30.5380   21.6450 C   0  0  0  0  0  3  0  0  0  0  0  0
  -24.9030  -28.9700   20.2240 C   0  0  0  0  0  0  0  0  0  0  0  0
  -25.9970  -30.8060   21.5060 C   0  0  0  0  0  2  0  0  0  0  0  0
  -26.0760  -29.4200   20.8460 C   0  0  0  0  0  0  0  0  0  0  0  0
  -27.2450  -28.5740   20.8510 C   0  0  0  0  0  3  0  0  0  0  0  0
  -26.0470  -26.8890   19.6110 C   0  0  0  0  0  3  0  0  0  0  0  0
  -24.9030  -27.7170   19.5900 C   0  0  0  0  0  3  0  0  0  0  0  0
  -23.6730  -29.8630   20.2660 C   0  0  0  0  0  2  0  0  0  0  0  0
  -24.7090  -31.1080   22.2090 N   0  0  0  0  0  0  0  0  0  0  0  0
  -23.5420  -32.2010   23.8290 O   0  0  0  0  0  0  0  0  0  0  0  0
  -22.7500  -29.5280   22.5940 C   0  0  0  0  0  0  0  0  0  0  0  0
  -21.4230  -29.3640   22.4520 N   0  0  0  0  0  0  0  0  0  0  0  0
  -23.4110  -28.8930   23.4210 O   0  0  0  0  0  0  0  0  0  0  0  0
  -20.9470  -29.9250   21.7610 H   0  0  0  0  0  0  0  0  0  0  0  0
  -18.0290  -28.1900   22.9270 C   0  0  0  0  0  0  0  0  0  0  0  0
  -20.5900  -28.4250   23.2090 C   0  0  0  0  0  3  0  0  0  0  0  0
  -20.6800  -26.9990   22.6170 C   0  0  0  0  0  2  0  0  0  0  0  0
  -19.5790  -26.6990   21.5950 C   0  0  0  0  0  2  0  0  0  0  0  0
  -18.1960  -26.8490   22.2340 C   0  0  0  0  0  2  0  0  0  0  0  0
  -19.1530  -28.9380   23.3710 C   0  0  0  0  0  0  0  0  0  0  0  0
  -18.9410  -30.1950   23.9790 C   0  0  0  0  0  3  0  0  0  0  0  0
  -17.6380  -30.7030   24.1470 C   0  0  0  0  0  3  0  0  0  0  0  0
  -16.5300  -29.9530   23.7170 C   0  0  0  0  0  3  0  0  0  0  0  0
  -16.7270  -28.6990   23.1150 C   0  0  0  0  0  3  0  0  0  0  0  0
  -25.9070  -32.5420   23.9550 C   0  0  0  0  0  3  0  0  0  0  0  0
  -26.3820  -31.7790   25.2520 C   0  0  1  0  0  0  0  0  0  0  0  0
  -25.2600  -31.5680   26.2950 C   0  0  0  0  0  1  0  0  0  0  0  0
  -26.9570  -30.3900   24.8930 C   0  0  0  0  0  1  0  0  0  0  0  0
  -27.5260  -32.5670   25.9330 C   0  0  0  0  0  1  0  0  0  0  0  0
  -25.6070  -33.9480   24.2670 N   0  0  0  0  0  0  0  0  0  0  0  0
  -25.9380  -34.9900   23.4940 C   0  0  0  0  0  0  0  0  0  0  0  0
  -26.5950  -34.8690   22.4550 O   0  0  0  0  0  0  0  0  0  0  0  0
  -25.0260  -34.1160   25.0760 H   0  0  0  0  0  0  0  0  0  0  0  0
  -24.2060  -36.7850   23.1620 C   0  0  0  0  0  1  0  0  0  0  0  0
  -25.4690  -36.3890   23.9410 C   0  0  0  0  0  3  0  0  0  0  0  0
  -27.6270  -37.2880   24.6960 C   0  0  0  0  0  1  0  0  0  0  0  0
  -26.5000  -37.4380   23.7790 N   0  0  0  0  0  0  0  0  0  0  0  0
  -26.0990  -38.3610   23.9170 H   0  0  0  0  0  0  0  0  0  0  0  0
  2  5  1  0
  2  3  2  0
  3  1  1  0
  4  1  2  0
  5  4  1  0
  8  6  1  6
  8  5  1  0
  8  7  1  0
  9 15  1  0
  9  8  1  0
 10 15  1  0
 11 12  1  0
 11 10  1  0
 13 12  1  0
 13 20  1  0
 13 14  1  0
 15 14  1  0
 16  9  2  0
 17 18  2  0
 18 37  1  0
 19 18  1  0
 19 22  1  0
 20 21  1  0
 20 17  1  0
 21 19  2  0
 22 23  1  0
 23 24  2  0
 25 28  1  0
 25 24  1  0
 26 25  2  0
 27 26  1  0
 27 22  2  0
 28 29  1  0
 29 30  1  0
 30 31  2  0
 32 31  1  0
 32 36  1  0
 33 32  2  0
 34 29  2  0
 34 33  1  0
 35 34  1  0
 37 38  1  0
 38 41  1  0
 38 40  1  0
 39 37  2  0
 42 43  1  0
 42 17  1  0
 44 42  1  0
 45  3  1  0
 45 46  1  0
 47 48  1  0
 47 46  2  0
 49 60  2  0
 50 48  1  0
 50 55  1  0
 51 59  1  0
 51 61  1  0
 52 58  1  0
 52 54  1  0
 53 59  1  0
 54 55  2  0
 54 53  1  0
 56 50  2  0
 57 56  1  0
 57 52  2  0
 58 51  1  0
 59 49  1  0
 61 63  2  0
 62 61  1  0
 64 62  1  0
 65 74  2  0
 65 70  1  0
 66 62  1  0
 66 70  1  0
 67 66  1  0
 68 69  1  0
 68 67  1  0
 69 65  1  0
 70 71  2  0
 71 72  1  0
 73 72  2  0
 74 73  1  0
 75 49  1  0
 75 80  1  0
 75 76  1  0
 76 79  1  1
 76 77  1  0
 78 76  1  0
 80 83  1  0
 81 85  1  0
 81 80  1  0
 82 81  2  0
 85 84  1  0
 87 88  1  0
 87 85  1  0
 87 86  1  0
M  ISO  4   8 100   9 100  47 101  48 101
M  END
>  <TORSDO>  (86) 
F 20

>  <SCORE>  (86) 
-13.646

>  <name>  (86) 
86

>  <ligand_id>  (86) 
86

>  <original_smiles>  (86) 
[H]c1nn(C(C(=O)N2C([H])([H])C([H])([H])C([H])([H])C([H])(n3nc(-c4c([H])c([H])c(Oc5c([H])c([H])c(F)c([H])c5F)c([H])c4[H])c(C(=O)N([H])[H])c3N([H])[H])C2([H])[H])(C([H])([H])[H])C([H])([H])[H])c([H])c1C([H])([H])C([H])([H])C([H])([H])Oc1c([H])c([H])c2c(c1[H])C([H])([H])N(C(=O)C([H])(N([H])C(=O)C([H])(N([H])C([H])([H])[H])C([H])([H])[H])C(C([H])([H])[H])(C([H])([H])[H])C([H])([H])[H])C([H])(C(=O)N([H])C1([H])c3c([H])c([H])c([H])c([H])c3C([H])([H])C([H])([H])C1([H])[H])C2([H])[H]

>  <smiles>  (86) 
[H]c1nn(C(C(=O)N2C([H])([H])C([H])([H])C([H])([H])C([H])(n3nc(-c4c([H])c([H])c(Oc5c([H])c([H])c(F)c([H])c5F)c([H])c4[H])c(C(=O)N([H])[H])c3N([H])[H])C2([H])[H])(C([H])([H])[H])C([H])([H])[H])c([H])c1C([H])([H])C([H])([H])C([H])([H])Oc1c([H])c([H])c2c(c1[H])C([H])([H])N(C(=O)C([H])(N([H])C(=O)C([H])(N([H])C([H])([H])[H])C([H])([H])[H])C(C([H])([H])[H])(C([H])([H])[H])C([H])([H])[H])C([H])(C(=O)N([H])C1([H])c3c([H])c([H])c([H])c([H])c3C([H])([H])C([H])([H])C1([H])[H])C2([H])[H]

$$$$
87:0:0
     RDKit          3D

 91 99  0  0  1  0  0  0  0  0999 V2000
  -29.7670  -21.8070   18.6300 C   0  0  0  0  0  3  0  0  0  0  0  0
  -30.5840  -19.6560   18.4350 C   0  0  0  0  0  3  0  0  0  0  0  0
  -29.6120  -21.6350   20.0270 C   0  0  0  0  0  0  0  0  0  0  0  0
  -30.4230  -19.4350   19.8250 C   0  0  0  0  0  0  0  0  0  0  0  0
  -30.2540  -20.8250   17.8350 N   0  0  0  0  0  0  0  0  0  0  0  0
  -29.9120  -20.4330   20.6190 N   0  0  0  0  0  0  0  0  0  0  0  0
  -31.4070  -18.1390   21.8190 C   0  0  0  0  0  1  0  0  0  0  0  0
  -30.7780  -18.0380   20.4210 C   0  0  0  0  0  3  0  0  0  0  0  0
  -29.6190  -16.9930   20.3250 C   0  0  0  0  0  2  0  0  0  0  0  0
  -30.5830  -14.5900   20.4310 C   0  0  0  0  0  0  0  0  0  0  0  0
  -30.3680  -12.3840   19.3450 C   0  0  0  0  0  2  0  0  0  0  0  0
  -29.4160  -12.5450   18.1390 C   0  0  0  0  0  2  0  0  0  0  0  0
  -27.9440  -12.3940   18.5690 C   0  0  0  0  0  2  0  0  0  0  0  0
  -27.5940  -13.2380   19.8220 C   0  0  0  0  0  3  0  0  0  0  0  0
  -28.6510  -13.0410   20.9340 C   0  0  0  0  0  2  0  0  0  0  0  0
  -29.9730  -13.3700   20.3680 N   0  0  0  0  0  0  0  0  0  0  0  0
  -31.6990  -14.7960   19.9510 O   0  0  0  0  0  0  0  0  0  0  0  0
  -29.7890  -15.6060   20.8590 N   0  0  0  0  0  0  0  0  0  0  0  0
  -28.9690  -15.2720   21.3420 H   0  0  0  0  0  0  0  0  0  0  0  0
  -25.1940  -13.8470   20.5250 C   0  0  0  0  0  0  0  0  0  0  0  0
  -24.1230  -13.0780   20.8930 C   0  0  0  0  0  0  0  0  0  0  0  0
  -24.5840  -11.7260   20.8690 C   0  0  0  0  0  0  0  0  0  0  0  0
  -26.2380  -12.9650   20.2960 N   0  0  0  0  0  0  0  0  0  0  0  0
  -25.8750  -11.6840   20.5620 N   0  0  0  0  0  0  0  0  0  0  0  0
  -23.8540  -10.4640   21.0610 C   0  0  0  0  0  0  0  0  0  0  0  0
  -24.2910   -9.4920   21.9850 C   0  0  0  0  0  3  0  0  0  0  0  0
  -23.5640   -8.2960   22.1640 C   0  0  0  0  0  3  0  0  0  0  0  0
  -22.3840   -8.0640   21.4180 C   0  0  0  0  0  0  0  0  0  0  0  0
  -21.9650   -9.0260   20.4810 C   0  0  0  0  0  3  0  0  0  0  0  0
  -22.6930  -10.2130   20.3010 C   0  0  0  0  0  3  0  0  0  0  0  0
  -21.6270   -6.9220   21.5080 O   0  0  0  0  0  0  0  0  0  0  0  0
  -21.5980   -6.1650   22.6520 C   0  0  0  0  0  0  0  0  0  0  0  0
  -21.2040   -6.7090   23.8940 C   0  0  0  0  0  3  0  0  0  0  0  0
  -21.1210   -5.8800   25.0300 C   0  0  0  0  0  3  0  0  0  0  0  0
  -21.4220   -4.5090   24.9270 C   0  0  0  0  0  0  0  0  0  0  0  0
  -21.8090   -3.9650   23.6900 C   0  0  0  0  0  3  0  0  0  0  0  0
  -21.8950   -4.7900   22.5550 C   0  0  0  0  0  0  0  0  0  0  0  0
  -22.2470   -4.2580   21.3610 F   0  0  0  0  0  0  0  0  0  0  0  0
  -21.3350   -3.7090   26.0160 F   0  0  0  0  0  0  0  0  0  0  0  0
  -22.7260  -13.5570   21.1620 C   0  0  0  0  0  0  0  0  0  0  0  0
  -21.9950  -12.8650   22.0300 N   0  0  0  0  0  0  0  0  0  0  0  0
  -22.2920  -14.5850   20.6420 O   0  0  0  0  0  0  0  0  0  0  0  0
  -22.3590  -12.0350   22.4760 H   0  0  0  0  0  0  0  0  0  0  0  0
  -21.0560  -13.1680   22.2480 H   0  0  0  0  0  0  0  0  0  0  0  0
  -25.3620  -15.2180   20.3470 N   0  0  0  0  0  0  0  0  0  0  0  0
  -24.5980  -15.8770   20.4600 H   0  0  0  0  0  0  0  0  0  0  0  0
  -26.2130  -15.6530   20.0130 H   0  0  0  0  0  0  0  0  0  0  0  0
  -29.0240  -22.7670   20.8990 C   0  0  0  0  0  2  0  0  0  0  0  0
  -29.3730  -24.2670   20.5430 C   0  0  0  0  0  2  0  0  0  0  0  0
  -28.1340  -25.1600   20.2230 C   0  0  0  0  0  2  0  0  0  0  0  0
  -28.3460  -26.6000   20.1820 O   0  0  0  0  0  0  0  0  0  0  0  0
  -24.6010  -31.8840   23.2280 C   0  0  0  0  0  0  0  0  0  0  0  0
  -27.2000  -27.3890   20.1440 C   0  0  0  0  0  0  0  0  0  0  0  0
  -23.3780  -30.4940   21.5910 C   0  0  0  0  0  3  0  0  0  0  0  0
  -24.8170  -28.9460   20.1600 C   0  0  0  0  0  0  0  0  0  0  0  0
  -25.9110  -30.8230   21.3860 C   0  0  0  0  0  2  0  0  0  0  0  0
  -25.9860  -29.4510   20.7420 C   0  0  0  0  0  0  0  0  0  0  0  0
  -27.1810  -28.6840   20.7270 C   0  0  0  0  0  3  0  0  0  0  0  0
  -26.0060  -26.9170   19.5450 C   0  0  0  0  0  3  0  0  0  0  0  0
  -24.8260  -27.6780   19.5590 C   0  0  0  0  0  3  0  0  0  0  0  0
  -23.5810  -29.8170   20.2100 C   0  0  0  0  0  2  0  0  0  0  0  0
  -24.6480  -31.0820   22.1260 N   0  0  0  0  0  0  0  0  0  0  0  0
  -23.5230  -32.1610   23.7730 O   0  0  0  0  0  0  0  0  0  0  0  0
  -22.7220  -29.4760   22.5530 C   0  0  0  0  0  0  0  0  0  0  0  0
  -21.3970  -29.3010   22.4300 N   0  0  0  0  0  0  0  0  0  0  0  0
  -23.4040  -28.8470   23.3670 O   0  0  0  0  0  0  0  0  0  0  0  0
  -20.9070  -29.8570   21.7440 H   0  0  0  0  0  0  0  0  0  0  0  0
  -18.0200  -28.1130   22.9400 C   0  0  0  0  0  0  0  0  0  0  0  0
  -20.5800  -28.3650   23.2030 C   0  0  0  0  0  3  0  0  0  0  0  0
  -20.6770  -26.9330   22.6290 C   0  0  0  0  0  2  0  0  0  0  0  0
  -19.5720  -26.6120   21.6170 C   0  0  0  0  0  2  0  0  0  0  0  0
  -18.1920  -26.7620   22.2640 C   0  0  0  0  0  2  0  0  0  0  0  0
  -19.1430  -28.8710   23.3670 C   0  0  0  0  0  0  0  0  0  0  0  0
  -18.9320  -30.1340   23.9600 C   0  0  0  0  0  3  0  0  0  0  0  0
  -17.6310  -30.6430   24.1260 C   0  0  0  0  0  3  0  0  0  0  0  0
  -16.5210  -29.8840   23.7180 C   0  0  0  0  0  3  0  0  0  0  0  0
  -16.7170  -28.6200   23.1320 C   0  0  0  0  0  3  0  0  0  0  0  0
  -25.8940  -32.5070   23.8390 C   0  0  0  0  0  3  0  0  0  0  0  0
  -25.5910  -33.9030   24.1820 N   0  0  0  0  0  0  0  0  0  0  0  0
  -25.9120  -34.9600   23.4230 C   0  0  0  0  0  0  0  0  0  0  0  0
  -26.5700  -34.8600   22.3840 O   0  0  0  0  0  0  0  0  0  0  0  0
  -25.0060  -34.0520   24.9910 H   0  0  0  0  0  0  0  0  0  0  0  0
  -24.1840  -36.7560   23.0920 C   0  0  0  0  0  1  0  0  0  0  0  0
  -25.4310  -36.3460   23.8910 C   0  0  0  0  0  3  0  0  0  0  0  0
  -27.5750  -37.2250   24.7060 C   0  0  0  0  0  1  0  0  0  0  0  0
  -26.4630  -37.3970   23.7730 N   0  0  0  0  0  0  0  0  0  0  0  0
  -26.0620  -38.3170   23.9270 H   0  0  0  0  0  0  0  0  0  0  0  0
  -26.4180  -31.7250   25.1060 C   0  0  1  0  0  0  0  0  0  0  0  0
  -25.3330  -31.4880   26.1820 C   0  0  0  0  0  1  0  0  0  0  0  0
  -26.9920  -30.3460   24.7010 C   0  0  0  0  0  1  0  0  0  0  0  0
  -27.5730  -32.5130   25.7650 C   0  0  0  0  0  1  0  0  0  0  0  0
  1  3  1  0
  2  4  2  0
  3  6  2  0
  3 48  1  0
  4  8  1  0
  4  6  1  0
  5  2  1  0
  5  1  2  0
  8  7  1  0
  9  8  1  0
  9 18  1  0
 10 18  1  0
 11 16  1  0
 12 13  1  0
 12 11  1  0
 14 13  1  0
 14 23  1  0
 14 15  1  0
 16 10  1  0
 16 15  1  0
 17 10  2  0
 18 19  1  0
 20 21  2  0
 21 40  1  0
 22 21  1  0
 22 25  1  0
 23 20  1  0
 23 24  1  0
 24 22  2  0
 25 26  1  0
 26 27  2  0
 28 31  1  0
 28 27  1  0
 29 28  2  0
 30 29  1  0
 30 25  2  0
 31 32  1  0
 32 33  1  0
 33 34  2  0
 35 34  1  0
 35 39  1  0
 36 35  2  0
 37 32  2  0
 37 36  1  0
 38 37  1  0
 40 41  1  0
 41 44  1  0
 41 43  1  0
 42 40  2  0
 45 46  1  0
 45 20  1  0
 47 45  1  0
 49 48  1  0
 50 49  1  0
 51 50  1  0
 52 63  2  0
 53 51  1  0
 53 58  1  0
 54 62  1  0
 54 64  1  0
 55 61  1  0
 55 57  1  0
 56 62  1  0
 57 56  1  0
 58 57  2  0
 59 60  1  0
 59 53  2  0
 60 55  2  0
 61 54  1  0
 62 52  1  0
 64 66  2  0
 65 64  1  0
 67 65  1  0
 68 77  2  0
 68 73  1  0
 69 65  1  0
 69 73  1  0
 70 69  1  0
 71 72  1  0
 71 70  1  0
 72 68  1  0
 73 74  2  0
 74 75  1  0
 76 75  2  0
 77 76  1  0
 78 52  1  0
 78 79  1  0
 78 88  1  0
 79 82  1  0
 80 84  1  0
 80 79  1  0
 81 80  2  0
 84 83  1  0
 86 84  1  0
 86 87  1  0
 86 85  1  0
 88 91  1  1
 88 89  1  0
 90 88  1  0
M  ISO  4  10 100  18 100  50 101  51 101
M  END
>  <TORSDO>  (87) 
F 21

>  <SCORE>  (87) 
-13.518

>  <name>  (87) 
87

>  <ligand_id>  (87) 
87

>  <original_smiles>  (87) 
[H]c1nc([H])c(C([H])(C([H])([H])[H])C([H])([H])N([H])C(=O)N2C([H])([H])C([H])([H])C([H])([H])C([H])(n3nc(-c4c([H])c([H])c(Oc5c([H])c([H])c(F)c([H])c5F)c([H])c4[H])c(C(=O)N([H])[H])c3N([H])[H])C2([H])[H])nc1C([H])([H])C([H])([H])C([H])([H])Oc1c([H])c([H])c2c(c1[H])C([H])([H])N(C(=O)C([H])(N([H])C(=O)C([H])(N([H])C([H])([H])[H])C([H])([H])[H])C(C([H])([H])[H])(C([H])([H])[H])C([H])([H])[H])C([H])(C(=O)N([H])C1([H])c3c([H])c([H])c([H])c([H])c3C([H])([H])C([H])([H])C1([H])[H])C2([H])[H]

>  <smiles>  (87) 
[H]c1nc([H])c(C([H])(C([H])([H])[H])C([H])([H])N([H])C(=O)N2C([H])([H])C([H])([H])C([H])([H])C([H])(n3nc(-c4c([H])c([H])c(Oc5c([H])c([H])c(F)c([H])c5F)c([H])c4[H])c(C(=O)N([H])[H])c3N([H])[H])C2([H])[H])nc1C([H])([H])C([H])([H])C([H])([H])Oc1c([H])c([H])c2c(c1[H])C([H])([H])N(C(=O)C([H])(N([H])C(=O)C([H])(N([H])C([H])([H])[H])C([H])([H])[H])C(C([H])([H])[H])(C([H])([H])[H])C([H])([H])[H])C([H])(C(=O)N([H])C1([H])c3c([H])c([H])c([H])c([H])c3C([H])([H])C([H])([H])C1([H])[H])C2([H])[H]

$$$$
88:0:0
     RDKit          3D

 89 97  0  0  1  0  0  0  0  0999 V2000
  -28.7330  -22.6440   20.9370 C   0  0  0  0  0  3  0  0  0  0  0  0
  -30.0300  -22.3220   19.2720 C   0  0  0  0  0  3  0  0  0  0  0  0
  -28.8220  -23.8740   20.2670 C   0  0  0  0  0  0  0  0  0  0  0  0
  -29.6700  -23.6250   19.1810 N   0  0  0  0  0  0  0  0  0  0  0  0
  -29.5000  -21.6220   20.3010 N   0  0  0  0  0  0  0  0  0  0  0  0
  -28.6940  -19.7490   21.7860 C   0  0  0  0  0  1  0  0  0  0  0  0
  -29.7990  -20.1940   20.7990 C   0  0  0  0  0  3  0  0  0  0  0  0
  -30.0880  -18.9380   19.8050 C   0  0  0  0  0  2  0  0  0  0  0  0
  -30.8990  -17.6540   20.4020 C   0  0  0  0  0  2  0  0  0  0  0  0
  -31.2430  -15.0710   19.8880 C   0  0  0  0  0  0  0  0  0  0  0  0
  -30.9880  -12.7580   18.9650 C   0  0  0  0  0  2  0  0  0  0  0  0
  -30.0130  -12.7790   17.7690 C   0  0  0  0  0  2  0  0  0  0  0  0
  -28.5610  -12.6240   18.2620 C   0  0  0  0  0  2  0  0  0  0  0  0
  -28.2270  -13.5960   19.4220 C   0  0  0  0  0  3  0  0  0  0  0  0
  -29.3100  -13.5600   20.5200 C   0  0  0  0  0  2  0  0  0  0  0  0
  -30.5970  -13.8580   19.8750 N   0  0  0  0  0  0  0  0  0  0  0  0
  -32.4230  -15.1510   19.5330 O   0  0  0  0  0  0  0  0  0  0  0  0
  -30.4850  -16.2070   20.1260 N   0  0  0  0  0  0  0  0  0  0  0  0
  -29.5120  -16.0060   20.3020 H   0  0  0  0  0  0  0  0  0  0  0  0
  -25.9020  -14.2750   20.2540 C   0  0  0  0  0  0  0  0  0  0  0  0
  -24.8230  -13.5410   20.6630 C   0  0  0  0  0  0  0  0  0  0  0  0
  -25.2310  -12.1720   20.6030 C   0  0  0  0  0  0  0  0  0  0  0  0
  -26.8970  -13.3560   19.9660 N   0  0  0  0  0  0  0  0  0  0  0  0
  -26.5040  -12.0860   20.2410 N   0  0  0  0  0  0  0  0  0  0  0  0
  -24.4660  -10.9370   20.8110 C   0  0  0  0  0  0  0  0  0  0  0  0
  -24.8370   -9.9990   21.8000 C   0  0  0  0  0  3  0  0  0  0  0  0
  -24.0770   -8.8260   21.9940 C   0  0  0  0  0  3  0  0  0  0  0  0
  -22.9310   -8.5850   21.1990 C   0  0  0  0  0  0  0  0  0  0  0  0
  -22.5790   -9.5120   20.2030 C   0  0  0  0  0  3  0  0  0  0  0  0
  -23.3400  -10.6750   20.0080 C   0  0  0  0  0  3  0  0  0  0  0  0
  -22.1470   -7.4610   21.2990 O   0  0  0  0  0  0  0  0  0  0  0  0
  -21.9520   -6.8230   22.4990 C   0  0  0  0  0  0  0  0  0  0  0  0
  -21.3660   -7.4750   23.6050 C   0  0  0  0  0  3  0  0  0  0  0  0
  -21.1220   -6.7620   24.7970 C   0  0  0  0  0  3  0  0  0  0  0  0
  -21.4540   -5.3970   24.8810 C   0  0  0  0  0  0  0  0  0  0  0  0
  -22.0370   -4.7450   23.7800 C   0  0  0  0  0  3  0  0  0  0  0  0
  -22.2820   -5.4560   22.5920 C   0  0  0  0  0  0  0  0  0  0  0  0
  -22.8210   -4.8160   21.5250 F   0  0  0  0  0  0  0  0  0  0  0  0
  -21.2160   -4.7090   26.0220 F   0  0  0  0  0  0  0  0  0  0  0  0
  -23.4590  -14.0690   20.9930 C   0  0  0  0  0  0  0  0  0  0  0  0
  -22.7470  -13.4030   21.8960 N   0  0  0  0  0  0  0  0  0  0  0  0
  -23.0330  -15.1050   20.4850 O   0  0  0  0  0  0  0  0  0  0  0  0
  -23.1070  -12.5640   22.3280 H   0  0  0  0  0  0  0  0  0  0  0  0
  -21.8310  -13.7360   22.1600 H   0  0  0  0  0  0  0  0  0  0  0  0
  -26.1160  -15.6400   20.0730 N   0  0  0  0  0  0  0  0  0  0  0  0
  -25.3880  -16.3310   20.2230 H   0  0  0  0  0  0  0  0  0  0  0  0
  -26.9570  -16.0330   19.6690 H   0  0  0  0  0  0  0  0  0  0  0  0
  -28.0780  -25.2310   20.6350 C   0  0  0  0  0  2  0  0  0  0  0  0
  -28.4280  -26.5930   20.1050 O   0  0  0  0  0  0  0  0  0  0  0  0
  -24.6950  -31.9780   23.2430 C   0  0  0  0  0  0  0  0  0  0  0  0
  -27.3530  -27.5060   20.0780 C   0  0  0  0  0  0  0  0  0  0  0  0
  -23.5030  -30.5850   21.5910 C   0  0  0  0  0  3  0  0  0  0  0  0
  -24.9720  -29.1010   20.1070 C   0  0  0  0  0  0  0  0  0  0  0  0
  -26.0360  -30.9560   21.3850 C   0  0  0  0  0  2  0  0  0  0  0  0
  -26.1380  -29.5910   20.7080 C   0  0  0  0  0  0  0  0  0  0  0  0
  -27.3370  -28.8090   20.6830 C   0  0  0  0  0  3  0  0  0  0  0  0
  -26.1710  -27.0920   19.4280 C   0  0  0  0  0  3  0  0  0  0  0  0
  -24.9930  -27.8600   19.4520 C   0  0  0  0  0  3  0  0  0  0  0  0
  -23.7150  -29.9440   20.1940 C   0  0  0  0  0  2  0  0  0  0  0  0
  -24.7650  -31.1880   22.1310 N   0  0  0  0  0  0  0  0  0  0  0  0
  -23.6130  -32.2200   23.7950 O   0  0  0  0  0  0  0  0  0  0  0  0
  -22.8750  -29.5350   22.5390 C   0  0  0  0  0  0  0  0  0  0  0  0
  -21.5550  -29.3150   22.4130 N   0  0  0  0  0  0  0  0  0  0  0  0
  -23.5750  -28.9210   23.3490 O   0  0  0  0  0  0  0  0  0  0  0  0
  -21.0470  -29.8660   21.7340 H   0  0  0  0  0  0  0  0  0  0  0  0
  -18.2350  -27.9520   22.8540 C   0  0  0  0  0  0  0  0  0  0  0  0
  -20.7710  -28.3380   23.1700 C   0  0  0  0  0  3  0  0  0  0  0  0
  -20.9530  -26.9130   22.5990 C   0  0  0  0  0  2  0  0  0  0  0  0
  -19.8900  -26.5400   21.5620 C   0  0  0  0  0  2  0  0  0  0  0  0
  -18.4910  -26.6130   22.1830 C   0  0  0  0  0  2  0  0  0  0  0  0
  -19.3060  -28.7700   23.3020 C   0  0  0  0  0  0  0  0  0  0  0  0
  -19.0110  -30.0210   23.8860 C   0  0  0  0  0  3  0  0  0  0  0  0
  -17.6800  -30.4570   24.0240 C   0  0  0  0  0  3  0  0  0  0  0  0
  -16.6240  -29.6350   23.5930 C   0  0  0  0  0  3  0  0  0  0  0  0
  -16.9030  -28.3840   23.0150 C   0  0  0  0  0  3  0  0  0  0  0  0
  -25.9710  -32.6280   23.8610 C   0  0  0  0  0  3  0  0  0  0  0  0
  -26.5070  -31.8600   25.1310 C   0  0  1  0  0  0  0  0  0  0  0  0
  -25.4200  -31.5780   26.1930 C   0  0  0  0  0  1  0  0  0  0  0  0
  -27.1330  -30.5050   24.7280 C   0  0  0  0  0  1  0  0  0  0  0  0
  -27.6340  -32.6800   25.8040 C   0  0  0  0  0  1  0  0  0  0  0  0
  -25.6410  -34.0200   24.2000 N   0  0  0  0  0  0  0  0  0  0  0  0
  -25.9550  -35.0830   23.4470 C   0  0  0  0  0  0  0  0  0  0  0  0
  -26.6220  -34.9970   22.4130 O   0  0  0  0  0  0  0  0  0  0  0  0
  -25.0460  -34.1610   25.0040 H   0  0  0  0  0  0  0  0  0  0  0  0
  -24.1990  -36.8540   23.1130 C   0  0  0  0  0  1  0  0  0  0  0  0
  -25.4490  -36.4600   23.9170 C   0  0  0  0  0  3  0  0  0  0  0  0
  -27.5710  -37.3750   24.7500 C   0  0  0  0  0  1  0  0  0  0  0  0
  -26.4660  -37.5290   23.8060 N   0  0  0  0  0  0  0  0  0  0  0  0
  -26.0470  -38.4430   23.9560 H   0  0  0  0  0  0  0  0  0  0  0  0
  2  5  1  0
  3 48  1  0
  3  1  2  0
  4  2  2  0
  4  3  1  0
  5  7  1  0
  5  1  1  0
  7  6  1  0
  8  9  1  0
  8  7  1  0
 10 18  1  0
 11 16  1  0
 12 13  1  0
 12 11  1  0
 14 13  1  0
 14 23  1  0
 14 15  1  0
 16 10  1  0
 16 15  1  0
 17 10  2  0
 18 19  1  0
 18  9  1  0
 20 21  2  0
 21 40  1  0
 22 21  1  0
 22 25  1  0
 23 24  1  0
 23 20  1  0
 24 22  2  0
 25 26  1  0
 26 27  2  0
 28 31  1  0
 28 27  1  0
 29 28  2  0
 30 29  1  0
 30 25  2  0
 31 32  1  0
 32 37  2  0
 32 33  1  0
 33 34  2  0
 34 35  1  0
 35 39  1  0
 36 35  2  0
 37 36  1  0
 38 37  1  0
 40 41  1  0
 41 44  1  0
 41 43  1  0
 42 40  2  0
 45 46  1  0
 45 20  1  0
 47 45  1  0
 49 48  1  0
 50 61  2  0
 51 49  1  0
 51 56  1  0
 52 60  1  0
 52 62  1  0
 53 59  1  0
 53 55  1  0
 54 60  1  0
 55 54  1  0
 56 55  2  0
 57 58  1  0
 57 51  2  0
 58 53  2  0
 59 52  1  0
 60 50  1  0
 62 64  2  0
 63 62  1  0
 65 63  1  0
 66 75  2  0
 66 71  1  0
 67 63  1  0
 67 71  1  0
 68 67  1  0
 69 70  1  0
 69 68  1  0
 70 66  1  0
 71 72  2  0
 72 73  1  0
 74 73  2  0
 75 74  1  0
 76 50  1  0
 76 81  1  0
 76 77  1  0
 77 80  1  1
 77 78  1  0
 79 77  1  0
 81 84  1  0
 82 86  1  0
 82 81  1  0
 83 82  2  0
 86 85  1  0
 88 86  1  0
 88 89  1  0
 88 87  1  0
M  ISO  4  10 100  18 100  48 101  49 101
M  END
>  <TORSDO>  (88) 
F 20

>  <SCORE>  (88) 
-11.602

>  <name>  (88) 
88

>  <ligand_id>  (88) 
88

>  <original_smiles>  (88) 
[H]c1c([H])c([H])c2c(c1[H])C([H])([H])C([H])([H])C([H])([H])C2([H])N([H])C(=O)C1([H])N(C(=O)C([H])(N([H])C(=O)C([H])(N([H])C([H])([H])[H])C([H])([H])[H])C(C([H])([H])[H])(C([H])([H])[H])C([H])([H])[H])C([H])([H])c2c([H])c(OC([H])([H])c3nc([H])n(C([H])(C([H])([H])[H])C([H])([H])C([H])([H])N([H])C(=O)N4C([H])([H])C([H])([H])C([H])([H])C([H])(n5nc(-c6c([H])c([H])c(Oc7c([H])c([H])c(F)c([H])c7F)c([H])c6[H])c(C(=O)N([H])[H])c5N([H])[H])C4([H])[H])c3[H])c([H])c([H])c2C1([H])[H]

>  <smiles>  (88) 
[H]c1c([H])c([H])c2c(c1[H])C([H])([H])C([H])([H])C([H])([H])C2([H])N([H])C(=O)C1([H])N(C(=O)C([H])(N([H])C(=O)C([H])(N([H])C([H])([H])[H])C([H])([H])[H])C(C([H])([H])[H])(C([H])([H])[H])C([H])([H])[H])C([H])([H])c2c([H])c(OC([H])([H])c3nc([H])n(C([H])(C([H])([H])[H])C([H])([H])C([H])([H])N([H])C(=O)N4C([H])([H])C([H])([H])C([H])([H])C([H])(n5nc(-c6c([H])c([H])c(Oc7c([H])c([H])c(F)c([H])c7F)c([H])c6[H])c(C(=O)N([H])[H])c5N([H])[H])C4([H])[H])c3[H])c([H])c([H])c2C1([H])[H]

$$$$
89:0:0
     RDKit          3D

 97105  0  0  1  0  0  0  0  0999 V2000
  -28.2880  -21.6340   19.7650 C   0  0  0  0  0  3  0  0  0  0  0  0
  -29.3080  -21.7920   20.6630 C   0  0  0  0  0  0  0  0  0  0  0  0
  -29.0540  -19.5700   20.2160 C   0  0  0  0  0  3  0  0  0  0  0  0
  -28.1420  -20.2890   19.5130 N   0  0  0  0  0  0  0  0  0  0  0  0
  -29.7490  -20.4950   20.9180 N   0  0  0  0  0  0  0  0  0  0  0  0
  -30.5160  -20.2690   21.5420 H   0  0  0  0  0  0  0  0  0  0  0  0
  -29.8830  -17.7190   18.7090 C   0  0  0  0  0  1  0  0  0  0  0  0
  -29.2820  -18.0360   20.0890 C   0  0  0  0  0  3  0  0  0  0  0  0
  -30.0580  -17.2320   21.1990 C   0  0  0  0  0  2  0  0  0  0  0  0
  -30.6180  -14.7540   20.6200 C   0  0  0  0  0  0  0  0  0  0  0  0
  -30.4140  -12.6000   19.4100 C   0  0  0  0  0  2  0  0  0  0  0  0
  -29.4840  -12.8120   18.1950 C   0  0  0  0  0  2  0  0  0  0  0  0
  -28.0040  -12.6300   18.5910 C   0  0  0  0  0  2  0  0  0  0  0  0
  -27.6330  -13.4140   19.8770 C   0  0  0  0  0  3  0  0  0  0  0  0
  -28.6750  -13.1820   20.9930 C   0  0  0  0  0  2  0  0  0  0  0  0
  -29.9970  -13.5490   20.4570 N   0  0  0  0  0  0  0  0  0  0  0  0
  -31.7570  -14.9690   20.1960 O   0  0  0  0  0  0  0  0  0  0  0  0
  -29.8390  -15.7500   21.1160 N   0  0  0  0  0  0  0  0  0  0  0  0
  -28.9390  -15.4330   21.4440 H   0  0  0  0  0  0  0  0  0  0  0  0
  -25.2100  -13.9680   20.5360 C   0  0  0  0  0  0  0  0  0  0  0  0
  -24.1520  -13.1750   20.8900 C   0  0  0  0  0  0  0  0  0  0  0  0
  -24.6430  -11.8340   20.8760 C   0  0  0  0  0  0  0  0  0  0  0  0
  -26.2770  -13.1080   20.3280 N   0  0  0  0  0  0  0  0  0  0  0  0
  -25.9400  -11.8200   20.5930 N   0  0  0  0  0  0  0  0  0  0  0  0
  -23.9410  -10.5570   21.0620 C   0  0  0  0  0  0  0  0  0  0  0  0
  -24.3690   -9.6120   22.0190 C   0  0  0  0  0  3  0  0  0  0  0  0
  -23.6700   -8.3980   22.1910 C   0  0  0  0  0  3  0  0  0  0  0  0
  -22.5280   -8.1200   21.4040 C   0  0  0  0  0  0  0  0  0  0  0  0
  -22.1190   -9.0550   20.4360 C   0  0  0  0  0  3  0  0  0  0  0  0
  -22.8200  -10.2600   20.2630 C   0  0  0  0  0  3  0  0  0  0  0  0
  -21.8010   -6.9570   21.4810 O   0  0  0  0  0  0  0  0  0  0  0  0
  -21.7260   -6.2290   22.6420 C   0  0  0  0  0  0  0  0  0  0  0  0
  -21.2330   -6.7880   23.8400 C   0  0  0  0  0  3  0  0  0  0  0  0
  -21.1090   -5.9870   24.9920 C   0  0  0  0  0  3  0  0  0  0  0  0
  -21.4690   -4.6270   24.9460 C   0  0  0  0  0  0  0  0  0  0  0  0
  -21.9510   -4.0650   23.7500 C   0  0  0  0  0  3  0  0  0  0  0  0
  -22.0770   -4.8650   22.6010 C   0  0  0  0  0  0  0  0  0  0  0  0
  -22.5250   -4.3150   21.4470 F   0  0  0  0  0  0  0  0  0  0  0  0
  -21.3420   -3.8530   26.0490 F   0  0  0  0  0  0  0  0  0  0  0  0
  -22.7390  -13.6240   21.1310 C   0  0  0  0  0  0  0  0  0  0  0  0
  -22.0070  -12.9150   21.9840 N   0  0  0  0  0  0  0  0  0  0  0  0
  -22.2900  -14.6370   20.5970 O   0  0  0  0  0  0  0  0  0  0  0  0
  -22.3830  -12.0990   22.4420 H   0  0  0  0  0  0  0  0  0  0  0  0
  -21.0570  -13.1940   22.1810 H   0  0  0  0  0  0  0  0  0  0  0  0
  -25.3590  -15.3390   20.3520 N   0  0  0  0  0  0  0  0  0  0  0  0
  -24.5800  -15.9820   20.4060 H   0  0  0  0  0  0  0  0  0  0  0  0
  -26.2090  -15.7640   20.0080 H   0  0  0  0  0  0  0  0  0  0  0  0
  -29.8710  -23.0640   21.2940 C   0  0  0  0  0  2  0  0  0  0  0  0
  -29.6870  -24.4200   20.5080 C   0  0  0  0  0  2  0  0  0  0  0  0
  -28.5200  -25.3730   20.9320 C   0  0  0  0  0  2  0  0  0  0  0  0
  -28.6400  -26.7410   20.4300 O   0  0  0  0  0  0  0  0  0  0  0  0
  -24.6690  -31.9770   23.3000 C   0  0  0  0  0  0  0  0  0  0  0  0
  -27.4770  -27.5020   20.3800 C   0  0  0  0  0  0  0  0  0  0  0  0
  -23.5410  -30.5270   21.6470 C   0  0  0  0  0  3  0  0  0  0  0  0
  -25.0680  -29.0040   20.2760 C   0  0  0  0  0  0  0  0  0  0  0  0
  -26.0680  -30.9280   21.5150 C   0  0  0  0  0  2  0  0  0  0  0  0
  -26.2000  -29.5450   20.8990 C   0  0  0  0  0  0  0  0  0  0  0  0
  -27.4110  -28.8030   20.9420 C   0  0  0  0  0  3  0  0  0  0  0  0
  -26.3290  -26.9940   19.7340 C   0  0  0  0  0  3  0  0  0  0  0  0
  -25.1310  -27.7320   19.6830 C   0  0  0  0  0  3  0  0  0  0  0  0
  -23.8070  -29.8460   20.2770 C   0  0  0  0  0  2  0  0  0  0  0  0
  -24.7770  -31.1630   22.2110 N   0  0  0  0  0  0  0  0  0  0  0  0
  -23.5660  -32.2300   23.8060 O   0  0  0  0  0  0  0  0  0  0  0  0
  -22.8870  -29.5030   22.6020 C   0  0  0  0  0  0  0  0  0  0  0  0
  -21.5680  -29.2940   22.4530 N   0  0  0  0  0  0  0  0  0  0  0  0
  -23.5630  -28.8990   23.4400 O   0  0  0  0  0  0  0  0  0  0  0  0
  -21.0800  -29.8370   21.7540 H   0  0  0  0  0  0  0  0  0  0  0  0
  -18.2010  -28.0660   22.9190 C   0  0  0  0  0  0  0  0  0  0  0  0
  -20.7530  -28.3510   23.2180 C   0  0  0  0  0  3  0  0  0  0  0  0
  -20.8780  -26.9200   22.6450 C   0  0  0  0  0  2  0  0  0  0  0  0
  -19.7880  -26.5840   21.6210 C   0  0  0  0  0  2  0  0  0  0  0  0
  -18.3990  -26.7180   22.2500 C   0  0  0  0  0  2  0  0  0  0  0  0
  -19.3070  -28.8400   23.3610 C   0  0  0  0  0  0  0  0  0  0  0  0
  -19.0700  -30.1020   23.9470 C   0  0  0  0  0  3  0  0  0  0  0  0
  -17.7570  -30.5900   24.1000 C   0  0  0  0  0  3  0  0  0  0  0  0
  -16.6660  -29.8130   23.6740 C   0  0  0  0  0  3  0  0  0  0  0  0
  -16.8890  -28.5550   23.0880 C   0  0  0  0  0  3  0  0  0  0  0  0
  -25.9200  -32.6500   23.9430 C   0  0  0  0  0  3  0  0  0  0  0  0
  -25.5690  -34.0450   24.2450 N   0  0  0  0  0  0  0  0  0  0  0  0
  -25.8900  -35.0930   23.4750 C   0  0  0  0  0  0  0  0  0  0  0  0
  -26.5860  -34.9910   22.4600 O   0  0  0  0  0  0  0  0  0  0  0  0
  -24.9550  -34.1940   25.0330 H   0  0  0  0  0  0  0  0  0  0  0  0
  -24.1200  -36.8310   23.0590 C   0  0  0  0  0  1  0  0  0  0  0  0
  -25.3570  -36.4760   23.8980 C   0  0  0  0  0  3  0  0  0  0  0  0
  -27.4530  -37.4360   24.7470 C   0  0  0  0  0  1  0  0  0  0  0  0
  -26.3620  -37.5550   23.7830 N   0  0  0  0  0  0  0  0  0  0  0  0
  -25.9280  -38.4670   23.9080 H   0  0  0  0  0  0  0  0  0  0  0  0
  -26.4230  -31.9100   25.2430 C   0  0  1  0  0  0  0  0  0  0  0  0
  -25.3060  -31.6350   26.2770 C   0  0  0  0  0  1  0  0  0  0  0  0
  -27.0740  -30.5550   24.8760 C   0  0  0  0  0  1  0  0  0  0  0  0
  -27.5180  -32.7530   25.9370 C   0  0  0  0  0  1  0  0  0  0  0  0
  -27.1800  -19.7390   18.5300 C   0  0  0  0  0  2  0  0  0  0  0  0
  -26.1290  -20.7770   18.0630 C   0  0  0  0  0  2  0  0  0  0  0  0
  -24.4140  -21.5220   16.3940 C   0  0  0  0  0  1  0  0  0  0  0  0
  -23.9930  -19.4350   17.7040 C   0  0  0  0  0  1  0  0  0  0  0  0
  -25.7460  -19.4700   15.9000 C   0  0  0  0  0  1  0  0  0  0  0  0
  -25.0830  -20.2860   17.0260 C   0  0  2  0  0  0  0  0  0  0  0  0
  1  2  2  0
  2  5  1  0
  2 48  1  0
  3  8  1  0
  3  5  1  0
  4  1  1  0
  4  3  1  0
  5  6  1  0
  8  7  1  0
  8  9  1  0
 10 18  1  0
 11 16  1  0
 12 13  1  0
 12 11  1  0
 14 13  1  0
 14 23  1  0
 14 15  1  0
 16 10  1  0
 16 15  1  0
 17 10  2  0
 18  9  1  0
 18 19  1  0
 20 21  2  0
 21 40  1  0
 22 21  1  0
 22 25  1  0
 23 20  1  0
 23 24  1  0
 24 22  2  0
 25 26  1  0
 26 27  2  0
 28 31  1  0
 28 27  1  0
 29 28  2  0
 30 29  1  0
 30 25  2  0
 31 32  1  0
 32 33  1  0
 33 34  2  0
 35 34  1  0
 35 39  1  0
 36 35  2  0
 37 32  2  0
 37 36  1  0
 38 37  1  0
 40 41  1  0
 41 44  1  0
 41 43  1  0
 42 40  2  0
 45 46  1  0
 45 20  1  0
 47 45  1  0
 49 50  1  0
 49 48  1  0
 51 50  1  0
 52 63  2  0
 53 51  1  0
 53 58  1  0
 54 62  1  0
 54 64  1  0
 55 61  1  0
 55 57  1  0
 56 62  1  0
 57 58  2  0
 57 56  1  0
 59 53  2  0
 60 59  1  0
 60 55  2  0
 61 54  1  0
 62 52  1  0
 64 66  2  0
 65 64  1  0
 67 65  1  0
 68 77  2  0
 68 73  1  0
 69 65  1  0
 69 73  1  0
 70 69  1  0
 71 72  1  0
 71 70  1  0
 72 68  1  0
 73 74  2  0
 74 75  1  0
 76 75  2  0
 77 76  1  0
 78 52  1  0
 78 79  1  0
 78 88  1  0
 79 82  1  0
 80 84  1  0
 80 79  1  0
 81 80  2  0
 84 83  1  0
 86 84  1  0
 86 87  1  0
 86 85  1  0
 88 91  1  1
 88 89  1  0
 90 88  1  0
 92  4  1  0
 93 92  1  0
 97 94  1  6
 96 97  1  0
 97 95  1  0
 97 93  1  0
M  ISO  4  10 100  18 100  50 101  51 101
M  END
>  <TORSDO>  (89) 
F 24

>  <SCORE>  (89) 
-10.395

>  <name>  (89) 
89

>  <ligand_id>  (89) 
89

>  <original_smiles>  (89) 
[H]c1c([H])c([H])c2c(c1[H])C([H])([H])C([H])([H])C([H])([H])C2([H])N([H])C(=O)C1([H])N(C(=O)C([H])(N([H])C(=O)C([H])(N([H])C([H])([H])[H])C([H])([H])[H])C(C([H])([H])[H])(C([H])([H])[H])C([H])([H])[H])C([H])([H])c2c([H])c(OC([H])([H])C([H])([H])C([H])([H])c3c([H])n(C([H])([H])C([H])([H])C(C([H])([H])[H])(C([H])([H])[H])C([H])([H])[H])c(C([H])(C([H])([H])[H])C([H])([H])N([H])C(=O)N4C([H])([H])C([H])([H])C([H])([H])C([H])(n5nc(-c6c([H])c([H])c(Oc7c([H])c([H])c(F)c([H])c7F)c([H])c6[H])c(C(=O)N([H])[H])c5N([H])[H])C4([H])[H])[n+]3[H])c([H])c([H])c2C1([H])[H]

>  <smiles>  (89) 
[H]c1c([H])c([H])c2c(c1[H])C([H])([H])C([H])([H])C([H])([H])C2([H])N([H])C(=O)C1([H])N(C(=O)C([H])(N([H])C(=O)C([H])(N([H])C([H])([H])[H])C([H])([H])[H])C(C([H])([H])[H])(C([H])([H])[H])C([H])([H])[H])C([H])([H])c2c([H])c(OC([H])([H])C([H])([H])C([H])([H])c3c([H])n(C([H])([H])C([H])([H])C(C([H])([H])[H])(C([H])([H])[H])C([H])([H])[H])c(C([H])(C([H])([H])[H])C([H])([H])N([H])C(=O)N4C([H])([H])C([H])([H])C([H])([H])C([H])(n5nc(-c6c([H])c([H])c(Oc7c([H])c([H])c(F)c([H])c7F)c([H])c6[H])c(C(=O)N([H])[H])c5N([H])[H])C4([H])[H])[n+]3[H])c([H])c([H])c2C1([H])[H]

$$$$
90:0:0
     RDKit          3D

 88 96  0  0  1  0  0  0  0  0999 V2000
  -29.2770  -20.3900   20.4260 C   0  0  0  0  0  3  0  0  0  0  0  0
  -29.5430  -19.3450   18.1200 C   0  0  0  0  0  3  0  0  0  0  0  0
  -29.7580  -18.1100   17.4780 C   0  0  0  0  0  3  0  0  0  0  0  0
  -29.5360  -19.1060   19.4720 C   0  0  0  0  0  0  0  0  0  0  0  0
  -29.8830  -17.1250   18.3340 N   0  0  0  0  0  0  0  0  0  0  0  0
  -29.8020  -17.6340   19.5940 N   0  0  0  0  0  0  0  0  0  0  0  0
  -29.8890  -16.4820   20.6530 C   0  0  0  0  0  3  0  0  0  0  0  0
  -28.6470  -16.2660   21.0960 F   0  0  0  0  0  0  0  0  0  0  0  0
  -30.6220  -15.0090   20.3330 C   0  0  0  0  0  0  0  0  0  0  0  0
  -30.5030  -12.6660   19.3760 C   0  0  0  0  0  2  0  0  0  0  0  0
  -29.5770  -12.6680   18.1340 C   0  0  0  0  0  2  0  0  0  0  0  0
  -28.1050  -12.4690   18.5440 C   0  0  0  0  0  2  0  0  0  0  0  0
  -27.7020  -13.3670   19.7430 C   0  0  0  0  0  3  0  0  0  0  0  0
  -28.7490  -13.3240   20.8740 C   0  0  0  0  0  2  0  0  0  0  0  0
  -30.0320  -13.7440   20.2940 N   0  0  0  0  0  0  0  0  0  0  0  0
  -31.8220  -15.0350   20.0210 O   0  0  0  0  0  0  0  0  0  0  0  0
  -25.3030  -13.9360   20.4350 C   0  0  0  0  0  0  0  0  0  0  0  0
  -24.2380  -13.1570   20.7950 C   0  0  0  0  0  0  0  0  0  0  0  0
  -24.7140  -11.8090   20.7940 C   0  0  0  0  0  0  0  0  0  0  0  0
  -26.3570  -13.0640   20.2260 N   0  0  0  0  0  0  0  0  0  0  0  0
  -26.0100  -11.7800   20.5060 N   0  0  0  0  0  0  0  0  0  0  0  0
  -23.9930  -10.5440   20.9920 C   0  0  0  0  0  0  0  0  0  0  0  0
  -24.4190   -9.5900   21.9420 C   0  0  0  0  0  3  0  0  0  0  0  0
  -23.6970   -8.3920   22.1270 C   0  0  0  0  0  3  0  0  0  0  0  0
  -22.5360   -8.1370   21.3570 C   0  0  0  0  0  0  0  0  0  0  0  0
  -22.1310   -9.0800   20.3950 C   0  0  0  0  0  3  0  0  0  0  0  0
  -22.8540  -10.2700   20.2100 C   0  0  0  0  0  3  0  0  0  0  0  0
  -21.7880   -6.9900   21.4490 O   0  0  0  0  0  0  0  0  0  0  0  0
  -21.7260   -6.2580   22.6080 C   0  0  0  0  0  0  0  0  0  0  0  0
  -21.2780   -6.8230   23.8230 C   0  0  0  0  0  3  0  0  0  0  0  0
  -21.1690   -6.0210   24.9750 C   0  0  0  0  0  3  0  0  0  0  0  0
  -21.4940   -4.6530   24.9120 C   0  0  0  0  0  0  0  0  0  0  0  0
  -21.9350   -4.0860   23.7040 C   0  0  0  0  0  3  0  0  0  0  0  0
  -22.0480   -4.8870   22.5550 C   0  0  0  0  0  0  0  0  0  0  0  0
  -22.4550   -4.3320   21.3870 F   0  0  0  0  0  0  0  0  0  0  0  0
  -21.3790   -3.8800   26.0190 F   0  0  0  0  0  0  0  0  0  0  0  0
  -22.8320  -13.6260   21.0340 C   0  0  0  0  0  0  0  0  0  0  0  0
  -22.0940  -12.9370   21.8970 N   0  0  0  0  0  0  0  0  0  0  0  0
  -22.3940  -14.6400   20.4920 O   0  0  0  0  0  0  0  0  0  0  0  0
  -22.4650  -12.1170   22.3560 H   0  0  0  0  0  0  0  0  0  0  0  0
  -21.1500  -13.2310   22.1010 H   0  0  0  0  0  0  0  0  0  0  0  0
  -25.4630  -15.3060   20.2460 N   0  0  0  0  0  0  0  0  0  0  0  0
  -24.7030  -15.9690   20.3510 H   0  0  0  0  0  0  0  0  0  0  0  0
  -26.3500  -15.7480   20.0300 H   0  0  0  0  0  0  0  0  0  0  0  0
  -28.8690  -21.8950   19.7730 C   0  0  0  0  0  3  0  0  0  0  0  0
  -28.7970  -23.3940   20.5280 C   0  0  0  0  0  3  0  0  0  0  0  0
  -28.0840  -24.7640   19.8740 C   0  0  0  0  0  3  0  0  0  0  0  0
  -28.2290  -26.2440   20.3310 O   0  0  0  0  0  0  0  0  0  0  0  0
  -24.5930  -31.9330   23.2900 C   0  0  0  0  0  0  0  0  0  0  0  0
  -27.1700  -27.2190   20.2450 C   0  0  0  0  0  0  0  0  0  0  0  0
  -23.3940  -30.5360   21.6540 C   0  0  0  0  0  3  0  0  0  0  0  0
  -24.8410  -28.9600   20.2310 C   0  0  0  0  0  0  0  0  0  0  0  0
  -25.9510  -30.7950   21.4960 C   0  0  0  0  0  2  0  0  0  0  0  0
  -26.0200  -29.4030   20.8400 C   0  0  0  0  0  0  0  0  0  0  0  0
  -27.1830  -28.5460   20.8360 C   0  0  0  0  0  3  0  0  0  0  0  0
  -25.9670  -26.8870   19.5810 C   0  0  0  0  0  3  0  0  0  0  0  0
  -24.8260  -27.7140   19.5900 C   0  0  0  0  0  3  0  0  0  0  0  0
  -23.6140  -29.8560   20.2780 C   0  0  0  0  0  2  0  0  0  0  0  0
  -24.6660  -31.1090   22.2010 N   0  0  0  0  0  0  0  0  0  0  0  0
  -23.5070  -32.2220   23.8140 O   0  0  0  0  0  0  0  0  0  0  0  0
  -22.7110  -29.5310   22.6130 C   0  0  0  0  0  0  0  0  0  0  0  0
  -21.3850  -29.3540   22.4740 N   0  0  0  0  0  0  0  0  0  0  0  0
  -23.3780  -28.9100   23.4460 O   0  0  0  0  0  0  0  0  0  0  0  0
  -20.9040  -29.9070   21.7780 H   0  0  0  0  0  0  0  0  0  0  0  0
  -18.0040  -28.1390   22.9430 C   0  0  0  0  0  0  0  0  0  0  0  0
  -20.5590  -28.4180   23.2420 C   0  0  0  0  0  3  0  0  0  0  0  0
  -20.6760  -26.9810   22.6840 C   0  0  0  0  0  2  0  0  0  0  0  0
  -19.5910  -26.6400   21.6580 C   0  0  0  0  0  2  0  0  0  0  0  0
  -18.1990  -26.7840   22.2820 C   0  0  0  0  0  2  0  0  0  0  0  0
  -19.1130  -28.9130   23.3790 C   0  0  0  0  0  0  0  0  0  0  0  0
  -18.8780  -30.1780   23.9570 C   0  0  0  0  0  3  0  0  0  0  0  0
  -17.5680  -30.6730   24.1030 C   0  0  0  0  0  3  0  0  0  0  0  0
  -16.4740  -29.8970   23.6850 C   0  0  0  0  0  3  0  0  0  0  0  0
  -16.6930  -28.6310   23.1110 C   0  0  0  0  0  3  0  0  0  0  0  0
  -25.8710  -32.5690   23.9180 C   0  0  0  0  0  3  0  0  0  0  0  0
  -25.5690  -33.9750   24.2240 N   0  0  0  0  0  0  0  0  0  0  0  0
  -25.9180  -35.0160   23.4570 C   0  0  0  0  0  0  0  0  0  0  0  0
  -26.5950  -34.8920   22.4330 O   0  0  0  0  0  0  0  0  0  0  0  0
  -24.9690  -34.1480   25.0190 H   0  0  0  0  0  0  0  0  0  0  0  0
  -24.2140  -36.8240   23.0610 C   0  0  0  0  0  1  0  0  0  0  0  0
  -25.4410  -36.4180   23.8910 C   0  0  0  0  0  3  0  0  0  0  0  0
  -27.5770  -37.2880   24.7350 C   0  0  0  0  0  1  0  0  0  0  0  0
  -26.4880  -37.4580   23.7780 N   0  0  0  0  0  0  0  0  0  0  0  0
  -26.0910  -38.3850   23.9100 H   0  0  0  0  0  0  0  0  0  0  0  0
  -26.3620  -31.8170   25.2160 C   0  0  1  0  0  0  0  0  0  0  0  0
  -25.2530  -31.6100   26.2740 C   0  0  0  0  0  1  0  0  0  0  0  0
  -26.9360  -30.4270   24.8650 C   0  0  0  0  0  1  0  0  0  0  0  0
  -27.5150  -32.6100   25.8770 C   0  0  0  0  0  1  0  0  0  0  0  0
  2  4  2  0
  3  2  1  0
  3  5  2  0
  4  6  1  0
  4  1  1  0
  5  6  1  0
  6  7  1  0
  7  8  1  0
  9  7  1  0
 10 15  1  0
 11 12  1  0
 11 10  1  0
 13 12  1  0
 13 20  1  0
 13 14  1  0
 15  9  1  0
 15 14  1  0
 16  9  2  0
 17 18  2  0
 18 37  1  0
 19 18  1  0
 19 22  1  0
 20 17  1  0
 20 21  1  0
 21 19  2  0
 22 23  1  0
 23 24  2  0
 25 28  1  0
 25 24  1  0
 26 25  2  0
 27 26  1  0
 27 22  2  0
 28 29  1  0
 29 30  1  0
 30 31  2  0
 32 31  1  0
 32 36  1  0
 33 32  2  0
 34 29  2  0
 34 33  1  0
 35 34  1  0
 37 38  1  0
 38 41  1  0
 38 40  1  0
 39 37  2  0
 42 43  1  0
 42 17  1  0
 44 42  1  0
 45  1  2  0
 45 46  1  0
 47 48  1  0
 47 46  2  0
 49 60  2  0
 50 48  1  0
 50 55  1  0
 51 59  1  0
 51 61  1  0
 52 58  1  0
 52 54  1  0
 53 59  1  0
 54 53  1  0
 55 54  2  0
 56 57  1  0
 56 50  2  0
 57 52  2  0
 58 51  1  0
 59 49  1  0
 61 63  2  0
 62 61  1  0
 64 62  1  0
 65 74  2  0
 65 70  1  0
 66 62  1  0
 66 70  1  0
 67 66  1  0
 68 69  1  0
 68 67  1  0
 69 65  1  0
 70 71  2  0
 71 72  1  0
 73 72  2  0
 74 73  1  0
 75 49  1  0
 75 76  1  0
 75 85  1  0
 76 79  1  0
 77 81  1  0
 77 76  1  0
 78 77  2  0
 81 80  1  0
 83 81  1  0
 83 84  1  0
 83 82  1  0
 85 88  1  1
 85 86  1  0
 87 85  1  0
M  ISO  4   7 100   9 100  47 101  48 101
M  END
>  <TORSDO>  (90) 
F 21

>  <SCORE>  (90) 
-13.131

>  <name>  (90) 
90

>  <ligand_id>  (90) 
90

>  <original_smiles>  (90) 
[H]c1nn(C([H])(F)C(=O)N2C([H])([H])C([H])([H])C([H])([H])C([H])(n3nc(-c4c([H])c([H])c(Oc5c([H])c([H])c(F)c([H])c5F)c([H])c4[H])c(C(=O)N([H])[H])c3N([H])[H])C2([H])[H])c(C([H])([H])C([H])([H])C([H])([H])C([H])([H])Oc2c([H])c([H])c3c(c2[H])C([H])([H])N(C(=O)C([H])(N([H])C(=O)C([H])(N([H])C([H])([H])[H])C([H])([H])[H])C(C([H])([H])[H])(C([H])([H])[H])C([H])([H])[H])C([H])(C(=O)N([H])C2([H])c4c([H])c([H])c([H])c([H])c4C([H])([H])C([H])([H])C2([H])[H])C3([H])[H])c1[H]

>  <smiles>  (90) 
[H]c1nn(C([H])(F)C(=O)N2C([H])([H])C([H])([H])C([H])([H])C([H])(n3nc(-c4c([H])c([H])c(Oc5c([H])c([H])c(F)c([H])c5F)c([H])c4[H])c(C(=O)N([H])[H])c3N([H])[H])C2([H])[H])c(C([H])([H])C([H])([H])C([H])([H])C([H])([H])Oc2c([H])c([H])c3c(c2[H])C([H])([H])N(C(=O)C([H])(N([H])C(=O)C([H])(N([H])C([H])([H])[H])C([H])([H])[H])C(C([H])([H])[H])(C([H])([H])[H])C([H])([H])[H])C([H])(C(=O)N([H])C2([H])c4c([H])c([H])c([H])c([H])c4C([H])([H])C([H])([H])C2([H])[H])C3([H])[H])c1[H]

$$$$
91:0:0
     RDKit          3D

 90 98  0  0  1  0  0  0  0  0999 V2000
  -29.3390  -20.0290   21.3020 C   0  0  0  0  0  2  0  0  0  0  0  0
  -29.5310  -20.8560   20.1670 C   0  0  0  0  0  3  0  0  0  0  0  0
  -30.2390  -20.1350   19.1610 C   0  0  0  0  0  0  0  0  0  0  0  0
  -30.1510  -18.0240   20.2850 C   0  0  0  0  0  0  0  0  0  0  0  0
  -30.6260  -20.7980   17.8550 C   0  0  0  0  0  1  0  0  0  0  0  0
  -29.6560  -18.6940   21.3540 N   0  0  0  0  0  0  0  0  0  0  0  0
  -30.5310  -18.7910   19.2390 N   0  0  0  0  0  0  0  0  0  0  0  0
  -29.1530  -16.4960   18.5580 C   0  0  0  0  0  1  0  0  0  0  0  0
  -28.4320  -16.3410   20.9600 C   0  0  0  0  0  1  0  0  0  0  0  0
  -29.6740  -16.4580   20.0310 C   0  0  2  0  0  0  0  0  0  0  0  0
  -30.6010  -15.0570   20.1050 C   0  0  0  0  0  0  0  0  0  0  0  0
  -30.5430  -12.6900   19.2000 C   0  0  0  0  0  2  0  0  0  0  0  0
  -29.5620  -12.6210   18.0000 C   0  0  0  0  0  2  0  0  0  0  0  0
  -28.0940  -12.4250   18.4510 C   0  0  0  0  0  2  0  0  0  0  0  0
  -27.7200  -13.3100   19.6630 C   0  0  0  0  0  3  0  0  0  0  0  0
  -28.8280  -13.2550   20.7450 C   0  0  0  0  0  2  0  0  0  0  0  0
  -30.0710  -13.7570   20.1280 N   0  0  0  0  0  0  0  0  0  0  0  0
  -31.8120  -15.1320   19.8540 O   0  0  0  0  0  0  0  0  0  0  0  0
  -25.3510  -13.9420   20.4270 C   0  0  0  0  0  0  0  0  0  0  0  0
  -24.2910  -13.1820   20.8230 C   0  0  0  0  0  0  0  0  0  0  0  0
  -24.7420  -11.8280   20.7760 C   0  0  0  0  0  0  0  0  0  0  0  0
  -26.3880  -13.0490   20.1820 N   0  0  0  0  0  0  0  0  0  0  0  0
  -26.0260  -11.7730   20.4460 N   0  0  0  0  0  0  0  0  0  0  0  0
  -24.0110  -10.5760   20.9670 C   0  0  0  0  0  0  0  0  0  0  0  0
  -24.4320   -9.6170   21.9130 C   0  0  0  0  0  3  0  0  0  0  0  0
  -23.7010   -8.4260   22.0960 C   0  0  0  0  0  3  0  0  0  0  0  0
  -22.5370   -8.1850   21.3290 C   0  0  0  0  0  0  0  0  0  0  0  0
  -22.1340   -9.1330   20.3710 C   0  0  0  0  0  3  0  0  0  0  0  0
  -22.8640  -10.3180   20.1890 C   0  0  0  0  0  3  0  0  0  0  0  0
  -21.7800   -7.0440   21.4180 O   0  0  0  0  0  0  0  0  0  0  0  0
  -21.6750   -6.3430   22.5900 C   0  0  0  0  0  0  0  0  0  0  0  0
  -21.1580   -6.9310   23.7650 C   0  0  0  0  0  3  0  0  0  0  0  0
  -21.0030   -6.1550   24.9300 C   0  0  0  0  0  3  0  0  0  0  0  0
  -21.3530   -4.7900   24.9190 C   0  0  0  0  0  0  0  0  0  0  0  0
  -21.8610   -4.2020   23.7460 C   0  0  0  0  0  3  0  0  0  0  0  0
  -22.0190   -4.9770   22.5850 C   0  0  0  0  0  0  0  0  0  0  0  0
  -22.4890   -4.4020   21.4520 F   0  0  0  0  0  0  0  0  0  0  0  0
  -21.1950   -4.0400   26.0340 F   0  0  0  0  0  0  0  0  0  0  0  0
  -22.9050  -13.6730   21.1260 C   0  0  0  0  0  0  0  0  0  0  0  0
  -22.1970  -12.9880   22.0140 N   0  0  0  0  0  0  0  0  0  0  0  0
  -22.4640  -14.7030   20.6140 O   0  0  0  0  0  0  0  0  0  0  0  0
  -22.5750  -12.1590   22.4480 H   0  0  0  0  0  0  0  0  0  0  0  0
  -21.2680  -13.2950   22.2600 H   0  0  0  0  0  0  0  0  0  0  0  0
  -25.4880  -15.3120   20.2250 N   0  0  0  0  0  0  0  0  0  0  0  0
  -24.7040  -15.9410   20.3600 H   0  0  0  0  0  0  0  0  0  0  0  0
  -26.3020  -15.7700   19.8420 H   0  0  0  0  0  0  0  0  0  0  0  0
  -28.7500  -22.2590   19.9440 C   0  0  0  0  0  2  0  0  0  0  0  0
  -29.2060  -23.7810   20.3270 C   0  0  0  0  0  3  0  0  0  0  0  0
  -28.1720  -25.0000   19.9510 C   0  0  0  0  0  3  0  0  0  0  0  0
  -28.3490  -26.4650   20.2940 O   0  0  0  0  0  0  0  0  0  0  0  0
  -24.6240  -31.9610   23.3050 C   0  0  0  0  0  0  0  0  0  0  0  0
  -27.2370  -27.3560   20.2340 C   0  0  0  0  0  0  0  0  0  0  0  0
  -23.4180  -30.5620   21.6680 C   0  0  0  0  0  3  0  0  0  0  0  0
  -24.8680  -29.0070   20.2330 C   0  0  0  0  0  0  0  0  0  0  0  0
  -25.9600  -30.8680   21.4790 C   0  0  0  0  0  2  0  0  0  0  0  0
  -26.0410  -29.4830   20.8320 C   0  0  0  0  0  0  0  0  0  0  0  0
  -27.2230  -28.6700   20.8250 C   0  0  0  0  0  3  0  0  0  0  0  0
  -26.0380  -26.9570   19.5990 C   0  0  0  0  0  3  0  0  0  0  0  0
  -24.8730  -27.7520   19.6050 C   0  0  0  0  0  3  0  0  0  0  0  0
  -23.6310  -29.8860   20.2880 C   0  0  0  0  0  2  0  0  0  0  0  0
  -24.6870  -31.1490   22.2070 N   0  0  0  0  0  0  0  0  0  0  0  0
  -23.5410  -32.2380   23.8430 O   0  0  0  0  0  0  0  0  0  0  0  0
  -22.7530  -29.5490   22.6320 C   0  0  0  0  0  0  0  0  0  0  0  0
  -21.4320  -29.3510   22.4890 N   0  0  0  0  0  0  0  0  0  0  0  0
  -23.4290  -28.9430   23.4680 O   0  0  0  0  0  0  0  0  0  0  0  0
  -20.9480  -29.8880   21.7830 H   0  0  0  0  0  0  0  0  0  0  0  0
  -18.0690  -28.0940   22.9420 C   0  0  0  0  0  0  0  0  0  0  0  0
  -20.6170  -28.4080   23.2590 C   0  0  0  0  0  3  0  0  0  0  0  0
  -20.7580  -26.9730   22.7030 C   0  0  0  0  0  2  0  0  0  0  0  0
  -19.6800  -26.6150   21.6750 C   0  0  0  0  0  2  0  0  0  0  0  0
  -18.2830  -26.7400   22.2880 C   0  0  0  0  0  2  0  0  0  0  0  0
  -19.1620  -28.8840   23.3830 C   0  0  0  0  0  0  0  0  0  0  0  0
  -18.9060  -30.1510   23.9530 C   0  0  0  0  0  3  0  0  0  0  0  0
  -17.5880  -30.6250   24.0920 C   0  0  0  0  0  3  0  0  0  0  0  0
  -16.5090  -29.8320   23.6680 C   0  0  0  0  0  3  0  0  0  0  0  0
  -16.7490  -28.5700   23.0950 C   0  0  0  0  0  3  0  0  0  0  0  0
  -25.9070  -32.5930   23.9260 C   0  0  0  0  0  3  0  0  0  0  0  0
  -26.4100  -31.8320   25.2130 C   0  0  1  0  0  0  0  0  0  0  0  0
  -25.3070  -31.6080   26.2740 C   0  0  0  0  0  1  0  0  0  0  0  0
  -26.9910  -30.4490   24.8360 C   0  0  0  0  0  1  0  0  0  0  0  0
  -27.5580  -32.6270   25.8740 C   0  0  0  0  0  1  0  0  0  0  0  0
  -25.6040  -33.9970   24.2420 N   0  0  0  0  0  0  0  0  0  0  0  0
  -25.9180  -35.0400   23.4620 C   0  0  0  0  0  0  0  0  0  0  0  0
  -26.5650  -34.9220   22.4180 O   0  0  0  0  0  0  0  0  0  0  0  0
  -25.0300  -34.1630   25.0560 H   0  0  0  0  0  0  0  0  0  0  0  0
  -24.1780  -36.8240   23.1350 C   0  0  0  0  0  1  0  0  0  0  0  0
  -25.4440  -36.4370   23.9130 C   0  0  0  0  0  3  0  0  0  0  0  0
  -27.6010  -37.3440   24.6580 C   0  0  0  0  0  1  0  0  0  0  0  0
  -26.4700  -37.4890   23.7470 N   0  0  0  0  0  0  0  0  0  0  0  0
  -26.0660  -38.4130   23.8850 H   0  0  0  0  0  0  0  0  0  0  0  0
  1  6  1  0
  2 47  1  0
  2  1  1  0
  3  7  2  0
  3  2  1  0
  4  6  2  0
  5  3  1  0
  7  4  1  0
 10  8  1  6
 10 11  1  0
 10  4  1  0
 10  9  1  0
 11 17  1  0
 12 17  1  0
 13 14  1  0
 13 12  1  0
 15 14  1  0
 15 22  1  0
 15 16  1  0
 17 16  1  0
 18 11  2  0
 19 20  2  0
 20 39  1  0
 21 20  1  0
 21 24  1  0
 22 19  1  0
 22 23  1  0
 23 21  2  0
 24 25  1  0
 25 26  2  0
 27 30  1  0
 27 26  1  0
 28 27  2  0
 29 28  1  0
 29 24  2  0
 30 31  1  0
 31 32  1  0
 32 33  2  0
 34 33  1  0
 34 38  1  0
 35 34  2  0
 36 31  2  0
 36 35  1  0
 37 36  1  0
 39 40  1  0
 40 43  1  0
 40 42  1  0
 41 39  2  0
 44 45  1  0
 44 19  1  0
 46 44  1  0
 47 48  1  0
 49 50  1  0
 49 48  2  0
 51 62  2  0
 52 50  1  0
 52 57  1  0
 53 61  1  0
 53 63  1  0
 54 60  1  0
 54 56  1  0
 55 61  1  0
 56 55  1  0
 57 56  2  0
 58 59  1  0
 58 52  2  0
 59 54  2  0
 60 53  1  0
 61 51  1  0
 63 65  2  0
 64 63  1  0
 66 64  1  0
 67 76  2  0
 67 72  1  0
 68 64  1  0
 68 72  1  0
 69 68  1  0
 70 71  1  0
 70 69  1  0
 71 67  1  0
 72 73  2  0
 73 74  1  0
 75 74  2  0
 76 75  1  0
 77 51  1  0
 77 82  1  0
 77 78  1  0
 78 81  1  1
 78 79  1  0
 80 78  1  0
 82 85  1  0
 83 87  1  0
 83 82  1  0
 84 83  2  0
 87 86  1  0
 89 90  1  0
 89 87  1  0
 89 88  1  0
M  ISO  4  10 100  11 100  49 101  50 101
M  END
>  <TORSDO>  (91) 
F 20

>  <SCORE>  (91) 
-13.014

>  <name>  (91) 
91

>  <ligand_id>  (91) 
91

>  <original_smiles>  (91) 
[H]c1nc(C(C(=O)N2C([H])([H])C([H])([H])C([H])([H])C([H])(n3nc(-c4c([H])c([H])c(Oc5c([H])c([H])c(F)c([H])c5F)c([H])c4[H])c(C(=O)N([H])[H])c3N([H])[H])C2([H])[H])(C([H])([H])[H])C([H])([H])[H])nc(C([H])([H])[H])c1C([H])([H])C([H])([H])C([H])([H])Oc1c([H])c([H])c2c(c1[H])C([H])([H])N(C(=O)C([H])(N([H])C(=O)C([H])(N([H])C([H])([H])[H])C([H])([H])[H])C(C([H])([H])[H])(C([H])([H])[H])C([H])([H])[H])C([H])(C(=O)N([H])C1([H])c3c([H])c([H])c([H])c([H])c3C([H])([H])C([H])([H])C1([H])[H])C2([H])[H]

>  <smiles>  (91) 
[H]c1nc(C(C(=O)N2C([H])([H])C([H])([H])C([H])([H])C([H])(n3nc(-c4c([H])c([H])c(Oc5c([H])c([H])c(F)c([H])c5F)c([H])c4[H])c(C(=O)N([H])[H])c3N([H])[H])C2([H])[H])(C([H])([H])[H])C([H])([H])[H])nc(C([H])([H])[H])c1C([H])([H])C([H])([H])C([H])([H])Oc1c([H])c([H])c2c(c1[H])C([H])([H])N(C(=O)C([H])(N([H])C(=O)C([H])(N([H])C([H])([H])[H])C([H])([H])[H])C(C([H])([H])[H])(C([H])([H])[H])C([H])([H])[H])C([H])(C(=O)N([H])C1([H])c3c([H])c([H])c([H])c([H])c3C([H])([H])C([H])([H])C1([H])[H])C2([H])[H]

$$$$
92:0:0
     RDKit          3D

 97105  0  0  1  0  0  0  0  0999 V2000
  -29.6850  -18.7960   21.6480 C   0  0  0  0  0  3  0  0  0  0  0  0
  -29.1800  -19.2040   20.4430 C   0  0  0  0  0  0  0  0  0  0  0  0
  -30.0550  -17.1470   20.1830 C   0  0  0  0  0  3  0  0  0  0  0  0
  -30.2500  -17.5520   21.4650 N   0  0  0  0  0  0  0  0  0  0  0  0
  -29.3510  -18.1360   19.6040 N   0  0  0  0  0  0  0  0  0  0  0  0
  -29.0090  -18.1100   18.6480 H   0  0  0  0  0  0  0  0  0  0  0  0
  -31.1180  -17.4560   23.8650 C   0  0  0  0  0  1  0  0  0  0  0  0
  -30.9980  -16.7870   22.4880 C   0  0  0  0  0  2  0  0  0  0  0  0
  -29.9040  -15.7920   18.0230 C   0  0  0  0  0  1  0  0  0  0  0  0
  -30.6810  -16.0160   19.3540 C   0  0  2  0  0  0  0  0  0  0  0  0
  -30.9220  -14.6550   20.1680 C   0  0  0  0  0  0  0  0  0  0  0  0
  -30.4960  -12.4040   19.3390 C   0  0  0  0  0  2  0  0  0  0  0  0
  -29.5620  -12.4050   18.1160 C   0  0  0  0  0  2  0  0  0  0  0  0
  -28.0880  -12.3770   18.5550 C   0  0  0  0  0  2  0  0  0  0  0  0
  -27.7230  -13.3280   19.7340 C   0  0  0  0  0  3  0  0  0  0  0  0
  -28.8100  -13.3320   20.8310 C   0  0  0  0  0  2  0  0  0  0  0  0
  -30.1120  -13.5490   20.1740 N   0  0  0  0  0  0  0  0  0  0  0  0
  -32.0940  -14.5040   20.4720 O   0  0  0  0  0  0  0  0  0  0  0  0
  -25.3280  -13.9350   20.4110 C   0  0  0  0  0  0  0  0  0  0  0  0
  -24.2520  -13.1700   20.7620 C   0  0  0  0  0  0  0  0  0  0  0  0
  -24.7210  -11.8200   20.7890 C   0  0  0  0  0  0  0  0  0  0  0  0
  -26.3830  -13.0540   20.2380 N   0  0  0  0  0  0  0  0  0  0  0  0
  -26.0220  -11.7790   20.5310 N   0  0  0  0  0  0  0  0  0  0  0  0
  -23.9950  -10.5580   20.9870 C   0  0  0  0  0  0  0  0  0  0  0  0
  -24.4080   -9.6160   21.9530 C   0  0  0  0  0  3  0  0  0  0  0  0
  -23.6830   -8.4190   22.1420 C   0  0  0  0  0  3  0  0  0  0  0  0
  -22.5330   -8.1550   21.3620 C   0  0  0  0  0  0  0  0  0  0  0  0
  -22.1430   -9.0840   20.3820 C   0  0  0  0  0  3  0  0  0  0  0  0
  -22.8680  -10.2730   20.1920 C   0  0  0  0  0  3  0  0  0  0  0  0
  -21.7810   -7.0110   21.4620 O   0  0  0  0  0  0  0  0  0  0  0  0
  -21.7120   -6.2950   22.6300 C   0  0  0  0  0  0  0  0  0  0  0  0
  -21.2590   -6.8730   23.8340 C   0  0  0  0  0  3  0  0  0  0  0  0
  -21.1410   -6.0850   24.9950 C   0  0  0  0  0  3  0  0  0  0  0  0
  -21.4610   -4.7160   24.9530 C   0  0  0  0  0  0  0  0  0  0  0  0
  -21.9050   -4.1340   23.7510 C   0  0  0  0  0  3  0  0  0  0  0  0
  -22.0280   -4.9210   22.5940 C   0  0  0  0  0  0  0  0  0  0  0  0
  -22.4370   -4.3510   21.4340 F   0  0  0  0  0  0  0  0  0  0  0  0
  -21.3380   -3.9540   26.0640 F   0  0  0  0  0  0  0  0  0  0  0  0
  -22.8410  -13.6450   20.9660 C   0  0  0  0  0  0  0  0  0  0  0  0
  -22.0870  -12.9750   21.8300 N   0  0  0  0  0  0  0  0  0  0  0  0
  -22.4160  -14.6480   20.3950 O   0  0  0  0  0  0  0  0  0  0  0  0
  -22.4410  -12.1650   22.3200 H   0  0  0  0  0  0  0  0  0  0  0  0
  -21.1400  -13.2750   22.0030 H   0  0  0  0  0  0  0  0  0  0  0  0
  -25.4810  -15.3030   20.1910 N   0  0  0  0  0  0  0  0  0  0  0  0
  -24.6970  -15.9420   20.2640 H   0  0  0  0  0  0  0  0  0  0  0  0
  -26.3380  -15.7580   19.9070 H   0  0  0  0  0  0  0  0  0  0  0  0
  -32.1020  -16.5410   18.8580 C   0  0  0  0  0  2  0  0  0  0  0  0
  -32.1220  -17.6880   17.9080 N   0  0  0  0  0  4  0  0  0  0  0  0
  -31.7300  -17.4510   17.0120 H   0  0  0  0  0  0  0  0  0  0  0  0
  -33.0790  -17.9430   17.7300 H   0  0  0  0  0  0  0  0  0  0  0  0
  -31.6680  -18.5070   18.2700 H   0  0  0  0  0  0  0  0  0  0  0  0
  -28.5700  -20.5020   19.9920 C   0  0  0  0  0  2  0  0  0  0  0  0
  -29.3720  -21.7510   20.4430 C   0  0  0  0  0  2  0  0  0  0  0  0
  -28.9180  -22.9980   19.6550 C   0  0  0  0  0  2  0  0  0  0  0  0
  -29.3120  -24.3880   20.2270 C   0  0  0  0  0  2  0  0  0  0  0  0
  -28.3120  -25.4280   19.6900 C   0  0  0  0  0  2  0  0  0  0  0  0
  -28.4010  -26.7670   20.1990 O   0  0  0  0  0  0  0  0  0  0  0  0
  -24.5720  -31.9490   23.2430 C   0  0  0  0  0  0  0  0  0  0  0  0
  -27.2300  -27.5120   20.1610 C   0  0  0  0  0  0  0  0  0  0  0  0
  -23.3690  -30.5400   21.6030 C   0  0  0  0  0  3  0  0  0  0  0  0
  -24.8310  -29.0240   20.1760 C   0  0  0  0  0  0  0  0  0  0  0  0
  -25.8950  -30.9080   21.4130 C   0  0  0  0  0  2  0  0  0  0  0  0
  -25.9880  -29.5370   20.7770 C   0  0  0  0  0  0  0  0  0  0  0  0
  -27.1880  -28.7860   20.7800 C   0  0  0  0  0  3  0  0  0  0  0  0
  -26.0500  -27.0420   19.5270 C   0  0  0  0  0  3  0  0  0  0  0  0
  -24.8590  -27.7720   19.5510 C   0  0  0  0  0  3  0  0  0  0  0  0
  -23.5830  -29.8680   20.2210 C   0  0  0  0  0  2  0  0  0  0  0  0
  -24.6280  -31.1450   22.1430 N   0  0  0  0  0  0  0  0  0  0  0  0
  -23.4880  -32.2230   23.7770 O   0  0  0  0  0  0  0  0  0  0  0  0
  -22.7260  -29.5120   22.5650 C   0  0  0  0  0  0  0  0  0  0  0  0
  -21.4030  -29.3240   22.4400 N   0  0  0  0  0  0  0  0  0  0  0  0
  -23.4160  -28.8910   23.3780 O   0  0  0  0  0  0  0  0  0  0  0  0
  -20.9100  -29.8800   21.7550 H   0  0  0  0  0  0  0  0  0  0  0  0
  -18.0320  -28.1280   22.9330 C   0  0  0  0  0  0  0  0  0  0  0  0
  -20.5880  -28.3870   23.2080 C   0  0  0  0  0  3  0  0  0  0  0  0
  -20.6990  -26.9590   22.6280 C   0  0  0  0  0  2  0  0  0  0  0  0
  -19.5980  -26.6330   21.6150 C   0  0  0  0  0  2  0  0  0  0  0  0
  -18.2150  -26.7770   22.2570 C   0  0  0  0  0  2  0  0  0  0  0  0
  -19.1490  -28.8890   23.3660 C   0  0  0  0  0  0  0  0  0  0  0  0
  -18.9300  -30.1540   23.9560 C   0  0  0  0  0  3  0  0  0  0  0  0
  -17.6270  -30.6570   24.1240 C   0  0  0  0  0  3  0  0  0  0  0  0
  -16.5220  -29.8870   23.7140 C   0  0  0  0  0  3  0  0  0  0  0  0
  -16.7260  -28.6280   23.1200 C   0  0  0  0  0  3  0  0  0  0  0  0
  -25.8580  -32.5820   23.8610 C   0  0  0  0  0  3  0  0  0  0  0  0
  -26.3720  -31.8240   25.1460 C   0  0  1  0  0  0  0  0  0  0  0  0
  -25.2720  -31.5960   26.2100 C   0  0  0  0  0  1  0  0  0  0  0  0
  -26.9540  -30.4440   24.7600 C   0  0  0  0  0  1  0  0  0  0  0  0
  -27.5260  -32.6210   25.8010 C   0  0  0  0  0  1  0  0  0  0  0  0
  -25.5560  -33.9860   24.1740 N   0  0  0  0  0  0  0  0  0  0  0  0
  -25.8890  -35.0230   23.3950 C   0  0  0  0  0  0  0  0  0  0  0  0
  -26.5560  -34.9050   22.3640 O   0  0  0  0  0  0  0  0  0  0  0  0
  -24.9780  -34.1590   24.9820 H   0  0  0  0  0  0  0  0  0  0  0  0
  -24.1660  -36.8090   23.0230 C   0  0  0  0  0  1  0  0  0  0  0  0
  -25.4050  -36.4150   23.8370 C   0  0  0  0  0  3  0  0  0  0  0  0
  -27.5360  -37.3100   24.6630 C   0  0  0  0  0  1  0  0  0  0  0  0
  -26.4380  -37.4660   23.7130 N   0  0  0  0  0  0  0  0  0  0  0  0
  -26.0320  -38.3860   23.8530 H   0  0  0  0  0  0  0  0  0  0  0  0
  2  1  2  0
  3 10  1  0
  3  4  1  0
  4  1  1  0
  4  8  1  0
  5  3  1  0
  5  2  1  0
  6  5  1  0
  8  7  1  0
 10  9  1  6
 10 11  1  0
 11 17  1  0
 11 18  2  0
 12 17  1  0
 13 14  1  0
 13 12  1  0
 15 14  1  0
 15 22  1  0
 15 16  1  0
 17 16  1  0
 19 20  2  0
 20 21  1  0
 20 39  1  0
 21 24  1  0
 22 19  1  0
 22 23  1  0
 23 21  2  0
 24 25  1  0
 25 26  2  0
 27 30  1  0
 27 26  1  0
 28 27  2  0
 29 28  1  0
 29 24  2  0
 30 31  1  0
 31 32  1  0
 32 33  2  0
 34 33  1  0
 34 38  1  0
 35 34  2  0
 36 31  2  0
 36 35  1  0
 37 36  1  0
 39 40  1  0
 40 43  1  0
 40 42  1  0
 41 39  2  0
 44 45  1  0
 44 19  1  0
 46 44  1  0
 47 10  1  0
 48 51  1  0
 48 47  1  0
 49 48  1  0
 50 48  1  0
 52 53  1  0
 52  2  1  0
 54 55  1  0
 54 53  1  0
 56 57  1  0
 56 55  1  0
 58 69  2  0
 59 57  1  0
 59 64  1  0
 60 68  1  0
 60 70  1  0
 61 67  1  0
 61 63  1  0
 62 68  1  0
 63 64  2  0
 63 62  1  0
 65 66  1  0
 65 59  2  0
 66 61  2  0
 67 60  1  0
 68 58  1  0
 70 72  2  0
 71 70  1  0
 73 71  1  0
 74 83  2  0
 74 79  1  0
 75 71  1  0
 75 79  1  0
 76 75  1  0
 77 78  1  0
 77 76  1  0
 78 74  1  0
 79 80  2  0
 80 81  1  0
 82 81  2  0
 83 82  1  0
 84 58  1  0
 84 89  1  0
 84 85  1  0
 85 88  1  1
 85 86  1  0
 87 85  1  0
 89 92  1  0
 90 94  1  0
 90 89  1  0
 91 90  2  0
 94 93  1  0
 96 94  1  0
 96 97  1  0
 96 95  1  0
M  ISO  4  10 100  11 100  56 101  57 101
M  END
>  <TORSDO>  (92) 
F 25

>  <SCORE>  (92) 
-10.241

>  <name>  (92) 
92

>  <ligand_id>  (92) 
92

>  <original_smiles>  (92) 
[H]c1c([H])c([H])c2c(c1[H])C([H])([H])C([H])([H])C([H])([H])C2([H])N([H])C(=O)C1([H])N(C(=O)C([H])(N([H])C(=O)C([H])(N([H])C([H])([H])[H])C([H])([H])[H])C(C([H])([H])[H])(C([H])([H])[H])C([H])([H])[H])C([H])([H])c2c([H])c(OC([H])([H])C([H])([H])C([H])([H])C([H])([H])C([H])([H])c3c([H])n(C([H])([H])C([H])([H])[H])c(C(C(=O)N4C([H])([H])C([H])([H])C([H])([H])C([H])(n5nc(-c6c([H])c([H])c(Oc7c([H])c([H])c(F)c([H])c7F)c([H])c6[H])c(C(=O)N([H])[H])c5N([H])[H])C4([H])[H])(C([H])([H])[H])C([H])([H])[N+]([H])([H])[H])[n+]3[H])c([H])c([H])c2C1([H])[H]

>  <smiles>  (92) 
[H]c1c([H])c([H])c2c(c1[H])C([H])([H])C([H])([H])C([H])([H])C2([H])N([H])C(=O)C1([H])N(C(=O)C([H])(N([H])C(=O)C([H])(N([H])C([H])([H])[H])C([H])([H])[H])C(C([H])([H])[H])(C([H])([H])[H])C([H])([H])[H])C([H])([H])c2c([H])c(OC([H])([H])C([H])([H])C([H])([H])C([H])([H])C([H])([H])c3c([H])n(C([H])([H])C([H])([H])[H])c(C(C(=O)N4C([H])([H])C([H])([H])C([H])([H])C([H])(n5nc(-c6c([H])c([H])c(Oc7c([H])c([H])c(F)c([H])c7F)c([H])c6[H])c(C(=O)N([H])[H])c5N([H])[H])C4([H])[H])(C([H])([H])[H])C([H])([H])[N+]([H])([H])[H])[n+]3[H])c([H])c([H])c2C1([H])[H]

$$$$
93:0:0
     RDKit          3D

 91 99  0  0  1  0  0  0  0  0999 V2000
  -28.6630  -18.2420   19.8300 C   0  0  0  0  0  3  0  0  0  0  0  0
  -28.2880  -19.6280   19.8900 C   0  0  0  0  0  0  0  0  0  0  0  0
  -29.7650  -17.7060   20.5740 C   0  0  0  0  0  0  0  0  0  0  0  0
  -28.9980  -20.5270   20.7410 C   0  0  0  0  0  0  0  0  0  0  0  0
  -30.3770  -18.6330   21.3970 N   0  0  0  0  0  0  0  0  0  0  0  0
  -30.0070  -19.9540   21.4840 N   0  0  0  0  0  0  0  0  0  0  0  0
  -29.9120  -15.8750   18.7880 C   0  0  0  0  0  1  0  0  0  0  0  0
  -31.9280  -16.8290   19.6410 C   0  0  0  0  0  1  0  0  0  0  0  0
  -30.5360  -16.3170   20.1350 C   0  0  1  0  0  0  0  0  0  0  0  0
  -30.9220  -14.9740   21.0700 C   0  0  0  0  0  0  0  0  0  0  0  0
  -30.8840  -12.5350   20.4720 C   0  0  0  0  0  2  0  0  0  0  0  0
  -30.1570  -12.2300   19.1450 C   0  0  0  0  0  2  0  0  0  0  0  0
  -28.6310  -12.1140   19.3530 C   0  0  0  0  0  2  0  0  0  0  0  0
  -28.0390  -13.1680   20.3230 C   0  0  0  0  0  3  0  0  0  0  0  0
  -28.9240  -13.4190   21.5590 C   0  0  0  0  0  2  0  0  0  0  0  0
  -30.2700  -13.7450   21.0710 N   0  0  0  0  0  0  0  0  0  0  0  0
  -32.1070  -14.9160   21.4100 O   0  0  0  0  0  0  0  0  0  0  0  0
  -25.5910  -13.8100   20.6940 C   0  0  0  0  0  0  0  0  0  0  0  0
  -24.4760  -13.0580   20.9330 C   0  0  0  0  0  0  0  0  0  0  0  0
  -24.9290  -11.7070   21.0460 C   0  0  0  0  0  0  0  0  0  0  0  0
  -26.6470  -12.9150   20.6580 N   0  0  0  0  0  0  0  0  0  0  0  0
  -26.2490  -11.6520   20.9440 N   0  0  0  0  0  0  0  0  0  0  0  0
  -24.1780  -10.4560   21.1850 C   0  0  0  0  0  0  0  0  0  0  0  0
  -24.4710   -9.5320   22.2100 C   0  0  0  0  0  3  0  0  0  0  0  0
  -23.7240   -8.3420   22.3320 C   0  0  0  0  0  3  0  0  0  0  0  0
  -22.6690   -8.0690   21.4290 C   0  0  0  0  0  0  0  0  0  0  0  0
  -22.3980   -8.9840   20.3950 C   0  0  0  0  0  3  0  0  0  0  0  0
  -23.1470  -10.1650   20.2720 C   0  0  0  0  0  3  0  0  0  0  0  0
  -21.9040   -6.9290   21.4580 O   0  0  0  0  0  0  0  0  0  0  0  0
  -21.7010   -6.2300   22.6210 C   0  0  0  0  0  0  0  0  0  0  0  0
  -21.1200   -6.8300   23.7600 C   0  0  0  0  0  3  0  0  0  0  0  0
  -20.8670   -6.0560   24.9100 C   0  0  0  0  0  3  0  0  0  0  0  0
  -21.1850   -4.6860   24.9220 C   0  0  0  0  0  0  0  0  0  0  0  0
  -21.7580   -4.0870   23.7860 C   0  0  0  0  0  3  0  0  0  0  0  0
  -22.0140   -4.8560   22.6400 C   0  0  0  0  0  0  0  0  0  0  0  0
  -22.5480   -4.2700   21.5400 F   0  0  0  0  0  0  0  0  0  0  0  0
  -20.9350   -3.9410   26.0240 F   0  0  0  0  0  0  0  0  0  0  0  0
  -23.0570  -13.5470   20.9580 C   0  0  0  0  0  0  0  0  0  0  0  0
  -22.2010  -12.9030   21.7400 N   0  0  0  0  0  0  0  0  0  0  0  0
  -22.7130  -14.5390   20.3150 O   0  0  0  0  0  0  0  0  0  0  0  0
  -22.4900  -12.1010   22.2800 H   0  0  0  0  0  0  0  0  0  0  0  0
  -21.2430  -13.2190   21.8040 H   0  0  0  0  0  0  0  0  0  0  0  0
  -25.7940  -15.1690   20.4740 N   0  0  0  0  0  0  0  0  0  0  0  0
  -25.0310  -15.8360   20.4470 H   0  0  0  0  0  0  0  0  0  0  0  0
  -26.6950  -15.5850   20.2810 H   0  0  0  0  0  0  0  0  0  0  0  0
  -25.8390  -19.3350   19.2770 C   0  0  0  0  0  1  0  0  0  0  0  0
  -27.1390  -20.1050   19.0140 C   0  0  0  0  0  2  0  0  0  0  0  0
  -28.4970  -22.0360   21.0660 C   0  0  0  0  0  2  0  0  0  0  0  0
  -28.6200  -23.3810   20.1290 C   0  0  0  0  0  3  0  0  0  0  0  0
  -27.9050  -24.7880   20.6120 C   0  0  0  0  0  3  0  0  0  0  0  0
  -28.1010  -26.1700   20.0090 O   0  0  0  0  0  0  0  0  0  0  0  0
  -24.6370  -31.7200   23.2720 C   0  0  0  0  0  0  0  0  0  0  0  0
  -27.0460  -27.1230   20.0440 C   0  0  0  0  0  0  0  0  0  0  0  0
  -23.3810  -30.4500   21.5690 C   0  0  0  0  0  3  0  0  0  0  0  0
  -24.7700  -28.8900   20.0810 C   0  0  0  0  0  0  0  0  0  0  0  0
  -25.9370  -30.6490   21.4060 C   0  0  0  0  0  2  0  0  0  0  0  0
  -25.9600  -29.2880   20.7030 C   0  0  0  0  0  0  0  0  0  0  0  0
  -27.1040  -28.4200   20.6680 C   0  0  0  0  0  3  0  0  0  0  0  0
  -25.8380  -26.7990   19.3960 C   0  0  0  0  0  3  0  0  0  0  0  0
  -24.7150  -27.6550   19.4140 C   0  0  0  0  0  3  0  0  0  0  0  0
  -23.5740  -29.8240   20.1630 C   0  0  0  0  0  2  0  0  0  0  0  0
  -24.6710  -30.9550   22.1400 N   0  0  0  0  0  0  0  0  0  0  0  0
  -23.5630  -32.0210   23.8160 O   0  0  0  0  0  0  0  0  0  0  0  0
  -22.6660  -29.4260   22.4850 C   0  0  0  0  0  0  0  0  0  0  0  0
  -21.3330  -29.3130   22.3490 N   0  0  0  0  0  0  0  0  0  0  0  0
  -23.3100  -28.7370   23.2780 O   0  0  0  0  0  0  0  0  0  0  0  0
  -20.8700  -29.9170   21.6850 H   0  0  0  0  0  0  0  0  0  0  0  0
  -17.9040  -28.2530   22.8110 C   0  0  0  0  0  0  0  0  0  0  0  0
  -20.4740  -28.3770   23.0750 C   0  0  0  0  0  3  0  0  0  0  0  0
  -20.5030  -26.9730   22.4260 C   0  0  0  0  0  2  0  0  0  0  0  0
  -19.3830  -26.7570   21.4050 C   0  0  0  0  0  2  0  0  0  0  0  0
  -18.0130  -26.9340   22.0640 C   0  0  0  0  0  2  0  0  0  0  0  0
  -19.0610  -28.9370   23.2720 C   0  0  0  0  0  0  0  0  0  0  0  0
  -18.9040  -30.1750   23.9340 C   0  0  0  0  0  3  0  0  0  0  0  0
  -17.6260  -30.7280   24.1350 C   0  0  0  0  0  3  0  0  0  0  0  0
  -16.4840  -30.0390   23.6880 C   0  0  0  0  0  3  0  0  0  0  0  0
  -16.6250  -28.8030   23.0330 C   0  0  0  0  0  3  0  0  0  0  0  0
  -25.9410  -32.2720   23.9250 C   0  0  0  0  0  3  0  0  0  0  0  0
  -25.6860  -33.6630   24.3280 N   0  0  0  0  0  0  0  0  0  0  0  0
  -26.0870  -34.7420   23.6400 C   0  0  0  0  0  0  0  0  0  0  0  0
  -26.7750  -34.6650   22.6200 O   0  0  0  0  0  0  0  0  0  0  0  0
  -25.0800  -33.8010   25.1250 H   0  0  0  0  0  0  0  0  0  0  0  0
  -24.4550  -36.6360   23.3520 C   0  0  0  0  0  1  0  0  0  0  0  0
  -25.6530  -36.1240   24.1670 C   0  0  0  0  0  3  0  0  0  0  0  0
  -27.8030  -36.8560   25.1010 C   0  0  0  0  0  1  0  0  0  0  0  0
  -26.7380  -37.1300   24.1410 N   0  0  0  0  0  0  0  0  0  0  0  0
  -26.3710  -38.0590   24.3290 H   0  0  0  0  0  0  0  0  0  0  0  0
  -26.4230  -31.4190   25.1640 C   0  0  1  0  0  0  0  0  0  0  0  0
  -25.3200  -31.1780   26.2210 C   0  0  0  0  0  1  0  0  0  0  0  0
  -26.9460  -30.0370   24.7070 C   0  0  0  0  0  1  0  0  0  0  0  0
  -27.6070  -32.1290   25.8630 C   0  0  0  0  0  1  0  0  0  0  0  0
  1  2  2  0
  1  3  1  0
  2  4  1  0
  3  5  2  0
  4 48  1  0
  4  6  2  0
  5  6  1  0
  9  7  1  6
  8  9  1  0
  9  3  1  0
  9 10  1  0
 10 16  1  0
 10 17  2  0
 11 16  1  0
 12 13  1  0
 12 11  1  0
 14 13  1  0
 14 21  1  0
 14 15  1  0
 16 15  1  0
 18 19  2  0
 19 38  1  0
 19 20  1  0
 20 23  1  0
 21 18  1  0
 21 22  1  0
 22 20  2  0
 23 24  1  0
 24 25  2  0
 26 29  1  0
 26 25  1  0
 27 26  2  0
 28 27  1  0
 28 23  2  0
 29 30  1  0
 30 35  2  0
 30 31  1  0
 31 32  2  0
 32 33  1  0
 33 37  1  0
 34 33  2  0
 35 34  1  0
 36 35  1  0
 38 39  1  0
 39 42  1  0
 39 41  1  0
 40 38  2  0
 43 18  1  0
 44 43  1  0
 45 43  1  0
 47 46  1  0
 47  2  1  0
 49 50  2  0
 49 48  1  0
 51 53  1  0
 51 50  1  0
 52 63  2  0
 53 58  1  0
 54 62  1  0
 54 64  1  0
 55 61  1  0
 55 57  1  0
 56 62  1  0
 57 56  1  0
 58 57  2  0
 59 60  1  0
 59 53  2  0
 60 55  2  0
 61 54  1  0
 62 52  1  0
 64 66  2  0
 65 64  1  0
 67 65  1  0
 68 77  2  0
 68 73  1  0
 69 65  1  0
 69 73  1  0
 70 69  1  0
 71 72  1  0
 71 70  1  0
 72 68  1  0
 73 74  2  0
 74 75  1  0
 76 75  2  0
 77 76  1  0
 78 52  1  0
 78 79  1  0
 78 88  1  0
 79 82  1  0
 80 84  1  0
 80 79  1  0
 81 80  2  0
 84 83  1  0
 86 84  1  0
 86 87  1  0
 86 85  1  0
 88 91  1  1
 88 89  1  0
 90 88  1  0
M  ISO  4   9 100  10 100  50 101  51 101
M  END
>  <TORSDO>  (93) 
F 21

>  <SCORE>  (93) 
-11.746

>  <name>  (93) 
93

>  <ligand_id>  (93) 
93

>  <original_smiles>  (93) 
[H]c1c([H])c([H])c2c(c1[H])C([H])([H])C([H])([H])C([H])([H])C2([H])N([H])C(=O)C1([H])N(C(=O)C([H])(N([H])C(=O)C([H])(N([H])C([H])([H])[H])C([H])([H])[H])C(C([H])([H])[H])(C([H])([H])[H])C([H])([H])[H])C([H])([H])c2c([H])c(OC([H])([H])C([H])([H])C([H])([H])c3nnc(C(C(=O)N4C([H])([H])C([H])([H])C([H])([H])C([H])(n5nc(-c6c([H])c([H])c(Oc7c([H])c([H])c(F)c([H])c7F)c([H])c6[H])c(C(=O)N([H])[H])c5N([H])[H])C4([H])[H])(C([H])([H])[H])C([H])([H])[H])c([H])c3C([H])([H])C([H])([H])[H])c([H])c([H])c2C1([H])[H]

>  <smiles>  (93) 
[H]c1c([H])c([H])c2c(c1[H])C([H])([H])C([H])([H])C([H])([H])C2([H])N([H])C(=O)C1([H])N(C(=O)C([H])(N([H])C(=O)C([H])(N([H])C([H])([H])[H])C([H])([H])[H])C(C([H])([H])[H])(C([H])([H])[H])C([H])([H])[H])C([H])([H])c2c([H])c(OC([H])([H])C([H])([H])C([H])([H])c3nnc(C(C(=O)N4C([H])([H])C([H])([H])C([H])([H])C([H])(n5nc(-c6c([H])c([H])c(Oc7c([H])c([H])c(F)c([H])c7F)c([H])c6[H])c(C(=O)N([H])[H])c5N([H])[H])C4([H])[H])(C([H])([H])[H])C([H])([H])[H])c([H])c3C([H])([H])C([H])([H])[H])c([H])c([H])c2C1([H])[H]

$$$$
94:0:0
     RDKit          3D

 94102  0  0  1  0  0  0  0  0999 V2000
  -30.2150  -19.8090   21.2790 C   0  0  0  0  0  3  0  0  0  0  0  0
  -29.4650  -20.1490   20.1180 C   0  0  0  0  0  0  0  0  0  0  0  0
  -30.4010  -18.4340   21.2620 C   0  0  0  0  0  0  0  0  0  0  0  0
  -29.2670  -18.9960   19.4440 N   0  0  0  0  0  0  0  0  0  0  0  0
  -29.8840  -17.9190   20.0690 N   0  0  0  0  0  0  0  0  0  0  0  0
  -29.1910  -21.7080   18.1420 C   0  0  0  0  0  1  0  0  0  0  0  0
  -27.2880  -21.3440   19.7540 C   0  0  0  0  0  1  0  0  0  0  0  0
  -28.8130  -21.5150   19.6210 C   0  0  1  0  0  0  0  0  0  0  0  0
  -29.2330  -22.8800   20.3710 C   0  0  0  0  0  2  0  0  0  0  0  0
  -28.3550  -24.2570   20.3820 C   0  0  0  0  0  2  0  0  0  0  0  0
  -28.5130  -25.4580   19.3280 C   0  0  0  0  0  2  0  0  0  0  0  0
  -28.3830  -26.8830   19.7680 O   0  0  0  0  0  0  0  0  0  0  0  0
  -24.5630  -31.9680   23.1700 C   0  0  0  0  0  0  0  0  0  0  0  0
  -27.2020  -27.6520   19.7750 C   0  0  0  0  0  0  0  0  0  0  0  0
  -23.3410  -30.6340   21.4860 C   0  0  0  0  0  3  0  0  0  0  0  0
  -24.7840  -29.2000   19.9270 C   0  0  0  0  0  0  0  0  0  0  0  0
  -25.8610  -31.0300   21.2400 C   0  0  0  0  0  2  0  0  0  0  0  0
  -25.9560  -29.6910   20.5130 C   0  0  0  0  0  0  0  0  0  0  0  0
  -27.1610  -28.9290   20.4240 C   0  0  0  0  0  3  0  0  0  0  0  0
  -26.0010  -27.2090   19.1780 C   0  0  0  0  0  3  0  0  0  0  0  0
  -24.8100  -27.9650   19.2500 C   0  0  0  0  0  3  0  0  0  0  0  0
  -23.5260  -30.0370   20.0640 C   0  0  0  0  0  2  0  0  0  0  0  0
  -24.6090  -31.2260   22.0230 N   0  0  0  0  0  0  0  0  0  0  0  0
  -23.4920  -32.1860   23.7540 O   0  0  0  0  0  0  0  0  0  0  0  0
  -22.7330  -29.5520   22.4090 C   0  0  0  0  0  0  0  0  0  0  0  0
  -21.4190  -29.3040   22.2690 N   0  0  0  0  0  0  0  0  0  0  0  0
  -23.4430  -28.9390   23.2120 O   0  0  0  0  0  0  0  0  0  0  0  0
  -20.9020  -29.8550   21.5980 H   0  0  0  0  0  0  0  0  0  0  0  0
  -18.1210  -27.8790   22.6860 C   0  0  0  0  0  0  0  0  0  0  0  0
  -20.6540  -28.2940   23.0010 C   0  0  0  0  0  3  0  0  0  0  0  0
  -20.8550  -26.8890   22.3860 C   0  0  0  0  0  2  0  0  0  0  0  0
  -19.7900  -26.5270   21.3460 C   0  0  0  0  0  2  0  0  0  0  0  0
  -18.3940  -26.5650   21.9740 C   0  0  0  0  0  2  0  0  0  0  0  0
  -19.1830  -28.6970   23.1550 C   0  0  0  0  0  0  0  0  0  0  0  0
  -18.8760  -29.9250   23.7800 C   0  0  0  0  0  3  0  0  0  0  0  0
  -17.5400  -30.3360   23.9430 C   0  0  0  0  0  3  0  0  0  0  0  0
  -16.4920  -29.5140   23.4910 C   0  0  0  0  0  3  0  0  0  0  0  0
  -16.7840  -28.2880   22.8680 C   0  0  0  0  0  3  0  0  0  0  0  0
  -25.8510  -32.5980   23.7890 C   0  0  0  0  0  3  0  0  0  0  0  0
  -25.5440  -33.9930   24.1330 N   0  0  0  0  0  0  0  0  0  0  0  0
  -25.8810  -35.0540   23.3890 C   0  0  0  0  0  0  0  0  0  0  0  0
  -26.5540  -34.9620   22.3580 O   0  0  0  0  0  0  0  0  0  0  0  0
  -24.9480  -34.1390   24.9340 H   0  0  0  0  0  0  0  0  0  0  0  0
  -24.1650  -36.8620   23.0480 C   0  0  0  0  0  1  0  0  0  0  0  0
  -25.3980  -36.4390   23.8620 C   0  0  0  0  0  3  0  0  0  0  0  0
  -27.5240  -37.3080   24.7290 C   0  0  0  0  0  1  0  0  0  0  0  0
  -26.4350  -37.4890   23.7740 N   0  0  0  0  0  0  0  0  0  0  0  0
  -26.0300  -38.4080   23.9260 H   0  0  0  0  0  0  0  0  0  0  0  0
  -26.3770  -31.8190   25.0580 C   0  0  1  0  0  0  0  0  0  0  0  0
  -25.2810  -31.5300   26.1100 C   0  0  0  0  0  1  0  0  0  0  0  0
  -27.0020  -30.4660   24.6460 C   0  0  0  0  0  1  0  0  0  0  0  0
  -27.4950  -32.6330   25.7480 C   0  0  0  0  0  1  0  0  0  0  0  0
  -30.6730  -18.0740   23.7420 C   0  0  0  0  0  1  0  0  0  0  0  0
  -32.5460  -17.4910   22.1570 C   0  0  0  0  0  1  0  0  0  0  0  0
  -31.0240  -17.5820   22.3270 C   0  0  0  0  0  3  0  0  0  0  0  0
  -29.6570  -16.4990   19.5110 C   0  0  0  0  0  3  0  0  0  0  0  0
  -30.6480  -15.2240   19.6990 C   0  0  0  0  0  0  0  0  0  0  0  0
  -30.5310  -12.8680   18.8810 C   0  0  0  0  0  2  0  0  0  0  0  0
  -29.5160  -12.8050   17.7160 C   0  0  0  0  0  2  0  0  0  0  0  0
  -28.0650  -12.6570   18.2350 C   0  0  0  0  0  2  0  0  0  0  0  0
  -27.7360  -13.5790   19.4420 C   0  0  0  0  0  3  0  0  0  0  0  0
  -28.8750  -13.5830   20.4840 C   0  0  0  0  0  2  0  0  0  0  0  0
  -30.1230  -13.9500   19.8040 N   0  0  0  0  0  0  0  0  0  0  0  0
  -31.8450  -15.3510   19.4260 O   0  0  0  0  0  0  0  0  0  0  0  0
  -25.4270  -14.1460   20.4040 C   0  0  0  0  0  0  0  0  0  0  0  0
  -24.3930  -13.3580   20.8290 C   0  0  0  0  0  0  0  0  0  0  0  0
  -24.8480  -12.0100   20.7030 C   0  0  0  0  0  0  0  0  0  0  0  0
  -26.4420  -13.2740   20.0400 N   0  0  0  0  0  0  0  0  0  0  0  0
  -26.1060  -11.9840   20.2860 N   0  0  0  0  0  0  0  0  0  0  0  0
  -24.1390  -10.7410   20.8970 C   0  0  0  0  0  0  0  0  0  0  0  0
  -24.5810   -9.7870   21.8400 C   0  0  0  0  0  3  0  0  0  0  0  0
  -23.8730   -8.5800   22.0210 C   0  0  0  0  0  3  0  0  0  0  0  0
  -22.7090   -8.3180   21.2590 C   0  0  0  0  0  0  0  0  0  0  0  0
  -22.2890   -9.2600   20.3030 C   0  0  0  0  0  3  0  0  0  0  0  0
  -22.9990  -10.4580   20.1200 C   0  0  0  0  0  3  0  0  0  0  0  0
  -21.9710   -7.1640   21.3510 O   0  0  0  0  0  0  0  0  0  0  0  0
  -21.8460   -6.4800   22.5340 C   0  0  0  0  0  0  0  0  0  0  0  0
  -21.2630   -7.0690   23.6760 C   0  0  0  0  0  3  0  0  0  0  0  0
  -21.0920   -6.3080   24.8510 C   0  0  0  0  0  3  0  0  0  0  0  0
  -21.4930   -4.9600   24.8800 C   0  0  0  0  0  0  0  0  0  0  0  0
  -22.0700   -4.3700   23.7400 C   0  0  0  0  0  3  0  0  0  0  0  0
  -22.2420   -5.1270   22.5700 C   0  0  0  0  0  0  0  0  0  0  0  0
  -22.7780   -4.5490   21.4680 F   0  0  0  0  0  0  0  0  0  0  0  0
  -21.3220   -4.2250   26.0040 F   0  0  0  0  0  0  0  0  0  0  0  0
  -23.0240  -13.8220   21.2350 C   0  0  0  0  0  0  0  0  0  0  0  0
  -22.3710  -13.0940   22.1340 N   0  0  0  0  0  0  0  0  0  0  0  0
  -22.5440  -14.8640   20.7890 O   0  0  0  0  0  0  0  0  0  0  0  0
  -22.7760  -12.2540   22.5180 H   0  0  0  0  0  0  0  0  0  0  0  0
  -21.4550  -13.3850   22.4460 H   0  0  0  0  0  0  0  0  0  0  0  0
  -25.5780  -15.5230   20.2760 N   0  0  0  0  0  0  0  0  0  0  0  0
  -24.8240  -16.1670   20.4890 H   0  0  0  0  0  0  0  0  0  0  0  0
  -26.3980  -15.9860   19.9080 H   0  0  0  0  0  0  0  0  0  0  0  0
  -30.4410  -17.3200   17.1250 C   0  0  0  0  0  1  0  0  0  0  0  0
  -29.3560  -16.6370   17.9800 C   0  0  0  0  0  2  0  0  0  0  0  0
  2  1  1  0
  3  1  2  0
  3 55  1  0
  4  5  1  0
  4  2  2  0
  5  3  1  0
  8  6  1  6
  8  7  1  0
  8  2  1  0
  8  9  1  0
  9 10  1  0
 11 12  1  0
 11 10  1  0
 12 14  1  0
 13 24  2  0
 14 19  1  0
 15 23  1  0
 15 25  1  0
 16 22  1  0
 16 18  1  0
 17 23  1  0
 18 17  1  0
 19 18  2  0
 20 21  1  0
 20 14  2  0
 21 16  2  0
 22 15  1  0
 23 13  1  0
 25 27  2  0
 26 25  1  0
 28 26  1  0
 29 38  2  0
 29 34  1  0
 30 26  1  0
 30 34  1  0
 31 30  1  0
 32 33  1  0
 32 31  1  0
 33 29  1  0
 34 35  2  0
 35 36  1  0
 37 36  2  0
 38 37  1  0
 39 13  1  0
 39 40  1  0
 39 49  1  0
 40 43  1  0
 41 45  1  0
 41 40  1  0
 42 41  2  0
 45 44  1  0
 47 45  1  0
 47 48  1  0
 47 46  1  0
 49 52  1  1
 49 50  1  0
 51 49  1  0
 54 55  1  0
 55 53  1  0
 56 94  1  0
 56 57  1  0
 56  5  1  0
 57 63  1  0
 58 63  1  0
 59 60  1  0
 59 58  1  0
 61 60  1  0
 61 68  1  0
 61 62  1  0
 63 62  1  0
 64 57  2  0
 65 66  2  0
 66 85  1  0
 67 66  1  0
 67 70  1  0
 68 69  1  0
 68 65  1  0
 69 67  2  0
 70 71  1  0
 71 72  2  0
 73 76  1  0
 73 72  1  0
 74 73  2  0
 75 74  1  0
 75 70  2  0
 76 77  1  0
 77 82  2  0
 77 78  1  0
 78 79  2  0
 79 80  1  0
 80 84  1  0
 81 80  2  0
 82 81  1  0
 83 82  1  0
 85 86  1  0
 86 89  1  0
 86 88  1  0
 87 85  2  0
 90 65  1  0
 90 91  1  0
 92 90  1  0
 93 94  1  0
M  ISO  4  11 101  12 101  56 100  57 100
M  END
>  <TORSDO>  (94) 
F 23

>  <SCORE>  (94) 
-8.797

>  <name>  (94) 
94

>  <ligand_id>  (94) 
94

>  <original_smiles>  (94) 
[H]c1c([H])c([H])c2c(c1[H])C([H])([H])C([H])([H])C([H])([H])C2([H])N([H])C(=O)C1([H])N(C(=O)C([H])(N([H])C(=O)C([H])(N([H])C([H])([H])[H])C([H])([H])[H])C(C([H])([H])[H])(C([H])([H])[H])C([H])([H])[H])C([H])([H])c2c([H])c(OC([H])([H])C([H])([H])C([H])([H])C(c3nn(C([H])(C(=O)N4C([H])([H])C([H])([H])C([H])([H])C([H])(n5nc(-c6c([H])c([H])c(Oc7c([H])c([H])c(F)c([H])c7F)c([H])c6[H])c(C(=O)N([H])[H])c5N([H])[H])C4([H])[H])C([H])([H])C([H])([H])[H])c(C([H])(C([H])([H])[H])C([H])([H])[H])c3[H])(C([H])([H])[H])C([H])([H])[H])c([H])c([H])c2C1([H])[H]

>  <smiles>  (94) 
[H]c1c([H])c([H])c2c(c1[H])C([H])([H])C([H])([H])C([H])([H])C2([H])N([H])C(=O)C1([H])N(C(=O)C([H])(N([H])C(=O)C([H])(N([H])C([H])([H])[H])C([H])([H])[H])C(C([H])([H])[H])(C([H])([H])[H])C([H])([H])[H])C([H])([H])c2c([H])c(OC([H])([H])C([H])([H])C([H])([H])C(c3nn(C([H])(C(=O)N4C([H])([H])C([H])([H])C([H])([H])C([H])(n5nc(-c6c([H])c([H])c(Oc7c([H])c([H])c(F)c([H])c7F)c([H])c6[H])c(C(=O)N([H])[H])c5N([H])[H])C4([H])[H])C([H])([H])C([H])([H])[H])c(C([H])(C([H])([H])[H])C([H])([H])[H])c3[H])(C([H])([H])[H])C([H])([H])[H])c([H])c([H])c2C1([H])[H]

$$$$
95:0:0
     RDKit          3D

 93101  0  0  1  0  0  0  0  0999 V2000
  -29.0770  -21.4170   20.5090 C   0  0  0  0  0  0  0  0  0  0  0  0
  -28.9260  -19.5790   19.5280 C   0  0  0  0  0  3  0  0  0  0  0  0
  -28.3950  -18.4980   18.6420 C   0  0  0  0  0  1  0  0  0  0  0  0
  -28.4070  -20.8110   19.4900 N   0  0  0  0  0  0  0  0  0  0  0  0
  -29.9830  -20.6380   21.1090 N   0  0  0  0  0  2  0  0  0  0  0  0
  -29.8960  -19.4250   20.4590 N   0  0  0  0  0  0  0  0  0  0  0  0
  -32.0300  -18.6310   21.4760 C   0  0  0  0  0  1  0  0  0  0  0  0
  -29.7950  -17.7760   22.2700 C   0  0  0  0  0  1  0  0  0  0  0  0
  -30.6030  -18.2180   21.0270 C   0  0  1  0  0  0  0  0  0  0  0  0
  -30.7930  -17.0090   20.0210 C   0  0  0  0  0  2  0  0  0  0  0  0
  -31.4310  -14.5870   20.0500 C   0  0  0  0  0  0  0  0  0  0  0  0
  -31.0510  -12.4030   18.9550 C   0  0  0  0  0  2  0  0  0  0  0  0
  -30.1090  -12.6520   17.7560 C   0  0  0  0  0  2  0  0  0  0  0  0
  -28.6340  -12.5640   18.1970 C   0  0  0  0  0  2  0  0  0  0  0  0
  -28.3420  -13.3910   19.4830 C   0  0  0  0  0  3  0  0  0  0  0  0
  -29.4140  -13.1530   20.5750 C   0  0  0  0  0  2  0  0  0  0  0  0
  -30.7390  -13.4120   19.9860 N   0  0  0  0  0  0  0  0  0  0  0  0
  -32.5190  -14.7470   19.4910 O   0  0  0  0  0  0  0  0  0  0  0  0
  -30.7680  -15.6360   20.5910 N   0  0  0  0  0  0  0  0  0  0  0  0
  -29.9460  -15.3930   21.1240 H   0  0  0  0  0  0  0  0  0  0  0  0
  -25.9890  -14.0580   20.2760 C   0  0  0  0  0  0  0  0  0  0  0  0
  -24.9090  -13.3160   20.6670 C   0  0  0  0  0  0  0  0  0  0  0  0
  -25.3200  -11.9500   20.5990 C   0  0  0  0  0  0  0  0  0  0  0  0
  -26.9940  -13.1460   19.9930 N   0  0  0  0  0  0  0  0  0  0  0  0
  -26.5970  -11.8720   20.2440 N   0  0  0  0  0  0  0  0  0  0  0  0
  -24.5550  -10.7120   20.7990 C   0  0  0  0  0  0  0  0  0  0  0  0
  -24.8790   -9.8030   21.8290 C   0  0  0  0  0  3  0  0  0  0  0  0
  -24.1170   -8.6310   22.0160 C   0  0  0  0  0  3  0  0  0  0  0  0
  -23.0150   -8.3580   21.1700 C   0  0  0  0  0  0  0  0  0  0  0  0
  -22.7080   -9.2550   20.1320 C   0  0  0  0  0  3  0  0  0  0  0  0
  -23.4710  -10.4200   19.9440 C   0  0  0  0  0  3  0  0  0  0  0  0
  -22.2320   -7.2320   21.2580 O   0  0  0  0  0  0  0  0  0  0  0  0
  -21.9170   -6.6640   22.4680 C   0  0  0  0  0  0  0  0  0  0  0  0
  -21.2310   -7.3840   23.4690 C   0  0  0  0  0  3  0  0  0  0  0  0
  -20.8670   -6.7420   24.6710 C   0  0  0  0  0  3  0  0  0  0  0  0
  -21.1770   -5.3840   24.8660 C   0  0  0  0  0  0  0  0  0  0  0  0
  -21.8580   -4.6650   23.8670 C   0  0  0  0  0  3  0  0  0  0  0  0
  -22.2250   -5.3040   22.6710 C   0  0  0  0  0  0  0  0  0  0  0  0
  -22.8590   -4.6040   21.7010 F   0  0  0  0  0  0  0  0  0  0  0  0
  -20.8220   -4.7640   26.0170 F   0  0  0  0  0  0  0  0  0  0  0  0
  -23.5420  -13.8380   20.9990 C   0  0  0  0  0  0  0  0  0  0  0  0
  -22.8310  -13.1630   21.8930 N   0  0  0  0  0  0  0  0  0  0  0  0
  -23.1190  -14.8810   20.4990 O   0  0  0  0  0  0  0  0  0  0  0  0
  -23.1960  -12.3210   22.3170 H   0  0  0  0  0  0  0  0  0  0  0  0
  -21.9110  -13.4900   22.1570 H   0  0  0  0  0  0  0  0  0  0  0  0
  -26.1930  -15.4240   20.1210 N   0  0  0  0  0  0  0  0  0  0  0  0
  -25.4450  -16.0930   20.2700 H   0  0  0  0  0  0  0  0  0  0  0  0
  -27.0430  -15.8520   19.7810 H   0  0  0  0  0  0  0  0  0  0  0  0
  -28.6310  -22.7480   21.0970 C   0  0  0  0  0  2  0  0  0  0  0  0
  -28.7420  -24.0320   20.2080 C   0  0  0  0  0  2  0  0  0  0  0  0
  -29.0310  -25.6510   22.2200 C   0  0  0  0  0  1  0  0  0  0  0  0
  -28.2550  -25.3380   20.9270 C   0  0  0  0  0  3  0  0  0  0  0  0
  -28.3460  -26.5320   20.1100 O   0  0  0  0  0  0  0  0  0  0  0  0
  -24.5480  -31.7490   23.1850 C   0  0  0  0  0  0  0  0  0  0  0  0
  -27.2110  -27.3220   20.1010 C   0  0  0  0  0  0  0  0  0  0  0  0
  -23.3560  -30.3750   21.5090 C   0  0  0  0  0  3  0  0  0  0  0  0
  -24.8230  -28.8500   20.0820 C   0  0  0  0  0  0  0  0  0  0  0  0
  -25.8830  -30.7300   21.3370 C   0  0  0  0  0  2  0  0  0  0  0  0
  -25.9760  -29.3630   20.6880 C   0  0  0  0  0  0  0  0  0  0  0  0
  -27.1760  -28.6100   20.6900 C   0  0  0  0  0  3  0  0  0  0  0  0
  -26.0450  -26.8310   19.4790 C   0  0  0  0  0  3  0  0  0  0  0  0
  -24.8550  -27.5840   19.4670 C   0  0  0  0  0  3  0  0  0  0  0  0
  -23.5770  -29.7070   20.1240 C   0  0  0  0  0  2  0  0  0  0  0  0
  -24.6150  -30.9640   22.0710 N   0  0  0  0  0  0  0  0  0  0  0  0
  -23.4610  -32.0120   23.7160 O   0  0  0  0  0  0  0  0  0  0  0  0
  -22.6900  -29.3440   22.4490 C   0  0  0  0  0  0  0  0  0  0  0  0
  -21.3670  -29.1680   22.3040 N   0  0  0  0  0  0  0  0  0  0  0  0
  -23.3610  -28.7080   23.2650 O   0  0  0  0  0  0  0  0  0  0  0  0
  -20.8800  -29.7400   21.6270 H   0  0  0  0  0  0  0  0  0  0  0  0
  -17.9820  -27.9760   22.7370 C   0  0  0  0  0  0  0  0  0  0  0  0
  -20.5370  -28.2200   23.0510 C   0  0  0  0  0  3  0  0  0  0  0  0
  -20.6430  -26.7960   22.4570 C   0  0  0  0  0  2  0  0  0  0  0  0
  -19.5550  -26.4910   21.4230 C   0  0  0  0  0  2  0  0  0  0  0  0
  -18.1640  -26.6350   22.0470 C   0  0  0  0  0  2  0  0  0  0  0  0
  -19.0960  -28.7280   23.1940 C   0  0  0  0  0  0  0  0  0  0  0  0
  -18.8740  -29.9850   23.7980 C   0  0  0  0  0  3  0  0  0  0  0  0
  -17.5710  -30.4900   23.9550 C   0  0  0  0  0  3  0  0  0  0  0  0
  -16.4690  -29.7330   23.5170 C   0  0  0  0  0  3  0  0  0  0  0  0
  -16.6750  -28.4810   22.9130 C   0  0  0  0  0  3  0  0  0  0  0  0
  -25.8260  -32.3700   23.8270 C   0  0  0  0  0  3  0  0  0  0  0  0
  -25.5080  -33.7540   24.2070 N   0  0  0  0  0  0  0  0  0  0  0  0
  -25.8330  -34.8320   23.4860 C   0  0  0  0  0  0  0  0  0  0  0  0
  -26.5040  -34.7720   22.4510 O   0  0  0  0  0  0  0  0  0  0  0  0
  -24.9180  -33.8770   25.0180 H   0  0  0  0  0  0  0  0  0  0  0  0
  -24.0910  -36.6210   23.1980 C   0  0  0  0  0  1  0  0  0  0  0  0
  -25.3370  -36.2010   23.9910 C   0  0  0  0  0  3  0  0  0  0  0  0
  -27.4620  -37.0760   24.8520 C   0  0  0  0  0  1  0  0  0  0  0  0
  -26.3600  -37.2670   23.9140 N   0  0  0  0  0  0  0  0  0  0  0  0
  -25.9430  -38.1760   24.0960 H   0  0  0  0  0  0  0  0  0  0  0  0
  -26.3500  -31.5580   25.0750 C   0  0  1  0  0  0  0  0  0  0  0  0
  -25.2580  -31.2530   26.1260 C   0  0  0  0  0  1  0  0  0  0  0  0
  -26.9690  -30.2150   24.6220 C   0  0  0  0  0  1  0  0  0  0  0  0
  -27.4770  -32.3500   25.7800 C   0  0  0  0  0  1  0  0  0  0  0  0
  1 49  1  0
  1  5  1  0
  2  3  1  0
  2  6  1  0
  4  2  1  0
  4  1  2  0
  6  9  1  0
  6  5  1  0
  9  7  1  1
  9  8  1  0
 10 19  1  0
 10  9  1  0
 11 19  1  0
 12 17  1  0
 13 14  1  0
 13 12  1  0
 15 14  1  0
 15 24  1  0
 15 16  1  0
 17 11  1  0
 17 16  1  0
 18 11  2  0
 19 20  1  0
 21 22  2  0
 22 41  1  0
 23 22  1  0
 23 26  1  0
 24 25  1  0
 24 21  1  0
 25 23  2  0
 26 27  1  0
 27 28  2  0
 29 32  1  0
 29 28  1  0
 30 29  2  0
 31 30  1  0
 31 26  2  0
 32 33  1  0
 33 38  2  0
 33 34  1  0
 34 35  2  0
 35 36  1  0
 36 40  1  0
 37 36  2  0
 38 37  1  0
 39 38  1  0
 41 42  1  0
 42 45  1  0
 42 44  1  0
 43 41  2  0
 46 47  1  0
 46 21  1  0
 48 46  1  0
 50 52  1  0
 50 49  1  0
 52 51  1  0
 53 52  1  0
 54 65  2  0
 55 53  1  0
 55 60  1  0
 56 64  1  0
 56 66  1  0
 57 63  1  0
 57 59  1  0
 58 64  1  0
 59 60  2  0
 59 58  1  0
 61 55  2  0
 62 61  1  0
 62 57  2  0
 63 56  1  0
 64 54  1  0
 66 68  2  0
 67 66  1  0
 69 67  1  0
 70 79  2  0
 70 75  1  0
 71 67  1  0
 71 75  1  0
 72 71  1  0
 73 74  1  0
 73 72  1  0
 74 70  1  0
 75 76  2  0
 76 77  1  0
 78 77  2  0
 79 78  1  0
 80 54  1  0
 80 81  1  0
 80 90  1  0
 81 84  1  0
 82 86  1  0
 82 81  1  0
 83 82  2  0
 86 85  1  0
 88 86  1  0
 88 89  1  0
 88 87  1  0
 90 93  1  1
 90 91  1  0
 92 90  1  0
M  ISO  4  11 100  19 100  52 101  53 101
M  END
>  <TORSDO>  (95) 
F 21

>  <SCORE>  (95) 
-12.206

>  <name>  (95) 
95

>  <ligand_id>  (95) 
95

>  <original_smiles>  (95) 
[H]c1c([H])c([H])c2c(c1[H])C([H])([H])C([H])([H])C([H])([H])C2([H])N([H])C(=O)C1([H])N(C(=O)C([H])(N([H])C(=O)C([H])(N([H])C([H])([H])[H])C([H])([H])[H])C(C([H])([H])[H])(C([H])([H])[H])C([H])([H])[H])C([H])([H])c2c([H])c(OC([H])(C([H])([H])[H])C([H])([H])C([H])([H])c3nc(C([H])([H])[H])n(C(C([H])([H])[H])(C([H])([H])[H])C([H])([H])N([H])C(=O)N4C([H])([H])C([H])([H])C([H])([H])C([H])(n5nc(-c6c([H])c([H])c(Oc7c([H])c([H])c(F)c([H])c7F)c([H])c6[H])c(C(=O)N([H])[H])c5N([H])[H])C4([H])[H])n3)c([H])c([H])c2C1([H])[H]

>  <smiles>  (95) 
[H]c1c([H])c([H])c2c(c1[H])C([H])([H])C([H])([H])C([H])([H])C2([H])N([H])C(=O)C1([H])N(C(=O)C([H])(N([H])C(=O)C([H])(N([H])C([H])([H])[H])C([H])([H])[H])C(C([H])([H])[H])(C([H])([H])[H])C([H])([H])[H])C([H])([H])c2c([H])c(OC([H])(C([H])([H])[H])C([H])([H])C([H])([H])c3nc(C([H])([H])[H])n(C(C([H])([H])[H])(C([H])([H])[H])C([H])([H])N([H])C(=O)N4C([H])([H])C([H])([H])C([H])([H])C([H])(n5nc(-c6c([H])c([H])c(Oc7c([H])c([H])c(F)c([H])c7F)c([H])c6[H])c(C(=O)N([H])[H])c5N([H])[H])C4([H])[H])n3)c([H])c([H])c2C1([H])[H]

$$$$
96:0:0
     RDKit          3D

 89 97  0  0  1  0  0  0  0  0999 V2000
  -29.6430  -21.3400   19.6570 C   0  0  0  0  0  3  0  0  0  0  0  0
  -30.3460  -18.8620   19.3410 C   0  0  0  0  0  3  0  0  0  0  0  0
  -30.2940  -17.6860   20.0720 C   0  0  0  0  0  0  0  0  0  0  0  0
  -29.7680  -18.0860   21.3170 N   0  0  0  0  0  0  0  0  0  0  0  0
  -29.5440  -19.3950   21.3400 N   0  0  0  0  0  0  0  0  0  0  0  0
  -29.8420  -19.9070   20.1150 N   0  0  0  0  0  0  0  0  0  0  0  0
  -29.0250  -16.1150   18.7440 C   0  0  0  0  0  1  0  0  0  0  0  0
  -31.3840  -16.3000   18.2670 C   0  0  0  0  0  1  0  0  0  0  0  0
  -30.3770  -16.2310   19.4500 C   0  0  1  0  0  0  0  0  0  0  0  0
  -30.8760  -14.8970   20.2650 C   0  0  0  0  0  0  0  0  0  0  0  0
  -30.6390  -12.5630   19.4610 C   0  0  0  0  0  2  0  0  0  0  0  0
  -29.7170  -12.5120   18.2240 C   0  0  0  0  0  2  0  0  0  0  0  0
  -28.2390  -12.3710   18.6510 C   0  0  0  0  0  2  0  0  0  0  0  0
  -27.8320  -13.2900   19.8330 C   0  0  0  0  0  3  0  0  0  0  0  0
  -28.9070  -13.3870   20.9350 C   0  0  0  0  0  2  0  0  0  0  0  0
  -30.1940  -13.6980   20.2950 N   0  0  0  0  0  0  0  0  0  0  0  0
  -32.0990  -14.8450   20.4160 O   0  0  0  0  0  0  0  0  0  0  0  0
  -25.4650  -13.9390   20.5640 C   0  0  0  0  0  0  0  0  0  0  0  0
  -24.3870  -13.1830   20.9180 C   0  0  0  0  0  0  0  0  0  0  0  0
  -24.8330  -11.8270   20.8780 C   0  0  0  0  0  0  0  0  0  0  0  0
  -26.4980  -13.0380   20.3360 N   0  0  0  0  0  0  0  0  0  0  0  0
  -26.1250  -11.7650   20.5870 N   0  0  0  0  0  0  0  0  0  0  0  0
  -24.0960  -10.5760   21.0450 C   0  0  0  0  0  0  0  0  0  0  0  0
  -24.4980   -9.6090   21.9940 C   0  0  0  0  0  3  0  0  0  0  0  0
  -23.7630   -8.4160   22.1480 C   0  0  0  0  0  3  0  0  0  0  0  0
  -22.6130   -8.1830   21.3560 C   0  0  0  0  0  0  0  0  0  0  0  0
  -22.2320   -9.1390   20.3980 C   0  0  0  0  0  3  0  0  0  0  0  0
  -22.9680  -10.3260   20.2400 C   0  0  0  0  0  3  0  0  0  0  0  0
  -21.8520   -7.0420   21.4260 O   0  0  0  0  0  0  0  0  0  0  0  0
  -21.7410   -6.3220   22.5880 C   0  0  0  0  0  0  0  0  0  0  0  0
  -21.2060   -6.8870   23.7680 C   0  0  0  0  0  3  0  0  0  0  0  0
  -21.0500   -6.0910   24.9190 C   0  0  0  0  0  3  0  0  0  0  0  0
  -21.4150   -4.7320   24.8910 C   0  0  0  0  0  0  0  0  0  0  0  0
  -21.9420   -4.1670   23.7170 C   0  0  0  0  0  3  0  0  0  0  0  0
  -22.1040   -4.9600   22.5680 C   0  0  0  0  0  0  0  0  0  0  0  0
  -22.5960   -4.4100   21.4330 F   0  0  0  0  0  0  0  0  0  0  0  0
  -21.2560   -3.9640   25.9950 F   0  0  0  0  0  0  0  0  0  0  0  0
  -22.9920  -13.6780   21.1740 C   0  0  0  0  0  0  0  0  0  0  0  0
  -22.2380  -12.9910   22.0230 N   0  0  0  0  0  0  0  0  0  0  0  0
  -22.5790  -14.7160   20.6520 O   0  0  0  0  0  0  0  0  0  0  0  0
  -22.5770  -12.1590   22.4860 H   0  0  0  0  0  0  0  0  0  0  0  0
  -21.2970  -13.3040   22.2190 H   0  0  0  0  0  0  0  0  0  0  0  0
  -25.6390  -15.3110   20.3880 N   0  0  0  0  0  0  0  0  0  0  0  0
  -24.8530  -15.9460   20.4740 H   0  0  0  0  0  0  0  0  0  0  0  0
  -26.4810  -15.7620   20.0580 H   0  0  0  0  0  0  0  0  0  0  0  0
  -28.9170  -22.4700   20.5230 C   0  0  0  0  0  3  0  0  0  0  0  0
  -28.7200  -23.9130   19.8280 C   0  0  0  0  0  3  0  0  0  0  0  0
  -28.3100  -25.1660   20.7360 C   0  0  0  0  0  3  0  0  0  0  0  0
  -28.4170  -26.5570   20.2320 O   0  0  0  0  0  0  0  0  0  0  0  0
  -24.5820  -31.8870   23.2910 C   0  0  0  0  0  0  0  0  0  0  0  0
  -27.2790  -27.3730   20.2390 C   0  0  0  0  0  0  0  0  0  0  0  0
  -23.4160  -30.4970   21.6140 C   0  0  0  0  0  3  0  0  0  0  0  0
  -24.9000  -28.9560   20.2090 C   0  0  0  0  0  0  0  0  0  0  0  0
  -25.9550  -30.8320   21.4760 C   0  0  0  0  0  2  0  0  0  0  0  0
  -26.0560  -29.4570   20.8230 C   0  0  0  0  0  0  0  0  0  0  0  0
  -27.2510  -28.6770   20.8240 C   0  0  0  0  0  3  0  0  0  0  0  0
  -26.1010  -26.9170   19.6100 C   0  0  0  0  0  3  0  0  0  0  0  0
  -24.9230  -27.6920   19.5950 C   0  0  0  0  0  3  0  0  0  0  0  0
  -23.6590  -29.8280   20.2350 C   0  0  0  0  0  2  0  0  0  0  0  0
  -24.6700  -31.0900   22.1850 N   0  0  0  0  0  0  0  0  0  0  0  0
  -23.4870  -32.1540   23.8100 O   0  0  0  0  0  0  0  0  0  0  0  0
  -22.7390  -29.4720   22.5540 C   0  0  0  0  0  0  0  0  0  0  0  0
  -21.4130  -29.3030   22.4120 N   0  0  0  0  0  0  0  0  0  0  0  0
  -23.4060  -28.8320   23.3710 O   0  0  0  0  0  0  0  0  0  0  0  0
  -20.9340  -29.8750   21.7290 H   0  0  0  0  0  0  0  0  0  0  0  0
  -18.0240  -28.1310   22.8860 C   0  0  0  0  0  0  0  0  0  0  0  0
  -20.5840  -28.3560   23.1580 C   0  0  0  0  0  3  0  0  0  0  0  0
  -20.6690  -26.9360   22.5510 C   0  0  0  0  0  2  0  0  0  0  0  0
  -19.5630  -26.6500   21.5280 C   0  0  0  0  0  2  0  0  0  0  0  0
  -18.1830  -26.7980   22.1760 C   0  0  0  0  0  2  0  0  0  0  0  0
  -19.1510  -28.8700   23.3330 C   0  0  0  0  0  0  0  0  0  0  0  0
  -18.9470  -30.1200   23.9550 C   0  0  0  0  0  3  0  0  0  0  0  0
  -17.6490  -30.6330   24.1330 C   0  0  0  0  0  3  0  0  0  0  0  0
  -16.5340  -29.8910   23.7000 C   0  0  0  0  0  3  0  0  0  0  0  0
  -16.7230  -28.6420   23.0830 C   0  0  0  0  0  3  0  0  0  0  0  0
  -25.8500  -32.5200   23.9450 C   0  0  0  0  0  3  0  0  0  0  0  0
  -25.5440  -33.9260   24.2480 N   0  0  0  0  0  0  0  0  0  0  0  0
  -25.8970  -34.9640   23.4780 C   0  0  0  0  0  0  0  0  0  0  0  0
  -26.5850  -34.8380   22.4600 O   0  0  0  0  0  0  0  0  0  0  0  0
  -24.9460  -34.0990   25.0430 H   0  0  0  0  0  0  0  0  0  0  0  0
  -24.2030  -36.7700   23.0360 C   0  0  0  0  0  1  0  0  0  0  0  0
  -25.4100  -36.3640   23.8990 C   0  0  0  0  0  3  0  0  0  0  0  0
  -27.5180  -37.2400   24.8030 C   0  0  0  0  0  1  0  0  0  0  0  0
  -26.4580  -37.4040   23.8120 N   0  0  0  0  0  0  0  0  0  0  0  0
  -26.0580  -38.3310   23.9260 H   0  0  0  0  0  0  0  0  0  0  0  0
  -26.3210  -31.7650   25.2480 C   0  0  1  0  0  0  0  0  0  0  0  0
  -25.1950  -31.5460   26.2850 C   0  0  0  0  0  1  0  0  0  0  0  0
  -26.9110  -30.3810   24.8950 C   0  0  0  0  0  1  0  0  0  0  0  0
  -27.4570  -32.5620   25.9340 C   0  0  0  0  0  1  0  0  0  0  0  0
  1  6  1  0
  1 46  2  0
  2  3  2  0
  2  6  1  0
  3  4  1  0
  4  5  2  0
  6  5  1  0
  9  7  1  6
  8  9  1  0
  9  3  1  0
  9 10  1  0
 10 16  1  0
 10 17  2  0
 11 16  1  0
 12 13  1  0
 12 11  1  0
 14 13  1  0
 14 21  1  0
 14 15  1  0
 16 15  1  0
 18 19  2  0
 19 38  1  0
 20 19  1  0
 20 23  1  0
 21 18  1  0
 21 22  1  0
 22 20  2  0
 23 24  1  0
 24 25  2  0
 26 29  1  0
 26 25  1  0
 27 26  2  0
 28 27  1  0
 28 23  2  0
 29 30  1  0
 30 31  1  0
 31 32  2  0
 33 32  1  0
 33 37  1  0
 34 33  2  0
 35 30  2  0
 35 34  1  0
 36 35  1  0
 38 39  1  0
 39 42  1  0
 39 41  1  0
 40 38  2  0
 43 44  1  0
 43 18  1  0
 45 43  1  0
 47 46  1  0
 47 48  2  0
 49 51  1  0
 49 48  1  0
 50 61  2  0
 51 56  1  0
 52 60  1  0
 52 62  1  0
 53 59  1  0
 53 55  1  0
 54 60  1  0
 55 56  2  0
 55 54  1  0
 57 51  2  0
 58 57  1  0
 58 53  2  0
 59 52  1  0
 60 50  1  0
 62 64  2  0
 63 62  1  0
 65 63  1  0
 66 75  2  0
 66 71  1  0
 67 63  1  0
 67 71  1  0
 68 67  1  0
 69 70  1  0
 69 68  1  0
 70 66  1  0
 71 72  2  0
 72 73  1  0
 74 73  2  0
 75 74  1  0
 76 50  1  0
 76 77  1  0
 76 86  1  0
 77 80  1  0
 78 82  1  0
 78 77  1  0
 79 78  2  0
 82 81  1  0
 84 82  1  0
 84 85  1  0
 84 83  1  0
 86 89  1  1
 86 87  1  0
 88 86  1  0
M  ISO  4   9 100  10 100  48 101  49 101
M  END
>  <TORSDO>  (96) 
F 21

>  <SCORE>  (96) 
-12.847

>  <name>  (96) 
96

>  <ligand_id>  (96) 
96

>  <original_smiles>  (96) 
[H]c1c([H])c([H])c2c(c1[H])C([H])([H])C([H])([H])C([H])([H])C2([H])N([H])C(=O)C1([H])N(C(=O)C([H])(N([H])C(=O)C([H])(N([H])C([H])([H])[H])C([H])([H])[H])C(C([H])([H])[H])(C([H])([H])[H])C([H])([H])[H])C([H])([H])c2c([H])c(OC([H])([H])C([H])([H])C([H])([H])C([H])([H])n3nnc(C(C(=O)N4C([H])([H])C([H])([H])C([H])([H])C([H])(n5nc(-c6c([H])c([H])c(Oc7c([H])c([H])c(F)c([H])c7F)c([H])c6[H])c(C(=O)N([H])[H])c5N([H])[H])C4([H])[H])(C([H])([H])[H])C([H])([H])[H])c3[H])c([H])c([H])c2C1([H])[H]

>  <smiles>  (96) 
[H]c1c([H])c([H])c2c(c1[H])C([H])([H])C([H])([H])C([H])([H])C2([H])N([H])C(=O)C1([H])N(C(=O)C([H])(N([H])C(=O)C([H])(N([H])C([H])([H])[H])C([H])([H])[H])C(C([H])([H])[H])(C([H])([H])[H])C([H])([H])[H])C([H])([H])c2c([H])c(OC([H])([H])C([H])([H])C([H])([H])C([H])([H])n3nnc(C(C(=O)N4C([H])([H])C([H])([H])C([H])([H])C([H])(n5nc(-c6c([H])c([H])c(Oc7c([H])c([H])c(F)c([H])c7F)c([H])c6[H])c(C(=O)N([H])[H])c5N([H])[H])C4([H])[H])(C([H])([H])[H])C([H])([H])[H])c3[H])c([H])c([H])c2C1([H])[H]

$$$$
97:0:0
     RDKit          3D

 91 99  0  0  1  0  0  0  0  0999 V2000
  -27.9550  -22.4440   22.1490 C   0  0  0  0  0  1  0  0  0  0  0  0
  -30.3660  -22.8480   21.6700 C   0  0  0  0  0  1  0  0  0  0  0  0
  -28.9880  -22.6010   21.0080 C   0  0  2  0  0  0  0  0  0  0  0  0
  -29.6680  -24.2430   19.0880 C   0  0  0  0  0  1  0  0  0  0  0  0
  -27.2800  -23.5950   19.3240 C   0  0  0  0  0  1  0  0  0  0  0  0
  -28.5660  -23.9190   20.1140 C   0  0  1  0  0  0  0  0  0  0  0  0
  -28.2840  -25.3090   20.9020 C   0  0  0  0  0  2  0  0  0  0  0  0
  -28.4440  -26.6350   20.2410 O   0  0  0  0  0  0  0  0  0  0  0  0
  -24.6070  -31.9560   23.2200 C   0  0  0  0  0  0  0  0  0  0  0  0
  -27.3340  -27.4840   20.1930 C   0  0  0  0  0  0  0  0  0  0  0  0
  -23.4520  -30.5620   21.5390 C   0  0  0  0  0  3  0  0  0  0  0  0
  -24.9540  -29.0540   20.1210 C   0  0  0  0  0  0  0  0  0  0  0  0
  -25.9850  -30.9350   21.3950 C   0  0  0  0  0  2  0  0  0  0  0  0
  -26.1020  -29.5630   20.7430 C   0  0  0  0  0  0  0  0  0  0  0  0
  -27.3010  -28.7910   20.7660 C   0  0  0  0  0  3  0  0  0  0  0  0
  -26.1770  -27.0340   19.5300 C   0  0  0  0  0  3  0  0  0  0  0  0
  -24.9940  -27.7950   19.4990 C   0  0  0  0  0  3  0  0  0  0  0  0
  -23.7010  -29.9070   20.1540 C   0  0  0  0  0  2  0  0  0  0  0  0
  -24.6990  -31.1680   22.1080 N   0  0  0  0  0  0  0  0  0  0  0  0
  -23.5120  -32.2040   23.7440 O   0  0  0  0  0  0  0  0  0  0  0  0
  -22.7950  -29.5170   22.4740 C   0  0  0  0  0  0  0  0  0  0  0  0
  -21.4760  -29.3120   22.3190 N   0  0  0  0  0  0  0  0  0  0  0  0
  -23.4730  -28.8940   23.2950 O   0  0  0  0  0  0  0  0  0  0  0  0
  -20.9930  -29.8650   21.6270 H   0  0  0  0  0  0  0  0  0  0  0  0
  -18.1170  -28.0420   22.7430 C   0  0  0  0  0  0  0  0  0  0  0  0
  -20.6630  -28.3490   23.0630 C   0  0  0  0  0  3  0  0  0  0  0  0
  -20.8070  -26.9280   22.4720 C   0  0  0  0  0  2  0  0  0  0  0  0
  -19.7300  -26.5930   21.4360 C   0  0  0  0  0  2  0  0  0  0  0  0
  -18.3330  -26.7050   22.0530 C   0  0  0  0  0  2  0  0  0  0  0  0
  -19.2110  -28.8200   23.2020 C   0  0  0  0  0  0  0  0  0  0  0  0
  -18.9570  -30.0710   23.8050 C   0  0  0  0  0  3  0  0  0  0  0  0
  -17.6400  -30.5450   23.9520 C   0  0  0  0  0  3  0  0  0  0  0  0
  -16.5600  -29.7630   23.5110 C   0  0  0  0  0  3  0  0  0  0  0  0
  -16.7990  -28.5130   22.9140 C   0  0  0  0  0  3  0  0  0  0  0  0
  -25.8690  -32.6000   23.8710 C   0  0  0  0  0  3  0  0  0  0  0  0
  -25.5340  -33.9890   24.2140 N   0  0  0  0  0  0  0  0  0  0  0  0
  -25.8490  -35.0540   23.4640 C   0  0  0  0  0  0  0  0  0  0  0  0
  -26.5240  -34.9720   22.4350 O   0  0  0  0  0  0  0  0  0  0  0  0
  -24.9450  -34.1220   25.0220 H   0  0  0  0  0  0  0  0  0  0  0  0
  -24.0890  -36.8150   23.1090 C   0  0  0  0  0  1  0  0  0  0  0  0
  -25.3310  -36.4300   23.9280 C   0  0  0  0  0  3  0  0  0  0  0  0
  -27.4370  -37.3540   24.7870 C   0  0  0  0  0  1  0  0  0  0  0  0
  -26.3440  -37.5040   23.8300 N   0  0  0  0  0  0  0  0  0  0  0  0
  -25.9190  -38.4160   23.9740 H   0  0  0  0  0  0  0  0  0  0  0  0
  -26.3740  -31.8200   25.1470 C   0  0  1  0  0  0  0  0  0  0  0  0
  -25.2630  -31.5300   26.1830 C   0  0  0  0  0  1  0  0  0  0  0  0
  -27.0030  -30.4660   24.7420 C   0  0  0  0  0  1  0  0  0  0  0  0
  -27.4890  -32.6290   25.8500 C   0  0  0  0  0  1  0  0  0  0  0  0
  -29.0700  -21.1510   20.2620 C   0  0  0  0  0  3  0  0  0  0  0  0
  -29.9280  -19.9480   20.9100 C   0  0  0  0  0  3  0  0  0  0  0  0
  -30.6960  -17.4750   20.3520 C   0  0  0  0  0  3  0  0  0  0  0  0
  -28.5760  -17.7870   20.4610 C   0  0  0  0  0  3  0  0  0  0  0  0
  -30.0970  -16.2150   20.1890 C   0  0  0  0  0  0  0  0  0  0  0  0
  -28.7170  -16.4660   20.2520 N   0  0  0  0  0  0  0  0  0  0  0  0
  -29.7220  -18.4900   20.5370 N   0  0  0  0  0  0  0  0  0  0  0  0
  -30.8430  -14.8620   19.8950 C   0  0  0  0  0  0  0  0  0  0  0  0
  -30.5920  -12.5600   18.9610 C   0  0  0  0  0  2  0  0  0  0  0  0
  -29.5940  -12.6240   17.7850 C   0  0  0  0  0  2  0  0  0  0  0  0
  -28.1490  -12.4490   18.2940 C   0  0  0  0  0  2  0  0  0  0  0  0
  -27.8390  -13.3610   19.5110 C   0  0  0  0  0  3  0  0  0  0  0  0
  -28.9550  -13.2860   20.5740 C   0  0  0  0  0  2  0  0  0  0  0  0
  -30.2160  -13.6340   19.9130 N   0  0  0  0  0  0  0  0  0  0  0  0
  -32.0020  -14.9290   19.4760 O   0  0  0  0  0  0  0  0  0  0  0  0
  -25.5210  -13.9750   20.4100 C   0  0  0  0  0  0  0  0  0  0  0  0
  -24.4630  -13.2100   20.8170 C   0  0  0  0  0  0  0  0  0  0  0  0
  -24.8940  -11.8510   20.7070 C   0  0  0  0  0  0  0  0  0  0  0  0
  -26.5270  -13.0830   20.0780 N   0  0  0  0  0  0  0  0  0  0  0  0
  -26.1600  -11.7970   20.3160 N   0  0  0  0  0  0  0  0  0  0  0  0
  -24.1580  -10.5970   20.9010 C   0  0  0  0  0  0  0  0  0  0  0  0
  -24.6000   -9.6160   21.8150 C   0  0  0  0  0  3  0  0  0  0  0  0
  -23.8670   -8.4240   21.9990 C   0  0  0  0  0  3  0  0  0  0  0  0
  -22.6780   -8.2050   21.2640 C   0  0  0  0  0  0  0  0  0  0  0  0
  -22.2530   -9.1730   20.3380 C   0  0  0  0  0  3  0  0  0  0  0  0
  -22.9860  -10.3570   20.1550 C   0  0  0  0  0  3  0  0  0  0  0  0
  -21.9160   -7.0660   21.3550 O   0  0  0  0  0  0  0  0  0  0  0  0
  -21.8360   -6.3420   22.5170 C   0  0  0  0  0  0  0  0  0  0  0  0
  -21.3540   -6.9090   23.7170 C   0  0  0  0  0  3  0  0  0  0  0  0
  -21.2250   -6.1100   24.8710 C   0  0  0  0  0  3  0  0  0  0  0  0
  -21.5690   -4.7450   24.8260 C   0  0  0  0  0  0  0  0  0  0  0  0
  -22.0450   -4.1780   23.6310 C   0  0  0  0  0  3  0  0  0  0  0  0
  -22.1750   -4.9740   22.4780 C   0  0  0  0  0  0  0  0  0  0  0  0
  -22.6130   -4.4170   21.3240 F   0  0  0  0  0  0  0  0  0  0  0  0
  -21.4370   -3.9750   25.9310 F   0  0  0  0  0  0  0  0  0  0  0  0
  -23.0990  -13.7000   21.2030 C   0  0  0  0  0  0  0  0  0  0  0  0
  -22.4190  -12.9820   22.0900 N   0  0  0  0  0  0  0  0  0  0  0  0
  -22.6460  -14.7540   20.7570 O   0  0  0  0  0  0  0  0  0  0  0  0
  -22.8040  -12.1320   22.4740 H   0  0  0  0  0  0  0  0  0  0  0  0
  -21.5060  -13.2910   22.3920 H   0  0  0  0  0  0  0  0  0  0  0  0
  -25.7170  -15.3470   20.2770 N   0  0  0  0  0  0  0  0  0  0  0  0
  -25.0120  -16.0420   20.4930 H   0  0  0  0  0  0  0  0  0  0  0  0
  -26.6410  -15.7420   20.1040 H   0  0  0  0  0  0  0  0  0  0  0  0
  3  2  1  1
  3  1  1  0
  6  4  1  6
  5  6  1  0
  6  7  1  0
  6  3  1  0
  8  7  1  0
  9 20  2  0
 10  8  1  0
 10 15  1  0
 11 19  1  0
 11 21  1  0
 12 18  1  0
 12 14  1  0
 13 19  1  0
 14 15  2  0
 14 13  1  0
 16 10  2  0
 17 16  1  0
 17 12  2  0
 18 11  1  0
 19  9  1  0
 21 23  2  0
 22 21  1  0
 24 22  1  0
 25 34  2  0
 25 30  1  0
 26 22  1  0
 26 30  1  0
 27 26  1  0
 28 29  1  0
 28 27  1  0
 29 25  1  0
 30 31  2  0
 31 32  1  0
 33 32  2  0
 34 33  1  0
 35  9  1  0
 35 36  1  0
 35 45  1  0
 36 39  1  0
 37 41  1  0
 37 36  1  0
 38 37  2  0
 41 40  1  0
 43 41  1  0
 43 44  1  0
 43 42  1  0
 45 48  1  1
 45 46  1  0
 47 45  1  0
 49 50  2  0
 49  3  1  0
 51 55  1  0
 52 55  1  0
 53 54  1  0
 53 51  2  0
 54 52  2  0
 55 50  1  0
 56 62  1  0
 56 53  1  0
 57 62  1  0
 58 59  1  0
 58 57  1  0
 60 59  1  0
 60 67  1  0
 60 61  1  0
 62 61  1  0
 63 56  2  0
 64 65  2  0
 65 84  1  0
 66 65  1  0
 66 69  1  0
 67 68  1  0
 67 64  1  0
 68 66  2  0
 69 70  1  0
 70 71  2  0
 72 75  1  0
 72 71  1  0
 73 72  2  0
 74 73  1  0
 74 69  2  0
 75 76  1  0
 76 77  1  0
 77 78  2  0
 79 78  1  0
 79 83  1  0
 80 79  2  0
 81 76  2  0
 81 80  1  0
 82 81  1  0
 84 85  1  0
 85 88  1  0
 85 87  1  0
 86 84  2  0
 89 64  1  0
 89 90  1  0
 91 89  1  0
M  ISO  4   7 101   8 101  53 100  56 100
M  END
>  <TORSDO>  (97) 
F 21

>  <SCORE>  (97) 
-13.321

>  <name>  (97) 
97

>  <ligand_id>  (97) 
97

>  <original_smiles>  (97) 
[H]c1c([H])c([H])c2c(c1[H])C([H])([H])C([H])([H])C([H])([H])C2([H])N([H])C(=O)C1([H])N(C(=O)C([H])(N([H])C(=O)C([H])(N([H])C([H])([H])[H])C([H])([H])[H])C(C([H])([H])[H])(C([H])([H])[H])C([H])([H])[H])C([H])([H])c2c([H])c(OC([H])([H])C(C([H])([H])[H])(C([H])([H])[H])C(C([H])([H])[H])(C([H])([H])[H])C([H])([H])C([H])([H])n3c([H])nc(C(=O)N4C([H])([H])C([H])([H])C([H])([H])C([H])(n5nc(-c6c([H])c([H])c(Oc7c([H])c([H])c(F)c([H])c7F)c([H])c6[H])c(C(=O)N([H])[H])c5N([H])[H])C4([H])[H])c3[H])c([H])c([H])c2C1([H])[H]

>  <smiles>  (97) 
[H]c1c([H])c([H])c2c(c1[H])C([H])([H])C([H])([H])C([H])([H])C2([H])N([H])C(=O)C1([H])N(C(=O)C([H])(N([H])C(=O)C([H])(N([H])C([H])([H])[H])C([H])([H])[H])C(C([H])([H])[H])(C([H])([H])[H])C([H])([H])[H])C([H])([H])c2c([H])c(OC([H])([H])C(C([H])([H])[H])(C([H])([H])[H])C(C([H])([H])[H])(C([H])([H])[H])C([H])([H])C([H])([H])n3c([H])nc(C(=O)N4C([H])([H])C([H])([H])C([H])([H])C([H])(n5nc(-c6c([H])c([H])c(Oc7c([H])c([H])c(F)c([H])c7F)c([H])c6[H])c(C(=O)N([H])[H])c5N([H])[H])C4([H])[H])c3[H])c([H])c([H])c2C1([H])[H]

$$$$
98:0:0
     RDKit          3D

 95103  0  0  1  0  0  0  0  0999 V2000
  -28.3620  -19.2200   20.4320 C   0  0  0  0  0  0  0  0  0  0  0  0
  -29.7110  -17.7810   19.6970 C   0  0  0  0  0  0  0  0  0  0  0  0
  -27.6060  -18.2300   19.9440 N   0  0  0  0  0  0  0  0  0  0  0  0
  -28.4880  -17.2890   19.4580 N   0  0  0  0  0  0  0  0  0  0  0  0
  -29.6890  -18.9720   20.3430 N   0  0  0  0  0  0  0  0  0  0  0  0
  -31.3330  -18.0440   17.8400 C   0  0  0  0  0  1  0  0  0  0  0  0
  -30.9860  -17.2150   19.1200 C   0  0  0  0  0  3  0  0  0  0  0  0
  -31.1690  -14.9430   20.0590 C   0  0  0  0  0  0  0  0  0  0  0  0
  -30.8740  -12.5730   19.5650 C   0  0  0  0  0  2  0  0  0  0  0  0
  -29.9750  -12.3840   18.3210 C   0  0  0  0  0  2  0  0  0  0  0  0
  -28.5120  -12.2700   18.7680 C   0  0  0  0  0  2  0  0  0  0  0  0
  -28.0700  -13.4030   19.7290 C   0  0  0  0  0  3  0  0  0  0  0  0
  -29.1170  -13.6480   20.8480 C   0  0  0  0  0  2  0  0  0  0  0  0
  -30.4300  -13.8080   20.2080 N   0  0  0  0  0  0  0  0  0  0  0  0
  -32.3250  -15.0250   20.4430 O   0  0  0  0  0  0  0  0  0  0  0  0
  -31.5730  -15.2630   17.7220 C   0  0  0  0  0  1  0  0  0  0  0  0
  -30.8950  -15.7190   18.9670 N   0  0  0  0  0  0  0  0  0  0  0  0
  -25.6780  -14.0380   20.4320 C   0  0  0  0  0  0  0  0  0  0  0  0
  -24.5920  -13.2730   20.7700 C   0  0  0  0  0  0  0  0  0  0  0  0
  -25.0400  -11.9180   20.7570 C   0  0  0  0  0  0  0  0  0  0  0  0
  -26.7210  -13.1450   20.2330 N   0  0  0  0  0  0  0  0  0  0  0  0
  -26.3390  -11.8670   20.4970 N   0  0  0  0  0  0  0  0  0  0  0  0
  -24.2970  -10.6610   20.9230 C   0  0  0  0  0  0  0  0  0  0  0  0
  -24.6520   -9.7300   21.9210 C   0  0  0  0  0  3  0  0  0  0  0  0
  -23.9140   -8.5360   22.0830 C   0  0  0  0  0  3  0  0  0  0  0  0
  -22.8060   -8.2700   21.2430 C   0  0  0  0  0  0  0  0  0  0  0  0
  -22.4700   -9.1930   20.2360 C   0  0  0  0  0  3  0  0  0  0  0  0
  -23.2100  -10.3770   20.0720 C   0  0  0  0  0  3  0  0  0  0  0  0
  -22.0410   -7.1270   21.3140 O   0  0  0  0  0  0  0  0  0  0  0  0
  -21.8340   -6.4690   22.5010 C   0  0  0  0  0  0  0  0  0  0  0  0
  -21.2280   -7.1030   23.6080 C   0  0  0  0  0  3  0  0  0  0  0  0
  -20.9630   -6.3680   24.7800 C   0  0  0  0  0  3  0  0  0  0  0  0
  -21.2940   -5.0020   24.8460 C   0  0  0  0  0  0  0  0  0  0  0  0
  -21.9030   -4.3700   23.7460 C   0  0  0  0  0  3  0  0  0  0  0  0
  -22.1650   -5.1010   22.5740 C   0  0  0  0  0  0  0  0  0  0  0  0
  -22.7250   -4.4810   21.5060 F   0  0  0  0  0  0  0  0  0  0  0  0
  -21.0360   -4.2960   25.9700 F   0  0  0  0  0  0  0  0  0  0  0  0
  -23.1930  -13.7630   21.0010 C   0  0  0  0  0  0  0  0  0  0  0  0
  -22.4490  -13.0820   21.8660 N   0  0  0  0  0  0  0  0  0  0  0  0
  -22.7670  -14.7790   20.4570 O   0  0  0  0  0  0  0  0  0  0  0  0
  -22.8160  -12.2680   22.3360 H   0  0  0  0  0  0  0  0  0  0  0  0
  -21.5100  -13.3890   22.0650 H   0  0  0  0  0  0  0  0  0  0  0  0
  -25.8640  -15.4020   20.2570 N   0  0  0  0  0  0  0  0  0  0  0  0
  -25.1070  -16.0740   20.3260 H   0  0  0  0  0  0  0  0  0  0  0  0
  -26.7440  -15.8370   19.9910 H   0  0  0  0  0  0  0  0  0  0  0  0
  -27.8110  -20.5310   20.9320 C   0  0  0  0  0  2  0  0  0  0  0  0
  -27.9580  -21.6810   19.8980 C   0  0  0  0  0  2  0  0  0  0  0  0
  -28.2500  -23.0750   20.5080 C   0  0  0  0  0  2  0  0  0  0  0  0
  -28.1800  -24.2550   19.4970 C   0  0  0  0  0  2  0  0  0  0  0  0
  -28.3630  -25.6490   20.1640 C   0  0  0  0  0  2  0  0  0  0  0  0
  -28.2700  -26.7830   19.2770 O   0  0  0  0  0  0  0  0  0  0  0  0
  -24.5620  -31.6140   23.0020 C   0  0  0  0  0  0  0  0  0  0  0  0
  -27.1100  -27.5160   19.3980 C   0  0  0  0  0  0  0  0  0  0  0  0
  -23.3000  -30.3360   21.3060 C   0  0  0  0  0  3  0  0  0  0  0  0
  -24.6990  -28.9670   19.6750 C   0  0  0  0  0  0  0  0  0  0  0  0
  -25.8020  -30.7740   21.0020 C   0  0  0  0  0  2  0  0  0  0  0  0
  -25.8810  -29.4680   20.2350 C   0  0  0  0  0  0  0  0  0  0  0  0
  -27.0970  -28.7570   20.0780 C   0  0  0  0  0  3  0  0  0  0  0  0
  -25.9110  -27.0310   18.8390 C   0  0  0  0  0  3  0  0  0  0  0  0
  -24.7100  -27.7500   18.9710 C   0  0  0  0  0  3  0  0  0  0  0  0
  -23.4450  -29.7880   19.8620 C   0  0  0  0  0  2  0  0  0  0  0  0
  -24.5760  -30.9180   21.8280 N   0  0  0  0  0  0  0  0  0  0  0  0
  -23.5040  -31.8120   23.6150 O   0  0  0  0  0  0  0  0  0  0  0  0
  -22.7210  -29.2170   22.2030 C   0  0  0  0  0  0  0  0  0  0  0  0
  -21.4010  -28.9960   22.1070 N   0  0  0  0  0  0  0  0  0  0  0  0
  -23.4580  -28.5530   22.9400 O   0  0  0  0  0  0  0  0  0  0  0  0
  -20.8650  -29.5890   21.4860 H   0  0  0  0  0  0  0  0  0  0  0  0
  -18.0980  -27.6080   22.5820 C   0  0  0  0  0  0  0  0  0  0  0  0
  -20.6440  -27.9690   22.8260 C   0  0  0  0  0  3  0  0  0  0  0  0
  -20.8030  -26.5880   22.1510 C   0  0  0  0  0  2  0  0  0  0  0  0
  -19.6960  -26.2800   21.1370 C   0  0  0  0  0  2  0  0  0  0  0  0
  -18.3220  -26.3160   21.8150 C   0  0  0  0  0  2  0  0  0  0  0  0
  -19.1880  -28.3930   23.0430 C   0  0  0  0  0  0  0  0  0  0  0  0
  -18.9210  -29.6040   23.7190 C   0  0  0  0  0  3  0  0  0  0  0  0
  -17.5980  -30.0300   23.9390 C   0  0  0  0  0  3  0  0  0  0  0  0
  -16.5240  -29.2410   23.4940 C   0  0  0  0  0  3  0  0  0  0  0  0
  -16.7750  -28.0310   22.8220 C   0  0  0  0  0  3  0  0  0  0  0  0
  -25.8630  -32.2220   23.6120 C   0  0  0  0  0  3  0  0  0  0  0  0
  -26.4460  -31.3750   24.8090 C   0  0  1  0  0  0  0  0  0  0  0  0
  -25.4070  -31.0600   25.9110 C   0  0  0  0  0  1  0  0  0  0  0  0
  -27.0120  -30.0310   24.2950 C   0  0  0  0  0  1  0  0  0  0  0  0
  -27.6220  -32.1350   25.4650 C   0  0  0  0  0  1  0  0  0  0  0  0
  -25.5500  -33.5900   24.0480 N   0  0  0  0  0  0  0  0  0  0  0  0
  -25.8550  -34.6970   23.3600 C   0  0  0  0  0  0  0  0  0  0  0  0
  -26.4980  -34.6730   22.3070 O   0  0  0  0  0  0  0  0  0  0  0  0
  -24.9700  -33.6820   24.8710 H   0  0  0  0  0  0  0  0  0  0  0  0
  -24.0910  -36.4800   23.1950 C   0  0  0  0  0  1  0  0  0  0  0  0
  -25.3690  -36.0440   23.9280 C   0  0  0  0  0  3  0  0  0  0  0  0
  -27.5210  -36.9000   24.7390 C   0  0  0  0  0  1  0  0  0  0  0  0
  -26.3840  -37.1160   23.8470 N   0  0  0  0  0  0  0  0  0  0  0  0
  -25.9730  -38.0190   24.0680 H   0  0  0  0  0  0  0  0  0  0  0  0
  -30.8030  -19.8090   20.7840 C   0  0  0  0  0  2  0  0  0  0  0  0
  -31.0430  -19.7470   22.3060 C   0  0  0  0  0  2  0  0  0  0  0  0
  -31.3200  -18.3290   24.4080 C   0  0  0  0  0  1  0  0  0  0  0  0
  -30.9830  -18.3310   22.9150 C   0  0  0  0  0  2  0  0  0  0  0  0
  1 46  1  0
  2  5  1  0
  3  1  2  0
  4  2  2  0
  4  3  1  0
  5  1  1  0
  5 92  1  0
  7  6  1  0
  7  2  1  0
  8 14  1  0
  8 15  2  0
  9 14  1  0
 10 11  1  0
 10  9  1  0
 12 11  1  0
 12 21  1  0
 12 13  1  0
 14 13  1  0
 16 17  1  0
 17  7  1  0
 17  8  1  0
 18 19  2  0
 19 38  1  0
 20 19  1  0
 20 23  1  0
 21 18  1  0
 21 22  1  0
 22 20  2  0
 23 24  1  0
 24 25  2  0
 26 29  1  0
 26 25  1  0
 27 26  2  0
 28 27  1  0
 28 23  2  0
 29 30  1  0
 30 35  2  0
 30 31  1  0
 31 32  2  0
 32 33  1  0
 33 37  1  0
 34 33  2  0
 35 34  1  0
 36 35  1  0
 38 39  1  0
 39 42  1  0
 39 41  1  0
 40 38  2  0
 43 44  1  0
 43 18  1  0
 45 43  1  0
 47 48  1  0
 47 46  1  0
 49 50  1  0
 49 48  1  0
 51 53  1  0
 51 50  1  0
 52 63  2  0
 53 58  1  0
 54 62  1  0
 54 64  1  0
 55 61  1  0
 55 57  1  0
 56 62  1  0
 57 56  1  0
 58 57  2  0
 59 60  1  0
 59 53  2  0
 60 55  2  0
 61 54  1  0
 62 52  1  0
 64 66  2  0
 65 64  1  0
 67 65  1  0
 68 77  2  0
 68 73  1  0
 69 65  1  0
 69 73  1  0
 70 69  1  0
 71 72  1  0
 71 70  1  0
 72 68  1  0
 73 74  2  0
 74 75  1  0
 76 75  2  0
 77 76  1  0
 78 52  1  0
 78 83  1  0
 78 79  1  0
 79 82  1  1
 79 80  1  0
 81 79  1  0
 83 86  1  0
 84 88  1  0
 84 83  1  0
 85 84  2  0
 88 87  1  0
 90 88  1  0
 90 91  1  0
 90 89  1  0
 92 93  1  0
 93 95  1  0
 95 94  1  0
M  ISO  4   8 100  17 100  50 101  51 101
M  END
>  <TORSDO>  (98) 
F 25

>  <SCORE>  (98) 
-9.694

>  <name>  (98) 
98

>  <ligand_id>  (98) 
98

>  <original_smiles>  (98) 
[H]c1c([H])c([H])c2c(c1[H])C([H])([H])C([H])([H])C([H])([H])C2([H])N([H])C(=O)C1([H])N(C(=O)C([H])(N([H])C(=O)C([H])(N([H])C([H])([H])[H])C([H])([H])[H])C(C([H])([H])[H])(C([H])([H])[H])C([H])([H])[H])C([H])([H])c2c([H])c(OC([H])([H])C([H])([H])C([H])([H])C([H])([H])C([H])([H])c3nnc(C([H])(N(C(=O)N4C([H])([H])C([H])([H])C([H])([H])C([H])(n5nc(-c6c([H])c([H])c(Oc7c([H])c([H])c(F)c([H])c7F)c([H])c6[H])c(C(=O)N([H])[H])c5N([H])[H])C4([H])[H])C([H])([H])[H])C([H])([H])[H])n3C([H])([H])C([H])([H])C([H])([H])C([H])([H])[H])c([H])c([H])c2C1([H])[H]

>  <smiles>  (98) 
[H]c1c([H])c([H])c2c(c1[H])C([H])([H])C([H])([H])C([H])([H])C2([H])N([H])C(=O)C1([H])N(C(=O)C([H])(N([H])C(=O)C([H])(N([H])C([H])([H])[H])C([H])([H])[H])C(C([H])([H])[H])(C([H])([H])[H])C([H])([H])[H])C([H])([H])c2c([H])c(OC([H])([H])C([H])([H])C([H])([H])C([H])([H])C([H])([H])c3nnc(C([H])(N(C(=O)N4C([H])([H])C([H])([H])C([H])([H])C([H])(n5nc(-c6c([H])c([H])c(Oc7c([H])c([H])c(F)c([H])c7F)c([H])c6[H])c(C(=O)N([H])[H])c5N([H])[H])C4([H])[H])C([H])([H])[H])C([H])([H])[H])n3C([H])([H])C([H])([H])C([H])([H])C([H])([H])[H])c([H])c([H])c2C1([H])[H]

$$$$
