1:0:0
     RDKit          3D

 89 97  0  0  1  0  0  0  0  0999 V2000
  -30.5290  -24.3000   19.8640 C   0  0  0  0  0  1  0  0  0  0  0  0
  -28.5600  -23.7960   18.3940 C   0  0  0  0  0  1  0  0  0  0  0  0
  -29.0550  -23.8560   19.8510 C   0  0  1  0  0  0  0  0  0  0  0  0
  -28.9770  -22.3560   20.4850 C   0  0  0  0  0  3  0  0  0  0  0  0
  -29.5780  -21.0990   19.6650 C   0  0  0  0  0  3  0  0  0  0  0  0
  -29.4070  -18.4360   19.8290 C   0  0  0  0  0  3  0  0  0  0  0  0
  -29.9690  -17.4930   20.6900 C   0  0  0  0  0  0  0  0  0  0  0  0
  -30.6670  -18.2690   21.6300 N   0  0  0  0  0  0  0  0  0  0  0  0
  -30.5720  -19.5540   21.3690 N   0  0  0  0  0  0  0  0  0  0  0  0
  -29.7710  -19.7240   20.2870 N   0  0  0  0  0  0  0  0  0  0  0  0
  -29.6770  -15.9570   20.9290 C   0  0  0  0  0  2  0  0  0  0  0  0
  -30.5390  -14.7190   20.3770 C   0  0  0  0  0  0  0  0  0  0  0  0
  -30.3700  -12.4620   19.2900 C   0  0  0  0  0  2  0  0  0  0  0  0
  -29.4070  -12.5710   18.0840 C   0  0  0  0  0  2  0  0  0  0  0  0
  -27.9400  -12.3900   18.5260 C   0  0  0  0  0  2  0  0  0  0  0  0
  -27.5870  -13.2560   19.7620 C   0  0  0  0  0  3  0  0  0  0  0  0
  -28.6570  -13.1070   20.8670 C   0  0  0  0  0  2  0  0  0  0  0  0
  -29.9580  -13.4720   20.2880 N   0  0  0  0  0  0  0  0  0  0  0  0
  -31.6870  -14.8890   19.9490 O   0  0  0  0  0  0  0  0  0  0  0  0
  -25.2070  -13.8720   20.5070 C   0  0  0  0  0  0  0  0  0  0  0  0
  -24.1390  -13.1060   20.8890 C   0  0  0  0  0  0  0  0  0  0  0  0
  -24.5950  -11.7520   20.8590 C   0  0  0  0  0  0  0  0  0  0  0  0
  -26.2430  -12.9840   20.2630 N   0  0  0  0  0  0  0  0  0  0  0  0
  -25.8820  -11.7050   20.5370 N   0  0  0  0  0  0  0  0  0  0  0  0
  -23.8640  -10.4950   21.0610 C   0  0  0  0  0  0  0  0  0  0  0  0
  -24.3160   -9.5150   21.9720 C   0  0  0  0  0  3  0  0  0  0  0  0
  -23.5870   -8.3220   22.1600 C   0  0  0  0  0  3  0  0  0  0  0  0
  -22.3910   -8.0990   21.4370 C   0  0  0  0  0  0  0  0  0  0  0  0
  -21.9580   -9.0680   20.5150 C   0  0  0  0  0  3  0  0  0  0  0  0
  -22.6870  -10.2530   20.3240 C   0  0  0  0  0  3  0  0  0  0  0  0
  -21.6310   -6.9590   21.5360 O   0  0  0  0  0  0  0  0  0  0  0  0
  -21.6290   -6.1920   22.6740 C   0  0  0  0  0  0  0  0  0  0  0  0
  -21.2880   -6.7290   23.9340 C   0  0  0  0  0  3  0  0  0  0  0  0
  -21.2310   -5.8890   25.0640 C   0  0  0  0  0  3  0  0  0  0  0  0
  -21.5070   -4.5140   24.9360 C   0  0  0  0  0  0  0  0  0  0  0  0
  -21.8430   -3.9770   23.6810 C   0  0  0  0  0  3  0  0  0  0  0  0
  -21.9010   -4.8140   22.5520 C   0  0  0  0  0  0  0  0  0  0  0  0
  -22.2030   -4.2870   21.3410 F   0  0  0  0  0  0  0  0  0  0  0  0
  -21.4450   -3.7060   26.0200 F   0  0  0  0  0  0  0  0  0  0  0  0
  -22.7470  -13.5910   21.1730 C   0  0  0  0  0  0  0  0  0  0  0  0
  -22.0240  -12.9020   22.0500 N   0  0  0  0  0  0  0  0  0  0  0  0
  -22.3070  -14.6140   20.6510 O   0  0  0  0  0  0  0  0  0  0  0  0
  -22.3940  -12.0740   22.4950 H   0  0  0  0  0  0  0  0  0  0  0  0
  -21.0910  -13.2080   22.2840 H   0  0  0  0  0  0  0  0  0  0  0  0
  -25.3760  -15.2420   20.3250 N   0  0  0  0  0  0  0  0  0  0  0  0
  -24.6100  -15.8970   20.4410 H   0  0  0  0  0  0  0  0  0  0  0  0
  -26.2200  -15.6780   19.9790 H   0  0  0  0  0  0  0  0  0  0  0  0
  -28.2070  -25.0190   20.5850 C   0  0  0  0  0  2  0  0  0  0  0  0
  -28.3610  -26.4500   20.1720 O   0  0  0  0  0  0  0  0  0  0  0  0
  -24.6380  -31.8760   23.2180 C   0  0  0  0  0  0  0  0  0  0  0  0
  -27.2370  -27.2970   20.1670 C   0  0  0  0  0  0  0  0  0  0  0  0
  -23.4260  -30.4740   21.5850 C   0  0  0  0  0  3  0  0  0  0  0  0
  -24.8710  -28.9140   20.1580 C   0  0  0  0  0  0  0  0  0  0  0  0
  -25.9650  -30.7880   21.3900 C   0  0  0  0  0  2  0  0  0  0  0  0
  -26.0420  -29.4060   20.7480 C   0  0  0  0  0  0  0  0  0  0  0  0
  -27.2310  -28.6110   20.7360 C   0  0  0  0  0  3  0  0  0  0  0  0
  -26.0460  -26.8630   19.5490 C   0  0  0  0  0  3  0  0  0  0  0  0
  -24.8760  -27.6490   19.5480 C   0  0  0  0  0  3  0  0  0  0  0  0
  -23.6350  -29.7900   20.2070 C   0  0  0  0  0  2  0  0  0  0  0  0
  -24.6950  -31.0650   22.1210 N   0  0  0  0  0  0  0  0  0  0  0  0
  -23.5580  -32.1550   23.7580 O   0  0  0  0  0  0  0  0  0  0  0  0
  -22.7650  -29.4630   22.5530 C   0  0  0  0  0  0  0  0  0  0  0  0
  -21.4380  -29.2900   22.4350 N   0  0  0  0  0  0  0  0  0  0  0  0
  -23.4470  -28.8350   23.3680 O   0  0  0  0  0  0  0  0  0  0  0  0
  -20.9450  -29.8490   21.7520 H   0  0  0  0  0  0  0  0  0  0  0  0
  -18.0620  -28.0950   22.9490 C   0  0  0  0  0  0  0  0  0  0  0  0
  -20.6200  -28.3560   23.2120 C   0  0  0  0  0  3  0  0  0  0  0  0
  -20.7210  -26.9220   22.6430 C   0  0  0  0  0  2  0  0  0  0  0  0
  -19.6170  -26.5950   21.6330 C   0  0  0  0  0  2  0  0  0  0  0  0
  -18.2360  -26.7440   22.2790 C   0  0  0  0  0  2  0  0  0  0  0  0
  -19.1810  -28.8590   23.3730 C   0  0  0  0  0  0  0  0  0  0  0  0
  -18.9630  -30.1240   23.9610 C   0  0  0  0  0  3  0  0  0  0  0  0
  -17.6580  -30.6260   24.1280 C   0  0  0  0  0  3  0  0  0  0  0  0
  -16.5530  -29.8590   23.7200 C   0  0  0  0  0  3  0  0  0  0  0  0
  -16.7550  -28.5950   23.1370 C   0  0  0  0  0  3  0  0  0  0  0  0
  -25.9240  -32.5090   23.8330 C   0  0  0  0  0  3  0  0  0  0  0  0
  -25.6140  -33.9040   24.1780 N   0  0  0  0  0  0  0  0  0  0  0  0
  -25.9360  -34.9640   23.4270 C   0  0  0  0  0  0  0  0  0  0  0  0
  -26.5970  -34.8720   22.3890 O   0  0  0  0  0  0  0  0  0  0  0  0
  -25.0260  -34.0500   24.9870 H   0  0  0  0  0  0  0  0  0  0  0  0
  -24.1990  -36.7560   23.1090 C   0  0  0  0  0  1  0  0  0  0  0  0
  -25.4510  -36.3480   23.9010 C   0  0  0  0  0  3  0  0  0  0  0  0
  -27.5950  -37.2310   24.7110 C   0  0  0  0  0  1  0  0  0  0  0  0
  -26.4790  -37.4050   23.7850 N   0  0  0  0  0  0  0  0  0  0  0  0
  -26.0720  -38.3210   23.9490 H   0  0  0  0  0  0  0  0  0  0  0  0
  -26.4550  -31.7290   25.1000 C   0  0  1  0  0  0  0  0  0  0  0  0
  -25.3730  -31.4860   26.1780 C   0  0  0  0  0  1  0  0  0  0  0  0
  -27.0330  -30.3540   24.6950 C   0  0  0  0  0  1  0  0  0  0  0  0
  -27.6100  -32.5210   25.7560 C   0  0  0  0  0  1  0  0  0  0  0  0
  3  2  1  6
  3  1  1  0
  3  4  1  0
  3 48  1  0
  5 10  1  0
  5  4  2  0
  6 10  1  0
  6  7  2  0
  7 11  1  0
  7  8  1  0
  9  8  2  0
 10  9  1  0
 12 11  1  0
 13 18  1  0
 14 15  1  0
 14 13  1  0
 16 15  1  0
 16 23  1  0
 16 17  1  0
 18 12  1  0
 18 17  1  0
 19 12  2  0
 20 21  2  0
 21 40  1  0
 22 21  1  0
 22 25  1  0
 23 20  1  0
 23 24  1  0
 24 22  2  0
 25 26  1  0
 26 27  2  0
 28 31  1  0
 28 27  1  0
 29 28  2  0
 30 29  1  0
 30 25  2  0
 31 32  1  0
 32 33  1  0
 33 34  2  0
 35 34  1  0
 35 39  1  0
 36 35  2  0
 37 32  2  0
 37 36  1  0
 38 37  1  0
 40 41  1  0
 41 44  1  0
 41 43  1  0
 42 40  2  0
 45 46  1  0
 45 20  1  0
 47 45  1  0
 49 48  1  0
 50 61  2  0
 51 49  1  0
 51 56  1  0
 52 60  1  0
 52 62  1  0
 53 59  1  0
 53 55  1  0
 54 60  1  0
 55 54  1  0
 56 55  2  0
 57 51  2  0
 58 57  1  0
 58 53  2  0
 59 52  1  0
 60 50  1  0
 62 64  2  0
 63 62  1  0
 65 63  1  0
 66 75  2  0
 66 71  1  0
 67 63  1  0
 67 71  1  0
 68 67  1  0
 69 70  1  0
 69 68  1  0
 70 66  1  0
 71 72  2  0
 72 73  1  0
 74 73  2  0
 75 74  1  0
 76 50  1  0
 76 77  1  0
 76 86  1  0
 77 80  1  0
 78 82  1  0
 78 77  1  0
 79 78  2  0
 82 81  1  0
 84 82  1  0
 84 85  1  0
 84 83  1  0
 86 89  1  1
 86 87  1  0
 88 86  1  0
M  ISO  4  11 100  12 100  48 101  49 101
M  END
>  <TORSDO>  (1) 
F 21

>  <SCORE>  (1) 
-13.489

>  <name>  (1) 
1

>  <ligand_id>  (1) 
1

>  <original_smiles>  (1) 
[H]c1c([H])c([H])c2c(c1[H])C([H])([H])C([H])([H])C([H])([H])C2([H])N([H])C(=O)C1([H])N(C(=O)C([H])(N([H])C(=O)C([H])(N([H])C([H])([H])[H])C([H])([H])[H])C(C([H])([H])[H])(C([H])([H])[H])C([H])([H])[H])C([H])([H])c2c([H])c(OC([H])([H])C(C([H])([H])[H])(C([H])([H])[H])C([H])([H])C([H])([H])n3nnc(C([H])([H])C(=O)N4C([H])([H])C([H])([H])C([H])([H])C([H])(n5nc(-c6c([H])c([H])c(Oc7c([H])c([H])c(F)c([H])c7F)c([H])c6[H])c(C(=O)N([H])[H])c5N([H])[H])C4([H])[H])c3[H])c([H])c([H])c2C1([H])[H]

>  <smiles>  (1) 
[H]c1c([H])c([H])c2c(c1[H])C([H])([H])C([H])([H])C([H])([H])C2([H])N([H])C(=O)C1([H])N(C(=O)C([H])(N([H])C(=O)C([H])(N([H])C([H])([H])[H])C([H])([H])[H])C(C([H])([H])[H])(C([H])([H])[H])C([H])([H])[H])C([H])([H])c2c([H])c(OC([H])([H])C(C([H])([H])[H])(C([H])([H])[H])C([H])([H])C([H])([H])n3nnc(C([H])([H])C(=O)N4C([H])([H])C([H])([H])C([H])([H])C([H])(n5nc(-c6c([H])c([H])c(Oc7c([H])c([H])c(F)c([H])c7F)c([H])c6[H])c(C(=O)N([H])[H])c5N([H])[H])C4([H])[H])c3[H])c([H])c([H])c2C1([H])[H]

$$$$
2:0:0
     RDKit          3D

 92100  0  0  1  0  0  0  0  0999 V2000
  -29.8160  -19.3710   20.2910 C   0  0  0  0  0  3  0  0  0  0  0  0
  -28.8330  -20.3260   20.0050 C   0  0  0  0  0  0  0  0  0  0  0  0
  -29.4370  -18.0190   20.2640 C   0  0  0  0  0  0  0  0  0  0  0  0
  -27.2840  -18.6510   19.8320 C   0  0  0  0  0  0  0  0  0  0  0  0
  -25.8530  -18.2820   19.5090 C   0  0  0  0  0  1  0  0  0  0  0  0
  -27.5610  -19.9490   19.7970 N   0  0  0  0  0  0  0  0  0  0  0  0
  -28.1530  -17.6600   20.0390 N   0  0  0  0  0  0  0  0  0  0  0  0
  -31.1160  -17.0240   18.7530 C   0  0  0  0  0  1  0  0  0  0  0  0
  -30.5120  -16.9370   20.1780 C   0  0  0  0  0  3  0  0  0  0  0  0
  -30.7380  -14.4620   20.4100 C   0  0  0  0  0  0  0  0  0  0  0  0
  -30.4060  -12.2950   19.3170 C   0  0  0  0  0  2  0  0  0  0  0  0
  -29.4700  -12.5070   18.1120 C   0  0  0  0  0  2  0  0  0  0  0  0
  -27.9960  -12.3780   18.5450 C   0  0  0  0  0  2  0  0  0  0  0  0
  -27.6610  -13.2220   19.8050 C   0  0  0  0  0  3  0  0  0  0  0  0
  -28.7210  -13.0380   20.9120 C   0  0  0  0  0  2  0  0  0  0  0  0
  -30.0390  -13.3020   20.3220 N   0  0  0  0  0  0  0  0  0  0  0  0
  -31.9410  -14.5250   20.1590 O   0  0  0  0  0  0  0  0  0  0  0  0
  -30.0040  -15.5860   20.4800 N   0  0  0  0  0  0  0  0  0  0  0  0
  -29.0040  -15.5310   20.6050 H   0  0  0  0  0  0  0  0  0  0  0  0
  -25.2700  -13.8200   20.5280 C   0  0  0  0  0  0  0  0  0  0  0  0
  -24.1990  -13.0520   20.8850 C   0  0  0  0  0  0  0  0  0  0  0  0
  -24.6610  -11.7010   20.8580 C   0  0  0  0  0  0  0  0  0  0  0  0
  -26.3140  -12.9420   20.2920 N   0  0  0  0  0  0  0  0  0  0  0  0
  -25.9520  -11.6610   20.5530 N   0  0  0  0  0  0  0  0  0  0  0  0
  -23.9330  -10.4410   21.0480 C   0  0  0  0  0  0  0  0  0  0  0  0
  -24.3620   -9.4750   21.9830 C   0  0  0  0  0  3  0  0  0  0  0  0
  -23.6330   -8.2790   22.1600 C   0  0  0  0  0  3  0  0  0  0  0  0
  -22.4630   -8.0430   21.4020 C   0  0  0  0  0  0  0  0  0  0  0  0
  -22.0520   -8.9990   20.4560 C   0  0  0  0  0  3  0  0  0  0  0  0
  -22.7820  -10.1860   20.2760 C   0  0  0  0  0  3  0  0  0  0  0  0
  -21.7070   -6.8990   21.4880 O   0  0  0  0  0  0  0  0  0  0  0  0
  -21.6490   -6.1600   22.6430 C   0  0  0  0  0  0  0  0  0  0  0  0
  -21.2010   -6.7140   23.8610 C   0  0  0  0  0  3  0  0  0  0  0  0
  -21.0940   -5.9010   25.0080 C   0  0  0  0  0  3  0  0  0  0  0  0
  -21.4230   -4.5350   24.9350 C   0  0  0  0  0  0  0  0  0  0  0  0
  -21.8640   -3.9800   23.7200 C   0  0  0  0  0  3  0  0  0  0  0  0
  -21.9740   -4.7900   22.5770 C   0  0  0  0  0  0  0  0  0  0  0  0
  -22.3790   -4.2460   21.4040 F   0  0  0  0  0  0  0  0  0  0  0  0
  -21.3120   -3.7510   26.0330 F   0  0  0  0  0  0  0  0  0  0  0  0
  -22.8030  -13.5350   21.1530 C   0  0  0  0  0  0  0  0  0  0  0  0
  -22.0690  -12.8430   22.0170 N   0  0  0  0  0  0  0  0  0  0  0  0
  -22.3690  -14.5620   20.6300 O   0  0  0  0  0  0  0  0  0  0  0  0
  -22.4310  -12.0120   22.4620 H   0  0  0  0  0  0  0  0  0  0  0  0
  -21.1320  -13.1490   22.2380 H   0  0  0  0  0  0  0  0  0  0  0  0
  -25.4380  -15.1890   20.3710 N   0  0  0  0  0  0  0  0  0  0  0  0
  -24.6720  -15.8340   20.5260 H   0  0  0  0  0  0  0  0  0  0  0  0
  -26.3140  -15.6470   20.1450 H   0  0  0  0  0  0  0  0  0  0  0  0
  -29.1830  -21.7720   19.6670 C   0  0  0  0  0  2  0  0  0  0  0  0
  -28.5550  -22.8550   20.5690 C   0  0  0  0  0  2  0  0  0  0  0  0
  -28.7480  -24.2750   19.9810 C   0  0  0  0  0  2  0  0  0  0  0  0
  -28.3100  -25.4090   20.9210 C   0  0  0  0  0  2  0  0  0  0  0  0
  -28.4480  -26.6850   20.2810 O   0  0  0  0  0  0  0  0  0  0  0  0
  -24.5900  -31.8590   23.2360 C   0  0  0  0  0  0  0  0  0  0  0  0
  -27.2900  -27.4240   20.2290 C   0  0  0  0  0  0  0  0  0  0  0  0
  -23.4140  -30.4520   21.5740 C   0  0  0  0  0  3  0  0  0  0  0  0
  -24.8950  -28.9160   20.1770 C   0  0  0  0  0  0  0  0  0  0  0  0
  -25.9400  -30.8200   21.4210 C   0  0  0  0  0  2  0  0  0  0  0  0
  -26.0410  -29.4510   20.7830 C   0  0  0  0  0  0  0  0  0  0  0  0
  -27.2450  -28.7120   20.8010 C   0  0  0  0  0  3  0  0  0  0  0  0
  -26.1330  -26.9000   19.6150 C   0  0  0  0  0  3  0  0  0  0  0  0
  -24.9360  -27.6400   19.5880 C   0  0  0  0  0  3  0  0  0  0  0  0
  -23.6470  -29.7690   20.1990 C   0  0  0  0  0  2  0  0  0  0  0  0
  -24.6640  -31.0580   22.1360 N   0  0  0  0  0  0  0  0  0  0  0  0
  -23.4990  -32.1290   23.7590 O   0  0  0  0  0  0  0  0  0  0  0  0
  -22.7490  -29.4320   22.5250 C   0  0  0  0  0  0  0  0  0  0  0  0
  -21.4230  -29.2640   22.3910 N   0  0  0  0  0  0  0  0  0  0  0  0
  -23.4220  -28.7940   23.3390 O   0  0  0  0  0  0  0  0  0  0  0  0
  -20.9400  -29.8310   21.7070 H   0  0  0  0  0  0  0  0  0  0  0  0
  -18.0300  -28.1300   22.8850 C   0  0  0  0  0  0  0  0  0  0  0  0
  -20.5920  -28.3320   23.1530 C   0  0  0  0  0  3  0  0  0  0  0  0
  -20.6660  -26.9080   22.5560 C   0  0  0  0  0  2  0  0  0  0  0  0
  -19.5550  -26.6210   21.5400 C   0  0  0  0  0  2  0  0  0  0  0  0
  -18.1770  -26.7860   22.1900 C   0  0  0  0  0  2  0  0  0  0  0  0
  -19.1650  -28.8620   23.3230 C   0  0  0  0  0  0  0  0  0  0  0  0
  -18.9740  -30.1230   23.9300 C   0  0  0  0  0  3  0  0  0  0  0  0
  -17.6790  -30.6490   24.1040 C   0  0  0  0  0  3  0  0  0  0  0  0
  -16.5600  -29.9120   23.6850 C   0  0  0  0  0  3  0  0  0  0  0  0
  -16.7350  -28.6540   23.0810 C   0  0  0  0  0  3  0  0  0  0  0  0
  -25.8640  -32.4940   23.8750 C   0  0  0  0  0  3  0  0  0  0  0  0
  -25.5500  -33.8940   24.1900 N   0  0  0  0  0  0  0  0  0  0  0  0
  -25.8990  -34.9400   23.4310 C   0  0  0  0  0  0  0  0  0  0  0  0
  -26.5870  -34.8290   22.4110 O   0  0  0  0  0  0  0  0  0  0  0  0
  -24.9400  -34.0540   24.9790 H   0  0  0  0  0  0  0  0  0  0  0  0
  -24.1820  -36.7330   23.0260 C   0  0  0  0  0  1  0  0  0  0  0  0
  -25.4020  -36.3310   23.8690 C   0  0  0  0  0  3  0  0  0  0  0  0
  -27.5180  -37.2190   24.7440 C   0  0  0  0  0  1  0  0  0  0  0  0
  -26.4390  -37.3820   23.7740 N   0  0  0  0  0  0  0  0  0  0  0  0
  -26.0310  -38.3030   23.9050 H   0  0  0  0  0  0  0  0  0  0  0  0
  -26.3610  -31.7280   25.1630 C   0  0  1  0  0  0  0  0  0  0  0  0
  -25.2510  -31.4930   26.2130 C   0  0  0  0  0  1  0  0  0  0  0  0
  -26.9520  -30.3510   24.7820 C   0  0  0  0  0  1  0  0  0  0  0  0
  -27.4970  -32.5290   25.8420 C   0  0  0  0  0  1  0  0  0  0  0  0
  2  1  2  0
  3  1  1  0
  4  7  1  0
  5  4  1  0
  6  4  2  0
  6  2  1  0
  7  3  2  0
  9  8  1  0
  9  3  1  0
  9 18  1  0
 10 18  1  0
 11 16  1  0
 12 13  1  0
 12 11  1  0
 14 13  1  0
 14 23  1  0
 14 15  1  0
 16 10  1  0
 16 15  1  0
 17 10  2  0
 18 19  1  0
 20 21  2  0
 21 40  1  0
 22 21  1  0
 22 25  1  0
 23 20  1  0
 23 24  1  0
 24 22  2  0
 25 26  1  0
 26 27  2  0
 28 31  1  0
 28 27  1  0
 29 28  2  0
 30 29  1  0
 30 25  2  0
 31 32  1  0
 32 33  1  0
 33 34  2  0
 35 34  1  0
 35 39  1  0
 36 35  2  0
 37 32  2  0
 37 36  1  0
 38 37  1  0
 40 41  1  0
 41 44  1  0
 41 43  1  0
 42 40  2  0
 45 46  1  0
 45 20  1  0
 47 45  1  0
 48  2  1  0
 48 49  1  0
 50 49  1  0
 50 51  1  0
 52 51  1  0
 53 64  2  0
 54 52  1  0
 54 59  1  0
 55 63  1  0
 55 65  1  0
 56 62  1  0
 56 58  1  0
 57 63  1  0
 58 59  2  0
 58 57  1  0
 60 54  2  0
 61 60  1  0
 61 56  2  0
 62 55  1  0
 63 53  1  0
 65 67  2  0
 66 65  1  0
 68 66  1  0
 69 78  2  0
 69 74  1  0
 70 66  1  0
 70 74  1  0
 71 70  1  0
 72 73  1  0
 72 71  1  0
 73 69  1  0
 74 75  2  0
 75 76  1  0
 77 76  2  0
 78 77  1  0
 79 53  1  0
 79 80  1  0
 79 89  1  0
 80 83  1  0
 81 85  1  0
 81 80  1  0
 82 81  2  0
 85 84  1  0
 87 85  1  0
 87 88  1  0
 87 86  1  0
 89 92  1  1
 89 90  1  0
 91 89  1  0
M  ISO  4  10 100  18 100  51 101  52 101
M  END
>  <TORSDO>  (2) 
F 21

>  <SCORE>  (2) 
-13.243

>  <name>  (2) 
2

>  <ligand_id>  (2) 
2

>  <original_smiles>  (2) 
[H]c1c(C([H])([H])C([H])([H])C([H])([H])C([H])([H])Oc2c([H])c([H])c3c(c2[H])C([H])([H])N(C(=O)C([H])(N([H])C(=O)C([H])(N([H])C([H])([H])[H])C([H])([H])[H])C(C([H])([H])[H])(C([H])([H])[H])C([H])([H])[H])C([H])(C(=O)N([H])C2([H])c4c([H])c([H])c([H])c([H])c4C([H])([H])C([H])([H])C2([H])[H])C3([H])[H])nc(C([H])([H])[H])nc1C([H])(N([H])C(=O)N1C([H])([H])C([H])([H])C([H])([H])C([H])(n2nc(-c3c([H])c([H])c(Oc4c([H])c([H])c(F)c([H])c4F)c([H])c3[H])c(C(=O)N([H])[H])c2N([H])[H])C1([H])[H])C([H])([H])[H]

>  <smiles>  (2) 
[H]c1c(C([H])([H])C([H])([H])C([H])([H])C([H])([H])Oc2c([H])c([H])c3c(c2[H])C([H])([H])N(C(=O)C([H])(N([H])C(=O)C([H])(N([H])C([H])([H])[H])C([H])([H])[H])C(C([H])([H])[H])(C([H])([H])[H])C([H])([H])[H])C([H])(C(=O)N([H])C2([H])c4c([H])c([H])c([H])c([H])c4C([H])([H])C([H])([H])C2([H])[H])C3([H])[H])nc(C([H])([H])[H])nc1C([H])(N([H])C(=O)N1C([H])([H])C([H])([H])C([H])([H])C([H])(n2nc(-c3c([H])c([H])c(Oc4c([H])c([H])c(F)c([H])c4F)c([H])c3[H])c(C(=O)N([H])[H])c2N([H])[H])C1([H])[H])C([H])([H])[H]

$$$$
3:0:0
     RDKit          3D

 93101  0  0  1  0  0  0  0  0999 V2000
  -29.5720  -21.0160   20.2990 C   0  0  0  0  0  3  0  0  0  0  0  0
  -27.8090  -19.5550   19.6410 C   0  0  0  0  0  3  0  0  0  0  0  0
  -29.0920  -19.6170   20.1820 C   0  0  0  0  0  0  0  0  0  0  0  0
  -28.8030  -22.2320   19.9060 C   0  0  0  0  0  0  0  0  0  0  0  0
  -27.5020  -21.9040   19.3760 C   0  0  0  0  0  0  0  0  0  0  0  0
  -27.0890  -20.6180   19.2640 N   0  0  0  0  0  0  0  0  0  0  0  0
  -26.5540  -24.2670   18.6080 C   0  0  0  0  0  1  0  0  0  0  0  0
  -25.4230  -22.9440   20.3690 C   0  0  0  0  0  1  0  0  0  0  0  0
  -25.3980  -22.2460   17.9450 C   0  0  0  0  0  1  0  0  0  0  0  0
  -26.2760  -22.8370   19.0890 C   0  0  2  0  0  0  0  0  0  0  0  0
  -29.7010  -18.1890   20.7580 C   0  0  0  0  0  2  0  0  0  0  0  0
  -30.8610  -17.1510   18.8020 C   0  0  0  0  0  1  0  0  0  0  0  0
  -28.5640  -16.4960   19.1200 C   0  0  0  0  0  1  0  0  0  0  0  0
  -29.8510  -16.7370   19.9070 C   0  0  2  0  0  0  0  0  0  0  0  0
  -30.5030  -15.2810   20.4810 C   0  0  0  0  0  0  0  0  0  0  0  0
  -30.4610  -12.8430   19.8090 C   0  0  0  0  0  2  0  0  0  0  0  0
  -29.6030  -12.6170   18.5460 C   0  0  0  0  0  2  0  0  0  0  0  0
  -28.1350  -12.3450   18.9310 C   0  0  0  0  0  2  0  0  0  0  0  0
  -27.6060  -13.3600   19.9700 C   0  0  0  0  0  3  0  0  0  0  0  0
  -28.6050  -13.6360   21.1180 C   0  0  0  0  0  2  0  0  0  0  0  0
  -29.8950  -14.0220   20.5280 N   0  0  0  0  0  0  0  0  0  0  0  0
  -31.7360  -15.2490   20.5300 O   0  0  0  0  0  0  0  0  0  0  0  0
  -25.2090  -13.9360   20.6440 C   0  0  0  0  0  0  0  0  0  0  0  0
  -24.1410  -13.1540   20.9730 C   0  0  0  0  0  0  0  0  0  0  0  0
  -24.6220  -11.8080   20.9660 C   0  0  0  0  0  0  0  0  0  0  0  0
  -26.2670  -13.0610   20.4430 N   0  0  0  0  0  0  0  0  0  0  0  0
  -25.9230  -11.7790   20.7100 N   0  0  0  0  0  0  0  0  0  0  0  0
  -23.9060  -10.5410   21.1270 C   0  0  0  0  0  0  0  0  0  0  0  0
  -24.3350   -9.5680   22.0550 C   0  0  0  0  0  3  0  0  0  0  0  0
  -23.6210   -8.3610   22.2060 C   0  0  0  0  0  3  0  0  0  0  0  0
  -22.4630   -8.1220   21.4280 C   0  0  0  0  0  0  0  0  0  0  0  0
  -22.0540   -9.0840   20.4880 C   0  0  0  0  0  3  0  0  0  0  0  0
  -22.7700  -10.2830   20.3350 C   0  0  0  0  0  3  0  0  0  0  0  0
  -21.7190   -6.9700   21.4910 O   0  0  0  0  0  0  0  0  0  0  0  0
  -21.6900   -6.1940   22.6220 C   0  0  0  0  0  0  0  0  0  0  0  0
  -21.2930   -6.7150   23.8730 C   0  0  0  0  0  3  0  0  0  0  0  0
  -21.2110   -5.8660   24.9950 C   0  0  0  0  0  3  0  0  0  0  0  0
  -21.5160   -4.4970   24.8670 C   0  0  0  0  0  0  0  0  0  0  0  0
  -21.9070   -3.9770   23.6200 C   0  0  0  0  0  3  0  0  0  0  0  0
  -21.9910   -4.8220   22.5010 C   0  0  0  0  0  0  0  0  0  0  0  0
  -22.3490   -4.3120   21.2980 F   0  0  0  0  0  0  0  0  0  0  0  0
  -21.4290   -3.6790   25.9410 F   0  0  0  0  0  0  0  0  0  0  0  0
  -22.7290  -13.6170   21.1820 C   0  0  0  0  0  0  0  0  0  0  0  0
  -21.9780  -12.9210   22.0270 N   0  0  0  0  0  0  0  0  0  0  0  0
  -22.3000  -14.6300   20.6320 O   0  0  0  0  0  0  0  0  0  0  0  0
  -22.3400  -12.1030   22.4950 H   0  0  0  0  0  0  0  0  0  0  0  0
  -21.0270  -13.2110   22.2100 H   0  0  0  0  0  0  0  0  0  0  0  0
  -25.3570  -15.3070   20.4660 N   0  0  0  0  0  0  0  0  0  0  0  0
  -24.5760  -15.9490   20.5480 H   0  0  0  0  0  0  0  0  0  0  0  0
  -26.2050  -15.7520   20.1420 H   0  0  0  0  0  0  0  0  0  0  0  0
  -29.2120  -23.7860   20.3110 C   0  0  0  0  0  2  0  0  0  0  0  0
  -29.1440  -25.2010   19.4010 C   0  0  0  0  0  2  0  0  0  0  0  0
  -29.0340  -26.6510   19.9480 O   0  0  0  0  0  0  0  0  0  0  0  0
  -24.9170  -31.7680   23.2250 C   0  0  0  0  0  0  0  0  0  0  0  0
  -27.8850  -27.5190   19.8950 C   0  0  0  0  0  0  0  0  0  0  0  0
  -23.8510  -30.4340   21.4470 C   0  0  0  0  0  3  0  0  0  0  0  0
  -25.4340  -29.0840   19.9400 C   0  0  0  0  0  0  0  0  0  0  0  0
  -26.3800  -30.8880   21.3720 C   0  0  0  0  0  2  0  0  0  0  0  0
  -26.5620  -29.5620   20.6150 C   0  0  0  0  0  0  0  0  0  0  0  0
  -27.7820  -28.7930   20.5820 C   0  0  0  0  0  3  0  0  0  0  0  0
  -26.7230  -27.1430   19.1820 C   0  0  0  0  0  3  0  0  0  0  0  0
  -25.5250  -27.8880   19.2120 C   0  0  0  0  0  3  0  0  0  0  0  0
  -24.1460  -29.8850   20.0250 C   0  0  0  0  0  2  0  0  0  0  0  0
  -25.0660  -31.0480   22.0720 N   0  0  0  0  0  0  0  0  0  0  0  0
  -23.8030  -31.9370   23.7460 O   0  0  0  0  0  0  0  0  0  0  0  0
  -23.2230  -29.3090   22.3080 C   0  0  0  0  0  0  0  0  0  0  0  0
  -21.9050  -29.0850   22.1560 N   0  0  0  0  0  0  0  0  0  0  0  0
  -23.9210  -28.6440   23.0760 O   0  0  0  0  0  0  0  0  0  0  0  0
  -21.3940  -29.6740   21.5140 H   0  0  0  0  0  0  0  0  0  0  0  0
  -18.5800  -27.7070   22.5570 C   0  0  0  0  0  0  0  0  0  0  0  0
  -21.1300  -28.0420   22.8330 C   0  0  0  0  0  3  0  0  0  0  0  0
  -21.2820  -26.6810   22.1130 C   0  0  0  0  0  2  0  0  0  0  0  0
  -20.1830  -26.4210   21.0790 C   0  0  0  0  0  2  0  0  0  0  0  0
  -18.8030  -26.4430   21.7420 C   0  0  0  0  0  2  0  0  0  0  0  0
  -19.6730  -28.4650   23.0550 C   0  0  0  0  0  0  0  0  0  0  0  0
  -19.4110  -29.6490   23.7800 C   0  0  0  0  0  3  0  0  0  0  0  0
  -18.0890  -30.0750   24.0080 C   0  0  0  0  0  3  0  0  0  0  0  0
  -17.0110  -29.3140   23.5250 C   0  0  0  0  0  3  0  0  0  0  0  0
  -17.2580  -28.1310   22.8050 C   0  0  0  0  0  3  0  0  0  0  0  0
  -26.1360  -32.4330   23.9350 C   0  0  0  0  0  3  0  0  0  0  0  0
  -25.7350  -33.7910   24.3370 N   0  0  0  0  0  0  0  0  0  0  0  0
  -26.0270  -34.9070   23.6570 C   0  0  0  0  0  0  0  0  0  0  0  0
  -26.7280  -34.9040   22.6410 O   0  0  0  0  0  0  0  0  0  0  0  0
  -25.1090  -33.8610   25.1260 H   0  0  0  0  0  0  0  0  0  0  0  0
  -24.1980  -36.6120   23.3790 C   0  0  0  0  0  1  0  0  0  0  0  0
  -25.4510  -36.2350   24.1850 C   0  0  0  0  0  3  0  0  0  0  0  0
  -27.5200  -37.1980   25.0940 C   0  0  0  0  0  1  0  0  0  0  0  0
  -26.4190  -37.3540   24.1470 N   0  0  0  0  0  0  0  0  0  0  0  0
  -25.9560  -38.2380   24.3430 H   0  0  0  0  0  0  0  0  0  0  0  0
  -26.6470  -31.6170   25.1860 C   0  0  1  0  0  0  0  0  0  0  0  0
  -25.5320  -31.2680   26.1980 C   0  0  0  0  0  1  0  0  0  0  0  0
  -27.3110  -30.2910   24.7460 C   0  0  0  0  0  1  0  0  0  0  0  0
  -27.7360  -32.4260   25.9300 C   0  0  0  0  0  1  0  0  0  0  0  0
  2  3  2  0
  3  1  1  0
  3 11  1  0
  4  1  2  0
  4 51  1  0
  5  4  1  0
  6  5  2  0
  6  2  1  0
 10  7  1  6
  9 10  1  0
 10  5  1  0
 10  8  1  0
 14 12  1  6
 13 14  1  0
 14 15  1  0
 14 11  1  0
 15 21  1  0
 15 22  2  0
 16 21  1  0
 17 18  1  0
 17 16  1  0
 19 18  1  0
 19 26  1  0
 19 20  1  0
 21 20  1  0
 23 24  2  0
 24 43  1  0
 25 24  1  0
 25 28  1  0
 26 23  1  0
 26 27  1  0
 27 25  2  0
 28 29  1  0
 29 30  2  0
 31 34  1  0
 31 30  1  0
 32 31  2  0
 33 32  1  0
 33 28  2  0
 34 35  1  0
 35 36  1  0
 36 37  2  0
 38 37  1  0
 38 42  1  0
 39 38  2  0
 40 35  2  0
 40 39  1  0
 41 40  1  0
 43 44  1  0
 44 47  1  0
 44 46  1  0
 45 43  2  0
 48 49  1  0
 48 23  1  0
 50 48  1  0
 52 53  1  0
 52 51  1  0
 54 65  2  0
 55 53  1  0
 55 60  1  0
 56 64  1  0
 56 66  1  0
 57 63  1  0
 57 59  1  0
 58 64  1  0
 59 58  1  0
 60 59  2  0
 61 62  1  0
 61 55  2  0
 62 57  2  0
 63 56  1  0
 64 54  1  0
 66 68  2  0
 67 66  1  0
 69 67  1  0
 70 79  2  0
 70 75  1  0
 71 67  1  0
 71 75  1  0
 72 71  1  0
 73 74  1  0
 73 72  1  0
 74 70  1  0
 75 76  2  0
 76 77  1  0
 78 77  2  0
 79 78  1  0
 80 54  1  0
 80 81  1  0
 80 90  1  0
 81 84  1  0
 82 86  1  0
 82 81  1  0
 83 82  2  0
 86 85  1  0
 88 86  1  0
 88 89  1  0
 88 87  1  0
 90 93  1  1
 90 91  1  0
 92 90  1  0
M  ISO  4  14 100  15 100  52 101  53 101
M  END
>  <TORSDO>  (3) 
F 21

>  <SCORE>  (3) 
-12.871

>  <name>  (3) 
3

>  <ligand_id>  (3) 
3

>  <original_smiles>  (3) 
[H]c1nc(C(C([H])([H])[H])(C([H])([H])[H])C([H])([H])[H])c(C([H])([H])C([H])([H])Oc2c([H])c([H])c3c(c2[H])C([H])([H])N(C(=O)C([H])(N([H])C(=O)C([H])(N([H])C([H])([H])[H])C([H])([H])[H])C(C([H])([H])[H])(C([H])([H])[H])C([H])([H])[H])C([H])(C(=O)N([H])C2([H])c4c([H])c([H])c([H])c([H])c4C([H])([H])C([H])([H])C2([H])[H])C3([H])[H])c([H])c1C([H])([H])C(C(=O)N1C([H])([H])C([H])([H])C([H])([H])C([H])(n2nc(-c3c([H])c([H])c(Oc4c([H])c([H])c(F)c([H])c4F)c([H])c3[H])c(C(=O)N([H])[H])c2N([H])[H])C1([H])[H])(C([H])([H])[H])C([H])([H])[H]

>  <smiles>  (3) 
[H]c1nc(C(C([H])([H])[H])(C([H])([H])[H])C([H])([H])[H])c(C([H])([H])C([H])([H])Oc2c([H])c([H])c3c(c2[H])C([H])([H])N(C(=O)C([H])(N([H])C(=O)C([H])(N([H])C([H])([H])[H])C([H])([H])[H])C(C([H])([H])[H])(C([H])([H])[H])C([H])([H])[H])C([H])(C(=O)N([H])C2([H])c4c([H])c([H])c([H])c([H])c4C([H])([H])C([H])([H])C2([H])[H])C3([H])[H])c([H])c1C([H])([H])C(C(=O)N1C([H])([H])C([H])([H])C([H])([H])C([H])(n2nc(-c3c([H])c([H])c(Oc4c([H])c([H])c(F)c([H])c4F)c([H])c3[H])c(C(=O)N([H])[H])c2N([H])[H])C1([H])[H])(C([H])([H])[H])C([H])([H])[H]

$$$$
4:0:0
     RDKit          3D

 95103  0  0  1  0  0  0  0  0999 V2000
  -30.8670  -20.5330   19.0850 C   0  0  0  0  0  3  0  0  0  0  0  0
  -29.8920  -19.6810   19.5370 C   0  0  0  0  0  0  0  0  0  0  0  0
  -29.3390  -21.8600   20.0450 C   0  0  0  0  0  3  0  0  0  0  0  0
  -28.9310  -20.5390   20.1080 N   0  0  0  0  0  0  0  0  0  0  0  0
  -30.4860  -21.8150   19.3680 N   0  0  0  0  0  0  0  0  0  0  0  0
  -31.0400  -22.6310   19.1470 H   0  0  0  0  0  0  0  0  0  0  0  0
  -26.4980  -20.1180   19.6700 C   0  0  0  0  0  1  0  0  0  0  0  0
  -27.6500  -20.0810   20.6940 C   0  0  0  0  0  2  0  0  0  0  0  0
  -28.5460  -17.5880   18.8200 C   0  0  0  0  0  1  0  0  0  0  0  0
  -29.8860  -18.1330   19.3630 C   0  0  0  0  0  3  0  0  0  0  0  0
  -30.4920  -17.2440   20.5270 C   0  0  0  0  0  2  0  0  0  0  0  0
  -30.8500  -14.7190   19.9440 C   0  0  0  0  0  0  0  0  0  0  0  0
  -30.4850  -12.5110   18.8680 C   0  0  0  0  0  2  0  0  0  0  0  0
  -29.4730  -12.6870   17.7180 C   0  0  0  0  0  2  0  0  0  0  0  0
  -28.0310  -12.5240   18.2400 C   0  0  0  0  0  2  0  0  0  0  0  0
  -27.7560  -13.3800   19.5000 C   0  0  0  0  0  3  0  0  0  0  0  0
  -28.8850  -13.2390   20.5460 C   0  0  0  0  0  2  0  0  0  0  0  0
  -30.1690  -13.5320   19.8860 N   0  0  0  0  0  0  0  0  0  0  0  0
  -31.9610  -14.8680   19.4340 O   0  0  0  0  0  0  0  0  0  0  0  0
  -30.1650  -15.7780   20.4540 N   0  0  0  0  0  0  0  0  0  0  0  0
  -29.2240  -15.5500   20.7310 H   0  0  0  0  0  0  0  0  0  0  0  0
  -25.4250  -14.0020   20.3810 C   0  0  0  0  0  0  0  0  0  0  0  0
  -24.3630  -13.2370   20.7950 C   0  0  0  0  0  0  0  0  0  0  0  0
  -24.7940  -11.8810   20.6910 C   0  0  0  0  0  0  0  0  0  0  0  0
  -26.4330  -13.1080   20.0570 N   0  0  0  0  0  0  0  0  0  0  0  0
  -26.0620  -11.8250   20.3000 N   0  0  0  0  0  0  0  0  0  0  0  0
  -24.0540  -10.6250   20.8830 C   0  0  0  0  0  0  0  0  0  0  0  0
  -24.5090   -9.6280   21.7710 C   0  0  0  0  0  3  0  0  0  0  0  0
  -23.7690   -8.4390   21.9500 C   0  0  0  0  0  3  0  0  0  0  0  0
  -22.5610   -8.2390   21.2430 C   0  0  0  0  0  0  0  0  0  0  0  0
  -22.1270   -9.2250   20.3400 C   0  0  0  0  0  3  0  0  0  0  0  0
  -22.8680  -10.4050   20.1580 C   0  0  0  0  0  3  0  0  0  0  0  0
  -21.7890   -7.1050   21.3380 O   0  0  0  0  0  0  0  0  0  0  0  0
  -21.7580   -6.3490   22.4800 C   0  0  0  0  0  0  0  0  0  0  0  0
  -21.3650   -6.8910   23.7240 C   0  0  0  0  0  3  0  0  0  0  0  0
  -21.2880   -6.0620   24.8590 C   0  0  0  0  0  3  0  0  0  0  0  0
  -21.5850   -4.6900   24.7540 C   0  0  0  0  0  0  0  0  0  0  0  0
  -21.9690   -4.1470   23.5160 C   0  0  0  0  0  3  0  0  0  0  0  0
  -22.0540   -4.9740   22.3820 C   0  0  0  0  0  0  0  0  0  0  0  0
  -22.4040   -4.4410   21.1880 F   0  0  0  0  0  0  0  0  0  0  0  0
  -21.5010   -3.8920   25.8440 F   0  0  0  0  0  0  0  0  0  0  0  0
  -22.9980  -13.7340   21.1760 C   0  0  0  0  0  0  0  0  0  0  0  0
  -22.3150  -13.0140   22.0670 N   0  0  0  0  0  0  0  0  0  0  0  0
  -22.5450  -14.7800   20.7210 O   0  0  0  0  0  0  0  0  0  0  0  0
  -22.6970  -12.1670   22.4600 H   0  0  0  0  0  0  0  0  0  0  0  0
  -21.3990  -13.3200   22.3600 H   0  0  0  0  0  0  0  0  0  0  0  0
  -25.6080  -15.3720   20.2320 N   0  0  0  0  0  0  0  0  0  0  0  0
  -24.8620  -16.0390   20.3830 H   0  0  0  0  0  0  0  0  0  0  0  0
  -26.4290  -15.7840   19.8050 H   0  0  0  0  0  0  0  0  0  0  0  0
  -28.3550  -23.0600   22.1180 C   0  0  0  0  0  1  0  0  0  0  0  0
  -28.8550  -23.2160   20.6670 C   0  0  0  0  0  3  0  0  0  0  0  0
  -26.6480  -23.5590   19.3380 C   0  0  0  0  0  1  0  0  0  0  0  0
  -27.9050  -24.2440   19.8860 C   0  0  0  0  0  3  0  0  0  0  0  0
  -28.5090  -25.2770   18.8540 C   0  0  0  0  0  2  0  0  0  0  0  0
  -28.4370  -26.6990   19.2080 O   0  0  0  0  0  0  0  0  0  0  0  0
  -24.6270  -31.4920   22.8980 C   0  0  0  0  0  0  0  0  0  0  0  0
  -27.2390  -27.4090   19.2790 C   0  0  0  0  0  0  0  0  0  0  0  0
  -23.3830  -30.2200   21.1820 C   0  0  0  0  0  3  0  0  0  0  0  0
  -24.8070  -28.8640   19.5550 C   0  0  0  0  0  0  0  0  0  0  0  0
  -25.8920  -30.6550   20.9140 C   0  0  0  0  0  2  0  0  0  0  0  0
  -25.9780  -29.3460   20.1500 C   0  0  0  0  0  0  0  0  0  0  0  0
  -27.1890  -28.6230   20.0170 C   0  0  0  0  0  3  0  0  0  0  0  0
  -26.0570  -26.9890   18.6350 C   0  0  0  0  0  3  0  0  0  0  0  0
  -24.8400  -27.6810   18.7980 C   0  0  0  0  0  3  0  0  0  0  0  0
  -23.5440  -29.6760   19.7360 C   0  0  0  0  0  2  0  0  0  0  0  0
  -24.6550  -30.8010   21.7240 N   0  0  0  0  0  0  0  0  0  0  0  0
  -23.5630  -31.6870   23.5060 O   0  0  0  0  0  0  0  0  0  0  0  0
  -22.7980  -29.0940   22.0680 C   0  0  0  0  0  0  0  0  0  0  0  0
  -21.4690  -28.9150   22.0000 N   0  0  0  0  0  0  0  0  0  0  0  0
  -23.5310  -28.3930   22.7660 O   0  0  0  0  0  0  0  0  0  0  0  0
  -20.9400  -29.5490   21.4180 H   0  0  0  0  0  0  0  0  0  0  0  0
  -18.1380  -27.6510   22.5920 C   0  0  0  0  0  0  0  0  0  0  0  0
  -20.7030  -27.8870   22.7060 C   0  0  0  0  0  3  0  0  0  0  0  0
  -20.7570  -26.5360   21.9510 C   0  0  0  0  0  2  0  0  0  0  0  0
  -19.5840  -26.3370   20.9890 C   0  0  0  0  0  2  0  0  0  0  0  0
  -18.2600  -26.3920   21.7510 C   0  0  0  0  0  2  0  0  0  0  0  0
  -19.2830  -28.3640   23.0300 C   0  0  0  0  0  0  0  0  0  0  0  0
  -19.1090  -29.5460   23.7790 C   0  0  0  0  0  3  0  0  0  0  0  0
  -17.8200  -30.0170   24.0930 C   0  0  0  0  0  3  0  0  0  0  0  0
  -16.6870  -29.2960   23.6700 C   0  0  0  0  0  3  0  0  0  0  0  0
  -16.8490  -28.1140   22.9260 C   0  0  0  0  0  3  0  0  0  0  0  0
  -25.9220  -32.0970   23.5230 C   0  0  0  0  0  3  0  0  0  0  0  0
  -25.6060  -33.4570   23.9770 N   0  0  0  0  0  0  0  0  0  0  0  0
  -25.9120  -34.5750   23.3040 C   0  0  0  0  0  0  0  0  0  0  0  0
  -26.5590  -34.5660   22.2540 O   0  0  0  0  0  0  0  0  0  0  0  0
  -25.0270  -33.5360   24.8000 H   0  0  0  0  0  0  0  0  0  0  0  0
  -24.1550  -36.3670   23.1370 C   0  0  0  0  0  1  0  0  0  0  0  0
  -25.4180  -35.9140   23.8850 C   0  0  0  0  0  3  0  0  0  0  0  0
  -27.5600  -36.7530   24.7440 C   0  0  0  0  0  1  0  0  0  0  0  0
  -26.4370  -36.9850   23.8390 N   0  0  0  0  0  0  0  0  0  0  0  0
  -26.0250  -37.8860   24.0660 H   0  0  0  0  0  0  0  0  0  0  0  0
  -26.4960  -31.2360   24.7140 C   0  0  1  0  0  0  0  0  0  0  0  0
  -25.4460  -30.9040   25.8000 C   0  0  0  0  0  1  0  0  0  0  0  0
  -27.0780  -29.9000   24.1950 C   0  0  0  0  0  1  0  0  0  0  0  0
  -27.6640  -31.9890   25.3970 C   0  0  0  0  0  1  0  0  0  0  0  0
  1  5  1  0
  1  2  2  0
  2  4  1  0
  3  4  1  0
  3 51  1  0
  4  8  1  0
  5  3  1  0
  6  5  1  0
  7  8  1  0
 10  9  1  0
 10  2  1  0
 10 11  1  0
 12 20  1  0
 13 18  1  0
 14 15  1  0
 14 13  1  0
 16 15  1  0
 16 25  1  0
 16 17  1  0
 18 12  1  0
 18 17  1  0
 19 12  2  0
 20 11  1  0
 20 21  1  0
 22 23  2  0
 23 42  1  0
 24 23  1  0
 24 27  1  0
 25 26  1  0
 25 22  1  0
 26 24  2  0
 27 28  1  0
 28 29  2  0
 30 33  1  0
 30 29  1  0
 31 30  2  0
 32 31  1  0
 32 27  2  0
 33 34  1  0
 34 35  1  0
 35 36  2  0
 37 36  1  0
 37 41  1  0
 38 37  2  0
 39 34  2  0
 39 38  1  0
 40 39  1  0
 42 43  1  0
 43 46  1  0
 43 45  1  0
 44 42  2  0
 47 22  1  0
 47 48  1  0
 49 47  1  0
 51 50  1  0
 53 52  1  0
 53 51  1  0
 54 55  1  0
 54 53  1  0
 55 57  1  0
 56 67  2  0
 57 62  1  0
 58 66  1  0
 58 68  1  0
 59 65  1  0
 59 61  1  0
 60 66  1  0
 61 60  1  0
 62 61  2  0
 63 64  1  0
 63 57  2  0
 64 59  2  0
 65 58  1  0
 66 56  1  0
 68 70  2  0
 69 68  1  0
 71 69  1  0
 72 81  2  0
 72 77  1  0
 73 69  1  0
 73 77  1  0
 74 73  1  0
 75 76  1  0
 75 74  1  0
 76 72  1  0
 77 78  2  0
 78 79  1  0
 80 79  2  0
 81 80  1  0
 82 56  1  0
 82 83  1  0
 82 92  1  0
 83 86  1  0
 84 88  1  0
 84 83  1  0
 85 84  2  0
 88 87  1  0
 90 88  1  0
 90 91  1  0
 90 89  1  0
 92 95  1  1
 92 93  1  0
 94 92  1  0
M  ISO  4  12 100  20 100  54 101  55 101
M  END
>  <TORSDO>  (4) 
F 22

>  <SCORE>  (4) 
-10.854

>  <name>  (4) 
4

>  <ligand_id>  (4) 
4

>  <original_smiles>  (4) 
[H]c1c([H])c([H])c2c(c1[H])C([H])([H])C([H])([H])C([H])([H])C2([H])N([H])C(=O)C1([H])N(C(=O)C([H])(N([H])C(=O)C([H])(N([H])C([H])([H])[H])C([H])([H])[H])C(C([H])([H])[H])(C([H])([H])[H])C([H])([H])[H])C([H])([H])c2c([H])c(OC([H])([H])C([H])(C([H])([H])[H])C([H])(c3n(C([H])([H])C([H])([H])[H])c(C([H])(C([H])([H])[H])C([H])([H])N([H])C(=O)N4C([H])([H])C([H])([H])C([H])([H])C([H])(n5nc(-c6c([H])c([H])c(Oc7c([H])c([H])c(F)c([H])c7F)c([H])c6[H])c(C(=O)N([H])[H])c5N([H])[H])C4([H])[H])c([H])[n+]3[H])C([H])([H])[H])c([H])c([H])c2C1([H])[H]

>  <smiles>  (4) 
[H]c1c([H])c([H])c2c(c1[H])C([H])([H])C([H])([H])C([H])([H])C2([H])N([H])C(=O)C1([H])N(C(=O)C([H])(N([H])C(=O)C([H])(N([H])C([H])([H])[H])C([H])([H])[H])C(C([H])([H])[H])(C([H])([H])[H])C([H])([H])[H])C([H])([H])c2c([H])c(OC([H])([H])C([H])(C([H])([H])[H])C([H])(c3n(C([H])([H])C([H])([H])[H])c(C([H])(C([H])([H])[H])C([H])([H])N([H])C(=O)N4C([H])([H])C([H])([H])C([H])([H])C([H])(n5nc(-c6c([H])c([H])c(Oc7c([H])c([H])c(F)c([H])c7F)c([H])c6[H])c(C(=O)N([H])[H])c5N([H])[H])C4([H])[H])c([H])[n+]3[H])C([H])([H])[H])c([H])c([H])c2C1([H])[H]

$$$$
5:0:0
     RDKit          3D

 93101  0  0  1  0  0  0  0  0999 V2000
  -31.2900  -21.9130   20.2450 C   0  0  0  0  0  3  0  0  0  0  0  0
  -32.0570  -20.7600   20.0490 C   0  0  0  0  0  0  0  0  0  0  0  0
  -29.9830  -21.7360   20.7190 C   0  0  0  0  0  0  0  0  0  0  0  0
  -30.3030  -19.4370   20.7290 C   0  0  0  0  0  0  0  0  0  0  0  0
  -33.4860  -20.8200   19.5540 C   0  0  0  0  0  1  0  0  0  0  0  0
  -31.5620  -19.5400   20.3100 N   0  0  0  0  0  0  0  0  0  0  0  0
  -29.5110  -20.4920   20.9670 N   0  0  0  0  0  0  0  0  0  0  0  0
  -28.3080  -17.8570   20.7550 C   0  0  0  0  0  1  0  0  0  0  0  0
  -29.9710  -17.8480   22.6650 C   0  0  0  0  0  1  0  0  0  0  0  0
  -29.7960  -18.0200   21.1430 C   0  0  2  0  0  0  0  0  0  0  0  0
  -30.6070  -16.8910   20.4190 C   0  0  0  0  0  2  0  0  0  0  0  0
  -30.8150  -14.4530   20.0730 C   0  0  0  0  0  0  0  0  0  0  0  0
  -30.4170  -12.3360   18.8810 C   0  0  0  0  0  2  0  0  0  0  0  0
  -29.4130  -12.5970   17.7400 C   0  0  0  0  0  2  0  0  0  0  0  0
  -27.9680  -12.4500   18.2530 C   0  0  0  0  0  2  0  0  0  0  0  0
  -27.7090  -13.2390   19.5650 C   0  0  0  0  0  3  0  0  0  0  0  0
  -28.8280  -12.9870   20.6020 C   0  0  0  0  0  2  0  0  0  0  0  0
  -30.1180  -13.2900   19.9630 N   0  0  0  0  0  0  0  0  0  0  0  0
  -31.9120  -14.6250   19.5360 O   0  0  0  0  0  0  0  0  0  0  0  0
  -30.1680  -15.4930   20.6320 N   0  0  0  0  0  0  0  0  0  0  0  0
  -29.2670  -15.3230   21.0510 H   0  0  0  0  0  0  0  0  0  0  0  0
  -25.3540  -13.8140   20.4280 C   0  0  0  0  0  0  0  0  0  0  0  0
  -24.3130  -13.0270   20.8400 C   0  0  0  0  0  0  0  0  0  0  0  0
  -24.7750  -11.6790   20.7440 C   0  0  0  0  0  0  0  0  0  0  0  0
  -26.3870  -12.9450   20.1130 N   0  0  0  0  0  0  0  0  0  0  0  0
  -26.0450  -11.6540   20.3600 N   0  0  0  0  0  0  0  0  0  0  0  0
  -24.0640  -10.4090   20.9410 C   0  0  0  0  0  0  0  0  0  0  0  0
  -24.5100   -9.4500   21.8780 C   0  0  0  0  0  3  0  0  0  0  0  0
  -23.7990   -8.2450   22.0630 C   0  0  0  0  0  3  0  0  0  0  0  0
  -22.6290   -7.9890   21.3100 C   0  0  0  0  0  0  0  0  0  0  0  0
  -22.2020   -8.9360   20.3610 C   0  0  0  0  0  3  0  0  0  0  0  0
  -22.9140  -10.1330   20.1750 C   0  0  0  0  0  3  0  0  0  0  0  0
  -21.8880   -6.8350   21.4050 O   0  0  0  0  0  0  0  0  0  0  0  0
  -21.7890   -6.1380   22.5820 C   0  0  0  0  0  0  0  0  0  0  0  0
  -21.2920   -6.7340   23.7610 C   0  0  0  0  0  3  0  0  0  0  0  0
  -21.1410   -5.9620   24.9300 C   0  0  0  0  0  3  0  0  0  0  0  0
  -21.4740   -4.5940   24.9200 C   0  0  0  0  0  0  0  0  0  0  0  0
  -21.9630   -3.9980   23.7450 C   0  0  0  0  0  3  0  0  0  0  0  0
  -22.1160   -4.7670   22.5770 C   0  0  0  0  0  0  0  0  0  0  0  0
  -22.5680   -4.1810   21.4420 F   0  0  0  0  0  0  0  0  0  0  0  0
  -21.3210   -3.8500   26.0400 F   0  0  0  0  0  0  0  0  0  0  0  0
  -22.9330  -13.4910   21.2070 C   0  0  0  0  0  0  0  0  0  0  0  0
  -22.2630  -12.7750   22.1030 N   0  0  0  0  0  0  0  0  0  0  0  0
  -22.4600  -14.5230   20.7350 O   0  0  0  0  0  0  0  0  0  0  0  0
  -22.6600  -11.9400   22.5070 H   0  0  0  0  0  0  0  0  0  0  0  0
  -21.3370  -13.0640   22.3860 H   0  0  0  0  0  0  0  0  0  0  0  0
  -25.5050  -15.1890   20.2780 N   0  0  0  0  0  0  0  0  0  0  0  0
  -24.7370  -15.8300   20.4450 H   0  0  0  0  0  0  0  0  0  0  0  0
  -26.3200  -15.6380   19.8830 H   0  0  0  0  0  0  0  0  0  0  0  0
  -29.0530  -22.9040   21.0460 C   0  0  0  0  0  2  0  0  0  0  0  0
  -29.3680  -24.2790   20.3900 C   0  0  0  0  0  2  0  0  0  0  0  0
  -28.3030  -25.3300   20.7700 C   0  0  0  0  0  2  0  0  0  0  0  0
  -28.4880  -26.6310   20.1750 O   0  0  0  0  0  0  0  0  0  0  0  0
  -24.6360  -31.7980   23.2260 C   0  0  0  0  0  0  0  0  0  0  0  0
  -27.3380  -27.3950   20.1440 C   0  0  0  0  0  0  0  0  0  0  0  0
  -23.4540  -30.3970   21.5660 C   0  0  0  0  0  3  0  0  0  0  0  0
  -24.9330  -28.8880   20.1370 C   0  0  0  0  0  0  0  0  0  0  0  0
  -25.9790  -30.7810   21.3890 C   0  0  0  0  0  2  0  0  0  0  0  0
  -26.0830  -29.4160   20.7390 C   0  0  0  0  0  0  0  0  0  0  0  0
  -27.2900  -28.6780   20.7390 C   0  0  0  0  0  3  0  0  0  0  0  0
  -26.1730  -26.8940   19.5180 C   0  0  0  0  0  3  0  0  0  0  0  0
  -24.9750  -27.6270   19.5210 C   0  0  0  0  0  3  0  0  0  0  0  0
  -23.6790  -29.7300   20.1820 C   0  0  0  0  0  2  0  0  0  0  0  0
  -24.7070  -31.0070   22.1180 N   0  0  0  0  0  0  0  0  0  0  0  0
  -23.5490  -32.0530   23.7620 O   0  0  0  0  0  0  0  0  0  0  0  0
  -22.8070  -29.3630   22.5150 C   0  0  0  0  0  0  0  0  0  0  0  0
  -21.4850  -29.1660   22.3760 N   0  0  0  0  0  0  0  0  0  0  0  0
  -23.4910  -28.7400   23.3320 O   0  0  0  0  0  0  0  0  0  0  0  0
  -20.9940  -29.7180   21.6890 H   0  0  0  0  0  0  0  0  0  0  0  0
  -18.1230  -27.9220   22.8230 C   0  0  0  0  0  0  0  0  0  0  0  0
  -20.6730  -28.2150   23.1330 C   0  0  0  0  0  3  0  0  0  0  0  0
  -20.8040  -26.7860   22.5590 C   0  0  0  0  0  2  0  0  0  0  0  0
  -19.7230  -26.4480   21.5290 C   0  0  0  0  0  2  0  0  0  0  0  0
  -18.3290  -26.5750   22.1510 C   0  0  0  0  0  2  0  0  0  0  0  0
  -19.2240  -28.6990   23.2700 C   0  0  0  0  0  0  0  0  0  0  0  0
  -18.9800  -29.9600   23.8570 C   0  0  0  0  0  3  0  0  0  0  0  0
  -17.6660  -30.4430   24.0030 C   0  0  0  0  0  3  0  0  0  0  0  0
  -16.5790  -29.6620   23.5740 C   0  0  0  0  0  3  0  0  0  0  0  0
  -16.8080  -28.4050   22.9890 C   0  0  0  0  0  3  0  0  0  0  0  0
  -25.9130  -32.4370   23.8570 C   0  0  0  0  0  3  0  0  0  0  0  0
  -25.5910  -33.8310   24.1920 N   0  0  0  0  0  0  0  0  0  0  0  0
  -25.9190  -34.8890   23.4400 C   0  0  0  0  0  0  0  0  0  0  0  0
  -26.5990  -34.7960   22.4140 O   0  0  0  0  0  0  0  0  0  0  0  0
  -24.9920  -33.9770   24.9910 H   0  0  0  0  0  0  0  0  0  0  0  0
  -24.1800  -36.6670   23.0790 C   0  0  0  0  0  1  0  0  0  0  0  0
  -25.4160  -36.2710   23.9010 C   0  0  0  0  0  3  0  0  0  0  0  0
  -27.5330  -37.1710   24.7570 C   0  0  0  0  0  1  0  0  0  0  0  0
  -26.4390  -37.3340   23.8030 N   0  0  0  0  0  0  0  0  0  0  0  0
  -26.0230  -38.2500   23.9510 H   0  0  0  0  0  0  0  0  0  0  0  0
  -26.4320  -31.6640   25.1300 C   0  0  1  0  0  0  0  0  0  0  0  0
  -25.3350  -31.4090   26.1910 C   0  0  0  0  0  1  0  0  0  0  0  0
  -27.0310  -30.2950   24.7300 C   0  0  0  0  0  1  0  0  0  0  0  0
  -27.5700  -32.4640   25.8040 C   0  0  0  0  0  1  0  0  0  0  0  0
  1  3  1  0
  2  1  2  0
  2  6  1  0
  3  7  2  0
  3 50  1  0
  4  7  1  0
  4 10  1  0
  5  2  1  0
  6  4  2  0
 10  8  1  1
 10  9  1  0
 11 20  1  0
 11 10  1  0
 12 20  1  0
 13 18  1  0
 14 15  1  0
 14 13  1  0
 16 15  1  0
 16 25  1  0
 16 17  1  0
 18 12  1  0
 18 17  1  0
 19 12  2  0
 20 21  1  0
 22 23  2  0
 23 42  1  0
 24 23  1  0
 24 27  1  0
 25 26  1  0
 25 22  1  0
 26 24  2  0
 27 28  1  0
 28 29  2  0
 30 33  1  0
 30 29  1  0
 31 30  2  0
 32 31  1  0
 32 27  2  0
 33 34  1  0
 34 35  1  0
 35 36  2  0
 37 36  1  0
 37 41  1  0
 38 37  2  0
 39 34  2  0
 39 38  1  0
 40 39  1  0
 42 43  1  0
 43 46  1  0
 43 45  1  0
 44 42  2  0
 47 22  1  0
 47 48  1  0
 49 47  1  0
 51 52  1  0
 51 50  1  0
 53 52  1  0
 54 65  2  0
 55 53  1  0
 55 60  1  0
 56 64  1  0
 56 66  1  0
 57 63  1  0
 57 59  1  0
 58 64  1  0
 59 58  1  0
 60 59  2  0
 61 62  1  0
 61 55  2  0
 62 57  2  0
 63 56  1  0
 64 54  1  0
 66 68  2  0
 67 66  1  0
 69 67  1  0
 70 79  2  0
 70 75  1  0
 71 67  1  0
 71 75  1  0
 72 71  1  0
 73 74  1  0
 73 72  1  0
 74 70  1  0
 75 76  2  0
 76 77  1  0
 78 77  2  0
 79 78  1  0
 80 54  1  0
 80 81  1  0
 80 90  1  0
 81 84  1  0
 82 86  1  0
 82 81  1  0
 83 82  2  0
 86 85  1  0
 88 86  1  0
 88 89  1  0
 88 87  1  0
 90 93  1  1
 90 91  1  0
 92 90  1  0
M  ISO  4  12 100  20 100  52 101  53 101
M  END
>  <TORSDO>  (5) 
F 21

>  <SCORE>  (5) 
-12.511

>  <name>  (5) 
5

>  <ligand_id>  (5) 
5

>  <original_smiles>  (5) 
[H]c1c(C([H])([H])[H])nc(C(C([H])([H])[H])(C([H])([H])[H])C([H])([H])N([H])C(=O)N2C([H])([H])C([H])([H])C([H])([H])C([H])(n3nc(-c4c([H])c([H])c(Oc5c([H])c([H])c(F)c([H])c5F)c([H])c4[H])c(C(=O)N([H])[H])c3N([H])[H])C2([H])[H])nc1C([H])([H])C([H])([H])C([H])([H])Oc1c([H])c([H])c2c(c1[H])C([H])([H])N(C(=O)C([H])(N([H])C(=O)C([H])(N([H])C([H])([H])[H])C([H])([H])[H])C(C([H])([H])[H])(C([H])([H])[H])C([H])([H])[H])C([H])(C(=O)N([H])C1([H])c3c([H])c([H])c([H])c([H])c3C([H])([H])C([H])([H])C1([H])[H])C2([H])[H]

>  <smiles>  (5) 
[H]c1c(C([H])([H])[H])nc(C(C([H])([H])[H])(C([H])([H])[H])C([H])([H])N([H])C(=O)N2C([H])([H])C([H])([H])C([H])([H])C([H])(n3nc(-c4c([H])c([H])c(Oc5c([H])c([H])c(F)c([H])c5F)c([H])c4[H])c(C(=O)N([H])[H])c3N([H])[H])C2([H])[H])nc1C([H])([H])C([H])([H])C([H])([H])Oc1c([H])c([H])c2c(c1[H])C([H])([H])N(C(=O)C([H])(N([H])C(=O)C([H])(N([H])C([H])([H])[H])C([H])([H])[H])C(C([H])([H])[H])(C([H])([H])[H])C([H])([H])[H])C([H])(C(=O)N([H])C1([H])c3c([H])c([H])c([H])c([H])c3C([H])([H])C([H])([H])C1([H])[H])C2([H])[H]

$$$$
6:0:0
     RDKit          3D

100108  0  0  1  0  0  0  0  0999 V2000
  -28.1980  -20.6300   20.1440 C   0  0  0  0  0  3  0  0  0  0  0  0
  -29.4480  -20.5410   20.7620 C   0  0  0  0  0  0  0  0  0  0  0  0
  -27.7140  -19.4920   19.4840 C   0  0  0  0  0  0  0  0  0  0  0  0
  -29.6160  -18.3300   20.1100 C   0  0  0  0  0  0  0  0  0  0  0  0
  -30.1650  -19.3930   20.7210 N   0  0  0  0  0  0  0  0  0  0  0  0
  -28.4230  -18.3400   19.5170 N   0  0  0  0  0  0  0  0  0  0  0  0
  -30.0620  -21.7930   21.4070 C   0  0  0  0  0  2  0  0  0  0  0  0
  -30.6140  -22.8050   20.3640 C   0  0  0  0  0  2  0  0  0  0  0  0
  -29.7780  -24.1040   20.0890 C   0  0  0  0  0  2  0  0  0  0  0  0
  -31.4680  -25.6470   21.2340 C   0  0  0  0  0  1  0  0  0  0  0  0
  -29.3090  -25.1780   22.3790 C   0  0  0  0  0  1  0  0  0  0  0  0
  -29.9700  -25.3750   20.9970 C   0  0  2  0  0  0  0  0  0  0  0  0
  -29.4090  -26.6840   20.3290 C   0  0  0  0  0  2  0  0  0  0  0  0
  -28.1740  -26.4990   19.6480 O   0  0  0  0  0  0  0  0  0  0  0  0
  -24.5610  -31.7290   23.0560 C   0  0  0  0  0  0  0  0  0  0  0  0
  -27.1020  -27.3580   19.7860 C   0  0  0  0  0  0  0  0  0  0  0  0
  -23.3030  -30.3620   21.4260 C   0  0  0  0  0  3  0  0  0  0  0  0
  -24.7110  -28.8710   19.9080 C   0  0  0  0  0  0  0  0  0  0  0  0
  -25.8190  -30.7340   21.1460 C   0  0  0  0  0  2  0  0  0  0  0  0
  -25.8890  -29.3770   20.4750 C   0  0  0  0  0  0  0  0  0  0  0  0
  -27.0910  -28.6290   20.4170 C   0  0  0  0  0  3  0  0  0  0  0  0
  -25.9050  -26.8790   19.2170 C   0  0  0  0  0  3  0  0  0  0  0  0
  -24.7130  -27.6200   19.2760 C   0  0  0  0  0  3  0  0  0  0  0  0
  -23.4670  -29.7250   20.0210 C   0  0  0  0  0  2  0  0  0  0  0  0
  -24.5810  -30.9580   21.9320 N   0  0  0  0  0  0  0  0  0  0  0  0
  -23.4980  -31.9800   23.6420 O   0  0  0  0  0  0  0  0  0  0  0  0
  -22.6940  -29.3100   22.3830 C   0  0  0  0  0  0  0  0  0  0  0  0
  -21.3680  -29.1110   22.2880 N   0  0  0  0  0  0  0  0  0  0  0  0
  -23.4060  -28.6780   23.1650 O   0  0  0  0  0  0  0  0  0  0  0  0
  -20.8500  -29.6750   21.6310 H   0  0  0  0  0  0  0  0  0  0  0  0
  -18.0310  -27.8280   22.8290 C   0  0  0  0  0  0  0  0  0  0  0  0
  -20.5870  -28.1470   23.0630 C   0  0  0  0  0  3  0  0  0  0  0  0
  -20.7130  -26.7230   22.4730 C   0  0  0  0  0  2  0  0  0  0  0  0
  -19.6030  -26.3830   21.4720 C   0  0  0  0  0  2  0  0  0  0  0  0
  -18.2280  -26.4890   22.1390 C   0  0  0  0  0  2  0  0  0  0  0  0
  -19.1380  -28.6140   23.2480 C   0  0  0  0  0  0  0  0  0  0  0  0
  -18.8980  -29.8660   23.8550 C   0  0  0  0  0  3  0  0  0  0  0  0
  -17.5840  -30.3350   24.0440 C   0  0  0  0  0  3  0  0  0  0  0  0
  -16.4920  -29.5480   23.6380 C   0  0  0  0  0  3  0  0  0  0  0  0
  -16.7160  -28.2950   23.0390 C   0  0  0  0  0  3  0  0  0  0  0  0
  -25.8650  -32.3520   23.6420 C   0  0  0  0  0  3  0  0  0  0  0  0
  -26.4560  -31.5310   24.8540 C   0  0  1  0  0  0  0  0  0  0  0  0
  -25.4220  -31.2370   25.9650 C   0  0  0  0  0  1  0  0  0  0  0  0
  -27.0310  -30.1780   24.3690 C   0  0  0  0  0  1  0  0  0  0  0  0
  -27.6320  -32.3110   25.4880 C   0  0  0  0  0  1  0  0  0  0  0  0
  -25.5520  -33.7280   24.0480 N   0  0  0  0  0  0  0  0  0  0  0  0
  -25.8480  -34.8210   23.3300 C   0  0  0  0  0  0  0  0  0  0  0  0
  -26.4890  -34.7730   22.2740 O   0  0  0  0  0  0  0  0  0  0  0  0
  -24.9780  -33.8370   24.8720 H   0  0  0  0  0  0  0  0  0  0  0  0
  -24.0920  -36.6060   23.1080 C   0  0  0  0  0  1  0  0  0  0  0  0
  -25.3590  -36.1780   23.8660 C   0  0  0  0  0  3  0  0  0  0  0  0
  -27.5080  -37.0460   24.6780 C   0  0  0  0  0  1  0  0  0  0  0  0
  -26.3750  -37.2480   23.7770 N   0  0  0  0  0  0  0  0  0  0  0  0
  -25.9640  -38.1550   23.9810 H   0  0  0  0  0  0  0  0  0  0  0  0
  -26.3640  -19.4520   18.7490 C   0  0  0  0  0  2  0  0  0  0  0  0
  -25.0500  -21.6520   18.5620 C   0  0  0  0  0  1  0  0  0  0  0  0
  -27.0770  -21.4160   17.1340 C   0  0  0  0  0  1  0  0  0  0  0  0
  -25.0320  -20.0550   16.6670 C   0  0  0  0  0  1  0  0  0  0  0  0
  -25.9190  -20.6310   17.7950 C   0  0  1  0  0  0  0  0  0  0  0  0
  -30.5070  -17.0760   19.8690 C   0  0  0  0  0  3  0  0  0  0  0  0
  -30.7130  -14.5910   20.1400 C   0  0  0  0  0  0  0  0  0  0  0  0
  -30.4010  -12.4370   18.9530 C   0  0  0  0  0  2  0  0  0  0  0  0
  -29.4130  -12.6140   17.7830 C   0  0  0  0  0  2  0  0  0  0  0  0
  -27.9500  -12.4540   18.2530 C   0  0  0  0  0  2  0  0  0  0  0  0
  -27.6480  -13.2670   19.5450 C   0  0  0  0  0  3  0  0  0  0  0  0
  -28.7400  -13.0150   20.5900 C   0  0  0  0  0  2  0  0  0  0  0  0
  -30.0190  -13.4150   19.9870 N   0  0  0  0  0  0  0  0  0  0  0  0
  -31.8840  -14.6510   19.7610 O   0  0  0  0  0  0  0  0  0  0  0  0
  -29.2610  -15.8690   21.6510 C   0  0  0  0  0  1  0  0  0  0  0  0
  -30.0140  -15.7470   20.3880 N   0  0  0  0  0  0  0  0  0  0  0  0
  -25.2850  -13.8460   20.3940 C   0  0  0  0  0  0  0  0  0  0  0  0
  -24.2490  -13.0550   20.8110 C   0  0  0  0  0  0  0  0  0  0  0  0
  -24.7230  -11.7090   20.7540 C   0  0  0  0  0  0  0  0  0  0  0  0
  -26.3230  -12.9750   20.0870 N   0  0  0  0  0  0  0  0  0  0  0  0
  -25.9940  -11.6880   20.3700 N   0  0  0  0  0  0  0  0  0  0  0  0
  -24.0200  -10.4370   20.9790 C   0  0  0  0  0  0  0  0  0  0  0  0
  -24.4830   -9.4930   21.9230 C   0  0  0  0  0  3  0  0  0  0  0  0
  -23.7780   -8.2850   22.1300 C   0  0  0  0  0  3  0  0  0  0  0  0
  -22.6020   -8.0130   21.3900 C   0  0  0  0  0  0  0  0  0  0  0  0
  -22.1600   -8.9460   20.4400 C   0  0  0  0  0  3  0  0  0  0  0  0
  -22.8630  -10.1440   20.2300 C   0  0  0  0  0  3  0  0  0  0  0  0
  -21.8660   -6.8570   21.5020 O   0  0  0  0  0  0  0  0  0  0  0  0
  -21.8030   -6.1590   22.6830 C   0  0  0  0  0  0  0  0  0  0  0  0
  -21.3320   -6.7560   23.8720 C   0  0  0  0  0  3  0  0  0  0  0  0
  -21.2120   -5.9850   25.0440 C   0  0  0  0  0  3  0  0  0  0  0  0
  -21.5510   -4.6160   25.0290 C   0  0  0  0  0  0  0  0  0  0  0  0
  -22.0190   -4.0210   23.8420 C   0  0  0  0  0  3  0  0  0  0  0  0
  -22.1400   -4.7920   22.6700 C   0  0  0  0  0  0  0  0  0  0  0  0
  -22.5710   -4.2090   21.5260 F   0  0  0  0  0  0  0  0  0  0  0  0
  -21.4300   -3.8760   26.1520 F   0  0  0  0  0  0  0  0  0  0  0  0
  -22.8630  -13.5190   21.1460 C   0  0  0  0  0  0  0  0  0  0  0  0
  -22.1860  -12.8270   22.0560 N   0  0  0  0  0  0  0  0  0  0  0  0
  -22.3840  -14.5330   20.6410 O   0  0  0  0  0  0  0  0  0  0  0  0
  -22.5770  -12.0090   22.4940 H   0  0  0  0  0  0  0  0  0  0  0  0
  -21.2640  -13.1380   22.3190 H   0  0  0  0  0  0  0  0  0  0  0  0
  -25.4160  -15.2250   20.2350 N   0  0  0  0  0  0  0  0  0  0  0  0
  -24.6220  -15.8410   20.3880 H   0  0  0  0  0  0  0  0  0  0  0  0
  -26.2150  -15.7080   19.8450 H   0  0  0  0  0  0  0  0  0  0  0  0
  -31.7400  -18.3200   17.9520 C   0  0  0  0  0  1  0  0  0  0  0  0
  -30.9130  -17.0870   18.3550 C   0  0  0  0  0  2  0  0  0  0  0  0
  1  2  2  0
  2  7  1  0
  3  6  2  0
  3  1  1  0
  4  5  2  0
  5  2  1  0
  6  4  1  0
  8  7  1  0
  9  8  1  0
  9 12  1  0
 12 10  1  1
 12 11  1  0
 13 12  1  0
 14 16  1  0
 14 13  1  0
 15 26  2  0
 16 21  1  0
 17 25  1  0
 17 27  1  0
 18 24  1  0
 18 20  1  0
 19 25  1  0
 20 19  1  0
 21 20  2  0
 22 23  1  0
 22 16  2  0
 23 18  2  0
 24 17  1  0
 25 15  1  0
 27 29  2  0
 28 27  1  0
 30 28  1  0
 31 40  2  0
 31 36  1  0
 32 28  1  0
 32 36  1  0
 33 32  1  0
 34 35  1  0
 34 33  1  0
 35 31  1  0
 36 37  2  0
 37 38  1  0
 39 38  2  0
 40 39  1  0
 41 15  1  0
 41 46  1  0
 41 42  1  0
 42 45  1  1
 42 43  1  0
 44 42  1  0
 46 49  1  0
 47 51  1  0
 47 46  1  0
 48 47  2  0
 51 50  1  0
 53 51  1  0
 53 54  1  0
 53 52  1  0
 55  3  1  0
 59 57  1  6
 58 59  1  0
 59 56  1  0
 59 55  1  0
 60100  1  0
 60  4  1  0
 60 70  1  0
 61 70  1  0
 62 67  1  0
 63 64  1  0
 63 62  1  0
 65 64  1  0
 65 74  1  0
 65 66  1  0
 67 61  1  0
 67 66  1  0
 68 61  2  0
 70 69  1  0
 71 72  2  0
 72 91  1  0
 73 72  1  0
 73 76  1  0
 74 75  1  0
 74 71  1  0
 75 73  2  0
 76 77  1  0
 77 78  2  0
 79 82  1  0
 79 78  1  0
 80 79  2  0
 81 80  1  0
 81 76  2  0
 82 83  1  0
 83 84  1  0
 84 85  2  0
 86 85  1  0
 86 90  1  0
 87 86  2  0
 88 83  2  0
 88 87  1  0
 89 88  1  0
 91 92  1  0
 92 95  1  0
 92 94  1  0
 93 91  2  0
 96 97  1  0
 96 71  1  0
 98 96  1  0
 99100  1  0
M  ISO  4  13 101  14 101  61 100  70 100
M  END
>  <TORSDO>  (6) 
F 25

>  <SCORE>  (6) 
-11.125

>  <name>  (6) 
6

>  <ligand_id>  (6) 
6

>  <original_smiles>  (6) 
[H]c1c(C([H])([H])C([H])([H])C([H])([H])C(C([H])([H])[H])(C([H])([H])[H])C([H])([H])Oc2c([H])c([H])c3c(c2[H])C([H])([H])N(C(=O)C([H])(N([H])C(=O)C([H])(N([H])C([H])([H])[H])C([H])([H])[H])C(C([H])([H])[H])(C([H])([H])[H])C([H])([H])[H])C([H])(C(=O)N([H])C2([H])c4c([H])c([H])c([H])c([H])c4C([H])([H])C([H])([H])C2([H])[H])C3([H])[H])nc(C([H])(N(C(=O)N2C([H])([H])C([H])([H])C([H])([H])C([H])(n3nc(-c4c([H])c([H])c(Oc5c([H])c([H])c(F)c([H])c5F)c([H])c4[H])c(C(=O)N([H])[H])c3N([H])[H])C2([H])[H])C([H])([H])[H])C([H])([H])C([H])([H])[H])nc1C([H])([H])C(C([H])([H])[H])(C([H])([H])[H])C([H])([H])[H]

>  <smiles>  (6) 
[H]c1c(C([H])([H])C([H])([H])C([H])([H])C(C([H])([H])[H])(C([H])([H])[H])C([H])([H])Oc2c([H])c([H])c3c(c2[H])C([H])([H])N(C(=O)C([H])(N([H])C(=O)C([H])(N([H])C([H])([H])[H])C([H])([H])[H])C(C([H])([H])[H])(C([H])([H])[H])C([H])([H])[H])C([H])(C(=O)N([H])C2([H])c4c([H])c([H])c([H])c([H])c4C([H])([H])C([H])([H])C2([H])[H])C3([H])[H])nc(C([H])(N(C(=O)N2C([H])([H])C([H])([H])C([H])([H])C([H])(n3nc(-c4c([H])c([H])c(Oc5c([H])c([H])c(F)c([H])c5F)c([H])c4[H])c(C(=O)N([H])[H])c3N([H])[H])C2([H])[H])C([H])([H])[H])C([H])([H])C([H])([H])[H])nc1C([H])([H])C(C([H])([H])[H])(C([H])([H])[H])C([H])([H])[H]

$$$$
7:0:0
     RDKit          3D

 92100  0  0  1  0  0  0  0  0999 V2000
  -29.1230  -20.1000   20.6650 C   0  0  0  0  0  2  0  0  0  0  0  0
  -31.9230  -18.9360   18.9090 C   0  0  0  0  0  0  0  0  0  0  0  0
  -30.6670  -18.0110   20.2940 C   0  0  0  0  0  3  0  0  0  0  0  0
  -33.0190  -19.1760   17.9290 C   0  0  0  0  0  1  0  0  0  0  0  0
  -31.7300  -17.7430   19.5360 N   0  0  0  0  0  0  0  0  0  0  0  0
  -31.0570  -19.8950   19.2110 N   0  0  0  0  0  2  0  0  0  0  0  0
  -30.2520  -19.3070   20.1320 N   0  0  0  0  0  0  0  0  0  0  0  0
  -30.9260  -17.0160   22.6200 C   0  0  0  0  0  1  0  0  0  0  0  0
  -30.1090  -17.0130   21.3150 C   0  0  0  0  0  3  0  0  0  0  0  0
  -30.6350  -14.5890   20.3950 C   0  0  0  0  0  0  0  0  0  0  0  0
  -30.3460  -12.4110   19.2280 C   0  0  0  0  0  2  0  0  0  0  0  0
  -29.3900  -12.5920   18.0290 C   0  0  0  0  0  2  0  0  0  0  0  0
  -27.9210  -12.4410   18.4750 C   0  0  0  0  0  2  0  0  0  0  0  0
  -27.5890  -13.2830   19.7350 C   0  0  0  0  0  3  0  0  0  0  0  0
  -28.6570  -13.0820   20.8340 C   0  0  0  0  0  2  0  0  0  0  0  0
  -29.9690  -13.4050   20.2470 N   0  0  0  0  0  0  0  0  0  0  0  0
  -31.8010  -14.7270   20.0230 O   0  0  0  0  0  0  0  0  0  0  0  0
  -29.8640  -15.6130   20.8440 N   0  0  0  0  0  0  0  0  0  0  0  0
  -28.9130  -15.3220   21.0000 H   0  0  0  0  0  0  0  0  0  0  0  0
  -25.2000  -13.9030   20.4580 C   0  0  0  0  0  0  0  0  0  0  0  0
  -24.1330  -13.1360   20.8360 C   0  0  0  0  0  0  0  0  0  0  0  0
  -24.5890  -11.7820   20.8100 C   0  0  0  0  0  0  0  0  0  0  0  0
  -26.2410  -13.0160   20.2260 N   0  0  0  0  0  0  0  0  0  0  0  0
  -25.8790  -11.7360   20.4980 N   0  0  0  0  0  0  0  0  0  0  0  0
  -23.8580  -10.5240   21.0060 C   0  0  0  0  0  0  0  0  0  0  0  0
  -24.2920   -9.5550   21.9380 C   0  0  0  0  0  3  0  0  0  0  0  0
  -23.5610   -8.3620   22.1230 C   0  0  0  0  0  3  0  0  0  0  0  0
  -22.3830   -8.1280   21.3730 C   0  0  0  0  0  0  0  0  0  0  0  0
  -21.9700   -9.0840   20.4280 C   0  0  0  0  0  3  0  0  0  0  0  0
  -22.7010  -10.2690   20.2420 C   0  0  0  0  0  3  0  0  0  0  0  0
  -21.6250   -6.9860   21.4670 O   0  0  0  0  0  0  0  0  0  0  0  0
  -21.5810   -6.2440   22.6190 C   0  0  0  0  0  0  0  0  0  0  0  0
  -21.1730   -6.8020   23.8490 C   0  0  0  0  0  3  0  0  0  0  0  0
  -21.0760   -5.9860   24.9950 C   0  0  0  0  0  3  0  0  0  0  0  0
  -21.3780   -4.6130   24.9090 C   0  0  0  0  0  0  0  0  0  0  0  0
  -21.7820   -4.0550   23.6840 C   0  0  0  0  0  3  0  0  0  0  0  0
  -21.8800   -4.8690   22.5410 C   0  0  0  0  0  0  0  0  0  0  0  0
  -22.2490   -4.3220   21.3580 F   0  0  0  0  0  0  0  0  0  0  0  0
  -21.2770   -3.8280   26.0070 F   0  0  0  0  0  0  0  0  0  0  0  0
  -22.7380  -13.6180   21.1150 C   0  0  0  0  0  0  0  0  0  0  0  0
  -22.0140  -12.9260   21.9870 N   0  0  0  0  0  0  0  0  0  0  0  0
  -22.3000  -14.6450   20.5970 O   0  0  0  0  0  0  0  0  0  0  0  0
  -22.3820  -12.0920   22.4230 H   0  0  0  0  0  0  0  0  0  0  0  0
  -21.0810  -13.2300   22.2260 H   0  0  0  0  0  0  0  0  0  0  0  0
  -25.3650  -15.2750   20.2710 N   0  0  0  0  0  0  0  0  0  0  0  0
  -24.5870  -15.9200   20.3640 H   0  0  0  0  0  0  0  0  0  0  0  0
  -26.1960  -15.7130   19.8970 H   0  0  0  0  0  0  0  0  0  0  0  0
  -29.4060  -21.6130   21.0140 C   0  0  0  0  0  2  0  0  0  0  0  0
  -28.9460  -22.7210   20.0010 C   0  0  0  0  0  2  0  0  0  0  0  0
  -28.7920  -24.1660   20.6070 C   0  0  0  0  0  3  0  0  0  0  0  0
  -28.5790  -25.3450   19.5950 C   0  0  0  0  0  3  0  0  0  0  0  0
  -28.4260  -26.6640   20.2040 O   0  0  0  0  0  0  0  0  0  0  0  0
  -24.5780  -31.8840   23.2470 C   0  0  0  0  0  0  0  0  0  0  0  0
  -27.2340  -27.3890   20.1740 C   0  0  0  0  0  0  0  0  0  0  0  0
  -23.3780  -30.4830   21.6030 C   0  0  0  0  0  3  0  0  0  0  0  0
  -24.8340  -28.9350   20.1860 C   0  0  0  0  0  0  0  0  0  0  0  0
  -25.9110  -30.8220   21.4180 C   0  0  0  0  0  2  0  0  0  0  0  0
  -25.9950  -29.4480   20.7770 C   0  0  0  0  0  0  0  0  0  0  0  0
  -27.1910  -28.6820   20.7680 C   0  0  0  0  0  3  0  0  0  0  0  0
  -26.0390  -26.9020   19.5930 C   0  0  0  0  0  3  0  0  0  0  0  0
  -24.8540  -27.6610   19.5990 C   0  0  0  0  0  3  0  0  0  0  0  0
  -23.5930  -29.8030   20.2260 C   0  0  0  0  0  2  0  0  0  0  0  0
  -24.6410  -31.0790   22.1480 N   0  0  0  0  0  0  0  0  0  0  0  0
  -23.4950  -32.1590   23.7820 O   0  0  0  0  0  0  0  0  0  0  0  0
  -22.7180  -29.4660   22.5630 C   0  0  0  0  0  0  0  0  0  0  0  0
  -21.3930  -29.2870   22.4330 N   0  0  0  0  0  0  0  0  0  0  0  0
  -23.3980  -28.8370   23.3790 O   0  0  0  0  0  0  0  0  0  0  0  0
  -20.9040  -29.8480   21.7490 H   0  0  0  0  0  0  0  0  0  0  0  0
  -18.0150  -28.1030   22.9290 C   0  0  0  0  0  0  0  0  0  0  0  0
  -20.5740  -28.3490   23.2010 C   0  0  0  0  0  3  0  0  0  0  0  0
  -20.6700  -26.9190   22.6190 C   0  0  0  0  0  2  0  0  0  0  0  0
  -19.5650  -26.6070   21.6050 C   0  0  0  0  0  2  0  0  0  0  0  0
  -18.1840  -26.7550   22.2500 C   0  0  0  0  0  2  0  0  0  0  0  0
  -19.1370  -28.8590   23.3610 C   0  0  0  0  0  0  0  0  0  0  0  0
  -18.9240  -30.1220   23.9540 C   0  0  0  0  0  3  0  0  0  0  0  0
  -17.6220  -30.6290   24.1210 C   0  0  0  0  0  3  0  0  0  0  0  0
  -16.5140  -29.8700   23.7050 C   0  0  0  0  0  3  0  0  0  0  0  0
  -16.7110  -28.6090   23.1140 C   0  0  0  0  0  3  0  0  0  0  0  0
  -25.8610  -32.5170   23.8710 C   0  0  0  0  0  3  0  0  0  0  0  0
  -25.5540  -33.9170   24.1970 N   0  0  0  0  0  0  0  0  0  0  0  0
  -25.8920  -34.9660   23.4360 C   0  0  0  0  0  0  0  0  0  0  0  0
  -26.5670  -34.8560   22.4080 O   0  0  0  0  0  0  0  0  0  0  0  0
  -24.9580  -34.0740   24.9970 H   0  0  0  0  0  0  0  0  0  0  0  0
  -24.1690  -36.7590   23.0630 C   0  0  0  0  0  1  0  0  0  0  0  0
  -25.4050  -36.3570   23.8850 C   0  0  0  0  0  3  0  0  0  0  0  0
  -27.5370  -37.2400   24.7230 C   0  0  0  0  0  1  0  0  0  0  0  0
  -26.4400  -37.4080   23.7720 N   0  0  0  0  0  0  0  0  0  0  0  0
  -26.0360  -38.3300   23.9130 H   0  0  0  0  0  0  0  0  0  0  0  0
  -26.3720  -31.7460   25.1500 C   0  0  1  0  0  0  0  0  0  0  0  0
  -25.2760  -31.5110   26.2150 C   0  0  0  0  0  1  0  0  0  0  0  0
  -26.9510  -30.3660   24.7620 C   0  0  0  0  0  1  0  0  0  0  0  0
  -27.5250  -32.5360   25.8130 C   0  0  0  0  0  1  0  0  0  0  0  0
  1 48  1  0
  2  6  1  0
  2  5  2  0
  3  9  1  0
  4  2  1  0
  5  3  1  0
  6  7  1  0
  7  3  1  0
  7  1  1  0
  9  8  1  0
 10 18  1  0
 11 16  1  0
 12 13  1  0
 12 11  1  0
 14 13  1  0
 14 23  1  0
 14 15  1  0
 16 10  1  0
 16 15  1  0
 17 10  2  0
 18 19  1  0
 18  9  1  0
 20 21  2  0
 21 40  1  0
 22 21  1  0
 22 25  1  0
 23 20  1  0
 23 24  1  0
 24 22  2  0
 25 26  1  0
 26 27  2  0
 28 31  1  0
 28 27  1  0
 29 28  2  0
 30 29  1  0
 30 25  2  0
 31 32  1  0
 32 33  1  0
 33 34  2  0
 35 34  1  0
 35 39  1  0
 36 35  2  0
 37 32  2  0
 37 36  1  0
 38 37  1  0
 40 41  1  0
 41 44  1  0
 41 43  1  0
 42 40  2  0
 45 46  1  0
 45 20  1  0
 47 45  1  0
 49 50  1  0
 49 48  1  0
 51 52  1  0
 51 50  2  0
 53 64  2  0
 54 52  1  0
 54 59  1  0
 55 63  1  0
 55 65  1  0
 56 62  1  0
 56 58  1  0
 57 63  1  0
 58 57  1  0
 59 58  2  0
 60 61  1  0
 60 54  2  0
 61 56  2  0
 62 55  1  0
 63 53  1  0
 65 67  2  0
 66 65  1  0
 68 66  1  0
 69 78  2  0
 69 74  1  0
 70 66  1  0
 70 74  1  0
 71 70  1  0
 72 73  1  0
 72 71  1  0
 73 69  1  0
 74 75  2  0
 75 76  1  0
 77 76  2  0
 78 77  1  0
 79 53  1  0
 79 80  1  0
 79 89  1  0
 80 83  1  0
 81 85  1  0
 81 80  1  0
 82 81  2  0
 85 84  1  0
 87 85  1  0
 87 88  1  0
 87 86  1  0
 89 92  1  1
 89 90  1  0
 91 89  1  0
M  ISO  4  10 100  18 100  51 101  52 101
M  END
>  <TORSDO>  (7) 
F 22

>  <SCORE>  (7) 
-13.221

>  <name>  (7) 
7

>  <ligand_id>  (7) 
7

>  <original_smiles>  (7) 
[H]c1c([H])c([H])c2c(c1[H])C([H])([H])C([H])([H])C([H])([H])C2([H])N([H])C(=O)C1([H])N(C(=O)C([H])(N([H])C(=O)C([H])(N([H])C([H])([H])[H])C([H])([H])[H])C(C([H])([H])[H])(C([H])([H])[H])C([H])([H])[H])C([H])([H])c2c([H])c(OC([H])([H])C([H])([H])C([H])([H])C([H])([H])C([H])([H])n3nc(C([H])([H])[H])nc3C([H])(N([H])C(=O)N3C([H])([H])C([H])([H])C([H])([H])C([H])(n4nc(-c5c([H])c([H])c(Oc6c([H])c([H])c(F)c([H])c6F)c([H])c5[H])c(C(=O)N([H])[H])c4N([H])[H])C3([H])[H])C([H])([H])[H])c([H])c([H])c2C1([H])[H]

>  <smiles>  (7) 
[H]c1c([H])c([H])c2c(c1[H])C([H])([H])C([H])([H])C([H])([H])C2([H])N([H])C(=O)C1([H])N(C(=O)C([H])(N([H])C(=O)C([H])(N([H])C([H])([H])[H])C([H])([H])[H])C(C([H])([H])[H])(C([H])([H])[H])C([H])([H])[H])C([H])([H])c2c([H])c(OC([H])([H])C([H])([H])C([H])([H])C([H])([H])C([H])([H])n3nc(C([H])([H])[H])nc3C([H])(N([H])C(=O)N3C([H])([H])C([H])([H])C([H])([H])C([H])(n4nc(-c5c([H])c([H])c(Oc6c([H])c([H])c(F)c([H])c6F)c([H])c5[H])c(C(=O)N([H])[H])c4N([H])[H])C3([H])[H])C([H])([H])[H])c([H])c([H])c2C1([H])[H]

$$$$
8:0:0
     RDKit          3D

 92100  0  0  1  0  0  0  0  0999 V2000
  -30.3620  -20.9090   19.9170 C   0  0  0  0  0  3  0  0  0  0  0  0
  -31.0110  -19.6580   20.0540 C   0  0  0  0  0  3  0  0  0  0  0  0
  -29.0500  -20.9700   19.3990 C   0  0  0  0  0  0  0  0  0  0  0  0
  -30.3660  -18.4550   19.6820 C   0  0  0  0  0  0  0  0  0  0  0  0
  -28.4660  -19.7000   19.0710 C   0  0  0  0  0  0  0  0  0  0  0  0
  -29.1060  -18.4980   19.1970 N   0  0  0  0  0  0  0  0  0  0  0  0
  -26.0970  -19.0210   19.6590 C   0  0  0  0  0  1  0  0  0  0  0  0
  -27.0340  -19.5580   18.5700 C   0  0  0  0  0  2  0  0  0  0  0  0
  -31.4380  -16.8270   18.1020 C   0  0  0  0  0  1  0  0  0  0  0  0
  -31.1890  -17.1300   19.5940 C   0  0  0  0  0  3  0  0  0  0  0  0
  -31.4030  -14.6850   20.1550 C   0  0  0  0  0  0  0  0  0  0  0  0
  -31.0160  -12.4790   19.1160 C   0  0  0  0  0  2  0  0  0  0  0  0
  -30.0710  -12.6730   17.9100 C   0  0  0  0  0  2  0  0  0  0  0  0
  -28.6030  -12.5700   18.3630 C   0  0  0  0  0  2  0  0  0  0  0  0
  -28.2970  -13.4390   19.6140 C   0  0  0  0  0  3  0  0  0  0  0  0
  -29.3700  -13.2710   20.7130 C   0  0  0  0  0  2  0  0  0  0  0  0
  -30.6810  -13.5240   20.1040 N   0  0  0  0  0  0  0  0  0  0  0  0
  -32.5890  -14.6990   19.8200 O   0  0  0  0  0  0  0  0  0  0  0  0
  -30.7210  -15.8660   20.2580 N   0  0  0  0  0  0  0  0  0  0  0  0
  -29.7560  -15.8490   20.5500 H   0  0  0  0  0  0  0  0  0  0  0  0
  -25.9460  -14.1060   20.4020 C   0  0  0  0  0  0  0  0  0  0  0  0
  -24.8560  -13.3650   20.7700 C   0  0  0  0  0  0  0  0  0  0  0  0
  -25.2640  -11.9970   20.6940 C   0  0  0  0  0  0  0  0  0  0  0  0
  -26.9500  -13.1930   20.1220 N   0  0  0  0  0  0  0  0  0  0  0  0
  -26.5460  -11.9170   20.3600 N   0  0  0  0  0  0  0  0  0  0  0  0
  -24.4900  -10.7600   20.8620 C   0  0  0  0  0  0  0  0  0  0  0  0
  -24.8460   -9.7900   21.8260 C   0  0  0  0  0  3  0  0  0  0  0  0
  -24.0740   -8.6190   21.9820 C   0  0  0  0  0  3  0  0  0  0  0  0
  -22.9320   -8.4080   21.1730 C   0  0  0  0  0  0  0  0  0  0  0  0
  -22.5960   -9.3640   20.1990 C   0  0  0  0  0  3  0  0  0  0  0  0
  -23.3670  -10.5280   20.0410 C   0  0  0  0  0  3  0  0  0  0  0  0
  -22.1400   -7.2870   21.2360 O   0  0  0  0  0  0  0  0  0  0  0  0
  -21.9120   -6.6310   22.4190 C   0  0  0  0  0  0  0  0  0  0  0  0
  -21.3390   -7.2820   23.5330 C   0  0  0  0  0  3  0  0  0  0  0  0
  -21.0570   -6.5530   24.7060 C   0  0  0  0  0  3  0  0  0  0  0  0
  -21.3400   -5.1750   24.7650 C   0  0  0  0  0  0  0  0  0  0  0  0
  -21.9060   -4.5240   23.6550 C   0  0  0  0  0  3  0  0  0  0  0  0
  -22.1880   -5.2500   22.4840 C   0  0  0  0  0  0  0  0  0  0  0  0
  -22.7140   -4.6130   21.4100 F   0  0  0  0  0  0  0  0  0  0  0  0
  -21.0630   -4.4740   25.8890 F   0  0  0  0  0  0  0  0  0  0  0  0
  -23.4840  -13.8890   21.0800 C   0  0  0  0  0  0  0  0  0  0  0  0
  -22.7550  -13.2140   21.9620 N   0  0  0  0  0  0  0  0  0  0  0  0
  -23.0690  -14.9310   20.5760 O   0  0  0  0  0  0  0  0  0  0  0  0
  -23.1020  -12.3690   22.3910 H   0  0  0  0  0  0  0  0  0  0  0  0
  -21.8360  -13.5490   22.2140 H   0  0  0  0  0  0  0  0  0  0  0  0
  -26.1600  -15.4750   20.2610 N   0  0  0  0  0  0  0  0  0  0  0  0
  -25.4190  -16.1520   20.4100 H   0  0  0  0  0  0  0  0  0  0  0  0
  -27.0210  -15.8970   19.9400 H   0  0  0  0  0  0  0  0  0  0  0  0
  -28.2690  -22.3280   19.2450 C   0  0  0  0  0  2  0  0  0  0  0  0
  -28.9840  -23.7470   19.1940 C   0  0  0  0  0  2  0  0  0  0  0  0
  -28.0440  -24.9460   19.6430 C   0  0  0  0  0  2  0  0  0  0  0  0
  -28.3100  -26.3450   19.2390 O   0  0  0  0  0  0  0  0  0  0  0  0
  -24.6540  -31.3460   22.9160 C   0  0  0  0  0  0  0  0  0  0  0  0
  -27.2080  -27.2020   19.3120 C   0  0  0  0  0  0  0  0  0  0  0  0
  -23.4130  -30.1230   21.1650 C   0  0  0  0  0  3  0  0  0  0  0  0
  -24.8340  -28.7640   19.5330 C   0  0  0  0  0  0  0  0  0  0  0  0
  -25.9400  -30.4970   20.9460 C   0  0  0  0  0  2  0  0  0  0  0  0
  -26.0150  -29.2020   20.1500 C   0  0  0  0  0  0  0  0  0  0  0  0
  -27.2090  -28.4340   20.0310 C   0  0  0  0  0  3  0  0  0  0  0  0
  -26.0150  -26.8260   18.6570 C   0  0  0  0  0  3  0  0  0  0  0  0
  -24.8370  -27.5820   18.7750 C   0  0  0  0  0  3  0  0  0  0  0  0
  -23.5910  -29.6090   19.7130 C   0  0  0  0  0  2  0  0  0  0  0  0
  -24.6890  -30.6650   21.7340 N   0  0  0  0  0  0  0  0  0  0  0  0
  -23.5850  -31.5510   23.5090 O   0  0  0  0  0  0  0  0  0  0  0  0
  -22.7880  -28.9990   22.0230 C   0  0  0  0  0  0  0  0  0  0  0  0
  -21.4580  -28.8370   21.9310 N   0  0  0  0  0  0  0  0  0  0  0  0
  -23.4970  -28.2810   22.7340 O   0  0  0  0  0  0  0  0  0  0  0  0
  -20.9440  -29.4710   21.3350 H   0  0  0  0  0  0  0  0  0  0  0  0
  -18.0910  -27.6290   22.4730 C   0  0  0  0  0  0  0  0  0  0  0  0
  -20.6660  -27.8140   22.6170 C   0  0  0  0  0  3  0  0  0  0  0  0
  -20.7030  -26.4720   21.8530 C   0  0  0  0  0  2  0  0  0  0  0  0
  -19.5370  -26.3030   20.8740 C   0  0  0  0  0  2  0  0  0  0  0  0
  -18.1990  -26.3800   21.6150 C   0  0  0  0  0  2  0  0  0  0  0  0
  -19.2500  -28.3110   22.9310 C   0  0  0  0  0  0  0  0  0  0  0  0
  -19.0940  -29.4870   23.6980 C   0  0  0  0  0  3  0  0  0  0  0  0
  -17.8140  -29.9810   24.0070 C   0  0  0  0  0  3  0  0  0  0  0  0
  -16.6710  -29.2930   23.5640 C   0  0  0  0  0  3  0  0  0  0  0  0
  -16.8100  -28.1180   22.8050 C   0  0  0  0  0  3  0  0  0  0  0  0
  -25.9510  -31.9190   23.5660 C   0  0  0  0  0  3  0  0  0  0  0  0
  -25.6520  -33.2860   24.0150 N   0  0  0  0  0  0  0  0  0  0  0  0
  -25.9720  -34.3970   23.3380 C   0  0  0  0  0  0  0  0  0  0  0  0
  -26.6180  -34.3760   22.2870 O   0  0  0  0  0  0  0  0  0  0  0  0
  -25.0760  -33.3750   24.8390 H   0  0  0  0  0  0  0  0  0  0  0  0
  -24.2400  -36.2140   23.1760 C   0  0  0  0  0  1  0  0  0  0  0  0
  -25.5020  -35.7440   23.9190 C   0  0  0  0  0  3  0  0  0  0  0  0
  -27.6560  -36.5630   24.7660 C   0  0  0  0  0  1  0  0  0  0  0  0
  -26.5330  -36.8020   23.8630 N   0  0  0  0  0  0  0  0  0  0  0  0
  -26.1320  -37.7090   24.0900 H   0  0  0  0  0  0  0  0  0  0  0  0
  -26.4840  -31.0420   24.7650 C   0  0  1  0  0  0  0  0  0  0  0  0
  -25.4080  -30.7280   25.8310 C   0  0  0  0  0  1  0  0  0  0  0  0
  -27.0450  -29.6960   24.2520 C   0  0  0  0  0  1  0  0  0  0  0  0
  -27.6550  -31.7690   25.4660 C   0  0  0  0  0  1  0  0  0  0  0  0
  1  2  1  0
  3  1  2  0
  4  2  2  0
  5  6  2  0
  5  3  1  0
  6  4  1  0
  8  5  1  0
  8  7  1  0
 10  9  1  0
 10  4  1  0
 10 19  1  0
 11 19  1  0
 12 17  1  0
 13 14  1  0
 13 12  1  0
 15 14  1  0
 15 24  1  0
 15 16  1  0
 17 11  1  0
 17 16  1  0
 18 11  2  0
 19 20  1  0
 21 22  2  0
 22 41  1  0
 23 22  1  0
 23 26  1  0
 24 25  1  0
 24 21  1  0
 25 23  2  0
 26 27  1  0
 27 28  2  0
 29 32  1  0
 29 28  1  0
 30 29  2  0
 31 30  1  0
 31 26  2  0
 32 33  1  0
 33 38  2  0
 33 34  1  0
 34 35  2  0
 35 36  1  0
 36 40  1  0
 37 36  2  0
 38 37  1  0
 39 38  1  0
 41 42  1  0
 42 45  1  0
 42 44  1  0
 43 41  2  0
 46 21  1  0
 46 47  1  0
 48 46  1  0
 49  3  1  0
 50 49  1  0
 50 51  1  0
 52 54  1  0
 52 51  1  0
 53 64  2  0
 54 59  1  0
 55 63  1  0
 55 65  1  0
 56 62  1  0
 56 58  1  0
 57 63  1  0
 58 57  1  0
 59 58  2  0
 60 61  1  0
 60 54  2  0
 61 56  2  0
 62 55  1  0
 63 53  1  0
 65 67  2  0
 66 65  1  0
 68 66  1  0
 69 78  2  0
 69 74  1  0
 70 66  1  0
 70 74  1  0
 71 70  1  0
 72 73  1  0
 72 71  1  0
 73 69  1  0
 74 75  2  0
 75 76  1  0
 77 76  2  0
 78 77  1  0
 79 53  1  0
 79 80  1  0
 79 89  1  0
 80 83  1  0
 81 85  1  0
 81 80  1  0
 82 81  2  0
 85 84  1  0
 87 85  1  0
 87 88  1  0
 87 86  1  0
 89 92  1  1
 89 90  1  0
 91 89  1  0
M  ISO  4  11 100  19 100  51 101  52 101
M  END
>  <TORSDO>  (8) 
F 21

>  <SCORE>  (8) 
-11.190

>  <name>  (8) 
8

>  <ligand_id>  (8) 
8

>  <original_smiles>  (8) 
[H]c1c(C([H])(N([H])C(=O)N2C([H])([H])C([H])([H])C([H])([H])C([H])(n3nc(-c4c([H])c([H])c(Oc5c([H])c([H])c(F)c([H])c5F)c([H])c4[H])c(C(=O)N([H])[H])c3N([H])[H])C2([H])[H])C([H])([H])[H])nc(C([H])([H])C([H])([H])[H])c(C([H])([H])C([H])([H])C([H])([H])Oc2c([H])c([H])c3c(c2[H])C([H])([H])N(C(=O)C([H])(N([H])C(=O)C([H])(N([H])C([H])([H])[H])C([H])([H])[H])C(C([H])([H])[H])(C([H])([H])[H])C([H])([H])[H])C([H])(C(=O)N([H])C2([H])c4c([H])c([H])c([H])c([H])c4C([H])([H])C([H])([H])C2([H])[H])C3([H])[H])c1[H]

>  <smiles>  (8) 
[H]c1c(C([H])(N([H])C(=O)N2C([H])([H])C([H])([H])C([H])([H])C([H])(n3nc(-c4c([H])c([H])c(Oc5c([H])c([H])c(F)c([H])c5F)c([H])c4[H])c(C(=O)N([H])[H])c3N([H])[H])C2([H])[H])C([H])([H])[H])nc(C([H])([H])C([H])([H])[H])c(C([H])([H])C([H])([H])C([H])([H])Oc2c([H])c([H])c3c(c2[H])C([H])([H])N(C(=O)C([H])(N([H])C(=O)C([H])(N([H])C([H])([H])[H])C([H])([H])[H])C(C([H])([H])[H])(C([H])([H])[H])C([H])([H])[H])C([H])(C(=O)N([H])C2([H])c4c([H])c([H])c([H])c([H])c4C([H])([H])C([H])([H])C2([H])[H])C3([H])[H])c1[H]

$$$$
9:0:0
     RDKit          3D

 91 99  0  0  1  0  0  0  0  0999 V2000
  -30.3970  -20.8320   20.4660 C   0  0  0  0  0  3  0  0  0  0  0  0
  -29.1610  -21.1640   19.8750 C   0  0  0  0  0  0  0  0  0  0  0  0
  -28.3530  -20.0250   19.6020 C   0  0  0  0  0  0  0  0  0  0  0  0
  -29.9990  -18.5420   20.2940 C   0  0  0  0  0  0  0  0  0  0  0  0
  -26.9760  -20.1420   18.9790 C   0  0  0  0  0  1  0  0  0  0  0  0
  -30.7980  -19.5490   20.6620 N   0  0  0  0  0  0  0  0  0  0  0  0
  -28.7760  -18.7460   19.8040 N   0  0  0  0  0  0  0  0  0  0  0  0
  -31.1760  -17.1780   18.5630 C   0  0  0  0  0  1  0  0  0  0  0  0
  -30.6980  -17.1630   20.0360 C   0  0  0  0  0  3  0  0  0  0  0  0
  -30.6770  -14.6520   20.3160 C   0  0  0  0  0  0  0  0  0  0  0  0
  -30.3370  -12.4400   19.2690 C   0  0  0  0  0  2  0  0  0  0  0  0
  -29.4030  -12.5830   18.0510 C   0  0  0  0  0  2  0  0  0  0  0  0
  -27.9360  -12.4400   18.4920 C   0  0  0  0  0  2  0  0  0  0  0  0
  -27.5860  -13.3140   19.7280 C   0  0  0  0  0  3  0  0  0  0  0  0
  -28.6530  -13.2050   20.8410 C   0  0  0  0  0  2  0  0  0  0  0  0
  -29.9540  -13.4940   20.2300 N   0  0  0  0  0  0  0  0  0  0  0  0
  -31.8840  -14.6440   20.0810 O   0  0  0  0  0  0  0  0  0  0  0  0
  -30.0210  -15.8540   20.3610 N   0  0  0  0  0  0  0  0  0  0  0  0
  -29.0210  -15.8800   20.4780 H   0  0  0  0  0  0  0  0  0  0  0  0
  -25.2000  -13.9070   20.4570 C   0  0  0  0  0  0  0  0  0  0  0  0
  -24.1320  -13.1340   20.8260 C   0  0  0  0  0  0  0  0  0  0  0  0
  -24.5950  -11.7830   20.8020 C   0  0  0  0  0  0  0  0  0  0  0  0
  -26.2430  -13.0270   20.2250 N   0  0  0  0  0  0  0  0  0  0  0  0
  -25.8860  -11.7450   20.4950 N   0  0  0  0  0  0  0  0  0  0  0  0
  -23.8660  -10.5220   20.9980 C   0  0  0  0  0  0  0  0  0  0  0  0
  -24.2920   -9.5610   21.9410 C   0  0  0  0  0  3  0  0  0  0  0  0
  -23.5650   -8.3650   22.1240 C   0  0  0  0  0  3  0  0  0  0  0  0
  -22.3960   -8.1210   21.3630 C   0  0  0  0  0  0  0  0  0  0  0  0
  -21.9900   -9.0710   20.4090 C   0  0  0  0  0  3  0  0  0  0  0  0
  -22.7180  -10.2580   20.2250 C   0  0  0  0  0  3  0  0  0  0  0  0
  -21.6430   -6.9760   21.4530 O   0  0  0  0  0  0  0  0  0  0  0  0
  -21.5830   -6.2420   22.6110 C   0  0  0  0  0  0  0  0  0  0  0  0
  -21.1430   -6.8060   23.8270 C   0  0  0  0  0  3  0  0  0  0  0  0
  -21.0300   -5.9990   24.9770 C   0  0  0  0  0  3  0  0  0  0  0  0
  -21.3490   -4.6300   24.9110 C   0  0  0  0  0  0  0  0  0  0  0  0
  -21.7860   -4.0660   23.6980 C   0  0  0  0  0  3  0  0  0  0  0  0
  -21.8990   -4.8700   22.5510 C   0  0  0  0  0  0  0  0  0  0  0  0
  -22.2980   -4.3170   21.3810 F   0  0  0  0  0  0  0  0  0  0  0  0
  -21.2350   -3.8520   26.0130 F   0  0  0  0  0  0  0  0  0  0  0  0
  -22.7350  -13.6140   21.0930 C   0  0  0  0  0  0  0  0  0  0  0  0
  -22.0030  -12.9190   21.9570 N   0  0  0  0  0  0  0  0  0  0  0  0
  -22.2990  -14.6390   20.5700 O   0  0  0  0  0  0  0  0  0  0  0  0
  -22.3700  -12.0920   22.4020 H   0  0  0  0  0  0  0  0  0  0  0  0
  -21.0660  -13.2210   22.1780 H   0  0  0  0  0  0  0  0  0  0  0  0
  -25.3620  -15.2760   20.2800 N   0  0  0  0  0  0  0  0  0  0  0  0
  -24.5950  -15.9280   20.4050 H   0  0  0  0  0  0  0  0  0  0  0  0
  -26.2120  -15.7240   19.9590 H   0  0  0  0  0  0  0  0  0  0  0  0
  -28.8220  -22.6190   19.3610 C   0  0  0  0  0  2  0  0  0  0  0  0
  -28.7980  -23.9070   20.2930 C   0  0  0  0  0  2  0  0  0  0  0  0
  -28.5370  -25.2690   19.5020 C   0  0  0  0  0  2  0  0  0  0  0  0
  -28.4120  -26.5610   20.2140 O   0  0  0  0  0  0  0  0  0  0  0  0
  -24.6090  -31.8860   23.2490 C   0  0  0  0  0  0  0  0  0  0  0  0
  -27.2560  -27.3580   20.1630 C   0  0  0  0  0  0  0  0  0  0  0  0
  -23.4150  -30.4870   21.6030 C   0  0  0  0  0  3  0  0  0  0  0  0
  -24.8760  -28.9550   20.1730 C   0  0  0  0  0  0  0  0  0  0  0  0
  -25.9550  -30.8180   21.4270 C   0  0  0  0  0  2  0  0  0  0  0  0
  -26.0420  -29.4450   20.7730 C   0  0  0  0  0  0  0  0  0  0  0  0
  -27.2290  -28.6560   20.7640 C   0  0  0  0  0  3  0  0  0  0  0  0
  -26.0530  -26.9130   19.5630 C   0  0  0  0  0  3  0  0  0  0  0  0
  -24.8840  -27.6930   19.5640 C   0  0  0  0  0  3  0  0  0  0  0  0
  -23.6340  -29.8190   20.2210 C   0  0  0  0  0  2  0  0  0  0  0  0
  -24.6780  -31.0800   22.1490 N   0  0  0  0  0  0  0  0  0  0  0  0
  -23.5230  -32.1580   23.7810 O   0  0  0  0  0  0  0  0  0  0  0  0
  -22.7550  -29.4620   22.5570 C   0  0  0  0  0  0  0  0  0  0  0  0
  -21.4300  -29.2820   22.4280 N   0  0  0  0  0  0  0  0  0  0  0  0
  -23.4370  -28.8290   23.3680 O   0  0  0  0  0  0  0  0  0  0  0  0
  -20.9380  -29.8430   21.7480 H   0  0  0  0  0  0  0  0  0  0  0  0
  -18.0510  -28.0880   22.9280 C   0  0  0  0  0  0  0  0  0  0  0  0
  -20.6120  -28.3400   23.1940 C   0  0  0  0  0  3  0  0  0  0  0  0
  -20.7100  -26.9130   22.6060 C   0  0  0  0  0  2  0  0  0  0  0  0
  -19.6040  -26.6010   21.5930 C   0  0  0  0  0  2  0  0  0  0  0  0
  -18.2230  -26.7440   22.2400 C   0  0  0  0  0  2  0  0  0  0  0  0
  -19.1740  -28.8450   23.3600 C   0  0  0  0  0  0  0  0  0  0  0  0
  -18.9590  -30.1040   23.9610 C   0  0  0  0  0  3  0  0  0  0  0  0
  -17.6560  -30.6090   24.1300 C   0  0  0  0  0  3  0  0  0  0  0  0
  -16.5490  -29.8490   23.7150 C   0  0  0  0  0  3  0  0  0  0  0  0
  -16.7470  -28.5900   23.1200 C   0  0  0  0  0  3  0  0  0  0  0  0
  -25.8890  -32.5200   23.8760 C   0  0  0  0  0  3  0  0  0  0  0  0
  -26.3930  -31.7560   25.1600 C   0  0  1  0  0  0  0  0  0  0  0  0
  -25.2910  -31.5290   26.2210 C   0  0  0  0  0  1  0  0  0  0  0  0
  -26.9760  -30.3730   24.7850 C   0  0  0  0  0  1  0  0  0  0  0  0
  -27.5420  -32.5520   25.8210 C   0  0  0  0  0  1  0  0  0  0  0  0
  -25.5790  -33.9220   24.1920 N   0  0  0  0  0  0  0  0  0  0  0  0
  -25.9240  -34.9680   23.4300 C   0  0  0  0  0  0  0  0  0  0  0  0
  -26.6080  -34.8550   22.4090 O   0  0  0  0  0  0  0  0  0  0  0  0
  -24.9710  -34.0850   24.9820 H   0  0  0  0  0  0  0  0  0  0  0  0
  -24.2120  -36.7670   23.0370 C   0  0  0  0  0  1  0  0  0  0  0  0
  -25.4360  -36.3620   23.8720 C   0  0  0  0  0  3  0  0  0  0  0  0
  -27.5600  -37.2400   24.7370 C   0  0  0  0  0  1  0  0  0  0  0  0
  -26.4770  -37.4090   23.7710 N   0  0  0  0  0  0  0  0  0  0  0  0
  -26.0740  -38.3330   23.9070 H   0  0  0  0  0  0  0  0  0  0  0  0
  1  6  1  0
  2  1  2  0
  3  7  2  0
  3  2  1  0
  4  6  2  0
  5  3  1  0
  7  4  1  0
  9  8  1  0
  9  4  1  0
  9 18  1  0
 10 18  1  0
 11 16  1  0
 12 13  1  0
 12 11  1  0
 14 13  1  0
 14 23  1  0
 14 15  1  0
 16 10  1  0
 16 15  1  0
 17 10  2  0
 18 19  1  0
 20 21  2  0
 21 40  1  0
 22 21  1  0
 22 25  1  0
 23 20  1  0
 23 24  1  0
 24 22  2  0
 25 26  1  0
 26 27  2  0
 28 31  1  0
 28 27  1  0
 29 28  2  0
 30 29  1  0
 30 25  2  0
 31 32  1  0
 32 33  1  0
 33 34  2  0
 35 34  1  0
 35 39  1  0
 36 35  2  0
 37 32  2  0
 37 36  1  0
 38 37  1  0
 40 41  1  0
 41 44  1  0
 41 43  1  0
 42 40  2  0
 45 46  1  0
 45 20  1  0
 47 45  1  0
 48  2  1  0
 48 49  1  0
 50 51  1  0
 50 49  1  0
 52 63  2  0
 53 51  1  0
 53 58  1  0
 54 62  1  0
 54 64  1  0
 55 61  1  0
 55 57  1  0
 56 62  1  0
 57 56  1  0
 58 57  2  0
 59 60  1  0
 59 53  2  0
 60 55  2  0
 61 54  1  0
 62 52  1  0
 64 66  2  0
 65 64  1  0
 67 65  1  0
 68 77  2  0
 68 73  1  0
 69 65  1  0
 69 73  1  0
 70 69  1  0
 71 72  1  0
 71 70  1  0
 72 68  1  0
 73 74  2  0
 74 75  1  0
 76 75  2  0
 77 76  1  0
 78 52  1  0
 78 83  1  0
 78 79  1  0
 79 82  1  1
 79 80  1  0
 81 79  1  0
 83 86  1  0
 84 88  1  0
 84 83  1  0
 85 84  2  0
 88 87  1  0
 90 88  1  0
 90 91  1  0
 90 89  1  0
M  ISO  4  10 100  18 100  50 101  51 101
M  END
>  <TORSDO>  (9) 
F 20

>  <SCORE>  (9) 
-13.870

>  <name>  (9) 
9

>  <ligand_id>  (9) 
9

>  <original_smiles>  (9) 
[H]c1nc(C([H])(N([H])C(=O)N2C([H])([H])C([H])([H])C([H])([H])C([H])(n3nc(-c4c([H])c([H])c(Oc5c([H])c([H])c(F)c([H])c5F)c([H])c4[H])c(C(=O)N([H])[H])c3N([H])[H])C2([H])[H])C([H])([H])[H])nc(C([H])([H])[H])c1C([H])([H])C([H])([H])C([H])([H])Oc1c([H])c([H])c2c(c1[H])C([H])([H])N(C(=O)C([H])(N([H])C(=O)C([H])(N([H])C([H])([H])[H])C([H])([H])[H])C(C([H])([H])[H])(C([H])([H])[H])C([H])([H])[H])C([H])(C(=O)N([H])C1([H])c3c([H])c([H])c([H])c([H])c3C([H])([H])C([H])([H])C1([H])[H])C2([H])[H]

>  <smiles>  (9) 
[H]c1nc(C([H])(N([H])C(=O)N2C([H])([H])C([H])([H])C([H])([H])C([H])(n3nc(-c4c([H])c([H])c(Oc5c([H])c([H])c(F)c([H])c5F)c([H])c4[H])c(C(=O)N([H])[H])c3N([H])[H])C2([H])[H])C([H])([H])[H])nc(C([H])([H])[H])c1C([H])([H])C([H])([H])C([H])([H])Oc1c([H])c([H])c2c(c1[H])C([H])([H])N(C(=O)C([H])(N([H])C(=O)C([H])(N([H])C([H])([H])[H])C([H])([H])[H])C(C([H])([H])[H])(C([H])([H])[H])C([H])([H])[H])C([H])(C(=O)N([H])C1([H])c3c([H])c([H])c([H])c([H])c3C([H])([H])C([H])([H])C1([H])[H])C2([H])[H]

$$$$
10:0:0
     RDKit          3D

 91 99  0  0  1  0  0  0  0  0999 V2000
  -31.3520  -18.3300   20.4420 C   0  0  0  0  0  2  0  0  0  0  0  0
  -28.9400  -19.5160   20.7150 C   0  0  0  0  0  3  0  0  0  0  0  0
  -30.1740  -17.5330   20.3410 C   0  0  0  0  0  3  0  0  0  0  0  0
  -30.1180  -20.3140   20.7110 C   0  0  0  0  0  0  0  0  0  0  0  0
  -28.9720  -18.1570   20.5540 N   0  0  0  0  0  0  0  0  0  0  0  0
  -31.3250  -19.6890   20.6300 N   0  0  0  0  0  0  0  0  0  0  0  0
  -28.8530  -16.0590   18.7700 C   0  0  0  0  0  1  0  0  0  0  0  0
  -30.1610  -16.1360   19.5850 C   0  0  2  0  0  0  0  0  0  0  0  0
  -30.6620  -14.7720   20.3140 C   0  0  0  0  0  0  0  0  0  0  0  0
  -30.4010  -12.4570   19.4750 C   0  0  0  0  0  2  0  0  0  0  0  0
  -29.4810  -12.4240   18.2410 C   0  0  0  0  0  2  0  0  0  0  0  0
  -28.0060  -12.2650   18.6710 C   0  0  0  0  0  2  0  0  0  0  0  0
  -27.5920  -13.2000   19.8370 C   0  0  0  0  0  3  0  0  0  0  0  0
  -28.6640  -13.2930   20.9440 C   0  0  0  0  0  2  0  0  0  0  0  0
  -29.9620  -13.5850   20.3200 N   0  0  0  0  0  0  0  0  0  0  0  0
  -31.8870  -14.7110   20.4290 O   0  0  0  0  0  0  0  0  0  0  0  0
  -25.2200  -13.8190   20.5780 C   0  0  0  0  0  0  0  0  0  0  0  0
  -24.1500  -13.0460   20.9370 C   0  0  0  0  0  0  0  0  0  0  0  0
  -24.6170  -11.6970   20.9160 C   0  0  0  0  0  0  0  0  0  0  0  0
  -26.2610  -12.9290   20.3510 N   0  0  0  0  0  0  0  0  0  0  0  0
  -25.9080  -11.6530   20.6230 N   0  0  0  0  0  0  0  0  0  0  0  0
  -23.8970  -10.4340   21.0970 C   0  0  0  0  0  0  0  0  0  0  0  0
  -24.3410   -9.4650   22.0200 C   0  0  0  0  0  3  0  0  0  0  0  0
  -23.6240   -8.2610   22.1910 C   0  0  0  0  0  3  0  0  0  0  0  0
  -22.4500   -8.0230   21.4370 C   0  0  0  0  0  0  0  0  0  0  0  0
  -22.0270   -8.9830   20.5010 C   0  0  0  0  0  3  0  0  0  0  0  0
  -22.7440  -10.1790   20.3290 C   0  0  0  0  0  3  0  0  0  0  0  0
  -21.7030   -6.8740   21.5180 O   0  0  0  0  0  0  0  0  0  0  0  0
  -21.6750   -6.1160   22.6610 C   0  0  0  0  0  0  0  0  0  0  0  0
  -21.2650   -6.6520   23.9020 C   0  0  0  0  0  3  0  0  0  0  0  0
  -21.1820   -5.8200   25.0350 C   0  0  0  0  0  3  0  0  0  0  0  0
  -21.4990   -4.4520   24.9300 C   0  0  0  0  0  0  0  0  0  0  0  0
  -21.9030   -3.9150   23.6950 C   0  0  0  0  0  3  0  0  0  0  0  0
  -21.9870   -4.7450   22.5630 C   0  0  0  0  0  0  0  0  0  0  0  0
  -22.3550   -4.2190   21.3690 F   0  0  0  0  0  0  0  0  0  0  0  0
  -21.4130   -3.6500   26.0160 F   0  0  0  0  0  0  0  0  0  0  0  0
  -22.7480  -13.5210   21.1900 C   0  0  0  0  0  0  0  0  0  0  0  0
  -22.0130  -12.8240   22.0480 N   0  0  0  0  0  0  0  0  0  0  0  0
  -22.3120  -14.5420   20.6590 O   0  0  0  0  0  0  0  0  0  0  0  0
  -22.3790  -12.0000   22.5010 H   0  0  0  0  0  0  0  0  0  0  0  0
  -21.0710  -13.1220   22.2600 H   0  0  0  0  0  0  0  0  0  0  0  0
  -25.3830  -15.1900   20.4000 N   0  0  0  0  0  0  0  0  0  0  0  0
  -24.6160  -15.8430   20.5200 H   0  0  0  0  0  0  0  0  0  0  0  0
  -26.2420  -15.6430   20.1160 H   0  0  0  0  0  0  0  0  0  0  0  0
  -31.0330  -16.2710   18.4610 O   0  0  0  0  0  0  0  0  0  0  0  0
  -30.7360  -17.0220   17.9650 H   0  0  0  0  0  0  0  0  0  0  0  0
  -30.1870  -21.7180   20.7790 O   0  0  0  0  0  0  0  0  0  0  0  0
  -29.0310  -22.5630   20.5030 C   0  0  0  0  0  2  0  0  0  0  0  0
  -29.3290  -24.1240   20.5560 C   0  0  0  0  0  3  0  0  0  0  0  0
  -28.1520  -25.1000   20.1500 C   0  0  0  0  0  3  0  0  0  0  0  0
  -28.3420  -26.5540   20.3090 O   0  0  0  0  0  0  0  0  0  0  0  0
  -24.5940  -31.9250   23.2860 C   0  0  0  0  0  0  0  0  0  0  0  0
  -27.2070  -27.3750   20.2470 C   0  0  0  0  0  0  0  0  0  0  0  0
  -23.3860  -30.5270   21.6450 C   0  0  0  0  0  3  0  0  0  0  0  0
  -24.8350  -28.9710   20.2280 C   0  0  0  0  0  0  0  0  0  0  0  0
  -25.9240  -30.8470   21.4610 C   0  0  0  0  0  2  0  0  0  0  0  0
  -26.0020  -29.4670   20.8220 C   0  0  0  0  0  0  0  0  0  0  0  0
  -27.1890  -28.6800   20.8240 C   0  0  0  0  0  3  0  0  0  0  0  0
  -26.0150  -26.9270   19.6300 C   0  0  0  0  0  3  0  0  0  0  0  0
  -24.8420  -27.7060   19.6230 C   0  0  0  0  0  3  0  0  0  0  0  0
  -23.6000  -29.8440   20.2680 C   0  0  0  0  0  2  0  0  0  0  0  0
  -24.6540  -31.1160   22.1880 N   0  0  0  0  0  0  0  0  0  0  0  0
  -23.5120  -32.2060   23.8200 O   0  0  0  0  0  0  0  0  0  0  0  0
  -22.7190  -29.5160   22.6070 C   0  0  0  0  0  0  0  0  0  0  0  0
  -21.3940  -29.3390   22.4750 N   0  0  0  0  0  0  0  0  0  0  0  0
  -23.3940  -28.8910   23.4310 O   0  0  0  0  0  0  0  0  0  0  0  0
  -20.9100  -29.8950   21.7840 H   0  0  0  0  0  0  0  0  0  0  0  0
  -18.0120  -28.1550   22.9580 C   0  0  0  0  0  0  0  0  0  0  0  0
  -20.5690  -28.4100   23.2470 C   0  0  0  0  0  3  0  0  0  0  0  0
  -20.6720  -26.9740   22.6810 C   0  0  0  0  0  2  0  0  0  0  0  0
  -19.5780  -26.6480   21.6600 C   0  0  0  0  0  2  0  0  0  0  0  0
  -18.1910  -26.8010   22.2930 C   0  0  0  0  0  2  0  0  0  0  0  0
  -19.1290  -28.9160   23.3920 C   0  0  0  0  0  0  0  0  0  0  0  0
  -18.9080  -30.1850   23.9720 C   0  0  0  0  0  3  0  0  0  0  0  0
  -17.6040  -30.6900   24.1250 C   0  0  0  0  0  3  0  0  0  0  0  0
  -16.5010  -29.9240   23.7070 C   0  0  0  0  0  3  0  0  0  0  0  0
  -16.7060  -28.6590   23.1300 C   0  0  0  0  0  3  0  0  0  0  0  0
  -25.8800  -32.5520   23.9090 C   0  0  0  0  0  3  0  0  0  0  0  0
  -25.5780  -33.9540   24.2300 N   0  0  0  0  0  0  0  0  0  0  0  0
  -25.9070  -34.9990   23.4590 C   0  0  0  0  0  0  0  0  0  0  0  0
  -26.5680  -34.8840   22.4230 O   0  0  0  0  0  0  0  0  0  0  0  0
  -24.9910  -34.1170   25.0360 H   0  0  0  0  0  0  0  0  0  0  0  0
  -24.1770  -36.7920   23.1110 C   0  0  0  0  0  1  0  0  0  0  0  0
  -25.4290  -36.3930   23.9080 C   0  0  0  0  0  3  0  0  0  0  0  0
  -27.5770  -37.2810   24.6990 C   0  0  0  0  0  1  0  0  0  0  0  0
  -26.4620  -37.4420   23.7700 N   0  0  0  0  0  0  0  0  0  0  0  0
  -26.0610  -38.3650   23.9150 H   0  0  0  0  0  0  0  0  0  0  0  0
  -26.3880  -31.7840   25.1910 C   0  0  1  0  0  0  0  0  0  0  0  0
  -25.2900  -31.5630   26.2580 C   0  0  0  0  0  1  0  0  0  0  0  0
  -26.9600  -30.3990   24.8090 C   0  0  0  0  0  1  0  0  0  0  0  0
  -27.5420  -32.5730   25.8520 C   0  0  0  0  0  1  0  0  0  0  0  0
  1  6  1  0
  3  8  1  0
  3  1  1  0
  3  5  1  0
  4  2  1  0
  4 47  1  0
  5  2  2  0
  6  4  2  0
  8  7  1  6
  8  9  1  0
  9 15  1  0
  9 16  2  0
 10 15  1  0
 11 12  1  0
 11 10  1  0
 13 12  1  0
 13 20  1  0
 13 14  1  0
 15 14  1  0
 17 18  2  0
 18 37  1  0
 19 18  1  0
 19 22  1  0
 20 17  1  0
 20 21  1  0
 21 19  2  0
 22 23  1  0
 23 24  2  0
 25 28  1  0
 25 24  1  0
 26 25  2  0
 27 26  1  0
 27 22  2  0
 28 29  1  0
 29 30  1  0
 30 31  2  0
 32 31  1  0
 32 36  1  0
 33 32  2  0
 34 29  2  0
 34 33  1  0
 35 34  1  0
 37 38  1  0
 38 41  1  0
 38 40  1  0
 39 37  2  0
 42 43  1  0
 42 17  1  0
 44 42  1  0
 45  8  1  0
 46 45  1  0
 48 49  1  0
 48 47  1  0
 50 51  1  0
 50 49  2  0
 52 63  2  0
 53 51  1  0
 53 58  1  0
 54 62  1  0
 54 64  1  0
 55 61  1  0
 55 57  1  0
 56 62  1  0
 57 58  2  0
 57 56  1  0
 59 53  2  0
 60 59  1  0
 60 55  2  0
 61 54  1  0
 62 52  1  0
 64 66  2  0
 65 64  1  0
 67 65  1  0
 68 77  2  0
 68 73  1  0
 69 65  1  0
 69 73  1  0
 70 69  1  0
 71 72  1  0
 71 70  1  0
 72 68  1  0
 73 74  2  0
 74 75  1  0
 76 75  2  0
 77 76  1  0
 78 52  1  0
 78 79  1  0
 78 88  1  0
 79 82  1  0
 80 84  1  0
 80 79  1  0
 81 80  2  0
 84 83  1  0
 86 84  1  0
 86 87  1  0
 86 85  1  0
 88 91  1  1
 88 89  1  0
 90 88  1  0
M  ISO  4   8 100   9 100  50 101  51 101
M  END
>  <TORSDO>  (10) 
F 22

>  <SCORE>  (10) 
-13.253

>  <name>  (10) 
10

>  <ligand_id>  (10) 
10

>  <original_smiles>  (10) 
[H]OC(C(=O)N1C([H])([H])C([H])([H])C([H])([H])C([H])(n2nc(-c3c([H])c([H])c(Oc4c([H])c([H])c(F)c([H])c4F)c([H])c3[H])c(C(=O)N([H])[H])c2N([H])[H])C1([H])[H])(c1nc([H])c(OC([H])([H])C([H])([H])C([H])([H])Oc2c([H])c([H])c3c(c2[H])C([H])([H])N(C(=O)C([H])(N([H])C(=O)C([H])(N([H])C([H])([H])[H])C([H])([H])[H])C(C([H])([H])[H])(C([H])([H])[H])C([H])([H])[H])C([H])(C(=O)N([H])C2([H])c4c([H])c([H])c([H])c([H])c4C([H])([H])C([H])([H])C2([H])[H])C3([H])[H])nc1[H])C([H])([H])[H]

>  <smiles>  (10) 
[H]OC(C(=O)N1C([H])([H])C([H])([H])C([H])([H])C([H])(n2nc(-c3c([H])c([H])c(Oc4c([H])c([H])c(F)c([H])c4F)c([H])c3[H])c(C(=O)N([H])[H])c2N([H])[H])C1([H])[H])(c1nc([H])c(OC([H])([H])C([H])([H])C([H])([H])Oc2c([H])c([H])c3c(c2[H])C([H])([H])N(C(=O)C([H])(N([H])C(=O)C([H])(N([H])C([H])([H])[H])C([H])([H])[H])C(C([H])([H])[H])(C([H])([H])[H])C([H])([H])[H])C([H])(C(=O)N([H])C2([H])c4c([H])c([H])c([H])c([H])c4C([H])([H])C([H])([H])C2([H])[H])C3([H])[H])nc1[H])C([H])([H])[H]

$$$$
11:0:0
     RDKit          3D

 95103  0  0  1  0  0  0  0  0999 V2000
  -28.3310  -20.1790   19.6310 C   0  0  0  0  0  3  0  0  0  0  0  0
  -28.7350  -18.8440   19.7220 C   0  0  0  0  0  3  0  0  0  0  0  0
  -28.6870  -21.0690   20.6690 C   0  0  0  0  0  0  0  0  0  0  0  0
  -29.5070  -18.4470   20.8340 C   0  0  0  0  0  0  0  0  0  0  0  0
  -29.4660  -20.6370   21.7030 N   0  0  0  0  0  0  0  0  0  0  0  0
  -29.8630  -19.3580   21.7860 N   0  0  0  0  0  0  0  0  0  0  0  0
  -27.3420  -22.8640   19.4490 C   0  0  0  0  0  1  0  0  0  0  0  0
  -27.0980  -22.6230   21.8640 C   0  0  0  0  0  1  0  0  0  0  0  0
  -28.1440  -22.5270   20.7280 C   0  0  1  0  0  0  0  0  0  0  0  0
  -29.2980  -23.5710   20.9930 C   0  0  0  0  0  2  0  0  0  0  0  0
  -29.4160  -24.8390   20.0880 C   0  0  0  0  0  2  0  0  0  0  0  0
  -28.5390  -26.0450   20.4970 C   0  0  0  0  0  2  0  0  0  0  0  0
  -28.5510  -27.1180   19.5290 O   0  0  0  0  0  0  0  0  0  0  0  0
  -24.5850  -31.6880   23.2290 C   0  0  0  0  0  0  0  0  0  0  0  0
  -27.3890  -27.8520   19.5690 C   0  0  0  0  0  0  0  0  0  0  0  0
  -23.4180  -30.4210   21.4550 C   0  0  0  0  0  3  0  0  0  0  0  0
  -24.9180  -29.1870   19.8060 C   0  0  0  0  0  0  0  0  0  0  0  0
  -25.9040  -30.9910   21.2280 C   0  0  0  0  0  2  0  0  0  0  0  0
  -26.0600  -29.7190   20.4180 C   0  0  0  0  0  0  0  0  0  0  0  0
  -27.3070  -29.0630   20.2900 C   0  0  0  0  0  3  0  0  0  0  0  0
  -26.2390  -27.3420   18.9330 C   0  0  0  0  0  3  0  0  0  0  0  0
  -25.0040  -28.0040   19.0500 C   0  0  0  0  0  3  0  0  0  0  0  0
  -23.6210  -29.9430   19.9920 C   0  0  0  0  0  2  0  0  0  0  0  0
  -24.6560  -31.0420   22.0310 N   0  0  0  0  0  0  0  0  0  0  0  0
  -23.5070  -31.8100   23.8270 O   0  0  0  0  0  0  0  0  0  0  0  0
  -22.8700  -29.2470   22.2960 C   0  0  0  0  0  0  0  0  0  0  0  0
  -21.5610  -28.9690   22.1640 N   0  0  0  0  0  0  0  0  0  0  0  0
  -23.6150  -28.5880   23.0260 O   0  0  0  0  0  0  0  0  0  0  0  0
  -21.0140  -29.5760   21.5690 H   0  0  0  0  0  0  0  0  0  0  0  0
  -18.3360  -27.3500   22.4150 C   0  0  0  0  0  0  0  0  0  0  0  0
  -20.8370  -27.8800   22.8170 C   0  0  0  0  0  3  0  0  0  0  0  0
  -21.1280  -26.5250   22.1280 C   0  0  0  0  0  2  0  0  0  0  0  0
  -20.0990  -26.1610   21.0560 C   0  0  0  0  0  2  0  0  0  0  0  0
  -18.6930  -26.0840   21.6590 C   0  0  0  0  0  2  0  0  0  0  0  0
  -19.3410  -28.2020   22.9460 C   0  0  0  0  0  0  0  0  0  0  0  0
  -18.9500  -29.3790   23.6200 C   0  0  0  0  0  3  0  0  0  0  0  0
  -17.5900  -29.7070   23.7620 C   0  0  0  0  0  3  0  0  0  0  0  0
  -16.6000  -28.8550   23.2420 C   0  0  0  0  0  3  0  0  0  0  0  0
  -16.9740  -27.6760   22.5760 C   0  0  0  0  0  3  0  0  0  0  0  0
  -25.8450  -32.3260   23.8890 C   0  0  0  0  0  3  0  0  0  0  0  0
  -25.4850  -33.6860   24.3100 N   0  0  0  0  0  0  0  0  0  0  0  0
  -25.7920  -34.7990   23.6280 C   0  0  0  0  0  0  0  0  0  0  0  0
  -26.4710  -34.7840   22.5970 O   0  0  0  0  0  0  0  0  0  0  0  0
  -24.8810  -33.7680   25.1130 H   0  0  0  0  0  0  0  0  0  0  0  0
  -24.0000  -36.5510   23.3810 C   0  0  0  0  0  1  0  0  0  0  0  0
  -25.2540  -36.1380   24.1700 C   0  0  0  0  0  3  0  0  0  0  0  0
  -27.3530  -37.0430   25.0670 C   0  0  0  0  0  1  0  0  0  0  0  0
  -26.2480  -37.2320   24.1320 N   0  0  0  0  0  0  0  0  0  0  0  0
  -25.8100  -38.1250   24.3360 H   0  0  0  0  0  0  0  0  0  0  0  0
  -26.3950  -31.4920   25.1120 C   0  0  1  0  0  0  0  0  0  0  0  0
  -25.3210  -31.1540   26.1720 C   0  0  0  0  0  1  0  0  0  0  0  0
  -27.0090  -30.1600   24.6220 C   0  0  0  0  0  1  0  0  0  0  0  0
  -27.5290  -32.2770   25.8150 C   0  0  0  0  0  1  0  0  0  0  0  0
  -29.8780  -16.9720   21.0520 C   0  0  1  0  0  0  0  0  0  0  0  0
  -30.4350  -16.8410   22.2590 F   0  0  0  0  0  0  0  0  0  0  0  0
  -28.7140  -16.3470   21.0930 F   0  0  0  0  0  0  0  0  0  0  0  0
  -30.2780  -16.2720   18.5520 C   0  0  0  0  0  1  0  0  0  0  0  0
  -32.1040  -17.2240   19.8960 C   0  0  0  0  0  1  0  0  0  0  0  0
  -30.8400  -16.3090   19.9990 C   0  0  1  0  0  0  0  0  0  0  0  0
  -31.3250  -14.8370   20.3110 C   0  0  0  0  0  0  0  0  0  0  0  0
  -30.9170  -12.6040   19.3980 C   0  0  0  0  0  2  0  0  0  0  0  0
  -30.0210  -12.6950   18.1470 C   0  0  0  0  0  2  0  0  0  0  0  0
  -28.5370  -12.6010   18.5400 C   0  0  0  0  0  2  0  0  0  0  0  0
  -28.1650  -13.5500   19.7090 C   0  0  0  0  0  3  0  0  0  0  0  0
  -29.2050  -13.5000   20.8560 C   0  0  0  0  0  2  0  0  0  0  0  0
  -30.5390  -13.7210   20.2840 N   0  0  0  0  0  0  0  0  0  0  0  0
  -32.5400  -14.7070   20.1890 O   0  0  0  0  0  0  0  0  0  0  0  0
  -25.7780  -14.2120   20.4050 C   0  0  0  0  0  0  0  0  0  0  0  0
  -24.6840  -13.4660   20.7440 C   0  0  0  0  0  0  0  0  0  0  0  0
  -25.1100  -12.1050   20.7080 C   0  0  0  0  0  0  0  0  0  0  0  0
  -26.8060  -13.3060   20.1850 N   0  0  0  0  0  0  0  0  0  0  0  0
  -26.4070  -12.0320   20.4320 N   0  0  0  0  0  0  0  0  0  0  0  0
  -24.3450  -10.8610   20.8590 C   0  0  0  0  0  0  0  0  0  0  0  0
  -24.7080   -9.8840   21.8110 C   0  0  0  0  0  3  0  0  0  0  0  0
  -23.9450   -8.7060   21.9540 C   0  0  0  0  0  3  0  0  0  0  0  0
  -22.8050   -8.4930   21.1390 C   0  0  0  0  0  0  0  0  0  0  0  0
  -22.4650   -9.4590   20.1750 C   0  0  0  0  0  3  0  0  0  0  0  0
  -23.2300  -10.6280   20.0320 C   0  0  0  0  0  3  0  0  0  0  0  0
  -22.0190   -7.3670   21.1890 O   0  0  0  0  0  0  0  0  0  0  0  0
  -21.8340   -6.6660   22.3530 C   0  0  0  0  0  0  0  0  0  0  0  0
  -21.3010   -7.2720   23.5130 C   0  0  0  0  0  3  0  0  0  0  0  0
  -21.0720   -6.4980   24.6680 C   0  0  0  0  0  3  0  0  0  0  0  0
  -21.3610   -5.1200   24.6640 C   0  0  0  0  0  0  0  0  0  0  0  0
  -21.8880   -4.5160   23.5080 C   0  0  0  0  0  3  0  0  0  0  0  0
  -22.1240   -5.2870   22.3570 C   0  0  0  0  0  0  0  0  0  0  0  0
  -22.6120   -4.6930   21.2420 F   0  0  0  0  0  0  0  0  0  0  0  0
  -21.1310   -4.3780   25.7710 F   0  0  0  0  0  0  0  0  0  0  0  0
  -23.2950  -13.9750   20.9950 C   0  0  0  0  0  0  0  0  0  0  0  0
  -22.5390  -13.2980   21.8520 N   0  0  0  0  0  0  0  0  0  0  0  0
  -22.8900  -15.0110   20.4620 O   0  0  0  0  0  0  0  0  0  0  0  0
  -22.8750  -12.4630   22.3060 H   0  0  0  0  0  0  0  0  0  0  0  0
  -21.6080  -13.6230   22.0680 H   0  0  0  0  0  0  0  0  0  0  0  0
  -25.9750  -15.5790   20.2520 N   0  0  0  0  0  0  0  0  0  0  0  0
  -25.2370  -16.2620   20.3880 H   0  0  0  0  0  0  0  0  0  0  0  0
  -26.8890  -15.9950   20.1210 H   0  0  0  0  0  0  0  0  0  0  0  0
  1  2  2  0
  1  3  1  0
  2  4  1  0
  3  9  1  0
  3  5  2  0
  4 54  1  0
  4  6  2  0
  5  6  1  0
  9  7  1  6
  9 10  1  0
  9  8  1  0
 11 12  1  0
 11 10  1  0
 13 15  1  0
 13 12  1  0
 14 25  2  0
 15 20  1  0
 16 24  1  0
 16 26  1  0
 17 23  1  0
 17 19  1  0
 18 24  1  0
 19 18  1  0
 20 19  2  0
 21 22  1  0
 21 15  2  0
 22 17  2  0
 23 16  1  0
 24 14  1  0
 26 28  2  0
 27 26  1  0
 29 27  1  0
 30 39  2  0
 30 35  1  0
 31 27  1  0
 31 35  1  0
 32 31  1  0
 33 34  1  0
 33 32  1  0
 34 30  1  0
 35 36  2  0
 36 37  1  0
 38 37  2  0
 39 38  1  0
 40 14  1  0
 40 41  1  0
 40 50  1  0
 41 44  1  0
 42 46  1  0
 42 41  1  0
 43 42  2  0
 46 45  1  0
 48 46  1  0
 48 49  1  0
 48 47  1  0
 50 53  1  1
 50 51  1  0
 52 50  1  0
 54 56  1  1
 54 55  1  0
 59 57  1  6
 58 59  1  0
 59 60  1  0
 59 54  1  0
 61 66  1  0
 62 63  1  0
 62 61  1  0
 64 63  1  0
 64 71  1  0
 64 65  1  0
 66 60  1  0
 66 65  1  0
 67 60  2  0
 68 69  2  0
 69 88  1  0
 70 69  1  0
 70 73  1  0
 71 68  1  0
 71 72  1  0
 72 70  2  0
 73 74  1  0
 74 75  2  0
 76 79  1  0
 76 75  1  0
 77 76  2  0
 78 77  1  0
 78 73  2  0
 79 80  1  0
 80 85  2  0
 80 81  1  0
 81 82  2  0
 83 82  1  0
 83 87  1  0
 84 83  2  0
 85 84  1  0
 86 85  1  0
 88 89  1  0
 89 92  1  0
 89 91  1  0
 90 88  2  0
 93 94  1  0
 93 68  1  0
 95 93  1  0
M  ISO  4  12 101  13 101  59 100  60 100
M  END
>  <TORSDO>  (11) 
F 22

>  <SCORE>  (11) 
-11.509

>  <name>  (11) 
11

>  <ligand_id>  (11) 
11

>  <original_smiles>  (11) 
[H]c1c(C(F)(F)C(C(=O)N2C([H])([H])C([H])([H])C([H])([H])C([H])(n3nc(-c4c([H])c([H])c(Oc5c([H])c([H])c(F)c([H])c5F)c([H])c4[H])c(C(=O)N([H])[H])c3N([H])[H])C2([H])[H])(C([H])([H])[H])C([H])([H])[H])nnc(C(C([H])([H])[H])(C([H])([H])[H])C([H])([H])C([H])([H])C([H])([H])Oc2c([H])c([H])c3c(c2[H])C([H])([H])N(C(=O)C([H])(N([H])C(=O)C([H])(N([H])C([H])([H])[H])C([H])([H])[H])C(C([H])([H])[H])(C([H])([H])[H])C([H])([H])[H])C([H])(C(=O)N([H])C2([H])c4c([H])c([H])c([H])c([H])c4C([H])([H])C([H])([H])C2([H])[H])C3([H])[H])c1[H]

>  <smiles>  (11) 
[H]c1c(C(F)(F)C(C(=O)N2C([H])([H])C([H])([H])C([H])([H])C([H])(n3nc(-c4c([H])c([H])c(Oc5c([H])c([H])c(F)c([H])c5F)c([H])c4[H])c(C(=O)N([H])[H])c3N([H])[H])C2([H])[H])(C([H])([H])[H])C([H])([H])[H])nnc(C(C([H])([H])[H])(C([H])([H])[H])C([H])([H])C([H])([H])C([H])([H])Oc2c([H])c([H])c3c(c2[H])C([H])([H])N(C(=O)C([H])(N([H])C(=O)C([H])(N([H])C([H])([H])[H])C([H])([H])[H])C(C([H])([H])[H])(C([H])([H])[H])C([H])([H])[H])C([H])(C(=O)N([H])C2([H])c4c([H])c([H])c([H])c([H])c4C([H])([H])C([H])([H])C2([H])[H])C3([H])[H])c1[H]

$$$$
12:0:0
     RDKit          3D

 94102  0  0  1  0  0  0  0  0999 V2000
  -28.3330  -21.1510   20.5380 C   0  0  0  0  0  3  0  0  0  0  0  0
  -29.5240  -21.8960   20.6090 C   0  0  0  0  0  0  0  0  0  0  0  0
  -30.7050  -21.1140   20.6460 C   0  0  0  0  0  0  0  0  0  0  0  0
  -29.4910  -19.1590   20.6300 C   0  0  0  0  0  0  0  0  0  0  0  0
  -28.3300  -19.8060   20.5280 N   0  0  0  0  0  0  0  0  0  0  0  0
  -30.6670  -19.7680   20.6710 N   0  0  0  0  0  0  0  0  0  0  0  0
  -29.7570  -17.4220   18.8500 C   0  0  0  0  0  1  0  0  0  0  0  0
  -28.0960  -17.0510   20.7130 C   0  0  0  0  0  1  0  0  0  0  0  0
  -29.4880  -17.6270   20.3550 C   0  0  2  0  0  0  0  0  0  0  0  0
  -30.5490  -16.8270   21.2040 C   0  0  0  0  0  2  0  0  0  0  0  0
  -30.9270  -14.4710   20.3150 C   0  0  0  0  0  0  0  0  0  0  0  0
  -30.5650  -12.3610   19.0780 C   0  0  0  0  0  2  0  0  0  0  0  0
  -29.5840  -12.5940   17.9100 C   0  0  0  0  0  2  0  0  0  0  0  0
  -28.1240  -12.4360   18.3780 C   0  0  0  0  0  2  0  0  0  0  0  0
  -27.8240  -13.2670   19.6540 C   0  0  0  0  0  3  0  0  0  0  0  0
  -28.9060  -13.0050   20.7300 C   0  0  0  0  0  2  0  0  0  0  0  0
  -30.2320  -13.3090   20.1520 N   0  0  0  0  0  0  0  0  0  0  0  0
  -31.9540  -14.7380   19.6850 O   0  0  0  0  0  0  0  0  0  0  0  0
  -30.3590  -15.3560   21.1530 N   0  0  0  0  0  0  0  0  0  0  0  0
  -29.5980  -14.9910   21.7030 H   0  0  0  0  0  0  0  0  0  0  0  0
  -25.4430  -13.8990   20.4280 C   0  0  0  0  0  0  0  0  0  0  0  0
  -24.3810  -13.1420   20.8390 C   0  0  0  0  0  0  0  0  0  0  0  0
  -24.8240  -11.7850   20.7800 C   0  0  0  0  0  0  0  0  0  0  0  0
  -26.4760  -13.0100   20.1660 N   0  0  0  0  0  0  0  0  0  0  0  0
  -26.1040  -11.7310   20.4300 N   0  0  0  0  0  0  0  0  0  0  0  0
  -24.0860  -10.5320   20.9790 C   0  0  0  0  0  0  0  0  0  0  0  0
  -24.5140   -9.5650   21.9140 C   0  0  0  0  0  3  0  0  0  0  0  0
  -23.7790   -8.3750   22.0990 C   0  0  0  0  0  3  0  0  0  0  0  0
  -22.6020   -8.1450   21.3490 C   0  0  0  0  0  0  0  0  0  0  0  0
  -22.1910   -9.1020   20.4040 C   0  0  0  0  0  3  0  0  0  0  0  0
  -22.9270  -10.2820   20.2170 C   0  0  0  0  0  3  0  0  0  0  0  0
  -21.8370   -7.0080   21.4440 O   0  0  0  0  0  0  0  0  0  0  0  0
  -21.7620   -6.2870   22.6080 C   0  0  0  0  0  0  0  0  0  0  0  0
  -21.2950   -6.8590   23.8110 C   0  0  0  0  0  3  0  0  0  0  0  0
  -21.1660   -6.0620   24.9660 C   0  0  0  0  0  3  0  0  0  0  0  0
  -21.4980   -4.6950   24.9200 C   0  0  0  0  0  0  0  0  0  0  0  0
  -21.9570   -4.1220   23.7210 C   0  0  0  0  0  3  0  0  0  0  0  0
  -22.0870   -4.9160   22.5680 C   0  0  0  0  0  0  0  0  0  0  0  0
  -22.5100   -4.3530   21.4100 F   0  0  0  0  0  0  0  0  0  0  0  0
  -21.3660   -3.9280   26.0270 F   0  0  0  0  0  0  0  0  0  0  0  0
  -23.0010  -13.6400   21.1650 C   0  0  0  0  0  0  0  0  0  0  0  0
  -22.2870  -12.9450   22.0440 N   0  0  0  0  0  0  0  0  0  0  0  0
  -22.5630  -14.6800   20.6760 O   0  0  0  0  0  0  0  0  0  0  0  0
  -22.6530  -12.1110   22.4750 H   0  0  0  0  0  0  0  0  0  0  0  0
  -21.3640  -13.2660   22.2990 H   0  0  0  0  0  0  0  0  0  0  0  0
  -25.5980  -15.2650   20.2300 N   0  0  0  0  0  0  0  0  0  0  0  0
  -24.8350  -15.9220   20.3470 H   0  0  0  0  0  0  0  0  0  0  0  0
  -26.4300  -15.6920   19.8470 H   0  0  0  0  0  0  0  0  0  0  0  0
  -32.8460  -21.2270   19.3120 C   0  0  0  0  0  1  0  0  0  0  0  0
  -32.1150  -21.6820   20.5910 C   0  0  0  0  0  2  0  0  0  0  0  0
  -29.5300  -23.4420   20.6460 C   0  0  0  0  0  3  0  0  0  0  0  0
  -28.1640  -24.1610   20.8470 C   0  0  0  0  0  3  0  0  0  0  0  0
  -28.2600  -25.6500   21.2910 C   0  0  0  0  0  2  0  0  0  0  0  0
  -28.2770  -26.6270   20.2370 O   0  0  0  0  0  0  0  0  0  0  0  0
  -24.5340  -31.9130   23.2110 C   0  0  0  0  0  0  0  0  0  0  0  0
  -27.1440  -27.4090   20.2030 C   0  0  0  0  0  0  0  0  0  0  0  0
  -23.3190  -30.4850   21.6010 C   0  0  0  0  0  3  0  0  0  0  0  0
  -24.7610  -28.9230   20.1940 C   0  0  0  0  0  0  0  0  0  0  0  0
  -25.8440  -30.8380   21.3810 C   0  0  0  0  0  2  0  0  0  0  0  0
  -25.9240  -29.4560   20.7660 C   0  0  0  0  0  0  0  0  0  0  0  0
  -27.1240  -28.7060   20.7660 C   0  0  0  0  0  3  0  0  0  0  0  0
  -25.9710  -26.8900   19.6230 C   0  0  0  0  0  3  0  0  0  0  0  0
  -24.7800  -27.6410   19.6170 C   0  0  0  0  0  3  0  0  0  0  0  0
  -23.5170  -29.7840   20.2320 C   0  0  0  0  0  2  0  0  0  0  0  0
  -24.5850  -31.0930   22.1240 N   0  0  0  0  0  0  0  0  0  0  0  0
  -23.4560  -32.1970   23.7530 O   0  0  0  0  0  0  0  0  0  0  0  0
  -22.6720  -29.4800   22.5820 C   0  0  0  0  0  0  0  0  0  0  0  0
  -21.3470  -29.2930   22.4580 N   0  0  0  0  0  0  0  0  0  0  0  0
  -23.3570  -28.8730   23.4080 O   0  0  0  0  0  0  0  0  0  0  0  0
  -20.8560  -29.8370   21.7640 H   0  0  0  0  0  0  0  0  0  0  0  0
  -17.9730  -28.1070   22.9750 C   0  0  0  0  0  0  0  0  0  0  0  0
  -20.5300  -28.3680   23.2470 C   0  0  0  0  0  3  0  0  0  0  0  0
  -20.6320  -26.9270   22.6970 C   0  0  0  0  0  2  0  0  0  0  0  0
  -19.5300  -26.5860   21.6890 C   0  0  0  0  0  2  0  0  0  0  0  0
  -18.1490  -26.7440   22.3280 C   0  0  0  0  0  2  0  0  0  0  0  0
  -19.0910  -28.8770   23.3920 C   0  0  0  0  0  0  0  0  0  0  0  0
  -18.8700  -30.1530   23.9530 C   0  0  0  0  0  3  0  0  0  0  0  0
  -17.5640  -30.6570   24.1090 C   0  0  0  0  0  3  0  0  0  0  0  0
  -16.4610  -29.8830   23.7080 C   0  0  0  0  0  3  0  0  0  0  0  0
  -16.6660  -28.6100   23.1460 C   0  0  0  0  0  3  0  0  0  0  0  0
  -25.8240  -32.5510   23.8150 C   0  0  0  0  0  3  0  0  0  0  0  0
  -25.5130  -33.9480   24.1440 N   0  0  0  0  0  0  0  0  0  0  0  0
  -25.8490  -35.0000   23.3880 C   0  0  0  0  0  0  0  0  0  0  0  0
  -26.5260  -34.8980   22.3600 O   0  0  0  0  0  0  0  0  0  0  0  0
  -24.9090  -34.1000   24.9390 H   0  0  0  0  0  0  0  0  0  0  0  0
  -24.1360  -36.8030   23.0100 C   0  0  0  0  0  1  0  0  0  0  0  0
  -25.3600  -36.3890   23.8420 C   0  0  0  0  0  3  0  0  0  0  0  0
  -27.4810  -37.2620   24.7180 C   0  0  0  0  0  1  0  0  0  0  0  0
  -26.3980  -37.4380   23.7540 N   0  0  0  0  0  0  0  0  0  0  0  0
  -25.9930  -38.3590   23.8960 H   0  0  0  0  0  0  0  0  0  0  0  0
  -26.3650  -31.7850   25.0850 C   0  0  1  0  0  0  0  0  0  0  0  0
  -25.2870  -31.5350   26.1650 C   0  0  0  0  0  1  0  0  0  0  0  0
  -26.9550  -30.4130   24.6790 C   0  0  0  0  0  1  0  0  0  0  0  0
  -27.5150  -32.5900   25.7310 C   0  0  0  0  0  1  0  0  0  0  0  0
  1  2  2  0
  2 51  1  0
  2  3  1  0
  3  6  2  0
  4  6  1  0
  5  1  1  0
  5  4  2  0
  9  7  1  6
  9  4  1  0
  9  8  1  0
  9 10  1  0
 11 19  1  0
 12 17  1  0
 13 14  1  0
 13 12  1  0
 15 14  1  0
 15 24  1  0
 15 16  1  0
 17 11  1  0
 17 16  1  0
 18 11  2  0
 19 10  1  0
 19 20  1  0
 21 22  2  0
 22 41  1  0
 23 22  1  0
 23 26  1  0
 24 21  1  0
 24 25  1  0
 25 23  2  0
 26 27  1  0
 27 28  2  0
 29 32  1  0
 29 28  1  0
 30 29  2  0
 31 30  1  0
 31 26  2  0
 32 33  1  0
 33 34  1  0
 34 35  2  0
 36 35  1  0
 36 40  1  0
 37 36  2  0
 38 33  2  0
 38 37  1  0
 39 38  1  0
 41 42  1  0
 42 45  1  0
 42 44  1  0
 43 41  2  0
 46 47  1  0
 46 21  1  0
 48 46  1  0
 49 50  1  0
 50  3  1  0
 51 52  2  0
 52 53  1  0
 54 53  1  0
 55 66  2  0
 56 54  1  0
 56 61  1  0
 57 65  1  0
 57 67  1  0
 58 64  1  0
 58 60  1  0
 59 65  1  0
 60 59  1  0
 61 60  2  0
 62 56  2  0
 63 62  1  0
 63 58  2  0
 64 57  1  0
 65 55  1  0
 67 69  2  0
 68 67  1  0
 70 68  1  0
 71 80  2  0
 71 76  1  0
 72 68  1  0
 72 76  1  0
 73 72  1  0
 74 75  1  0
 74 73  1  0
 75 71  1  0
 76 77  2  0
 77 78  1  0
 79 78  2  0
 80 79  1  0
 81 55  1  0
 81 82  1  0
 81 91  1  0
 82 85  1  0
 83 87  1  0
 83 82  1  0
 84 83  2  0
 87 86  1  0
 89 87  1  0
 89 90  1  0
 89 88  1  0
 91 94  1  1
 91 92  1  0
 93 91  1  0
M  ISO  4  11 100  19 100  53 101  54 101
M  END
>  <TORSDO>  (12) 
F 22

>  <SCORE>  (12) 
-13.409

>  <name>  (12) 
12

>  <ligand_id>  (12) 
12

>  <original_smiles>  (12) 
[H]c1nc(C(C([H])([H])[H])(C([H])([H])[H])C([H])([H])N([H])C(=O)N2C([H])([H])C([H])([H])C([H])([H])C([H])(n3nc(-c4c([H])c([H])c(Oc5c([H])c([H])c(F)c([H])c5F)c([H])c4[H])c(C(=O)N([H])[H])c3N([H])[H])C2([H])[H])nc(C([H])([H])C([H])([H])[H])c1C([H])([H])C([H])([H])C([H])([H])Oc1c([H])c([H])c2c(c1[H])C([H])([H])N(C(=O)C([H])(N([H])C(=O)C([H])(N([H])C([H])([H])[H])C([H])([H])[H])C(C([H])([H])[H])(C([H])([H])[H])C([H])([H])[H])C([H])(C(=O)N([H])C1([H])c3c([H])c([H])c([H])c([H])c3C([H])([H])C([H])([H])C1([H])[H])C2([H])[H]

>  <smiles>  (12) 
[H]c1nc(C(C([H])([H])[H])(C([H])([H])[H])C([H])([H])N([H])C(=O)N2C([H])([H])C([H])([H])C([H])([H])C([H])(n3nc(-c4c([H])c([H])c(Oc5c([H])c([H])c(F)c([H])c5F)c([H])c4[H])c(C(=O)N([H])[H])c3N([H])[H])C2([H])[H])nc(C([H])([H])C([H])([H])[H])c1C([H])([H])C([H])([H])C([H])([H])Oc1c([H])c([H])c2c(c1[H])C([H])([H])N(C(=O)C([H])(N([H])C(=O)C([H])(N([H])C([H])([H])[H])C([H])([H])[H])C(C([H])([H])[H])(C([H])([H])[H])C([H])([H])[H])C([H])(C(=O)N([H])C1([H])c3c([H])c([H])c([H])c([H])c3C([H])([H])C([H])([H])C1([H])[H])C2([H])[H]

$$$$
13:0:0
     RDKit          3D

 96 90  0  0  1  0  0  0  0  0999 V2000
  -25.3760  -15.4640   20.7850 C   0  0  0  0  0 15  0  0  0  0  0  0
  -25.4900  -13.7250   22.1890 C   0  0  0  0  0  1  0  0  0  0  0  0
  -26.4580  -15.2730   18.7890 C   0  0  0  0  0 15  0  0  0  0  0  0
  -27.2830  -11.5310   19.7350 C   0  0  0  0  0  1  0  0  0  0  0  0
  -24.9320  -13.8210   23.5850 C   0  0  0  0  0  1  0  0  0  0  0  0
  -26.4260  -11.8710   21.6940 N   0  0  0  0  0  1  0  0  0  0  0  0
  -27.3180  -13.2550   18.3380 N   0  0  0  0  0 15  0  0  0  0  0  0
  -28.2850   -9.2930   18.8830 C   0  0  0  0  0  1  0  0  0  0  0  0
  -27.6800   -9.5150   21.1450 C   0  0  0  0  0  1  0  0  0  0  0  0
  -28.3030  -10.3910   20.0050 C   0  0  2  0  0  0  0  0  0  0  0  0
  -29.7740  -10.9310   20.6470 C   0  0  0  0  0  1  0  0  0  0  0  0
  -31.7570  -13.3680   21.2170 C   0  0  0  0  0  3  0  0  0  0  0  0
  -32.1620  -10.9210   20.4160 C   0  0  0  0  0 15  0  0  0  0  0  0
  -31.1880  -11.0840   18.6900 C   0  0  0  0  0  1  0  0  0  0  0  0
  -29.5830  -12.2150   18.5970 C   0  0  0  0  0  1  0  0  0  0  0  0
  -28.8570  -13.1730   20.1810 C   0  0  0  0  0  2  0  0  0  0  0  0
  -29.6520  -12.9680   21.8980 C   0  0  0  0  0  2  0  0  0  0  0  0
  -31.3530  -12.2300   21.6010 N   0  0  0  0  0  0  0  0  0  0  0  0
  -32.8110  -13.8810   20.8470 O   0  0  0  0  0  1  0  0  0  0  0  0
  -31.0910  -12.7360   20.3250 N   0  0  0  0  0  0  0  0  0  0  0  0
  -31.2720  -12.9830   19.3650 H   0  0  0  0  0  0  0  0  0  0  0  0
  -26.7140  -13.6840   20.6910 C   0  0  0  0  0  0  0  0  0  0  0  0
  -24.9940  -12.9780   20.2050 C   0  0  0  0  0  0  0  0  0  0  0  0
  -24.8410  -11.6710   20.1150 C   0  0  0  0  0  2  0  0  0  0  0  0
  -27.5180  -13.2590   20.7840 N   0  0  0  0  0  2  0  0  0  0  0  0
  -25.7030  -12.8860   20.3570 N   0  0  0  0  0  0  0  0  0  0  0  0
  -24.2930  -10.3560   20.7760 C   0  0  0  0  0  3  0  0  0  0  0  0
  -24.6180   -9.5050   21.9060 C   0  0  0  0  0  3  0  0  0  0  0  0
  -23.8710   -8.3290   22.2130 C   0  0  0  0  0  3  0  0  0  0  0  0
  -22.7460   -7.9820   21.4300 C   0  0  0  0  0  0  0  0  0  0  0  0
  -22.4570   -8.7740   20.3130 C   0  0  0  0  0  3  0  0  0  0  0  0
  -23.2230   -9.9010   19.9920 C   0  0  0  0  0  3  0  0  0  0  0  0
  -21.9190   -6.8990   21.6160 O   0  0  0  0  0  0  0  0  0  0  0  0
  -21.7530   -6.2760   22.8260 C   0  0  0  0  0  0  0  0  0  0  0  0
  -21.2610   -6.9510   23.9650 C   0  0  0  0  0  3  0  0  0  0  0  0
  -21.0440   -6.2420   25.1650 C   0  0  0  0  0  3  0  0  0  0  0  0
  -21.3090   -4.8590   25.2270 C   0  0  0  0  0  0  0  0  0  0  0  0
  -21.7820   -4.1830   24.0900 C   0  0  0  0  0  3  0  0  0  0  0  0
  -21.9950   -4.8890   22.8920 C   0  0  0  0  0  0  0  0  0  0  0  0
  -22.4240   -4.2260   21.7910 F   0  0  0  0  0  0  0  0  0  0  0  0
  -21.1070   -4.1780   26.3790 F   0  0  0  0  0  0  0  0  0  0  0  0
  -23.3980  -13.4340   20.0470 C   0  0  0  0  0  0  0  0  0  0  0  0
  -22.5370  -13.0010   20.9800 N   0  0  0  0  0  0  0  0  0  0  0  0
  -23.0540  -14.1750   19.1390 O   0  0  0  0  0  0  0  0  0  0  0  0
  -22.8490  -12.4120   21.7370 H   0  0  0  0  0  0  0  0  0  0  0  0
  -21.5680  -13.2810   20.9370 H   0  0  0  0  0  0  0  0  0  0  0  0
  -27.4450  -14.9090   21.1110 N   0  0  0  0  0  4  0  0  0  0  0  0
  -26.5330  -15.3400   21.3360 H   0  0  0  0  0  0  0  0  0  0  0  0
  -27.8930  -15.3960   20.3530 H   0  0  0  0  0  0  0  0  0  0  0  0
  -27.5890  -16.8740   18.5450 C   0  0  0  0  0 15  0  0  0  0  0  0
  -27.9060  -18.8130   18.0240 C   0  0  0  0  0 15  0  0  0  0  0  0
  -29.0630  -20.4590   18.3840 C   0  0  0  0  0 15  0  0  0  0  0  0
  -27.7230  -22.8110   18.7600 C   0  0  0  0  0  1  0  0  0  0  0  0
  -29.3170  -22.5780   16.7630 C   0  0  0  0  0  1  0  0  0  0  0  0
  -29.1540  -22.4920   18.2940 C   0  0  0  0  0  3  0  0  0  0  0  0
  -30.0620  -24.0450   18.8000 O   0  0  0  0  0  0  0  0  0  0  0  0
  -27.1090  -29.4980   23.5790 C   0  0  0  0  0  0  0  0  0  0  0  0
  -29.6030  -25.5040   19.1770 C   0  0  0  0  0  0  0  0  0  0  0  0
  -26.1700  -28.8560   21.4230 C   0  0  0  0  0  3  0  0  0  0  0  0
  -27.7520  -27.8100   19.6680 C   0  0  0  0  0  0  0  0  0  0  0  0
  -28.7400  -28.7690   21.7080 C   0  0  0  0  0  2  0  0  0  0  0  0
  -28.8210  -27.6800   20.5560 C   0  0  0  0  0  0  0  0  0  0  0  0
  -29.7640  -26.5360   20.3040 C   0  0  0  0  0  3  0  0  0  0  0  0
  -28.6830  -26.0180   18.2700 C   0  0  0  0  0  3  0  0  0  0  0  0
  -27.7530  -27.0380   18.5140 C   0  0  0  0  0  3  0  0  0  0  0  0
  -26.5990  -28.7710   19.9390 C   0  0  0  0  0  2  0  0  0  0  0  0
  -27.3640  -29.0630   22.2980 N   0  0  0  0  0  0  0  0  0  0  0  0
  -25.9510  -29.6580   24.0000 O   0  0  0  0  0  0  0  0  0  0  0  0
  -25.3460  -27.6040   21.8320 C   0  0  0  0  0  0  0  0  0  0  0  0
  -24.0320  -27.5870   21.5360 N   0  0  0  0  0  0  0  0  0  0  0  0
  -25.8960  -26.6630   22.4110 O   0  0  0  0  0  0  0  0  0  0  0  0
  -23.6370  -28.3980   21.0800 H   0  0  0  0  0  0  0  0  0  0  0  0
  -20.5710  -26.5090   21.2960 C   0  0  0  0  0  0  0  0  0  0  0  0
  -23.1080  -26.4790   21.8090 C   0  0  0  0  0  3  0  0  0  0  0  0
  -23.2070  -25.3890   20.7150 C   0  0  0  0  0  2  0  0  0  0  0  0
  -22.1870  -25.5730   19.5870 C   0  0  0  0  0  2  0  0  0  0  0  0
  -20.7600  -25.5390   20.1420 C   0  0  0  0  0  2  0  0  0  0  0  0
  -21.6740  -26.9620   22.0680 C   0  0  0  0  0  0  0  0  0  0  0  0
  -21.4430  -27.8850   23.1110 C   0  0  0  0  0  3  0  0  0  0  0  0
  -20.1440  -28.3540   23.3860 C   0  0  0  0  0  3  0  0  0  0  0  0
  -19.0560  -27.8930   22.6250 C   0  0  0  0  0  3  0  0  0  0  0  0
  -19.2690  -26.9690   21.5870 C   0  0  0  0  0  3  0  0  0  0  0  0
  -28.2560  -29.8330   24.5760 C   0  0  0  0  0  3  0  0  0  0  0  0
  -27.7730  -30.8860   25.4930 N   0  0  0  0  0  0  0  0  0  0  0  0
  -28.2020  -32.1550   25.5170 C   0  0  0  0  0  0  0  0  0  0  0  0
  -29.1060  -32.5620   24.7830 O   0  0  0  0  0  0  0  0  0  0  0  0
  -26.9950  -30.6370   26.0860 H   0  0  0  0  0  0  0  0  0  0  0  0
  -26.5480  -34.0430   25.7570 C   0  0  0  0  0  1  0  0  0  0  0  0
  -27.5280  -33.1280   26.5100 C   0  0  0  0  0  3  0  0  0  0  0  0
  -29.2680  -33.1920   28.2450 C   0  0  0  0  0  1  0  0  0  0  0  0
  -28.4910  -33.9560   27.2720 N   0  0  0  0  0  0  0  0  0  0  0  0
  -28.0100  -34.7030   27.7660 H   0  0  0  0  0  0  0  0  0  0  0  0
  -28.7270  -28.5810   25.4150 C   0  0  1  0  0  0  0  0  0  0  0  0
  -27.5730  -27.8370   26.1300 C   0  0  0  0  0  1  0  0  0  0  0  0
  -29.4570  -27.5530   24.5270 C   0  0  0  0  0  1  0  0  0  0  0  0
  -29.7480  -29.0270   26.4880 C   0  0  0  0  0  1  0  0  0  0  0  0
  2  5  1  0
 10  4  1  6
  8 10  1  0
 10 11  1  0
 10  9  1  0
 12 19  1  0
 12 18  1  0
 15 14  1  0
 16 25  1  0
 16 17  1  0
 18 17  1  0
 20 12  1  0
 20 18  1  0
 21 20  1  0
 22 25  1  0
 22 47  2  0
 23 26  1  0
 24 23  2  0
 26 22  1  0
 26  6  1  0
 27 28  1  0
 28 29  2  0
 30 33  1  0
 30 29  1  0
 31 30  2  0
 32 31  1  0
 32 27  2  0
 33 34  1  0
 34 39  2  0
 34 35  1  0
 35 36  2  0
 36 37  1  0
 37 41  1  0
 38 37  2  0
 39 38  1  0
 40 39  1  0
 42 23  1  0
 42 43  1  0
 43 45  1  0
 44 42  2  0
 46 43  1  0
 47 48  1  0
 49 47  1  0
 54 55  1  0
 55 53  1  0
 55 56  1  0
 56 58  1  0
 57 68  2  0
 58 63  1  0
 59 69  1  0
 59 67  1  0
 60 66  1  0
 60 62  1  0
 61 67  1  0
 62 61  1  0
 63 62  2  0
 64 65  1  0
 64 58  2  0
 65 60  2  0
 66 59  1  0
 67 57  1  0
 69 71  2  0
 70 69  1  0
 72 70  1  0
 73 82  2  0
 73 78  1  0
 74 70  1  0
 74 78  1  0
 75 74  1  0
 76 77  1  0
 76 75  1  0
 77 73  1  0
 78 79  2  0
 79 80  1  0
 81 80  2  0
 82 81  1  0
 83 57  1  0
 83 93  1  0
 83 84  1  0
 84 85  1  0
 84 87  1  0
 85 89  1  0
 86 85  2  0
 89 88  1  0
 89 91  1  0
 91 92  1  0
 91 90  1  0
 93 94  1  1
 93 96  1  0
 95 93  1  0
M  ISO  4  12 100  20 100  55 101  56 101
M  END
>  <TORSDO>  (13) 
F 22

>  <SCORE>  (13) 
-4.537

>  <name>  (13) 
13

>  <ligand_id>  (13) 
13

>  <original_smiles>  (13) 
[H]c1c(C([H])([H])[H])nc(C(C([H])([H])[H])(C([H])([H])[H])C([H])([H])N([H])C(=O)N2C([H])([H])C([H])([H])C([H])([H])C([H])(n3nc(-c4c([H])c([H])c(Oc5c([H])c([H])c(F)c([H])c5F)c([H])c4[H])c(C(=O)N([H])[H])c3N([H])[H])C2([H])[H])nc1C([H])([H])C([H])([H])C([H])([H])C(Oc1c([H])c([H])c2c(c1[H])C([H])([H])N(C(=O)C([H])(N([H])C(=O)C([H])(N([H])C([H])([H])[H])C([H])([H])[H])C(C([H])([H])[H])(C([H])([H])[H])C([H])([H])[H])C([H])(C(=O)N([H])C1([H])c3c([H])c([H])c([H])c([H])c3C([H])([H])C([H])([H])C1([H])[H])C2([H])[H])(C([H])([H])[H])C([H])([H])[H]

>  <smiles>  (13) 
[H]c1c(C([H])([H])[H])nc(C(C([H])([H])[H])(C([H])([H])[H])C([H])([H])N([H])C(=O)N2C([H])([H])C([H])([H])C([H])([H])C([H])(n3nc(-c4c([H])c([H])c(Oc5c([H])c([H])c(F)c([H])c5F)c([H])c4[H])c(C(=O)N([H])[H])c3N([H])[H])C2([H])[H])nc1C([H])([H])C([H])([H])C([H])([H])C(Oc1c([H])c([H])c2c(c1[H])C([H])([H])N(C(=O)C([H])(N([H])C(=O)C([H])(N([H])C([H])([H])[H])C([H])([H])[H])C(C([H])([H])[H])(C([H])([H])[H])C([H])([H])[H])C([H])(C(=O)N([H])C1([H])c3c([H])c([H])c([H])c([H])c3C([H])([H])C([H])([H])C1([H])[H])C2([H])[H])(C([H])([H])[H])C([H])([H])[H]

$$$$
14:0:0
     RDKit          3D

 94102  0  0  1  0  0  0  0  0999 V2000
  -28.0910  -22.3890   20.6580 C   0  0  0  0  0  3  0  0  0  0  0  0
  -28.6150  -23.5230   19.9550 C   0  0  0  0  0  0  0  0  0  0  0  0
  -29.5330  -23.0130   18.9830 C   0  0  0  0  0  0  0  0  0  0  0  0
  -29.5110  -20.7080   19.7240 C   0  0  0  0  0  0  0  0  0  0  0  0
  -28.5110  -21.0710   20.5530 N   0  0  0  0  0  0  0  0  0  0  0  0
  -29.9610  -21.6820   18.8940 N   0  0  0  0  0  0  0  0  0  0  0  0
  -30.5420  -19.0770   21.4430 C   0  0  0  0  0  1  0  0  0  0  0  0
  -31.7270  -19.3770   19.3290 C   0  0  0  0  0  1  0  0  0  0  0  0
  -30.3010  -19.2410   19.9270 C   0  0  2  0  0  0  0  0  0  0  0  0
  -29.7640  -17.7680   19.3500 C   0  0  0  0  0  2  0  0  0  0  0  0
  -30.7530  -15.2120   19.7980 C   0  0  0  0  0  0  0  0  0  0  0  0
  -30.6550  -12.7930   19.0750 C   0  0  0  0  0  2  0  0  0  0  0  0
  -29.6830  -12.6780   17.8770 C   0  0  0  0  0  2  0  0  0  0  0  0
  -28.2320  -12.4870   18.3620 C   0  0  0  0  0  2  0  0  0  0  0  0
  -27.8550  -13.4720   19.5010 C   0  0  0  0  0  3  0  0  0  0  0  0
  -28.9500  -13.5590   20.5890 C   0  0  0  0  0  2  0  0  0  0  0  0
  -30.2060  -13.9360   19.9180 N   0  0  0  0  0  0  0  0  0  0  0  0
  -31.8920  -15.3140   19.3320 O   0  0  0  0  0  0  0  0  0  0  0  0
  -29.9510  -16.3470   20.0240 N   0  0  0  0  0  0  0  0  0  0  0  0
  -29.1270  -16.0830   20.5450 H   0  0  0  0  0  0  0  0  0  0  0  0
  -25.5230  -14.0670   20.3930 C   0  0  0  0  0  0  0  0  0  0  0  0
  -24.4720  -13.3000   20.8140 C   0  0  0  0  0  0  0  0  0  0  0  0
  -24.9080  -11.9440   20.7130 C   0  0  0  0  0  0  0  0  0  0  0  0
  -26.5360  -13.1830   20.0660 N   0  0  0  0  0  0  0  0  0  0  0  0
  -26.1760  -11.8970   20.3200 N   0  0  0  0  0  0  0  0  0  0  0  0
  -24.1730  -10.6870   20.9100 C   0  0  0  0  0  0  0  0  0  0  0  0
  -24.6010   -9.7190   21.8480 C   0  0  0  0  0  3  0  0  0  0  0  0
  -23.8640   -8.5280   22.0340 C   0  0  0  0  0  3  0  0  0  0  0  0
  -22.6860   -8.2970   21.2840 C   0  0  0  0  0  0  0  0  0  0  0  0
  -22.2780   -9.2540   20.3380 C   0  0  0  0  0  3  0  0  0  0  0  0
  -23.0130  -10.4350   20.1470 C   0  0  0  0  0  3  0  0  0  0  0  0
  -21.9200   -7.1600   21.3820 O   0  0  0  0  0  0  0  0  0  0  0  0
  -21.8070   -6.4660   22.5600 C   0  0  0  0  0  0  0  0  0  0  0  0
  -21.2560   -7.0520   23.7210 C   0  0  0  0  0  3  0  0  0  0  0  0
  -21.0920   -6.2800   24.8900 C   0  0  0  0  0  3  0  0  0  0  0  0
  -21.4710   -4.9240   24.8980 C   0  0  0  0  0  0  0  0  0  0  0  0
  -22.0160   -4.3380   23.7420 C   0  0  0  0  0  3  0  0  0  0  0  0
  -22.1790   -5.1060   22.5770 C   0  0  0  0  0  0  0  0  0  0  0  0
  -22.6830   -4.5300   21.4590 F   0  0  0  0  0  0  0  0  0  0  0  0
  -21.3090   -4.1800   26.0200 F   0  0  0  0  0  0  0  0  0  0  0  0
  -23.1020  -13.7900   21.1910 C   0  0  0  0  0  0  0  0  0  0  0  0
  -22.4160  -13.0860   22.0860 N   0  0  0  0  0  0  0  0  0  0  0  0
  -22.6510  -14.8330   20.7200 O   0  0  0  0  0  0  0  0  0  0  0  0
  -22.7940  -12.2460   22.4970 H   0  0  0  0  0  0  0  0  0  0  0  0
  -21.4960  -13.3980   22.3680 H   0  0  0  0  0  0  0  0  0  0  0  0
  -25.7020  -15.4400   20.2400 N   0  0  0  0  0  0  0  0  0  0  0  0
  -24.9500  -16.1060   20.3780 H   0  0  0  0  0  0  0  0  0  0  0  0
  -26.5200  -15.8580   19.8170 H   0  0  0  0  0  0  0  0  0  0  0  0
  -29.1620  -23.7550   16.6210 C   0  0  0  0  0  1  0  0  0  0  0  0
  -30.0260  -23.9220   17.8760 C   0  0  0  0  0  2  0  0  0  0  0  0
  -28.3570  -25.1060   20.4290 C   0  0  0  0  0  3  0  0  0  0  0  0
  -28.0040  -24.8490   23.0460 C   0  0  0  0  0  1  0  0  0  0  0  0
  -27.4190  -25.2450   21.6730 C   0  0  0  0  0  2  0  0  0  0  0  0
  -28.3170  -26.4050   19.5790 O   0  0  0  0  0  0  0  0  0  0  0  0
  -24.5930  -31.7330   23.0490 C   0  0  0  0  0  0  0  0  0  0  0  0
  -27.2400  -27.3550   19.6470 C   0  0  0  0  0  0  0  0  0  0  0  0
  -23.4000  -30.4200   21.3330 C   0  0  0  0  0  3  0  0  0  0  0  0
  -24.8650  -29.0080   19.7640 C   0  0  0  0  0  0  0  0  0  0  0  0
  -25.9340  -30.7920   21.1360 C   0  0  0  0  0  2  0  0  0  0  0  0
  -26.0380  -29.4540   20.3860 C   0  0  0  0  0  0  0  0  0  0  0  0
  -27.2300  -28.6450   20.3100 C   0  0  0  0  0  3  0  0  0  0  0  0
  -26.0400  -26.9990   19.0030 C   0  0  0  0  0  3  0  0  0  0  0  0
  -24.8760  -27.7960   19.0570 C   0  0  0  0  0  3  0  0  0  0  0  0
  -23.6120  -29.8540   19.9030 C   0  0  0  0  0  2  0  0  0  0  0  0
  -24.6610  -31.0030   21.8950 N   0  0  0  0  0  0  0  0  0  0  0  0
  -23.5110  -31.9400   23.6220 O   0  0  0  0  0  0  0  0  0  0  0  0
  -22.7790  -29.3250   22.2350 C   0  0  0  0  0  0  0  0  0  0  0  0
  -21.4530  -29.1180   22.1270 N   0  0  0  0  0  0  0  0  0  0  0  0
  -23.4890  -28.6660   22.9970 O   0  0  0  0  0  0  0  0  0  0  0  0
  -20.9310  -29.7080   21.4930 H   0  0  0  0  0  0  0  0  0  0  0  0
  -18.1270  -27.7740   22.6190 C   0  0  0  0  0  0  0  0  0  0  0  0
  -20.6820  -28.1010   22.8460 C   0  0  0  0  0  3  0  0  0  0  0  0
  -20.8110  -26.7170   22.1670 C   0  0  0  0  0  2  0  0  0  0  0  0
  -19.6940  -26.4340   21.1570 C   0  0  0  0  0  2  0  0  0  0  0  0
  -18.3270  -26.4840   21.8410 C   0  0  0  0  0  2  0  0  0  0  0  0
  -19.2300  -28.5390   23.0770 C   0  0  0  0  0  0  0  0  0  0  0  0
  -18.9830  -29.7460   23.7680 C   0  0  0  0  0  3  0  0  0  0  0  0
  -17.6670  -30.1850   24.0040 C   0  0  0  0  0  3  0  0  0  0  0  0
  -16.5780  -29.4170   23.5570 C   0  0  0  0  0  3  0  0  0  0  0  0
  -16.8090  -28.2120   22.8690 C   0  0  0  0  0  3  0  0  0  0  0  0
  -25.8650  -32.3590   23.6970 C   0  0  0  0  0  3  0  0  0  0  0  0
  -25.5400  -33.7440   24.0730 N   0  0  0  0  0  0  0  0  0  0  0  0
  -25.8820  -34.8270   23.3640 C   0  0  0  0  0  0  0  0  0  0  0  0
  -26.5700  -34.7680   22.3420 O   0  0  0  0  0  0  0  0  0  0  0  0
  -24.9270  -33.8610   24.8650 H   0  0  0  0  0  0  0  0  0  0  0  0
  -24.1600  -36.6390   23.0500 C   0  0  0  0  0  1  0  0  0  0  0  0
  -25.3830  -36.1950   23.8700 C   0  0  0  0  0  3  0  0  0  0  0  0
  -27.4890  -37.0550   24.8000 C   0  0  0  0  0  1  0  0  0  0  0  0
  -26.4150  -37.2530   23.8290 N   0  0  0  0  0  0  0  0  0  0  0  0
  -26.0010  -38.1670   23.9960 H   0  0  0  0  0  0  0  0  0  0  0  0
  -26.3860  -31.5540   24.9500 C   0  0  1  0  0  0  0  0  0  0  0  0
  -25.2930  -31.2780   26.0090 C   0  0  0  0  0  1  0  0  0  0  0  0
  -26.9860  -30.1940   24.5230 C   0  0  0  0  0  1  0  0  0  0  0  0
  -27.5280  -32.3420   25.6390 C   0  0  0  0  0  1  0  0  0  0  0  0
  2 51  1  0
  2  1  2  0
  3  2  1  0
  4  9  1  0
  4  5  2  0
  5  1  1  0
  6  3  2  0
  6  4  1  0
  9  8  1  6
  9  7  1  0
 10  9  1  0
 10 19  1  0
 11 17  1  0
 11 19  1  0
 12 17  1  0
 13 14  1  0
 13 12  1  0
 15 14  1  0
 15 24  1  0
 15 16  1  0
 17 16  1  0
 18 11  2  0
 19 20  1  0
 21 22  2  0
 22 41  1  0
 23 22  1  0
 23 26  1  0
 24 25  1  0
 24 21  1  0
 25 23  2  0
 26 27  1  0
 27 28  2  0
 29 32  1  0
 29 28  1  0
 30 29  2  0
 31 30  1  0
 31 26  2  0
 32 33  1  0
 33 38  2  0
 33 34  1  0
 34 35  2  0
 35 36  1  0
 36 40  1  0
 37 36  2  0
 38 37  1  0
 39 38  1  0
 41 42  1  0
 42 45  1  0
 42 44  1  0
 43 41  2  0
 46 47  1  0
 46 21  1  0
 48 46  1  0
 49 50  1  0
 50  3  1  0
 51 53  1  0
 53 52  1  0
 54 56  1  0
 54 51  1  0
 55 66  2  0
 56 61  1  0
 57 65  1  0
 57 67  1  0
 58 64  1  0
 58 60  1  0
 59 65  1  0
 60 59  1  0
 61 60  2  0
 62 63  1  0
 62 56  2  0
 63 58  2  0
 64 57  1  0
 65 55  1  0
 67 69  2  0
 68 67  1  0
 70 68  1  0
 71 80  2  0
 71 76  1  0
 72 68  1  0
 72 76  1  0
 73 72  1  0
 74 75  1  0
 74 73  1  0
 75 71  1  0
 76 77  2  0
 77 78  1  0
 79 78  2  0
 80 79  1  0
 81 55  1  0
 81 82  1  0
 81 91  1  0
 82 85  1  0
 83 87  1  0
 83 82  1  0
 84 83  2  0
 87 86  1  0
 89 87  1  0
 89 90  1  0
 89 88  1  0
 91 94  1  1
 91 92  1  0
 93 91  1  0
M  ISO  4  11 100  19 100  51 101  54 101
M  END
>  <TORSDO>  (14) 
F 21

>  <SCORE>  (14) 
-12.777

>  <name>  (14) 
14

>  <ligand_id>  (14) 
14

>  <original_smiles>  (14) 
[H]c1nc(C(C([H])([H])[H])(C([H])([H])[H])C([H])([H])N([H])C(=O)N2C([H])([H])C([H])([H])C([H])([H])C([H])(n3nc(-c4c([H])c([H])c(Oc5c([H])c([H])c(F)c([H])c5F)c([H])c4[H])c(C(=O)N([H])[H])c3N([H])[H])C2([H])[H])nc(C([H])([H])C([H])([H])[H])c1C([H])(Oc1c([H])c([H])c2c(c1[H])C([H])([H])N(C(=O)C([H])(N([H])C(=O)C([H])(N([H])C([H])([H])[H])C([H])([H])[H])C(C([H])([H])[H])(C([H])([H])[H])C([H])([H])[H])C([H])(C(=O)N([H])C1([H])c3c([H])c([H])c([H])c([H])c3C([H])([H])C([H])([H])C1([H])[H])C2([H])[H])C([H])([H])C([H])([H])[H]

>  <smiles>  (14) 
[H]c1nc(C(C([H])([H])[H])(C([H])([H])[H])C([H])([H])N([H])C(=O)N2C([H])([H])C([H])([H])C([H])([H])C([H])(n3nc(-c4c([H])c([H])c(Oc5c([H])c([H])c(F)c([H])c5F)c([H])c4[H])c(C(=O)N([H])[H])c3N([H])[H])C2([H])[H])nc(C([H])([H])C([H])([H])[H])c1C([H])(Oc1c([H])c([H])c2c(c1[H])C([H])([H])N(C(=O)C([H])(N([H])C(=O)C([H])(N([H])C([H])([H])[H])C([H])([H])[H])C(C([H])([H])[H])(C([H])([H])[H])C([H])([H])[H])C([H])(C(=O)N([H])C1([H])c3c([H])c([H])c([H])c([H])c3C([H])([H])C([H])([H])C1([H])[H])C2([H])[H])C([H])([H])C([H])([H])[H]

$$$$
15:0:0
     RDKit          3D

 94102  0  0  1  0  0  0  0  0999 V2000
  -30.9490  -18.7580   22.7030 C   0  0  0  0  0  3  0  0  0  0  0  0
  -30.2450  -19.8610   23.1990 C   0  0  0  0  0  3  0  0  0  0  0  0
  -31.0970  -18.6510   21.3080 C   0  0  0  0  0  0  0  0  0  0  0  0
  -29.9640  -20.6510   21.0810 C   0  0  0  0  0  0  0  0  0  0  0  0
  -29.7530  -20.8130   22.3820 N   0  0  0  0  0  0  0  0  0  0  0  0
  -30.6010  -19.6310   20.5240 N   0  0  0  0  0  0  0  0  0  0  0  0
  -33.1360  -17.1920   21.1940 C   0  0  0  0  0  1  0  0  0  0  0  0
  -31.9650  -17.8380   19.1020 C   0  0  0  0  0  1  0  0  0  0  0  0
  -31.7220  -17.4120   20.5920 C   0  0  2  0  0  0  0  0  0  0  0  0
  -29.3810  -16.4870   20.1690 C   0  0  0  0  0  1  0  0  0  0  0  0
  -30.6270  -15.7430   22.2320 C   0  0  0  0  0  1  0  0  0  0  0  0
  -30.7840  -16.0980   20.7210 C   0  0  2  0  0  0  0  0  0  0  0  0
  -31.3460  -14.8030   19.9800 C   0  0  0  0  0  0  0  0  0  0  0  0
  -31.0600  -12.5360   18.9890 C   0  0  0  0  0  2  0  0  0  0  0  0
  -30.0640  -12.5790   17.8120 C   0  0  0  0  0  2  0  0  0  0  0  0
  -28.6170  -12.4080   18.3180 C   0  0  0  0  0  2  0  0  0  0  0  0
  -28.3030  -13.3740   19.4780 C   0  0  0  0  0  3  0  0  0  0  0  0
  -29.3980  -13.2440   20.5560 C   0  0  0  0  0  2  0  0  0  0  0  0
  -30.6850  -13.6020   19.9430 N   0  0  0  0  0  0  0  0  0  0  0  0
  -32.4190  -14.8880   19.3750 O   0  0  0  0  0  0  0  0  0  0  0  0
  -25.9970  -14.0850   20.3930 C   0  0  0  0  0  0  0  0  0  0  0  0
  -24.9280  -13.3480   20.8160 C   0  0  0  0  0  0  0  0  0  0  0  0
  -25.3230  -11.9810   20.7010 C   0  0  0  0  0  0  0  0  0  0  0  0
  -26.9780  -13.1650   20.0460 N   0  0  0  0  0  0  0  0  0  0  0  0
  -26.5800  -11.8940   20.2940 N   0  0  0  0  0  0  0  0  0  0  0  0
  -24.5610  -10.7450   20.8920 C   0  0  0  0  0  0  0  0  0  0  0  0
  -24.9440   -9.7890   21.8580 C   0  0  0  0  0  3  0  0  0  0  0  0
  -24.1860   -8.6120   22.0340 C   0  0  0  0  0  3  0  0  0  0  0  0
  -23.0360   -8.3840   21.2430 C   0  0  0  0  0  0  0  0  0  0  0  0
  -22.6740   -9.3280   20.2680 C   0  0  0  0  0  3  0  0  0  0  0  0
  -23.4300  -10.4980   20.0880 C   0  0  0  0  0  3  0  0  0  0  0  0
  -22.2570   -7.2560   21.3240 O   0  0  0  0  0  0  0  0  0  0  0  0
  -22.0370   -6.6160   22.5170 C   0  0  0  0  0  0  0  0  0  0  0  0
  -21.4460   -7.2770   23.6170 C   0  0  0  0  0  3  0  0  0  0  0  0
  -21.1770   -6.5660   24.8030 C   0  0  0  0  0  3  0  0  0  0  0  0
  -21.4870   -5.1950   24.8880 C   0  0  0  0  0  0  0  0  0  0  0  0
  -22.0700   -4.5350   23.7930 C   0  0  0  0  0  3  0  0  0  0  0  0
  -22.3430   -5.2440   22.6100 C   0  0  0  0  0  0  0  0  0  0  0  0
  -22.8860   -4.5980   21.5490 F   0  0  0  0  0  0  0  0  0  0  0  0
  -21.2210   -4.5100   26.0250 F   0  0  0  0  0  0  0  0  0  0  0  0
  -23.5770  -13.8720   21.2130 C   0  0  0  0  0  0  0  0  0  0  0  0
  -22.8940  -13.1810   22.1150 N   0  0  0  0  0  0  0  0  0  0  0  0
  -23.1420  -14.9300   20.7570 O   0  0  0  0  0  0  0  0  0  0  0  0
  -23.2620  -12.3260   22.5080 H   0  0  0  0  0  0  0  0  0  0  0  0
  -21.9900  -13.5130   22.4240 H   0  0  0  0  0  0  0  0  0  0  0  0
  -26.1990  -15.4570   20.2590 N   0  0  0  0  0  0  0  0  0  0  0  0
  -25.4740  -16.1270   20.4870 H   0  0  0  0  0  0  0  0  0  0  0  0
  -27.0350  -15.8940   19.8950 H   0  0  0  0  0  0  0  0  0  0  0  0
  -29.5360  -21.7560   20.1260 C   0  0  0  0  0  2  0  0  0  0  0  0
  -30.4840  -22.9740   20.1400 C   0  0  0  0  0  2  0  0  0  0  0  0
  -29.9370  -24.1710   20.9410 C   0  0  0  0  0  2  0  0  0  0  0  0
  -29.0280  -25.0860   20.1040 C   0  0  0  0  0  2  0  0  0  0  0  0
  -29.7700  -26.2750   19.4420 C   0  0  0  0  0  2  0  0  0  0  0  0
  -29.5130  -27.5210   20.1010 O   0  0  0  0  0  0  0  0  0  0  0  0
  -24.6870  -31.6230   23.3510 C   0  0  0  0  0  0  0  0  0  0  0  0
  -28.2290  -28.0290   20.0620 C   0  0  0  0  0  0  0  0  0  0  0  0
  -23.8470  -30.2390   21.4840 C   0  0  0  0  0  3  0  0  0  0  0  0
  -25.6210  -29.1240   20.0430 C   0  0  0  0  0  0  0  0  0  0  0  0
  -26.2880  -31.0080   21.5400 C   0  0  0  0  0  2  0  0  0  0  0  0
  -26.6360  -29.7480   20.7780 C   0  0  0  0  0  0  0  0  0  0  0  0
  -27.9400  -29.2020   20.7950 C   0  0  0  0  0  3  0  0  0  0  0  0
  -27.1850  -27.4220   19.3210 C   0  0  0  0  0  3  0  0  0  0  0  0
  -25.8880  -27.9550   19.3180 C   0  0  0  0  0  3  0  0  0  0  0  0
  -24.2540  -29.7630   20.0660 C   0  0  0  0  0  2  0  0  0  0  0  0
  -24.9530  -30.9690   22.1860 N   0  0  0  0  0  0  0  0  0  0  0  0
  -23.5420  -31.6550   23.8240 O   0  0  0  0  0  0  0  0  0  0  0  0
  -23.3170  -29.0220   22.2780 C   0  0  0  0  0  0  0  0  0  0  0  0
  -22.0550  -28.6420   22.0210 N   0  0  0  0  0  0  0  0  0  0  0  0
  -24.0410  -28.4290   23.0830 O   0  0  0  0  0  0  0  0  0  0  0  0
  -21.5220  -29.1930   21.3640 H   0  0  0  0  0  0  0  0  0  0  0  0
  -18.8950  -26.8900   22.1230 C   0  0  0  0  0  0  0  0  0  0  0  0
  -21.3550  -27.5050   22.6230 C   0  0  0  0  0  3  0  0  0  0  0  0
  -21.7230  -26.1840   21.9100 C   0  0  0  0  0  2  0  0  0  0  0  0
  -20.7530  -25.8120   20.7850 C   0  0  0  0  0  2  0  0  0  0  0  0
  -19.3300  -25.6690   21.3270 C   0  0  0  0  0  2  0  0  0  0  0  0
  -19.8470  -27.7610   22.7170 C   0  0  0  0  0  0  0  0  0  0  0  0
  -19.3910  -28.9000   23.4140 C   0  0  0  0  0  3  0  0  0  0  0  0
  -18.0160  -29.1770   23.5210 C   0  0  0  0  0  3  0  0  0  0  0  0
  -17.0770  -28.3030   22.9440 C   0  0  0  0  0  3  0  0  0  0  0  0
  -17.5170  -27.1590   22.2550 C   0  0  0  0  0  3  0  0  0  0  0  0
  -25.8060  -32.3790   24.1350 C   0  0  0  0  0  3  0  0  0  0  0  0
  -25.3310  -33.7470   24.3760 N   0  0  0  0  0  0  0  0  0  0  0  0
  -25.6870  -34.8140   23.6480 C   0  0  0  0  0  0  0  0  0  0  0  0
  -26.5140  -34.7580   22.7340 O   0  0  0  0  0  0  0  0  0  0  0  0
  -24.6180  -33.8620   25.0810 H   0  0  0  0  0  0  0  0  0  0  0  0
  -23.8920  -36.4360   22.9710 C   0  0  0  0  0  1  0  0  0  0  0  0
  -25.0130  -36.1570   23.9850 C   0  0  0  0  0  3  0  0  0  0  0  0
  -26.9020  -37.2320   25.1220 C   0  0  0  0  0  1  0  0  0  0  0  0
  -25.9540  -37.2980   24.0150 N   0  0  0  0  0  0  0  0  0  0  0  0
  -25.4520  -38.1780   24.0790 H   0  0  0  0  0  0  0  0  0  0  0  0
  -26.1950  -31.6780   25.4940 C   0  0  1  0  0  0  0  0  0  0  0  0
  -24.9810  -31.3160   26.3790 C   0  0  0  0  0  1  0  0  0  0  0  0
  -26.9890  -30.3790   25.2220 C   0  0  0  0  0  1  0  0  0  0  0  0
  -27.1240  -32.6040   26.3150 C   0  0  0  0  0  1  0  0  0  0  0  0
  1  2  2  0
  3  1  1  0
  4  5  2  0
  5  2  1  0
  6  4  1  0
  6  3  2  0
  9  8  1  6
  9 12  1  0
  9  7  1  0
  9  3  1  0
 12 10  1  6
 12 11  1  0
 13 12  1  0
 14 19  1  0
 15 16  1  0
 15 14  1  0
 17 16  1  0
 17 24  1  0
 17 18  1  0
 19 13  1  0
 19 18  1  0
 20 13  2  0
 21 22  2  0
 22 41  1  0
 23 22  1  0
 23 26  1  0
 24 25  1  0
 24 21  1  0
 25 23  2  0
 26 27  1  0
 27 28  2  0
 29 32  1  0
 29 28  1  0
 30 29  2  0
 31 30  1  0
 31 26  2  0
 32 33  1  0
 33 38  2  0
 33 34  1  0
 34 35  2  0
 35 36  1  0
 36 40  1  0
 37 36  2  0
 38 37  1  0
 39 38  1  0
 41 42  1  0
 42 45  1  0
 42 44  1  0
 43 41  2  0
 46 21  1  0
 46 47  1  0
 48 46  1  0
 49 50  1  0
 49  4  1  0
 50 51  1  0
 52 51  1  0
 53 54  1  0
 53 52  1  0
 55 66  2  0
 56 54  1  0
 56 61  1  0
 57 65  1  0
 57 67  1  0
 58 64  1  0
 58 60  1  0
 59 65  1  0
 60 61  2  0
 60 59  1  0
 62 56  2  0
 63 62  1  0
 63 58  2  0
 64 57  1  0
 65 55  1  0
 67 69  2  0
 68 67  1  0
 70 68  1  0
 71 80  2  0
 71 76  1  0
 72 68  1  0
 72 76  1  0
 73 72  1  0
 74 75  1  0
 74 73  1  0
 75 71  1  0
 76 77  2  0
 77 78  1  0
 79 78  2  0
 80 79  1  0
 81 55  1  0
 81 82  1  0
 81 91  1  0
 82 85  1  0
 83 87  1  0
 83 82  1  0
 84 83  2  0
 87 86  1  0
 87 89  1  0
 89 90  1  0
 89 88  1  0
 91 94  1  1
 91 92  1  0
 93 91  1  0
M  ISO  4  12 100  13 100  53 101  54 101
M  END
>  <TORSDO>  (15) 
F 23

>  <SCORE>  (15) 
-8.125

>  <name>  (15) 
15

>  <ligand_id>  (15) 
15

>  <original_smiles>  (15) 
[H]c1nc(C([H])([H])C([H])([H])C([H])([H])C([H])([H])C([H])([H])Oc2c([H])c([H])c3c(c2[H])C([H])([H])N(C(=O)C([H])(N([H])C(=O)C([H])(N([H])C([H])([H])[H])C([H])([H])[H])C(C([H])([H])[H])(C([H])([H])[H])C([H])([H])[H])C([H])(C(=O)N([H])C2([H])c4c([H])c([H])c([H])c([H])c4C([H])([H])C([H])([H])C2([H])[H])C3([H])[H])nc(C(C([H])([H])[H])(C([H])([H])[H])C(C(=O)N2C([H])([H])C([H])([H])C([H])([H])C([H])(n3nc(-c4c([H])c([H])c(Oc5c([H])c([H])c(F)c([H])c5F)c([H])c4[H])c(C(=O)N([H])[H])c3N([H])[H])C2([H])[H])(C([H])([H])[H])C([H])([H])[H])c1[H]

>  <smiles>  (15) 
[H]c1nc(C([H])([H])C([H])([H])C([H])([H])C([H])([H])C([H])([H])Oc2c([H])c([H])c3c(c2[H])C([H])([H])N(C(=O)C([H])(N([H])C(=O)C([H])(N([H])C([H])([H])[H])C([H])([H])[H])C(C([H])([H])[H])(C([H])([H])[H])C([H])([H])[H])C([H])(C(=O)N([H])C2([H])c4c([H])c([H])c([H])c([H])c4C([H])([H])C([H])([H])C2([H])[H])C3([H])[H])nc(C(C([H])([H])[H])(C([H])([H])[H])C(C(=O)N2C([H])([H])C([H])([H])C([H])([H])C([H])(n3nc(-c4c([H])c([H])c(Oc5c([H])c([H])c(F)c([H])c5F)c([H])c4[H])c(C(=O)N([H])[H])c3N([H])[H])C2([H])[H])(C([H])([H])[H])C([H])([H])[H])c1[H]

$$$$
16:0:0
     RDKit          3D

100108  0  0  1  0  0  0  0  0999 V2000
  -30.2020  -21.3850   21.0750 C   0  0  0  0  0  0  0  0  0  0  0  0
  -29.6550  -23.4150   21.3530 C   0  0  0  0  0  0  0  0  0  0  0  0
  -29.4460  -21.4180   22.1800 N   0  0  0  0  0  0  0  0  0  0  0  0
  -29.0670  -22.7160   22.3360 N   0  0  0  0  0  0  0  0  0  0  0  0
  -30.3350  -22.6030   20.4870 N   0  0  0  0  0  0  0  0  0  0  0  0
  -30.8800  -25.6660   21.1660 C   0  0  0  0  0  1  0  0  0  0  0  0
  -28.9230  -25.4540   22.6410 C   0  0  0  0  0  1  0  0  0  0  0  0
  -29.5160  -24.9480   21.2980 C   0  0  2  0  0  0  0  0  0  0  0  0
  -28.5480  -25.4100   20.1800 C   0  0  0  0  0  2  0  0  0  0  0  0
  -28.5130  -26.8400   20.1620 O   0  0  0  0  0  0  0  0  0  0  0  0
  -24.5880  -31.8810   23.2410 C   0  0  0  0  0  0  0  0  0  0  0  0
  -27.3000  -27.4890   20.1680 C   0  0  0  0  0  0  0  0  0  0  0  0
  -23.4050  -30.4780   21.5770 C   0  0  0  0  0  3  0  0  0  0  0  0
  -24.8840  -28.9530   20.1660 C   0  0  0  0  0  0  0  0  0  0  0  0
  -25.9270  -30.8610   21.4050 C   0  0  0  0  0  2  0  0  0  0  0  0
  -26.0280  -29.4910   20.7670 C   0  0  0  0  0  0  0  0  0  0  0  0
  -27.2380  -28.7660   20.7640 C   0  0  0  0  0  3  0  0  0  0  0  0
  -26.1410  -26.9550   19.5640 C   0  0  0  0  0  3  0  0  0  0  0  0
  -24.9340  -27.6810   19.5650 C   0  0  0  0  0  3  0  0  0  0  0  0
  -23.6340  -29.8030   20.1980 C   0  0  0  0  0  2  0  0  0  0  0  0
  -24.6570  -31.0890   22.1340 N   0  0  0  0  0  0  0  0  0  0  0  0
  -23.4990  -32.1450   23.7710 O   0  0  0  0  0  0  0  0  0  0  0  0
  -22.7540  -29.4490   22.5270 C   0  0  0  0  0  0  0  0  0  0  0  0
  -21.4310  -29.2710   22.3960 N   0  0  0  0  0  0  0  0  0  0  0  0
  -23.4390  -28.8120   23.3330 O   0  0  0  0  0  0  0  0  0  0  0  0
  -20.9410  -29.8410   21.7220 H   0  0  0  0  0  0  0  0  0  0  0  0
  -18.0480  -28.1070   22.8920 C   0  0  0  0  0  0  0  0  0  0  0  0
  -20.6090  -28.3260   23.1520 C   0  0  0  0  0  3  0  0  0  0  0  0
  -20.6900  -26.9070   22.5440 C   0  0  0  0  0  2  0  0  0  0  0  0
  -19.5760  -26.6190   21.5310 C   0  0  0  0  0  2  0  0  0  0  0  0
  -18.2010  -26.7690   22.1890 C   0  0  0  0  0  2  0  0  0  0  0  0
  -19.1780  -28.8450   23.3300 C   0  0  0  0  0  0  0  0  0  0  0  0
  -18.9820  -30.1000   23.9460 C   0  0  0  0  0  3  0  0  0  0  0  0
  -17.6850  -30.6170   24.1280 C   0  0  0  0  0  3  0  0  0  0  0  0
  -16.5680  -29.8740   23.7090 C   0  0  0  0  0  3  0  0  0  0  0  0
  -16.7490  -28.6200   23.0970 C   0  0  0  0  0  3  0  0  0  0  0  0
  -25.8640  -32.5170   23.8750 C   0  0  0  0  0  3  0  0  0  0  0  0
  -26.3670  -31.7500   25.1600 C   0  0  1  0  0  0  0  0  0  0  0  0
  -25.2610  -31.5130   26.2160 C   0  0  0  0  0  1  0  0  0  0  0  0
  -26.9570  -30.3730   24.7760 C   0  0  0  0  0  1  0  0  0  0  0  0
  -27.5050  -32.5490   25.8370 C   0  0  0  0  0  1  0  0  0  0  0  0
  -25.5510  -33.9150   24.1940 N   0  0  0  0  0  0  0  0  0  0  0  0
  -25.8940  -34.9640   23.4320 C   0  0  0  0  0  0  0  0  0  0  0  0
  -26.5810  -34.8540   22.4140 O   0  0  0  0  0  0  0  0  0  0  0  0
  -24.9470  -34.0750   24.9870 H   0  0  0  0  0  0  0  0  0  0  0  0
  -24.1700  -36.7510   23.0370 C   0  0  0  0  0  1  0  0  0  0  0  0
  -25.3960  -36.3530   23.8740 C   0  0  0  0  0  3  0  0  0  0  0  0
  -27.5140  -37.2450   24.7400 C   0  0  0  0  0  1  0  0  0  0  0  0
  -26.4300  -37.4070   23.7750 N   0  0  0  0  0  0  0  0  0  0  0  0
  -26.0190  -38.3270   23.9120 H   0  0  0  0  0  0  0  0  0  0  0  0
  -32.3680  -20.0620   21.0440 C   0  0  0  0  0  1  0  0  0  0  0  0
  -30.8960  -20.1210   20.5890 C   0  0  0  0  0  3  0  0  0  0  0  0
  -30.1090  -19.0350   21.2170 N   0  0  0  0  0  4  0  0  0  0  0  0
  -30.3560  -19.0000   22.1920 H   0  0  0  0  0  0  0  0  0  0  0  0
  -29.1480  -19.3440   21.1900 H   0  0  0  0  0  0  0  0  0  0  0  0
  -30.1860  -17.6850   20.6180 C   0  0  0  0  0  2  0  0  0  0  0  0
  -30.5810  -16.6290   21.6750 C   0  0  0  0  0  2  0  0  0  0  0  0
  -30.7660  -14.4400   20.4430 C   0  0  0  0  0  0  0  0  0  0  0  0
  -30.4240  -12.3720   19.1480 C   0  0  0  0  0  2  0  0  0  0  0  0
  -29.4700  -12.6560   17.9710 C   0  0  0  0  0  2  0  0  0  0  0  0
  -27.9900  -12.5380   18.4010 C   0  0  0  0  0  2  0  0  0  0  0  0
  -27.6810  -13.2960   19.7200 C   0  0  0  0  0  3  0  0  0  0  0  0
  -28.7410  -12.9730   20.7930 C   0  0  0  0  0  2  0  0  0  0  0  0
  -30.0720  -13.2920   20.2350 N   0  0  0  0  0  0  0  0  0  0  0  0
  -31.8160  -14.7350   19.8680 O   0  0  0  0  0  0  0  0  0  0  0  0
  -30.1720  -15.2810   21.2970 N   0  0  0  0  0  0  0  0  0  0  0  0
  -29.3200  -14.9350   21.7130 H   0  0  0  0  0  0  0  0  0  0  0  0
  -25.2720  -13.8970   20.4150 C   0  0  0  0  0  0  0  0  0  0  0  0
  -24.2090  -13.1250   20.7980 C   0  0  0  0  0  0  0  0  0  0  0  0
  -24.6760  -11.7750   20.7800 C   0  0  0  0  0  0  0  0  0  0  0  0
  -26.3240  -13.0200   20.1960 N   0  0  0  0  0  0  0  0  0  0  0  0
  -25.9670  -11.7390   20.4680 N   0  0  0  0  0  0  0  0  0  0  0  0
  -23.9570  -10.5130   20.9820 C   0  0  0  0  0  0  0  0  0  0  0  0
  -24.3900   -9.5560   21.9260 C   0  0  0  0  0  3  0  0  0  0  0  0
  -23.6700   -8.3570   22.1180 C   0  0  0  0  0  3  0  0  0  0  0  0
  -22.4990   -8.1050   21.3630 C   0  0  0  0  0  0  0  0  0  0  0  0
  -22.0830   -9.0530   20.4110 C   0  0  0  0  0  3  0  0  0  0  0  0
  -22.8070  -10.2410   20.2170 C   0  0  0  0  0  3  0  0  0  0  0  0
  -21.7490   -6.9560   21.4640 O   0  0  0  0  0  0  0  0  0  0  0  0
  -21.7050   -6.2240   22.6220 C   0  0  0  0  0  0  0  0  0  0  0  0
  -21.2710   -6.7870   23.8420 C   0  0  0  0  0  3  0  0  0  0  0  0
  -21.1700   -5.9800   24.9930 C   0  0  0  0  0  3  0  0  0  0  0  0
  -21.4930   -4.6110   24.9260 C   0  0  0  0  0  0  0  0  0  0  0  0
  -21.9180   -4.0490   23.7100 C   0  0  0  0  0  3  0  0  0  0  0  0
  -22.0210   -4.8530   22.5620 C   0  0  0  0  0  0  0  0  0  0  0  0
  -22.4080   -4.2990   21.3880 F   0  0  0  0  0  0  0  0  0  0  0  0
  -21.3910   -3.8340   26.0310 F   0  0  0  0  0  0  0  0  0  0  0  0
  -22.8100  -13.6010   21.0730 C   0  0  0  0  0  0  0  0  0  0  0  0
  -22.0840  -12.9100   21.9470 N   0  0  0  0  0  0  0  0  0  0  0  0
  -22.3690  -14.6240   20.5540 O   0  0  0  0  0  0  0  0  0  0  0  0
  -22.4520  -12.0840   22.3940 H   0  0  0  0  0  0  0  0  0  0  0  0
  -21.1500  -13.2190   22.1750 H   0  0  0  0  0  0  0  0  0  0  0  0
  -25.4290  -15.2650   20.2180 N   0  0  0  0  0  0  0  0  0  0  0  0
  -24.6490  -15.9100   20.2890 H   0  0  0  0  0  0  0  0  0  0  0  0
  -26.2650  -15.6940   19.8410 H   0  0  0  0  0  0  0  0  0  0  0  0
  -31.0640  -22.9000   19.2540 C   0  0  0  0  0  2  0  0  0  0  0  0
  -30.1760  -22.8260   17.9970 C   0  0  0  0  0  2  0  0  0  0  0  0
  -30.6700  -25.0890   16.8990 C   0  0  0  0  0  1  0  0  0  0  0  0
  -30.1440  -23.0710   15.4800 C   0  0  0  0  0  1  0  0  0  0  0  0
  -30.7870  -23.5590   16.7850 C   0  0  0  0  0  3  0  0  0  0  0  0
  1  3  2  0
  2  4  2  0
  3  4  1  0
  5  1  1  0
  5  2  1  0
  8  6  1  6
  8  2  1  0
  8  7  1  0
  9  8  1  0
 10 12  1  0
 10  9  1  0
 11 22  2  0
 12 17  1  0
 13 21  1  0
 13 23  1  0
 14 20  1  0
 14 16  1  0
 15 21  1  0
 16 15  1  0
 17 16  2  0
 18 19  1  0
 18 12  2  0
 19 14  2  0
 20 13  1  0
 21 11  1  0
 23 25  2  0
 24 23  1  0
 26 24  1  0
 27 36  2  0
 27 32  1  0
 28 24  1  0
 28 32  1  0
 29 28  1  0
 30 31  1  0
 30 29  1  0
 31 27  1  0
 32 33  2  0
 33 34  1  0
 35 34  2  0
 36 35  1  0
 37 11  1  0
 37 42  1  0
 37 38  1  0
 38 41  1  1
 38 39  1  0
 40 38  1  0
 42 45  1  0
 43 47  1  0
 43 42  1  0
 44 43  2  0
 47 46  1  0
 49 47  1  0
 49 50  1  0
 49 48  1  0
 52 51  1  0
 52  1  1  0
 52 53  1  0
 53 54  1  0
 55 53  1  0
 56 53  1  0
 56 57  1  0
 58 66  1  0
 59 64  1  0
 60 61  1  0
 60 59  1  0
 62 61  1  0
 62 71  1  0
 62 63  1  0
 64 58  1  0
 64 63  1  0
 65 58  2  0
 66 57  1  0
 66 67  1  0
 68 69  2  0
 69 88  1  0
 70 69  1  0
 70 73  1  0
 71 68  1  0
 71 72  1  0
 72 70  2  0
 73 74  1  0
 74 75  2  0
 76 79  1  0
 76 75  1  0
 77 76  2  0
 78 77  1  0
 78 73  2  0
 79 80  1  0
 80 81  1  0
 81 82  2  0
 83 82  1  0
 83 87  1  0
 84 83  2  0
 85 80  2  0
 85 84  1  0
 86 85  1  0
 88 89  1  0
 89 92  1  0
 89 91  1  0
 90 88  2  0
 93 94  1  0
 93 68  1  0
 95 93  1  0
 96  5  1  0
 97 96  1  0
 99100  1  0
100 98  1  0
100 97  1  0
M  ISO  4   9 101  10 101  58 100  66 100
M  END
>  <TORSDO>  (16) 
F 25

>  <SCORE>  (16) 
-12.775

>  <name>  (16) 
16

>  <ligand_id>  (16) 
16

>  <original_smiles>  (16) 
[H]c1c([H])c([H])c2c(c1[H])C([H])([H])C([H])([H])C([H])([H])C2([H])N([H])C(=O)C1([H])N(C(=O)C([H])(N([H])C(=O)C([H])(N([H])C([H])([H])[H])C([H])([H])[H])C(C([H])([H])[H])(C([H])([H])[H])C([H])([H])[H])C([H])([H])c2c([H])c(OC([H])([H])C(c3nnc(C([H])(C([H])([H])[H])[N+]([H])([H])C([H])([H])C([H])([H])N([H])C(=O)N4C([H])([H])C([H])([H])C([H])([H])C([H])(n5nc(-c6c([H])c([H])c(Oc7c([H])c([H])c(F)c([H])c7F)c([H])c6[H])c(C(=O)N([H])[H])c5N([H])[H])C4([H])[H])n3C([H])([H])C([H])([H])C([H])(C([H])([H])[H])C([H])([H])[H])(C([H])([H])[H])C([H])([H])[H])c([H])c([H])c2C1([H])[H]

>  <smiles>  (16) 
[H]c1c([H])c([H])c2c(c1[H])C([H])([H])C([H])([H])C([H])([H])C2([H])N([H])C(=O)C1([H])N(C(=O)C([H])(N([H])C(=O)C([H])(N([H])C([H])([H])[H])C([H])([H])[H])C(C([H])([H])[H])(C([H])([H])[H])C([H])([H])[H])C([H])([H])c2c([H])c(OC([H])([H])C(c3nnc(C([H])(C([H])([H])[H])[N+]([H])([H])C([H])([H])C([H])([H])N([H])C(=O)N4C([H])([H])C([H])([H])C([H])([H])C([H])(n5nc(-c6c([H])c([H])c(Oc7c([H])c([H])c(F)c([H])c7F)c([H])c6[H])c(C(=O)N([H])[H])c5N([H])[H])C4([H])[H])n3C([H])([H])C([H])([H])C([H])(C([H])([H])[H])C([H])([H])[H])(C([H])([H])[H])C([H])([H])[H])c([H])c([H])c2C1([H])[H]

$$$$
17:0:0
     RDKit          3D

 91 99  0  0  1  0  0  0  0  0999 V2000
  -29.3840  -21.6110   18.2050 C   0  0  0  0  0  3  0  0  0  0  0  0
  -28.8730  -21.0410   19.3260 C   0  0  0  0  0  0  0  0  0  0  0  0
  -30.9550  -20.2930   19.2030 C   0  0  0  0  0  3  0  0  0  0  0  0
  -30.7000  -21.1930   18.0820 N   0  0  0  0  0  0  0  0  0  0  0  0
  -29.8200  -20.2830   19.9090 N   0  0  0  0  0  0  0  0  0  0  0  0
  -27.6170  -21.2010   19.8110 F   0  0  0  0  0  0  0  0  0  0  0  0
  -29.6920  -19.7840   20.7790 H   0  0  0  0  0  0  0  0  0  0  0  0
  -31.6440  -19.0510   21.3730 C   0  0  0  0  0  1  0  0  0  0  0  0
  -32.0850  -19.3590   19.9350 C   0  0  0  0  0  3  0  0  0  0  0  0
  -34.8770  -19.1140   20.0120 C   0  0  0  0  0  0  0  0  0  0  0  0
  -37.0790  -19.1600   21.2660 C   0  0  0  0  0  2  0  0  0  0  0  0
  -36.8510  -19.6870   22.7010 C   0  0  0  0  0  2  0  0  0  0  0  0
  -36.9120  -21.2250   22.7350 C   0  0  0  0  0  2  0  0  0  0  0  0
  -36.1010  -21.8730   21.5830 C   0  0  0  0  0  3  0  0  0  0  0  0
  -36.3610  -21.1970   20.2210 C   0  0  0  0  0  2  0  0  0  0  0  0
  -36.0450  -19.7750   20.3880 N   0  0  0  0  0  0  0  0  0  0  0  0
  -34.9370  -17.8800   19.9520 O   0  0  0  0  0  0  0  0  0  0  0  0
  -33.6280  -19.8060   19.9260 N   0  0  0  0  0  0  0  0  0  0  0  0
  -33.7620  -20.7980   20.0470 H   0  0  0  0  0  0  0  0  0  0  0  0
  -35.4510  -24.2470   20.9160 C   0  0  0  0  0  0  0  0  0  0  0  0
  -35.9890  -25.4690   21.2080 C   0  0  0  0  0  0  0  0  0  0  0  0
  -37.1550  -25.2100   21.9910 C   0  0  0  0  0  0  0  0  0  0  0  0
  -36.2720  -23.3190   21.5250 N   0  0  0  0  0  0  0  0  0  0  0  0
  -37.3460  -23.9030   22.1190 N   0  0  0  0  0  0  0  0  0  0  0  0
  -38.0660  -26.1340   22.6770 C   0  0  0  0  0  0  0  0  0  0  0  0
  -39.2420  -26.6070   22.0560 C   0  0  0  0  0  3  0  0  0  0  0  0
  -40.0920  -27.5110   22.7290 C   0  0  0  0  0  3  0  0  0  0  0  0
  -39.7660  -27.9550   24.0330 C   0  0  0  0  0  0  0  0  0  0  0  0
  -38.6030  -27.4650   24.6540 C   0  0  0  0  0  3  0  0  0  0  0  0
  -37.7600  -26.5630   23.9840 C   0  0  0  0  0  3  0  0  0  0  0  0
  -40.5470  -28.8080   24.7750 O   0  0  0  0  0  0  0  0  0  0  0  0
  -40.6710  -30.1360   24.4500 C   0  0  0  0  0  0  0  0  0  0  0  0
  -39.5940  -31.0400   24.5820 C   0  0  0  0  0  3  0  0  0  0  0  0
  -39.7840  -32.4080   24.3030 C   0  0  0  0  0  3  0  0  0  0  0  0
  -41.0500  -32.8750   23.9000 C   0  0  0  0  0  0  0  0  0  0  0  0
  -42.1250  -31.9770   23.7740 C   0  0  0  0  0  3  0  0  0  0  0  0
  -41.9350  -30.6130   24.0480 C   0  0  0  0  0  0  0  0  0  0  0  0
  -42.9780  -29.7540   23.9440 F   0  0  0  0  0  0  0  0  0  0  0  0
  -41.2380  -34.1880   23.6410 F   0  0  0  0  0  0  0  0  0  0  0  0
  -35.3950  -26.8040   20.8730 C   0  0  0  0  0  0  0  0  0  0  0  0
  -36.1190  -27.6270   20.1210 N   0  0  0  0  0  0  0  0  0  0  0  0
  -34.2620  -27.1100   21.2430 O   0  0  0  0  0  0  0  0  0  0  0  0
  -37.0460  -27.3740   19.8080 H   0  0  0  0  0  0  0  0  0  0  0  0
  -35.7410  -28.5260   19.8610 H   0  0  0  0  0  0  0  0  0  0  0  0
  -34.3150  -23.8460   20.2200 N   0  0  0  0  0  0  0  0  0  0  0  0
  -33.6570  -24.5220   19.8440 H   0  0  0  0  0  0  0  0  0  0  0  0
  -33.9050  -22.9300   20.3430 H   0  0  0  0  0  0  0  0  0  0  0  0
  -31.4520  -21.7670   16.7690 C   0  0  0  0  0  2  0  0  0  0  0  0
  -31.4640  -23.4340   16.3300 C   0  0  0  0  0  2  0  0  0  0  0  0
  -30.5720  -24.2380   15.1190 C   0  0  0  0  0  2  0  0  0  0  0  0
  -31.0290  -24.8910   13.7630 O   0  0  0  0  0  0  0  0  0  0  0  0
  -32.3860  -29.9940    8.6260 C   0  0  0  0  0  0  0  0  0  0  0  0
  -31.1630  -26.2900   13.4210 C   0  0  0  0  0  0  0  0  0  0  0  0
  -32.7940  -30.6110   10.9770 C   0  0  0  0  0  3  0  0  0  0  0  0
  -31.7590  -29.0650   12.7570 C   0  0  0  0  0  0  0  0  0  0  0  0
  -30.9640  -28.8970   10.4020 C   0  0  0  0  0  2  0  0  0  0  0  0
  -31.1820  -28.2430   11.7820 C   0  0  0  0  0  0  0  0  0  0  0  0
  -30.8710  -26.8720   12.1170 C   0  0  0  0  0  3  0  0  0  0  0  0
  -31.6780  -27.2060   14.3640 C   0  0  0  0  0  3  0  0  0  0  0  0
  -31.9810  -28.5510   14.0450 C   0  0  0  0  0  3  0  0  0  0  0  0
  -32.1320  -30.4920   12.3780 C   0  0  0  0  0  2  0  0  0  0  0  0
  -32.0600  -29.8130    9.9430 N   0  0  0  0  0  0  0  0  0  0  0  0
  -33.2550  -30.8090    8.2800 O   0  0  0  0  0  0  0  0  0  0  0  0
  -34.2910  -30.2310   11.0870 C   0  0  0  0  0  0  0  0  0  0  0  0
  -35.1810  -31.1040   10.5810 N   0  0  0  0  0  0  0  0  0  0  0  0
  -34.6320  -29.1840   11.6400 O   0  0  0  0  0  0  0  0  0  0  0  0
  -34.8260  -31.9400   10.1420 H   0  0  0  0  0  0  0  0  0  0  0  0
  -38.2560  -31.9110    8.8420 C   0  0  0  0  0  0  0  0  0  0  0  0
  -36.6400  -30.9630   10.6250 C   0  0  0  0  0  3  0  0  0  0  0  0
  -37.2640  -31.9950   11.5920 C   0  0  0  0  0  2  0  0  0  0  0  0
  -37.7020  -33.2870   10.8950 C   0  0  0  0  0  2  0  0  0  0  0  0
  -38.7340  -32.9870    9.8030 C   0  0  0  0  0  2  0  0  0  0  0  0
  -37.2600  -30.9720    9.2230 C   0  0  0  0  0  0  0  0  0  0  0  0
  -36.8300  -30.0110    8.2840 C   0  0  0  0  0  3  0  0  0  0  0  0
  -37.3690  -29.9840    6.9840 C   0  0  0  0  0  3  0  0  0  0  0  0
  -38.3610  -30.9090    6.6150 C   0  0  0  0  0  3  0  0  0  0  0  0
  -38.8090  -31.8640    7.5440 C   0  0  0  0  0  3  0  0  0  0  0  0
  -31.6670  -29.2030    7.4890 C   0  0  0  0  0  3  0  0  0  0  0  0
  -32.6400  -28.2540    6.6860 C   0  0  1  0  0  0  0  0  0  0  0  0
  -33.1530  -28.8720    5.3640 C   0  0  0  0  0  1  0  0  0  0  0  0
  -33.8760  -27.8850    7.5380 C   0  0  0  0  0  1  0  0  0  0  0  0
  -31.9210  -26.9260    6.3500 C   0  0  0  0  0  1  0  0  0  0  0  0
  -31.0440  -30.1820    6.5860 N   0  0  0  0  0  0  0  0  0  0  0  0
  -29.9980  -30.9570    6.9050 C   0  0  0  0  0  0  0  0  0  0  0  0
  -29.4110  -30.8720    7.9870 O   0  0  0  0  0  0  0  0  0  0  0  0
  -31.5100  -30.3500    5.7050 H   0  0  0  0  0  0  0  0  0  0  0  0
  -30.6560  -32.9940    5.5820 C   0  0  0  0  0  1  0  0  0  0  0  0
  -29.5270  -31.9890    5.8620 C   0  0  0  0  0  3  0  0  0  0  0  0
  -27.0750  -32.1040    5.7520 C   0  0  0  0  0  1  0  0  0  0  0  0
  -28.3000  -32.7150    6.2620 N   0  0  0  0  0  0  0  0  0  0  0  0
  -28.3320  -33.6800    5.9400 H   0  0  0  0  0  0  0  0  0  0  0  0
  1  2  2  0
  2  6  1  0
  2  5  1  0
  3  5  1  0
  3  9  1  0
  4  1  1  0
  4  3  1  0
  5  7  1  0
  9  8  1  0
 10 16  1  0
 11 12  1  0
 12 13  1  0
 14 15  1  0
 14 13  1  0
 15 16  1  0
 16 11  1  0
 17 10  2  0
 18  9  1  0
 18 10  1  0
 18 19  1  0
 20 21  2  0
 20 23  1  0
 21 22  1  0
 22 24  2  0
 22 25  1  0
 23 14  1  0
 23 24  1  0
 25 30  1  0
 26 25  2  0
 26 27  1  0
 27 28  2  0
 28 29  1  0
 28 31  1  0
 30 29  2  0
 32 33  1  0
 32 31  1  0
 34 33  2  0
 35 34  1  0
 36 35  2  0
 36 37  1  0
 37 32  2  0
 38 37  1  0
 39 35  1  0
 40 21  1  0
 40 42  2  0
 41 40  1  0
 43 41  1  0
 44 41  1  0
 45 47  1  0
 45 20  1  0
 46 45  1  0
 48  4  1  0
 49 48  1  0
 50 49  1  0
 51 50  1  0
 52 62  1  0
 53 51  1  0
 53 59  1  0
 54 64  1  0
 54 61  1  0
 55 60  1  0
 56 57  1  0
 57 58  1  0
 57 55  2  0
 58 53  2  0
 60 59  2  0
 61 55  1  0
 62 56  1  0
 62 54  1  0
 63 52  2  0
 64 66  2  0
 65 64  1  0
 67 65  1  0
 68 73  1  0
 68 72  1  0
 69 65  1  0
 69 70  1  0
 71 70  1  0
 72 71  1  0
 73 69  1  0
 74 73  2  0
 75 74  1  0
 76 75  2  0
 76 77  1  0
 77 68  2  0
 78 52  1  0
 79 78  1  0
 79 81  1  1
 80 79  1  0
 82 79  1  0
 83 84  1  0
 83 78  1  0
 84 85  2  0
 86 83  1  0
 88 87  1  0
 88 90  1  0
 88 84  1  0
 89 90  1  0
 91 90  1  0
M  ISO  4  10 100  18 100  50 101  51 101
M  END
>  <TORSDO>  (17) 
F 20

>  <SCORE>  (17) 
-3.981

>  <name>  (17) 
17

>  <ligand_id>  (17) 
17

>  <original_smiles>  (17) 
[H]c1c([H])c([H])c2c(c1[H])C([H])([H])C([H])([H])C([H])([H])C2([H])N([H])C(=O)C1([H])N(C(=O)C([H])(N([H])C(=O)C([H])(N([H])C([H])([H])[H])C([H])([H])[H])C(C([H])([H])[H])(C([H])([H])[H])C([H])([H])[H])C([H])([H])c2c([H])c(OC([H])([H])C([H])([H])C([H])([H])n3c([H])c(F)[n+]([H])c3C([H])(N([H])C(=O)N3C([H])([H])C([H])([H])C([H])([H])C([H])(n4nc(-c5c([H])c([H])c(Oc6c([H])c([H])c(F)c([H])c6F)c([H])c5[H])c(C(=O)N([H])[H])c4N([H])[H])C3([H])[H])C([H])([H])[H])c([H])c([H])c2C1([H])[H]

>  <smiles>  (17) 
[H]c1c([H])c([H])c2c(c1[H])C([H])([H])C([H])([H])C([H])([H])C2([H])N([H])C(=O)C1([H])N(C(=O)C([H])(N([H])C(=O)C([H])(N([H])C([H])([H])[H])C([H])([H])[H])C(C([H])([H])[H])(C([H])([H])[H])C([H])([H])[H])C([H])([H])c2c([H])c(OC([H])([H])C([H])([H])C([H])([H])n3c([H])c(F)[n+]([H])c3C([H])(N([H])C(=O)N3C([H])([H])C([H])([H])C([H])([H])C([H])(n4nc(-c5c([H])c([H])c(Oc6c([H])c([H])c(F)c([H])c6F)c([H])c5[H])c(C(=O)N([H])[H])c4N([H])[H])C3([H])[H])C([H])([H])[H])c([H])c([H])c2C1([H])[H]

$$$$
18:0:0
     RDKit          3D

 93101  0  0  1  0  0  0  0  0999 V2000
  -30.7840  -21.1640   20.8480 C   0  0  0  0  0  2  0  0  0  0  0  0
  -30.6720  -17.6260   19.8290 C   0  0  0  0  0  3  0  0  0  0  0  0
  -30.9340  -16.9130   21.0290 C   0  0  0  0  0  0  0  0  0  0  0  0
  -31.2880  -18.9490   22.1120 C   0  0  0  0  0  0  0  0  0  0  0  0
  -30.9840  -19.6490   20.9150 C   0  0  0  0  0  0  0  0  0  0  0  0
  -31.5570  -19.6130   23.4480 C   0  0  0  0  0  1  0  0  0  0  0  0
  -30.7160  -18.9800   19.7650 N   0  0  0  0  0  0  0  0  0  0  0  0
  -31.2700  -17.5950   22.1580 N   0  0  0  0  0  0  0  0  0  0  0  0
  -29.0050  -15.6270   21.7180 C   0  0  0  0  0  1  0  0  0  0  0  0
  -31.3160  -14.7650   22.3430 C   0  0  0  0  0  1  0  0  0  0  0  0
  -30.4730  -15.4490   21.2390 C   0  0  2  0  0  0  0  0  0  0  0  0
  -30.7010  -14.5560   19.9520 C   0  0  0  0  0  0  0  0  0  0  0  0
  -30.2030  -12.6420   18.4360 C   0  0  0  0  0  2  0  0  0  0  0  0
  -29.0970  -12.9550   17.4020 C   0  0  0  0  0  2  0  0  0  0  0  0
  -27.6850  -12.7460   17.9840 C   0  0  0  0  0  2  0  0  0  0  0  0
  -27.5300  -13.4140   19.3710 C   0  0  0  0  0  3  0  0  0  0  0  0
  -28.7070  -12.9860   20.2820 C   0  0  0  0  0  2  0  0  0  0  0  0
  -29.9530  -13.4470   19.6500 N   0  0  0  0  0  0  0  0  0  0  0  0
  -31.6640  -14.8490   19.2320 O   0  0  0  0  0  0  0  0  0  0  0  0
  -25.2080  -13.9900   20.3270 C   0  0  0  0  0  0  0  0  0  0  0  0
  -24.1790  -13.1940   20.7590 C   0  0  0  0  0  0  0  0  0  0  0  0
  -24.6380  -11.8500   20.6170 C   0  0  0  0  0  0  0  0  0  0  0  0
  -26.2300  -13.1220   19.9660 N   0  0  0  0  0  0  0  0  0  0  0  0
  -25.8920  -11.8290   20.1880 N   0  0  0  0  0  0  0  0  0  0  0  0
  -23.9370  -10.5770   20.8090 C   0  0  0  0  0  0  0  0  0  0  0  0
  -24.4650   -9.5600   21.6350 C   0  0  0  0  0  3  0  0  0  0  0  0
  -23.7620   -8.3500   21.8170 C   0  0  0  0  0  3  0  0  0  0  0  0
  -22.5180   -8.1470   21.1740 C   0  0  0  0  0  0  0  0  0  0  0  0
  -22.0110   -9.1520   20.3330 C   0  0  0  0  0  3  0  0  0  0  0  0
  -22.7130  -10.3540   20.1480 C   0  0  0  0  0  3  0  0  0  0  0  0
  -21.7760   -6.9950   21.2770 O   0  0  0  0  0  0  0  0  0  0  0  0
  -21.8580   -6.1840   22.3770 C   0  0  0  0  0  0  0  0  0  0  0  0
  -21.6000   -6.6650   23.6790 C   0  0  0  0  0  3  0  0  0  0  0  0
  -21.6280   -5.7810   24.7760 C   0  0  0  0  0  3  0  0  0  0  0  0
  -21.9030   -4.4140   24.5740 C   0  0  0  0  0  0  0  0  0  0  0  0
  -22.1520   -3.9330   23.2770 C   0  0  0  0  0  3  0  0  0  0  0  0
  -22.1280   -4.8150   22.1820 C   0  0  0  0  0  0  0  0  0  0  0  0
  -22.3490   -4.3390   20.9330 F   0  0  0  0  0  0  0  0  0  0  0  0
  -21.9230   -3.5620   25.6260 F   0  0  0  0  0  0  0  0  0  0  0  0
  -22.8160  -13.6460   21.1940 C   0  0  0  0  0  0  0  0  0  0  0  0
  -22.1900  -12.9010   22.1010 N   0  0  0  0  0  0  0  0  0  0  0  0
  -22.3170  -14.6870   20.7690 O   0  0  0  0  0  0  0  0  0  0  0  0
  -22.6090  -12.0520   22.4520 H   0  0  0  0  0  0  0  0  0  0  0  0
  -21.2790  -13.1710   22.4450 H   0  0  0  0  0  0  0  0  0  0  0  0
  -25.3490  -15.3680   20.1980 N   0  0  0  0  0  0  0  0  0  0  0  0
  -24.5970  -16.0090   20.4230 H   0  0  0  0  0  0  0  0  0  0  0  0
  -26.1580  -15.8290   19.8030 H   0  0  0  0  0  0  0  0  0  0  0  0
  -32.0590  -22.0160   20.6820 C   0  0  0  0  0  2  0  0  0  0  0  0
  -31.8240  -23.4010   20.0140 C   0  0  0  0  0  2  0  0  0  0  0  0
  -30.5750  -24.2170   20.4590 C   0  0  0  0  0  2  0  0  0  0  0  0
  -30.1260  -25.2490   19.3900 C   0  0  0  0  0  2  0  0  0  0  0  0
  -28.6320  -25.6740   19.4050 C   0  0  0  0  0  2  0  0  0  0  0  0
  -28.4260  -26.8420   20.1990 O   0  0  0  0  0  0  0  0  0  0  0  0
  -24.5690  -31.9610   23.2360 C   0  0  0  0  0  0  0  0  0  0  0  0
  -27.2100  -27.5030   20.1630 C   0  0  0  0  0  0  0  0  0  0  0  0
  -23.3490  -30.5560   21.6050 C   0  0  0  0  0  3  0  0  0  0  0  0
  -24.7920  -28.9950   20.1850 C   0  0  0  0  0  0  0  0  0  0  0  0
  -25.8740  -30.8980   21.3980 C   0  0  0  0  0  2  0  0  0  0  0  0
  -25.9500  -29.5230   20.7680 C   0  0  0  0  0  0  0  0  0  0  0  0
  -27.1500  -28.7800   20.7640 C   0  0  0  0  0  3  0  0  0  0  0  0
  -26.0330  -26.9800   19.5740 C   0  0  0  0  0  3  0  0  0  0  0  0
  -24.8300  -27.7190   19.5900 C   0  0  0  0  0  3  0  0  0  0  0  0
  -23.5480  -29.8560   20.2320 C   0  0  0  0  0  2  0  0  0  0  0  0
  -24.6140  -31.1550   22.1370 N   0  0  0  0  0  0  0  0  0  0  0  0
  -23.4950  -32.2410   23.7830 O   0  0  0  0  0  0  0  0  0  0  0  0
  -22.6940  -29.5510   22.5780 C   0  0  0  0  0  0  0  0  0  0  0  0
  -21.3680  -29.3780   22.4560 N   0  0  0  0  0  0  0  0  0  0  0  0
  -23.3780  -28.9270   23.3950 O   0  0  0  0  0  0  0  0  0  0  0  0
  -20.8800  -29.9280   21.7620 H   0  0  0  0  0  0  0  0  0  0  0  0
  -17.9870  -28.2080   22.9740 C   0  0  0  0  0  0  0  0  0  0  0  0
  -20.5470  -28.4520   23.2360 C   0  0  0  0  0  3  0  0  0  0  0  0
  -20.6400  -27.0160   22.6700 C   0  0  0  0  0  2  0  0  0  0  0  0
  -19.5330  -26.6930   21.6620 C   0  0  0  0  0  2  0  0  0  0  0  0
  -18.1530  -26.8520   22.3090 C   0  0  0  0  0  2  0  0  0  0  0  0
  -19.1120  -28.9660   23.3960 C   0  0  0  0  0  0  0  0  0  0  0  0
  -18.9030  -30.2350   23.9770 C   0  0  0  0  0  3  0  0  0  0  0  0
  -17.6020  -30.7450   24.1420 C   0  0  0  0  0  3  0  0  0  0  0  0
  -16.4920  -29.9860   23.7330 C   0  0  0  0  0  3  0  0  0  0  0  0
  -16.6850  -28.7190   23.1550 C   0  0  0  0  0  3  0  0  0  0  0  0
  -25.8630  -32.5870   23.8450 C   0  0  0  0  0  3  0  0  0  0  0  0
  -25.5640  -33.9840   24.1830 N   0  0  0  0  0  0  0  0  0  0  0  0
  -25.8970  -35.0390   23.4240 C   0  0  0  0  0  0  0  0  0  0  0  0
  -26.5600  -34.9370   22.3890 O   0  0  0  0  0  0  0  0  0  0  0  0
  -24.9830  -34.1410   24.9930 H   0  0  0  0  0  0  0  0  0  0  0  0
  -24.1770  -36.8420   23.0740 C   0  0  0  0  0  1  0  0  0  0  0  0
  -25.4160  -36.4280   23.8850 C   0  0  0  0  0  3  0  0  0  0  0  0
  -27.5580  -37.2980   24.7140 C   0  0  0  0  0  1  0  0  0  0  0  0
  -26.4540  -37.4770   23.7740 N   0  0  0  0  0  0  0  0  0  0  0  0
  -26.0520  -38.4000   23.9200 H   0  0  0  0  0  0  0  0  0  0  0  0
  -26.3980  -31.8070   25.1100 C   0  0  1  0  0  0  0  0  0  0  0  0
  -25.3180  -31.5590   26.1890 C   0  0  0  0  0  1  0  0  0  0  0  0
  -26.9760  -30.4320   24.7060 C   0  0  0  0  0  1  0  0  0  0  0  0
  -27.5540  -32.6010   25.7610 C   0  0  0  0  0  1  0  0  0  0  0  0
  1  5  1  0
  2  3  1  0
  3 11  1  0
  3  8  2  0
  4  8  1  0
  4  6  1  0
  5  4  2  0
  7  2  2  0
  7  5  1  0
 11  9  1  1
 11 10  1  0
 12 11  1  0
 13 18  1  0
 14 15  1  0
 14 13  1  0
 16 15  1  0
 16 23  1  0
 16 17  1  0
 18 12  1  0
 18 17  1  0
 19 12  2  0
 20 21  2  0
 21 40  1  0
 22 21  1  0
 22 25  1  0
 23 24  1  0
 23 20  1  0
 24 22  2  0
 25 26  1  0
 26 27  2  0
 28 31  1  0
 28 27  1  0
 29 28  2  0
 30 29  1  0
 30 25  2  0
 31 32  1  0
 32 33  1  0
 33 34  2  0
 35 34  1  0
 35 39  1  0
 36 35  2  0
 37 32  2  0
 37 36  1  0
 38 37  1  0
 40 41  1  0
 41 44  1  0
 41 43  1  0
 42 40  2  0
 45 20  1  0
 45 46  1  0
 47 45  1  0
 48  1  1  0
 49 50  1  0
 49 48  1  0
 51 52  1  0
 51 50  1  0
 52 53  1  0
 54 65  2  0
 55 53  1  0
 55 60  1  0
 56 64  1  0
 56 66  1  0
 57 63  1  0
 57 59  1  0
 58 64  1  0
 59 58  1  0
 60 59  2  0
 61 62  1  0
 61 55  2  0
 62 57  2  0
 63 56  1  0
 64 54  1  0
 66 68  2  0
 67 66  1  0
 69 67  1  0
 70 79  2  0
 70 75  1  0
 71 67  1  0
 71 75  1  0
 72 71  1  0
 73 74  1  0
 73 72  1  0
 74 70  1  0
 75 76  2  0
 76 77  1  0
 78 77  2  0
 79 78  1  0
 80 54  1  0
 80 81  1  0
 80 90  1  0
 81 84  1  0
 82 86  1  0
 82 81  1  0
 83 82  2  0
 86 85  1  0
 88 86  1  0
 88 89  1  0
 88 87  1  0
 90 93  1  1
 90 91  1  0
 92 90  1  0
M  ISO  4  11 100  12 100  52 101  53 101
M  END
>  <TORSDO>  (18) 
F 23

>  <SCORE>  (18) 
-10.495

>  <name>  (18) 
18

>  <ligand_id>  (18) 
18

>  <original_smiles>  (18) 
[H]c1nc(C([H])([H])C([H])([H])C([H])([H])C([H])([H])C([H])([H])C([H])([H])Oc2c([H])c([H])c3c(c2[H])C([H])([H])N(C(=O)C([H])(N([H])C(=O)C([H])(N([H])C([H])([H])[H])C([H])([H])[H])C(C([H])([H])[H])(C([H])([H])[H])C([H])([H])[H])C([H])(C(=O)N([H])C2([H])c4c([H])c([H])c([H])c([H])c4C([H])([H])C([H])([H])C2([H])[H])C3([H])[H])c(C([H])([H])[H])nc1C(C(=O)N1C([H])([H])C([H])([H])C([H])([H])C([H])(n2nc(-c3c([H])c([H])c(Oc4c([H])c([H])c(F)c([H])c4F)c([H])c3[H])c(C(=O)N([H])[H])c2N([H])[H])C1([H])[H])(C([H])([H])[H])C([H])([H])[H]

>  <smiles>  (18) 
[H]c1nc(C([H])([H])C([H])([H])C([H])([H])C([H])([H])C([H])([H])C([H])([H])Oc2c([H])c([H])c3c(c2[H])C([H])([H])N(C(=O)C([H])(N([H])C(=O)C([H])(N([H])C([H])([H])[H])C([H])([H])[H])C(C([H])([H])[H])(C([H])([H])[H])C([H])([H])[H])C([H])(C(=O)N([H])C2([H])c4c([H])c([H])c([H])c([H])c4C([H])([H])C([H])([H])C2([H])[H])C3([H])[H])c(C([H])([H])[H])nc1C(C(=O)N1C([H])([H])C([H])([H])C([H])([H])C([H])(n2nc(-c3c([H])c([H])c(Oc4c([H])c([H])c(F)c([H])c4F)c([H])c3[H])c(C(=O)N([H])[H])c2N([H])[H])C1([H])[H])(C([H])([H])[H])C([H])([H])[H]

$$$$
19:0:0
     RDKit          3D

 92100  0  0  1  0  0  0  0  0999 V2000
  -30.7080  -20.3550   20.5090 C   0  0  0  0  0  2  0  0  0  0  0  0
  -30.6570  -17.3970   22.7490 C   0  0  0  0  0  3  0  0  0  0  0  0
  -30.6620  -19.5220   22.8480 C   0  0  0  0  0  3  0  0  0  0  0  0
  -30.7410  -17.8380   21.4420 C   0  0  0  0  0  0  0  0  0  0  0  0
  -30.6240  -18.4610   23.6380 N   0  0  0  0  0  0  0  0  0  0  0  0
  -30.6880  -19.2690   21.5270 N   0  0  0  0  0  0  0  0  0  0  0  0
  -30.8550  -16.9140   20.2140 C   0  0  0  0  0  3  0  0  0  0  0  0
  -31.4600  -14.4310   19.9880 C   0  0  0  0  0  0  0  0  0  0  0  0
  -30.9690  -12.3300   18.7790 C   0  0  0  0  0  2  0  0  0  0  0  0
  -29.9440  -12.6430   17.6660 C   0  0  0  0  0  2  0  0  0  0  0  0
  -28.5030  -12.5700   18.2060 C   0  0  0  0  0  2  0  0  0  0  0  0
  -28.3210  -13.3560   19.5300 C   0  0  0  0  0  3  0  0  0  0  0  0
  -29.4430  -13.0140   20.5390 C   0  0  0  0  0  2  0  0  0  0  0  0
  -30.7390  -13.2770   19.8860 N   0  0  0  0  0  0  0  0  0  0  0  0
  -32.5410  -14.5880   19.4100 O   0  0  0  0  0  0  0  0  0  0  0  0
  -30.8120  -15.4660   20.5800 N   0  0  0  0  0  0  0  0  0  0  0  0
  -29.9910  -15.1810   21.0910 H   0  0  0  0  0  0  0  0  0  0  0  0
  -26.0390  -14.0880   20.4650 C   0  0  0  0  0  0  0  0  0  0  0  0
  -24.9520  -13.3730   20.8850 C   0  0  0  0  0  0  0  0  0  0  0  0
  -25.3080  -11.9960   20.7490 C   0  0  0  0  0  0  0  0  0  0  0  0
  -26.9950  -13.1500   20.1040 N   0  0  0  0  0  0  0  0  0  0  0  0
  -26.5620  -11.8840   20.3320 N   0  0  0  0  0  0  0  0  0  0  0  0
  -24.5120  -10.7790   20.9430 C   0  0  0  0  0  0  0  0  0  0  0  0
  -24.8910   -9.7870   21.8750 C   0  0  0  0  0  3  0  0  0  0  0  0
  -24.0980   -8.6340   22.0540 C   0  0  0  0  0  3  0  0  0  0  0  0
  -22.9110   -8.4660   21.3050 C   0  0  0  0  0  0  0  0  0  0  0  0
  -22.5500   -9.4450   20.3620 C   0  0  0  0  0  3  0  0  0  0  0  0
  -23.3420  -10.5900   20.1800 C   0  0  0  0  0  3  0  0  0  0  0  0
  -22.0890   -7.3680   21.3940 O   0  0  0  0  0  0  0  0  0  0  0  0
  -21.9210   -6.6890   22.5760 C   0  0  0  0  0  0  0  0  0  0  0  0
  -21.4590   -7.3300   23.7460 C   0  0  0  0  0  3  0  0  0  0  0  0
  -21.2380   -6.5800   24.9180 C   0  0  0  0  0  3  0  0  0  0  0  0
  -21.4660   -5.1920   24.9210 C   0  0  0  0  0  0  0  0  0  0  0  0
  -21.9220   -4.5500   23.7550 C   0  0  0  0  0  3  0  0  0  0  0  0
  -22.1460   -5.2980   22.5860 C   0  0  0  0  0  0  0  0  0  0  0  0
  -22.5660   -4.6710   21.4590 F   0  0  0  0  0  0  0  0  0  0  0  0
  -21.2470   -4.4720   26.0450 F   0  0  0  0  0  0  0  0  0  0  0  0
  -23.6200  -13.9290   21.2970 C   0  0  0  0  0  0  0  0  0  0  0  0
  -22.9300  -13.2590   22.2130 N   0  0  0  0  0  0  0  0  0  0  0  0
  -23.2020  -14.9920   20.8360 O   0  0  0  0  0  0  0  0  0  0  0  0
  -23.2830  -12.4020   22.6110 H   0  0  0  0  0  0  0  0  0  0  0  0
  -22.0360  -13.6090   22.5270 H   0  0  0  0  0  0  0  0  0  0  0  0
  -26.2860  -15.4540   20.3450 N   0  0  0  0  0  0  0  0  0  0  0  0
  -25.5700  -16.1440   20.5450 H   0  0  0  0  0  0  0  0  0  0  0  0
  -27.1300  -15.8590   19.9610 H   0  0  0  0  0  0  0  0  0  0  0  0
  -29.4670  -18.4640   18.5950 C   0  0  0  0  0  1  0  0  0  0  0  0
  -29.6940  -17.0800   19.1980 C   0  0  0  0  0  2  0  0  0  0  0  0
  -30.0240  -21.7080   20.9680 C   0  0  0  0  0  3  0  0  0  0  0  0
  -29.9400  -22.8730   19.9300 C   0  0  0  0  0  3  0  0  0  0  0  0
  -29.6350  -24.3130   20.4860 C   0  0  0  0  0  2  0  0  0  0  0  0
  -28.3330  -25.0110   19.9790 C   0  0  0  0  0  2  0  0  0  0  0  0
  -28.3920  -26.4550   20.1080 O   0  0  0  0  0  0  0  0  0  0  0  0
  -24.5600  -31.6650   23.1000 C   0  0  0  0  0  0  0  0  0  0  0  0
  -27.2170  -27.1950   20.0460 C   0  0  0  0  0  0  0  0  0  0  0  0
  -23.3580  -30.2650   21.4540 C   0  0  0  0  0  3  0  0  0  0  0  0
  -24.8170  -28.7220   20.0340 C   0  0  0  0  0  0  0  0  0  0  0  0
  -25.8870  -30.6160   21.2640 C   0  0  0  0  0  2  0  0  0  0  0  0
  -25.9750  -29.2430   20.6230 C   0  0  0  0  0  0  0  0  0  0  0  0
  -27.1760  -28.4920   20.6170 C   0  0  0  0  0  3  0  0  0  0  0  0
  -26.0400  -26.7010   19.4350 C   0  0  0  0  0  3  0  0  0  0  0  0
  -24.8470  -27.4520   19.4320 C   0  0  0  0  0  3  0  0  0  0  0  0
  -23.5720  -29.5810   20.0760 C   0  0  0  0  0  2  0  0  0  0  0  0
  -24.6200  -30.8630   21.9980 N   0  0  0  0  0  0  0  0  0  0  0  0
  -23.4770  -31.9400   23.6370 O   0  0  0  0  0  0  0  0  0  0  0  0
  -22.6970  -29.2480   22.4140 C   0  0  0  0  0  0  0  0  0  0  0  0
  -21.3800  -29.0430   22.2560 N   0  0  0  0  0  0  0  0  0  0  0  0
  -23.3680  -28.6440   23.2550 O   0  0  0  0  0  0  0  0  0  0  0  0
  -20.8990  -29.5810   21.5500 H   0  0  0  0  0  0  0  0  0  0  0  0
  -18.0210  -27.7720   22.6580 C   0  0  0  0  0  0  0  0  0  0  0  0
  -20.5600  -28.1010   23.0180 C   0  0  0  0  0  3  0  0  0  0  0  0
  -20.7210  -26.6620   22.4780 C   0  0  0  0  0  2  0  0  0  0  0  0
  -19.6670  -26.2870   21.4310 C   0  0  0  0  0  2  0  0  0  0  0  0
  -18.2570  -26.4110   22.0200 C   0  0  0  0  0  2  0  0  0  0  0  0
  -19.1030  -28.5710   23.1120 C   0  0  0  0  0  0  0  0  0  0  0  0
  -18.8310  -29.8410   23.6650 C   0  0  0  0  0  3  0  0  0  0  0  0
  -17.5090  -30.3140   23.7680 C   0  0  0  0  0  3  0  0  0  0  0  0
  -16.4400  -29.5100   23.3350 C   0  0  0  0  0  3  0  0  0  0  0  0
  -16.6970  -28.2420   22.7840 C   0  0  0  0  0  3  0  0  0  0  0  0
  -25.8450  -32.2910   23.7280 C   0  0  0  0  0  3  0  0  0  0  0  0
  -25.5300  -33.6790   24.0910 N   0  0  0  0  0  0  0  0  0  0  0  0
  -25.8790  -34.7540   23.3700 C   0  0  0  0  0  0  0  0  0  0  0  0
  -26.5710  -34.6790   22.3510 O   0  0  0  0  0  0  0  0  0  0  0  0
  -24.9210  -33.8120   24.8840 H   0  0  0  0  0  0  0  0  0  0  0  0
  -24.1660  -36.5610   23.0200 C   0  0  0  0  0  1  0  0  0  0  0  0
  -25.3810  -36.1280   23.8570 C   0  0  0  0  0  3  0  0  0  0  0  0
  -27.4910  -36.9760   24.7810 C   0  0  0  0  0  1  0  0  0  0  0  0
  -26.4190  -37.1810   23.8110 N   0  0  0  0  0  0  0  0  0  0  0  0
  -26.0120  -38.0970   23.9780 H   0  0  0  0  0  0  0  0  0  0  0  0
  -26.3780  -31.4950   24.9810 C   0  0  1  0  0  0  0  0  0  0  0  0
  -25.2920  -31.2010   26.0420 C   0  0  0  0  0  1  0  0  0  0  0  0
  -26.9910  -30.1440   24.5450 C   0  0  0  0  0  1  0  0  0  0  0  0
  -27.5120  -32.2940   25.6670 C   0  0  0  0  0  1  0  0  0  0  0  0
  1 48  1  0
  1  6  1  0
  2  5  1  0
  3  5  2  0
  4  6  1  0
  4  2  2  0
  6  3  1  0
  7 47  1  0
  7 16  1  0
  7  4  1  0
  8 16  1  0
  9 14  1  0
 10 11  1  0
 10  9  1  0
 12 11  1  0
 12 21  1  0
 12 13  1  0
 14  8  1  0
 14 13  1  0
 15  8  2  0
 16 17  1  0
 18 19  2  0
 19 38  1  0
 20 19  1  0
 20 23  1  0
 21 22  1  0
 21 18  1  0
 22 20  2  0
 23 24  1  0
 24 25  2  0
 26 29  1  0
 26 25  1  0
 27 26  2  0
 28 27  1  0
 28 23  2  0
 29 30  1  0
 30 35  2  0
 30 31  1  0
 31 32  2  0
 32 33  1  0
 33 37  1  0
 34 33  2  0
 35 34  1  0
 36 35  1  0
 38 39  1  0
 39 42  1  0
 39 41  1  0
 40 38  2  0
 43 18  1  0
 43 44  1  0
 45 43  1  0
 46 47  1  0
 49 50  1  0
 49 48  2  0
 51 52  1  0
 51 50  1  0
 53 64  2  0
 54 52  1  0
 54 59  1  0
 55 63  1  0
 55 65  1  0
 56 62  1  0
 56 58  1  0
 57 63  1  0
 58 57  1  0
 59 58  2  0
 60 54  2  0
 61 60  1  0
 61 56  2  0
 62 55  1  0
 63 53  1  0
 65 67  2  0
 66 65  1  0
 68 66  1  0
 69 78  2  0
 69 74  1  0
 70 66  1  0
 70 74  1  0
 71 70  1  0
 72 73  1  0
 72 71  1  0
 73 69  1  0
 74 75  2  0
 75 76  1  0
 77 76  2  0
 78 77  1  0
 79 53  1  0
 79 80  1  0
 79 89  1  0
 80 83  1  0
 81 85  1  0
 81 80  1  0
 82 81  2  0
 85 84  1  0
 87 85  1  0
 87 88  1  0
 87 86  1  0
 89 92  1  1
 89 90  1  0
 91 89  1  0
M  ISO  4   8 100  16 100  51 101  52 101
M  END
>  <TORSDO>  (19) 
F 23

>  <SCORE>  (19) 
-11.070

>  <name>  (19) 
19

>  <ligand_id>  (19) 
19

>  <original_smiles>  (19) 
[H]c1nc([H])n(C([H])([H])C([H])([H])C([H])([H])C([H])([H])C([H])([H])Oc2c([H])c([H])c3c(c2[H])C([H])([H])N(C(=O)C([H])(N([H])C(=O)C([H])(N([H])C([H])([H])[H])C([H])([H])[H])C(C([H])([H])[H])(C([H])([H])[H])C([H])([H])[H])C([H])(C(=O)N([H])C2([H])c4c([H])c([H])c([H])c([H])c4C([H])([H])C([H])([H])C2([H])[H])C3([H])[H])c1C([H])(N([H])C(=O)N1C([H])([H])C([H])([H])C([H])([H])C([H])(n2nc(-c3c([H])c([H])c(Oc4c([H])c([H])c(F)c([H])c4F)c([H])c3[H])c(C(=O)N([H])[H])c2N([H])[H])C1([H])[H])C([H])([H])C([H])([H])[H]

>  <smiles>  (19) 
[H]c1nc([H])n(C([H])([H])C([H])([H])C([H])([H])C([H])([H])C([H])([H])Oc2c([H])c([H])c3c(c2[H])C([H])([H])N(C(=O)C([H])(N([H])C(=O)C([H])(N([H])C([H])([H])[H])C([H])([H])[H])C(C([H])([H])[H])(C([H])([H])[H])C([H])([H])[H])C([H])(C(=O)N([H])C2([H])c4c([H])c([H])c([H])c([H])c4C([H])([H])C([H])([H])C2([H])[H])C3([H])[H])c1C([H])(N([H])C(=O)N1C([H])([H])C([H])([H])C([H])([H])C([H])(n2nc(-c3c([H])c([H])c(Oc4c([H])c([H])c(F)c([H])c4F)c([H])c3[H])c(C(=O)N([H])[H])c2N([H])[H])C1([H])[H])C([H])([H])C([H])([H])[H]

$$$$
20:0:0
     RDKit          3D

 91 99  0  0  1  0  0  0  0  0999 V2000
  -29.8720  -21.8050   18.3740 C   0  0  0  0  0  3  0  0  0  0  0  0
  -30.4310  -20.7990   17.6440 C   0  0  0  0  0  3  0  0  0  0  0  0
  -29.7220  -19.9070   19.5830 C   0  0  0  0  0  3  0  0  0  0  0  0
  -29.4590  -21.2850   19.5800 N   0  0  0  0  0  0  0  0  0  0  0  0
  -30.3210  -19.6740   18.4050 N   0  0  0  0  0  0  0  0  0  0  0  0
  -30.6310  -18.7610   18.0970 H   0  0  0  0  0  0  0  0  0  0  0  0
  -27.9240  -18.2730   20.3620 C   0  0  0  0  0  1  0  0  0  0  0  0
  -29.4080  -18.6530   20.4900 C   0  0  0  0  0  3  0  0  0  0  0  0
  -30.3520  -17.3360   20.2660 C   0  0  0  0  0  2  0  0  0  0  0  0
  -30.6570  -14.7580   20.3610 C   0  0  0  0  0  0  0  0  0  0  0  0
  -30.4300  -12.4980   19.3310 C   0  0  0  0  0  2  0  0  0  0  0  0
  -29.4960  -12.5910   18.1040 C   0  0  0  0  0  2  0  0  0  0  0  0
  -28.0290  -12.4100   18.5320 C   0  0  0  0  0  2  0  0  0  0  0  0
  -27.6530  -13.2900   19.7540 C   0  0  0  0  0  3  0  0  0  0  0  0
  -28.7120  -13.2000   20.8780 C   0  0  0  0  0  2  0  0  0  0  0  0
  -30.0120  -13.5440   20.2930 N   0  0  0  0  0  0  0  0  0  0  0  0
  -31.8320  -14.8500   19.9990 O   0  0  0  0  0  0  0  0  0  0  0  0
  -29.9230  -15.9070   20.6060 N   0  0  0  0  0  0  0  0  0  0  0  0
  -28.9620  -15.7700   20.8840 H   0  0  0  0  0  0  0  0  0  0  0  0
  -25.2640  -13.8690   20.4890 C   0  0  0  0  0  0  0  0  0  0  0  0
  -24.2040  -13.0890   20.8620 C   0  0  0  0  0  0  0  0  0  0  0  0
  -24.6740  -11.7400   20.8280 C   0  0  0  0  0  0  0  0  0  0  0  0
  -26.3120  -12.9940   20.2470 N   0  0  0  0  0  0  0  0  0  0  0  0
  -25.9640  -11.7100   20.5160 N   0  0  0  0  0  0  0  0  0  0  0  0
  -23.9550  -10.4720   21.0200 C   0  0  0  0  0  0  0  0  0  0  0  0
  -24.3770   -9.5210   21.9740 C   0  0  0  0  0  3  0  0  0  0  0  0
  -23.6600   -8.3180   22.1520 C   0  0  0  0  0  3  0  0  0  0  0  0
  -22.5050   -8.0590   21.3760 C   0  0  0  0  0  0  0  0  0  0  0  0
  -22.1030   -8.9990   20.4110 C   0  0  0  0  0  3  0  0  0  0  0  0
  -22.8210  -10.1940   20.2300 C   0  0  0  0  0  3  0  0  0  0  0  0
  -21.7570   -6.9090   21.4660 O   0  0  0  0  0  0  0  0  0  0  0  0
  -21.6740   -6.1930   22.6320 C   0  0  0  0  0  0  0  0  0  0  0  0
  -21.1560   -6.7560   23.8190 C   0  0  0  0  0  3  0  0  0  0  0  0
  -21.0210   -5.9640   24.9760 C   0  0  0  0  0  3  0  0  0  0  0  0
  -21.3950   -4.6070   24.9460 C   0  0  0  0  0  0  0  0  0  0  0  0
  -21.9080   -4.0410   23.7650 C   0  0  0  0  0  3  0  0  0  0  0  0
  -22.0430   -4.8330   22.6100 C   0  0  0  0  0  0  0  0  0  0  0  0
  -22.5160   -4.2770   21.4680 F   0  0  0  0  0  0  0  0  0  0  0  0
  -21.2610   -3.8430   26.0550 F   0  0  0  0  0  0  0  0  0  0  0  0
  -22.8040  -13.5570   21.1300 C   0  0  0  0  0  0  0  0  0  0  0  0
  -22.0780  -12.8560   21.9950 N   0  0  0  0  0  0  0  0  0  0  0  0
  -22.3600  -14.5800   20.6100 O   0  0  0  0  0  0  0  0  0  0  0  0
  -22.4510  -12.0300   22.4410 H   0  0  0  0  0  0  0  0  0  0  0  0
  -21.1380  -13.1500   22.2150 H   0  0  0  0  0  0  0  0  0  0  0  0
  -25.4160  -15.2410   20.3100 N   0  0  0  0  0  0  0  0  0  0  0  0
  -24.6380  -15.8820   20.4090 H   0  0  0  0  0  0  0  0  0  0  0  0
  -26.2520  -15.6860   19.9520 H   0  0  0  0  0  0  0  0  0  0  0  0
  -28.7660  -22.2140   20.5770 C   0  0  0  0  0  2  0  0  0  0  0  0
  -29.1090  -23.8140   20.5460 C   0  0  0  0  0  3  0  0  0  0  0  0
  -28.0480  -24.9290   20.0580 C   0  0  0  0  0  3  0  0  0  0  0  0
  -28.3100  -26.4030   20.2110 O   0  0  0  0  0  0  0  0  0  0  0  0
  -24.6240  -31.8770   23.2180 C   0  0  0  0  0  0  0  0  0  0  0  0
  -27.2160  -27.2990   20.1410 C   0  0  0  0  0  0  0  0  0  0  0  0
  -23.4170  -30.4900   21.5730 C   0  0  0  0  0  3  0  0  0  0  0  0
  -24.8640  -28.9460   20.1340 C   0  0  0  0  0  0  0  0  0  0  0  0
  -25.9610  -30.7970   21.3910 C   0  0  0  0  0  2  0  0  0  0  0  0
  -26.0370  -29.4220   20.7330 C   0  0  0  0  0  0  0  0  0  0  0  0
  -27.2180  -28.6110   20.7220 C   0  0  0  0  0  3  0  0  0  0  0  0
  -26.0190  -26.8950   19.5060 C   0  0  0  0  0  3  0  0  0  0  0  0
  -24.8600  -27.6920   19.5090 C   0  0  0  0  0  3  0  0  0  0  0  0
  -23.6280  -29.8230   20.1900 C   0  0  0  0  0  2  0  0  0  0  0  0
  -24.6860  -31.0730   22.1170 N   0  0  0  0  0  0  0  0  0  0  0  0
  -23.5390  -32.1530   23.7560 O   0  0  0  0  0  0  0  0  0  0  0  0
  -22.7550  -29.4670   22.5300 C   0  0  0  0  0  0  0  0  0  0  0  0
  -21.4310  -29.2810   22.3960 N   0  0  0  0  0  0  0  0  0  0  0  0
  -23.4320  -28.8440   23.3520 O   0  0  0  0  0  0  0  0  0  0  0  0
  -20.9440  -29.8350   21.7060 H   0  0  0  0  0  0  0  0  0  0  0  0
  -18.0560  -28.0680   22.8840 C   0  0  0  0  0  0  0  0  0  0  0  0
  -20.6130  -28.3390   23.1620 C   0  0  0  0  0  3  0  0  0  0  0  0
  -20.7220  -26.9090   22.5840 C   0  0  0  0  0  2  0  0  0  0  0  0
  -19.6240  -26.5820   21.5650 C   0  0  0  0  0  2  0  0  0  0  0  0
  -18.2400  -26.7210   22.2050 C   0  0  0  0  0  2  0  0  0  0  0  0
  -19.1700  -28.8350   23.3190 C   0  0  0  0  0  0  0  0  0  0  0  0
  -18.9440  -30.0940   23.9140 C   0  0  0  0  0  3  0  0  0  0  0  0
  -17.6370  -30.5900   24.0790 C   0  0  0  0  0  3  0  0  0  0  0  0
  -16.5370  -29.8210   23.6590 C   0  0  0  0  0  3  0  0  0  0  0  0
  -16.7470  -28.5620   23.0690 C   0  0  0  0  0  3  0  0  0  0  0  0
  -25.9070  -32.5060   23.8430 C   0  0  0  0  0  3  0  0  0  0  0  0
  -25.5980  -33.9050   24.1760 N   0  0  0  0  0  0  0  0  0  0  0  0
  -25.9290  -34.9600   23.4180 C   0  0  0  0  0  0  0  0  0  0  0  0
  -26.5940  -34.8590   22.3850 O   0  0  0  0  0  0  0  0  0  0  0  0
  -25.0110  -34.0580   24.9820 H   0  0  0  0  0  0  0  0  0  0  0  0
  -24.2090  -36.7610   23.0680 C   0  0  0  0  0  1  0  0  0  0  0  0
  -25.4450  -36.3480   23.8820 C   0  0  0  0  0  3  0  0  0  0  0  0
  -27.5750  -37.2250   24.7320 C   0  0  0  0  0  1  0  0  0  0  0  0
  -26.4830  -37.3980   23.7790 N   0  0  0  0  0  0  0  0  0  0  0  0
  -26.0780  -38.3200   23.9220 H   0  0  0  0  0  0  0  0  0  0  0  0
  -26.4210  -31.7340   25.1180 C   0  0  1  0  0  0  0  0  0  0  0  0
  -25.3250  -31.4950   26.1850 C   0  0  0  0  0  1  0  0  0  0  0  0
  -27.0020  -30.3560   24.7260 C   0  0  0  0  0  1  0  0  0  0  0  0
  -27.5720  -32.5240   25.7820 C   0  0  0  0  0  1  0  0  0  0  0  0
  1  4  1  0
  2  1  2  0
  2  5  1  0
  3  8  1  0
  4  3  1  0
  4 48  1  0
  5  3  1  0
  6  5  1  0
  8  7  1  0
  9  8  1  0
  9 18  1  0
 10 18  1  0
 11 16  1  0
 12 13  1  0
 12 11  1  0
 14 13  1  0
 14 23  1  0
 14 15  1  0
 16 10  1  0
 16 15  1  0
 17 10  2  0
 18 19  1  0
 20 21  2  0
 21 40  1  0
 22 21  1  0
 22 25  1  0
 23 20  1  0
 23 24  1  0
 24 22  2  0
 25 26  1  0
 26 27  2  0
 28 31  1  0
 28 27  1  0
 29 28  2  0
 30 29  1  0
 30 25  2  0
 31 32  1  0
 32 33  1  0
 33 34  2  0
 35 34  1  0
 35 39  1  0
 36 35  2  0
 37 32  2  0
 37 36  1  0
 38 37  1  0
 40 41  1  0
 41 44  1  0
 41 43  1  0
 42 40  2  0
 45 46  1  0
 45 20  1  0
 47 45  1  0
 49 48  1  0
 50 51  1  0
 50 49  2  0
 52 63  2  0
 53 51  1  0
 53 58  1  0
 54 62  1  0
 54 64  1  0
 55 61  1  0
 55 57  1  0
 56 62  1  0
 57 56  1  0
 58 57  2  0
 59 60  1  0
 59 53  2  0
 60 55  2  0
 61 54  1  0
 62 52  1  0
 64 66  2  0
 65 64  1  0
 67 65  1  0
 68 77  2  0
 68 73  1  0
 69 65  1  0
 69 73  1  0
 70 69  1  0
 71 72  1  0
 71 70  1  0
 72 68  1  0
 73 74  2  0
 74 75  1  0
 76 75  2  0
 77 76  1  0
 78 52  1  0
 78 79  1  0
 78 88  1  0
 79 82  1  0
 80 84  1  0
 80 79  1  0
 81 80  2  0
 84 83  1  0
 86 84  1  0
 86 87  1  0
 86 85  1  0
 88 91  1  1
 88 89  1  0
 90 88  1  0
M  ISO  4  10 100  18 100  50 101  51 101
M  END
>  <TORSDO>  (20) 
F 21

>  <SCORE>  (20) 
-13.480

>  <name>  (20) 
20

>  <ligand_id>  (20) 
20

>  <original_smiles>  (20) 
[H]c1c([H])c([H])c2c(c1[H])C([H])([H])C([H])([H])C([H])([H])C2([H])N([H])C(=O)C1([H])N(C(=O)C([H])(N([H])C(=O)C([H])(N([H])C([H])([H])[H])C([H])([H])[H])C(C([H])([H])[H])(C([H])([H])[H])C([H])([H])[H])C([H])([H])c2c([H])c(OC([H])([H])C([H])([H])C([H])([H])n3c([H])c([H])[n+]([H])c3C([H])(C([H])([H])[H])C([H])([H])N([H])C(=O)N3C([H])([H])C([H])([H])C([H])([H])C([H])(n4nc(-c5c([H])c([H])c(Oc6c([H])c([H])c(F)c([H])c6F)c([H])c5[H])c(C(=O)N([H])[H])c4N([H])[H])C3([H])[H])c([H])c([H])c2C1([H])[H]

>  <smiles>  (20) 
[H]c1c([H])c([H])c2c(c1[H])C([H])([H])C([H])([H])C([H])([H])C2([H])N([H])C(=O)C1([H])N(C(=O)C([H])(N([H])C(=O)C([H])(N([H])C([H])([H])[H])C([H])([H])[H])C(C([H])([H])[H])(C([H])([H])[H])C([H])([H])[H])C([H])([H])c2c([H])c(OC([H])([H])C([H])([H])C([H])([H])n3c([H])c([H])[n+]([H])c3C([H])(C([H])([H])[H])C([H])([H])N([H])C(=O)N3C([H])([H])C([H])([H])C([H])([H])C([H])(n4nc(-c5c([H])c([H])c(Oc6c([H])c([H])c(F)c([H])c6F)c([H])c5[H])c(C(=O)N([H])[H])c4N([H])[H])C3([H])[H])c([H])c([H])c2C1([H])[H]

$$$$
21:0:0
     RDKit          3D

 93101  0  0  1  0  0  0  0  0999 V2000
  -29.1290  -17.0630   18.9920 C   0  0  0  0  0  3  0  0  0  0  0  0
  -29.9320  -17.2660   20.1350 C   0  0  0  0  0  0  0  0  0  0  0  0
  -28.8210  -19.3570   18.7130 C   0  0  0  0  0  0  0  0  0  0  0  0
  -29.6020  -19.6490   19.8700 C   0  0  0  0  0  0  0  0  0  0  0  0
  -28.5790  -18.0870   18.3000 N   0  0  0  0  0  0  0  0  0  0  0  0
  -30.1480  -18.5780   20.5720 N   0  0  0  0  0  0  0  0  0  0  0  0
  -29.6030  -15.8090   22.1860 C   0  0  0  0  0  1  0  0  0  0  0  0
  -30.4950  -16.0200   20.9500 C   0  0  1  0  0  0  0  0  0  0  0  0
  -30.8580  -14.6740   20.1160 C   0  0  0  0  0  0  0  0  0  0  0  0
  -30.4580  -12.5020   18.9270 C   0  0  0  0  0  2  0  0  0  0  0  0
  -29.4580  -12.7050   17.7680 C   0  0  0  0  0  2  0  0  0  0  0  0
  -28.0040  -12.5630   18.2620 C   0  0  0  0  0  2  0  0  0  0  0  0
  -27.7460  -13.3540   19.5690 C   0  0  0  0  0  3  0  0  0  0  0  0
  -28.8610  -13.0940   20.6030 C   0  0  0  0  0  2  0  0  0  0  0  0
  -30.1400  -13.4930   19.9910 N   0  0  0  0  0  0  0  0  0  0  0  0
  -31.9380  -14.7460   19.5160 O   0  0  0  0  0  0  0  0  0  0  0  0
  -25.4070  -13.9810   20.4220 C   0  0  0  0  0  0  0  0  0  0  0  0
  -24.3470  -13.2220   20.8330 C   0  0  0  0  0  0  0  0  0  0  0  0
  -24.7780  -11.8620   20.7470 C   0  0  0  0  0  0  0  0  0  0  0  0
  -26.4190  -13.0860   20.1150 N   0  0  0  0  0  0  0  0  0  0  0  0
  -26.0490  -11.8050   20.3680 N   0  0  0  0  0  0  0  0  0  0  0  0
  -24.0360  -10.6110   20.9490 C   0  0  0  0  0  0  0  0  0  0  0  0
  -24.4980   -9.6130   21.8370 C   0  0  0  0  0  3  0  0  0  0  0  0
  -23.7570   -8.4280   22.0280 C   0  0  0  0  0  3  0  0  0  0  0  0
  -22.5400   -8.2300   21.3320 C   0  0  0  0  0  0  0  0  0  0  0  0
  -22.0980   -9.2160   20.4320 C   0  0  0  0  0  3  0  0  0  0  0  0
  -22.8390  -10.3940   20.2390 C   0  0  0  0  0  3  0  0  0  0  0  0
  -21.7680   -7.1000   21.4350 O   0  0  0  0  0  0  0  0  0  0  0  0
  -21.7590   -6.3350   22.5730 C   0  0  0  0  0  0  0  0  0  0  0  0
  -21.4130   -6.8740   23.8310 C   0  0  0  0  0  3  0  0  0  0  0  0
  -21.3510   -6.0370   24.9630 C   0  0  0  0  0  3  0  0  0  0  0  0
  -21.6220   -4.6620   24.8380 C   0  0  0  0  0  0  0  0  0  0  0  0
  -21.9610   -4.1220   23.5850 C   0  0  0  0  0  3  0  0  0  0  0  0
  -22.0250   -4.9550   22.4550 C   0  0  0  0  0  0  0  0  0  0  0  0
  -22.3320   -4.4260   21.2470 F   0  0  0  0  0  0  0  0  0  0  0  0
  -21.5540   -3.8560   25.9230 F   0  0  0  0  0  0  0  0  0  0  0  0
  -22.9760  -13.7210   21.1900 C   0  0  0  0  0  0  0  0  0  0  0  0
  -22.2820  -13.0220   22.0810 N   0  0  0  0  0  0  0  0  0  0  0  0
  -22.5310  -14.7650   20.7140 O   0  0  0  0  0  0  0  0  0  0  0  0
  -22.6570  -12.1770   22.4880 H   0  0  0  0  0  0  0  0  0  0  0  0
  -21.3650  -13.3360   22.3630 H   0  0  0  0  0  0  0  0  0  0  0  0
  -25.5890  -15.3520   20.2650 N   0  0  0  0  0  0  0  0  0  0  0  0
  -24.8350  -16.0110   20.4250 H   0  0  0  0  0  0  0  0  0  0  0  0
  -26.4110  -15.7860   19.8680 H   0  0  0  0  0  0  0  0  0  0  0  0
  -31.7280  -16.4040   21.5480 O   0  0  0  0  0  0  0  0  0  0  0  0
  -32.3510  -16.4090   20.8270 H   0  0  0  0  0  0  0  0  0  0  0  0
  -29.1160  -20.5910   16.5150 C   0  0  0  0  0  1  0  0  0  0  0  0
  -28.2600  -20.4200   17.7760 C   0  0  0  0  0  2  0  0  0  0  0  0
  -30.0300  -21.1420   20.2180 C   0  0  0  0  0  2  0  0  0  0  0  0
  -28.9820  -22.2930   20.6370 C   0  0  0  0  0  2  0  0  0  0  0  0
  -29.3580  -23.8420   20.3710 C   0  0  0  0  0  3  0  0  0  0  0  0
  -28.2300  -24.9580   20.5980 C   0  0  0  0  0  3  0  0  0  0  0  0
  -28.4680  -26.4050   20.3010 O   0  0  0  0  0  0  0  0  0  0  0  0
  -24.5960  -31.7920   23.2020 C   0  0  0  0  0  0  0  0  0  0  0  0
  -27.3450  -27.2540   20.2300 C   0  0  0  0  0  0  0  0  0  0  0  0
  -23.4490  -30.3700   21.5420 C   0  0  0  0  0  3  0  0  0  0  0  0
  -24.9550  -28.8400   20.1540 C   0  0  0  0  0  0  0  0  0  0  0  0
  -25.9880  -30.7280   21.4110 C   0  0  0  0  0  2  0  0  0  0  0  0
  -26.1060  -29.3470   20.7720 C   0  0  0  0  0  0  0  0  0  0  0  0
  -27.3040  -28.5700   20.7950 C   0  0  0  0  0  3  0  0  0  0  0  0
  -26.1720  -26.8120   19.5730 C   0  0  0  0  0  3  0  0  0  0  0  0
  -24.9930  -27.5790   19.5430 C   0  0  0  0  0  3  0  0  0  0  0  0
  -23.7030  -29.6930   20.1700 C   0  0  0  0  0  2  0  0  0  0  0  0
  -24.6950  -30.9810   22.1080 N   0  0  0  0  0  0  0  0  0  0  0  0
  -23.4970  -32.0550   23.7120 O   0  0  0  0  0  0  0  0  0  0  0  0
  -22.7810  -29.3470   22.4910 C   0  0  0  0  0  0  0  0  0  0  0  0
  -21.4620  -29.1420   22.3290 N   0  0  0  0  0  0  0  0  0  0  0  0
  -23.4490  -28.7390   23.3320 O   0  0  0  0  0  0  0  0  0  0  0  0
  -20.9840  -29.6810   21.6210 H   0  0  0  0  0  0  0  0  0  0  0  0
  -18.0980  -27.8770   22.7410 C   0  0  0  0  0  0  0  0  0  0  0  0
  -20.6410  -28.1960   23.0850 C   0  0  0  0  0  3  0  0  0  0  0  0
  -20.7910  -26.7610   22.5300 C   0  0  0  0  0  2  0  0  0  0  0  0
  -19.7280  -26.4040   21.4860 C   0  0  0  0  0  2  0  0  0  0  0  0
  -18.3250  -26.5250   22.0860 C   0  0  0  0  0  2  0  0  0  0  0  0
  -19.1870  -28.6680   23.1970 C   0  0  0  0  0  0  0  0  0  0  0  0
  -18.9220  -29.9320   23.7680 C   0  0  0  0  0  3  0  0  0  0  0  0
  -17.6020  -30.4050   23.8900 C   0  0  0  0  0  3  0  0  0  0  0  0
  -16.5280  -29.6110   23.4520 C   0  0  0  0  0  3  0  0  0  0  0  0
  -16.7760  -28.3490   22.8840 C   0  0  0  0  0  3  0  0  0  0  0  0
  -25.8540  -32.4450   23.8490 C   0  0  0  0  0  3  0  0  0  0  0  0
  -25.5150  -33.8380   24.1730 N   0  0  0  0  0  0  0  0  0  0  0  0
  -25.8400  -34.8960   23.4180 C   0  0  0  0  0  0  0  0  0  0  0  0
  -26.5270  -34.8030   22.3980 O   0  0  0  0  0  0  0  0  0  0  0  0
  -24.9040  -33.9810   24.9640 H   0  0  0  0  0  0  0  0  0  0  0  0
  -24.0800  -36.6550   23.0420 C   0  0  0  0  0  1  0  0  0  0  0  0
  -25.3210  -36.2760   23.8670 C   0  0  0  0  0  3  0  0  0  0  0  0
  -27.4300  -37.2040   24.7150 C   0  0  0  0  0  1  0  0  0  0  0  0
  -26.3340  -37.3490   23.7610 N   0  0  0  0  0  0  0  0  0  0  0  0
  -25.9100  -38.2610   23.9030 H   0  0  0  0  0  0  0  0  0  0  0  0
  -26.3570  -31.6830   25.1370 C   0  0  1  0  0  0  0  0  0  0  0  0
  -25.2460  -31.4260   26.1820 C   0  0  0  0  0  1  0  0  0  0  0  0
  -26.9700  -30.3130   24.7600 C   0  0  0  0  0  1  0  0  0  0  0  0
  -27.4840  -32.4940   25.8200 C   0  0  0  0  0  1  0  0  0  0  0  0
  1  2  1  0
  2  6  2  0
  2  8  1  0
  3  4  2  0
  4 49  1  0
  4  6  1  0
  5  3  1  0
  5  1  2  0
  8 45  1  0
  8  7  1  1
  9  8  1  0
 10 15  1  0
 11 12  1  0
 11 10  1  0
 13 12  1  0
 13 20  1  0
 13 14  1  0
 15  9  1  0
 15 14  1  0
 16  9  2  0
 17 18  2  0
 18 37  1  0
 19 18  1  0
 19 22  1  0
 20 21  1  0
 20 17  1  0
 21 19  2  0
 22 23  1  0
 23 24  2  0
 25 28  1  0
 25 24  1  0
 26 25  2  0
 27 26  1  0
 27 22  2  0
 28 29  1  0
 29 30  1  0
 30 31  2  0
 32 31  1  0
 32 36  1  0
 33 32  2  0
 34 29  2  0
 34 33  1  0
 35 34  1  0
 37 38  1  0
 38 41  1  0
 38 40  1  0
 39 37  2  0
 42 17  1  0
 42 43  1  0
 44 42  1  0
 46 45  1  0
 47 48  1  0
 48  3  1  0
 49 50  1  0
 51 52  2  0
 51 50  1  0
 53 52  1  0
 54 65  2  0
 55 53  1  0
 55 60  1  0
 56 64  1  0
 56 66  1  0
 57 63  1  0
 57 59  1  0
 58 64  1  0
 59 60  2  0
 59 58  1  0
 61 55  2  0
 62 61  1  0
 62 57  2  0
 63 56  1  0
 64 54  1  0
 66 68  2  0
 67 66  1  0
 69 67  1  0
 70 79  2  0
 70 75  1  0
 71 67  1  0
 71 75  1  0
 72 71  1  0
 73 74  1  0
 73 72  1  0
 74 70  1  0
 75 76  2  0
 76 77  1  0
 78 77  2  0
 79 78  1  0
 80 54  1  0
 80 81  1  0
 80 90  1  0
 81 84  1  0
 82 86  1  0
 82 81  1  0
 83 82  2  0
 86 85  1  0
 88 86  1  0
 88 89  1  0
 88 87  1  0
 90 93  1  1
 90 91  1  0
 92 90  1  0
M  ISO  4   8 100   9 100  52 101  53 101
M  END
>  <TORSDO>  (21) 
F 23

>  <SCORE>  (21) 
-12.074

>  <name>  (21) 
21

>  <ligand_id>  (21) 
21

>  <original_smiles>  (21) 
[H]OC(C(=O)N1C([H])([H])C([H])([H])C([H])([H])C([H])(n2nc(-c3c([H])c([H])c(Oc4c([H])c([H])c(F)c([H])c4F)c([H])c3[H])c(C(=O)N([H])[H])c2N([H])[H])C1([H])[H])(c1nc(C([H])([H])C([H])([H])C([H])([H])C([H])([H])Oc2c([H])c([H])c3c(c2[H])C([H])([H])N(C(=O)C([H])(N([H])C(=O)C([H])(N([H])C([H])([H])[H])C([H])([H])[H])C(C([H])([H])[H])(C([H])([H])[H])C([H])([H])[H])C([H])(C(=O)N([H])C2([H])c4c([H])c([H])c([H])c([H])c4C([H])([H])C([H])([H])C2([H])[H])C3([H])[H])c(C([H])([H])C([H])([H])[H])nc1[H])C([H])([H])[H]

>  <smiles>  (21) 
[H]OC(C(=O)N1C([H])([H])C([H])([H])C([H])([H])C([H])(n2nc(-c3c([H])c([H])c(Oc4c([H])c([H])c(F)c([H])c4F)c([H])c3[H])c(C(=O)N([H])[H])c2N([H])[H])C1([H])[H])(c1nc(C([H])([H])C([H])([H])C([H])([H])C([H])([H])Oc2c([H])c([H])c3c(c2[H])C([H])([H])N(C(=O)C([H])(N([H])C(=O)C([H])(N([H])C([H])([H])[H])C([H])([H])[H])C(C([H])([H])[H])(C([H])([H])[H])C([H])([H])[H])C([H])(C(=O)N([H])C2([H])c4c([H])c([H])c([H])c([H])c4C([H])([H])C([H])([H])C2([H])[H])C3([H])[H])c(C([H])([H])C([H])([H])[H])nc1[H])C([H])([H])[H]

$$$$
22:0:0
     RDKit          3D

 94103  0  0  1  0  0  0  0  0999 V2000
  -27.9740  -12.3000   19.5420 C   0  0  0  0  0  3  0  0  0  0  0  0
  -27.7050  -14.1550   22.0650 C   0  0  0  0  0  2  0  0  0  0  0  0
  -28.9010  -13.8020   18.7730 C   0  0  0  0  0  3  0  0  0  0  0  0
  -28.5120  -15.5480   21.1560 C   0  0  0  0  0  0  0  0  0  0  0  0
  -27.4420  -12.5140   21.3070 N   0  0  0  0  0  2  0  0  0  0  0  0
  -28.9730  -15.2440   19.6090 N   0  0  0  0  0  0  0  0  0  0  0  0
  -30.6090  -13.9480   18.5770 C   0  0  0  0  0  3  0  0  0  0  0  0
  -32.3710  -12.6470   20.6320 C   0  0  0  0  0  0  0  0  0  0  0  0
  -32.5020  -10.5710   19.5700 C   0  0  0  0  0  2  0  0  0  0  0  0
  -32.0830  -11.2050   18.2880 C   0  0  0  0  0  2  0  0  0  0  0  0
  -30.6780  -11.2650   18.5750 C   0  0  0  0  0  2  0  0  0  0  0  0
  -29.8090  -11.9130   20.0780 C   0  0  0  0  0  3  0  0  0  0  0  0
  -30.5230  -10.9200   20.9770 C   0  0  0  0  0  2  0  0  0  0  0  0
  -31.9140  -11.3400   20.6540 N   0  0  0  0  0  0  0  0  0  0  0  0
  -33.3670  -12.8170   21.3150 O   0  0  0  0  0  0  0  0  0  0  0  0
  -31.7650  -13.6780   19.7580 N   0  0  0  0  0  0  0  0  0  0  0  0
  -32.2560  -14.5430   19.9130 H   0  0  0  0  0  0  0  0  0  0  0  0
  -26.1910  -13.6470   20.1230 C   0  0  0  0  0  3  0  0  0  0  0  0
  -25.1190  -12.9910   20.6780 C   0  0  0  0  0  3  0  0  0  0  0  0
  -25.2960  -11.5920   20.6760 C   0  0  0  0  0  3  0  0  0  0  0  0
  -27.0440  -12.6920   19.7390 N   0  0  1  0  0  4  0  0  0  0  0  0
  -25.9410  -11.7310   19.5910 N   0  0  0  0  0  2  0  0  0  0  0  0
  -24.4620  -10.3640   20.8730 C   0  0  0  0  0  0  0  0  0  0  0  0
  -24.7830   -9.3020   21.7640 C   0  0  0  0  0  3  0  0  0  0  0  0
  -23.8590   -8.2480   22.0070 C   0  0  0  0  0  3  0  0  0  0  0  0
  -22.6040   -8.2410   21.3470 C   0  0  0  0  0  0  0  0  0  0  0  0
  -22.3370   -9.2420   20.3990 C   0  0  0  0  0  3  0  0  0  0  0  0
  -23.2550  -10.2750   20.1570 C   0  0  0  0  0  3  0  0  0  0  0  0
  -21.6190   -7.2920   21.5140 O   0  0  0  0  0  0  0  0  0  0  0  0
  -21.5110   -6.5310   22.6530 C   0  0  0  0  0  0  0  0  0  0  0  0
  -21.3080   -7.1040   23.9280 C   0  0  0  0  0  3  0  0  0  0  0  0
  -21.1370   -6.2730   25.0540 C   0  0  0  0  0  3  0  0  0  0  0  0
  -21.1620   -4.8730   24.9060 C   0  0  0  0  0  0  0  0  0  0  0  0
  -21.3500   -4.3010   23.6360 C   0  0  0  0  0  3  0  0  0  0  0  0
  -21.5190   -5.1280   22.5130 C   0  0  0  0  0  0  0  0  0  0  0  0
  -21.6740   -4.5740   21.2870 F   0  0  0  0  0  0  0  0  0  0  0  0
  -21.0010   -4.0710   25.9860 F   0  0  0  0  0  0  0  0  0  0  0  0
  -23.8210  -13.6240   20.6870 C   0  0  0  0  0  0  0  0  0  0  0  0
  -22.9520  -13.1580   21.5600 N   0  0  0  0  0  0  0  0  0  0  0  0
  -23.5990  -14.5350   19.8960 O   0  0  0  0  0  0  0  0  0  0  0  0
  -23.1910  -12.4120   22.1910 H   0  0  0  0  0  0  0  0  0  0  0  0
  -22.0260  -13.5600   21.6040 H   0  0  0  0  0  0  0  0  0  0  0  0
  -26.4580  -14.9530   19.7860 N   0  0  0  0  0  0  0  0  0  0  0  0
  -25.6560  -15.5600   19.6520 H   0  0  0  0  0  0  0  0  0  0  0  0
  -27.1820  -15.0780   19.0850 H   0  0  0  0  0  0  0  0  0  0  0  0
  -30.6510  -16.6160   18.4250 C   0  0  0  0  0  1  0  0  0  0  0  0
  -32.4960  -15.2700   17.3920 C   0  0  0  0  0  1  0  0  0  0  0  0
  -31.0090  -15.2540   17.7960 C   0  0  0  0  0  3  0  0  0  0  0  0
  -28.8430  -17.0460   21.5710 O   0  0  0  0  0  0  0  0  0  0  0  0
  -29.1590  -18.5640   20.8260 C   0  0  0  0  0  3  0  0  0  0  0  0
  -28.8600  -20.4240   21.1290 C   0  0  0  0  0  3  0  0  0  0  0  0
  -29.1370  -22.1190   20.3080 C   0  0  0  0  0  3  0  0  0  0  0  0
  -28.4630  -23.8980   20.3600 C   0  0  0  0  0  3  0  0  0  0  0  0
  -28.8030  -25.5140   19.8320 O   0  0  0  0  0  0  0  0  0  0  0  0
  -24.9160  -31.3790   22.8100 C   0  0  0  0  0  0  0  0  0  0  0  0
  -27.8680  -26.7070   19.7570 C   0  0  0  0  0  0  0  0  0  0  0  0
  -23.9120  -29.9310   21.1040 C   0  0  0  0  0  3  0  0  0  0  0  0
  -25.5280  -28.5400   19.6420 C   0  0  0  0  0  0  0  0  0  0  0  0
  -26.4580  -30.3590   21.0430 C   0  0  0  0  0  2  0  0  0  0  0  0
  -26.6620  -28.9730   20.3390 C   0  0  0  0  0  0  0  0  0  0  0  0
  -27.8400  -28.0770   20.3690 C   0  0  0  0  0  3  0  0  0  0  0  0
  -26.7350  -26.5030   18.9560 C   0  0  0  0  0  3  0  0  0  0  0  0
  -25.6030  -27.3470   18.9140 C   0  0  0  0  0  3  0  0  0  0  0  0
  -24.2380  -29.3560   19.7000 C   0  0  0  0  0  2  0  0  0  0  0  0
  -25.1150  -30.5910   21.7050 N   0  0  0  0  0  0  0  0  0  0  0  0
  -23.7900  -31.5320   23.3130 O   0  0  0  0  0  0  0  0  0  0  0  0
  -23.3200  -28.8210   22.0120 C   0  0  0  0  0  0  0  0  0  0  0  0
  -22.0240  -28.4990   21.8440 N   0  0  0  0  0  0  0  0  0  0  0  0
  -24.0350  -28.2520   22.8420 O   0  0  0  0  0  0  0  0  0  0  0  0
  -21.4910  -29.0170   21.1580 H   0  0  0  0  0  0  0  0  0  0  0  0
  -18.7920  -26.9020   22.2600 C   0  0  0  0  0  0  0  0  0  0  0  0
  -21.3030  -27.4450   22.5650 C   0  0  0  0  0  3  0  0  0  0  0  0
  -21.5690  -26.0580   21.9340 C   0  0  0  0  0  2  0  0  0  0  0  0
  -20.5180  -25.6570   20.8930 C   0  0  0  0  0  2  0  0  0  0  0  0
  -19.1250  -25.6160   21.5260 C   0  0  0  0  0  2  0  0  0  0  0  0
  -19.8120  -27.7700   22.7340 C   0  0  0  0  0  0  0  0  0  0  0  0
  -19.4440  -28.9670   23.3850 C   0  0  0  0  0  3  0  0  0  0  0  0
  -18.0890  -29.3030   23.5640 C   0  0  0  0  0  3  0  0  0  0  0  0
  -17.0830  -28.4360   23.1020 C   0  0  0  0  0  3  0  0  0  0  0  0
  -17.4360  -27.2370   22.4570 C   0  0  0  0  0  3  0  0  0  0  0  0
  -26.0900  -32.1430   23.4920 C   0  0  0  0  0  3  0  0  0  0  0  0
  -25.5710  -33.4360   23.9760 N   0  0  0  0  0  0  0  0  0  0  0  0
  -25.7360  -34.6140   23.3600 C   0  0  0  0  0  0  0  0  0  0  0  0
  -26.4030  -34.7360   22.3290 O   0  0  0  0  0  0  0  0  0  0  0  0
  -24.9680  -33.4030   24.7850 H   0  0  0  0  0  0  0  0  0  0  0  0
  -23.7610  -36.1740   23.2200 C   0  0  0  0  0  1  0  0  0  0  0  0
  -25.0570  -35.8540   23.9820 C   0  0  0  0  0  3  0  0  0  0  0  0
  -27.0470  -36.9370   24.9330 C   0  0  0  0  0  1  0  0  0  0  0  0
  -25.9230  -37.0530   24.0070 N   0  0  0  0  0  0  0  0  0  0  0  0
  -25.3870  -37.8780   24.2640 H   0  0  0  0  0  0  0  0  0  0  0  0
  -26.7330  -31.3410   24.6910 C   0  0  1  0  0  0  0  0  0  0  0  0
  -25.7010  -30.8320   25.7250 C   0  0  0  0  0  1  0  0  0  0  0  0
  -27.5250  -30.1170   24.1810 C   0  0  0  0  0  1  0  0  0  0  0  0
  -27.7510  -32.2390   25.4330 C   0  0  0  0  0  1  0  0  0  0  0  0
  1 21  1  0
  1 12  1  0
  3  1  1  0
  3  6  1  0
  4 49  1  0
  4  2  1  0
  5  2  1  0
  6  4  2  0
  7  3  1  0
  7 16  1  0
  8 14  1  0
  8 15  2  0
  9 14  1  0
 10 11  1  0
 10  9  1  0
 11 12  1  0
 12 13  1  0
 14 13  1  0
 16 17  1  0
 16  8  1  0
 18 19  1  0
 19 38  1  0
 20 19  1  0
 20 23  1  0
 21 18  1  0
 21  5  1  1
 22 21  1  0
 22 20  1  0
 23 24  1  0
 24 25  2  0
 26 29  1  0
 26 25  1  0
 27 26  2  0
 28 27  1  0
 28 23  2  0
 29 30  1  0
 30 31  1  0
 31 32  2  0
 33 32  1  0
 33 37  1  0
 34 33  2  0
 35 30  2  0
 35 34  1  0
 36 35  1  0
 38 39  1  0
 39 42  1  0
 39 41  1  0
 40 38  2  0
 43 18  1  0
 44 43  1  0
 45 43  1  0
 47 48  1  0
 48 46  1  0
 48  7  1  0
 50 51  2  0
 50 49  1  0
 52 53  2  0
 52 51  1  0
 54 53  1  0
 55 66  2  0
 55 81  1  0
 56 54  1  0
 56 61  1  0
 57 65  1  0
 57 67  1  0
 58 64  1  0
 58 60  1  0
 59 65  1  0
 60 61  2  0
 60 59  1  0
 62 56  2  0
 63 62  1  0
 63 58  2  0
 64 57  1  0
 65 55  1  0
 67 69  2  0
 68 67  1  0
 68 72  1  0
 70 68  1  0
 71 80  2  0
 71 76  1  0
 72 76  1  0
 73 72  1  0
 74 75  1  0
 74 73  1  0
 75 71  1  0
 76 77  2  0
 77 78  1  0
 79 78  2  0
 80 79  1  0
 81 82  1  0
 81 91  1  0
 82 85  1  0
 83 82  1  0
 83 87  1  0
 84 83  2  0
 86 87  1  0
 87 89  1  0
 89 90  1  0
 89 88  1  0
 91 94  1  1
 91 92  1  0
 93 91  1  0
M  ISO  4   8 100  16 100  53 101  54 101
M  END
>  <TORSDO>  (22) 
F 23

>  <SCORE>  (22) 
-10.280

>  <name>  (22) 
22

>  <ligand_id>  (22) 
22

>  <original_smiles>  (22) 
[H]c1nc([H])c(C([H])(N([H])C(=O)N2C([H])([H])C([H])([H])C([H])([H])C([H])(n3nc(-c4c([H])c([H])c(Oc5c([H])c([H])c(F)c([H])c5F)c([H])c4[H])c(C(=O)N([H])[H])c3N([H])[H])C2([H])[H])C([H])(C([H])([H])[H])C([H])([H])[H])nc1OC([H])([H])C([H])([H])C([H])([H])C([H])([H])Oc1c([H])c([H])c2c(c1[H])C([H])([H])N(C(=O)C([H])(N([H])C(=O)C([H])(N([H])C([H])([H])[H])C([H])([H])[H])C(C([H])([H])[H])(C([H])([H])[H])C([H])([H])[H])C([H])(C(=O)N([H])C1([H])c3c([H])c([H])c([H])c([H])c3C([H])([H])C([H])([H])C1([H])[H])C2([H])[H]

>  <smiles>  (22) 
[H]c1nc([H])c(C([H])(N([H])C(=O)N2C([H])([H])C([H])([H])C([H])([H])C([H])(n3nc(-c4c([H])c([H])c(Oc5c([H])c([H])c(F)c([H])c5F)c([H])c4[H])c(C(=O)N([H])[H])c3N([H])[H])C2([H])[H])C([H])(C([H])([H])[H])C([H])([H])[H])nc1OC([H])([H])C([H])([H])C([H])([H])C([H])([H])Oc1c([H])c([H])c2c(c1[H])C([H])([H])N(C(=O)C([H])(N([H])C(=O)C([H])(N([H])C([H])([H])[H])C([H])([H])[H])C(C([H])([H])[H])(C([H])([H])[H])C([H])([H])[H])C([H])(C(=O)N([H])C1([H])c3c([H])c([H])c([H])c([H])c3C([H])([H])C([H])([H])C1([H])[H])C2([H])[H]

$$$$
23:0:0
     RDKit          3D

 91 99  0  0  1  0  0  0  0  0999 V2000
  -29.4120  -20.5480   20.6740 C   0  0  0  0  0  3  0  0  0  0  0  0
  -30.2000  -19.5200   21.2590 C   0  0  0  0  0  0  0  0  0  0  0  0
  -29.6830  -21.8990   21.0180 C   0  0  0  0  0  0  0  0  0  0  0  0
  -31.2510  -19.9670   22.1110 C   0  0  0  0  0  0  0  0  0  0  0  0
  -32.1690  -19.0420   22.8870 C   0  0  0  0  0  1  0  0  0  0  0  0
  -30.7020  -22.2290   21.8430 N   0  0  0  0  0  0  0  0  0  0  0  0
  -31.4940  -21.2820   22.3460 N   0  0  0  0  0  0  0  0  0  0  0  0
  -29.7810  -18.0370   21.1200 C   0  0  0  0  0  2  0  0  0  0  0  0
  -30.8330  -17.0060   20.6080 C   0  0  0  0  0  2  0  0  0  0  0  0
  -30.9070  -14.6040   20.0310 C   0  0  0  0  0  0  0  0  0  0  0  0
  -30.4810  -12.4640   18.8610 C   0  0  0  0  0  2  0  0  0  0  0  0
  -29.4600  -12.6650   17.7220 C   0  0  0  0  0  2  0  0  0  0  0  0
  -28.0190  -12.4860   18.2320 C   0  0  0  0  0  2  0  0  0  0  0  0
  -27.7550  -13.3140   19.5180 C   0  0  0  0  0  3  0  0  0  0  0  0
  -28.8810  -13.1320   20.5600 C   0  0  0  0  0  2  0  0  0  0  0  0
  -30.1800  -13.4430   19.9270 N   0  0  0  0  0  0  0  0  0  0  0  0
  -31.8780  -14.8200   19.3000 O   0  0  0  0  0  0  0  0  0  0  0  0
  -30.4700  -15.2780   22.3200 C   0  0  0  0  0  1  0  0  0  0  0  0
  -30.4780  -15.5810   20.8820 N   0  0  0  0  0  0  0  0  0  0  0  0
  -25.4100  -13.8830   20.4240 C   0  0  0  0  0  0  0  0  0  0  0  0
  -24.3790  -13.0870   20.8480 C   0  0  0  0  0  0  0  0  0  0  0  0
  -24.8490  -11.7420   20.7490 C   0  0  0  0  0  0  0  0  0  0  0  0
  -26.4400  -13.0180   20.0880 N   0  0  0  0  0  0  0  0  0  0  0  0
  -26.1130  -11.7260   20.3440 N   0  0  0  0  0  0  0  0  0  0  0  0
  -24.1540  -10.4660   20.9560 C   0  0  0  0  0  0  0  0  0  0  0  0
  -24.5910   -9.5250   21.9150 C   0  0  0  0  0  3  0  0  0  0  0  0
  -23.8860   -8.3170   22.1050 C   0  0  0  0  0  3  0  0  0  0  0  0
  -22.7270   -8.0430   21.3360 C   0  0  0  0  0  0  0  0  0  0  0  0
  -22.3140   -8.9720   20.3650 C   0  0  0  0  0  3  0  0  0  0  0  0
  -23.0200  -10.1710   20.1740 C   0  0  0  0  0  3  0  0  0  0  0  0
  -21.9870   -6.8900   21.4370 O   0  0  0  0  0  0  0  0  0  0  0  0
  -21.8530   -6.2200   22.6270 C   0  0  0  0  0  0  0  0  0  0  0  0
  -21.2780   -6.8310   23.7630 C   0  0  0  0  0  3  0  0  0  0  0  0
  -21.0980   -6.0830   24.9460 C   0  0  0  0  0  3  0  0  0  0  0  0
  -21.4810   -4.7310   24.9940 C   0  0  0  0  0  0  0  0  0  0  0  0
  -22.0470   -4.1190   23.8610 C   0  0  0  0  0  3  0  0  0  0  0  0
  -22.2300   -4.8620   22.6790 C   0  0  0  0  0  0  0  0  0  0  0  0
  -22.7540   -4.2590   21.5850 F   0  0  0  0  0  0  0  0  0  0  0  0
  -21.3020   -4.0150   26.1300 F   0  0  0  0  0  0  0  0  0  0  0  0
  -22.9990  -13.5370   21.2370 C   0  0  0  0  0  0  0  0  0  0  0  0
  -22.3600  -12.8310   22.1610 N   0  0  0  0  0  0  0  0  0  0  0  0
  -22.4980  -14.5520   20.7510 O   0  0  0  0  0  0  0  0  0  0  0  0
  -22.7720  -12.0100   22.5810 H   0  0  0  0  0  0  0  0  0  0  0  0
  -21.4400  -13.1170   22.4620 H   0  0  0  0  0  0  0  0  0  0  0  0
  -25.5490  -15.2650   20.2760 N   0  0  0  0  0  0  0  0  0  0  0  0
  -24.7920  -15.9110   20.4760 H   0  0  0  0  0  0  0  0  0  0  0  0
  -26.3790  -15.7260   19.9330 H   0  0  0  0  0  0  0  0  0  0  0  0
  -28.7160  -23.0410   20.6900 C   0  0  0  0  0  2  0  0  0  0  0  0
  -29.3380  -24.4250   20.3080 C   0  0  0  0  0  2  0  0  0  0  0  0
  -28.2990  -25.3700   19.6310 C   0  0  0  0  0  2  0  0  0  0  0  0
  -28.3470  -26.7580   20.0690 O   0  0  0  0  0  0  0  0  0  0  0  0
  -24.4810  -31.8950   23.2350 C   0  0  0  0  0  0  0  0  0  0  0  0
  -27.1700  -27.5070   20.0500 C   0  0  0  0  0  0  0  0  0  0  0  0
  -23.2950  -30.5120   21.5670 C   0  0  0  0  0  3  0  0  0  0  0  0
  -24.7690  -29.0340   20.1050 C   0  0  0  0  0  0  0  0  0  0  0  0
  -25.8260  -30.8890   21.3930 C   0  0  0  0  0  2  0  0  0  0  0  0
  -25.9250  -29.5350   20.7110 C   0  0  0  0  0  0  0  0  0  0  0  0
  -27.1260  -28.7760   20.6900 C   0  0  0  0  0  3  0  0  0  0  0  0
  -25.9860  -27.0450   19.4230 C   0  0  0  0  0  3  0  0  0  0  0  0
  -24.7940  -27.7900   19.4630 C   0  0  0  0  0  3  0  0  0  0  0  0
  -23.5170  -29.8760   20.1710 C   0  0  0  0  0  2  0  0  0  0  0  0
  -24.5520  -31.1150   22.1200 N   0  0  0  0  0  0  0  0  0  0  0  0
  -23.3970  -32.1460   23.7760 O   0  0  0  0  0  0  0  0  0  0  0  0
  -22.6580  -29.4570   22.5030 C   0  0  0  0  0  0  0  0  0  0  0  0
  -21.3370  -29.2520   22.3670 N   0  0  0  0  0  0  0  0  0  0  0  0
  -23.3490  -28.8330   23.3110 O   0  0  0  0  0  0  0  0  0  0  0  0
  -20.8340  -29.8130   21.6950 H   0  0  0  0  0  0  0  0  0  0  0  0
  -17.9810  -28.0030   22.8570 C   0  0  0  0  0  0  0  0  0  0  0  0
  -20.5380  -28.2840   23.1200 C   0  0  0  0  0  3  0  0  0  0  0  0
  -20.6520  -26.8680   22.5070 C   0  0  0  0  0  2  0  0  0  0  0  0
  -19.5470  -26.5580   21.4910 C   0  0  0  0  0  2  0  0  0  0  0  0
  -18.1670  -26.6730   22.1460 C   0  0  0  0  0  2  0  0  0  0  0  0
  -19.0940  -28.7660   23.3010 C   0  0  0  0  0  0  0  0  0  0  0  0
  -18.8640  -30.0130   23.9210 C   0  0  0  0  0  3  0  0  0  0  0  0
  -17.5550  -30.4960   24.1030 C   0  0  0  0  0  3  0  0  0  0  0  0
  -16.4570  -29.7290   23.6770 C   0  0  0  0  0  3  0  0  0  0  0  0
  -16.6710  -28.4820   23.0620 C   0  0  0  0  0  3  0  0  0  0  0  0
  -25.7580  -32.5350   23.8650 C   0  0  0  0  0  3  0  0  0  0  0  0
  -25.4330  -33.9270   24.2060 N   0  0  0  0  0  0  0  0  0  0  0  0
  -25.7720  -34.9910   23.4620 C   0  0  0  0  0  0  0  0  0  0  0  0
  -26.4560  -34.9020   22.4390 O   0  0  0  0  0  0  0  0  0  0  0  0
  -24.8240  -34.0700   24.9980 H   0  0  0  0  0  0  0  0  0  0  0  0
  -24.0490  -36.7820   23.0830 C   0  0  0  0  0  1  0  0  0  0  0  0
  -25.2660  -36.3700   23.9270 C   0  0  0  0  0  3  0  0  0  0  0  0
  -27.3690  -37.2450   24.8430 C   0  0  0  0  0  1  0  0  0  0  0  0
  -26.3000  -37.4260   23.8650 N   0  0  0  0  0  0  0  0  0  0  0  0
  -25.8880  -38.3430   24.0130 H   0  0  0  0  0  0  0  0  0  0  0  0
  -26.2800  -31.7580   25.1340 C   0  0  1  0  0  0  0  0  0  0  0  0
  -25.1830  -31.4920   26.1910 C   0  0  0  0  0  1  0  0  0  0  0  0
  -26.8910  -30.3930   24.7350 C   0  0  0  0  0  1  0  0  0  0  0  0
  -27.4100  -32.5670   25.8140 C   0  0  0  0  0  1  0  0  0  0  0  0
  1  3  2  0
  1  2  1  0
  2  4  2  0
  3  6  1  0
  4  7  1  0
  4  5  1  0
  6  7  2  0
  8  2  1  0
  9 19  1  0
  9  8  1  0
 10 19  1  0
 11 16  1  0
 12 13  1  0
 12 11  1  0
 14 13  1  0
 14 23  1  0
 14 15  1  0
 16 10  1  0
 16 15  1  0
 17 10  2  0
 19 18  1  0
 20 21  2  0
 21 40  1  0
 22 21  1  0
 22 25  1  0
 23 24  1  0
 23 20  1  0
 24 22  2  0
 25 26  1  0
 26 27  2  0
 28 31  1  0
 28 27  1  0
 29 28  2  0
 30 29  1  0
 30 25  2  0
 31 32  1  0
 32 37  2  0
 32 33  1  0
 33 34  2  0
 34 35  1  0
 35 39  1  0
 36 35  2  0
 37 36  1  0
 38 37  1  0
 40 41  1  0
 41 44  1  0
 41 43  1  0
 42 40  2  0
 45 20  1  0
 45 46  1  0
 47 45  1  0
 48  3  1  0
 49 48  1  0
 50 51  1  0
 50 49  1  0
 52 63  2  0
 53 51  1  0
 53 58  1  0
 54 62  1  0
 54 64  1  0
 55 61  1  0
 55 57  1  0
 56 62  1  0
 57 56  1  0
 58 57  2  0
 59 60  1  0
 59 53  2  0
 60 55  2  0
 61 54  1  0
 62 52  1  0
 64 66  2  0
 65 64  1  0
 67 65  1  0
 68 77  2  0
 68 73  1  0
 69 65  1  0
 69 73  1  0
 70 69  1  0
 71 72  1  0
 71 70  1  0
 72 68  1  0
 73 74  2  0
 74 75  1  0
 76 75  2  0
 77 76  1  0
 78 52  1  0
 78 79  1  0
 78 88  1  0
 79 82  1  0
 80 84  1  0
 80 79  1  0
 81 80  2  0
 84 83  1  0
 86 84  1  0
 86 87  1  0
 86 85  1  0
 88 91  1  1
 88 89  1  0
 90 88  1  0
M  ISO  4  10 100  19 100  50 101  51 101
M  END
>  <TORSDO>  (23) 
F 21

>  <SCORE>  (23) 
-12.181

>  <name>  (23) 
23

>  <ligand_id>  (23) 
23

>  <original_smiles>  (23) 
[H]c1c([H])c([H])c2c(c1[H])C([H])([H])C([H])([H])C([H])([H])C2([H])N([H])C(=O)C1([H])N(C(=O)C([H])(N([H])C(=O)C([H])(N([H])C([H])([H])[H])C([H])([H])[H])C(C([H])([H])[H])(C([H])([H])[H])C([H])([H])[H])C([H])([H])c2c([H])c(OC([H])([H])C([H])([H])C([H])([H])c3nnc(C([H])([H])[H])c(C([H])([H])C([H])([H])N(C(=O)N4C([H])([H])C([H])([H])C([H])([H])C([H])(n5nc(-c6c([H])c([H])c(Oc7c([H])c([H])c(F)c([H])c7F)c([H])c6[H])c(C(=O)N([H])[H])c5N([H])[H])C4([H])[H])C([H])([H])[H])c3[H])c([H])c([H])c2C1([H])[H]

>  <smiles>  (23) 
[H]c1c([H])c([H])c2c(c1[H])C([H])([H])C([H])([H])C([H])([H])C2([H])N([H])C(=O)C1([H])N(C(=O)C([H])(N([H])C(=O)C([H])(N([H])C([H])([H])[H])C([H])([H])[H])C(C([H])([H])[H])(C([H])([H])[H])C([H])([H])[H])C([H])([H])c2c([H])c(OC([H])([H])C([H])([H])C([H])([H])c3nnc(C([H])([H])[H])c(C([H])([H])C([H])([H])N(C(=O)N4C([H])([H])C([H])([H])C([H])([H])C([H])(n5nc(-c6c([H])c([H])c(Oc7c([H])c([H])c(F)c([H])c7F)c([H])c6[H])c(C(=O)N([H])[H])c5N([H])[H])C4([H])[H])C([H])([H])[H])c3[H])c([H])c([H])c2C1([H])[H]

$$$$
24:0:0
     RDKit          3D

 90 98  0  0  1  0  0  0  0  0999 V2000
  -27.3000  -20.9470   19.4300 C   0  0  0  0  0  3  0  0  0  0  0  0
  -26.3660  -19.9870   19.0390 C   0  0  0  0  0  3  0  0  0  0  0  0
  -28.5960  -20.6050   19.8850 C   0  0  0  0  0  0  0  0  0  0  0  0
  -26.7260  -18.6450   19.1070 C   0  0  0  0  0  0  0  0  0  0  0  0
  -28.8960  -19.1100   19.9460 C   0  0  0  0  0  0  0  0  0  0  0  0
  -25.7660  -17.5740   18.6360 C   0  0  0  0  0  1  0  0  0  0  0  0
  -27.9310  -18.2440   19.5460 N   0  0  0  0  0  0  0  0  0  0  0  0
  -29.4140  -21.9930   20.1390 C   0  0  0  0  0  2  0  0  0  0  0  0
  -28.7290  -23.5160   20.5150 C   0  0  0  0  0  2  0  0  0  0  0  0
  -28.4680  -24.8820   19.5640 C   0  0  0  0  0  2  0  0  0  0  0  0
  -28.4080  -26.3740   20.0150 O   0  0  0  0  0  0  0  0  0  0  0  0
  -24.6920  -31.9020   23.0980 C   0  0  0  0  0  0  0  0  0  0  0  0
  -27.3000  -27.2910   19.9420 C   0  0  0  0  0  0  0  0  0  0  0  0
  -23.4840  -30.5130   21.4580 C   0  0  0  0  0  3  0  0  0  0  0  0
  -24.9290  -28.9840   19.9800 C   0  0  0  0  0  0  0  0  0  0  0  0
  -26.0280  -30.8270   21.2490 C   0  0  0  0  0  2  0  0  0  0  0  0
  -26.1080  -29.4480   20.5740 C   0  0  0  0  0  0  0  0  0  0  0  0
  -27.2870  -28.6160   20.5410 C   0  0  0  0  0  3  0  0  0  0  0  0
  -26.0870  -26.9230   19.3170 C   0  0  0  0  0  3  0  0  0  0  0  0
  -24.9300  -27.7330   19.3420 C   0  0  0  0  0  3  0  0  0  0  0  0
  -23.6880  -29.8600   20.0630 C   0  0  0  0  0  2  0  0  0  0  0  0
  -24.7550  -31.1030   21.9890 N   0  0  0  0  0  0  0  0  0  0  0  0
  -23.6120  -32.1580   23.6540 O   0  0  0  0  0  0  0  0  0  0  0  0
  -22.8420  -29.4780   22.4170 C   0  0  0  0  0  0  0  0  0  0  0  0
  -21.5170  -29.2820   22.3130 N   0  0  0  0  0  0  0  0  0  0  0  0
  -23.5420  -28.8580   23.2230 O   0  0  0  0  0  0  0  0  0  0  0  0
  -21.0070  -29.8440   21.6450 H   0  0  0  0  0  0  0  0  0  0  0  0
  -18.1750  -27.9770   22.8300 C   0  0  0  0  0  0  0  0  0  0  0  0
  -20.7280  -28.3150   23.0820 C   0  0  0  0  0  3  0  0  0  0  0  0
  -20.8680  -26.8880   22.5010 C   0  0  0  0  0  2  0  0  0  0  0  0
  -19.7690  -26.5370   21.4910 C   0  0  0  0  0  2  0  0  0  0  0  0
  -18.3880  -26.6360   22.1460 C   0  0  0  0  0  2  0  0  0  0  0  0
  -19.2730  -28.7710   23.2570 C   0  0  0  0  0  0  0  0  0  0  0  0
  -19.0230  -30.0220   23.8600 C   0  0  0  0  0  3  0  0  0  0  0  0
  -17.7050  -30.4800   24.0440 C   0  0  0  0  0  3  0  0  0  0  0  0
  -16.6210  -29.6850   23.6350 C   0  0  0  0  0  3  0  0  0  0  0  0
  -16.8560  -28.4370   23.0320 C   0  0  0  0  0  3  0  0  0  0  0  0
  -25.9730  -32.5500   23.7090 C   0  0  0  0  0  3  0  0  0  0  0  0
  -25.6380  -33.9350   24.0850 N   0  0  0  0  0  0  0  0  0  0  0  0
  -25.9380  -35.0190   23.3570 C   0  0  0  0  0  0  0  0  0  0  0  0
  -26.5930  -34.9630   22.3130 O   0  0  0  0  0  0  0  0  0  0  0  0
  -25.0610  -34.0510   24.9030 H   0  0  0  0  0  0  0  0  0  0  0  0
  -24.1740  -36.7960   23.0900 C   0  0  0  0  0  1  0  0  0  0  0  0
  -25.4340  -36.3850   23.8690 C   0  0  0  0  0  3  0  0  0  0  0  0
  -27.5690  -37.2780   24.6890 C   0  0  0  0  0  1  0  0  0  0  0  0
  -26.4420  -37.4620   23.7780 N   0  0  0  0  0  0  0  0  0  0  0  0
  -26.0220  -38.3640   23.9780 H   0  0  0  0  0  0  0  0  0  0  0  0
  -26.5300  -31.7670   24.9620 C   0  0  1  0  0  0  0  0  0  0  0  0
  -25.4670  -31.4930   26.0520 C   0  0  0  0  0  1  0  0  0  0  0  0
  -27.1310  -30.4070   24.5390 C   0  0  0  0  0  1  0  0  0  0  0  0
  -27.6800  -32.5720   25.6120 C   0  0  0  0  0  1  0  0  0  0  0  0
  -30.1930  -18.1410   20.2070 C   0  0  0  0  0  2  0  0  0  0  0  0
  -30.4310  -16.7410   22.3840 C   0  0  0  0  0  1  0  0  0  0  0  0
  -30.0930  -16.5810   20.8850 C   0  0  0  0  0  3  0  0  0  0  0  0
  -30.8960  -15.2030   20.3910 C   0  0  0  0  0  0  0  0  0  0  0  0
  -30.8090  -12.8560   19.4010 C   0  0  0  0  0  2  0  0  0  0  0  0
  -29.8890  -12.8440   18.1550 C   0  0  0  0  0  2  0  0  0  0  0  0
  -28.4180  -12.6320   18.5650 C   0  0  0  0  0  2  0  0  0  0  0  0
  -28.0010  -13.5540   19.7400 C   0  0  0  0  0  3  0  0  0  0  0  0
  -29.0370  -13.5200   20.8800 C   0  0  0  0  0  2  0  0  0  0  0  0
  -30.3280  -13.9300   20.3160 N   0  0  0  0  0  0  0  0  0  0  0  0
  -32.0720  -15.2960   20.0180 O   0  0  0  0  0  0  0  0  0  0  0  0
  -25.6210  -14.1560   20.4670 C   0  0  0  0  0  0  0  0  0  0  0  0
  -24.5420  -13.3930   20.8180 C   0  0  0  0  0  0  0  0  0  0  0  0
  -24.9930  -12.0380   20.7860 C   0  0  0  0  0  0  0  0  0  0  0  0
  -26.6540  -13.2690   20.2220 N   0  0  0  0  0  0  0  0  0  0  0  0
  -26.2860  -11.9870   20.4840 N   0  0  0  0  0  0  0  0  0  0  0  0
  -24.2510  -10.7830   20.9690 C   0  0  0  0  0  0  0  0  0  0  0  0
  -24.6420   -9.8310   21.9350 C   0  0  0  0  0  3  0  0  0  0  0  0
  -23.9050   -8.6410   22.1060 C   0  0  0  0  0  3  0  0  0  0  0  0
  -22.7600   -8.3940   21.3100 C   0  0  0  0  0  0  0  0  0  0  0  0
  -22.3880   -9.3350   20.3350 C   0  0  0  0  0  3  0  0  0  0  0  0
  -23.1260  -10.5180   20.1620 C   0  0  0  0  0  3  0  0  0  0  0  0
  -21.9970   -7.2550   21.3880 O   0  0  0  0  0  0  0  0  0  0  0  0
  -21.8570   -6.5600   22.5640 C   0  0  0  0  0  0  0  0  0  0  0  0
  -21.3530   -7.1700   23.7340 C   0  0  0  0  0  3  0  0  0  0  0  0
  -21.1620   -6.4030   24.9000 C   0  0  0  0  0  3  0  0  0  0  0  0
  -21.4620   -5.0270   24.8960 C   0  0  0  0  0  0  0  0  0  0  0  0
  -21.9550   -4.4170   23.7290 C   0  0  0  0  0  3  0  0  0  0  0  0
  -22.1490   -5.1820   22.5670 C   0  0  0  0  0  0  0  0  0  0  0  0
  -22.6060   -4.5860   21.4380 F   0  0  0  0  0  0  0  0  0  0  0  0
  -21.2700   -4.2880   26.0130 F   0  0  0  0  0  0  0  0  0  0  0  0
  -23.1470  -13.8850   21.0770 C   0  0  0  0  0  0  0  0  0  0  0  0
  -22.4060  -13.2030   21.9430 N   0  0  0  0  0  0  0  0  0  0  0  0
  -22.7230  -14.9080   20.5430 O   0  0  0  0  0  0  0  0  0  0  0  0
  -22.7590  -12.3750   22.4010 H   0  0  0  0  0  0  0  0  0  0  0  0
  -21.4670  -13.5130   22.1530 H   0  0  0  0  0  0  0  0  0  0  0  0
  -25.8040  -15.5240   20.3160 N   0  0  0  0  0  0  0  0  0  0  0  0
  -25.0450  -16.1840   20.4290 H   0  0  0  0  0  0  0  0  0  0  0  0
  -26.6730  -15.9650   20.0440 H   0  0  0  0  0  0  0  0  0  0  0  0
  1  3  1  0
  2  4  1  0
  2  1  2  0
  3  5  2  0
  3  8  1  0
  4  7  2  0
  5 52  1  0
  6  4  1  0
  7  5  1  0
  8  9  1  0
 10 11  1  0
 10  9  1  0
 12 23  2  0
 13 11  1  0
 13 18  1  0
 14 22  1  0
 14 24  1  0
 15 21  1  0
 15 17  1  0
 16 22  1  0
 17 16  1  0
 18 17  2  0
 19 20  1  0
 19 13  2  0
 20 15  2  0
 21 14  1  0
 22 12  1  0
 24 26  2  0
 25 24  1  0
 27 25  1  0
 28 37  2  0
 28 33  1  0
 29 25  1  0
 29 33  1  0
 30 29  1  0
 31 32  1  0
 31 30  1  0
 32 28  1  0
 33 34  2  0
 34 35  1  0
 36 35  2  0
 37 36  1  0
 38 12  1  0
 38 39  1  0
 38 48  1  0
 39 42  1  0
 40 44  1  0
 40 39  1  0
 41 40  2  0
 44 43  1  0
 46 44  1  0
 46 47  1  0
 46 45  1  0
 48 51  1  1
 48 49  1  0
 50 48  1  0
 52 54  1  0
 54 53  1  0
 55 54  1  0
 56 61  1  0
 57 58  1  0
 57 56  1  0
 59 58  1  0
 59 66  1  0
 59 60  1  0
 61 55  1  0
 61 60  1  0
 62 55  2  0
 63 64  2  0
 64 83  1  0
 65 64  1  0
 65 68  1  0
 66 63  1  0
 66 67  1  0
 67 65  2  0
 68 69  1  0
 69 70  2  0
 71 74  1  0
 71 70  1  0
 72 71  2  0
 73 72  1  0
 73 68  2  0
 74 75  1  0
 75 80  2  0
 75 76  1  0
 76 77  2  0
 78 77  1  0
 78 82  1  0
 79 78  2  0
 80 79  1  0
 81 80  1  0
 83 84  1  0
 84 87  1  0
 84 86  1  0
 85 83  2  0
 88 89  1  0
 88 63  1  0
 90 88  1  0
M  ISO  4  10 101  11 101  54 100  55 100
M  END
>  <TORSDO>  (24) 
F 21

>  <SCORE>  (24) 
-12.261

>  <name>  (24) 
24

>  <ligand_id>  (24) 
24

>  <original_smiles>  (24) 
[H]c1c(C([H])([H])[H])nc(C([H])([H])C([H])(C(=O)N2C([H])([H])C([H])([H])C([H])([H])C([H])(n3nc(-c4c([H])c([H])c(Oc5c([H])c([H])c(F)c([H])c5F)c([H])c4[H])c(C(=O)N([H])[H])c3N([H])[H])C2([H])[H])C([H])([H])[H])c(C([H])([H])C([H])([H])C([H])([H])Oc2c([H])c([H])c3c(c2[H])C([H])([H])N(C(=O)C([H])(N([H])C(=O)C([H])(N([H])C([H])([H])[H])C([H])([H])[H])C(C([H])([H])[H])(C([H])([H])[H])C([H])([H])[H])C([H])(C(=O)N([H])C2([H])c4c([H])c([H])c([H])c([H])c4C([H])([H])C([H])([H])C2([H])[H])C3([H])[H])c1[H]

>  <smiles>  (24) 
[H]c1c(C([H])([H])[H])nc(C([H])([H])C([H])(C(=O)N2C([H])([H])C([H])([H])C([H])([H])C([H])(n3nc(-c4c([H])c([H])c(Oc5c([H])c([H])c(F)c([H])c5F)c([H])c4[H])c(C(=O)N([H])[H])c3N([H])[H])C2([H])[H])C([H])([H])[H])c(C([H])([H])C([H])([H])C([H])([H])Oc2c([H])c([H])c3c(c2[H])C([H])([H])N(C(=O)C([H])(N([H])C(=O)C([H])(N([H])C([H])([H])[H])C([H])([H])[H])C(C([H])([H])[H])(C([H])([H])[H])C([H])([H])[H])C([H])(C(=O)N([H])C2([H])c4c([H])c([H])c([H])c([H])c4C([H])([H])C([H])([H])C2([H])[H])C3([H])[H])c1[H]

$$$$
25:0:0
     RDKit          3D

100108  0  0  1  0  0  0  0  0999 V2000
  -31.4430  -19.6020   21.3530 C   0  0  0  0  0  0  0  0  0  0  0  0
  -31.1370  -20.0200   20.0630 C   0  0  0  0  0  0  0  0  0  0  0  0
  -30.6130  -17.8760   20.2870 C   0  0  0  0  0  0  0  0  0  0  0  0
  -31.0730  -18.2660   21.4650 N   0  0  0  0  0  0  0  0  0  0  0  0
  -30.5840  -18.9040   19.3960 N   0  0  0  0  0  0  0  0  0  0  0  0
  -28.6170  -18.5230   17.8590 C   0  0  0  0  0  1  0  0  0  0  0  0
  -31.0380  -18.1170   17.0670 C   0  0  0  0  0  1  0  0  0  0  0  0
  -30.1030  -18.8990   18.0040 C   0  0  0  0  0  3  0  0  0  0  0  0
  -28.6540  -16.3160   20.6420 C   0  0  0  0  0  1  0  0  0  0  0  0
  -30.0700  -16.4720   20.0510 C   0  0  0  0  0  3  0  0  0  0  0  0
  -31.3830  -14.4130   19.6730 C   0  0  0  0  0  0  0  0  0  0  0  0
  -31.0000  -12.1030   18.8650 C   0  0  0  0  0  2  0  0  0  0  0  0
  -29.9820  -12.0760   17.7090 C   0  0  0  0  0  2  0  0  0  0  0  0
  -28.5390  -12.0280   18.2450 C   0  0  0  0  0  2  0  0  0  0  0  0
  -28.2750  -13.0940   19.3400 C   0  0  0  0  0  3  0  0  0  0  0  0
  -29.3880  -13.0470   20.4100 C   0  0  0  0  0  2  0  0  0  0  0  0
  -30.6820  -13.2460   19.7330 N   0  0  0  0  0  0  0  0  0  0  0  0
  -32.3810  -14.5570   18.9590 O   0  0  0  0  0  0  0  0  0  0  0  0
  -31.8090  -15.6110   21.7070 C   0  0  0  0  0  1  0  0  0  0  0  0
  -30.9740  -15.3840   20.5220 N   0  0  0  0  0  0  0  0  0  0  0  0
  -26.0290  -13.9060   20.3030 C   0  0  0  0  0  0  0  0  0  0  0  0
  -24.9210  -13.2280   20.7340 C   0  0  0  0  0  0  0  0  0  0  0  0
  -25.2230  -11.8400   20.5820 C   0  0  0  0  0  0  0  0  0  0  0  0
  -26.9470  -12.9360   19.9280 N   0  0  0  0  0  0  0  0  0  0  0  0
  -26.4670  -11.6850   20.1470 N   0  0  0  0  0  0  0  0  0  0  0  0
  -24.3800  -10.6520   20.7690 C   0  0  0  0  0  0  0  0  0  0  0  0
  -24.7100   -9.6560   21.7150 C   0  0  0  0  0  3  0  0  0  0  0  0
  -23.8750   -8.5320   21.8900 C   0  0  0  0  0  3  0  0  0  0  0  0
  -22.6960   -8.3970   21.1200 C   0  0  0  0  0  0  0  0  0  0  0  0
  -22.3860   -9.3790   20.1630 C   0  0  0  0  0  3  0  0  0  0  0  0
  -23.2200  -10.4950   19.9850 C   0  0  0  0  0  3  0  0  0  0  0  0
  -21.8390   -7.3260   21.2030 O   0  0  0  0  0  0  0  0  0  0  0  0
  -21.6030   -6.6840   22.3920 C   0  0  0  0  0  0  0  0  0  0  0  0
  -21.0710   -7.3610   23.5110 C   0  0  0  0  0  3  0  0  0  0  0  0
  -20.7790   -6.6480   24.6920 C   0  0  0  0  0  3  0  0  0  0  0  0
  -21.0100   -5.2600   24.7530 C   0  0  0  0  0  0  0  0  0  0  0  0
  -21.5340   -4.5840   23.6360 C   0  0  0  0  0  3  0  0  0  0  0  0
  -21.8270   -5.2940   22.4590 C   0  0  0  0  0  0  0  0  0  0  0  0
  -22.3140   -4.6330   21.3810 F   0  0  0  0  0  0  0  0  0  0  0  0
  -20.7230   -4.5740   25.8830 F   0  0  0  0  0  0  0  0  0  0  0  0
  -23.6170  -13.8300   21.1710 C   0  0  0  0  0  0  0  0  0  0  0  0
  -22.9140  -13.1740   22.0860 N   0  0  0  0  0  0  0  0  0  0  0  0
  -23.2360  -14.9160   20.7360 O   0  0  0  0  0  0  0  0  0  0  0  0
  -23.2380  -12.2930   22.4610 H   0  0  0  0  0  0  0  0  0  0  0  0
  -22.0410  -13.5570   22.4210 H   0  0  0  0  0  0  0  0  0  0  0  0
  -26.3200  -15.2590   20.1740 N   0  0  0  0  0  0  0  0  0  0  0  0
  -25.6270  -15.9740   20.3670 H   0  0  0  0  0  0  0  0  0  0  0  0
  -27.1560  -15.6230   19.7400 H   0  0  0  0  0  0  0  0  0  0  0  0
  -32.1310  -19.3330   23.7760 C   0  0  0  0  0  1  0  0  0  0  0  0
  -31.9720  -20.3310   22.5970 C   0  0  2  0  0  0  0  0  0  0  0  0
  -29.5170  -21.0540   23.2240 C   0  0  0  0  0  1  0  0  0  0  0  0
  -30.9940  -21.4530   23.0440 C   0  0  0  0  0  2  0  0  0  0  0  0
  -34.4890  -20.0290   21.8960 C   0  0  0  0  0  1  0  0  0  0  0  0
  -33.3730  -20.9740   22.3880 C   0  0  0  0  0  2  0  0  0  0  0  0
  -31.3390  -21.3730   19.4020 C   0  0  0  0  0  2  0  0  0  0  0  0
  -30.2900  -22.4680   19.7210 C   0  0  0  0  0  2  0  0  0  0  0  0
  -30.6100  -23.7970   18.9890 C   0  0  0  0  0  2  0  0  0  0  0  0
  -30.1330  -25.1060   19.6660 C   0  0  0  0  0  2  0  0  0  0  0  0
  -28.7270  -25.6200   19.2890 C   0  0  0  0  0  2  0  0  0  0  0  0
  -28.6270  -26.9720   19.7550 O   0  0  0  0  0  0  0  0  0  0  0  0
  -24.6280  -31.7900   23.1060 C   0  0  0  0  0  0  0  0  0  0  0  0
  -27.4010  -27.6060   19.7800 C   0  0  0  0  0  0  0  0  0  0  0  0
  -23.4540  -30.4290   21.4090 C   0  0  0  0  0  3  0  0  0  0  0  0
  -24.9450  -29.0130   19.8950 C   0  0  0  0  0  0  0  0  0  0  0  0
  -25.9600  -30.8880   21.2010 C   0  0  0  0  0  2  0  0  0  0  0  0
  -26.0870  -29.5530   20.4950 C   0  0  0  0  0  0  0  0  0  0  0  0
  -27.3140  -28.8570   20.4340 C   0  0  0  0  0  3  0  0  0  0  0  0
  -26.2360  -27.0720   19.1820 C   0  0  0  0  0  3  0  0  0  0  0  0
  -25.0140  -27.7720   19.2380 C   0  0  0  0  0  3  0  0  0  0  0  0
  -23.6700  -29.8210   19.9960 C   0  0  0  0  0  2  0  0  0  0  0  0
  -24.7000  -31.0490   21.9650 N   0  0  0  0  0  0  0  0  0  0  0  0
  -23.5450  -31.9960   23.6700 O   0  0  0  0  0  0  0  0  0  0  0  0
  -22.8510  -29.3380   22.3230 C   0  0  0  0  0  0  0  0  0  0  0  0
  -21.5290  -29.1320   22.2140 N   0  0  0  0  0  0  0  0  0  0  0  0
  -23.5680  -28.6850   23.0850 O   0  0  0  0  0  0  0  0  0  0  0  0
  -21.0090  -29.7130   21.5710 H   0  0  0  0  0  0  0  0  0  0  0  0
  -18.1890  -27.8600   22.7440 C   0  0  0  0  0  0  0  0  0  0  0  0
  -20.7520  -28.1320   22.9460 C   0  0  0  0  0  3  0  0  0  0  0  0
  -20.8510  -26.7460   22.2670 C   0  0  0  0  0  2  0  0  0  0  0  0
  -19.7180  -26.4790   21.2710 C   0  0  0  0  0  2  0  0  0  0  0  0
  -18.3580  -26.5620   21.9710 C   0  0  0  0  0  2  0  0  0  0  0  0
  -19.3140  -28.6050   23.1880 C   0  0  0  0  0  0  0  0  0  0  0  0
  -19.1030  -29.8220   23.8700 C   0  0  0  0  0  3  0  0  0  0  0  0
  -17.7990  -30.2940   24.1140 C   0  0  0  0  0  3  0  0  0  0  0  0
  -16.6900  -29.5440   23.6880 C   0  0  0  0  0  3  0  0  0  0  0  0
  -16.8850  -28.3280   23.0090 C   0  0  0  0  0  3  0  0  0  0  0  0
  -25.9000  -32.4340   23.7450 C   0  0  0  0  0  3  0  0  0  0  0  0
  -26.4280  -31.6490   25.0080 C   0  0  1  0  0  0  0  0  0  0  0  0
  -25.3310  -31.3450   26.0550 C   0  0  0  0  0  1  0  0  0  0  0  0
  -27.0640  -30.3040   24.5850 C   0  0  0  0  0  1  0  0  0  0  0  0
  -27.5430  -32.4640   25.7040 C   0  0  0  0  0  1  0  0  0  0  0  0
  -25.5620  -33.8200   24.0970 N   0  0  0  0  0  0  0  0  0  0  0  0
  -25.8900  -34.8910   23.3640 C   0  0  0  0  0  0  0  0  0  0  0  0
  -26.5770  -34.8200   22.3420 O   0  0  0  0  0  0  0  0  0  0  0  0
  -24.9510  -33.9480   24.8910 H   0  0  0  0  0  0  0  0  0  0  0  0
  -24.1430  -36.6650   23.0080 C   0  0  0  0  0  1  0  0  0  0  0  0
  -25.3700  -36.2620   23.8400 C   0  0  0  0  0  3  0  0  0  0  0  0
  -27.4690  -37.1610   24.7450 C   0  0  0  0  0  1  0  0  0  0  0  0
  -26.3900  -37.3320   23.7760 N   0  0  0  0  0  0  0  0  0  0  0  0
  -25.9650  -38.2430   23.9330 H   0  0  0  0  0  0  0  0  0  0  0  0
  1  4  1  0
  1 50  1  0
  2  1  2  0
  3  4  2  0
  5  2  1  0
  5  3  1  0
  6  8  1  0
  7  8  1  0
  8  5  1  0
 10  3  1  0
 10 20  1  0
 10  9  1  0
 11 17  1  0
 11 20  1  0
 12 17  1  0
 13 14  1  0
 13 12  1  0
 15 14  1  0
 15 24  1  0
 15 16  1  0
 17 16  1  0
 18 11  2  0
 20 19  1  0
 21 22  2  0
 22 41  1  0
 23 22  1  0
 23 26  1  0
 24 25  1  0
 24 21  1  0
 25 23  2  0
 26 27  1  0
 27 28  2  0
 29 32  1  0
 29 28  1  0
 30 29  2  0
 31 30  1  0
 31 26  2  0
 32 33  1  0
 33 38  2  0
 33 34  1  0
 34 35  2  0
 35 36  1  0
 36 40  1  0
 37 36  2  0
 38 37  1  0
 39 38  1  0
 41 42  1  0
 42 45  1  0
 42 44  1  0
 43 41  2  0
 46 21  1  0
 46 47  1  0
 48 46  1  0
 50 52  1  0
 50 49  1  1
 52 51  1  0
 53 54  1  0
 54 50  1  0
 55 56  1  0
 55  2  1  0
 57 58  1  0
 57 56  1  0
 59 58  1  0
 59 60  1  0
 60 62  1  0
 61 72  2  0
 62 67  1  0
 63 71  1  0
 63 73  1  0
 64 70  1  0
 64 66  1  0
 65 71  1  0
 66 65  1  0
 67 66  2  0
 68 69  1  0
 68 62  2  0
 69 64  2  0
 70 63  1  0
 71 61  1  0
 73 75  2  0
 74 73  1  0
 76 74  1  0
 77 86  2  0
 77 82  1  0
 78 74  1  0
 78 82  1  0
 79 78  1  0
 80 81  1  0
 80 79  1  0
 81 77  1  0
 82 83  2  0
 83 84  1  0
 85 84  2  0
 86 85  1  0
 87 61  1  0
 87 92  1  0
 87 88  1  0
 88 91  1  1
 88 89  1  0
 90 88  1  0
 92 95  1  0
 93 97  1  0
 93 92  1  0
 94 93  2  0
 97 96  1  0
 99 97  1  0
 99100  1  0
 99 98  1  0
M  ISO  4  11 100  20 100  59 101  60 101
M  END
>  <TORSDO>  (25) 
F 26

>  <SCORE>  (25) 
-10.061

>  <name>  (25) 
25

>  <ligand_id>  (25) 
25

>  <original_smiles>  (25) 
[H]c1c([H])c([H])c2c(c1[H])C([H])([H])C([H])([H])C([H])([H])C2([H])N([H])C(=O)C1([H])N(C(=O)C([H])(N([H])C(=O)C([H])(N([H])C([H])([H])[H])C([H])([H])[H])C(C([H])([H])[H])(C([H])([H])[H])C([H])([H])[H])C([H])([H])c2c([H])c(OC([H])([H])C([H])([H])C([H])([H])C([H])([H])C([H])([H])c3c(C(C([H])([H])[H])(C([H])([H])C([H])([H])[H])C([H])([H])C([H])([H])[H])nc(C([H])(N(C(=O)N4C([H])([H])C([H])([H])C([H])([H])C([H])(n5nc(-c6c([H])c([H])c(Oc7c([H])c([H])c(F)c([H])c7F)c([H])c6[H])c(C(=O)N([H])[H])c5N([H])[H])C4([H])[H])C([H])([H])[H])C([H])([H])[H])n3C([H])(C([H])([H])[H])C([H])([H])[H])c([H])c([H])c2C1([H])[H]

>  <smiles>  (25) 
[H]c1c([H])c([H])c2c(c1[H])C([H])([H])C([H])([H])C([H])([H])C2([H])N([H])C(=O)C1([H])N(C(=O)C([H])(N([H])C(=O)C([H])(N([H])C([H])([H])[H])C([H])([H])[H])C(C([H])([H])[H])(C([H])([H])[H])C([H])([H])[H])C([H])([H])c2c([H])c(OC([H])([H])C([H])([H])C([H])([H])C([H])([H])C([H])([H])c3c(C(C([H])([H])[H])(C([H])([H])C([H])([H])[H])C([H])([H])C([H])([H])[H])nc(C([H])(N(C(=O)N4C([H])([H])C([H])([H])C([H])([H])C([H])(n5nc(-c6c([H])c([H])c(Oc7c([H])c([H])c(F)c([H])c7F)c([H])c6[H])c(C(=O)N([H])[H])c5N([H])[H])C4([H])[H])C([H])([H])[H])C([H])([H])[H])n3C([H])(C([H])([H])[H])C([H])([H])[H])c([H])c([H])c2C1([H])[H]

$$$$
26:0:0
     RDKit          3D

 94102  0  0  1  0  0  0  0  0999 V2000
  -28.4770  -21.8680   20.2650 C   0  0  0  0  0  3  0  0  0  0  0  0
  -30.5820  -21.1240   19.4010 C   0  0  0  0  0  3  0  0  0  0  0  0
  -29.7350  -22.2770   19.7790 C   0  0  0  0  0  0  0  0  0  0  0  0
  -28.1490  -20.4960   20.3830 C   0  0  0  0  0  0  0  0  0  0  0  0
  -30.1870  -19.7020   19.5170 C   0  0  0  0  0  0  0  0  0  0  0  0
  -26.7990  -20.0920   20.9400 C   0  0  0  0  0  1  0  0  0  0  0  0
  -28.9660  -19.4660   20.0490 N   0  0  0  0  0  0  0  0  0  0  0  0
  -30.7150  -24.1970   18.3910 C   0  0  0  0  0  1  0  0  0  0  0  0
  -31.2380  -24.0380   20.8290 C   0  0  0  0  0  1  0  0  0  0  0  0
  -30.1310  -23.8790   19.7770 C   0  0  2  0  0  0  0  0  0  0  0  0
  -29.0270  -25.1080   20.0960 C   0  0  0  0  0  2  0  0  0  0  0  0
  -29.2970  -26.6390   20.0310 O   0  0  0  0  0  0  0  0  0  0  0  0
  -25.5760  -31.6690   23.9230 C   0  0  0  0  0  0  0  0  0  0  0  0
  -28.2380  -27.6060   20.1430 C   0  0  0  0  0  0  0  0  0  0  0  0
  -24.4340  -30.6400   21.9970 C   0  0  0  0  0  3  0  0  0  0  0  0
  -25.9270  -29.3510   20.3540 C   0  0  0  0  0  0  0  0  0  0  0  0
  -26.9940  -30.8930   21.9900 C   0  0  0  0  0  2  0  0  0  0  0  0
  -27.0830  -29.6550   21.0850 C   0  0  0  0  0  0  0  0  0  0  0  0
  -28.2410  -28.8010   20.9650 C   0  0  0  0  0  3  0  0  0  0  0  0
  -27.0620  -27.4100   19.3870 C   0  0  0  0  0  3  0  0  0  0  0  0
  -25.9290  -28.2440   19.4930 C   0  0  0  0  0  3  0  0  0  0  0  0
  -24.7070  -30.2410   20.5230 C   0  0  0  0  0  2  0  0  0  0  0  0
  -25.6850  -31.0770   22.6950 N   0  0  0  0  0  0  0  0  0  0  0  0
  -24.4700  -31.8640   24.4520 O   0  0  0  0  0  0  0  0  0  0  0  0
  -23.7070  -29.4760   22.7140 C   0  0  0  0  0  0  0  0  0  0  0  0
  -22.4020  -29.3020   22.4330 N   0  0  0  0  0  0  0  0  0  0  0  0
  -24.3210  -28.7370   23.4870 O   0  0  0  0  0  0  0  0  0  0  0  0
  -21.9640  -29.9550   21.7990 H   0  0  0  0  0  0  0  0  0  0  0  0
  -19.0220  -28.0040   22.4470 C   0  0  0  0  0  0  0  0  0  0  0  0
  -21.5450  -28.2390   22.9620 C   0  0  0  0  0  3  0  0  0  0  0  0
  -21.7240  -26.9290   22.1590 C   0  0  0  0  0  2  0  0  0  0  0  0
  -20.7120  -26.7780   21.0180 C   0  0  0  0  0  2  0  0  0  0  0  0
  -19.2810  -26.7960   21.5630 C   0  0  0  0  0  2  0  0  0  0  0  0
  -20.0850  -28.6910   23.0900 C   0  0  0  0  0  0  0  0  0  0  0  0
  -19.7900  -29.8270   23.8740 C   0  0  0  0  0  3  0  0  0  0  0  0
  -18.4640  -30.2780   24.0200 C   0  0  0  0  0  3  0  0  0  0  0  0
  -17.4140  -29.5860   23.3920 C   0  0  0  0  0  3  0  0  0  0  0  0
  -17.6930  -28.4500   22.6110 C   0  0  0  0  0  3  0  0  0  0  0  0
  -26.8320  -32.1450   24.7140 C   0  0  0  0  0  3  0  0  0  0  0  0
  -27.2280  -31.1740   25.8930 C   0  0  1  0  0  0  0  0  0  0  0  0
  -26.0490  -30.8140   26.8260 C   0  0  0  0  0  1  0  0  0  0  0  0
  -27.8130  -29.8510   25.3440 C   0  0  0  0  0  1  0  0  0  0  0  0
  -28.3380  -31.8230   26.7550 C   0  0  0  0  0  1  0  0  0  0  0  0
  -26.5510  -33.4930   25.2310 N   0  0  0  0  0  0  0  0  0  0  0  0
  -26.9370  -34.6340   24.6440 C   0  0  0  0  0  0  0  0  0  0  0  0
  -27.6360  -34.6580   23.6290 O   0  0  0  0  0  0  0  0  0  0  0  0
  -25.9370  -33.5500   26.0310 H   0  0  0  0  0  0  0  0  0  0  0  0
  -25.2590  -36.5060   24.5270 C   0  0  0  0  0  1  0  0  0  0  0  0
  -26.4780  -35.9580   25.2870 C   0  0  0  0  0  3  0  0  0  0  0  0
  -28.6100  -36.6760   26.2740 C   0  0  0  0  0  1  0  0  0  0  0  0
  -27.5370  -36.9900   25.3330 N   0  0  0  0  0  0  0  0  0  0  0  0
  -27.1480  -37.8940   25.5860 H   0  0  0  0  0  0  0  0  0  0  0  0
  -32.4760  -18.6810   19.9950 C   0  0  0  0  0  1  0  0  0  0  0  0
  -31.1400  -18.3680   19.3040 C   0  0  2  0  0  0  0  0  0  0  0  0
  -31.4270  -18.3420   17.9980 F   0  0  0  0  0  0  0  0  0  0  0  0
  -30.6890  -16.7930   19.7140 C   0  0  2  0  0  0  0  0  0  0  0  0
  -29.5600  -16.5890   19.0330 F   0  0  0  0  0  0  0  0  0  0  0  0
  -30.3540  -16.8350   21.0050 F   0  0  0  0  0  0  0  0  0  0  0  0
  -31.6130  -15.4150   19.5340 C   0  0  0  0  0  0  0  0  0  0  0  0
  -31.6380  -12.9470   18.9340 C   0  0  0  0  0  2  0  0  0  0  0  0
  -30.6340  -12.6820   17.7850 C   0  0  0  0  0  2  0  0  0  0  0  0
  -29.2200  -12.4280   18.3400 C   0  0  0  0  0  2  0  0  0  0  0  0
  -28.8150  -13.4770   19.4040 C   0  0  0  0  0  3  0  0  0  0  0  0
  -29.9310  -13.7130   20.4450 C   0  0  0  0  0  2  0  0  0  0  0  0
  -31.1430  -14.1140   19.7180 N   0  0  0  0  0  0  0  0  0  0  0  0
  -32.7710  -15.5080   19.1070 O   0  0  0  0  0  0  0  0  0  0  0  0
  -26.5680  -14.0500   20.4880 C   0  0  0  0  0  0  0  0  0  0  0  0
  -25.5230  -13.2720   20.9080 C   0  0  0  0  0  0  0  0  0  0  0  0
  -25.9280  -11.9190   20.6890 C   0  0  0  0  0  0  0  0  0  0  0  0
  -27.5350  -13.1710   20.0330 N   0  0  0  0  0  0  0  0  0  0  0  0
  -27.1690  -11.8780   20.2200 N   0  0  0  0  0  0  0  0  0  0  0  0
  -25.1810  -10.6640   20.8440 C   0  0  0  0  0  0  0  0  0  0  0  0
  -25.4680   -9.7580   21.8880 C   0  0  0  0  0  3  0  0  0  0  0  0
  -24.7260   -8.5660   22.0250 C   0  0  0  0  0  3  0  0  0  0  0  0
  -23.6810   -8.2720   21.1160 C   0  0  0  0  0  0  0  0  0  0  0  0
  -23.4150   -9.1670   20.0650 C   0  0  0  0  0  3  0  0  0  0  0  0
  -24.1590  -10.3510   19.9270 C   0  0  0  0  0  3  0  0  0  0  0  0
  -22.9230   -7.1280   21.1580 O   0  0  0  0  0  0  0  0  0  0  0  0
  -22.3930   -6.6560   22.3320 C   0  0  0  0  0  0  0  0  0  0  0  0
  -21.4890   -7.4210   23.1010 C   0  0  0  0  0  3  0  0  0  0  0  0
  -20.9150   -6.8710   24.2660 C   0  0  0  0  0  3  0  0  0  0  0  0
  -21.2370   -5.5580   24.6560 C   0  0  0  0  0  0  0  0  0  0  0  0
  -22.1320   -4.7930   23.8880 C   0  0  0  0  0  3  0  0  0  0  0  0
  -22.7070   -5.3400   22.7290 C   0  0  0  0  0  0  0  0  0  0  0  0
  -23.5540   -4.5920   21.9800 F   0  0  0  0  0  0  0  0  0  0  0  0
  -20.6800   -5.0260   25.7690 F   0  0  0  0  0  0  0  0  0  0  0  0
  -24.1890  -13.7570   21.3930 C   0  0  0  0  0  0  0  0  0  0  0  0
  -23.5530  -13.0070   22.2860 N   0  0  0  0  0  0  0  0  0  0  0  0
  -23.7240  -14.8310   21.0160 O   0  0  0  0  0  0  0  0  0  0  0  0
  -23.9460  -12.1370   22.6100 H   0  0  0  0  0  0  0  0  0  0  0  0
  -22.6610  -13.3070   22.6520 H   0  0  0  0  0  0  0  0  0  0  0  0
  -26.7680  -15.4260   20.4310 N   0  0  0  0  0  0  0  0  0  0  0  0
  -26.0580  -16.0930   20.7170 H   0  0  0  0  0  0  0  0  0  0  0  0
  -27.6090  -15.8680   20.0820 H   0  0  0  0  0  0  0  0  0  0  0  0
  1  4  1  0
  2  5  2  0
  2  3  1  0
  3  1  2  0
  4  6  1  0
  5  7  1  0
  7  4  2  0
 10  8  1  6
 10  3  1  0
 10 11  1  0
 10  9  1  0
 12 11  1  0
 12 14  1  0
 13 24  2  0
 14 19  1  0
 15 23  1  0
 15 25  1  0
 16 22  1  0
 16 18  1  0
 17 23  1  0
 18 17  1  0
 19 18  2  0
 20 21  1  0
 20 14  2  0
 21 16  2  0
 22 15  1  0
 23 13  1  0
 25 27  2  0
 26 25  1  0
 28 26  1  0
 29 38  2  0
 29 34  1  0
 30 26  1  0
 30 34  1  0
 31 30  1  0
 32 33  1  0
 32 31  1  0
 33 29  1  0
 34 35  2  0
 35 36  1  0
 37 36  2  0
 38 37  1  0
 39 13  1  0
 39 44  1  0
 39 40  1  0
 40 43  1  1
 40 41  1  0
 42 40  1  0
 44 47  1  0
 45 44  1  0
 45 49  1  0
 46 45  2  0
 49 48  1  0
 49 51  1  0
 51 52  1  0
 51 50  1  0
 54  5  1  0
 54 56  1  0
 54 53  1  1
 55 54  1  0
 56 58  1  1
 57 56  1  0
 59 56  1  0
 59 65  1  0
 60 65  1  0
 61 62  1  0
 61 60  1  0
 63 62  1  0
 63 70  1  0
 63 64  1  0
 65 64  1  0
 66 59  2  0
 67 68  2  0
 68 87  1  0
 69 72  1  0
 69 68  1  0
 70 71  1  0
 70 67  1  0
 71 69  2  0
 72 73  1  0
 73 74  2  0
 75 78  1  0
 75 74  1  0
 76 75  2  0
 77 76  1  0
 77 72  2  0
 78 79  1  0
 79 84  2  0
 79 80  1  0
 80 81  2  0
 81 82  1  0
 82 86  1  0
 83 82  2  0
 84 83  1  0
 85 84  1  0
 87 88  1  0
 88 90  1  0
 88 91  1  0
 89 87  2  0
 92 67  1  0
 92 93  1  0
 94 92  1  0
M  ISO  4  11 101  12 101  56 100  59 100
M  END
>  <TORSDO>  (26) 
F 20

>  <SCORE>  (26) 
-7.273

>  <name>  (26) 
26

>  <ligand_id>  (26) 
26

>  <original_smiles>  (26) 
[H]c1c([H])c([H])c2c(c1[H])C([H])([H])C([H])([H])C([H])([H])C2([H])N([H])C(=O)C1([H])N(C(=O)C([H])(N([H])C(=O)C([H])(N([H])C([H])([H])[H])C([H])([H])[H])C(C([H])([H])[H])(C([H])([H])[H])C([H])([H])[H])C([H])([H])c2c([H])c(OC([H])([H])C(c3c([H])c(C([H])([H])[H])nc(C(F)(C([H])([H])[H])C(F)(F)C(=O)N4C([H])([H])C([H])([H])C([H])([H])C([H])(n5nc(-c6c([H])c([H])c(Oc7c([H])c([H])c(F)c([H])c7F)c([H])c6[H])c(C(=O)N([H])[H])c5N([H])[H])C4([H])[H])c3[H])(C([H])([H])[H])C([H])([H])[H])c([H])c([H])c2C1([H])[H]

>  <smiles>  (26) 
[H]c1c([H])c([H])c2c(c1[H])C([H])([H])C([H])([H])C([H])([H])C2([H])N([H])C(=O)C1([H])N(C(=O)C([H])(N([H])C(=O)C([H])(N([H])C([H])([H])[H])C([H])([H])[H])C(C([H])([H])[H])(C([H])([H])[H])C([H])([H])[H])C([H])([H])c2c([H])c(OC([H])([H])C(c3c([H])c(C([H])([H])[H])nc(C(F)(C([H])([H])[H])C(F)(F)C(=O)N4C([H])([H])C([H])([H])C([H])([H])C([H])(n5nc(-c6c([H])c([H])c(Oc7c([H])c([H])c(F)c([H])c7F)c([H])c6[H])c(C(=O)N([H])[H])c5N([H])[H])C4([H])[H])c3[H])(C([H])([H])[H])C([H])([H])[H])c([H])c([H])c2C1([H])[H]

$$$$
27:0:0
     RDKit          3D

 90 98  0  0  1  0  0  0  0  0999 V2000
  -27.4780  -20.5070   20.1460 C   0  0  0  0  0  3  0  0  0  0  0  0
  -28.7860  -20.8990   20.5010 C   0  0  0  0  0  3  0  0  0  0  0  0
  -29.3500  -18.5780   20.3770 C   0  0  0  0  0  0  0  0  0  0  0  0
  -27.1610  -19.2020   19.9280 N   0  0  0  0  0  0  0  0  0  0  0  0
  -29.7320  -19.8810   20.6120 N   0  0  0  0  0  0  0  0  0  0  0  0
  -28.0940  -18.2390   20.0360 N   0  0  0  0  0  2  0  0  0  0  0  0
  -31.0650  -17.5410   18.8700 C   0  0  0  0  0  1  0  0  0  0  0  0
  -30.4180  -17.4030   20.2680 C   0  0  0  0  0  3  0  0  0  0  0  0
  -30.7350  -14.7870   20.3560 C   0  0  0  0  0  0  0  0  0  0  0  0
  -30.4970  -12.5310   19.3220 C   0  0  0  0  0  2  0  0  0  0  0  0
  -29.5470  -12.6280   18.1090 C   0  0  0  0  0  2  0  0  0  0  0  0
  -28.0830  -12.4510   18.5570 C   0  0  0  0  0  2  0  0  0  0  0  0
  -27.7250  -13.3270   19.7880 C   0  0  0  0  0  3  0  0  0  0  0  0
  -28.7960  -13.2300   20.8950 C   0  0  0  0  0  2  0  0  0  0  0  0
  -30.0840  -13.5770   20.2840 N   0  0  0  0  0  0  0  0  0  0  0  0
  -31.9340  -14.8470   20.0770 O   0  0  0  0  0  0  0  0  0  0  0  0
  -29.9880  -15.9450   20.4940 N   0  0  0  0  0  0  0  0  0  0  0  0
  -29.0030  -15.8320   20.6810 H   0  0  0  0  0  0  0  0  0  0  0  0
  -25.3480  -13.9070   20.5570 C   0  0  0  0  0  0  0  0  0  0  0  0
  -24.2870  -13.1260   20.9260 C   0  0  0  0  0  0  0  0  0  0  0  0
  -24.7490  -11.7760   20.8710 C   0  0  0  0  0  0  0  0  0  0  0  0
  -26.3880  -13.0310   20.2930 N   0  0  0  0  0  0  0  0  0  0  0  0
  -26.0370  -11.7440   20.5470 N   0  0  0  0  0  0  0  0  0  0  0  0
  -24.0250  -10.5110   21.0500 C   0  0  0  0  0  0  0  0  0  0  0  0
  -24.4490   -9.5420   21.9870 C   0  0  0  0  0  3  0  0  0  0  0  0
  -23.7240   -8.3430   22.1540 C   0  0  0  0  0  3  0  0  0  0  0  0
  -22.5600   -8.1020   21.3830 C   0  0  0  0  0  0  0  0  0  0  0  0
  -22.1570   -9.0600   20.4350 C   0  0  0  0  0  3  0  0  0  0  0  0
  -22.8830  -10.2510   20.2660 C   0  0  0  0  0  3  0  0  0  0  0  0
  -21.8070   -6.9560   21.4600 O   0  0  0  0  0  0  0  0  0  0  0  0
  -21.7170   -6.2300   22.6210 C   0  0  0  0  0  0  0  0  0  0  0  0
  -21.1970   -6.7870   23.8100 C   0  0  0  0  0  3  0  0  0  0  0  0
  -21.0560   -5.9860   24.9600 C   0  0  0  0  0  3  0  0  0  0  0  0
  -21.4260   -4.6280   24.9220 C   0  0  0  0  0  0  0  0  0  0  0  0
  -21.9390   -4.0700   23.7380 C   0  0  0  0  0  3  0  0  0  0  0  0
  -22.0820   -4.8690   22.5900 C   0  0  0  0  0  0  0  0  0  0  0  0
  -22.5570   -4.3220   21.4460 F   0  0  0  0  0  0  0  0  0  0  0  0
  -21.2840   -3.8550   26.0250 F   0  0  0  0  0  0  0  0  0  0  0  0
  -22.8920  -13.5990   21.2190 C   0  0  0  0  0  0  0  0  0  0  0  0
  -22.1720  -12.8870   22.0780 N   0  0  0  0  0  0  0  0  0  0  0  0
  -22.4500  -14.6330   20.7190 O   0  0  0  0  0  0  0  0  0  0  0  0
  -22.5430  -12.0500   22.5020 H   0  0  0  0  0  0  0  0  0  0  0  0
  -21.2370  -13.1840   22.3170 H   0  0  0  0  0  0  0  0  0  0  0  0
  -25.5100  -15.2810   20.4000 N   0  0  0  0  0  0  0  0  0  0  0  0
  -24.7440  -15.9300   20.5370 H   0  0  0  0  0  0  0  0  0  0  0  0
  -26.3510  -15.7400   20.0740 H   0  0  0  0  0  0  0  0  0  0  0  0
  -29.0780  -22.4030   20.9430 C   0  0  0  0  0  2  0  0  0  0  0  0
  -28.5790  -23.7110   20.1180 C   0  0  0  0  0  2  0  0  0  0  0  0
  -28.3430  -25.0990   20.9240 C   0  0  0  0  0  2  0  0  0  0  0  0
  -28.4360  -26.4690   20.3220 O   0  0  0  0  0  0  0  0  0  0  0  0
  -24.6310  -31.9090   23.2890 C   0  0  0  0  0  0  0  0  0  0  0  0
  -27.3140  -27.3180   20.3230 C   0  0  0  0  0  0  0  0  0  0  0  0
  -23.4620  -30.4870   21.6410 C   0  0  0  0  0  3  0  0  0  0  0  0
  -24.9430  -28.9240   20.2590 C   0  0  0  0  0  0  0  0  0  0  0  0
  -26.0020  -30.8180   21.4910 C   0  0  0  0  0  2  0  0  0  0  0  0
  -26.1020  -29.4300   20.8610 C   0  0  0  0  0  0  0  0  0  0  0  0
  -27.2950  -28.6410   20.8750 C   0  0  0  0  0  3  0  0  0  0  0  0
  -26.1320  -26.8630   19.7060 C   0  0  0  0  0  3  0  0  0  0  0  0
  -24.9610  -27.6480   19.6700 C   0  0  0  0  0  3  0  0  0  0  0  0
  -23.7010  -29.7940   20.2740 C   0  0  0  0  0  2  0  0  0  0  0  0
  -24.7170  -31.0910   22.1980 N   0  0  0  0  0  0  0  0  0  0  0  0
  -23.5370  -32.1820   23.8050 O   0  0  0  0  0  0  0  0  0  0  0  0
  -22.7880  -29.4790   22.6040 C   0  0  0  0  0  0  0  0  0  0  0  0
  -21.4680  -29.2800   22.4490 N   0  0  0  0  0  0  0  0  0  0  0  0
  -23.4550  -28.8760   23.4500 O   0  0  0  0  0  0  0  0  0  0  0  0
  -20.9890  -29.8120   21.7360 H   0  0  0  0  0  0  0  0  0  0  0  0
  -18.0990  -28.0330   22.8890 C   0  0  0  0  0  0  0  0  0  0  0  0
  -20.6470  -28.3380   23.2130 C   0  0  0  0  0  3  0  0  0  0  0  0
  -20.7850  -26.9020   22.6570 C   0  0  0  0  0  2  0  0  0  0  0  0
  -19.7120  -26.5520   21.6230 C   0  0  0  0  0  2  0  0  0  0  0  0
  -18.3130  -26.6780   22.2360 C   0  0  0  0  0  2  0  0  0  0  0  0
  -19.1960  -28.8200   23.3330 C   0  0  0  0  0  0  0  0  0  0  0  0
  -18.9440  -30.0880   23.9020 C   0  0  0  0  0  3  0  0  0  0  0  0
  -17.6280  -30.5700   24.0300 C   0  0  0  0  0  3  0  0  0  0  0  0
  -16.5450  -29.7820   23.6020 C   0  0  0  0  0  3  0  0  0  0  0  0
  -16.7820  -28.5150   23.0370 C   0  0  0  0  0  3  0  0  0  0  0  0
  -25.8990  -32.5560   23.9260 C   0  0  0  0  0  3  0  0  0  0  0  0
  -26.3920  -31.8100   25.2270 C   0  0  1  0  0  0  0  0  0  0  0  0
  -25.2770  -31.5870   26.2760 C   0  0  0  0  0  1  0  0  0  0  0  0
  -26.9880  -30.4280   24.8730 C   0  0  0  0  0  1  0  0  0  0  0  0
  -27.5240  -32.6210   25.9000 C   0  0  0  0  0  1  0  0  0  0  0  0
  -25.5800  -33.9590   24.2260 N   0  0  0  0  0  0  0  0  0  0  0  0
  -25.9240  -35.0010   23.4570 C   0  0  0  0  0  0  0  0  0  0  0  0
  -26.6130  -34.8830   22.4410 O   0  0  0  0  0  0  0  0  0  0  0  0
  -24.9690  -34.1240   25.0120 H   0  0  0  0  0  0  0  0  0  0  0  0
  -24.2110  -36.7950   23.0320 C   0  0  0  0  0  1  0  0  0  0  0  0
  -25.4260  -36.3960   23.8830 C   0  0  0  0  0  3  0  0  0  0  0  0
  -27.5310  -37.2940   24.7730 C   0  0  0  0  0  1  0  0  0  0  0  0
  -26.4630  -37.4460   23.7890 N   0  0  0  0  0  0  0  0  0  0  0  0
  -26.0530  -38.3680   23.9060 H   0  0  0  0  0  0  0  0  0  0  0  0
  1  2  1  0
  2  5  1  0
  2 47  1  0
  3  5  2  0
  4  6  1  0
  4  1  2  0
  6  3  1  0
  8  7  1  0
  8  3  1  0
  8 17  1  0
  9 17  1  0
 10 15  1  0
 11 12  1  0
 11 10  1  0
 13 12  1  0
 13 22  1  0
 13 14  1  0
 15  9  1  0
 15 14  1  0
 16  9  2  0
 17 18  1  0
 19 20  2  0
 20 39  1  0
 21 20  1  0
 21 24  1  0
 22 23  1  0
 22 19  1  0
 23 21  2  0
 24 25  1  0
 25 26  2  0
 27 30  1  0
 27 26  1  0
 28 27  2  0
 29 28  1  0
 29 24  2  0
 30 31  1  0
 31 32  1  0
 32 33  2  0
 34 33  1  0
 34 38  1  0
 35 34  2  0
 36 31  2  0
 36 35  1  0
 37 36  1  0
 39 40  1  0
 40 43  1  0
 40 42  1  0
 41 39  2  0
 44 45  1  0
 44 19  1  0
 46 44  1  0
 48 49  1  0
 48 47  1  0
 50 52  1  0
 50 49  1  0
 51 62  2  0
 52 57  1  0
 53 61  1  0
 53 63  1  0
 54 60  1  0
 54 56  1  0
 55 61  1  0
 56 57  2  0
 56 55  1  0
 58 52  2  0
 59 58  1  0
 59 54  2  0
 60 53  1  0
 61 51  1  0
 63 65  2  0
 64 63  1  0
 66 64  1  0
 67 76  2  0
 67 72  1  0
 68 64  1  0
 68 72  1  0
 69 68  1  0
 70 71  1  0
 70 69  1  0
 71 67  1  0
 72 73  2  0
 73 74  1  0
 75 74  2  0
 76 75  1  0
 77 51  1  0
 77 82  1  0
 77 78  1  0
 78 81  1  1
 78 79  1  0
 80 78  1  0
 82 85  1  0
 83 87  1  0
 83 82  1  0
 84 83  2  0
 87 86  1  0
 89 87  1  0
 89 90  1  0
 89 88  1  0
M  ISO  4   9 100  17 100  49 101  50 101
M  END
>  <TORSDO>  (27) 
F 20

>  <SCORE>  (27) 
-13.561

>  <name>  (27) 
27

>  <ligand_id>  (27) 
27

>  <original_smiles>  (27) 
[H]c1nnc(C([H])(N([H])C(=O)N2C([H])([H])C([H])([H])C([H])([H])C([H])(n3nc(-c4c([H])c([H])c(Oc5c([H])c([H])c(F)c([H])c5F)c([H])c4[H])c(C(=O)N([H])[H])c3N([H])[H])C2([H])[H])C([H])([H])[H])nc1C([H])([H])C([H])([H])C([H])([H])Oc1c([H])c([H])c2c(c1[H])C([H])([H])N(C(=O)C([H])(N([H])C(=O)C([H])(N([H])C([H])([H])[H])C([H])([H])[H])C(C([H])([H])[H])(C([H])([H])[H])C([H])([H])[H])C([H])(C(=O)N([H])C1([H])c3c([H])c([H])c([H])c([H])c3C([H])([H])C([H])([H])C1([H])[H])C2([H])[H]

>  <smiles>  (27) 
[H]c1nnc(C([H])(N([H])C(=O)N2C([H])([H])C([H])([H])C([H])([H])C([H])(n3nc(-c4c([H])c([H])c(Oc5c([H])c([H])c(F)c([H])c5F)c([H])c4[H])c(C(=O)N([H])[H])c3N([H])[H])C2([H])[H])C([H])([H])[H])nc1C([H])([H])C([H])([H])C([H])([H])Oc1c([H])c([H])c2c(c1[H])C([H])([H])N(C(=O)C([H])(N([H])C(=O)C([H])(N([H])C([H])([H])[H])C([H])([H])[H])C(C([H])([H])[H])(C([H])([H])[H])C([H])([H])[H])C([H])(C(=O)N([H])C1([H])c3c([H])c([H])c([H])c([H])c3C([H])([H])C([H])([H])C1([H])[H])C2([H])[H]

$$$$
28:0:0
     RDKit          3D

 94102  0  0  1  0  0  0  0  0999 V2000
  -29.4620  -21.0860   19.6680 C   0  0  0  0  0  2  0  0  0  0  0  0
  -31.6920  -20.4340   20.7110 C   0  0  0  0  0  3  0  0  0  0  0  0
  -32.2280  -18.1190   21.1640 C   0  0  0  0  0  3  0  0  0  0  0  0
  -32.5800  -19.4780   21.2300 C   0  0  0  0  0  0  0  0  0  0  0  0
  -30.4610  -20.0150   20.1760 C   0  0  0  0  0  0  0  0  0  0  0  0
  -30.9900  -17.7370   20.6030 C   0  0  0  0  0  0  0  0  0  0  0  0
  -33.8550  -19.9140   21.9200 C   0  0  0  0  0  1  0  0  0  0  0  0
  -30.1250  -18.6900   20.1160 N   0  0  0  0  0  0  0  0  0  0  0  0
  -30.4760  -16.2750   20.7960 C   0  0  2  0  0  0  0  0  0  0  0  0
  -29.2000  -16.2770   20.4020 F   0  0  0  0  0  0  0  0  0  0  0  0
  -30.4890  -16.0580   22.1140 F   0  0  0  0  0  0  0  0  0  0  0  0
  -31.2310  -15.0650   20.1010 C   0  0  0  0  0  0  0  0  0  0  0  0
  -31.0090  -12.8260   19.0140 C   0  0  0  0  0  2  0  0  0  0  0  0
  -30.0490  -12.9250   17.8090 C   0  0  0  0  0  2  0  0  0  0  0  0
  -28.5800  -12.7670   18.2510 C   0  0  0  0  0  2  0  0  0  0  0  0
  -28.2300  -13.6650   19.4630 C   0  0  0  0  0  3  0  0  0  0  0  0
  -29.2940  -13.5180   20.5740 C   0  0  0  0  0  2  0  0  0  0  0  0
  -30.6070  -13.8480   20.0000 N   0  0  0  0  0  0  0  0  0  0  0  0
  -32.3450  -15.2320   19.5860 O   0  0  0  0  0  0  0  0  0  0  0  0
  -25.8560  -14.3180   20.2100 C   0  0  0  0  0  0  0  0  0  0  0  0
  -24.7800  -13.5670   20.5960 C   0  0  0  0  0  0  0  0  0  0  0  0
  -25.2200  -12.2070   20.5690 C   0  0  0  0  0  0  0  0  0  0  0  0
  -26.8810  -13.4180   19.9650 N   0  0  0  0  0  0  0  0  0  0  0  0
  -26.5040  -12.1450   20.2420 N   0  0  0  0  0  0  0  0  0  0  0  0
  -24.4770  -10.9580   20.7750 C   0  0  0  0  0  0  0  0  0  0  0  0
  -24.8440  -10.0380   21.7810 C   0  0  0  0  0  3  0  0  0  0  0  0
  -24.1030   -8.8520   21.9710 C   0  0  0  0  0  3  0  0  0  0  0  0
  -22.9820   -8.5770   21.1510 C   0  0  0  0  0  0  0  0  0  0  0  0
  -22.6360   -9.4860   20.1360 C   0  0  0  0  0  3  0  0  0  0  0  0
  -23.3770  -10.6630   19.9450 C   0  0  0  0  0  3  0  0  0  0  0  0
  -22.2200   -7.4390   21.2450 O   0  0  0  0  0  0  0  0  0  0  0  0
  -22.0020   -6.8170   22.4490 C   0  0  0  0  0  0  0  0  0  0  0  0
  -21.3860   -7.4820   23.5310 C   0  0  0  0  0  3  0  0  0  0  0  0
  -21.1190   -6.7840   24.7260 C   0  0  0  0  0  3  0  0  0  0  0  0
  -21.4560   -5.4230   24.8380 C   0  0  0  0  0  0  0  0  0  0  0  0
  -22.0650   -4.7570   23.7590 C   0  0  0  0  0  3  0  0  0  0  0  0
  -22.3350   -5.4520   22.5670 C   0  0  0  0  0  0  0  0  0  0  0  0
  -22.9020   -4.8000   21.5240 F   0  0  0  0  0  0  0  0  0  0  0  0
  -21.1930   -4.7510   25.9830 F   0  0  0  0  0  0  0  0  0  0  0  0
  -23.3930  -14.0670   20.8850 C   0  0  0  0  0  0  0  0  0  0  0  0
  -22.6680  -13.3930   21.7690 N   0  0  0  0  0  0  0  0  0  0  0  0
  -22.9620  -15.0920   20.3590 O   0  0  0  0  0  0  0  0  0  0  0  0
  -23.0290  -12.5630   22.2170 H   0  0  0  0  0  0  0  0  0  0  0  0
  -21.7390  -13.7120   22.0060 H   0  0  0  0  0  0  0  0  0  0  0  0
  -26.0400  -15.6870   20.0280 N   0  0  0  0  0  0  0  0  0  0  0  0
  -25.2920  -16.3570   20.1660 H   0  0  0  0  0  0  0  0  0  0  0  0
  -26.9070  -16.1130   19.7300 H   0  0  0  0  0  0  0  0  0  0  0  0
  -28.6650  -21.2400   22.1190 C   0  0  0  0  0  1  0  0  0  0  0  0
  -27.1100  -21.8480   20.2930 C   0  0  0  0  0  1  0  0  0  0  0  0
  -28.5920  -21.8980   20.7170 C   0  0  2  0  0  0  0  0  0  0  0  0
  -29.0340  -23.4070   20.8990 C   0  0  0  0  0  2  0  0  0  0  0  0
  -28.5680  -24.5340   19.9080 C   0  0  0  0  0  2  0  0  0  0  0  0
  -28.7160  -25.9630   20.5260 C   0  0  0  0  0  2  0  0  0  0  0  0
  -28.5310  -27.0840   19.6350 O   0  0  0  0  0  0  0  0  0  0  0  0
  -24.5960  -31.9180   23.1590 C   0  0  0  0  0  0  0  0  0  0  0  0
  -27.3400  -27.7700   19.7560 C   0  0  0  0  0  0  0  0  0  0  0  0
  -23.4020  -30.5570   21.4740 C   0  0  0  0  0  3  0  0  0  0  0  0
  -24.8800  -29.1680   19.9200 C   0  0  0  0  0  0  0  0  0  0  0  0
  -25.9000  -31.0430   21.2190 C   0  0  0  0  0  2  0  0  0  0  0  0
  -26.0320  -29.7090   20.5080 C   0  0  0  0  0  0  0  0  0  0  0  0
  -27.2660  -29.0190   20.4230 C   0  0  0  0  0  3  0  0  0  0  0  0
  -26.1730  -27.2420   19.1690 C   0  0  0  0  0  3  0  0  0  0  0  0
  -24.9480  -27.9350   19.2450 C   0  0  0  0  0  3  0  0  0  0  0  0
  -23.6000  -29.9650   20.0520 C   0  0  0  0  0  2  0  0  0  0  0  0
  -24.6530  -31.1860   22.0100 N   0  0  0  0  0  0  0  0  0  0  0  0
  -23.5220  -32.1040   23.7470 O   0  0  0  0  0  0  0  0  0  0  0  0
  -22.8300  -29.4540   22.3920 C   0  0  0  0  0  0  0  0  0  0  0  0
  -21.5200  -29.1820   22.2610 N   0  0  0  0  0  0  0  0  0  0  0  0
  -23.5600  -28.8450   23.1800 O   0  0  0  0  0  0  0  0  0  0  0  0
  -20.9840  -29.7320   21.6040 H   0  0  0  0  0  0  0  0  0  0  0  0
  -18.2580  -27.6830   22.6730 C   0  0  0  0  0  0  0  0  0  0  0  0
  -20.7800  -28.1540   22.9930 C   0  0  0  0  0  3  0  0  0  0  0  0
  -21.0140  -26.7540   22.3790 C   0  0  0  0  0  2  0  0  0  0  0  0
  -19.9590  -26.3660   21.3390 C   0  0  0  0  0  2  0  0  0  0  0  0
  -18.5600  -26.3740   21.9650 C   0  0  0  0  0  2  0  0  0  0  0  0
  -19.3010  -28.5260   23.1420 C   0  0  0  0  0  0  0  0  0  0  0  0
  -18.9640  -29.7480   23.7630 C   0  0  0  0  0  3  0  0  0  0  0  0
  -17.6190  -30.1300   23.9180 C   0  0  0  0  0  3  0  0  0  0  0  0
  -16.5910  -29.2860   23.4650 C   0  0  0  0  0  3  0  0  0  0  0  0
  -16.9120  -28.0640   22.8480 C   0  0  0  0  0  3  0  0  0  0  0  0
  -25.8710  -32.5750   23.7730 C   0  0  0  0  0  3  0  0  0  0  0  0
  -25.5270  -33.9560   24.1350 N   0  0  0  0  0  0  0  0  0  0  0  0
  -25.8330  -35.0340   23.3990 C   0  0  0  0  0  0  0  0  0  0  0  0
  -26.5040  -34.9700   22.3660 O   0  0  0  0  0  0  0  0  0  0  0  0
  -24.9310  -34.0770   24.9410 H   0  0  0  0  0  0  0  0  0  0  0  0
  -24.0640  -36.7920   23.0770 C   0  0  0  0  0  1  0  0  0  0  0  0
  -25.3100  -36.3990   23.8870 C   0  0  0  0  0  3  0  0  0  0  0  0
  -27.4170  -37.3170   24.7500 C   0  0  0  0  0  1  0  0  0  0  0  0
  -26.3170  -37.4780   23.8050 N   0  0  0  0  0  0  0  0  0  0  0  0
  -25.8870  -38.3850   23.9680 H   0  0  0  0  0  0  0  0  0  0  0  0
  -26.4300  -31.7910   25.0240 C   0  0  1  0  0  0  0  0  0  0  0  0
  -25.3620  -31.4990   26.1030 C   0  0  0  0  0  1  0  0  0  0  0  0
  -27.0480  -30.4410   24.5910 C   0  0  0  0  0  1  0  0  0  0  0  0
  -27.5660  -32.6060   25.6880 C   0  0  0  0  0  1  0  0  0  0  0  0
  1  5  1  0
  1 50  1  0
  2  4  1  0
  3  4  2  0
  4  7  1  0
  5  2  2  0
  6  9  1  0
  6  3  1  0
  8  5  1  0
  8  6  2  0
  9 11  1  1
 10  9  1  0
 12  9  1  0
 13 18  1  0
 14 15  1  0
 14 13  1  0
 16 15  1  0
 16 23  1  0
 16 17  1  0
 18 12  1  0
 18 17  1  0
 19 12  2  0
 20 21  2  0
 21 40  1  0
 22 21  1  0
 22 25  1  0
 23 20  1  0
 23 24  1  0
 24 22  2  0
 25 26  1  0
 26 27  2  0
 28 31  1  0
 28 27  1  0
 29 28  2  0
 30 29  1  0
 30 25  2  0
 31 32  1  0
 32 37  2  0
 32 33  1  0
 33 34  2  0
 34 35  1  0
 35 39  1  0
 36 35  2  0
 37 36  1  0
 38 37  1  0
 40 41  1  0
 41 44  1  0
 41 43  1  0
 42 40  2  0
 45 46  1  0
 45 20  1  0
 47 45  1  0
 50 49  1  6
 50 51  1  0
 50 48  1  0
 52 53  1  0
 52 51  1  0
 54 56  1  0
 54 53  1  0
 55 66  2  0
 56 61  1  0
 57 65  1  0
 57 67  1  0
 58 64  1  0
 58 60  1  0
 59 65  1  0
 60 59  1  0
 61 60  2  0
 62 63  1  0
 62 56  2  0
 63 58  2  0
 64 57  1  0
 65 55  1  0
 67 69  2  0
 68 67  1  0
 70 68  1  0
 71 80  2  0
 71 76  1  0
 72 68  1  0
 72 76  1  0
 73 72  1  0
 74 75  1  0
 74 73  1  0
 75 71  1  0
 76 77  2  0
 77 78  1  0
 79 78  2  0
 80 79  1  0
 81 55  1  0
 81 82  1  0
 81 91  1  0
 82 85  1  0
 83 87  1  0
 83 82  1  0
 84 83  2  0
 87 86  1  0
 89 87  1  0
 89 90  1  0
 89 88  1  0
 91 94  1  1
 91 92  1  0
 93 91  1  0
M  ISO  4   9 100  12 100  53 101  54 101
M  END
>  <TORSDO>  (28) 
F 22

>  <SCORE>  (28) 
-11.818

>  <name>  (28) 
28

>  <ligand_id>  (28) 
28

>  <original_smiles>  (28) 
[H]c1c([H])c([H])c2c(c1[H])C([H])([H])C([H])([H])C([H])([H])C2([H])N([H])C(=O)C1([H])N(C(=O)C([H])(N([H])C(=O)C([H])(N([H])C([H])([H])[H])C([H])([H])[H])C(C([H])([H])[H])(C([H])([H])[H])C([H])([H])[H])C([H])([H])c2c([H])c(OC([H])([H])C([H])([H])C([H])([H])C(C([H])([H])[H])(C([H])([H])[H])C([H])([H])c3nc(C(F)(F)C(=O)N4C([H])([H])C([H])([H])C([H])([H])C([H])(n5nc(-c6c([H])c([H])c(Oc7c([H])c([H])c(F)c([H])c7F)c([H])c6[H])c(C(=O)N([H])[H])c5N([H])[H])C4([H])[H])c([H])c(C([H])([H])[H])c3[H])c([H])c([H])c2C1([H])[H]

>  <smiles>  (28) 
[H]c1c([H])c([H])c2c(c1[H])C([H])([H])C([H])([H])C([H])([H])C2([H])N([H])C(=O)C1([H])N(C(=O)C([H])(N([H])C(=O)C([H])(N([H])C([H])([H])[H])C([H])([H])[H])C(C([H])([H])[H])(C([H])([H])[H])C([H])([H])[H])C([H])([H])c2c([H])c(OC([H])([H])C([H])([H])C([H])([H])C(C([H])([H])[H])(C([H])([H])[H])C([H])([H])c3nc(C(F)(F)C(=O)N4C([H])([H])C([H])([H])C([H])([H])C([H])(n5nc(-c6c([H])c([H])c(Oc7c([H])c([H])c(F)c([H])c7F)c([H])c6[H])c(C(=O)N([H])[H])c5N([H])[H])C4([H])[H])c([H])c(C([H])([H])[H])c3[H])c([H])c([H])c2C1([H])[H]

$$$$
29:0:0
     RDKit          3D

 93101  0  0  1  0  0  0  0  0999 V2000
  -28.7670  -21.4130   22.3260 C   0  0  0  0  0  1  0  0  0  0  0  0
  -29.0910  -21.9840   20.9220 C   0  0  2  0  0  0  0  0  0  0  0  0
  -26.9570  -21.1980   19.6050 C   0  0  0  0  0  1  0  0  0  0  0  0
  -26.7670  -23.1710   21.1130 C   0  0  0  0  0  1  0  0  0  0  0  0
  -27.7410  -22.3750   20.2170 C   0  0  0  0  0  3  0  0  0  0  0  0
  -29.8990  -20.9320   20.0150 C   0  0  0  0  0  2  0  0  0  0  0  0
  -29.3170  -18.5930   21.3310 C   0  0  0  0  0  3  0  0  0  0  0  0
  -29.6610  -17.2970   21.0650 C   0  0  0  0  0  3  0  0  0  0  0  0
  -29.9190  -19.3940   20.3080 C   0  0  0  0  0  0  0  0  0  0  0  0
  -30.5650  -18.5680   19.4640 N   0  0  0  0  0  0  0  0  0  0  0  0
  -30.4300  -17.2770   19.9270 N   0  0  0  0  0  0  0  0  0  0  0  0
  -31.7080  -16.4850   17.8930 C   0  0  0  0  0  1  0  0  0  0  0  0
  -30.8430  -16.0960   19.1180 C   0  0  0  0  0  3  0  0  0  0  0  0
  -31.4860  -14.8540   19.8560 C   0  0  0  0  0  0  0  0  0  0  0  0
  -31.0600  -12.6150   19.0090 C   0  0  0  0  0  2  0  0  0  0  0  0
  -30.1040  -12.7880   17.8100 C   0  0  0  0  0  2  0  0  0  0  0  0
  -28.6340  -12.7340   18.2740 C   0  0  0  0  0  2  0  0  0  0  0  0
  -28.3490  -13.6500   19.4940 C   0  0  0  0  0  3  0  0  0  0  0  0
  -29.4460  -13.5330   20.5790 C   0  0  0  0  0  2  0  0  0  0  0  0
  -30.7700  -13.6970   19.9600 N   0  0  0  0  0  0  0  0  0  0  0  0
  -32.7180  -14.8360   19.8600 O   0  0  0  0  0  0  0  0  0  0  0  0
  -26.0600  -14.4160   20.3480 C   0  0  0  0  0  0  0  0  0  0  0  0
  -24.9420  -13.7210   20.7070 C   0  0  0  0  0  0  0  0  0  0  0  0
  -25.2860  -12.3380   20.5990 C   0  0  0  0  0  0  0  0  0  0  0  0
  -27.0140  -13.4600   20.0330 N   0  0  0  0  0  0  0  0  0  0  0  0
  -26.5580  -12.2040   20.2500 N   0  0  0  0  0  0  0  0  0  0  0  0
  -24.4650  -11.1340   20.7470 C   0  0  0  0  0  0  0  0  0  0  0  0
  -24.8580  -10.0780   21.6000 C   0  0  0  0  0  3  0  0  0  0  0  0
  -24.0430   -8.9350   21.7380 C   0  0  0  0  0  3  0  0  0  0  0  0
  -22.8230   -8.8410   21.0250 C   0  0  0  0  0  0  0  0  0  0  0  0
  -22.4520   -9.8850   20.1600 C   0  0  0  0  0  3  0  0  0  0  0  0
  -23.2660  -11.0200   20.0180 C   0  0  0  0  0  3  0  0  0  0  0  0
  -21.9800   -7.7580   21.0810 O   0  0  0  0  0  0  0  0  0  0  0  0
  -21.8810   -6.9820   22.2090 C   0  0  0  0  0  0  0  0  0  0  0  0
  -21.5370   -7.5320   23.4640 C   0  0  0  0  0  3  0  0  0  0  0  0
  -21.3760   -6.6880   24.5820 C   0  0  0  0  0  3  0  0  0  0  0  0
  -21.5510   -5.2980   24.4430 C   0  0  0  0  0  0  0  0  0  0  0  0
  -21.8880   -4.7490   23.1950 C   0  0  0  0  0  3  0  0  0  0  0  0
  -22.0510   -5.5900   22.0800 C   0  0  0  0  0  0  0  0  0  0  0  0
  -22.3560   -5.0550   20.8740 F   0  0  0  0  0  0  0  0  0  0  0  0
  -21.3890   -4.4850   25.5150 F   0  0  0  0  0  0  0  0  0  0  0  0
  -23.5950  -14.2990   21.0400 C   0  0  0  0  0  0  0  0  0  0  0  0
  -22.8400  -13.6350   21.9070 N   0  0  0  0  0  0  0  0  0  0  0  0
  -23.2270  -15.3730   20.5660 O   0  0  0  0  0  0  0  0  0  0  0  0
  -23.1570  -12.7710   22.3200 H   0  0  0  0  0  0  0  0  0  0  0  0
  -21.9350  -14.0020   22.1660 H   0  0  0  0  0  0  0  0  0  0  0  0
  -26.3360  -15.7790   20.2350 N   0  0  0  0  0  0  0  0  0  0  0  0
  -25.6310  -16.4810   20.4220 H   0  0  0  0  0  0  0  0  0  0  0  0
  -27.2130  -16.1730   19.9190 H   0  0  0  0  0  0  0  0  0  0  0  0
  -29.9570  -23.2840   21.2440 C   0  0  0  0  0  2  0  0  0  0  0  0
  -29.9080  -24.5860   20.3670 C   0  0  0  0  0  2  0  0  0  0  0  0
  -29.5880  -25.8790   21.1850 C   0  0  0  0  0  2  0  0  0  0  0  0
  -29.3580  -27.0360   20.3750 O   0  0  0  0  0  0  0  0  0  0  0  0
  -24.8420  -31.8010   23.2630 C   0  0  0  0  0  0  0  0  0  0  0  0
  -28.1040  -27.6080   20.4120 C   0  0  0  0  0  0  0  0  0  0  0  0
  -23.8910  -30.2970   21.5410 C   0  0  0  0  0  3  0  0  0  0  0  0
  -25.5780  -28.8770   20.2540 C   0  0  0  0  0  0  0  0  0  0  0  0
  -26.3820  -30.8700   21.5330 C   0  0  0  0  0  2  0  0  0  0  0  0
  -26.6370  -29.5070   20.9210 C   0  0  0  0  0  0  0  0  0  0  0  0
  -27.9020  -28.8810   20.9960 C   0  0  0  0  0  3  0  0  0  0  0  0
  -27.0260  -26.9780   19.7570 C   0  0  0  0  0  3  0  0  0  0  0  0
  -25.7660  -27.6080   19.6740 C   0  0  0  0  0  3  0  0  0  0  0  0
  -24.2640  -29.6230   20.1920 C   0  0  0  0  0  2  0  0  0  0  0  0
  -25.0520  -31.0060   22.1730 N   0  0  0  0  0  0  0  0  0  0  0  0
  -23.7030  -31.9820   23.7150 O   0  0  0  0  0  0  0  0  0  0  0  0
  -23.2540  -29.2310   22.4620 C   0  0  0  0  0  0  0  0  0  0  0  0
  -21.9470  -28.9840   22.2760 N   0  0  0  0  0  0  0  0  0  0  0  0
  -23.9360  -28.6260   23.2940 O   0  0  0  0  0  0  0  0  0  0  0  0
  -21.4560  -29.5340   21.5840 H   0  0  0  0  0  0  0  0  0  0  0  0
  -18.6070  -27.6620   22.6610 C   0  0  0  0  0  0  0  0  0  0  0  0
  -21.1500  -27.9860   22.9900 C   0  0  0  0  0  3  0  0  0  0  0  0
  -21.3070  -26.5890   22.3460 C   0  0  0  0  0  2  0  0  0  0  0  0
  -20.2330  -26.2870   21.2970 C   0  0  0  0  0  2  0  0  0  0  0  0
  -18.8380  -26.3500   21.9280 C   0  0  0  0  0  2  0  0  0  0  0  0
  -19.6940  -28.4390   23.1410 C   0  0  0  0  0  0  0  0  0  0  0  0
  -19.4250  -29.6700   23.7780 C   0  0  0  0  0  3  0  0  0  0  0  0
  -18.1030  -30.1230   23.9410 C   0  0  0  0  0  3  0  0  0  0  0  0
  -17.0310  -29.3440   23.4770 C   0  0  0  0  0  3  0  0  0  0  0  0
  -17.2830  -28.1140   22.8430 C   0  0  0  0  0  3  0  0  0  0  0  0
  -26.0210  -32.5350   23.9770 C   0  0  0  0  0  3  0  0  0  0  0  0
  -25.5850  -33.9140   24.2430 N   0  0  0  0  0  0  0  0  0  0  0  0
  -25.9040  -34.9710   23.4830 C   0  0  0  0  0  0  0  0  0  0  0  0
  -26.6610  -34.8930   22.5110 O   0  0  0  0  0  0  0  0  0  0  0  0
  -24.9150  -34.0430   24.9860 H   0  0  0  0  0  0  0  0  0  0  0  0
  -24.0720  -36.6080   22.9510 C   0  0  0  0  0  1  0  0  0  0  0  0
  -25.2800  -36.3270   23.8570 C   0  0  0  0  0  3  0  0  0  0  0  0
  -27.2810  -37.3940   24.7980 C   0  0  0  0  0  1  0  0  0  0  0  0
  -26.2360  -37.4540   23.7800 N   0  0  0  0  0  0  0  0  0  0  0  0
  -25.7520  -38.3430   23.8740 H   0  0  0  0  0  0  0  0  0  0  0  0
  -26.4780  -31.8290   25.3120 C   0  0  1  0  0  0  0  0  0  0  0  0
  -25.3110  -31.4990   26.2710 C   0  0  0  0  0  1  0  0  0  0  0  0
  -27.2230  -30.5090   25.0010 C   0  0  0  0  0  1  0  0  0  0  0  0
  -27.4810  -32.7330   26.0670 C   0  0  0  0  0  1  0  0  0  0  0  0
  2 50  1  0
  2  1  1  1
  3  5  1  0
  5  2  1  0
  5  4  1  0
  6  9  1  0
  6  2  1  0
  8  7  2  0
  9  7  1  0
 10 11  1  0
 10  9  2  0
 11  8  1  0
 13 12  1  0
 13 14  1  0
 13 11  1  0
 14 21  2  0
 14 20  1  0
 15 20  1  0
 16 17  1  0
 16 15  1  0
 18 17  1  0
 18 25  1  0
 18 19  1  0
 20 19  1  0
 22 23  2  0
 23 42  1  0
 24 23  1  0
 24 27  1  0
 25 26  1  0
 25 22  1  0
 26 24  2  0
 27 28  1  0
 28 29  2  0
 30 33  1  0
 30 29  1  0
 31 30  2  0
 32 31  1  0
 32 27  2  0
 33 34  1  0
 34 35  1  0
 35 36  2  0
 37 36  1  0
 37 41  1  0
 38 37  2  0
 39 34  2  0
 39 38  1  0
 40 39  1  0
 42 43  1  0
 43 46  1  0
 43 45  1  0
 44 42  2  0
 47 22  1  0
 47 48  1  0
 49 47  1  0
 51 52  1  0
 51 50  1  0
 53 55  1  0
 53 52  1  0
 54 65  2  0
 55 60  1  0
 56 64  1  0
 56 66  1  0
 57 59  1  0
 58 64  1  0
 59 60  2  0
 59 58  1  0
 61 55  2  0
 62 61  1  0
 62 57  2  0
 63 57  1  0
 63 56  1  0
 64 54  1  0
 66 68  2  0
 67 66  1  0
 69 67  1  0
 70 79  2  0
 70 75  1  0
 71 67  1  0
 71 75  1  0
 72 71  1  0
 73 74  1  0
 73 72  1  0
 74 70  1  0
 75 76  2  0
 76 77  1  0
 78 77  2  0
 79 78  1  0
 80 54  1  0
 80 81  1  0
 80 90  1  0
 81 84  1  0
 82 86  1  0
 82 81  1  0
 83 82  2  0
 86 85  1  0
 88 86  1  0
 88 89  1  0
 88 87  1  0
 90 93  1  1
 90 91  1  0
 92 90  1  0
M  ISO  4  13 100  14 100  52 101  53 101
M  END
>  <TORSDO>  (29) 
F 23

>  <SCORE>  (29) 
-10.804

>  <name>  (29) 
29

>  <ligand_id>  (29) 
29

>  <original_smiles>  (29) 
[H]c1c([H])c([H])c2c(c1[H])C([H])([H])C([H])([H])C([H])([H])C2([H])N([H])C(=O)C1([H])N(C(=O)C([H])(N([H])C(=O)C([H])(N([H])C([H])([H])[H])C([H])([H])[H])C(C([H])([H])[H])(C([H])([H])[H])C([H])([H])[H])C([H])([H])c2c([H])c(OC([H])([H])C([H])([H])C([H])([H])C(C([H])([H])[H])(C([H])([H])c3nn(C([H])(C(=O)N4C([H])([H])C([H])([H])C([H])([H])C([H])(n5nc(-c6c([H])c([H])c(Oc7c([H])c([H])c(F)c([H])c7F)c([H])c6[H])c(C(=O)N([H])[H])c5N([H])[H])C4([H])[H])C([H])([H])[H])c([H])c3[H])C([H])(C([H])([H])[H])C([H])([H])[H])c([H])c([H])c2C1([H])[H]

>  <smiles>  (29) 
[H]c1c([H])c([H])c2c(c1[H])C([H])([H])C([H])([H])C([H])([H])C2([H])N([H])C(=O)C1([H])N(C(=O)C([H])(N([H])C(=O)C([H])(N([H])C([H])([H])[H])C([H])([H])[H])C(C([H])([H])[H])(C([H])([H])[H])C([H])([H])[H])C([H])([H])c2c([H])c(OC([H])([H])C([H])([H])C([H])([H])C(C([H])([H])[H])(C([H])([H])c3nn(C([H])(C(=O)N4C([H])([H])C([H])([H])C([H])([H])C([H])(n5nc(-c6c([H])c([H])c(Oc7c([H])c([H])c(F)c([H])c7F)c([H])c6[H])c(C(=O)N([H])[H])c5N([H])[H])C4([H])[H])C([H])([H])[H])c([H])c3[H])C([H])(C([H])([H])[H])C([H])([H])[H])c([H])c([H])c2C1([H])[H]

$$$$
30:0:0
     RDKit          3D

 93101  0  0  1  0  0  0  0  0999 V2000
  -29.2630  -21.0750   20.8250 C   0  0  0  0  0  0  0  0  0  0  0  0
  -28.9250  -20.2050   19.7540 C   0  0  0  0  0  0  0  0  0  0  0  0
  -30.1380  -20.5020   21.7810 C   0  0  0  0  0  0  0  0  0  0  0  0
  -30.1990  -18.4930   20.6280 C   0  0  0  0  0  0  0  0  0  0  0  0
  -27.9780  -20.5960   18.6350 C   0  0  0  0  0  1  0  0  0  0  0  0
  -29.3940  -18.9400   19.6730 N   0  0  0  0  0  0  0  0  0  0  0  0
  -30.5930  -19.2260   21.6680 N   0  0  0  0  0  0  0  0  0  0  0  0
  -32.0740  -21.7600   22.8220 C   0  0  0  0  0  1  0  0  0  0  0  0
  -30.6340  -21.2650   23.0010 C   0  0  0  0  0  2  0  0  0  0  0  0
  -28.4980  -22.4150   21.0560 C   0  0  0  0  0  2  0  0  0  0  0  0
  -29.0750  -23.8810   20.8000 C   0  0  0  0  0  2  0  0  0  0  0  0
  -27.5560  -24.4330   18.9330 C   0  0  0  0  0  1  0  0  0  0  0  0
  -26.8060  -24.7250   21.4500 C   0  0  0  0  0  1  0  0  0  0  0  0
  -27.9290  -24.9100   20.3680 C   0  0  1  0  0  0  0  0  0  0  0  0
  -28.2440  -26.3740   20.3040 O   0  0  0  0  0  0  0  0  0  0  0  0
  -24.5790  -31.8430   23.2300 C   0  0  0  0  0  0  0  0  0  0  0  0
  -27.1760  -27.2930   20.1660 C   0  0  0  0  0  0  0  0  0  0  0  0
  -23.3830  -30.4630   21.5770 C   0  0  0  0  0  3  0  0  0  0  0  0
  -24.8360  -28.9420   20.1430 C   0  0  0  0  0  0  0  0  0  0  0  0
  -25.9300  -30.7660   21.4250 C   0  0  0  0  0  2  0  0  0  0  0  0
  -26.0050  -29.4000   20.7630 C   0  0  0  0  0  0  0  0  0  0  0  0
  -27.1790  -28.5860   20.7740 C   0  0  0  0  0  3  0  0  0  0  0  0
  -25.9890  -26.9340   19.4760 C   0  0  0  0  0  3  0  0  0  0  0  0
  -24.8290  -27.7120   19.4920 C   0  0  0  0  0  3  0  0  0  0  0  0
  -23.6020  -29.8120   20.1910 C   0  0  0  0  0  2  0  0  0  0  0  0
  -24.6490  -31.0390   22.1320 N   0  0  0  0  0  0  0  0  0  0  0  0
  -23.4910  -32.1260   23.7530 O   0  0  0  0  0  0  0  0  0  0  0  0
  -22.7090  -29.4360   22.5180 C   0  0  0  0  0  0  0  0  0  0  0  0
  -21.3800  -29.2750   22.3870 N   0  0  0  0  0  0  0  0  0  0  0  0
  -23.3780  -28.7920   23.3320 O   0  0  0  0  0  0  0  0  0  0  0  0
  -20.9020  -29.8420   21.7010 H   0  0  0  0  0  0  0  0  0  0  0  0
  -17.9800  -28.1550   22.9030 C   0  0  0  0  0  0  0  0  0  0  0  0
  -20.5470  -28.3450   23.1500 C   0  0  0  0  0  3  0  0  0  0  0  0
  -20.6070  -26.9210   22.5480 C   0  0  0  0  0  2  0  0  0  0  0  0
  -19.4870  -26.6430   21.5420 C   0  0  0  0  0  2  0  0  0  0  0  0
  -18.1160  -26.8130   22.2030 C   0  0  0  0  0  2  0  0  0  0  0  0
  -19.1230  -28.8810   23.3330 C   0  0  0  0  0  0  0  0  0  0  0  0
  -18.9420  -30.1380   23.9500 C   0  0  0  0  0  3  0  0  0  0  0  0
  -17.6530  -30.6700   24.1380 C   0  0  0  0  0  3  0  0  0  0  0  0
  -16.5250  -29.9390   23.7250 C   0  0  0  0  0  3  0  0  0  0  0  0
  -16.6900  -28.6840   23.1110 C   0  0  0  0  0  3  0  0  0  0  0  0
  -25.8600  -32.4650   23.8630 C   0  0  0  0  0  3  0  0  0  0  0  0
  -25.5550  -33.8640   24.1920 N   0  0  0  0  0  0  0  0  0  0  0  0
  -25.8870  -34.9140   23.4290 C   0  0  0  0  0  0  0  0  0  0  0  0
  -26.5560  -34.8080   22.3970 O   0  0  0  0  0  0  0  0  0  0  0  0
  -24.9630  -34.0220   24.9940 H   0  0  0  0  0  0  0  0  0  0  0  0
  -24.1670  -36.7120   23.0710 C   0  0  0  0  0  1  0  0  0  0  0  0
  -25.4040  -36.3050   23.8850 C   0  0  0  0  0  3  0  0  0  0  0  0
  -27.5370  -37.1860   24.7250 C   0  0  0  0  0  1  0  0  0  0  0  0
  -26.4420  -37.3540   23.7740 N   0  0  0  0  0  0  0  0  0  0  0  0
  -26.0380  -38.2760   23.9130 H   0  0  0  0  0  0  0  0  0  0  0  0
  -26.3580  -31.6870   25.1420 C   0  0  1  0  0  0  0  0  0  0  0  0
  -25.2510  -31.4470   26.1950 C   0  0  0  0  0  1  0  0  0  0  0  0
  -26.9430  -30.3090   24.7530 C   0  0  0  0  0  1  0  0  0  0  0  0
  -27.5050  -32.4750   25.8180 C   0  0  0  0  0  1  0  0  0  0  0  0
  -30.8240  -17.0990   20.4170 C   0  0  0  0  0  2  0  0  0  0  0  0
  -30.0210  -15.8150   20.8480 C   0  0  0  0  0  2  0  0  0  0  0  0
  -30.6540  -14.5040   20.2860 C   0  0  0  0  0  0  0  0  0  0  0  0
  -30.2910  -12.3440   19.1360 C   0  0  0  0  0  2  0  0  0  0  0  0
  -29.3340  -12.5640   17.9460 C   0  0  0  0  0  2  0  0  0  0  0  0
  -27.8690  -12.4190   18.4010 C   0  0  0  0  0  2  0  0  0  0  0  0
  -27.5550  -13.2470   19.6770 C   0  0  0  0  0  3  0  0  0  0  0  0
  -28.6370  -13.0570   20.7650 C   0  0  0  0  0  2  0  0  0  0  0  0
  -29.9500  -13.3390   20.1700 N   0  0  0  0  0  0  0  0  0  0  0  0
  -31.7910  -14.5970   19.8160 O   0  0  0  0  0  0  0  0  0  0  0  0
  -25.1720  -13.8360   20.4410 C   0  0  0  0  0  0  0  0  0  0  0  0
  -24.1120  -13.0580   20.8240 C   0  0  0  0  0  0  0  0  0  0  0  0
  -24.5770  -11.7080   20.7780 C   0  0  0  0  0  0  0  0  0  0  0  0
  -26.2140  -12.9600   20.1840 N   0  0  0  0  0  0  0  0  0  0  0  0
  -25.8620  -11.6740   20.4470 N   0  0  0  0  0  0  0  0  0  0  0  0
  -23.8540  -10.4430   20.9730 C   0  0  0  0  0  0  0  0  0  0  0  0
  -24.2830   -9.4860   21.9200 C   0  0  0  0  0  3  0  0  0  0  0  0
  -23.5590   -8.2870   22.1020 C   0  0  0  0  0  3  0  0  0  0  0  0
  -22.3940   -8.0370   21.3390 C   0  0  0  0  0  0  0  0  0  0  0  0
  -21.9850   -8.9830   20.3820 C   0  0  0  0  0  3  0  0  0  0  0  0
  -22.7090  -10.1730   20.1980 C   0  0  0  0  0  3  0  0  0  0  0  0
  -21.6450   -6.8890   21.4310 O   0  0  0  0  0  0  0  0  0  0  0  0
  -21.5710   -6.1690   22.5970 C   0  0  0  0  0  0  0  0  0  0  0  0
  -21.0790   -6.7360   23.7930 C   0  0  0  0  0  3  0  0  0  0  0  0
  -20.9540   -5.9410   24.9500 C   0  0  0  0  0  3  0  0  0  0  0  0
  -21.3100   -4.5790   24.9120 C   0  0  0  0  0  0  0  0  0  0  0  0
  -21.7930   -4.0120   23.7190 C   0  0  0  0  0  3  0  0  0  0  0  0
  -21.9200   -4.8040   22.5650 C   0  0  0  0  0  0  0  0  0  0  0  0
  -22.3660   -4.2460   21.4140 F   0  0  0  0  0  0  0  0  0  0  0  0
  -21.1820   -3.8130   26.0200 F   0  0  0  0  0  0  0  0  0  0  0  0
  -22.7190  -13.5320   21.1230 C   0  0  0  0  0  0  0  0  0  0  0  0
  -22.0040  -12.8270   21.9930 N   0  0  0  0  0  0  0  0  0  0  0  0
  -22.2720  -14.5620   20.6210 O   0  0  0  0  0  0  0  0  0  0  0  0
  -22.3780  -11.9940   22.4230 H   0  0  0  0  0  0  0  0  0  0  0  0
  -21.0710  -13.1270   22.2330 H   0  0  0  0  0  0  0  0  0  0  0  0
  -25.3310  -15.2070   20.2690 N   0  0  0  0  0  0  0  0  0  0  0  0
  -24.5690  -15.8620   20.4040 H   0  0  0  0  0  0  0  0  0  0  0  0
  -26.1800  -15.6520   19.9390 H   0  0  0  0  0  0  0  0  0  0  0  0
  1 10  1  0
  1  3  1  0
  2  1  2  0
  3  9  1  0
  4  7  1  0
  5  2  1  0
  6  2  1  0
  6  4  2  0
  7  3  2  0
  8  9  1  0
 11 10  1  0
 14 12  1  6
 14 11  1  0
 14 13  1  0
 15 14  1  0
 16 27  2  0
 17 15  1  0
 17 22  1  0
 18 26  1  0
 18 28  1  0
 19 25  1  0
 19 21  1  0
 20 26  1  0
 21 22  2  0
 21 20  1  0
 23 24  1  0
 23 17  2  0
 24 19  2  0
 25 18  1  0
 26 16  1  0
 28 30  2  0
 29 28  1  0
 31 29  1  0
 32 41  2  0
 32 37  1  0
 33 29  1  0
 33 37  1  0
 34 33  1  0
 35 36  1  0
 35 34  1  0
 36 32  1  0
 37 38  2  0
 38 39  1  0
 40 39  2  0
 41 40  1  0
 42 16  1  0
 42 43  1  0
 42 52  1  0
 43 46  1  0
 44 48  1  0
 44 43  1  0
 45 44  2  0
 48 47  1  0
 50 48  1  0
 50 51  1  0
 50 49  1  0
 52 55  1  1
 52 53  1  0
 54 52  1  0
 56  4  1  0
 56 57  1  0
 58 57  1  0
 59 64  1  0
 60 61  1  0
 60 59  1  0
 62 61  1  0
 62 69  1  0
 62 63  1  0
 64 58  1  0
 64 63  1  0
 65 58  2  0
 66 67  2  0
 67 86  1  0
 68 67  1  0
 68 71  1  0
 69 66  1  0
 69 70  1  0
 70 68  2  0
 71 72  1  0
 72 73  2  0
 74 77  1  0
 74 73  1  0
 75 74  2  0
 76 75  1  0
 76 71  2  0
 77 78  1  0
 78 79  1  0
 79 80  2  0
 81 80  1  0
 81 85  1  0
 82 81  2  0
 83 78  2  0
 83 82  1  0
 84 83  1  0
 86 87  1  0
 87 90  1  0
 87 89  1  0
 88 86  2  0
 91 92  1  0
 91 66  1  0
 93 91  1  0
M  ISO  4  14 101  15 101  57 100  58 100
M  END
>  <TORSDO>  (30) 
F 22

>  <SCORE>  (30) 
-13.092

>  <name>  (30) 
30

>  <ligand_id>  (30) 
30

>  <original_smiles>  (30) 
[H]c1c([H])c([H])c2c(c1[H])C([H])([H])C([H])([H])C([H])([H])C2([H])N([H])C(=O)C1([H])N(C(=O)C([H])(N([H])C(=O)C([H])(N([H])C([H])([H])[H])C([H])([H])[H])C(C([H])([H])[H])(C([H])([H])[H])C([H])([H])[H])C([H])([H])c2c([H])c(OC(C([H])([H])[H])(C([H])([H])[H])C([H])([H])C([H])([H])c3c(C([H])([H])[H])nc(C([H])([H])C([H])([H])C(=O)N4C([H])([H])C([H])([H])C([H])([H])C([H])(n5nc(-c6c([H])c([H])c(Oc7c([H])c([H])c(F)c([H])c7F)c([H])c6[H])c(C(=O)N([H])[H])c5N([H])[H])C4([H])[H])nc3C([H])([H])C([H])([H])[H])c([H])c([H])c2C1([H])[H]

>  <smiles>  (30) 
[H]c1c([H])c([H])c2c(c1[H])C([H])([H])C([H])([H])C([H])([H])C2([H])N([H])C(=O)C1([H])N(C(=O)C([H])(N([H])C(=O)C([H])(N([H])C([H])([H])[H])C([H])([H])[H])C(C([H])([H])[H])(C([H])([H])[H])C([H])([H])[H])C([H])([H])c2c([H])c(OC(C([H])([H])[H])(C([H])([H])[H])C([H])([H])C([H])([H])c3c(C([H])([H])[H])nc(C([H])([H])C([H])([H])C(=O)N4C([H])([H])C([H])([H])C([H])([H])C([H])(n5nc(-c6c([H])c([H])c(Oc7c([H])c([H])c(F)c([H])c7F)c([H])c6[H])c(C(=O)N([H])[H])c5N([H])[H])C4([H])[H])nc3C([H])([H])C([H])([H])[H])c([H])c([H])c2C1([H])[H]

$$$$
31:0:0
     RDKit          3D

 94102  0  0  1  0  0  0  0  0999 V2000
  -28.6380  -19.9470   20.2400 C   0  0  0  0  0  3  0  0  0  0  0  0
  -29.8840  -19.2890   20.0790 C   0  0  0  0  0  0  0  0  0  0  0  0
  -29.6550  -22.0240   20.0320 C   0  0  0  0  0  0  0  0  0  0  0  0
  -30.9180  -21.3720   19.9570 C   0  0  0  0  0  0  0  0  0  0  0  0
  -28.5210  -21.3010   20.2120 N   0  0  0  0  0  0  0  0  0  0  0  0
  -31.0300  -20.0130   19.9750 N   0  0  0  0  0  0  0  0  0  0  0  0
  -32.7120  -22.2010   18.3590 C   0  0  0  0  0  1  0  0  0  0  0  0
  -32.2270  -22.1330   19.8140 C   0  0  0  0  0  2  0  0  0  0  0  0
  -29.4480  -23.5380   19.8230 C   0  0  0  0  0  2  0  0  0  0  0  0
  -29.3150  -24.3780   21.1160 C   0  0  0  0  0  2  0  0  0  0  0  0
  -28.1810  -25.4390   21.1160 C   0  0  0  0  0  2  0  0  0  0  0  0
  -28.4310  -26.6790   20.4140 O   0  0  0  0  0  0  0  0  0  0  0  0
  -24.5680  -31.9590   23.2740 C   0  0  0  0  0  0  0  0  0  0  0  0
  -27.3010  -27.4740   20.3240 C   0  0  0  0  0  0  0  0  0  0  0  0
  -23.4140  -30.5340   21.6170 C   0  0  0  0  0  3  0  0  0  0  0  0
  -24.9140  -28.9910   20.2420 C   0  0  0  0  0  0  0  0  0  0  0  0
  -25.9460  -30.8960   21.4870 C   0  0  0  0  0  2  0  0  0  0  0  0
  -26.0540  -29.5180   20.8620 C   0  0  0  0  0  0  0  0  0  0  0  0
  -27.2550  -28.7670   20.9000 C   0  0  0  0  0  3  0  0  0  0  0  0
  -26.1510  -26.9770   19.6770 C   0  0  0  0  0  3  0  0  0  0  0  0
  -24.9580  -27.7220   19.6430 C   0  0  0  0  0  3  0  0  0  0  0  0
  -23.6630  -29.8430   20.2490 C   0  0  0  0  0  2  0  0  0  0  0  0
  -24.6600  -31.1450   22.1850 N   0  0  0  0  0  0  0  0  0  0  0  0
  -23.4710  -32.2330   23.7810 O   0  0  0  0  0  0  0  0  0  0  0  0
  -22.7410  -29.5200   22.5710 C   0  0  0  0  0  0  0  0  0  0  0  0
  -21.4210  -29.3310   22.4100 N   0  0  0  0  0  0  0  0  0  0  0  0
  -23.4040  -28.9070   23.4120 O   0  0  0  0  0  0  0  0  0  0  0  0
  -20.9470  -29.8770   21.7050 H   0  0  0  0  0  0  0  0  0  0  0  0
  -18.0340  -28.1470   22.8500 C   0  0  0  0  0  0  0  0  0  0  0  0
  -20.5880  -28.3970   23.1690 C   0  0  0  0  0  3  0  0  0  0  0  0
  -20.6980  -26.9650   22.6000 C   0  0  0  0  0  2  0  0  0  0  0  0
  -19.6130  -26.6420   21.5670 C   0  0  0  0  0  2  0  0  0  0  0  0
  -18.2200  -26.7930   22.1850 C   0  0  0  0  0  2  0  0  0  0  0  0
  -19.1470  -28.9060   23.2990 C   0  0  0  0  0  0  0  0  0  0  0  0
  -18.9210  -30.1740   23.8800 C   0  0  0  0  0  3  0  0  0  0  0  0
  -17.6150  -30.6800   24.0190 C   0  0  0  0  0  3  0  0  0  0  0  0
  -16.5160  -29.9160   23.5870 C   0  0  0  0  0  3  0  0  0  0  0  0
  -16.7270  -28.6510   23.0080 C   0  0  0  0  0  3  0  0  0  0  0  0
  -25.8330  -32.6050   23.9210 C   0  0  0  0  0  3  0  0  0  0  0  0
  -25.5150  -34.0080   24.2130 N   0  0  0  0  0  0  0  0  0  0  0  0
  -25.8730  -35.0450   23.4450 C   0  0  0  0  0  0  0  0  0  0  0  0
  -26.5770  -34.9220   22.4390 O   0  0  0  0  0  0  0  0  0  0  0  0
  -24.8950  -34.1790   24.9920 H   0  0  0  0  0  0  0  0  0  0  0  0
  -24.1640  -36.8340   22.9930 C   0  0  0  0  0  1  0  0  0  0  0  0
  -25.3720  -36.4420   23.8590 C   0  0  0  0  0  3  0  0  0  0  0  0
  -27.4720  -37.3400   24.7600 C   0  0  0  0  0  1  0  0  0  0  0  0
  -26.4110  -37.4920   23.7670 N   0  0  0  0  0  0  0  0  0  0  0  0
  -26.0010  -38.4140   23.8800 H   0  0  0  0  0  0  0  0  0  0  0  0
  -26.3150  -31.8580   25.2260 C   0  0  1  0  0  0  0  0  0  0  0  0
  -25.1900  -31.6280   26.2610 C   0  0  0  0  0  1  0  0  0  0  0  0
  -26.9230  -30.4810   24.8730 C   0  0  0  0  0  1  0  0  0  0  0  0
  -27.4390  -32.6720   25.9090 C   0  0  0  0  0  1  0  0  0  0  0  0
  -29.9800  -17.7540   19.8910 C   0  0  0  0  0  3  0  0  0  0  0  0
  -28.8110  -17.9410   17.5920 C   0  0  0  0  0  1  0  0  0  0  0  0
  -28.8750  -17.2130   18.9430 C   0  0  0  0  0  2  0  0  0  0  0  0
  -30.1200  -16.9600   21.2290 C   0  0  0  0  0  2  0  0  0  0  0  0
  -30.6400  -14.5460   20.5710 C   0  0  0  0  0  0  0  0  0  0  0  0
  -30.3900  -12.4110   19.3530 C   0  0  0  0  0  2  0  0  0  0  0  0
  -29.4550  -12.6440   18.1480 C   0  0  0  0  0  2  0  0  0  0  0  0
  -27.9730  -12.4960   18.5550 C   0  0  0  0  0  2  0  0  0  0  0  0
  -27.6240  -13.2950   19.8390 C   0  0  0  0  0  3  0  0  0  0  0  0
  -28.6660  -13.0240   20.9470 C   0  0  0  0  0  2  0  0  0  0  0  0
  -29.9990  -13.3560   20.4090 N   0  0  0  0  0  0  0  0  0  0  0  0
  -31.7600  -14.7810   20.1070 O   0  0  0  0  0  0  0  0  0  0  0  0
  -29.8840  -15.5040   21.1340 N   0  0  0  0  0  0  0  0  0  0  0  0
  -28.9880  -15.1880   21.4760 H   0  0  0  0  0  0  0  0  0  0  0  0
  -25.2130  -13.9000   20.5100 C   0  0  0  0  0  0  0  0  0  0  0  0
  -24.1420  -13.1260   20.8670 C   0  0  0  0  0  0  0  0  0  0  0  0
  -24.6070  -11.7760   20.8480 C   0  0  0  0  0  0  0  0  0  0  0  0
  -26.2630  -13.0200   20.2970 N   0  0  0  0  0  0  0  0  0  0  0  0
  -25.9010  -11.7380   20.5550 N   0  0  0  0  0  0  0  0  0  0  0  0
  -23.8810  -10.5120   21.0310 C   0  0  0  0  0  0  0  0  0  0  0  0
  -24.2970   -9.5540   21.9820 C   0  0  0  0  0  3  0  0  0  0  0  0
  -23.5760   -8.3530   22.1520 C   0  0  0  0  0  3  0  0  0  0  0  0
  -22.4230   -8.1010   21.3710 C   0  0  0  0  0  0  0  0  0  0  0  0
  -22.0250   -9.0480   20.4100 C   0  0  0  0  0  3  0  0  0  0  0  0
  -22.7480  -10.2400   20.2370 C   0  0  0  0  0  3  0  0  0  0  0  0
  -21.6730   -6.9520   21.4510 O   0  0  0  0  0  0  0  0  0  0  0  0
  -21.5950   -6.2240   22.6110 C   0  0  0  0  0  0  0  0  0  0  0  0
  -21.1100   -6.7850   23.8130 C   0  0  0  0  0  3  0  0  0  0  0  0
  -20.9780   -5.9810   24.9620 C   0  0  0  0  0  3  0  0  0  0  0  0
  -21.3230   -4.6170   24.9120 C   0  0  0  0  0  0  0  0  0  0  0  0
  -21.8010   -4.0550   23.7160 C   0  0  0  0  0  3  0  0  0  0  0  0
  -21.9330   -4.8560   22.5680 C   0  0  0  0  0  0  0  0  0  0  0  0
  -22.3740   -4.3050   21.4110 F   0  0  0  0  0  0  0  0  0  0  0  0
  -21.1880   -3.8420   26.0140 F   0  0  0  0  0  0  0  0  0  0  0  0
  -22.7380  -13.6000   21.1180 C   0  0  0  0  0  0  0  0  0  0  0  0
  -21.9960  -12.9010   21.9700 N   0  0  0  0  0  0  0  0  0  0  0  0
  -22.3060  -14.6260   20.5930 O   0  0  0  0  0  0  0  0  0  0  0  0
  -22.3530  -12.0730   22.4230 H   0  0  0  0  0  0  0  0  0  0  0  0
  -21.0540  -13.2030   22.1740 H   0  0  0  0  0  0  0  0  0  0  0  0
  -25.3800  -15.2700   20.3260 N   0  0  0  0  0  0  0  0  0  0  0  0
  -24.6130  -15.9290   20.4070 H   0  0  0  0  0  0  0  0  0  0  0  0
  -26.2340  -15.6980   19.9940 H   0  0  0  0  0  0  0  0  0  0  0  0
  2  1  2  0
  3  5  2  0
  4  6  2  0
  4  3  1  0
  5  1  1  0
  6  2  1  0
  7  8  1  0
  8  4  1  0
  9  3  1  0
  9 10  1  0
 10 11  1  0
 12 11  1  0
 13 24  2  0
 14 12  1  0
 14 19  1  0
 15 23  1  0
 15 25  1  0
 16 22  1  0
 16 18  1  0
 17 23  1  0
 18 19  2  0
 18 17  1  0
 20 14  2  0
 21 20  1  0
 21 16  2  0
 22 15  1  0
 23 13  1  0
 25 27  2  0
 26 25  1  0
 28 26  1  0
 29 38  2  0
 29 34  1  0
 30 26  1  0
 30 34  1  0
 31 30  1  0
 32 33  1  0
 32 31  1  0
 33 29  1  0
 34 35  2  0
 35 36  1  0
 37 36  2  0
 38 37  1  0
 39 13  1  0
 39 40  1  0
 39 49  1  0
 40 43  1  0
 41 45  1  0
 41 40  1  0
 42 41  2  0
 45 44  1  0
 47 45  1  0
 47 48  1  0
 47 46  1  0
 49 52  1  1
 49 50  1  0
 51 49  1  0
 53 55  1  0
 53  2  1  0
 53 56  1  0
 54 55  1  0
 57 65  1  0
 58 63  1  0
 59 60  1  0
 59 58  1  0
 61 60  1  0
 61 70  1  0
 61 62  1  0
 63 57  1  0
 63 62  1  0
 64 57  2  0
 65 56  1  0
 65 66  1  0
 67 68  2  0
 68 87  1  0
 69 68  1  0
 69 72  1  0
 70 67  1  0
 70 71  1  0
 71 69  2  0
 72 73  1  0
 73 74  2  0
 75 78  1  0
 75 74  1  0
 76 75  2  0
 77 76  1  0
 77 72  2  0
 78 79  1  0
 79 80  1  0
 80 81  2  0
 82 81  1  0
 82 86  1  0
 83 82  2  0
 84 79  2  0
 84 83  1  0
 85 84  1  0
 87 88  1  0
 88 91  1  0
 88 90  1  0
 89 87  2  0
 92 93  1  0
 92 67  1  0
 94 92  1  0
M  ISO  4  11 101  12 101  57 100  65 100
M  END
>  <TORSDO>  (31) 
F 23

>  <SCORE>  (31) 
-13.063

>  <name>  (31) 
31

>  <ligand_id>  (31) 
31

>  <original_smiles>  (31) 
[H]c1nc(C([H])([H])C([H])([H])C([H])([H])Oc2c([H])c([H])c3c(c2[H])C([H])([H])N(C(=O)C([H])(N([H])C(=O)C([H])(N([H])C([H])([H])[H])C([H])([H])[H])C(C([H])([H])[H])(C([H])([H])[H])C([H])([H])[H])C([H])(C(=O)N([H])C2([H])c4c([H])c([H])c([H])c([H])c4C([H])([H])C([H])([H])C2([H])[H])C3([H])[H])c(C([H])([H])C([H])([H])[H])nc1C([H])(C([H])([H])N([H])C(=O)N1C([H])([H])C([H])([H])C([H])([H])C([H])(n2nc(-c3c([H])c([H])c(Oc4c([H])c([H])c(F)c([H])c4F)c([H])c3[H])c(C(=O)N([H])[H])c2N([H])[H])C1([H])[H])C([H])([H])C([H])([H])[H]

>  <smiles>  (31) 
[H]c1nc(C([H])([H])C([H])([H])C([H])([H])Oc2c([H])c([H])c3c(c2[H])C([H])([H])N(C(=O)C([H])(N([H])C(=O)C([H])(N([H])C([H])([H])[H])C([H])([H])[H])C(C([H])([H])[H])(C([H])([H])[H])C([H])([H])[H])C([H])(C(=O)N([H])C2([H])c4c([H])c([H])c([H])c([H])c4C([H])([H])C([H])([H])C2([H])[H])C3([H])[H])c(C([H])([H])C([H])([H])[H])nc1C([H])(C([H])([H])N([H])C(=O)N1C([H])([H])C([H])([H])C([H])([H])C([H])(n2nc(-c3c([H])c([H])c(Oc4c([H])c([H])c(F)c([H])c4F)c([H])c3[H])c(C(=O)N([H])[H])c2N([H])[H])C1([H])[H])C([H])([H])C([H])([H])[H]

$$$$
32:0:0
     RDKit          3D

 95103  0  0  1  0  0  0  0  0999 V2000
  -27.1050  -23.7330   20.9910 C   0  0  0  0  0  2  0  0  0  0  0  0
  -28.4770  -22.1490   20.7840 C   0  0  0  0  0  0  0  0  0  0  0  0
  -27.1320  -22.3970   20.9130 N   0  0  0  0  0  0  0  0  0  0  0  0
  -29.2190  -23.2780   20.8190 N   0  0  0  0  0  2  0  0  0  0  0  0
  -28.3050  -24.3180   20.9700 N   0  0  0  0  0  0  0  0  0  0  0  0
  -30.2050  -25.8860   21.4420 C   0  0  0  0  0  1  0  0  0  0  0  0
  -28.0360  -26.1840   22.6360 C   0  0  0  0  0  1  0  0  0  0  0  0
  -28.6770  -25.7540   21.2860 C   0  0  2  0  0  0  0  0  0  0  0  0
  -28.3630  -26.6830   20.2230 O   0  0  0  0  0  0  0  0  0  0  0  0
  -24.5140  -31.9630   23.2240 C   0  0  0  0  0  0  0  0  0  0  0  0
  -27.2170  -27.4720   20.2480 C   0  0  0  0  0  0  0  0  0  0  0  0
  -23.3340  -30.5360   21.5850 C   0  0  0  0  0  3  0  0  0  0  0  0
  -24.8180  -29.0030   20.1780 C   0  0  0  0  0  0  0  0  0  0  0  0
  -25.8620  -30.9160   21.4020 C   0  0  0  0  0  2  0  0  0  0  0  0
  -25.9690  -29.5370   20.7730 C   0  0  0  0  0  0  0  0  0  0  0  0
  -27.1750  -28.7830   20.7990 C   0  0  0  0  0  3  0  0  0  0  0  0
  -26.0590  -26.9790   19.6150 C   0  0  0  0  0  3  0  0  0  0  0  0
  -24.8640  -27.7270   19.5850 C   0  0  0  0  0  3  0  0  0  0  0  0
  -23.5580  -29.8420   20.2150 C   0  0  0  0  0  2  0  0  0  0  0  0
  -24.5870  -31.1560   22.1280 N   0  0  0  0  0  0  0  0  0  0  0  0
  -23.4270  -32.2270   23.7570 O   0  0  0  0  0  0  0  0  0  0  0  0
  -22.6870  -29.5170   22.5510 C   0  0  0  0  0  0  0  0  0  0  0  0
  -21.3670  -29.3130   22.4140 N   0  0  0  0  0  0  0  0  0  0  0  0
  -23.3750  -28.9110   23.3800 O   0  0  0  0  0  0  0  0  0  0  0  0
  -20.8760  -29.8500   21.7120 H   0  0  0  0  0  0  0  0  0  0  0  0
  -18.0100  -28.0600   22.8790 C   0  0  0  0  0  0  0  0  0  0  0  0
  -20.5580  -28.3680   23.1830 C   0  0  0  0  0  3  0  0  0  0  0  0
  -20.6980  -26.9360   22.6170 C   0  0  0  0  0  2  0  0  0  0  0  0
  -19.6150  -26.5840   21.5930 C   0  0  0  0  0  2  0  0  0  0  0  0
  -18.2220  -26.7080   22.2180 C   0  0  0  0  0  2  0  0  0  0  0  0
  -19.1100  -28.8460   23.3160 C   0  0  0  0  0  0  0  0  0  0  0  0
  -18.8610  -30.1110   23.8910 C   0  0  0  0  0  3  0  0  0  0  0  0
  -17.5450  -30.5900   24.0340 C   0  0  0  0  0  3  0  0  0  0  0  0
  -16.4600  -29.8010   23.6140 C   0  0  0  0  0  3  0  0  0  0  0  0
  -16.6930  -28.5380   23.0420 C   0  0  0  0  0  3  0  0  0  0  0  0
  -25.7880  -32.6100   23.8480 C   0  0  0  0  0  3  0  0  0  0  0  0
  -25.4620  -34.0070   24.1630 N   0  0  0  0  0  0  0  0  0  0  0  0
  -25.7980  -35.0580   23.4020 C   0  0  0  0  0  0  0  0  0  0  0  0
  -26.4840  -34.9560   22.3810 O   0  0  0  0  0  0  0  0  0  0  0  0
  -24.8460  -34.1620   24.9470 H   0  0  0  0  0  0  0  0  0  0  0  0
  -24.0530  -36.8290   23.0180 C   0  0  0  0  0  1  0  0  0  0  0  0
  -25.2920  -36.4450   23.8450 C   0  0  0  0  0  3  0  0  0  0  0  0
  -27.4100  -37.3550   24.6860 C   0  0  0  0  0  1  0  0  0  0  0  0
  -26.3140  -37.5080   23.7330 N   0  0  0  0  0  0  0  0  0  0  0  0
  -25.8980  -38.4240   23.8740 H   0  0  0  0  0  0  0  0  0  0  0  0
  -26.3060  -31.8520   25.1330 C   0  0  1  0  0  0  0  0  0  0  0  0
  -25.2050  -31.6140   26.1930 C   0  0  0  0  0  1  0  0  0  0  0  0
  -26.9080  -30.4780   24.7570 C   0  0  0  0  0  1  0  0  0  0  0  0
  -27.4380  -32.6700   25.7970 C   0  0  0  0  0  1  0  0  0  0  0  0
  -29.1010  -20.7140   20.8450 C   0  0  0  0  0  2  0  0  0  0  0  0
  -27.3520  -19.7260   19.2630 C   0  0  0  0  0  1  0  0  0  0  0  0
  -29.6960  -19.8970   18.4710 C   0  0  0  0  0  1  0  0  0  0  0  0
  -28.8330  -19.6010   19.7130 C   0  0  1  0  0  0  0  0  0  0  0  0
  -29.0330  -18.0430   20.1210 C   0  0  2  0  0  0  0  0  0  0  0  0
  -28.3120  -17.3280   19.2500 F   0  0  0  0  0  0  0  0  0  0  0  0
  -28.4930  -17.8450   21.3260 F   0  0  0  0  0  0  0  0  0  0  0  0
  -30.4110  -17.2540   20.0860 C   0  0  0  0  0  2  0  0  0  0  0  0
  -30.9770  -14.7250   19.9670 C   0  0  0  0  0  0  0  0  0  0  0  0
  -30.6940  -12.4570   18.9840 C   0  0  0  0  0  2  0  0  0  0  0  0
  -29.7310  -12.5850   17.7840 C   0  0  0  0  0  2  0  0  0  0  0  0
  -28.2560  -12.4860   18.2340 C   0  0  0  0  0  2  0  0  0  0  0  0
  -27.9490  -13.3890   19.4590 C   0  0  0  0  0  3  0  0  0  0  0  0
  -29.0260  -13.2280   20.5560 C   0  0  0  0  0  2  0  0  0  0  0  0
  -30.3360  -13.5130   19.9510 N   0  0  0  0  0  0  0  0  0  0  0  0
  -32.1120  -14.8680   19.4990 O   0  0  0  0  0  0  0  0  0  0  0  0
  -30.2250  -15.7890   20.3520 N   0  0  0  0  0  0  0  0  0  0  0  0
  -29.3230  -15.5530   20.7370 H   0  0  0  0  0  0  0  0  0  0  0  0
  -25.6060  -14.0910   20.2390 C   0  0  0  0  0  0  0  0  0  0  0  0
  -24.5170  -13.3650   20.6400 C   0  0  0  0  0  0  0  0  0  0  0  0
  -24.9200  -11.9950   20.5980 C   0  0  0  0  0  0  0  0  0  0  0  0
  -26.6030  -13.1650   19.9750 N   0  0  0  0  0  0  0  0  0  0  0  0
  -26.1970  -11.8980   20.2500 N   0  0  0  0  0  0  0  0  0  0  0  0
  -24.1440  -10.7650   20.8100 C   0  0  0  0  0  0  0  0  0  0  0  0
  -24.5470   -9.7960   21.7570 C   0  0  0  0  0  3  0  0  0  0  0  0
  -23.7780   -8.6280   21.9570 C   0  0  0  0  0  3  0  0  0  0  0  0
  -22.5890   -8.4240   21.2150 C   0  0  0  0  0  0  0  0  0  0  0  0
  -22.2030   -9.3850   20.2640 C   0  0  0  0  0  3  0  0  0  0  0  0
  -22.9700  -10.5440   20.0600 C   0  0  0  0  0  3  0  0  0  0  0  0
  -21.7910   -7.3130   21.3310 O   0  0  0  0  0  0  0  0  0  0  0  0
  -21.7000   -6.6100   22.5050 C   0  0  0  0  0  0  0  0  0  0  0  0
  -21.2940   -7.2190   23.7130 C   0  0  0  0  0  3  0  0  0  0  0  0
  -21.1450   -6.4420   24.8780 C   0  0  0  0  0  3  0  0  0  0  0  0
  -21.3920   -5.0560   24.8370 C   0  0  0  0  0  0  0  0  0  0  0  0
  -21.7890   -4.4470   23.6350 C   0  0  0  0  0  3  0  0  0  0  0  0
  -21.9380   -5.2200   22.4710 C   0  0  0  0  0  0  0  0  0  0  0  0
  -22.3010   -4.6220   21.3100 F   0  0  0  0  0  0  0  0  0  0  0  0
  -21.2420   -4.3080   25.9560 F   0  0  0  0  0  0  0  0  0  0  0  0
  -23.1510  -13.9020   20.9550 C   0  0  0  0  0  0  0  0  0  0  0  0
  -22.4250  -13.2490   21.8550 N   0  0  0  0  0  0  0  0  0  0  0  0
  -22.7340  -14.9360   20.4360 O   0  0  0  0  0  0  0  0  0  0  0  0
  -22.7640  -12.4100   22.2990 H   0  0  0  0  0  0  0  0  0  0  0  0
  -21.5090  -13.5950   22.0990 H   0  0  0  0  0  0  0  0  0  0  0  0
  -25.8260  -15.4530   20.0580 N   0  0  0  0  0  0  0  0  0  0  0  0
  -25.1030  -16.1410   20.2210 H   0  0  0  0  0  0  0  0  0  0  0  0
  -26.7080  -15.8670   19.7770 H   0  0  0  0  0  0  0  0  0  0  0  0
  2  4  1  0
  2 50  1  0
  2  3  2  0
  3  1  1  0
  4  5  1  0
  5  1  1  0
  5  8  1  0
  8  6  1  1
  8  7  1  0
  9 11  1  0
  9  8  1  0
 10 21  2  0
 11 16  1  0
 12 20  1  0
 12 22  1  0
 13 19  1  0
 13 15  1  0
 14 20  1  0
 15 16  2  0
 15 14  1  0
 17 11  2  0
 18 17  1  0
 18 13  2  0
 19 12  1  0
 20 10  1  0
 22 24  2  0
 23 22  1  0
 25 23  1  0
 26 35  2  0
 26 31  1  0
 27 23  1  0
 27 31  1  0
 28 27  1  0
 29 30  1  0
 29 28  1  0
 30 26  1  0
 31 32  2  0
 32 33  1  0
 34 33  2  0
 35 34  1  0
 36 10  1  0
 36 37  1  0
 36 46  1  0
 37 40  1  0
 38 42  1  0
 38 37  1  0
 39 38  2  0
 42 41  1  0
 44 42  1  0
 44 45  1  0
 44 43  1  0
 46 49  1  1
 46 47  1  0
 48 46  1  0
 53 51  1  6
 52 53  1  0
 53 54  1  0
 53 50  1  0
 54 56  1  1
 55 54  1  0
 57 54  1  0
 57 66  1  0
 58 66  1  0
 59 64  1  0
 60 61  1  0
 60 59  1  0
 62 61  1  0
 62 71  1  0
 62 63  1  0
 64 58  1  0
 64 63  1  0
 65 58  2  0
 66 67  1  0
 68 69  2  0
 69 88  1  0
 70 69  1  0
 70 73  1  0
 71 68  1  0
 71 72  1  0
 72 70  2  0
 73 74  1  0
 74 75  2  0
 76 79  1  0
 76 75  1  0
 77 76  2  0
 78 77  1  0
 78 73  2  0
 79 80  1  0
 80 81  1  0
 81 82  2  0
 83 82  1  0
 83 87  1  0
 84 83  2  0
 85 80  2  0
 85 84  1  0
 86 85  1  0
 88 89  1  0
 89 92  1  0
 89 91  1  0
 90 88  2  0
 93 94  1  0
 93 68  1  0
 95 93  1  0
M  ISO  4   8 101   9 101  58 100  66 100
M  END
>  <TORSDO>  (32) 
F 21

>  <SCORE>  (32) 
-13.442

>  <name>  (32) 
32

>  <ligand_id>  (32) 
32

>  <original_smiles>  (32) 
[H]c1c([H])c([H])c2c(c1[H])C([H])([H])C([H])([H])C([H])([H])C2([H])N([H])C(=O)C1([H])N(C(=O)C([H])(N([H])C(=O)C([H])(N([H])C([H])([H])[H])C([H])([H])[H])C(C([H])([H])[H])(C([H])([H])[H])C([H])([H])[H])C([H])([H])c2c([H])c(OC(n3nc(C([H])([H])C(C([H])([H])[H])(C([H])([H])[H])C(F)(F)C([H])([H])N([H])C(=O)N4C([H])([H])C([H])([H])C([H])([H])C([H])(n5nc(-c6c([H])c([H])c(Oc7c([H])c([H])c(F)c([H])c7F)c([H])c6[H])c(C(=O)N([H])[H])c5N([H])[H])C4([H])[H])nc3[H])(C([H])([H])[H])C([H])([H])[H])c([H])c([H])c2C1([H])[H]

>  <smiles>  (32) 
[H]c1c([H])c([H])c2c(c1[H])C([H])([H])C([H])([H])C([H])([H])C2([H])N([H])C(=O)C1([H])N(C(=O)C([H])(N([H])C(=O)C([H])(N([H])C([H])([H])[H])C([H])([H])[H])C(C([H])([H])[H])(C([H])([H])[H])C([H])([H])[H])C([H])([H])c2c([H])c(OC(n3nc(C([H])([H])C(C([H])([H])[H])(C([H])([H])[H])C(F)(F)C([H])([H])N([H])C(=O)N4C([H])([H])C([H])([H])C([H])([H])C([H])(n5nc(-c6c([H])c([H])c(Oc7c([H])c([H])c(F)c([H])c7F)c([H])c6[H])c(C(=O)N([H])[H])c5N([H])[H])C4([H])[H])nc3[H])(C([H])([H])[H])C([H])([H])[H])c([H])c([H])c2C1([H])[H]

$$$$
33:0:0
     RDKit          3D

 93101  0  0  1  0  0  0  0  0999 V2000
  -31.0810  -19.9590   21.1740 C   0  0  0  0  0  1  0  0  0  0  0  0
  -30.1210  -19.7470   19.9900 C   0  0  1  0  0  0  0  0  0  0  0  0
  -30.4610  -16.8490   17.6170 C   0  0  0  0  0  2  0  0  0  0  0  0
  -30.6450  -16.9250   18.9760 C   0  0  0  0  0  3  0  0  0  0  0  0
  -31.4140  -18.8300   17.9890 C   0  0  0  0  0  3  0  0  0  0  0  0
  -32.1550  -20.0870   17.6620 C   0  0  0  0  0  1  0  0  0  0  0  0
  -30.7700  -18.4530   19.1090 N   0  0  0  0  0  0  0  0  0  0  0  0
  -31.1110  -17.9160   17.0700 N   0  0  0  0  0  0  0  0  0  0  0  0
  -31.3840  -17.9780   16.0950 H   0  0  0  0  0  0  0  0  0  0  0  0
  -31.4790  -15.5350   19.3850 C   0  0  0  0  0  0  0  0  0  0  0  0
  -31.3630  -13.0240   18.7900 C   0  0  0  0  0  2  0  0  0  0  0  0
  -30.3650  -12.7470   17.6380 C   0  0  0  0  0  2  0  0  0  0  0  0
  -28.9290  -12.5630   18.1740 C   0  0  0  0  0  2  0  0  0  0  0  0
  -28.5590  -13.6310   19.2330 C   0  0  0  0  0  3  0  0  0  0  0  0
  -29.6790  -13.8510   20.2650 C   0  0  0  0  0  2  0  0  0  0  0  0
  -30.8990  -14.2450   19.5320 N   0  0  0  0  0  0  0  0  0  0  0  0
  -32.7050  -15.5020   19.2210 O   0  0  0  0  0  0  0  0  0  0  0  0
  -26.3360  -14.3640   20.2370 C   0  0  0  0  0  0  0  0  0  0  0  0
  -25.2380  -13.6700   20.6600 C   0  0  0  0  0  0  0  0  0  0  0  0
  -25.5710  -12.2850   20.5200 C   0  0  0  0  0  0  0  0  0  0  0  0
  -27.2600  -13.4080   19.8500 N   0  0  0  0  0  0  0  0  0  0  0  0
  -26.8200  -12.1490   20.0910 N   0  0  0  0  0  0  0  0  0  0  0  0
  -24.7490  -11.0860   20.7110 C   0  0  0  0  0  0  0  0  0  0  0  0
  -25.1380  -10.0670   21.6040 C   0  0  0  0  0  3  0  0  0  0  0  0
  -24.3240   -8.9290   21.7880 C   0  0  0  0  0  3  0  0  0  0  0  0
  -23.1050   -8.8040   21.0780 C   0  0  0  0  0  0  0  0  0  0  0  0
  -22.7350   -9.8150   20.1720 C   0  0  0  0  0  3  0  0  0  0  0  0
  -23.5480  -10.9460   19.9870 C   0  0  0  0  0  3  0  0  0  0  0  0
  -22.2620   -7.7250   21.1780 O   0  0  0  0  0  0  0  0  0  0  0  0
  -22.1160   -7.0290   22.3520 C   0  0  0  0  0  0  0  0  0  0  0  0
  -21.6690   -7.6520   23.5400 C   0  0  0  0  0  3  0  0  0  0  0  0
  -21.4630   -6.8830   24.7010 C   0  0  0  0  0  3  0  0  0  0  0  0
  -21.6920   -5.4940   24.6790 C   0  0  0  0  0  0  0  0  0  0  0  0
  -22.1280   -4.8710   23.4990 C   0  0  0  0  0  3  0  0  0  0  0  0
  -22.3360   -5.6370   22.3380 C   0  0  0  0  0  0  0  0  0  0  0  0
  -22.7370   -5.0280   21.1970 F   0  0  0  0  0  0  0  0  0  0  0  0
  -21.4870   -4.7540   25.7950 F   0  0  0  0  0  0  0  0  0  0  0  0
  -23.9190  -14.2550   21.0710 C   0  0  0  0  0  0  0  0  0  0  0  0
  -23.2090  -13.6000   21.9840 N   0  0  0  0  0  0  0  0  0  0  0  0
  -23.5280  -15.3300   20.6180 O   0  0  0  0  0  0  0  0  0  0  0  0
  -23.5360  -12.7340   22.3860 H   0  0  0  0  0  0  0  0  0  0  0  0
  -22.3200  -13.9750   22.2810 H   0  0  0  0  0  0  0  0  0  0  0  0
  -26.6210  -15.7230   20.1270 N   0  0  0  0  0  0  0  0  0  0  0  0
  -25.9530  -16.4380   20.3860 H   0  0  0  0  0  0  0  0  0  0  0  0
  -27.4960  -16.1030   19.7900 H   0  0  0  0  0  0  0  0  0  0  0  0
  -28.8850  -17.9650   21.4690 C   0  0  0  0  0  1  0  0  0  0  0  0
  -28.7760  -19.1590   20.4990 C   0  0  0  0  0  2  0  0  0  0  0  0
  -29.7480  -21.4280   19.4090 C   0  0  0  0  0  2  0  0  0  0  0  0
  -30.6380  -23.5120   20.8660 C   0  0  0  0  0  1  0  0  0  0  0  0
  -28.3220  -22.6810   21.2840 C   0  0  0  0  0  1  0  0  0  0  0  0
  -29.3510  -23.0060   20.1890 C   0  0  2  0  0  0  0  0  0  0  0  0
  -28.7240  -24.5170   19.4880 C   0  0  0  0  0  2  0  0  0  0  0  0
  -28.6740  -26.0570   20.0260 O   0  0  0  0  0  0  0  0  0  0  0  0
  -24.7090  -31.6650   23.0170 C   0  0  0  0  0  0  0  0  0  0  0  0
  -27.5930  -27.0640   19.9240 C   0  0  0  0  0  0  0  0  0  0  0  0
  -23.6260  -30.2530   21.3160 C   0  0  0  0  0  3  0  0  0  0  0  0
  -25.1880  -28.7820   19.8760 C   0  0  0  0  0  0  0  0  0  0  0  0
  -26.1740  -30.6210   21.2290 C   0  0  0  0  0  2  0  0  0  0  0  0
  -26.3330  -29.2420   20.5360 C   0  0  0  0  0  0  0  0  0  0  0  0
  -27.5300  -28.4020   20.5380 C   0  0  0  0  0  3  0  0  0  0  0  0
  -26.4150  -26.7450   19.2090 C   0  0  0  0  0  3  0  0  0  0  0  0
  -25.2520  -27.5530   19.1990 C   0  0  0  0  0  3  0  0  0  0  0  0
  -23.9150  -29.6240   19.9250 C   0  0  0  0  0  2  0  0  0  0  0  0
  -24.8540  -30.8730   21.9070 N   0  0  0  0  0  0  0  0  0  0  0  0
  -23.5950  -31.8800   23.5220 O   0  0  0  0  0  0  0  0  0  0  0  0
  -22.9720  -29.1900   22.2380 C   0  0  0  0  0  0  0  0  0  0  0  0
  -21.6440  -29.0050   22.1250 N   0  0  0  0  0  0  0  0  0  0  0  0
  -23.6660  -28.5410   23.0220 O   0  0  0  0  0  0  0  0  0  0  0  0
  -21.1400  -29.5790   21.4650 H   0  0  0  0  0  0  0  0  0  0  0  0
  -18.2870  -27.7490   22.6690 C   0  0  0  0  0  0  0  0  0  0  0  0
  -20.8530  -28.0110   22.8590 C   0  0  0  0  0  3  0  0  0  0  0  0
  -20.9390  -26.6240   22.1820 C   0  0  0  0  0  2  0  0  0  0  0  0
  -19.8020  -26.3650   21.1890 C   0  0  0  0  0  2  0  0  0  0  0  0
  -18.4440  -26.4540   21.8910 C   0  0  0  0  0  2  0  0  0  0  0  0
  -19.4160  -28.4890   23.1090 C   0  0  0  0  0  0  0  0  0  0  0  0
  -19.2100  -29.7020   23.8010 C   0  0  0  0  0  3  0  0  0  0  0  0
  -17.9100  -30.1760   24.0550 C   0  0  0  0  0  3  0  0  0  0  0  0
  -16.7950  -29.4310   23.6310 C   0  0  0  0  0  3  0  0  0  0  0  0
  -16.9860  -28.2200   22.9420 C   0  0  0  0  0  3  0  0  0  0  0  0
  -25.9310  -32.3540   23.6960 C   0  0  0  0  0  3  0  0  0  0  0  0
  -25.5360  -33.7280   24.0550 N   0  0  0  0  0  0  0  0  0  0  0  0
  -25.8240  -34.8210   23.3360 C   0  0  0  0  0  0  0  0  0  0  0  0
  -26.5160  -34.7830   22.3160 O   0  0  0  0  0  0  0  0  0  0  0  0
  -24.9180  -33.8280   24.8480 H   0  0  0  0  0  0  0  0  0  0  0  0
  -24.0040  -36.5280   23.0190 C   0  0  0  0  0  1  0  0  0  0  0  0
  -25.2610  -36.1700   23.8280 C   0  0  0  0  0  3  0  0  0  0  0  0
  -27.3330  -37.1560   24.7040 C   0  0  0  0  0  1  0  0  0  0  0  0
  -26.2360  -37.2800   23.7480 N   0  0  0  0  0  0  0  0  0  0  0  0
  -25.7780  -38.1750   23.9030 H   0  0  0  0  0  0  0  0  0  0  0  0
  -26.4450  -31.5860   24.9770 C   0  0  1  0  0  0  0  0  0  0  0  0
  -25.3310  -31.2760   26.0050 C   0  0  0  0  0  1  0  0  0  0  0  0
  -27.1080  -30.2450   24.5890 C   0  0  0  0  0  1  0  0  0  0  0  0
  -27.5390  -32.4210   25.6840 C   0  0  0  0  0  1  0  0  0  0  0  0
  2 47  1  0
  2  1  1  1
  3  4  1  0
  4  7  1  0
  4 10  1  0
  5  6  1  0
  5  7  1  0
  7  2  1  0
  8  3  1  0
  8  5  1  0
  9  8  1  0
 10 16  1  0
 11 16  1  0
 12 13  1  0
 12 11  1  0
 14 13  1  0
 14 21  1  0
 14 15  1  0
 16 15  1  0
 17 10  2  0
 18 19  2  0
 19 38  1  0
 20 19  1  0
 20 23  1  0
 21 22  1  0
 21 18  1  0
 22 20  2  0
 23 24  1  0
 24 25  2  0
 26 29  1  0
 26 25  1  0
 27 26  2  0
 28 27  1  0
 28 23  2  0
 29 30  1  0
 30 31  1  0
 31 32  2  0
 33 32  1  0
 33 37  1  0
 34 33  2  0
 35 30  2  0
 35 34  1  0
 36 35  1  0
 38 39  1  0
 39 42  1  0
 39 41  1  0
 40 38  2  0
 43 18  1  0
 43 44  1  0
 45 43  1  0
 47 46  1  0
 48  2  1  0
 48 51  1  0
 51 49  1  1
 51 50  1  0
 52 53  1  0
 52 51  1  0
 54 65  2  0
 55 53  1  0
 55 60  1  0
 56 64  1  0
 56 66  1  0
 57 63  1  0
 57 59  1  0
 58 64  1  0
 59 60  2  0
 59 58  1  0
 61 55  2  0
 62 61  1  0
 62 57  2  0
 63 56  1  0
 64 54  1  0
 66 68  2  0
 67 66  1  0
 69 67  1  0
 70 79  2  0
 70 75  1  0
 71 67  1  0
 71 75  1  0
 72 71  1  0
 73 74  1  0
 73 72  1  0
 74 70  1  0
 75 76  2  0
 76 77  1  0
 78 77  2  0
 79 78  1  0
 80 54  1  0
 80 81  1  0
 80 90  1  0
 81 84  1  0
 82 86  1  0
 82 81  1  0
 83 82  2  0
 86 85  1  0
 88 86  1  0
 88 89  1  0
 88 87  1  0
 90 93  1  1
 90 91  1  0
 92 90  1  0
M  ISO  4   4 100  10 100  52 101  53 101
M  END
>  <TORSDO>  (33) 
F 21

>  <SCORE>  (33) 
-12.252

>  <name>  (33) 
33

>  <ligand_id>  (33) 
33

>  <original_smiles>  (33) 
[H]c1c([H])c([H])c2c(c1[H])C([H])([H])C([H])([H])C([H])([H])C2([H])N([H])C(=O)C1([H])N(C(=O)C([H])(N([H])C(=O)C([H])(N([H])C([H])([H])[H])C([H])([H])[H])C(C([H])([H])[H])(C([H])([H])[H])C([H])([H])[H])C([H])([H])c2c([H])c(OC([H])([H])C(C([H])([H])[H])(C([H])([H])[H])C([H])([H])C(n3c(C(=O)N4C([H])([H])C([H])([H])C([H])([H])C([H])(n5nc(-c6c([H])c([H])c(Oc7c([H])c([H])c(F)c([H])c7F)c([H])c6[H])c(C(=O)N([H])[H])c5N([H])[H])C4([H])[H])c([H])[n+]([H])c3C([H])([H])[H])(C([H])([H])[H])C([H])([H])C([H])([H])[H])c([H])c([H])c2C1([H])[H]

>  <smiles>  (33) 
[H]c1c([H])c([H])c2c(c1[H])C([H])([H])C([H])([H])C([H])([H])C2([H])N([H])C(=O)C1([H])N(C(=O)C([H])(N([H])C(=O)C([H])(N([H])C([H])([H])[H])C([H])([H])[H])C(C([H])([H])[H])(C([H])([H])[H])C([H])([H])[H])C([H])([H])c2c([H])c(OC([H])([H])C(C([H])([H])[H])(C([H])([H])[H])C([H])([H])C(n3c(C(=O)N4C([H])([H])C([H])([H])C([H])([H])C([H])(n5nc(-c6c([H])c([H])c(Oc7c([H])c([H])c(F)c([H])c7F)c([H])c6[H])c(C(=O)N([H])[H])c5N([H])[H])C4([H])[H])c([H])[n+]([H])c3C([H])([H])[H])(C([H])([H])[H])C([H])([H])C([H])([H])[H])c([H])c([H])c2C1([H])[H]

$$$$
34:0:0
     RDKit          3D

 96104  0  0  1  0  0  0  0  0999 V2000
  -26.5010  -21.0800   20.0900 C   0  0  0  0  0  3  0  0  0  0  0  0
  -27.2310  -22.1040   19.4190 C   0  0  0  0  0  0  0  0  0  0  0  0
  -26.9610  -19.8550   19.7170 C   0  0  0  0  0  0  0  0  0  0  0  0
  -28.1510  -21.4340   18.6360 C   0  0  0  0  0  0  0  0  0  0  0  0
  -26.4260  -18.5210   20.1260 C   0  0  0  0  0  1  0  0  0  0  0  0
  -29.1640  -21.9400   17.6510 C   0  0  0  0  0  1  0  0  0  0  0  0
  -28.0330  -20.0580   18.8530 N   0  0  0  0  0  0  0  0  0  0  0  0
  -26.4980  -24.2310   18.2240 C   0  0  0  0  0  1  0  0  0  0  0  0
  -25.7290  -23.8280   20.4980 C   0  0  0  0  0  1  0  0  0  0  0  0
  -26.9490  -23.6120   19.5660 C   0  0  1  0  0  0  0  0  0  0  0  0
  -28.1260  -24.3590   20.2770 C   0  0  0  0  0  2  0  0  0  0  0  0
  -29.1680  -25.1940   19.4910 C   0  0  0  0  0  2  0  0  0  0  0  0
  -28.6300  -26.5270   18.9460 C   0  0  0  0  0  2  0  0  0  0  0  0
  -29.5870  -27.7290   19.0420 C   0  0  0  0  0  2  0  0  0  0  0  0
  -28.8870  -28.9420   18.7710 O   0  0  0  0  0  0  0  0  0  0  0  0
  -24.5750  -27.7350   24.3070 C   0  0  0  0  0  0  0  0  0  0  0  0
  -27.6200  -29.0010   19.2950 C   0  0  0  0  0  0  0  0  0  0  0  0
  -23.4650  -28.3060   22.1710 C   0  0  0  0  0  3  0  0  0  0  0  0
  -24.9980  -29.1560   20.3180 C   0  0  0  0  0  0  0  0  0  0  0  0
  -25.8240  -29.1400   22.6780 C   0  0  0  0  0  2  0  0  0  0  0  0
  -26.0920  -29.1010   21.1910 C   0  0  0  0  0  0  0  0  0  0  0  0
  -27.4060  -29.0160   20.6880 C   0  0  0  0  0  3  0  0  0  0  0  0
  -26.5160  -29.0670   18.4200 C   0  0  0  0  0  3  0  0  0  0  0  0
  -25.2040  -29.1300   18.9270 C   0  0  0  0  0  3  0  0  0  0  0  0
  -23.6280  -29.2480   20.9480 C   0  0  0  0  0  2  0  0  0  0  0  0
  -24.6450  -28.3510   23.0930 N   0  0  0  0  0  0  0  0  0  0  0  0
  -23.5360  -27.1720   24.6810 O   0  0  0  0  0  0  0  0  0  0  0  0
  -23.1420  -26.8870   21.6580 C   0  0  0  0  0  0  0  0  0  0  0  0
  -21.9700  -26.7340   21.0190 N   0  0  0  0  0  0  0  0  0  0  0  0
  -23.9440  -25.9610   21.8110 O   0  0  0  0  0  0  0  0  0  0  0  0
  -21.3660  -27.5420   20.9420 H   0  0  0  0  0  0  0  0  0  0  0  0
  -19.3470  -25.3520   18.9570 C   0  0  0  0  0  0  0  0  0  0  0  0
  -21.4760  -25.4980   20.4140 C   0  0  0  0  0  3  0  0  0  0  0  0
  -22.2600  -25.1550   19.1280 C   0  0  0  0  0  2  0  0  0  0  0  0
  -21.6010  -25.6980   17.8570 C   0  0  0  0  0  2  0  0  0  0  0  0
  -20.1820  -25.1410   17.7050 C   0  0  0  0  0  2  0  0  0  0  0  0
  -19.9550  -25.5350   20.2260 C   0  0  0  0  0  0  0  0  0  0  0  0
  -19.1370  -25.7640   21.3530 C   0  0  0  0  0  3  0  0  0  0  0  0
  -17.7350  -25.8090   21.2270 C   0  0  0  0  0  3  0  0  0  0  0  0
  -17.1370  -25.6100   19.9720 C   0  0  0  0  0  3  0  0  0  0  0  0
  -17.9410  -25.3790   18.8410 C   0  0  0  0  0  3  0  0  0  0  0  0
  -25.7880  -27.7250   25.2900 C   0  0  0  0  0  3  0  0  0  0  0  0
  -25.3300  -28.3160   26.5530 N   0  0  0  0  0  0  0  0  0  0  0  0
  -25.6700  -29.5370   26.9900 C   0  0  0  0  0  0  0  0  0  0  0  0
  -26.4700  -30.2630   26.3930 O   0  0  0  0  0  0  0  0  0  0  0  0
  -24.6320  -27.8000   27.0680 H   0  0  0  0  0  0  0  0  0  0  0  0
  -23.9070  -31.0400   27.9660 C   0  0  0  0  0  1  0  0  0  0  0  0
  -25.0210  -30.0330   28.2960 C   0  0  0  0  0  3  0  0  0  0  0  0
  -26.9150  -29.6830   29.8180 C   0  0  0  0  0  1  0  0  0  0  0  0
  -25.9850  -30.6470   29.2350 N   0  0  0  0  0  0  0  0  0  0  0  0
  -25.5010  -31.1200   29.9940 H   0  0  0  0  0  0  0  0  0  0  0  0
  -26.3860  -26.2840   25.5270 C   0  0  1  0  0  0  0  0  0  0  0  0
  -25.3240  -25.2300   25.9190 C   0  0  0  0  0  1  0  0  0  0  0  0
  -27.1110  -25.7790   24.2590 C   0  0  0  0  0  1  0  0  0  0  0  0
  -27.4450  -26.3370   26.6520 C   0  0  0  0  0  1  0  0  0  0  0  0
  -28.8500  -19.0270   18.1850 C   0  0  0  0  0  2  0  0  0  0  0  0
  -29.5300  -17.9980   19.1140 C   0  0  0  0  0  2  0  0  0  0  0  0
  -30.7220  -17.2590   18.4730 C   0  0  0  0  0  2  0  0  0  0  0  0
  -31.8090  -15.0770   18.8890 C   0  0  0  0  0  0  0  0  0  0  0  0
  -31.6860  -12.6310   18.6530 C   0  0  0  0  0  2  0  0  0  0  0  0
  -30.6100  -12.2990   17.5980 C   0  0  0  0  0  2  0  0  0  0  0  0
  -29.2090  -12.2330   18.2390 C   0  0  0  0  0  2  0  0  0  0  0  0
  -28.9010  -13.4670   19.1240 C   0  0  0  0  0  3  0  0  0  0  0  0
  -30.0720  -13.7200   20.1010 C   0  0  0  0  0  2  0  0  0  0  0  0
  -31.3090  -13.8890   19.3090 N   0  0  0  0  0  0  0  0  0  0  0  0
  -32.7480  -15.1920   18.0920 O   0  0  0  0  0  0  0  0  0  0  0  0
  -31.0950  -16.1250   19.3080 N   0  0  0  0  0  0  0  0  0  0  0  0
  -30.4530  -15.9070   20.0560 H   0  0  0  0  0  0  0  0  0  0  0  0
  -26.7990  -14.2820   20.3710 C   0  0  0  0  0  0  0  0  0  0  0  0
  -25.7130  -13.6100   20.8690 C   0  0  0  0  0  0  0  0  0  0  0  0
  -25.9450  -12.2290   20.5910 C   0  0  0  0  0  0  0  0  0  0  0  0
  -27.6320  -13.3130   19.8340 N   0  0  0  0  0  0  0  0  0  0  0  0
  -27.1280  -12.0660   20.0150 N   0  0  0  0  0  0  0  0  0  0  0  0
  -25.0850  -11.0560   20.7890 C   0  0  0  0  0  0  0  0  0  0  0  0
  -25.4090  -10.0520   21.7280 C   0  0  0  0  0  3  0  0  0  0  0  0
  -24.5580   -8.9420   21.9110 C   0  0  0  0  0  3  0  0  0  0  0  0
  -23.3670   -8.8280   21.1570 C   0  0  0  0  0  0  0  0  0  0  0  0
  -23.0610   -9.8180   20.2070 C   0  0  0  0  0  3  0  0  0  0  0  0
  -23.9110  -10.9200   20.0230 C   0  0  0  0  0  3  0  0  0  0  0  0
  -22.4940   -7.7710   21.2470 O   0  0  0  0  0  0  0  0  0  0  0  0
  -22.1490   -7.2250   22.4570 C   0  0  0  0  0  0  0  0  0  0  0  0
  -21.5120   -7.9850   23.4630 C   0  0  0  0  0  3  0  0  0  0  0  0
  -21.1150   -7.3680   24.6650 C   0  0  0  0  0  3  0  0  0  0  0  0
  -21.3430   -5.9920   24.8600 C   0  0  0  0  0  0  0  0  0  0  0  0
  -21.9760   -5.2340   23.8590 C   0  0  0  0  0  3  0  0  0  0  0  0
  -22.3740   -5.8500   22.6590 C   0  0  0  0  0  0  0  0  0  0  0  0
  -22.9630   -5.1110   21.6870 F   0  0  0  0  0  0  0  0  0  0  0  0
  -20.9550   -5.3940   26.0110 F   0  0  0  0  0  0  0  0  0  0  0  0
  -24.4870  -14.2200   21.4810 C   0  0  0  0  0  0  0  0  0  0  0  0
  -23.8540  -13.5180   22.4150 N   0  0  0  0  0  0  0  0  0  0  0  0
  -24.1100  -15.3500   21.1720 O   0  0  0  0  0  0  0  0  0  0  0  0
  -24.1760  -12.6020   22.6870 H   0  0  0  0  0  0  0  0  0  0  0  0
  -23.0430  -13.9110   22.8700 H   0  0  0  0  0  0  0  0  0  0  0  0
  -27.1350  -15.6300   20.3090 N   0  0  0  0  0  0  0  0  0  0  0  0
  -26.5160  -16.3530   20.6550 H   0  0  0  0  0  0  0  0  0  0  0  0
  -27.9480  -15.9920   19.8300 H   0  0  0  0  0  0  0  0  0  0  0  0
  2 10  1  0
  2  1  1  0
  3  1  2  0
  3  5  1  0
  4  7  1  0
  4  2  2  0
  6  4  1  0
  7  3  1  0
 10  8  1  6
 10 11  1  0
 10  9  1  0
 12 11  1  0
 13 14  1  0
 13 12  1  0
 15 14  1  0
 15 17  1  0
 16 27  2  0
 17 22  1  0
 18 28  1  0
 18 26  1  0
 19 25  1  0
 19 21  1  0
 20 26  1  0
 21 20  1  0
 22 21  2  0
 23 24  1  0
 23 17  2  0
 24 19  2  0
 25 18  1  0
 26 16  1  0
 28 30  2  0
 29 28  1  0
 31 29  1  0
 32 37  1  0
 33 29  1  0
 34 33  1  0
 35 34  1  0
 36 35  1  0
 36 32  1  0
 37 33  1  0
 37 38  2  0
 39 38  1  0
 40 39  2  0
 41 32  2  0
 41 40  1  0
 42 16  1  0
 42 52  1  0
 42 43  1  0
 43 44  1  0
 43 46  1  0
 44 48  1  0
 45 44  2  0
 48 47  1  0
 48 50  1  0
 50 49  1  0
 50 51  1  0
 52 53  1  1
 52 55  1  0
 54 52  1  0
 56  7  1  0
 56 57  1  0
 58 57  1  0
 58 67  1  0
 59 67  1  0
 59 65  1  0
 60 65  1  0
 61 62  1  0
 61 60  1  0
 63 62  1  0
 63 72  1  0
 63 64  1  0
 65 64  1  0
 66 59  2  0
 67 68  1  0
 69 70  2  0
 70 89  1  0
 71 74  1  0
 71 70  1  0
 72 73  1  0
 72 69  1  0
 73 71  2  0
 74 75  1  0
 75 76  2  0
 77 80  1  0
 77 76  1  0
 78 77  2  0
 79 78  1  0
 79 74  2  0
 80 81  1  0
 81 86  2  0
 81 82  1  0
 82 83  2  0
 83 84  1  0
 84 88  1  0
 85 84  2  0
 86 85  1  0
 87 86  1  0
 89 90  1  0
 90 92  1  0
 90 93  1  0
 91 89  2  0
 94 69  1  0
 94 95  1  0
 96 94  1  0
M  ISO  4  14 101  15 101  59 100  67 100
M  END
>  <TORSDO>  (34) 
F 24

>  <SCORE>  (34) 
0.130

>  <name>  (34) 
34

>  <ligand_id>  (34) 
34

>  <original_smiles>  (34) 
[H]c1c([H])c([H])c2c(c1[H])C([H])([H])C([H])([H])C([H])([H])C2([H])N([H])C(=O)C1([H])N(C(=O)C([H])(N([H])C(=O)C([H])(N([H])C([H])([H])[H])C([H])([H])[H])C(C([H])([H])[H])(C([H])([H])[H])C([H])([H])[H])C([H])([H])c2c([H])c(OC([H])([H])C([H])([H])C([H])([H])C([H])([H])C(c3c([H])c(C([H])([H])[H])n(C([H])([H])C([H])([H])C([H])([H])N([H])C(=O)N4C([H])([H])C([H])([H])C([H])([H])C([H])(n5nc(-c6c([H])c([H])c(Oc7c([H])c([H])c(F)c([H])c7F)c([H])c6[H])c(C(=O)N([H])[H])c5N([H])[H])C4([H])[H])c3C([H])([H])[H])(C([H])([H])[H])C([H])([H])[H])c([H])c([H])c2C1([H])[H]

>  <smiles>  (34) 
[H]c1c([H])c([H])c2c(c1[H])C([H])([H])C([H])([H])C([H])([H])C2([H])N([H])C(=O)C1([H])N(C(=O)C([H])(N([H])C(=O)C([H])(N([H])C([H])([H])[H])C([H])([H])[H])C(C([H])([H])[H])(C([H])([H])[H])C([H])([H])[H])C([H])([H])c2c([H])c(OC([H])([H])C([H])([H])C([H])([H])C([H])([H])C(c3c([H])c(C([H])([H])[H])n(C([H])([H])C([H])([H])C([H])([H])N([H])C(=O)N4C([H])([H])C([H])([H])C([H])([H])C([H])(n5nc(-c6c([H])c([H])c(Oc7c([H])c([H])c(F)c([H])c7F)c([H])c6[H])c(C(=O)N([H])[H])c5N([H])[H])C4([H])[H])c3C([H])([H])[H])(C([H])([H])[H])C([H])([H])[H])c([H])c([H])c2C1([H])[H]

$$$$
35:0:0
     RDKit          3D

 96 99  0  0  1  0  0  0  0  0999 V2000
  -21.0870  -24.0480   21.3820 C   0  0  0  0  0  2  0  0  0  0  0  0
  -21.2000  -25.5390   21.5250 C   0  0  0  0  0  2  0  0  0  0  0  0
  -21.6490  -23.2620   20.2340 C   0  0  0  0  0  3  0  0  0  0  0  0
  -23.7680  -23.4770   20.7800 C   0  0  0  0  0  2  0  0  0  0  0  0
  -19.1570  -27.4790   20.5380 C   0  0  0  0  0  2  0  0  0  0  0  0
  -22.8900  -24.9640   21.2110 N   0  0  0  0  0  2  0  0  0  0  0  0
  -22.7840  -22.6090   20.5420 N   0  0  0  0  0  2  0  0  0  0  0  0
  -26.5460  -22.9280   21.4690 C   0  0  0  0  0  1  0  0  0  0  0  0
  -25.6700  -22.3580   20.3520 C   0  0  0  0  0  2  0  0  0  0  0  0
  -26.2410  -23.0290   19.2600 O   0  0  0  0  0  0  0  0  0  0  0  0
  -25.8060  -23.8770   19.2600 H   0  0  0  0  0  0  0  0  0  0  0  0
  -26.9130  -20.3340   20.0080 C   0  0  0  0  0 15  0  0  0  0  0  0
  -29.8000  -17.6930   20.1590 C   0  0  0  0  0  0  0  0  0  0  0  0
  -31.0870  -15.1200   19.6110 C   0  0  0  0  0  2  0  0  0  0  0  0
  -30.6660  -14.0370   18.5230 C   0  0  0  0  0  2  0  0  0  0  0  0
  -29.3330  -13.3830   18.8930 C   0  0  0  0  0  2  0  0  0  0  0  0
  -28.4910  -14.4450   19.6100 C   0  0  0  0  0  3  0  0  0  0  0  0
  -29.1500  -15.1470   20.7960 C   0  0  0  0  0  2  0  0  0  0  0  0
  -29.9430  -16.1510   20.1270 N   0  0  0  0  0  0  0  0  0  0  0  0
  -31.0890  -17.8100   20.0980 O   0  0  0  0  0  0  0  0  0  0  0  0
  -28.6130  -19.0610   20.2440 N   0  0  0  0  0  2  0  0  0  0  0  0
  -29.3080  -19.7790   20.4150 H   0  0  0  0  0  0  0  0  0  0  0  0
  -26.1550  -14.9630   20.1870 C   0  0  0  0  0  0  0  0  0  0  0  0
  -25.1100  -14.1770   20.5490 C   0  0  0  0  0  0  0  0  0  0  0  0
  -25.6130  -12.8400   20.6040 C   0  0  0  0  0  0  0  0  0  0  0  0
  -27.1930  -14.0800   20.0060 N   0  0  0  0  0  0  0  0  0  0  0  0
  -26.9090  -12.8080   20.3390 N   0  0  0  0  0  0  0  0  0  0  0  0
  -24.9250  -11.5740   20.8140 C   0  0  0  0  0  0  0  0  0  0  0  0
  -25.2740  -10.7060   21.8690 C   0  0  0  0  0  3  0  0  0  0  0  0
  -24.5690   -9.5000   22.0540 C   0  0  0  0  0  3  0  0  0  0  0  0
  -23.5100   -9.1590   21.1800 C   0  0  0  0  0  0  0  0  0  0  0  0
  -23.1880  -10.0180   20.1160 C   0  0  0  0  0  3  0  0  0  0  0  0
  -23.8920  -11.2150   19.9290 C   0  0  0  0  0  3  0  0  0  0  0  0
  -22.7830   -7.9980   21.2680 O   0  0  0  0  0  0  0  0  0  0  0  0
  -22.4360   -7.4620   22.4790 C   0  0  0  0  0  0  0  0  0  0  0  0
  -21.7600   -8.2150   23.4640 C   0  0  0  0  0  3  0  0  0  0  0  0
  -21.3610   -7.6020   24.6680 C   0  0  0  0  0  3  0  0  0  0  0  0
  -21.6280   -6.2360   24.8850 C   0  0  0  0  0  0  0  0  0  0  0  0
  -22.2960   -5.4820   23.9030 C   0  0  0  0  0  3  0  0  0  0  0  0
  -22.6960   -6.0940   22.7020 C   0  0  0  0  0  0  0  0  0  0  0  0
  -23.3200   -5.3600   21.7490 F   0  0  0  0  0  0  0  0  0  0  0  0
  -21.2360   -5.6430   26.0370 F   0  0  0  0  0  0  0  0  0  0  0  0
  -23.7030  -14.6420   20.7240 C   0  0  0  0  0  0  0  0  0  0  0  0
  -22.9660  -14.0190   21.6340 N   0  0  0  0  0  0  0  0  0  0  0  0
  -23.2670  -15.6010   20.0870 O   0  0  0  0  0  0  0  0  0  0  0  0
  -23.3330  -13.2490   22.1710 H   0  0  0  0  0  0  0  0  0  0  0  0
  -22.0150  -14.3210   21.7970 H   0  0  0  0  0  0  0  0  0  0  0  0
  -26.3040  -16.3350   19.9700 N   0  0  0  0  0  0  0  0  0  0  0  0
  -25.5220  -16.9750   20.0520 H   0  0  0  0  0  0  0  0  0  0  0  0
  -27.1430  -16.7810   19.6230 H   0  0  0  0  0  0  0  0  0  0  0  0
  -21.8110  -23.8860   18.9530 O   0  0  0  0  0  0  0  0  0  0  0  0
  -22.8870  -23.5410   17.9820 C   0  0  0  0  0  2  0  0  0  0  0  0
  -24.0510  -24.5910   17.6310 C   0  0  0  0  0  3  0  0  0  0  0  0
  -25.5200  -24.6270   18.3040 C   0  0  0  0  0  3  0  0  0  0  0  0
  -26.7660  -25.4760   17.6880 C   0  0  0  0  0  2  0  0  0  0  0  0
  -27.5030  -26.5510   18.4010 O   0  0  0  0  0  0  0  0  0  0  0  0
  -24.9800  -30.9430   23.5020 C   0  0  0  0  0  0  0  0  0  0  0  0
  -26.7680  -27.6610   18.7480 C   0  0  0  0  0  0  0  0  0  0  0  0
  -23.6880  -30.5950   21.4730 C   0  0  0  0  0  3  0  0  0  0  0  0
  -24.8890  -29.6250   19.4600 C   0  0  0  0  0  0  0  0  0  0  0  0
  -26.2400  -30.4120   21.3990 C   0  0  0  0  0  2  0  0  0  0  0  0
  -26.0570  -29.4670   20.2270 C   0  0  0  0  0  0  0  0  0  0  0  0
  -26.9940  -28.4470   19.9050 C   0  0  0  0  0  3  0  0  0  0  0  0
  -25.7170  -28.0170   17.9040 C   0  0  0  0  0  3  0  0  0  0  0  0
  -24.7180  -28.9110   18.2750 C   0  0  0  0  0  3  0  0  0  0  0  0
  -23.8670  -30.6260   19.9370 C   0  0  0  0  0  2  0  0  0  0  0  0
  -24.9980  -30.6700   22.1720 N   0  0  0  0  0  0  0  0  0  0  0  0
  -23.9240  -31.2030   24.0980 O   0  0  0  0  0  0  0  0  0  0  0  0
  -22.9850  -29.3010   21.9140 C   0  0  0  0  0  0  0  0  0  0  0  0
  -21.6930  -29.2980   22.0700 N   0  0  0  0  0  0  0  0  0  0  0  0
  -23.5920  -28.2560   22.1000 O   0  0  0  0  0  0  0  0  0  0  0  0
  -21.1910  -30.1700   22.0330 H   0  0  0  0  0  0  0  0  0  0  0  0
  -17.9550  -28.3300   22.1140 C   0  0  0  0  0  0  0  0  0  0  0  0
  -20.9390  -28.0600   21.8130 C   0  0  0  0  0  2  0  0  0  0  0  0
  -21.1780  -27.9560   19.7140 C   0  0  0  0  0 15  0  0  0  0  0  0
  -19.0180  -27.8050   18.7240 C   0  0  0  0  0  1  0  0  0  0  0  0
  -17.6660  -27.6160   20.3890 C   0  0  0  0  0  2  0  0  0  0  0  0
  -19.3830  -28.4780   22.7400 C   0  0  0  0  0  0  0  0  0  0  0  0
  -19.4910  -29.5100   23.8080 C   0  0  0  0  0  3  0  0  0  0  0  0
  -18.4470  -30.3380   24.3230 C   0  0  0  0  0  3  0  0  0  0  0  0
  -17.1670  -30.2090   23.7690 C   0  0  0  0  0  3  0  0  0  0  0  0
  -16.9620  -29.2590   22.7060 C   0  0  0  0  0  3  0  0  0  0  0  0
  -26.2900  -30.9400   24.3280 C   0  0  0  0  0  3  0  0  0  0  0  0
  -26.3220  -32.2050   25.0660 N   0  0  0  0  0  0  0  0  0  0  0  0
  -27.0220  -33.2810   24.6860 C   0  0  0  0  0  0  0  0  0  0  0  0
  -27.7830  -33.2750   23.7130 O   0  0  0  0  0  0  0  0  0  0  0  0
  -25.6760  -32.3010   25.8380 H   0  0  0  0  0  0  0  0  0  0  0  0
  -25.9580  -35.5580   24.7760 C   0  0  0  0  0  1  0  0  0  0  0  0
  -26.8610  -34.5630   25.5230 C   0  0  0  0  0  3  0  0  0  0  0  0
  -28.9620  -34.4210   26.7850 C   0  0  0  0  0  1  0  0  0  0  0  0
  -28.1510  -35.2070   25.8570 N   0  0  0  0  0  0  0  0  0  0  0  0
  -28.0010  -36.1250   26.2680 H   0  0  0  0  0  0  0  0  0  0  0  0
  -26.3940  -29.7090   25.3030 C   0  0  1  0  0  0  0  0  0  0  0  0
  -25.1480  -29.5110   26.1980 C   0  0  0  0  0  1  0  0  0  0  0  0
  -26.6150  -28.4030   24.5070 C   0  0  0  0  0  1  0  0  0  0  0  0
  -27.6260  -29.8870   26.2180 C   0  0  0  0  0  1  0  0  0  0  0  0
  1  2  1  0
  3 51  1  0
  3  7  1  0
  3  1  1  0
  4  6  1  0
  6  2  1  0
  7  4  1  0
  9  8  1  0
 10 11  1  0
 10  9  1  0
 13 21  1  0
 14 19  1  0
 15 16  1  0
 15 14  1  0
 17 16  1  0
 17 26  1  0
 17 18  1  0
 19 13  1  0
 19 18  1  0
 20 13  2  0
 21 22  1  0
 23 24  2  0
 24 25  1  0
 24 43  1  0
 25 28  1  0
 26 23  1  0
 26 27  1  0
 27 25  2  0
 28 29  1  0
 29 30  2  0
 31 34  1  0
 31 30  1  0
 32 31  2  0
 33 32  1  0
 33 28  2  0
 34 35  1  0
 35 40  2  0
 35 36  1  0
 36 37  2  0
 37 38  1  0
 38 42  1  0
 39 38  2  0
 40 39  1  0
 41 40  1  0
 43 44  1  0
 44 47  1  0
 44 46  1  0
 45 43  2  0
 48 49  1  0
 48 23  1  0
 50 48  1  0
 52 51  1  0
 53 52  1  0
 53 54  2  0
 55 54  1  0
 55 56  1  0
 56 58  1  0
 57 68  2  0
 58 63  1  0
 59 69  1  0
 59 67  1  0
 60 66  1  0
 60 62  1  0
 61 67  1  0
 62 61  1  0
 63 62  2  0
 64 65  1  0
 64 58  2  0
 65 60  2  0
 66 59  1  0
 67 57  1  0
 69 70  1  0
 69 71  2  0
 72 70  1  0
 73 82  2  0
 73 78  1  0
 74 70  1  0
 74 78  1  0
 76  5  1  0
 77  5  1  0
 77 73  1  0
 78 79  2  0
 79 80  1  0
 81 80  2  0
 82 81  1  0
 83 57  1  0
 83 84  1  0
 83 93  1  0
 84 87  1  0
 85 84  1  0
 85 89  1  0
 86 85  2  0
 89 88  1  0
 89 91  1  0
 91 92  1  0
 91 90  1  0
 93 94  1  1
 93 96  1  0
 95 93  1  0
M  ISO  4  13 100  21 100  55 101  56 101
M  END
>  <TORSDO>  (35) 
F 24

>  <SCORE>  (35) 
-7.561

>  <name>  (35) 
35

>  <ligand_id>  (35) 
35

>  <original_smiles>  (35) 
[H]OC(c1nc(OC([H])([H])C([H])([H])C([H])([H])C([H])([H])Oc2c([H])c([H])c3c(c2[H])C([H])([H])N(C(=O)C([H])(N([H])C(=O)C([H])(N([H])C([H])([H])[H])C([H])([H])[H])C(C([H])([H])[H])(C([H])([H])[H])C([H])([H])[H])C([H])(C(=O)N([H])C2([H])c4c([H])c([H])c([H])c([H])c4C([H])([H])C([H])([H])C2([H])[H])C3([H])[H])c([H])c(C([H])([H])[H])n1)(C([H])([H])[H])C([H])([H])N([H])C(=O)N1C([H])([H])C([H])([H])C([H])([H])C([H])(n2nc(-c3c([H])c([H])c(Oc4c([H])c([H])c(F)c([H])c4F)c([H])c3[H])c(C(=O)N([H])[H])c2N([H])[H])C1([H])[H]

>  <smiles>  (35) 
[H]OC(c1nc(OC([H])([H])C([H])([H])C([H])([H])C([H])([H])Oc2c([H])c([H])c3c(c2[H])C([H])([H])N(C(=O)C([H])(N([H])C(=O)C([H])(N([H])C([H])([H])[H])C([H])([H])[H])C(C([H])([H])[H])(C([H])([H])[H])C([H])([H])[H])C([H])(C(=O)N([H])C2([H])c4c([H])c([H])c([H])c([H])c4C([H])([H])C([H])([H])C2([H])[H])C3([H])[H])c([H])c(C([H])([H])[H])n1)(C([H])([H])[H])C([H])([H])N([H])C(=O)N1C([H])([H])C([H])([H])C([H])([H])C([H])(n2nc(-c3c([H])c([H])c(Oc4c([H])c([H])c(F)c([H])c4F)c([H])c3[H])c(C(=O)N([H])[H])c2N([H])[H])C1([H])[H]

$$$$
36:0:0
     RDKit          3D

 92100  0  0  1  0  0  0  0  0999 V2000
  -30.1430  -21.2750   21.0150 C   0  0  0  0  0  3  0  0  0  0  0  0
  -30.0180  -19.7200   20.7560 C   0  0  0  0  0  0  0  0  0  0  0  0
  -30.6260  -18.7880   19.9020 C   0  0  0  0  0  0  0  0  0  0  0  0
  -29.2140  -18.9530   21.6050 N   0  0  0  0  0  0  0  0  0  0  0  0
  -29.2750  -17.6830   21.3090 N   0  0  0  0  0  0  0  0  0  0  0  0
  -30.1000  -17.5070   20.2430 N   0  0  0  0  0  0  0  0  0  0  0  0
  -32.4510  -20.2280   18.7830 C   0  0  0  0  0  1  0  0  0  0  0  0
  -31.5960  -18.9570   18.7670 C   0  0  0  0  0  2  0  0  0  0  0  0
  -29.9890  -16.4240   17.9940 C   0  0  0  0  0  1  0  0  0  0  0  0
  -30.0280  -16.1600   19.5170 C   0  0  0  0  0  3  0  0  0  0  0  0
  -30.9760  -14.8820   19.7760 C   0  0  0  0  0  0  0  0  0  0  0  0
  -30.7860  -12.5370   18.9540 C   0  0  0  0  0  2  0  0  0  0  0  0
  -29.7930  -12.5370   17.7660 C   0  0  0  0  0  2  0  0  0  0  0  0
  -28.3290  -12.4370   18.2520 C   0  0  0  0  0  2  0  0  0  0  0  0
  -28.0110  -13.3730   19.4450 C   0  0  0  0  0  3  0  0  0  0  0  0
  -29.1220  -13.3200   20.5180 C   0  0  0  0  0  2  0  0  0  0  0  0
  -30.4050  -13.6310   19.8730 N   0  0  0  0  0  0  0  0  0  0  0  0
  -32.1800  -14.9800   19.5170 O   0  0  0  0  0  0  0  0  0  0  0  0
  -25.7060  -14.0660   20.3280 C   0  0  0  0  0  0  0  0  0  0  0  0
  -24.6260  -13.3330   20.7410 C   0  0  0  0  0  0  0  0  0  0  0  0
  -25.0240  -11.9650   20.6520 C   0  0  0  0  0  0  0  0  0  0  0  0
  -26.6880  -13.1430   20.0090 N   0  0  0  0  0  0  0  0  0  0  0  0
  -26.2910  -11.8740   20.2670 N   0  0  0  0  0  0  0  0  0  0  0  0
  -24.2580  -10.7310   20.8580 C   0  0  0  0  0  0  0  0  0  0  0  0
  -24.6640   -9.7600   21.7990 C   0  0  0  0  0  3  0  0  0  0  0  0
  -23.9020   -8.5870   21.9890 C   0  0  0  0  0  3  0  0  0  0  0  0
  -22.7210   -8.3790   21.2380 C   0  0  0  0  0  0  0  0  0  0  0  0
  -22.3340   -9.3380   20.2840 C   0  0  0  0  0  3  0  0  0  0  0  0
  -23.0970  -10.5020   20.0930 C   0  0  0  0  0  3  0  0  0  0  0  0
  -21.9330   -7.2560   21.3360 O   0  0  0  0  0  0  0  0  0  0  0  0
  -21.8000   -6.5730   22.5170 C   0  0  0  0  0  0  0  0  0  0  0  0
  -21.2860   -7.1870   23.6800 C   0  0  0  0  0  3  0  0  0  0  0  0
  -21.0990   -6.4280   24.8520 C   0  0  0  0  0  3  0  0  0  0  0  0
  -21.4180   -5.0570   24.8620 C   0  0  0  0  0  0  0  0  0  0  0  0
  -21.9250   -4.4430   23.7030 C   0  0  0  0  0  3  0  0  0  0  0  0
  -22.1110   -5.1980   22.5330 C   0  0  0  0  0  0  0  0  0  0  0  0
  -22.5820   -4.5980   21.4130 F   0  0  0  0  0  0  0  0  0  0  0  0
  -21.2310   -4.3240   25.9850 F   0  0  0  0  0  0  0  0  0  0  0  0
  -23.2690  -13.8650   21.1020 C   0  0  0  0  0  0  0  0  0  0  0  0
  -22.5690  -13.1890   22.0050 N   0  0  0  0  0  0  0  0  0  0  0  0
  -22.8410  -14.9090   20.6120 O   0  0  0  0  0  0  0  0  0  0  0  0
  -22.9290  -12.3440   22.4240 H   0  0  0  0  0  0  0  0  0  0  0  0
  -21.6540  -13.5200   22.2780 H   0  0  0  0  0  0  0  0  0  0  0  0
  -25.9250  -15.4330   20.1700 N   0  0  0  0  0  0  0  0  0  0  0  0
  -25.1940  -16.1170   20.3240 H   0  0  0  0  0  0  0  0  0  0  0  0
  -26.7670  -15.8410   19.7860 H   0  0  0  0  0  0  0  0  0  0  0  0
  -29.1980  -22.3470   20.2880 C   0  0  0  0  0  3  0  0  0  0  0  0
  -29.1940  -23.9090   20.7470 C   0  0  0  0  0  2  0  0  0  0  0  0
  -27.6690  -24.4620   18.7790 C   0  0  0  0  0  1  0  0  0  0  0  0
  -29.9600  -25.3400   18.8310 C   0  0  0  0  0  1  0  0  0  0  0  0
  -28.7300  -25.0760   19.7160 C   0  0  2  0  0  0  0  0  0  0  0  0
  -28.4570  -26.4730   20.2700 O   0  0  0  0  0  0  0  0  0  0  0  0
  -24.6190  -31.8880   23.2290 C   0  0  0  0  0  0  0  0  0  0  0  0
  -27.2950  -27.3040   20.1810 C   0  0  0  0  0  0  0  0  0  0  0  0
  -23.4450  -30.4820   21.5840 C   0  0  0  0  0  3  0  0  0  0  0  0
  -24.9180  -28.9620   20.1600 C   0  0  0  0  0  0  0  0  0  0  0  0
  -25.9910  -30.8080   21.4260 C   0  0  0  0  0  2  0  0  0  0  0  0
  -26.0850  -29.4310   20.7730 C   0  0  0  0  0  0  0  0  0  0  0  0
  -27.2680  -28.6190   20.7710 C   0  0  0  0  0  3  0  0  0  0  0  0
  -26.0820  -26.9170   19.5610 C   0  0  0  0  0  3  0  0  0  0  0  0
  -24.9280  -27.7140   19.5400 C   0  0  0  0  0  3  0  0  0  0  0  0
  -23.6750  -29.8230   20.2020 C   0  0  0  0  0  2  0  0  0  0  0  0
  -24.7040  -31.0790   22.1350 N   0  0  0  0  0  0  0  0  0  0  0  0
  -23.5280  -32.1550   23.7530 O   0  0  0  0  0  0  0  0  0  0  0  0
  -22.7860  -29.4530   22.5330 C   0  0  0  0  0  0  0  0  0  0  0  0
  -21.4590  -29.2740   22.4060 N   0  0  0  0  0  0  0  0  0  0  0  0
  -23.4660  -28.8180   23.3450 O   0  0  0  0  0  0  0  0  0  0  0  0
  -20.9700  -29.8380   21.7250 H   0  0  0  0  0  0  0  0  0  0  0  0
  -18.0770  -28.0930   22.9250 C   0  0  0  0  0  0  0  0  0  0  0  0
  -20.6400  -28.3310   23.1700 C   0  0  0  0  0  3  0  0  0  0  0  0
  -20.7250  -26.9060   22.5760 C   0  0  0  0  0  2  0  0  0  0  0  0
  -19.6100  -26.6040   21.5680 C   0  0  0  0  0  2  0  0  0  0  0  0
  -18.2360  -26.7520   22.2290 C   0  0  0  0  0  2  0  0  0  0  0  0
  -19.2060  -28.8410   23.3530 C   0  0  0  0  0  0  0  0  0  0  0  0
  -19.0010  -30.0970   23.9650 C   0  0  0  0  0  3  0  0  0  0  0  0
  -17.7020  -30.6040   24.1530 C   0  0  0  0  0  3  0  0  0  0  0  0
  -16.5880  -29.8530   23.7400 C   0  0  0  0  0  3  0  0  0  0  0  0
  -16.7770  -28.5980   23.1320 C   0  0  0  0  0  3  0  0  0  0  0  0
  -25.8910  -32.5350   23.8630 C   0  0  0  0  0  3  0  0  0  0  0  0
  -25.5600  -33.9280   24.1900 N   0  0  0  0  0  0  0  0  0  0  0  0
  -25.8820  -34.9870   23.4360 C   0  0  0  0  0  0  0  0  0  0  0  0
  -26.5600  -34.8950   22.4080 O   0  0  0  0  0  0  0  0  0  0  0  0
  -24.9570  -34.0740   24.9860 H   0  0  0  0  0  0  0  0  0  0  0  0
  -24.1400  -36.7660   23.0700 C   0  0  0  0  0  1  0  0  0  0  0  0
  -25.3760  -36.3690   23.8930 C   0  0  0  0  0  3  0  0  0  0  0  0
  -27.4860  -37.2770   24.7610 C   0  0  0  0  0  1  0  0  0  0  0  0
  -26.3970  -37.4330   23.7990 N   0  0  0  0  0  0  0  0  0  0  0  0
  -25.9800  -38.3480   23.9380 H   0  0  0  0  0  0  0  0  0  0  0  0
  -26.4010  -31.7700   25.1450 C   0  0  1  0  0  0  0  0  0  0  0  0
  -25.2960  -31.5180   26.1970 C   0  0  0  0  0  1  0  0  0  0  0  0
  -27.0100  -30.4010   24.7620 C   0  0  0  0  0  1  0  0  0  0  0  0
  -27.5310  -32.5830   25.8210 C   0  0  0  0  0  1  0  0  0  0  0  0
  2  1  1  0
  2  4  1  0
  3  6  1  0
  3  2  2  0
  5  4  2  0
  6  5  1  0
  8  7  1  0
  8  3  1  0
 10  9  1  0
 10 11  1  0
 10  6  1  0
 11 17  1  0
 12 17  1  0
 13 14  1  0
 13 12  1  0
 15 14  1  0
 15 22  1  0
 15 16  1  0
 17 16  1  0
 18 11  2  0
 19 20  2  0
 20 39  1  0
 21 20  1  0
 21 24  1  0
 22 23  1  0
 22 19  1  0
 23 21  2  0
 24 25  1  0
 25 26  2  0
 27 30  1  0
 27 26  1  0
 28 27  2  0
 29 28  1  0
 29 24  2  0
 30 31  1  0
 31 36  2  0
 31 32  1  0
 32 33  2  0
 33 34  1  0
 34 38  1  0
 35 34  2  0
 36 35  1  0
 37 36  1  0
 39 40  1  0
 40 43  1  0
 40 42  1  0
 41 39  2  0
 44 45  1  0
 44 19  1  0
 46 44  1  0
 47 48  1  0
 47  1  2  0
 51 49  1  6
 50 51  1  0
 51 52  1  0
 51 48  1  0
 53 64  2  0
 54 52  1  0
 54 59  1  0
 55 63  1  0
 55 65  1  0
 56 62  1  0
 56 58  1  0
 57 63  1  0
 58 57  1  0
 59 58  2  0
 60 54  2  0
 61 60  1  0
 61 56  2  0
 62 55  1  0
 63 53  1  0
 65 67  2  0
 66 65  1  0
 68 66  1  0
 69 78  2  0
 69 74  1  0
 70 66  1  0
 70 74  1  0
 71 70  1  0
 72 73  1  0
 72 71  1  0
 73 69  1  0
 74 75  2  0
 75 76  1  0
 77 76  2  0
 78 77  1  0
 79 53  1  0
 79 80  1  0
 79 89  1  0
 80 83  1  0
 81 85  1  0
 81 80  1  0
 82 81  2  0
 85 84  1  0
 87 85  1  0
 87 88  1  0
 87 86  1  0
 89 92  1  1
 89 90  1  0
 91 89  1  0
M  ISO  4  10 100  11 100  51 101  52 101
M  END
>  <TORSDO>  (36) 
F 22

>  <SCORE>  (36) 
-11.632

>  <name>  (36) 
36

>  <ligand_id>  (36) 
36

>  <original_smiles>  (36) 
[H]c1c([H])c([H])c2c(c1[H])C([H])([H])C([H])([H])C([H])([H])C2([H])N([H])C(=O)C1([H])N(C(=O)C([H])(N([H])C(=O)C([H])(N([H])C([H])([H])[H])C([H])([H])[H])C(C([H])([H])[H])(C([H])([H])[H])C([H])([H])[H])C([H])([H])c2c([H])c(OC(C([H])([H])[H])(C([H])([H])[H])C([H])([H])C([H])([H])C([H])([H])c3nnn(C([H])(C(=O)N4C([H])([H])C([H])([H])C([H])([H])C([H])(n5nc(-c6c([H])c([H])c(Oc7c([H])c([H])c(F)c([H])c7F)c([H])c6[H])c(C(=O)N([H])[H])c5N([H])[H])C4([H])[H])C([H])([H])[H])c3C([H])([H])C([H])([H])[H])c([H])c([H])c2C1([H])[H]

>  <smiles>  (36) 
[H]c1c([H])c([H])c2c(c1[H])C([H])([H])C([H])([H])C([H])([H])C2([H])N([H])C(=O)C1([H])N(C(=O)C([H])(N([H])C(=O)C([H])(N([H])C([H])([H])[H])C([H])([H])[H])C(C([H])([H])[H])(C([H])([H])[H])C([H])([H])[H])C([H])([H])c2c([H])c(OC(C([H])([H])[H])(C([H])([H])[H])C([H])([H])C([H])([H])C([H])([H])c3nnn(C([H])(C(=O)N4C([H])([H])C([H])([H])C([H])([H])C([H])(n5nc(-c6c([H])c([H])c(Oc7c([H])c([H])c(F)c([H])c7F)c([H])c6[H])c(C(=O)N([H])[H])c5N([H])[H])C4([H])[H])C([H])([H])[H])c3C([H])([H])C([H])([H])[H])c([H])c([H])c2C1([H])[H]

$$$$
37:0:0
     RDKit          3D

 92100  0  0  1  0  0  0  0  0999 V2000
  -28.3550  -17.5700   19.6810 C   0  0  0  0  0  3  0  0  0  0  0  0
  -29.6970  -17.8460   20.0050 C   0  0  0  0  0  0  0  0  0  0  0  0
  -27.7780  -19.8480   19.5330 C   0  0  0  0  0  0  0  0  0  0  0  0
  -29.0910  -20.2920   19.8330 C   0  0  0  0  0  0  0  0  0  0  0  0
  -26.6620  -20.8320   19.2340 C   0  0  0  0  0  1  0  0  0  0  0  0
  -27.4270  -18.5350   19.4580 N   0  0  0  0  0  0  0  0  0  0  0  0
  -30.0390  -19.2430   20.0660 N   0  0  0  0  0  0  0  0  0  0  0  0
  -29.4450  -21.9100   19.6670 C   0  0  0  0  0  2  0  0  0  0  0  0
  -28.6350  -23.2930   20.2540 C   0  0  0  0  0  2  0  0  0  0  0  0
  -28.3230  -24.7390   19.4180 C   0  0  0  0  0  2  0  0  0  0  0  0
  -28.2760  -26.2250   19.9140 O   0  0  0  0  0  0  0  0  0  0  0  0
  -24.6900  -31.8040   23.0690 C   0  0  0  0  0  0  0  0  0  0  0  0
  -27.1910  -27.1800   19.8390 C   0  0  0  0  0  0  0  0  0  0  0  0
  -23.4480  -30.4610   21.4190 C   0  0  0  0  0  3  0  0  0  0  0  0
  -24.8570  -28.9300   19.9070 C   0  0  0  0  0  0  0  0  0  0  0  0
  -25.9950  -30.7310   21.1960 C   0  0  0  0  0  2  0  0  0  0  0  0
  -26.0490  -29.3570   20.5040 C   0  0  0  0  0  0  0  0  0  0  0  0
  -27.2090  -28.4990   20.4550 C   0  0  0  0  0  3  0  0  0  0  0  0
  -25.9720  -26.8560   19.2000 C   0  0  0  0  0  3  0  0  0  0  0  0
  -24.8320  -27.6960   19.2380 C   0  0  0  0  0  3  0  0  0  0  0  0
  -23.6290  -29.8240   20.0160 C   0  0  0  0  0  2  0  0  0  0  0  0
  -24.7340  -31.0170   21.9500 N   0  0  0  0  0  0  0  0  0  0  0  0
  -23.6180  -32.0740   23.6310 O   0  0  0  0  0  0  0  0  0  0  0  0
  -22.7870  -29.4280   22.3640 C   0  0  0  0  0  0  0  0  0  0  0  0
  -21.4570  -29.2590   22.2580 N   0  0  0  0  0  0  0  0  0  0  0  0
  -23.4730  -28.7850   23.1640 O   0  0  0  0  0  0  0  0  0  0  0  0
  -20.9540  -29.8400   21.6000 H   0  0  0  0  0  0  0  0  0  0  0  0
  -18.0970  -28.0040   22.7680 C   0  0  0  0  0  0  0  0  0  0  0  0
  -20.6550  -28.3000   23.0240 C   0  0  0  0  0  3  0  0  0  0  0  0
  -20.7680  -26.8740   22.4360 C   0  0  0  0  0  2  0  0  0  0  0  0
  -19.6660  -26.5500   21.4220 C   0  0  0  0  0  2  0  0  0  0  0  0
  -18.2840  -26.6660   22.0720 C   0  0  0  0  0  2  0  0  0  0  0  0
  -19.2100  -28.7780   23.2010 C   0  0  0  0  0  0  0  0  0  0  0  0
  -18.9750  -30.0280   23.8130 C   0  0  0  0  0  3  0  0  0  0  0  0
  -17.6660  -30.5050   24.0010 C   0  0  0  0  0  3  0  0  0  0  0  0
  -16.5690  -29.7290   23.5860 C   0  0  0  0  0  3  0  0  0  0  0  0
  -16.7860  -28.4830   22.9700 C   0  0  0  0  0  3  0  0  0  0  0  0
  -25.9830  -32.4190   23.6860 C   0  0  0  0  0  3  0  0  0  0  0  0
  -25.6760  -33.8030   24.0830 N   0  0  0  0  0  0  0  0  0  0  0  0
  -25.9930  -34.8920   23.3710 C   0  0  0  0  0  0  0  0  0  0  0  0
  -26.6390  -34.8380   22.3210 O   0  0  0  0  0  0  0  0  0  0  0  0
  -25.0910  -33.9190   24.8980 H   0  0  0  0  0  0  0  0  0  0  0  0
  -24.2550  -36.7020   23.1510 C   0  0  0  0  0  1  0  0  0  0  0  0
  -25.5210  -36.2610   23.9050 C   0  0  0  0  0  3  0  0  0  0  0  0
  -27.6800  -37.1080   24.7070 C   0  0  0  0  0  1  0  0  0  0  0  0
  -26.5480  -37.3200   23.8090 N   0  0  0  0  0  0  0  0  0  0  0  0
  -26.1480  -38.2310   24.0120 H   0  0  0  0  0  0  0  0  0  0  0  0
  -26.5300  -31.6020   24.9210 C   0  0  1  0  0  0  0  0  0  0  0  0
  -25.4660  -31.3320   26.0110 C   0  0  0  0  0  1  0  0  0  0  0  0
  -27.0930  -30.2370   24.4700 C   0  0  0  0  0  1  0  0  0  0  0  0
  -27.7010  -32.3700   25.5780 C   0  0  0  0  0  1  0  0  0  0  0  0
  -30.6410  -16.5770   20.5020 C   0  0  0  0  0  3  0  0  0  0  0  0
  -30.9450  -15.0950   19.7560 C   0  0  0  0  0  0  0  0  0  0  0  0
  -30.5950  -12.7530   18.7900 C   0  0  0  0  0  2  0  0  0  0  0  0
  -29.5900  -12.7600   17.6140 C   0  0  0  0  0  2  0  0  0  0  0  0
  -28.1510  -12.5990   18.1340 C   0  0  0  0  0  2  0  0  0  0  0  0
  -27.8640  -13.4990   19.3650 C   0  0  0  0  0  3  0  0  0  0  0  0
  -29.0050  -13.4780   20.4110 C   0  0  0  0  0  2  0  0  0  0  0  0
  -30.2500  -13.8710   19.7360 N   0  0  0  0  0  0  0  0  0  0  0  0
  -32.0210  -15.0600   19.1450 O   0  0  0  0  0  0  0  0  0  0  0  0
  -25.5570  -14.1130   20.2960 C   0  0  0  0  0  0  0  0  0  0  0  0
  -24.5080  -13.3550   20.7360 C   0  0  0  0  0  0  0  0  0  0  0  0
  -24.9320  -11.9940   20.6370 C   0  0  0  0  0  0  0  0  0  0  0  0
  -26.5590  -13.2180   19.9590 N   0  0  0  0  0  0  0  0  0  0  0  0
  -26.1950  -11.9340   20.2260 N   0  0  0  0  0  0  0  0  0  0  0  0
  -24.1830  -10.7490   20.8570 C   0  0  0  0  0  0  0  0  0  0  0  0
  -24.6390   -9.7640   21.7610 C   0  0  0  0  0  3  0  0  0  0  0  0
  -23.8910   -8.5850   21.9730 C   0  0  0  0  0  3  0  0  0  0  0  0
  -22.6740   -8.3830   21.2790 C   0  0  0  0  0  0  0  0  0  0  0  0
  -22.2370   -9.3560   20.3630 C   0  0  0  0  0  3  0  0  0  0  0  0
  -22.9840  -10.5250   20.1480 C   0  0  0  0  0  3  0  0  0  0  0  0
  -21.8930   -7.2570   21.3980 O   0  0  0  0  0  0  0  0  0  0  0  0
  -21.8490   -6.5310   22.5600 C   0  0  0  0  0  0  0  0  0  0  0  0
  -21.4830   -7.1160   23.7910 C   0  0  0  0  0  3  0  0  0  0  0  0
  -21.3860   -6.3200   24.9490 C   0  0  0  0  0  3  0  0  0  0  0  0
  -21.6470   -4.9390   24.8790 C   0  0  0  0  0  0  0  0  0  0  0  0
  -22.0040   -4.3520   23.6510 C   0  0  0  0  0  3  0  0  0  0  0  0
  -22.1020   -5.1450   22.4950 C   0  0  0  0  0  0  0  0  0  0  0  0
  -22.4300   -4.5710   21.3120 F   0  0  0  0  0  0  0  0  0  0  0  0
  -21.5470   -4.1720   25.9890 F   0  0  0  0  0  0  0  0  0  0  0  0
  -23.1490  -13.8620   21.1220 C   0  0  0  0  0  0  0  0  0  0  0  0
  -22.4720  -13.1730   22.0320 N   0  0  0  0  0  0  0  0  0  0  0  0
  -22.6990  -14.9070   20.6480 O   0  0  0  0  0  0  0  0  0  0  0  0
  -22.8530  -12.3320   22.4410 H   0  0  0  0  0  0  0  0  0  0  0  0
  -21.5580  -13.4920   22.3220 H   0  0  0  0  0  0  0  0  0  0  0  0
  -25.7300  -15.4840   20.1360 N   0  0  0  0  0  0  0  0  0  0  0  0
  -24.9670  -16.1280   20.3150 H   0  0  0  0  0  0  0  0  0  0  0  0
  -26.5270  -15.9330   19.7050 H   0  0  0  0  0  0  0  0  0  0  0  0
  -30.5780  -16.4290   22.0430 C   0  0  1  0  0  0  0  0  0  0  0  0
  -31.3390  -15.4230   22.4830 F   0  0  0  0  0  0  0  0  0  0  0  0
  -31.0210  -17.5410   22.6380 F   0  0  0  0  0  0  0  0  0  0  0  0
  -29.3260  -16.2120   22.4420 F   0  0  0  0  0  0  0  0  0  0  0  0
  1  2  1  0
  2  7  2  0
  2 52  1  0
  3  4  2  0
  4  7  1  0
  5  3  1  0
  6  3  1  0
  6  1  2  0
  8  4  1  0
  8  9  1  0
 10 11  1  0
 10  9  1  0
 12 23  2  0
 13 11  1  0
 13 18  1  0
 14 22  1  0
 14 24  1  0
 15 21  1  0
 15 17  1  0
 16 22  1  0
 17 16  1  0
 18 17  2  0
 19 20  1  0
 19 13  2  0
 20 15  2  0
 21 14  1  0
 22 12  1  0
 24 26  2  0
 25 24  1  0
 27 25  1  0
 28 37  2  0
 28 33  1  0
 29 25  1  0
 29 33  1  0
 30 29  1  0
 31 32  1  0
 31 30  1  0
 32 28  1  0
 33 34  2  0
 34 35  1  0
 36 35  2  0
 37 36  1  0
 38 12  1  0
 38 39  1  0
 38 48  1  0
 39 42  1  0
 40 44  1  0
 40 39  1  0
 41 40  2  0
 44 43  1  0
 46 44  1  0
 46 47  1  0
 46 45  1  0
 48 51  1  1
 48 49  1  0
 50 48  1  0
 52 53  1  0
 52 89  1  0
 54 59  1  0
 55 56  1  0
 55 54  1  0
 57 56  1  0
 57 64  1  0
 57 58  1  0
 59 53  1  0
 59 58  1  0
 60 53  2  0
 61 62  2  0
 62 81  1  0
 63 62  1  0
 63 66  1  0
 64 65  1  0
 64 61  1  0
 65 63  2  0
 66 67  1  0
 67 68  2  0
 69 72  1  0
 69 68  1  0
 70 69  2  0
 71 70  1  0
 71 66  2  0
 72 73  1  0
 73 74  1  0
 74 75  2  0
 76 75  1  0
 76 80  1  0
 77 76  2  0
 78 73  2  0
 78 77  1  0
 79 78  1  0
 81 82  1  0
 82 85  1  0
 82 84  1  0
 83 81  2  0
 86 61  1  0
 86 87  1  0
 88 86  1  0
 89 92  1  6
 89 90  1  0
 89 91  1  0
M  ISO  4  10 101  11 101  52 100  53 100
M  END
>  <TORSDO>  (37) 
F 21

>  <SCORE>  (37) 
-13.306

>  <name>  (37) 
37

>  <ligand_id>  (37) 
37

>  <original_smiles>  (37) 
[H]c1nc(C([H])([H])[H])c(C([H])([H])C([H])([H])C([H])([H])Oc2c([H])c([H])c3c(c2[H])C([H])([H])N(C(=O)C([H])(N([H])C(=O)C([H])(N([H])C([H])([H])[H])C([H])([H])[H])C(C([H])([H])[H])(C([H])([H])[H])C([H])([H])[H])C([H])(C(=O)N([H])C2([H])c4c([H])c([H])c([H])c([H])c4C([H])([H])C([H])([H])C2([H])[H])C3([H])[H])nc1C([H])(C(=O)N1C([H])([H])C([H])([H])C([H])([H])C([H])(n2nc(-c3c([H])c([H])c(Oc4c([H])c([H])c(F)c([H])c4F)c([H])c3[H])c(C(=O)N([H])[H])c2N([H])[H])C1([H])[H])C(F)(F)F

>  <smiles>  (37) 
[H]c1nc(C([H])([H])[H])c(C([H])([H])C([H])([H])C([H])([H])Oc2c([H])c([H])c3c(c2[H])C([H])([H])N(C(=O)C([H])(N([H])C(=O)C([H])(N([H])C([H])([H])[H])C([H])([H])[H])C(C([H])([H])[H])(C([H])([H])[H])C([H])([H])[H])C([H])(C(=O)N([H])C2([H])c4c([H])c([H])c([H])c([H])c4C([H])([H])C([H])([H])C2([H])[H])C3([H])[H])nc1C([H])(C(=O)N1C([H])([H])C([H])([H])C([H])([H])C([H])(n2nc(-c3c([H])c([H])c(Oc4c([H])c([H])c(F)c([H])c4F)c([H])c3[H])c(C(=O)N([H])[H])c2N([H])[H])C1([H])[H])C(F)(F)F

$$$$
38:0:0
     RDKit          3D

103111  0  0  1  0  0  0  0  0999 V2000
  -31.4030  -19.5130   21.8010 C   0  0  0  0  0  3  0  0  0  0  0  0
  -30.9510  -18.8120   22.8850 C   0  0  0  0  0  0  0  0  0  0  0  0
  -30.6370  -17.5610   21.0340 C   0  0  0  0  0  3  0  0  0  0  0  0
  -31.1470  -18.7680   20.6730 N   0  0  0  0  0  0  0  0  0  0  0  0
  -30.5260  -17.6120   22.3720 N   0  0  0  0  0  0  0  0  0  0  0  0
  -30.1330  -16.8770   22.9450 H   0  0  0  0  0  0  0  0  0  0  0  0
  -31.7570  -18.1340   25.1240 C   0  0  0  0  0  1  0  0  0  0  0  0
  -29.4350  -19.0700   24.8640 C   0  0  0  0  0  1  0  0  0  0  0  0
  -31.4050  -20.5700   24.6240 C   0  0  0  0  0  1  0  0  0  0  0  0
  -30.8880  -19.1420   24.3570 C   0  0  2  0  0  0  0  0  0  0  0  0
  -28.5050  -16.6640   20.3350 C   0  0  0  0  0  1  0  0  0  0  0  0
  -30.0260  -16.4310   20.1840 C   0  0  2  0  0  0  0  0  0  0  0  0
  -30.6140  -15.0220   20.6420 C   0  0  0  0  0  0  0  0  0  0  0  0
  -30.4170  -12.7590   19.7390 C   0  0  0  0  0  2  0  0  0  0  0  0
  -29.5160  -12.7650   18.4880 C   0  0  0  0  0  2  0  0  0  0  0  0
  -28.0500  -12.5100   18.8860 C   0  0  0  0  0  2  0  0  0  0  0  0
  -27.5800  -13.4270   20.0370 C   0  0  0  0  0  3  0  0  0  0  0  0
  -28.6150  -13.5120   21.1870 C   0  0  0  0  0  2  0  0  0  0  0  0
  -29.9330  -13.8340   20.6230 N   0  0  0  0  0  0  0  0  0  0  0  0
  -31.8420  -15.0020   20.6530 O   0  0  0  0  0  0  0  0  0  0  0  0
  -25.2230  -13.9870   20.8750 C   0  0  0  0  0  0  0  0  0  0  0  0
  -24.1390  -13.1890   21.1310 C   0  0  0  0  0  0  0  0  0  0  0  0
  -24.5810  -11.8510   20.9030 C   0  0  0  0  0  0  0  0  0  0  0  0
  -26.2440  -13.1190   20.5090 N   0  0  0  0  0  0  0  0  0  0  0  0
  -25.8690  -11.8250   20.5940 N   0  0  0  0  0  0  0  0  0  0  0  0
  -23.8400  -10.5890   20.8970 C   0  0  0  0  0  0  0  0  0  0  0  0
  -24.2880   -9.4710   21.6380 C   0  0  0  0  0  3  0  0  0  0  0  0
  -23.5490   -8.2700   21.6320 C   0  0  0  0  0  3  0  0  0  0  0  0
  -22.3510   -8.1790   20.8860 C   0  0  0  0  0  0  0  0  0  0  0  0
  -21.9210   -9.2860   20.1320 C   0  0  0  0  0  3  0  0  0  0  0  0
  -22.6610  -10.4800   20.1350 C   0  0  0  0  0  3  0  0  0  0  0  0
  -21.5820   -7.0440   20.8060 O   0  0  0  0  0  0  0  0  0  0  0  0
  -21.6070   -6.0880   21.7900 C   0  0  0  0  0  0  0  0  0  0  0  0
  -21.2240   -6.3760   23.1170 C   0  0  0  0  0  3  0  0  0  0  0  0
  -21.1960   -5.3480   24.0810 C   0  0  0  0  0  3  0  0  0  0  0  0
  -21.5390   -4.0330   23.7180 C   0  0  0  0  0  0  0  0  0  0  0  0
  -21.9120   -3.7420   22.3940 C   0  0  0  0  0  3  0  0  0  0  0  0
  -21.9440   -4.7680   21.4320 C   0  0  0  0  0  0  0  0  0  0  0  0
  -22.2860   -4.4800   20.1540 F   0  0  0  0  0  0  0  0  0  0  0  0
  -21.5050   -3.0420   24.6410 F   0  0  0  0  0  0  0  0  0  0  0  0
  -22.7480  -13.6480   21.4620 C   0  0  0  0  0  0  0  0  0  0  0  0
  -22.0080  -12.8490   22.2250 N   0  0  0  0  0  0  0  0  0  0  0  0
  -22.3280  -14.7410   21.0870 O   0  0  0  0  0  0  0  0  0  0  0  0
  -22.3640  -11.9640   22.5550 H   0  0  0  0  0  0  0  0  0  0  0  0
  -21.0790  -13.1320   22.4950 H   0  0  0  0  0  0  0  0  0  0  0  0
  -25.4130  -15.3640   20.8900 N   0  0  0  0  0  0  0  0  0  0  0  0
  -24.6560  -16.0090   21.0790 H   0  0  0  0  0  0  0  0  0  0  0  0
  -26.2580  -15.8300   20.5930 H   0  0  0  0  0  0  0  0  0  0  0  0
  -30.3710  -16.4770   18.6370 C   0  0  0  0  0  2  0  0  0  0  0  0
  -29.5700  -17.3860   17.7720 N   0  0  0  0  0  4  0  0  0  0  0  0
  -28.5850  -17.1860   17.8460 H   0  0  0  0  0  0  0  0  0  0  0  0
  -29.8340  -17.2490   16.8070 H   0  0  0  0  0  0  0  0  0  0  0  0
  -29.7090  -18.3550   17.9840 H   0  0  0  0  0  0  0  0  0  0  0  0
  -31.4080  -19.1840   19.2720 C   0  0  0  0  0  2  0  0  0  0  0  0
  -31.2410  -20.6240   18.6390 C   0  0  0  0  0  2  0  0  0  0  0  0
  -30.3310  -21.6830   19.3520 C   0  0  0  0  0  2  0  0  0  0  0  0
  -30.7270  -23.2270   21.3090 C   0  0  0  0  0  1  0  0  0  0  0  0
  -32.4560  -23.1860   19.5450 C   0  0  0  0  0  1  0  0  0  0  0  0
  -30.9290  -23.0750   19.7870 C   0  0  1  0  0  0  0  0  0  0  0  0
  -30.2470  -24.2680   19.0310 C   0  0  0  0  0  2  0  0  0  0  0  0
  -28.7510  -24.5440   19.3360 C   0  0  0  0  0  2  0  0  0  0  0  0
  -28.4850  -25.6590   20.3800 C   0  0  0  0  0  2  0  0  0  0  0  0
  -28.4720  -26.9740   19.8080 O   0  0  0  0  0  0  0  0  0  0  0  0
  -24.6580  -31.8740   23.3160 C   0  0  0  0  0  0  0  0  0  0  0  0
  -27.2830  -27.6670   19.9040 C   0  0  0  0  0  0  0  0  0  0  0  0
  -23.4260  -30.5560   21.6210 C   0  0  0  0  0  3  0  0  0  0  0  0
  -24.8630  -29.1220   20.0700 C   0  0  0  0  0  0  0  0  0  0  0  0
  -25.9390  -30.9610   21.3810 C   0  0  0  0  0  2  0  0  0  0  0  0
  -26.0270  -29.6280   20.6640 C   0  0  0  0  0  0  0  0  0  0  0  0
  -27.2380  -28.9060   20.5810 C   0  0  0  0  0  3  0  0  0  0  0  0
  -26.1070  -27.1750   19.3000 C   0  0  0  0  0  3  0  0  0  0  0  0
  -24.8980  -27.8940   19.3810 C   0  0  0  0  0  3  0  0  0  0  0  0
  -23.6100  -29.9600   20.1990 C   0  0  0  0  0  2  0  0  0  0  0  0
  -24.6930  -31.1420   22.1650 N   0  0  0  0  0  0  0  0  0  0  0  0
  -23.5890  -32.1000   23.9000 O   0  0  0  0  0  0  0  0  0  0  0  0
  -22.8100  -29.4720   22.5370 C   0  0  0  0  0  0  0  0  0  0  0  0
  -21.4910  -29.2480   22.3990 N   0  0  0  0  0  0  0  0  0  0  0  0
  -23.5150  -28.8370   23.3250 O   0  0  0  0  0  0  0  0  0  0  0  0
  -20.9780  -29.8210   21.7460 H   0  0  0  0  0  0  0  0  0  0  0  0
  -18.1730  -27.8690   22.7830 C   0  0  0  0  0  0  0  0  0  0  0  0
  -20.7080  -28.2490   23.1260 C   0  0  0  0  0  3  0  0  0  0  0  0
  -20.8970  -26.8420   22.5120 C   0  0  0  0  0  2  0  0  0  0  0  0
  -19.8360  -26.4930   21.4630 C   0  0  0  0  0  2  0  0  0  0  0  0
  -18.4340  -26.5490   22.0770 C   0  0  0  0  0  2  0  0  0  0  0  0
  -19.2410  -28.6750   23.2620 C   0  0  0  0  0  0  0  0  0  0  0  0
  -18.9430  -29.9100   23.8780 C   0  0  0  0  0  3  0  0  0  0  0  0
  -17.6100  -30.3410   24.0210 C   0  0  0  0  0  3  0  0  0  0  0  0
  -16.5570  -29.5310   23.5590 C   0  0  0  0  0  3  0  0  0  0  0  0
  -16.8400  -28.2970   22.9470 C   0  0  0  0  0  3  0  0  0  0  0  0
  -25.9550  -32.4810   23.9390 C   0  0  0  0  0  3  0  0  0  0  0  0
  -26.4980  -31.6540   25.1680 C   0  0  1  0  0  0  0  0  0  0  0  0
  -25.4290  -31.3610   26.2440 C   0  0  0  0  0  1  0  0  0  0  0  0
  -27.0790  -30.2980   24.6980 C   0  0  0  0  0  1  0  0  0  0  0  0
  -27.6580  -32.4210   25.8470 C   0  0  0  0  0  1  0  0  0  0  0  0
  -25.6530  -33.8630   24.3340 N   0  0  0  0  0  0  0  0  0  0  0  0
  -25.9760  -34.9460   23.6150 C   0  0  0  0  0  0  0  0  0  0  0  0
  -26.6330  -34.8850   22.5720 O   0  0  0  0  0  0  0  0  0  0  0  0
  -25.0750  -33.9830   25.1530 H   0  0  0  0  0  0  0  0  0  0  0  0
  -24.2590  -36.7610   23.3430 C   0  0  0  0  0  1  0  0  0  0  0  0
  -25.4950  -36.3120   24.1370 C   0  0  0  0  0  3  0  0  0  0  0  0
  -27.6260  -37.1530   25.0210 C   0  0  0  0  0  1  0  0  0  0  0  0
  -26.5340  -37.3630   24.0740 N   0  0  0  0  0  0  0  0  0  0  0  0
  -26.1290  -38.2780   24.2550 H   0  0  0  0  0  0  0  0  0  0  0  0
  1  2  2  0
  2 10  1  0
  3 12  1  0
  3  5  1  0
  4  3  1  0
  4  1  1  0
  5  2  1  0
  5  6  1  0
 10  9  1  6
 10  8  1  0
 10  7  1  0
 12 11  1  6
 12 13  1  0
 13 20  2  0
 14 19  1  0
 15 16  1  0
 15 14  1  0
 17 16  1  0
 17 24  1  0
 17 18  1  0
 19 13  1  0
 19 18  1  0
 21 46  1  0
 21 22  2  0
 22 41  1  0
 23 22  1  0
 24 25  1  0
 24 21  1  0
 25 23  2  0
 26 23  1  0
 26 27  1  0
 28 27  2  0
 29 28  1  0
 30 31  1  0
 30 29  2  0
 31 26  2  0
 32 29  1  0
 32 33  1  0
 33 34  1  0
 34 35  2  0
 36 35  1  0
 36 40  1  0
 37 36  2  0
 38 33  2  0
 38 37  1  0
 39 38  1  0
 41 42  1  0
 42 45  1  0
 42 44  1  0
 43 41  2  0
 46 47  1  0
 48 46  1  0
 49 12  1  0
 50 51  1  0
 50 53  1  0
 50 49  1  0
 52 50  1  0
 54  4  1  0
 55 54  1  0
 55 56  1  0
 56 59  1  0
 59 58  1  1
 59 57  1  0
 60 61  1  0
 60 59  1  0
 61 62  1  0
 63 65  1  0
 63 62  1  0
 64 75  2  0
 65 70  1  0
 66 74  1  0
 66 76  1  0
 67 73  1  0
 67 69  1  0
 68 74  1  0
 69 68  1  0
 70 69  2  0
 71 72  1  0
 71 65  2  0
 72 67  2  0
 73 66  1  0
 74 64  1  0
 76 78  2  0
 77 76  1  0
 79 77  1  0
 80 89  2  0
 80 85  1  0
 81 77  1  0
 81 85  1  0
 82 81  1  0
 83 84  1  0
 83 82  1  0
 84 80  1  0
 85 86  2  0
 86 87  1  0
 88 87  2  0
 89 88  1  0
 90 64  1  0
 90 95  1  0
 90 91  1  0
 91 94  1  1
 91 92  1  0
 93 91  1  0
 95 98  1  0
 96100  1  0
 96 95  1  0
 97 96  2  0
100 99  1  0
102100  1  0
102103  1  0
102101  1  0
M  ISO  4  12 100  13 100  62 101  63 101
M  END
>  <TORSDO>  (38) 
F 27

>  <SCORE>  (38) 
-5.020

>  <name>  (38) 
38

>  <ligand_id>  (38) 
38

>  <original_smiles>  (38) 
[H]c1c([H])c([H])c2c(c1[H])C([H])([H])C([H])([H])C([H])([H])C2([H])N([H])C(=O)C1([H])N(C(=O)C([H])(N([H])C(=O)C([H])(N([H])C([H])([H])[H])C([H])([H])[H])C(C([H])([H])[H])(C([H])([H])[H])C([H])([H])[H])C([H])([H])c2c([H])c(OC([H])([H])C([H])([H])C([H])([H])C(C([H])([H])[H])(C([H])([H])[H])C([H])([H])C([H])([H])C([H])([H])n3c([H])c(C(C([H])([H])[H])(C([H])([H])[H])C([H])([H])[H])[n+]([H])c3C(C(=O)N3C([H])([H])C([H])([H])C([H])([H])C([H])(n4nc(-c5c([H])c([H])c(Oc6c([H])c([H])c(F)c([H])c6F)c([H])c5[H])c(C(=O)N([H])[H])c4N([H])[H])C3([H])[H])(C([H])([H])[H])C([H])([H])[N+]([H])([H])[H])c([H])c([H])c2C1([H])[H]

>  <smiles>  (38) 
[H]c1c([H])c([H])c2c(c1[H])C([H])([H])C([H])([H])C([H])([H])C2([H])N([H])C(=O)C1([H])N(C(=O)C([H])(N([H])C(=O)C([H])(N([H])C([H])([H])[H])C([H])([H])[H])C(C([H])([H])[H])(C([H])([H])[H])C([H])([H])[H])C([H])([H])c2c([H])c(OC([H])([H])C([H])([H])C([H])([H])C(C([H])([H])[H])(C([H])([H])[H])C([H])([H])C([H])([H])C([H])([H])n3c([H])c(C(C([H])([H])[H])(C([H])([H])[H])C([H])([H])[H])[n+]([H])c3C(C(=O)N3C([H])([H])C([H])([H])C([H])([H])C([H])(n4nc(-c5c([H])c([H])c(Oc6c([H])c([H])c(F)c([H])c6F)c([H])c5[H])c(C(=O)N([H])[H])c4N([H])[H])C3([H])[H])(C([H])([H])[H])C([H])([H])[N+]([H])([H])[H])c([H])c([H])c2C1([H])[H]

$$$$
39:0:0
     RDKit          3D

 93101  0  0  1  0  0  0  0  0999 V2000
  -28.2680  -17.9150   18.7540 C   0  0  0  0  0  3  0  0  0  0  0  0
  -29.0090  -18.3800   19.8670 C   0  0  0  0  0  3  0  0  0  0  0  0
  -27.2720  -19.9930   18.5010 C   0  0  0  0  0  3  0  0  0  0  0  0
  -28.0430  -20.5190   19.5740 C   0  0  0  0  0  0  0  0  0  0  0  0
  -26.2060  -20.8140   17.8040 C   0  0  0  0  0  1  0  0  0  0  0  0
  -27.4010  -18.7100   18.0800 N   0  0  0  0  0  0  0  0  0  0  0  0
  -28.8900  -19.6940   20.2690 N   0  0  0  0  0  0  0  0  0  0  0  0
  -29.9500  -17.4390   20.6820 C   0  0  0  0  0  3  0  0  0  0  0  0
  -30.4850  -14.9030   20.1570 C   0  0  0  0  0  0  0  0  0  0  0  0
  -30.3120  -12.6670   19.1200 C   0  0  0  0  0  2  0  0  0  0  0  0
  -29.3270  -12.7540   17.9370 C   0  0  0  0  0  2  0  0  0  0  0  0
  -27.8800  -12.5270   18.4150 C   0  0  0  0  0  2  0  0  0  0  0  0
  -27.5220  -13.3720   19.6650 C   0  0  0  0  0  3  0  0  0  0  0  0
  -28.6230  -13.2860   20.7430 C   0  0  0  0  0  2  0  0  0  0  0  0
  -29.8930  -13.6720   20.1120 N   0  0  0  0  0  0  0  0  0  0  0  0
  -31.6120  -15.0690   19.6880 O   0  0  0  0  0  0  0  0  0  0  0  0
  -29.7140  -15.9480   20.5890 N   0  0  0  0  0  0  0  0  0  0  0  0
  -28.8120  -15.6620   20.9340 H   0  0  0  0  0  0  0  0  0  0  0  0
  -25.1370  -13.8490   20.4940 C   0  0  0  0  0  0  0  0  0  0  0  0
  -24.1210  -13.0230   20.8920 C   0  0  0  0  0  0  0  0  0  0  0  0
  -24.6380  -11.6930   20.8060 C   0  0  0  0  0  0  0  0  0  0  0  0
  -26.2080  -13.0220   20.1950 N   0  0  0  0  0  0  0  0  0  0  0  0
  -25.9160  -11.7180   20.4460 N   0  0  0  0  0  0  0  0  0  0  0  0
  -23.9730  -10.3960   20.9910 C   0  0  0  0  0  0  0  0  0  0  0  0
  -24.4370   -9.4560   21.9370 C   0  0  0  0  0  3  0  0  0  0  0  0
  -23.7700   -8.2240   22.1100 C   0  0  0  0  0  3  0  0  0  0  0  0
  -22.6240   -7.9230   21.3360 C   0  0  0  0  0  0  0  0  0  0  0  0
  -22.1800   -8.8510   20.3770 C   0  0  0  0  0  3  0  0  0  0  0  0
  -22.8490  -10.0740   20.2030 C   0  0  0  0  0  3  0  0  0  0  0  0
  -21.9280   -6.7400   21.4170 O   0  0  0  0  0  0  0  0  0  0  0  0
  -21.8270   -6.0420   22.5930 C   0  0  0  0  0  0  0  0  0  0  0  0
  -21.1970   -6.5880   23.7330 C   0  0  0  0  0  3  0  0  0  0  0  0
  -21.0570   -5.8120   24.9010 C   0  0  0  0  0  3  0  0  0  0  0  0
  -21.5320   -4.4870   24.9270 C   0  0  0  0  0  0  0  0  0  0  0  0
  -22.1550   -3.9390   23.7930 C   0  0  0  0  0  3  0  0  0  0  0  0
  -22.2990   -4.7130   22.6280 C   0  0  0  0  0  0  0  0  0  0  0  0
  -22.8790   -4.1730   21.5290 F   0  0  0  0  0  0  0  0  0  0  0  0
  -21.3910   -3.7380   26.0460 F   0  0  0  0  0  0  0  0  0  0  0  0
  -22.7170  -13.4290   21.2370 C   0  0  0  0  0  0  0  0  0  0  0  0
  -22.0530  -12.6760   22.1080 N   0  0  0  0  0  0  0  0  0  0  0  0
  -22.2150  -14.4510   20.7690 O   0  0  0  0  0  0  0  0  0  0  0  0
  -22.4690  -11.8530   22.5170 H   0  0  0  0  0  0  0  0  0  0  0  0
  -21.1120  -12.9310   22.3740 H   0  0  0  0  0  0  0  0  0  0  0  0
  -25.2340  -15.2290   20.3420 N   0  0  0  0  0  0  0  0  0  0  0  0
  -24.4400  -15.8390   20.5000 H   0  0  0  0  0  0  0  0  0  0  0  0
  -26.0310  -15.7110   19.9510 H   0  0  0  0  0  0  0  0  0  0  0  0
  -32.2130  -17.8260   21.8500 C   0  0  0  0  0  1  0  0  0  0  0  0
  -31.4270  -17.8860   20.5310 C   0  0  0  0  0  2  0  0  0  0  0  0
  -27.8890  -21.8340   20.0300 O   0  0  0  0  0  0  0  0  0  0  0  0
  -28.5250  -22.8940   19.2660 C   0  0  0  0  0  2  0  0  0  0  0  0
  -27.8340  -24.3140   19.1430 C   0  0  0  0  0  2  0  0  0  0  0  0
  -27.8790  -25.3160   20.3510 C   0  0  0  0  0  2  0  0  0  0  0  0
  -28.0320  -26.7460   20.0510 O   0  0  0  0  0  0  0  0  0  0  0  0
  -24.5820  -32.0320   23.4990 C   0  0  0  0  0  0  0  0  0  0  0  0
  -26.9180  -27.5740   20.1300 C   0  0  0  0  0  0  0  0  0  0  0  0
  -23.2710  -30.7550   21.8410 C   0  0  0  0  0  3  0  0  0  0  0  0
  -24.6090  -29.2230   20.2990 C   0  0  0  0  0  0  0  0  0  0  0  0
  -25.8100  -31.0040   21.5790 C   0  0  0  0  0  2  0  0  0  0  0  0
  -25.8150  -29.6610   20.8620 C   0  0  0  0  0  0  0  0  0  0  0  0
  -26.9770  -28.8500   20.7620 C   0  0  0  0  0  3  0  0  0  0  0  0
  -25.6940  -27.1710   19.5580 C   0  0  0  0  0  3  0  0  0  0  0  0
  -24.5470  -27.9840   19.6420 C   0  0  0  0  0  3  0  0  0  0  0  0
  -23.4080  -30.1310   20.4280 C   0  0  0  0  0  2  0  0  0  0  0  0
  -24.5760  -31.2770   22.3630 N   0  0  0  0  0  0  0  0  0  0  0  0
  -23.5300  -32.3190   24.0880 O   0  0  0  0  0  0  0  0  0  0  0  0
  -22.6070  -29.7170   22.7770 C   0  0  0  0  0  0  0  0  0  0  0  0
  -21.2870  -29.5220   22.6190 N   0  0  0  0  0  0  0  0  0  0  0  0
  -23.2800  -29.0900   23.5990 O   0  0  0  0  0  0  0  0  0  0  0  0
  -20.8020  -30.0750   21.9270 H   0  0  0  0  0  0  0  0  0  0  0  0
  -17.9370  -28.2110   22.9740 C   0  0  0  0  0  0  0  0  0  0  0  0
  -20.4680  -28.5640   23.3640 C   0  0  0  0  0  3  0  0  0  0  0  0
  -20.6470  -27.1300   22.8130 C   0  0  0  0  0  2  0  0  0  0  0  0
  -19.6100  -26.7560   21.7500 C   0  0  0  0  0  2  0  0  0  0  0  0
  -18.1940  -26.8600   22.3250 C   0  0  0  0  0  2  0  0  0  0  0  0
  -19.0050  -29.0180   23.4470 C   0  0  0  0  0  0  0  0  0  0  0  0
  -18.7130  -30.2800   24.0090 C   0  0  0  0  0  3  0  0  0  0  0  0
  -17.3840  -30.7380   24.1000 C   0  0  0  0  0  3  0  0  0  0  0  0
  -16.3300  -29.9280   23.6460 C   0  0  0  0  0  3  0  0  0  0  0  0
  -16.6060  -28.6650   23.0910 C   0  0  0  0  0  3  0  0  0  0  0  0
  -25.9100  -32.5880   24.1030 C   0  0  0  0  0  3  0  0  0  0  0  0
  -25.6910  -34.0020   24.4320 N   0  0  0  0  0  0  0  0  0  0  0  0
  -26.0810  -35.0310   23.6680 C   0  0  0  0  0  0  0  0  0  0  0  0
  -26.7330  -34.8840   22.6290 O   0  0  0  0  0  0  0  0  0  0  0  0
  -25.1200  -34.1980   25.2430 H   0  0  0  0  0  0  0  0  0  0  0  0
  -24.4730  -36.9310   23.3140 C   0  0  0  0  0  1  0  0  0  0  0  0
  -25.6850  -36.4480   24.1260 C   0  0  0  0  0  3  0  0  0  0  0  0
  -27.8640  -37.2000   24.9740 C   0  0  0  0  0  1  0  0  0  0  0  0
  -26.7850  -37.4300   24.0170 N   0  0  0  0  0  0  0  0  0  0  0  0
  -26.4360  -38.3760   24.1530 H   0  0  0  0  0  0  0  0  0  0  0  0
  -26.4000  -31.7900   25.3740 C   0  0  1  0  0  0  0  0  0  0  0  0
  -25.3040  -31.6060   26.4480 C   0  0  0  0  0  1  0  0  0  0  0  0
  -26.9110  -30.3860   24.9760 C   0  0  0  0  0  1  0  0  0  0  0  0
  -27.5980  -32.5230   26.0250 C   0  0  0  0  0  1  0  0  0  0  0  0
  1  2  1  0
  2  7  1  0
  2  8  1  0
  3  5  1  0
  3  4  1  0
  4 49  1  0
  4  7  2  0
  6  3  1  0
  6  1  2  0
  8 48  1  0
  9 17  1  0
 10 15  1  0
 11 12  1  0
 11 10  1  0
 13 12  1  0
 13 22  1  0
 13 14  1  0
 15  9  1  0
 15 14  1  0
 16  9  2  0
 17  8  1  0
 17 18  1  0
 19 20  2  0
 20 39  1  0
 21 20  1  0
 21 24  1  0
 22 23  1  0
 22 19  1  0
 23 21  2  0
 24 25  1  0
 25 26  2  0
 27 30  1  0
 27 26  1  0
 28 27  2  0
 29 28  1  0
 29 24  2  0
 30 31  1  0
 31 36  2  0
 31 32  1  0
 32 33  2  0
 33 34  1  0
 34 38  1  0
 35 34  2  0
 36 35  1  0
 37 36  1  0
 39 40  1  0
 40 43  1  0
 40 42  1  0
 41 39  2  0
 44 19  1  0
 44 45  1  0
 46 44  1  0
 48 47  1  0
 50 49  1  0
 51 50  1  0
 51 52  1  0
 53 55  1  0
 53 52  1  0
 54 65  2  0
 55 60  1  0
 56 64  1  0
 56 66  1  0
 57 63  1  0
 57 59  1  0
 58 64  1  0
 59 58  1  0
 60 59  2  0
 61 62  1  0
 61 55  2  0
 62 57  2  0
 63 56  1  0
 64 54  1  0
 66 68  2  0
 67 66  1  0
 69 67  1  0
 70 79  2  0
 70 75  1  0
 71 67  1  0
 71 75  1  0
 72 71  1  0
 73 74  1  0
 73 72  1  0
 74 70  1  0
 75 76  2  0
 76 77  1  0
 78 77  2  0
 79 78  1  0
 80 54  1  0
 80 81  1  0
 80 90  1  0
 81 84  1  0
 82 86  1  0
 82 81  1  0
 83 82  2  0
 86 85  1  0
 88 86  1  0
 88 89  1  0
 88 87  1  0
 90 93  1  1
 90 91  1  0
 92 90  1  0
M  ISO  4   9 100  17 100  52 101  53 101
M  END
>  <TORSDO>  (39) 
F 22

>  <SCORE>  (39) 
-12.421

>  <name>  (39) 
39

>  <ligand_id>  (39) 
39

>  <original_smiles>  (39) 
[H]c1nc(C([H])([H])[H])c(OC([H])([H])C([H])([H])C([H])([H])Oc2c([H])c([H])c3c(c2[H])C([H])([H])N(C(=O)C([H])(N([H])C(=O)C([H])(N([H])C([H])([H])[H])C([H])([H])[H])C(C([H])([H])[H])(C([H])([H])[H])C([H])([H])[H])C([H])(C(=O)N([H])C2([H])c4c([H])c([H])c([H])c([H])c4C([H])([H])C([H])([H])C2([H])[H])C3([H])[H])nc1C([H])(N([H])C(=O)N1C([H])([H])C([H])([H])C([H])([H])C([H])(n2nc(-c3c([H])c([H])c(Oc4c([H])c([H])c(F)c([H])c4F)c([H])c3[H])c(C(=O)N([H])[H])c2N([H])[H])C1([H])[H])C([H])([H])C([H])([H])[H]

>  <smiles>  (39) 
[H]c1nc(C([H])([H])[H])c(OC([H])([H])C([H])([H])C([H])([H])Oc2c([H])c([H])c3c(c2[H])C([H])([H])N(C(=O)C([H])(N([H])C(=O)C([H])(N([H])C([H])([H])[H])C([H])([H])[H])C(C([H])([H])[H])(C([H])([H])[H])C([H])([H])[H])C([H])(C(=O)N([H])C2([H])c4c([H])c([H])c([H])c([H])c4C([H])([H])C([H])([H])C2([H])[H])C3([H])[H])nc1C([H])(N([H])C(=O)N1C([H])([H])C([H])([H])C([H])([H])C([H])(n2nc(-c3c([H])c([H])c(Oc4c([H])c([H])c(F)c([H])c4F)c([H])c3[H])c(C(=O)N([H])[H])c2N([H])[H])C1([H])[H])C([H])([H])C([H])([H])[H]

$$$$
40:0:0
     RDKit          3D

 91 99  0  0  1  0  0  0  0  0999 V2000
  -29.0500  -21.0560   19.6330 C   0  0  1  0  0  0  0  0  0  0  0  0
  -30.0950  -21.3420   18.8520 F   0  0  0  0  0  0  0  0  0  0  0  0
  -27.9980  -21.1170   18.8220 F   0  0  0  0  0  0  0  0  0  0  0  0
  -29.7860  -16.9760   20.1040 C   0  0  0  0  0  0  0  0  0  0  0  0
  -29.2050  -19.3190   20.0280 C   0  0  0  0  0  3  0  0  0  0  0  0
  -30.2770  -18.3590   19.9490 N   0  0  0  0  0  0  0  0  0  0  0  0
  -28.4580  -17.0980   20.2660 N   0  0  0  0  0  2  0  0  0  0  0  0
  -28.1270  -18.4780   20.2090 N   0  0  0  0  0  0  0  0  0  0  0  0
  -30.5970  -15.4620   19.9950 C   0  0  0  0  0  0  0  0  0  0  0  0
  -30.6230  -13.0000   19.1390 C   0  0  0  0  0  2  0  0  0  0  0  0
  -29.6630  -12.8010   17.9380 C   0  0  0  0  0  2  0  0  0  0  0  0
  -28.2160  -12.5460   18.3970 C   0  0  0  0  0  2  0  0  0  0  0  0
  -27.8120  -13.4520   19.5860 C   0  0  0  0  0  3  0  0  0  0  0  0
  -28.9020  -13.5640   20.6630 C   0  0  0  0  0  2  0  0  0  0  0  0
  -30.0880  -14.1230   20.0010 N   0  0  0  0  0  0  0  0  0  0  0  0
  -31.8130  -15.4580   19.7270 O   0  0  0  0  0  0  0  0  0  0  0  0
  -25.4980  -13.9770   20.4920 C   0  0  0  0  0  0  0  0  0  0  0  0
  -24.4520  -13.1880   20.8890 C   0  0  0  0  0  0  0  0  0  0  0  0
  -24.9170  -11.8410   20.7860 C   0  0  0  0  0  0  0  0  0  0  0  0
  -26.5200  -13.1100   20.1590 N   0  0  0  0  0  0  0  0  0  0  0  0
  -26.1890  -11.8150   20.4010 N   0  0  0  0  0  0  0  0  0  0  0  0
  -24.1940  -10.5720   20.9710 C   0  0  0  0  0  0  0  0  0  0  0  0
  -24.6260   -9.5980   21.8970 C   0  0  0  0  0  3  0  0  0  0  0  0
  -23.8950   -8.4010   22.0730 C   0  0  0  0  0  3  0  0  0  0  0  0
  -22.7180   -8.1710   21.3200 C   0  0  0  0  0  0  0  0  0  0  0  0
  -22.3070   -9.1330   20.3830 C   0  0  0  0  0  3  0  0  0  0  0  0
  -23.0400  -10.3200   20.2060 C   0  0  0  0  0  3  0  0  0  0  0  0
  -21.9620   -7.0270   21.4010 O   0  0  0  0  0  0  0  0  0  0  0  0
  -21.8630   -6.3120   22.5670 C   0  0  0  0  0  0  0  0  0  0  0  0
  -21.2950   -6.8670   23.7340 C   0  0  0  0  0  3  0  0  0  0  0  0
  -21.1480   -6.0750   24.8900 C   0  0  0  0  0  3  0  0  0  0  0  0
  -21.5590   -4.7290   24.8800 C   0  0  0  0  0  0  0  0  0  0  0  0
  -22.1150   -4.1740   23.7150 C   0  0  0  0  0  3  0  0  0  0  0  0
  -22.2660   -4.9620   22.5620 C   0  0  0  0  0  0  0  0  0  0  0  0
  -22.7860   -4.4140   21.4360 F   0  0  0  0  0  0  0  0  0  0  0  0
  -21.4100   -3.9660   25.9890 F   0  0  0  0  0  0  0  0  0  0  0  0
  -23.0720  -13.6600   21.2370 C   0  0  0  0  0  0  0  0  0  0  0  0
  -22.3850  -12.9370   22.1150 N   0  0  0  0  0  0  0  0  0  0  0  0
  -22.6120  -14.7010   20.7710 O   0  0  0  0  0  0  0  0  0  0  0  0
  -22.7740  -12.0930   22.5120 H   0  0  0  0  0  0  0  0  0  0  0  0
  -21.4590  -13.2300   22.3880 H   0  0  0  0  0  0  0  0  0  0  0  0
  -25.6590  -15.3500   20.3630 N   0  0  0  0  0  0  0  0  0  0  0  0
  -24.9050  -16.0040   20.5260 H   0  0  0  0  0  0  0  0  0  0  0  0
  -26.5310  -15.8160   20.1350 H   0  0  0  0  0  0  0  0  0  0  0  0
  -25.9740  -18.6240   18.9280 C   0  0  0  0  0  1  0  0  0  0  0  0
  -26.7040  -18.8200   20.2720 C   0  0  0  0  0  2  0  0  0  0  0  0
  -27.6750  -22.4040   21.5060 C   0  0  0  0  0  1  0  0  0  0  0  0
  -30.1280  -22.9030   21.2270 C   0  0  0  0  0  1  0  0  0  0  0  0
  -28.8010  -22.6600   20.4780 C   0  0  1  0  0  0  0  0  0  0  0  0
  -28.3570  -24.3080   19.8200 C   0  0  0  0  0  2  0  0  0  0  0  0
  -28.3650  -25.8930   20.3500 O   0  0  0  0  0  0  0  0  0  0  0  0
  -24.6950  -31.8570   23.2240 C   0  0  0  0  0  0  0  0  0  0  0  0
  -27.3650  -27.0020   20.2250 C   0  0  0  0  0  0  0  0  0  0  0  0
  -23.5590  -30.4700   21.5340 C   0  0  0  0  0  3  0  0  0  0  0  0
  -25.0630  -28.8880   20.1370 C   0  0  0  0  0  0  0  0  0  0  0  0
  -26.1270  -30.6860   21.4760 C   0  0  0  0  0  2  0  0  0  0  0  0
  -26.2240  -29.2810   20.8080 C   0  0  0  0  0  0  0  0  0  0  0  0
  -27.3680  -28.3560   20.8360 C   0  0  0  0  0  3  0  0  0  0  0  0
  -26.1790  -26.7760   19.4880 C   0  0  0  0  0  3  0  0  0  0  0  0
  -25.0680  -27.6610   19.4530 C   0  0  0  0  0  3  0  0  0  0  0  0
  -23.8390  -29.8060   20.1570 C   0  0  0  0  0  2  0  0  0  0  0  0
  -24.8110  -31.0320   22.1340 N   0  0  0  0  0  0  0  0  0  0  0  0
  -23.5870  -32.1280   23.7170 O   0  0  0  0  0  0  0  0  0  0  0  0
  -22.8430  -29.4600   22.4700 C   0  0  0  0  0  0  0  0  0  0  0  0
  -21.5140  -29.2990   22.3220 N   0  0  0  0  0  0  0  0  0  0  0  0
  -23.4920  -28.8230   23.3040 O   0  0  0  0  0  0  0  0  0  0  0  0
  -21.0410  -29.8650   21.6310 H   0  0  0  0  0  0  0  0  0  0  0  0
  -18.1130  -28.1170   22.7990 C   0  0  0  0  0  0  0  0  0  0  0  0
  -20.6770  -28.3480   23.0690 C   0  0  0  0  0  3  0  0  0  0  0  0
  -20.7610  -26.9290   22.4560 C   0  0  0  0  0  2  0  0  0  0  0  0
  -19.6570  -26.6490   21.4300 C   0  0  0  0  0  2  0  0  0  0  0  0
  -18.2780  -26.7880   22.0810 C   0  0  0  0  0  2  0  0  0  0  0  0
  -19.2410  -28.8560   23.2490 C   0  0  0  0  0  0  0  0  0  0  0  0
  -19.0320  -30.1000   23.8820 C   0  0  0  0  0  3  0  0  0  0  0  0
  -17.7300  -30.6030   24.0690 C   0  0  0  0  0  3  0  0  0  0  0  0
  -16.6190  -29.8590   23.6360 C   0  0  0  0  0  3  0  0  0  0  0  0
  -16.8120  -28.6170   23.0070 C   0  0  0  0  0  3  0  0  0  0  0  0
  -25.9380  -32.5150   23.8970 C   0  0  0  0  0  3  0  0  0  0  0  0
  -26.3910  -31.7780   25.2190 C   0  0  1  0  0  0  0  0  0  0  0  0
  -25.2520  -31.5450   26.2410 C   0  0  0  0  0  1  0  0  0  0  0  0
  -27.0110  -30.4020   24.8990 C   0  0  0  0  0  1  0  0  0  0  0  0
  -27.5070  -32.5920   25.9170 C   0  0  0  0  0  1  0  0  0  0  0  0
  -25.6110  -33.9200   24.1960 N   0  0  0  0  0  0  0  0  0  0  0  0
  -25.9550  -34.9690   23.4350 C   0  0  0  0  0  0  0  0  0  0  0  0
  -26.6450  -34.8510   22.4190 O   0  0  0  0  0  0  0  0  0  0  0  0
  -25.0230  -34.0840   24.9980 H   0  0  0  0  0  0  0  0  0  0  0  0
  -24.2460  -36.7660   23.0010 C   0  0  0  0  0  1  0  0  0  0  0  0
  -25.4550  -36.3670   23.8620 C   0  0  0  0  0  3  0  0  0  0  0  0
  -27.5500  -37.2650   24.7720 C   0  0  0  0  0  1  0  0  0  0  0  0
  -26.4940  -37.4180   23.7780 N   0  0  0  0  0  0  0  0  0  0  0  0
  -26.0840  -38.3410   23.8970 H   0  0  0  0  0  0  0  0  0  0  0  0
  1 49  1  0
  1  2  1  6
  3  1  1  0
  4  7  1  0
  5  1  1  0
  5  8  1  0
  6  5  1  0
  6  4  2  0
  8  7  1  0
  8 46  1  0
  9 15  1  0
  9  4  1  0
 10 15  1  0
 11 12  1  0
 11 10  1  0
 13 12  1  0
 13 20  1  0
 13 14  1  0
 15 14  1  0
 16  9  2  0
 17 18  2  0
 18 37  1  0
 19 18  1  0
 19 22  1  0
 20 21  1  0
 20 17  1  0
 21 19  2  0
 22 23  1  0
 23 24  2  0
 25 28  1  0
 25 24  1  0
 26 25  2  0
 27 26  1  0
 27 22  2  0
 28 29  1  0
 29 30  1  0
 30 31  2  0
 32 31  1  0
 32 36  1  0
 33 32  2  0
 34 29  2  0
 34 33  1  0
 35 34  1  0
 37 38  1  0
 38 41  1  0
 38 40  1  0
 39 37  2  0
 42 17  1  0
 42 43  1  0
 44 42  1  0
 45 46  1  0
 49 48  1  1
 49 47  1  0
 50 51  1  0
 50 49  1  0
 52 63  2  0
 53 51  1  0
 53 58  1  0
 54 62  1  0
 54 64  1  0
 55 61  1  0
 55 57  1  0
 56 62  1  0
 57 58  2  0
 57 56  1  0
 59 53  2  0
 60 59  1  0
 60 55  2  0
 61 54  1  0
 62 52  1  0
 64 66  2  0
 65 64  1  0
 67 65  1  0
 68 77  2  0
 68 73  1  0
 69 65  1  0
 69 73  1  0
 70 69  1  0
 71 72  1  0
 71 70  1  0
 72 68  1  0
 73 74  2  0
 74 75  1  0
 76 75  2  0
 77 76  1  0
 78 52  1  0
 78 83  1  0
 78 79  1  0
 79 82  1  1
 79 80  1  0
 81 79  1  0
 83 86  1  0
 84 88  1  0
 84 83  1  0
 85 84  2  0
 88 87  1  0
 90 88  1  0
 90 91  1  0
 90 89  1  0
M  ISO  4   4 100   9 100  50 101  51 101
M  END
>  <TORSDO>  (40) 
F 20

>  <SCORE>  (40) 
-15.189

>  <name>  (40) 
40

>  <ligand_id>  (40) 
40

>  <original_smiles>  (40) 
[H]c1c([H])c([H])c2c(c1[H])C([H])([H])C([H])([H])C([H])([H])C2([H])N([H])C(=O)C1([H])N(C(=O)C([H])(N([H])C(=O)C([H])(N([H])C([H])([H])[H])C([H])([H])[H])C(C([H])([H])[H])(C([H])([H])[H])C([H])([H])[H])C([H])([H])c2c([H])c(OC([H])([H])C(C([H])([H])[H])(C([H])([H])[H])C(F)(F)c3nc(C(=O)N4C([H])([H])C([H])([H])C([H])([H])C([H])(n5nc(-c6c([H])c([H])c(Oc7c([H])c([H])c(F)c([H])c7F)c([H])c6[H])c(C(=O)N([H])[H])c5N([H])[H])C4([H])[H])nn3C([H])([H])C([H])([H])[H])c([H])c([H])c2C1([H])[H]

>  <smiles>  (40) 
[H]c1c([H])c([H])c2c(c1[H])C([H])([H])C([H])([H])C([H])([H])C2([H])N([H])C(=O)C1([H])N(C(=O)C([H])(N([H])C(=O)C([H])(N([H])C([H])([H])[H])C([H])([H])[H])C(C([H])([H])[H])(C([H])([H])[H])C([H])([H])[H])C([H])([H])c2c([H])c(OC([H])([H])C(C([H])([H])[H])(C([H])([H])[H])C(F)(F)c3nc(C(=O)N4C([H])([H])C([H])([H])C([H])([H])C([H])(n5nc(-c6c([H])c([H])c(Oc7c([H])c([H])c(F)c([H])c7F)c([H])c6[H])c(C(=O)N([H])[H])c5N([H])[H])C4([H])[H])nn3C([H])([H])C([H])([H])[H])c([H])c([H])c2C1([H])[H]

$$$$
41:0:0
     RDKit          3D

 93101  0  0  1  0  0  0  0  0999 V2000
  -29.2780  -22.7080   20.1800 C   0  0  0  0  0  2  0  0  0  0  0  0
  -30.2670  -20.2660   20.3930 C   0  0  0  0  0  3  0  0  0  0  0  0
  -28.1460  -20.2890   20.2160 C   0  0  0  0  0  3  0  0  0  0  0  0
  -29.8520  -18.9260   20.4730 C   0  0  0  0  0  0  0  0  0  0  0  0
  -28.4600  -18.9780   20.3360 N   0  0  0  0  0  0  0  0  0  0  0  0
  -29.1770  -21.1670   20.2280 N   0  0  0  0  0  0  0  0  0  0  0  0
  -30.7460  -17.6150   20.5500 C   0  0  0  0  0  3  0  0  0  0  0  0
  -30.9280  -15.0520   20.9520 C   0  0  0  0  0  0  0  0  0  0  0  0
  -30.7710  -12.7710   19.9690 C   0  0  0  0  0  2  0  0  0  0  0  0
  -29.9620  -12.8330   18.6560 C   0  0  0  0  0  2  0  0  0  0  0  0
  -28.4550  -12.6860   18.9460 C   0  0  0  0  0  2  0  0  0  0  0  0
  -27.9740  -13.5950   20.1070 C   0  0  0  0  0  3  0  0  0  0  0  0
  -28.9190  -13.5370   21.3270 C   0  0  0  0  0  2  0  0  0  0  0  0
  -30.2660  -13.8520   20.8470 N   0  0  0  0  0  0  0  0  0  0  0  0
  -32.1530  -15.0790   20.8160 O   0  0  0  0  0  0  0  0  0  0  0  0
  -30.2030  -16.2370   20.9320 N   0  0  0  0  0  0  0  0  0  0  0  0
  -29.2030  -16.1760   21.0440 H   0  0  0  0  0  0  0  0  0  0  0  0
  -25.5320  -14.2010   20.6120 C   0  0  0  0  0  0  0  0  0  0  0  0
  -24.4310  -13.4320   20.8760 C   0  0  0  0  0  0  0  0  0  0  0  0
  -24.8870  -12.0770   20.8860 C   0  0  0  0  0  0  0  0  0  0  0  0
  -26.5880  -13.3150   20.4720 N   0  0  0  0  0  0  0  0  0  0  0  0
  -26.2010  -12.0350   20.7050 N   0  0  0  0  0  0  0  0  0  0  0  0
  -24.1390  -10.8190   21.0040 C   0  0  0  0  0  0  0  0  0  0  0  0
  -24.4920   -9.8340   21.9520 C   0  0  0  0  0  3  0  0  0  0  0  0
  -23.7430   -8.6410   22.0590 C   0  0  0  0  0  3  0  0  0  0  0  0
  -22.6280   -8.4260   21.2140 C   0  0  0  0  0  0  0  0  0  0  0  0
  -22.2940   -9.4010   20.2570 C   0  0  0  0  0  3  0  0  0  0  0  0
  -23.0430  -10.5840   20.1490 C   0  0  0  0  0  3  0  0  0  0  0  0
  -21.8580   -7.2880   21.2300 O   0  0  0  0  0  0  0  0  0  0  0  0
  -21.7300   -6.5200   22.3590 C   0  0  0  0  0  0  0  0  0  0  0  0
  -21.2140   -7.0460   23.5630 C   0  0  0  0  0  3  0  0  0  0  0  0
  -21.0360   -6.2050   24.6800 C   0  0  0  0  0  3  0  0  0  0  0  0
  -21.3620   -4.8390   24.5930 C   0  0  0  0  0  0  0  0  0  0  0  0
  -21.8680   -4.3110   23.3930 C   0  0  0  0  0  3  0  0  0  0  0  0
  -22.0500   -5.1490   22.2780 C   0  0  0  0  0  0  0  0  0  0  0  0
  -22.5200   -4.6300   21.1180 F   0  0  0  0  0  0  0  0  0  0  0  0
  -21.1820   -4.0280   25.6630 F   0  0  0  0  0  0  0  0  0  0  0  0
  -23.0180  -13.9170   21.0110 C   0  0  0  0  0  0  0  0  0  0  0  0
  -22.2150  -13.2350   21.8200 N   0  0  0  0  0  0  0  0  0  0  0  0
  -22.6330  -14.9350   20.4370 O   0  0  0  0  0  0  0  0  0  0  0  0
  -22.5380  -12.4070   22.2970 H   0  0  0  0  0  0  0  0  0  0  0  0
  -21.2630  -13.5420   21.9640 H   0  0  0  0  0  0  0  0  0  0  0  0
  -25.7260  -15.5690   20.4540 N   0  0  0  0  0  0  0  0  0  0  0  0
  -24.9670  -16.2390   20.5020 H   0  0  0  0  0  0  0  0  0  0  0  0
  -26.6130  -15.9970   20.2230 H   0  0  0  0  0  0  0  0  0  0  0  0
  -30.6570  -17.1710   17.9890 C   0  0  0  0  0  1  0  0  0  0  0  0
  -31.5300  -17.4950   19.2160 C   0  0  0  0  0  2  0  0  0  0  0  0
  -27.3210  -23.1550   18.5720 C   0  0  0  0  0  1  0  0  0  0  0  0
  -28.1070  -23.7750   19.7480 C   0  0  1  0  0  0  0  0  0  0  0  0
  -26.4450  -22.8750   21.5880 C   0  0  0  0  0  1  0  0  0  0  0  0
  -27.1400  -24.0720   20.9250 C   0  0  0  0  0  2  0  0  0  0  0  0
  -28.6350  -25.2410   19.2270 C   0  0  0  0  0  2  0  0  0  0  0  0
  -28.4850  -26.5770   19.8980 O   0  0  0  0  0  0  0  0  0  0  0  0
  -24.5960  -31.7590   23.1140 C   0  0  0  0  0  0  0  0  0  0  0  0
  -27.3430  -27.4010   19.8400 C   0  0  0  0  0  0  0  0  0  0  0  0
  -23.4360  -30.3880   21.4220 C   0  0  0  0  0  3  0  0  0  0  0  0
  -24.9280  -28.9530   19.9130 C   0  0  0  0  0  0  0  0  0  0  0  0
  -25.9600  -30.7980   21.2360 C   0  0  0  0  0  2  0  0  0  0  0  0
  -26.0820  -29.4480   20.5310 C   0  0  0  0  0  0  0  0  0  0  0  0
  -27.2860  -28.6800   20.4920 C   0  0  0  0  0  3  0  0  0  0  0  0
  -26.1680  -26.9740   19.1880 C   0  0  0  0  0  3  0  0  0  0  0  0
  -24.9740  -27.7240   19.2330 C   0  0  0  0  0  3  0  0  0  0  0  0
  -23.6620  -29.7810   20.0120 C   0  0  0  0  0  2  0  0  0  0  0  0
  -24.6840  -30.9990   21.9820 N   0  0  0  0  0  0  0  0  0  0  0  0
  -23.5060  -31.9730   23.6650 O   0  0  0  0  0  0  0  0  0  0  0  0
  -22.8160  -29.3100   22.3390 C   0  0  0  0  0  0  0  0  0  0  0  0
  -21.4970  -29.0880   22.2080 N   0  0  0  0  0  0  0  0  0  0  0  0
  -23.5210  -28.6760   23.1280 O   0  0  0  0  0  0  0  0  0  0  0  0
  -20.9840  -29.6560   21.5460 H   0  0  0  0  0  0  0  0  0  0  0  0
  -18.1720  -27.7380   22.6660 C   0  0  0  0  0  0  0  0  0  0  0  0
  -20.7190  -28.0860   22.9380 C   0  0  0  0  0  3  0  0  0  0  0  0
  -20.8750  -26.6860   22.3010 C   0  0  0  0  0  2  0  0  0  0  0  0
  -19.7810  -26.3660   21.2770 C   0  0  0  0  0  2  0  0  0  0  0  0
  -18.3980  -26.4270   21.9310 C   0  0  0  0  0  2  0  0  0  0  0  0
  -19.2630  -28.5230   23.1260 C   0  0  0  0  0  0  0  0  0  0  0  0
  -18.9990  -29.7490   23.7760 C   0  0  0  0  0  3  0  0  0  0  0  0
  -17.6770  -30.1890   23.9720 C   0  0  0  0  0  3  0  0  0  0  0  0
  -16.6010  -29.4010   23.5300 C   0  0  0  0  0  3  0  0  0  0  0  0
  -16.8490  -28.1770   22.8810 C   0  0  0  0  0  3  0  0  0  0  0  0
  -25.8560  -32.4150   23.7570 C   0  0  0  0  0  3  0  0  0  0  0  0
  -25.5030  -33.7950   24.1230 N   0  0  0  0  0  0  0  0  0  0  0  0
  -25.8330  -34.8800   23.4100 C   0  0  0  0  0  0  0  0  0  0  0  0
  -26.5350  -34.8250   22.3980 O   0  0  0  0  0  0  0  0  0  0  0  0
  -24.8820  -33.9090   24.9110 H   0  0  0  0  0  0  0  0  0  0  0  0
  -24.0900  -36.6590   23.0510 C   0  0  0  0  0  1  0  0  0  0  0  0
  -25.3030  -36.2440   23.8980 C   0  0  0  0  0  3  0  0  0  0  0  0
  -27.3820  -37.1360   24.8560 C   0  0  0  0  0  1  0  0  0  0  0  0
  -26.3220  -37.3160   23.8680 N   0  0  0  0  0  0  0  0  0  0  0  0
  -25.8930  -38.2250   24.0250 H   0  0  0  0  0  0  0  0  0  0  0  0
  -26.3870  -31.6280   25.0160 C   0  0  1  0  0  0  0  0  0  0  0  0
  -25.2960  -31.3370   26.0750 C   0  0  0  0  0  1  0  0  0  0  0  0
  -27.0100  -30.2760   24.5940 C   0  0  0  0  0  1  0  0  0  0  0  0
  -27.5130  -32.4360   25.7030 C   0  0  0  0  0  1  0  0  0  0  0  0
  1  6  1  0
  2  4  2  0
  3  6  1  0
  3  5  2  0
  4  7  1  0
  5  4  1  0
  6  2  1  0
  7 47  1  0
  7 16  1  0
  9 14  1  0
 10 11  1  0
 10  9  1  0
 12 11  1  0
 12 21  1  0
 12 13  1  0
 14  8  1  0
 14 13  1  0
 15  8  2  0
 16  8  1  0
 16 17  1  0
 18 19  2  0
 19 20  1  0
 19 38  1  0
 20 23  1  0
 21 18  1  0
 21 22  1  0
 22 20  2  0
 23 24  1  0
 24 25  2  0
 26 29  1  0
 26 25  1  0
 27 26  2  0
 28 27  1  0
 28 23  2  0
 29 30  1  0
 30 31  1  0
 31 32  2  0
 33 32  1  0
 33 37  1  0
 34 33  2  0
 35 30  2  0
 35 34  1  0
 36 35  1  0
 38 39  1  0
 39 42  1  0
 39 41  1  0
 40 38  2  0
 43 44  1  0
 43 18  1  0
 45 43  1  0
 46 47  1  0
 49 48  1  6
 49  1  1  0
 49 51  1  0
 51 50  1  0
 52 49  1  0
 52 53  1  0
 54 65  2  0
 55 53  1  0
 55 60  1  0
 56 64  1  0
 56 66  1  0
 57 63  1  0
 57 59  1  0
 58 64  1  0
 59 58  1  0
 60 59  2  0
 61 62  1  0
 61 55  2  0
 62 57  2  0
 63 56  1  0
 64 54  1  0
 66 68  2  0
 67 66  1  0
 69 67  1  0
 70 79  2  0
 70 75  1  0
 71 67  1  0
 71 75  1  0
 72 71  1  0
 73 74  1  0
 73 72  1  0
 74 70  1  0
 75 76  2  0
 76 77  1  0
 78 77  2  0
 79 78  1  0
 80 54  1  0
 80 81  1  0
 80 90  1  0
 81 84  1  0
 82 86  1  0
 82 81  1  0
 83 82  2  0
 86 85  1  0
 88 86  1  0
 88 89  1  0
 88 87  1  0
 90 93  1  1
 90 91  1  0
 92 90  1  0
M  ISO  4   8 100  16 100  52 101  53 101
M  END
>  <TORSDO>  (41) 
F 22

>  <SCORE>  (41) 
-12.570

>  <name>  (41) 
41

>  <ligand_id>  (41) 
41

>  <original_smiles>  (41) 
[H]c1c([H])c([H])c2c(c1[H])C([H])([H])C([H])([H])C([H])([H])C2([H])N([H])C(=O)C1([H])N(C(=O)C([H])(N([H])C(=O)C([H])(N([H])C([H])([H])[H])C([H])([H])[H])C(C([H])([H])[H])(C([H])([H])[H])C([H])([H])[H])C([H])([H])c2c([H])c(OC([H])([H])C(C([H])([H])[H])(C([H])([H])n3c([H])nc(C([H])(N([H])C(=O)N4C([H])([H])C([H])([H])C([H])([H])C([H])(n5nc(-c6c([H])c([H])c(Oc7c([H])c([H])c(F)c([H])c7F)c([H])c6[H])c(C(=O)N([H])[H])c5N([H])[H])C4([H])[H])C([H])([H])C([H])([H])[H])c3[H])C([H])([H])C([H])([H])[H])c([H])c([H])c2C1([H])[H]

>  <smiles>  (41) 
[H]c1c([H])c([H])c2c(c1[H])C([H])([H])C([H])([H])C([H])([H])C2([H])N([H])C(=O)C1([H])N(C(=O)C([H])(N([H])C(=O)C([H])(N([H])C([H])([H])[H])C([H])([H])[H])C(C([H])([H])[H])(C([H])([H])[H])C([H])([H])[H])C([H])([H])c2c([H])c(OC([H])([H])C(C([H])([H])[H])(C([H])([H])n3c([H])nc(C([H])(N([H])C(=O)N4C([H])([H])C([H])([H])C([H])([H])C([H])(n5nc(-c6c([H])c([H])c(Oc7c([H])c([H])c(F)c([H])c7F)c([H])c6[H])c(C(=O)N([H])[H])c5N([H])[H])C4([H])[H])C([H])([H])C([H])([H])[H])c3[H])C([H])([H])C([H])([H])[H])c([H])c([H])c2C1([H])[H]

$$$$
42:0:0
     RDKit          3D

 90 98  0  0  1  0  0  0  0  0999 V2000
  -28.7820  -20.5790   20.3850 C   0  0  0  0  0  3  0  0  0  0  0  0
  -30.3140  -21.7130   19.4440 C   0  0  0  0  0  3  0  0  0  0  0  0
  -29.8310  -19.6260   20.1290 C   0  0  0  0  0  0  0  0  0  0  0  0
  -30.7860  -20.4470   19.5020 N   0  0  0  0  0  0  0  0  0  0  0  0
  -29.0780  -21.9410   19.9340 N   0  0  0  0  0  0  0  0  0  0  0  0
  -29.2030  -17.7040   21.7070 C   0  0  0  0  0  1  0  0  0  0  0  0
  -31.5690  -18.1220   21.2390 C   0  0  0  0  0  1  0  0  0  0  0  0
  -30.1820  -18.0450   20.5620 C   0  0  2  0  0  0  0  0  0  0  0  0
  -31.0650  -17.1970   18.2930 C   0  0  0  0  0  1  0  0  0  0  0  0
  -28.8120  -16.5860   18.9300 C   0  0  0  0  0  1  0  0  0  0  0  0
  -30.2300  -16.6980   19.5020 C   0  0  2  0  0  0  0  0  0  0  0  0
  -30.8550  -15.1300   19.8010 C   0  0  0  0  0  0  0  0  0  0  0  0
  -30.6120  -12.7510   18.9350 C   0  0  0  0  0  2  0  0  0  0  0  0
  -29.6050  -12.6610   17.7670 C   0  0  0  0  0  2  0  0  0  0  0  0
  -28.1850  -12.4090   18.3060 C   0  0  0  0  0  2  0  0  0  0  0  0
  -27.8320  -13.3610   19.4720 C   0  0  0  0  0  3  0  0  0  0  0  0
  -28.9660  -13.4920   20.5140 C   0  0  0  0  0  2  0  0  0  0  0  0
  -30.1930  -13.8900   19.8080 N   0  0  0  0  0  0  0  0  0  0  0  0
  -32.0780  -15.0250   19.6610 O   0  0  0  0  0  0  0  0  0  0  0  0
  -25.5470  -13.9750   20.4380 C   0  0  0  0  0  0  0  0  0  0  0  0
  -24.4940  -13.2120   20.8540 C   0  0  0  0  0  0  0  0  0  0  0  0
  -24.9200  -11.8550   20.7330 C   0  0  0  0  0  0  0  0  0  0  0  0
  -26.5430  -13.0800   20.0790 N   0  0  0  0  0  0  0  0  0  0  0  0
  -26.1820  -11.7970   20.3260 N   0  0  0  0  0  0  0  0  0  0  0  0
  -24.1770  -10.6060   20.9210 C   0  0  0  0  0  0  0  0  0  0  0  0
  -24.5960   -9.6320   21.8530 C   0  0  0  0  0  3  0  0  0  0  0  0
  -23.8540   -8.4450   22.0290 C   0  0  0  0  0  3  0  0  0  0  0  0
  -22.6780   -8.2260   21.2710 C   0  0  0  0  0  0  0  0  0  0  0  0
  -22.2800   -9.1880   20.3260 C   0  0  0  0  0  3  0  0  0  0  0  0
  -23.0230  -10.3660   20.1490 C   0  0  0  0  0  3  0  0  0  0  0  0
  -21.9080   -7.0920   21.3570 O   0  0  0  0  0  0  0  0  0  0  0  0
  -21.7710   -6.4040   22.5360 C   0  0  0  0  0  0  0  0  0  0  0  0
  -21.2400   -7.0110   23.6950 C   0  0  0  0  0  3  0  0  0  0  0  0
  -21.0530   -6.2480   24.8650 C   0  0  0  0  0  3  0  0  0  0  0  0
  -21.3860   -4.8800   24.8770 C   0  0  0  0  0  0  0  0  0  0  0  0
  -21.9100   -4.2730   23.7210 C   0  0  0  0  0  3  0  0  0  0  0  0
  -22.0990   -5.0340   22.5540 C   0  0  0  0  0  0  0  0  0  0  0  0
  -22.5860   -4.4390   21.4370 F   0  0  0  0  0  0  0  0  0  0  0  0
  -21.1980   -4.1450   25.9970 F   0  0  0  0  0  0  0  0  0  0  0  0
  -23.1330  -13.7110   21.2430 C   0  0  0  0  0  0  0  0  0  0  0  0
  -22.4580  -13.0060   22.1440 N   0  0  0  0  0  0  0  0  0  0  0  0
  -22.6800  -14.7590   20.7830 O   0  0  0  0  0  0  0  0  0  0  0  0
  -22.8400  -12.1590   22.5370 H   0  0  0  0  0  0  0  0  0  0  0  0
  -21.5450  -13.3170   22.4440 H   0  0  0  0  0  0  0  0  0  0  0  0
  -25.7210  -15.3490   20.3060 N   0  0  0  0  0  0  0  0  0  0  0  0
  -24.9760  -16.0050   20.5120 H   0  0  0  0  0  0  0  0  0  0  0  0
  -26.5430  -15.7920   19.9180 H   0  0  0  0  0  0  0  0  0  0  0  0
  -28.2430  -23.2900   19.7520 C   0  0  0  0  0  2  0  0  0  0  0  0
  -28.3210  -24.7320   20.6190 C   0  0  0  0  0  2  0  0  0  0  0  0
  -28.3000  -26.2140   20.1280 O   0  0  0  0  0  0  0  0  0  0  0  0
  -24.6260  -31.8840   23.1410 C   0  0  0  0  0  0  0  0  0  0  0  0
  -27.1880  -27.1270   20.1770 C   0  0  0  0  0  0  0  0  0  0  0  0
  -23.4050  -30.4460   21.5530 C   0  0  0  0  0  3  0  0  0  0  0  0
  -24.8390  -28.8390   20.1470 C   0  0  0  0  0  0  0  0  0  0  0  0
  -25.9520  -30.7270   21.3340 C   0  0  0  0  0  2  0  0  0  0  0  0
  -26.0260  -29.3190   20.7170 C   0  0  0  0  0  0  0  0  0  0  0  0
  -27.2040  -28.4820   20.7010 C   0  0  0  0  0  3  0  0  0  0  0  0
  -25.9710  -26.7320   19.5870 C   0  0  0  0  0  3  0  0  0  0  0  0
  -24.8240  -27.5590   19.5670 C   0  0  0  0  0  3  0  0  0  0  0  0
  -23.6070  -29.7330   20.1880 C   0  0  0  0  0  2  0  0  0  0  0  0
  -24.6820  -31.0430   22.0640 N   0  0  0  0  0  0  0  0  0  0  0  0
  -23.5470  -32.1770   23.6800 O   0  0  0  0  0  0  0  0  0  0  0  0
  -22.7460  -29.4610   22.5490 C   0  0  0  0  0  0  0  0  0  0  0  0
  -21.4190  -29.2690   22.4340 N   0  0  0  0  0  0  0  0  0  0  0  0
  -23.4300  -28.8690   23.3870 O   0  0  0  0  0  0  0  0  0  0  0  0
  -20.9240  -29.8000   21.7310 H   0  0  0  0  0  0  0  0  0  0  0  0
  -18.0600  -28.0280   22.9770 C   0  0  0  0  0  0  0  0  0  0  0  0
  -20.6140  -28.3430   23.2340 C   0  0  0  0  0  3  0  0  0  0  0  0
  -20.7390  -26.8960   22.7060 C   0  0  0  0  0  2  0  0  0  0  0  0
  -19.6440  -26.5220   21.7030 C   0  0  0  0  0  2  0  0  0  0  0  0
  -18.2600  -26.6620   22.3430 C   0  0  0  0  0  2  0  0  0  0  0  0
  -19.1640  -28.8240   23.3800 C   0  0  0  0  0  0  0  0  0  0  0  0
  -18.9230  -30.1010   23.9330 C   0  0  0  0  0  3  0  0  0  0  0  0
  -17.6080  -30.5830   24.0860 C   0  0  0  0  0  3  0  0  0  0  0  0
  -16.5180  -29.7850   23.6980 C   0  0  0  0  0  3  0  0  0  0  0  0
  -16.7450  -28.5090   23.1500 C   0  0  0  0  0  3  0  0  0  0  0  0
  -25.9120  -32.5360   23.7350 C   0  0  0  0  0  3  0  0  0  0  0  0
  -26.4910  -31.7500   24.9760 C   0  0  1  0  0  0  0  0  0  0  0  0
  -25.4400  -31.4590   26.0740 C   0  0  0  0  0  1  0  0  0  0  0  0
  -27.0980  -30.3970   24.5380 C   0  0  0  0  0  1  0  0  0  0  0  0
  -27.6430  -32.5610   25.6190 C   0  0  0  0  0  1  0  0  0  0  0  0
  -25.5810  -33.9200   24.1130 N   0  0  0  0  0  0  0  0  0  0  0  0
  -25.8740  -35.0020   23.3800 C   0  0  0  0  0  0  0  0  0  0  0  0
  -26.5180  -34.9430   22.3300 O   0  0  0  0  0  0  0  0  0  0  0  0
  -25.0030  -34.0370   24.9320 H   0  0  0  0  0  0  0  0  0  0  0  0
  -24.1180  -36.7850   23.1120 C   0  0  0  0  0  1  0  0  0  0  0  0
  -25.3750  -36.3680   23.8930 C   0  0  0  0  0  3  0  0  0  0  0  0
  -27.5040  -37.2560   24.7360 C   0  0  0  0  0  1  0  0  0  0  0  0
  -26.3920  -37.4380   23.8050 N   0  0  0  0  0  0  0  0  0  0  0  0
  -25.9730  -38.3470   23.9870 H   0  0  0  0  0  0  0  0  0  0  0  0
  2  4  2  0
  2  5  1  0
  3  1  2  0
  3  8  1  0
  4  3  1  0
  5  1  1  0
  8  7  1  1
  8  6  1  0
 11  9  1  6
 10 11  1  0
 11 12  1  0
 11  8  1  0
 12 18  1  0
 13 18  1  0
 14 15  1  0
 14 13  1  0
 16 15  1  0
 16 23  1  0
 16 17  1  0
 18 17  1  0
 19 12  2  0
 20 21  2  0
 21 40  1  0
 22 21  1  0
 22 25  1  0
 23 24  1  0
 23 20  1  0
 24 22  2  0
 25 26  1  0
 26 27  2  0
 28 31  1  0
 28 27  1  0
 29 28  2  0
 30 29  1  0
 30 25  2  0
 31 32  1  0
 32 37  2  0
 32 33  1  0
 33 34  2  0
 34 35  1  0
 35 39  1  0
 36 35  2  0
 37 36  1  0
 38 37  1  0
 40 41  1  0
 41 44  1  0
 41 43  1  0
 42 40  2  0
 45 20  1  0
 45 46  1  0
 47 45  1  0
 48  5  1  0
 48 49  1  0
 50 52  1  0
 50 49  1  0
 51 62  2  0
 52 57  1  0
 53 61  1  0
 53 63  1  0
 54 60  1  0
 54 56  1  0
 55 61  1  0
 56 55  1  0
 57 56  2  0
 58 52  2  0
 59 58  1  0
 59 54  2  0
 60 53  1  0
 61 51  1  0
 63 65  2  0
 64 63  1  0
 66 64  1  0
 67 76  2  0
 67 72  1  0
 68 64  1  0
 68 72  1  0
 69 68  1  0
 70 71  1  0
 70 69  1  0
 71 67  1  0
 72 73  2  0
 73 74  1  0
 75 74  2  0
 76 75  1  0
 77 51  1  0
 77 82  1  0
 77 78  1  0
 78 81  1  1
 78 79  1  0
 80 78  1  0
 82 85  1  0
 83 87  1  0
 83 82  1  0
 84 83  2  0
 87 86  1  0
 89 87  1  0
 89 90  1  0
 89 88  1  0
M  ISO  4  11 100  12 100  49 101  50 101
M  END
>  <TORSDO>  (42) 
F 20

>  <SCORE>  (42) 
-13.745

>  <name>  (42) 
42

>  <ligand_id>  (42) 
42

>  <original_smiles>  (42) 
[H]c1c([H])c([H])c2c(c1[H])C([H])([H])C([H])([H])C([H])([H])C2([H])N([H])C(=O)C1([H])N(C(=O)C([H])(N([H])C(=O)C([H])(N([H])C([H])([H])[H])C([H])([H])[H])C(C([H])([H])[H])(C([H])([H])[H])C([H])([H])[H])C([H])([H])c2c([H])c(OC([H])([H])C([H])([H])n3c([H])nc(C(C([H])([H])[H])(C([H])([H])[H])C(C(=O)N4C([H])([H])C([H])([H])C([H])([H])C([H])(n5nc(-c6c([H])c([H])c(Oc7c([H])c([H])c(F)c([H])c7F)c([H])c6[H])c(C(=O)N([H])[H])c5N([H])[H])C4([H])[H])(C([H])([H])[H])C([H])([H])[H])c3[H])c([H])c([H])c2C1([H])[H]

>  <smiles>  (42) 
[H]c1c([H])c([H])c2c(c1[H])C([H])([H])C([H])([H])C([H])([H])C2([H])N([H])C(=O)C1([H])N(C(=O)C([H])(N([H])C(=O)C([H])(N([H])C([H])([H])[H])C([H])([H])[H])C(C([H])([H])[H])(C([H])([H])[H])C([H])([H])[H])C([H])([H])c2c([H])c(OC([H])([H])C([H])([H])n3c([H])nc(C(C([H])([H])[H])(C([H])([H])[H])C(C(=O)N4C([H])([H])C([H])([H])C([H])([H])C([H])(n5nc(-c6c([H])c([H])c(Oc7c([H])c([H])c(F)c([H])c7F)c([H])c6[H])c(C(=O)N([H])[H])c5N([H])[H])C4([H])[H])(C([H])([H])[H])C([H])([H])[H])c3[H])c([H])c([H])c2C1([H])[H]

$$$$
43:0:0
     RDKit          3D

 94102  0  0  1  0  0  0  0  0999 V2000
  -32.0520  -18.7080   19.2370 C   0  0  0  0  0  2  0  0  0  0  0  0
  -29.4570  -16.6400   19.8520 C   0  0  0  0  0  3  0  0  0  0  0  0
  -30.5210  -19.0920   18.5700 C   0  0  0  0  0  0  0  0  0  0  0  0
  -31.0130  -16.4180   20.7430 C   0  0  0  0  0  0  0  0  0  0  0  0
  -29.3730  -17.9240   18.7700 N   0  0  0  0  0  0  0  0  0  0  0  0
  -32.3280  -17.4550   20.3430 N   0  0  0  0  0  0  0  0  0  0  0  0
  -29.4530  -15.9080   22.6350 C   0  0  0  0  0  1  0  0  0  0  0  0
  -31.8500  -15.1440   22.7210 C   0  0  0  0  0  1  0  0  0  0  0  0
  -30.8930  -16.2340   22.1800 C   0  0  1  0  0  0  0  0  0  0  0  0
  -31.7490  -17.9570   23.8400 C   0  0  0  0  0  1  0  0  0  0  0  0
  -31.3120  -17.6910   22.3710 C   0  0  0  0  0  3  0  0  0  0  0  0
  -33.4500  -18.9650   21.8780 C   0  0  0  0  0  1  0  0  0  0  0  0
  -31.3900  -19.6900   20.9720 C   0  0  0  0  0  1  0  0  0  0  0  0
  -32.2010  -18.2640   21.0650 C   0  0  1  0  0  0  0  0  0  0  0  0
  -32.4300  -15.9630   18.7330 C   0  0  0  0  0  2  0  0  0  0  0  0
  -32.1420  -13.4140   17.7200 C   0  0  0  0  0  2  0  0  0  0  0  0
  -31.0100  -13.1890   16.6610 C   0  0  0  0  0  2  0  0  0  0  0  0
  -29.6150  -13.0290   17.2920 C   0  0  0  0  0  2  0  0  0  0  0  0
  -29.4520  -14.0000   18.4790 C   0  0  0  0  0  3  0  0  0  0  0  0
  -30.6760  -13.9200   19.4230 C   0  0  0  0  0  2  0  0  0  0  0  0
  -31.8270  -14.5750   18.6950 N   0  0  0  0  0  0  0  0  0  0  0  0
  -33.3920  -15.8240   17.9290 O   0  0  0  0  0  1  0  0  0  0  0  0
  -27.3250  -14.8900   19.5710 C   0  0  0  0  0  0  0  0  0  0  0  0
  -26.2120  -14.2790   20.0750 C   0  0  0  0  0  0  0  0  0  0  0  0
  -26.4360  -12.8740   19.9340 C   0  0  0  0  0  0  0  0  0  0  0  0
  -28.1680  -13.8700   19.1600 N   0  0  0  0  0  0  0  0  0  0  0  0
  -27.6480  -12.6450   19.4340 N   0  0  0  0  0  0  0  0  0  0  0  0
  -25.5360  -11.7410   20.1950 C   0  0  0  0  0  0  0  0  0  0  0  0
  -25.9070  -10.6840   21.0530 C   0  0  0  0  0  3  0  0  0  0  0  0
  -25.0150   -9.6200   21.3070 C   0  0  0  0  0  3  0  0  0  0  0  0
  -23.7360   -9.6050   20.7020 C   0  0  0  0  0  0  0  0  0  0  0  0
  -23.3790  -10.6490   19.8300 C   0  0  0  0  0  3  0  0  0  0  0  0
  -24.2700  -11.7060   19.5750 C   0  0  0  0  0  3  0  0  0  0  0  0
  -22.8160   -8.5980   20.8670 O   0  0  0  0  0  0  0  0  0  0  0  0
  -22.6580   -7.9580   22.0700 C   0  0  0  0  0  0  0  0  0  0  0  0
  -22.3310   -8.6580   23.2510 C   0  0  0  0  0  3  0  0  0  0  0  0
  -22.1110   -7.9510   24.4500 C   0  0  0  0  0  3  0  0  0  0  0  0
  -22.2080   -6.5470   24.4680 C   0  0  0  0  0  0  0  0  0  0  0  0
  -22.5290   -5.8480   23.2930 C   0  0  0  0  0  3  0  0  0  0  0  0
  -22.7500   -6.5510   22.0960 C   0  0  0  0  0  0  0  0  0  0  0  0
  -23.0380   -5.8700   20.9600 F   0  0  0  0  0  0  0  0  0  0  0  0
  -21.9890   -5.8680   25.6190 F   0  0  0  0  0  0  0  0  0  0  0  0
  -24.9700  -14.9650   20.5650 C   0  0  0  0  0  0  0  0  0  0  0  0
  -24.2830  -14.3670   21.5320 N   0  0  0  0  0  0  0  0  0  0  0  0
  -24.6320  -16.0630   20.1270 O   0  0  0  0  0  0  0  0  0  0  0  0
  -24.5730  -13.4750   21.9020 H   0  0  0  0  0  0  0  0  0  0  0  0
  -23.4550  -14.8080   21.9050 H   0  0  0  0  0  0  0  0  0  0  0  0
  -27.6750  -16.2250   19.4010 N   0  0  0  0  0  0  0  0  0  0  0  0
  -27.0370  -16.9760   19.6420 H   0  0  0  0  0  0  0  0  0  0  0  0
  -28.5200  -16.5590   18.9530 H   0  0  0  0  0  0  0  0  0  0  0  0
  -29.9070  -20.8450   18.2180 C   0  0  0  0  0  2  0  0  0  0  0  0
  -29.6640  -22.6440   18.9610 C   0  0  0  0  0  3  0  0  0  0  0  0
  -28.7160  -24.3390   18.6490 C   0  0  0  0  0  3  0  0  0  0  0  0
  -28.6660  -26.0590   19.0890 O   0  0  0  0  0  0  0  0  0  0  0  0
  -24.8340  -31.7410   22.7610 C   0  0  0  0  0  0  0  0  0  0  0  0
  -27.5900  -27.1910   19.1620 C   0  0  0  0  0  0  0  0  0  0  0  0
  -23.6690  -30.4160   21.0480 C   0  0  0  0  0  3  0  0  0  0  0  0
  -25.1630  -29.0310   19.4100 C   0  0  0  0  0  0  0  0  0  0  0  0
  -26.2190  -30.7740   20.8260 C   0  0  0  0  0  2  0  0  0  0  0  0
  -26.3570  -29.4200   20.0260 C   0  0  0  0  0  0  0  0  0  0  0  0
  -27.5460  -28.5280   19.8780 C   0  0  0  0  0  3  0  0  0  0  0  0
  -26.3420  -27.0170   18.5090 C   0  0  0  0  0  3  0  0  0  0  0  0
  -25.1910  -27.8610   18.6290 C   0  0  0  0  0  3  0  0  0  0  0  0
  -23.8870  -29.8680   19.6050 C   0  0  0  0  0  2  0  0  0  0  0  0
  -24.9310  -31.0080   21.5980 N   0  0  0  0  0  0  0  0  0  0  0  0
  -23.7530  -31.9020   23.3510 O   0  0  0  0  0  0  0  0  0  0  0  0
  -23.0820  -29.2980   21.9520 C   0  0  0  0  0  0  0  0  0  0  0  0
  -21.7620  -29.0440   21.8690 N   0  0  0  0  0  0  0  0  0  0  0  0
  -23.8270  -28.6590   22.6980 O   0  0  0  0  0  0  0  0  0  0  0  0
  -21.2060  -29.6110   21.2450 H   0  0  0  0  0  0  0  0  0  0  0  0
  -18.5200  -27.4810   22.3750 C   0  0  0  0  0  0  0  0  0  0  0  0
  -21.0520  -27.9740   22.5820 C   0  0  0  0  0  3  0  0  0  0  0  0
  -21.2650  -26.6080   21.8870 C   0  0  0  0  0  2  0  0  0  0  0  0
  -20.1620  -26.2660   20.8810 C   0  0  0  0  0  2  0  0  0  0  0  0
  -18.7990  -26.2190   21.5750 C   0  0  0  0  0  2  0  0  0  0  0  0
  -19.5770  -28.3140   22.8340 C   0  0  0  0  0  0  0  0  0  0  0  0
  -19.2600  -29.4880   23.5490 C   0  0  0  0  0  3  0  0  0  0  0  0
  -17.9200  -29.8360   23.8040 C   0  0  0  0  0  3  0  0  0  0  0  0
  -16.8790  -29.0020   23.3590 C   0  0  0  0  0  3  0  0  0  0  0  0
  -17.1800  -27.8260   22.6500 C   0  0  0  0  0  3  0  0  0  0  0  0
  -26.0780  -32.4280   23.4040 C   0  0  0  0  0  3  0  0  0  0  0  0
  -25.6770  -33.7730   23.8620 N   0  0  0  0  0  0  0  0  0  0  0  0
  -25.9360  -34.9200   23.2170 C   0  0  0  0  0  0  0  0  0  0  0  0
  -26.5940  -34.9600   22.1750 O   0  0  0  0  0  0  0  0  0  0  0  0
  -25.0840  -33.8070   24.6770 H   0  0  0  0  0  0  0  0  0  0  0  0
  -24.0890  -36.6310   23.0910 C   0  0  0  0  0  1  0  0  0  0  0  0
  -25.3810  -36.2290   23.8200 C   0  0  0  0  0  3  0  0  0  0  0  0
  -27.4780  -37.1820   24.6770 C   0  0  0  0  0  1  0  0  0  0  0  0
  -26.3410  -37.3560   23.7770 N   0  0  0  0  0  0  0  0  0  0  0  0
  -25.8790  -38.2310   24.0150 H   0  0  0  0  0  0  0  0  0  0  0  0
  -26.6800  -31.6090   24.6140 C   0  0  1  0  0  0  0  0  0  0  0  0
  -25.6400  -31.2340   25.6960 C   0  0  0  0  0  1  0  0  0  0  0  0
  -27.3340  -30.2970   24.1290 C   0  0  0  0  0  1  0  0  0  0  0  0
  -27.8000  -32.4310   25.2950 C   0  0  0  0  0  1  0  0  0  0  0  0
  1  6  1  0
  2  4  2  0
  3  5  2  0
  3  1  1  0
  4  9  1  0
  5  2  1  0
  6  4  1  0
  6 14  1  0
  9 11  1  0
  9  7  1  6
  9  8  1  0
 11 10  1  0
 14 13  1  6
 14 12  1  0
 14 11  1  0
 16 21  1  0
 17 18  1  0
 17 16  1  0
 19 18  1  0
 19 26  1  0
 19 20  1  0
 21 15  1  0
 21 20  1  0
 22 15  1  0
 23 24  2  0
 24 43  1  0
 25 24  1  0
 25 28  1  0
 26 27  1  0
 26 23  1  0
 27 25  2  0
 28 29  1  0
 29 30  2  0
 31 34  1  0
 31 30  1  0
 32 31  2  0
 33 32  1  0
 33 28  2  0
 34 35  1  0
 35 40  2  0
 35 36  1  0
 36 37  2  0
 37 38  1  0
 38 42  1  0
 39 38  2  0
 40 39  1  0
 41 40  1  0
 43 44  1  0
 44 46  1  0
 44 47  1  0
 45 43  2  0
 48 23  1  0
 48 49  1  0
 50 48  1  0
 51  3  1  0
 51 52  1  0
 53 52  2  0
 53 54  1  0
 54 56  1  0
 55 66  2  0
 56 61  1  0
 57 65  1  0
 57 67  1  0
 58 64  1  0
 58 60  1  0
 59 65  1  0
 60 59  1  0
 61 60  2  0
 62 63  1  0
 62 56  2  0
 63 58  2  0
 64 57  1  0
 65 55  1  0
 67 69  2  0
 68 67  1  0
 70 68  1  0
 71 80  2  0
 71 76  1  0
 72 68  1  0
 72 76  1  0
 73 72  1  0
 74 75  1  0
 74 73  1  0
 75 71  1  0
 76 77  2  0
 77 78  1  0
 79 78  2  0
 80 79  1  0
 81 55  1  0
 81 82  1  0
 81 91  1  0
 82 85  1  0
 83 87  1  0
 83 82  1  0
 84 83  2  0
 87 86  1  0
 89 87  1  0
 89 90  1  0
 89 88  1  0
 91 94  1  1
 91 92  1  0
 93 91  1  0
M  ISO  4  14 100  15 100  53 101  54 101
M  END
>  <TORSDO>  (43) 
F 22

>  <SCORE>  (43) 
-0.182

>  <name>  (43) 
43

>  <ligand_id>  (43) 
43

>  <original_smiles>  (43) 
[H]c1nc(C(C([H])([H])[H])(C([H])([H])[H])C([H])(C([H])([H])[H])C(C(=O)N2C([H])([H])C([H])([H])C([H])([H])C([H])(n3nc(-c4c([H])c([H])c(Oc5c([H])c([H])c(F)c([H])c5F)c([H])c4[H])c(C(=O)N([H])[H])c3N([H])[H])C2([H])[H])(C([H])([H])[H])C([H])([H])[H])c([H])nc1C([H])([H])C([H])([H])C([H])([H])Oc1c([H])c([H])c2c(c1[H])C([H])([H])N(C(=O)C([H])(N([H])C(=O)C([H])(N([H])C([H])([H])[H])C([H])([H])[H])C(C([H])([H])[H])(C([H])([H])[H])C([H])([H])[H])C([H])(C(=O)N([H])C1([H])c3c([H])c([H])c([H])c([H])c3C([H])([H])C([H])([H])C1([H])[H])C2([H])[H]

>  <smiles>  (43) 
[H]c1nc(C(C([H])([H])[H])(C([H])([H])[H])C([H])(C([H])([H])[H])C(C(=O)N2C([H])([H])C([H])([H])C([H])([H])C([H])(n3nc(-c4c([H])c([H])c(Oc5c([H])c([H])c(F)c([H])c5F)c([H])c4[H])c(C(=O)N([H])[H])c3N([H])[H])C2([H])[H])(C([H])([H])[H])C([H])([H])[H])c([H])nc1C([H])([H])C([H])([H])C([H])([H])Oc1c([H])c([H])c2c(c1[H])C([H])([H])N(C(=O)C([H])(N([H])C(=O)C([H])(N([H])C([H])([H])[H])C([H])([H])[H])C(C([H])([H])[H])(C([H])([H])[H])C([H])([H])[H])C([H])(C(=O)N([H])C1([H])c3c([H])c([H])c([H])c([H])c3C([H])([H])C([H])([H])C1([H])[H])C2([H])[H]

$$$$
44:0:0
     RDKit          3D

 96104  0  0  1  0  0  0  0  0999 V2000
  -28.4440  -21.3990   20.0560 C   0  0  0  0  0  3  0  0  0  0  0  0
  -26.0660  -21.4510   21.0660 C   0  0  0  0  0  1  0  0  0  0  0  0
  -26.7870  -19.4180   19.7480 C   0  0  0  0  0  1  0  0  0  0  0  0
  -27.2600  -20.5750   20.6490 C   0  0  0  0  0  3  0  0  0  0  0  0
  -28.1870  -22.9290   20.0820 C   0  0  0  0  0  2  0  0  0  0  0  0
  -29.1120  -23.7710   19.1760 C   0  0  0  0  0  2  0  0  0  0  0  0
  -28.8830  -25.2840   19.3350 C   0  0  0  0  0  2  0  0  0  0  0  0
  -29.3050  -26.1100   18.0990 C   0  0  0  0  0  2  0  0  0  0  0  0
  -28.9900  -27.5000   18.2250 O   0  0  0  0  0  0  0  0  0  0  0  0
  -25.0720  -30.9700   23.0090 C   0  0  0  0  0  0  0  0  0  0  0  0
  -27.7140  -27.8870   18.5730 C   0  0  0  0  0  0  0  0  0  0  0  0
  -23.8020  -29.6420   21.3520 C   0  0  0  0  0  3  0  0  0  0  0  0
  -25.1450  -28.7620   19.3730 C   0  0  0  0  0  0  0  0  0  0  0  0
  -26.0980  -30.6050   20.7680 C   0  0  0  0  0  2  0  0  0  0  0  0
  -26.2860  -29.4280   19.8360 C   0  0  0  0  0  0  0  0  0  0  0  0
  -27.5690  -28.9960   19.4360 C   0  0  0  0  0  3  0  0  0  0  0  0
  -26.5500  -27.2350   18.1040 C   0  0  0  0  0  3  0  0  0  0  0  0
  -25.2720  -27.6630   18.5070 C   0  0  0  0  0  3  0  0  0  0  0  0
  -23.8070  -29.2850   19.8420 C   0  0  0  0  0  2  0  0  0  0  0  0
  -25.0190  -30.4130   21.7660 N   0  0  0  0  0  0  0  0  0  0  0  0
  -24.1130  -30.8850   23.7890 O   0  0  0  0  0  0  0  0  0  0  0  0
  -23.5960  -28.3430   22.1650 C   0  0  0  0  0  0  0  0  0  0  0  0
  -22.4560  -27.6710   21.9360 N   0  0  0  0  0  0  0  0  0  0  0  0
  -24.4550  -27.9480   22.9560 O   0  0  0  0  0  0  0  0  0  0  0  0
  -21.7990  -28.0650   21.2770 H   0  0  0  0  0  0  0  0  0  0  0  0
  -20.0200  -25.0070   21.8190 C   0  0  0  0  0  0  0  0  0  0  0  0
  -22.0640  -26.4060   22.5560 C   0  0  0  0  0  3  0  0  0  0  0  0
  -22.9270  -25.2360   22.0280 C   0  0  0  0  0  2  0  0  0  0  0  0
  -22.2960  -24.5140   20.8320 C   0  0  0  0  0  2  0  0  0  0  0  0
  -20.9240  -23.9500   21.2080 C   0  0  0  0  0  2  0  0  0  0  0  0
  -20.5550  -26.1680   22.4390 C   0  0  0  0  0  0  0  0  0  0  0  0
  -19.6690  -27.1360   22.9600 C   0  0  0  0  0  3  0  0  0  0  0  0
  -18.2750  -26.9580   22.8730 C   0  0  0  0  0  3  0  0  0  0  0  0
  -17.7510  -25.7990   22.2740 C   0  0  0  0  0  3  0  0  0  0  0  0
  -18.6220  -24.8260   21.7530 C   0  0  0  0  0  3  0  0  0  0  0  0
  -26.3270  -31.7580   23.5000 C   0  0  0  0  0  3  0  0  0  0  0  0
  -25.8560  -33.0340   24.0540 N   0  0  0  0  0  0  0  0  0  0  0  0
  -25.8640  -34.1980   23.3920 C   0  0  0  0  0  0  0  0  0  0  0  0
  -26.3400  -34.3220   22.2600 O   0  0  0  0  0  0  0  0  0  0  0  0
  -25.3990  -32.9960   24.9540 H   0  0  0  0  0  0  0  0  0  0  0  0
  -23.8160  -35.6450   23.5770 C   0  0  0  0  0  1  0  0  0  0  0  0
  -25.2440  -35.4200   24.0980 C   0  0  0  0  0  3  0  0  0  0  0  0
  -27.3110  -36.6240   24.6440 C   0  0  0  0  0  1  0  0  0  0  0  0
  -26.0360  -36.6570   23.9350 N   0  0  0  0  0  0  0  0  0  0  0  0
  -25.5130  -37.4660   24.2610 H   0  0  0  0  0  0  0  0  0  0  0  0
  -27.1820  -30.9660   24.5630 C   0  0  1  0  0  0  0  0  0  0  0  0
  -26.3380  -30.3480   25.7030 C   0  0  0  0  0  1  0  0  0  0  0  0
  -27.9700  -29.8210   23.8840 C   0  0  0  0  0  1  0  0  0  0  0  0
  -28.2320  -31.9080   25.1970 C   0  0  0  0  0  1  0  0  0  0  0  0
  -28.8970  -20.8790   18.6660 C   0  0  0  0  0  2  0  0  0  0  0  0
  -29.8870  -19.7010   18.7470 C   0  0  0  0  0  2  0  0  0  0  0  0
  -29.5920  -18.5830   17.7310 C   0  0  0  0  0  2  0  0  0  0  0  0
  -32.3100  -17.6720   15.5150 C   0  0  0  0  0  3  0  0  0  0  0  0
  -31.0640  -18.1970   15.7370 C   0  0  0  0  0  3  0  0  0  0  0  0
  -31.9170  -17.5490   17.6540 C   0  0  0  0  0  0  0  0  0  0  0  0
  -32.8420  -17.2590   16.7300 N   0  0  0  0  0  0  0  0  0  0  0  0
  -30.8180  -18.1150   17.1030 N   0  0  0  0  0  0  0  0  0  0  0  0
  -32.0700  -17.2320   19.1340 C   0  0  0  0  0  3  0  0  0  0  0  0
  -32.7840  -15.8580   19.3060 C   0  0  0  0  0  0  0  0  0  0  0  0
  -32.9460  -13.6430   20.3990 C   0  0  0  0  0  2  0  0  0  0  0  0
  -32.3450  -12.5000   19.5650 C   0  0  0  0  0  2  0  0  0  0  0  0
  -30.8370  -12.3680   19.8380 C   0  0  0  0  0  2  0  0  0  0  0  0
  -30.0960  -13.7260   19.7280 C   0  0  0  0  0  3  0  0  0  0  0  0
  -30.8240  -14.8290   20.5250 C   0  0  0  0  0  2  0  0  0  0  0  0
  -32.2270  -14.8870   20.0800 N   0  0  0  0  0  0  0  0  0  0  0  0
  -33.8750  -15.6730   18.7530 O   0  0  0  0  0  0  0  0  0  0  0  0
  -27.7320  -14.5900   20.2800 C   0  0  0  0  0  0  0  0  0  0  0  0
  -26.5760  -13.9380   20.6140 C   0  0  0  0  0  0  0  0  0  0  0  0
  -26.9020  -12.5480   20.6510 C   0  0  0  0  0  0  0  0  0  0  0  0
  -28.6970  -13.6030   20.1370 N   0  0  0  0  0  0  0  0  0  0  0  0
  -28.1960  -12.3720   20.4170 N   0  0  0  0  0  0  0  0  0  0  0  0
  -26.0460  -11.3690   20.8420 C   0  0  0  0  0  0  0  0  0  0  0  0
  -26.1070  -10.5940   22.0200 C   0  0  0  0  0  3  0  0  0  0  0  0
  -25.2600   -9.4760   22.1870 C   0  0  0  0  0  3  0  0  0  0  0  0
  -24.3380   -9.1250   21.1720 C   0  0  0  0  0  0  0  0  0  0  0  0
  -24.2980   -9.8880   19.9910 C   0  0  0  0  0  3  0  0  0  0  0  0
  -25.1440  -10.9970   19.8240 C   0  0  0  0  0  3  0  0  0  0  0  0
  -23.4960   -8.0420   21.2350 O   0  0  0  0  0  0  0  0  0  0  0  0
  -22.8400   -7.7080   22.3920 C   0  0  0  0  0  0  0  0  0  0  0  0
  -21.9820   -8.6160   23.0520 C   0  0  0  0  0  3  0  0  0  0  0  0
  -21.2720   -8.2080   24.1980 C   0  0  0  0  0  3  0  0  0  0  0  0
  -21.4100   -6.8940   24.6820 C   0  0  0  0  0  0  0  0  0  0  0  0
  -22.2590   -5.9870   24.0240 C   0  0  0  0  0  3  0  0  0  0  0  0
  -22.9690   -6.3910   22.8800 C   0  0  0  0  0  0  0  0  0  0  0  0
  -23.7700   -5.5070   22.2380 F   0  0  0  0  0  0  0  0  0  0  0  0
  -20.7220   -6.4990   25.7790 F   0  0  0  0  0  0  0  0  0  0  0  0
  -25.2200  -14.5580   20.7910 C   0  0  0  0  0  0  0  0  0  0  0  0
  -24.4180  -14.0290   21.7100 N   0  0  0  0  0  0  0  0  0  0  0  0
  -24.8800  -15.5490   20.1460 O   0  0  0  0  0  0  0  0  0  0  0  0
  -24.7030  -13.2290   22.2550 H   0  0  0  0  0  0  0  0  0  0  0  0
  -23.5050  -14.4310   21.8700 H   0  0  0  0  0  0  0  0  0  0  0  0
  -28.0410  -15.9290   20.0690 N   0  0  0  0  0  0  0  0  0  0  0  0
  -27.3390  -16.6590   20.1190 H   0  0  0  0  0  0  0  0  0  0  0  0
  -28.9480  -16.2720   19.7790 H   0  0  0  0  0  0  0  0  0  0  0  0
  -32.1100  -19.7580   19.6730 C   0  0  0  0  0  1  0  0  0  0  0  0
  -32.7870  -18.3930   19.8810 C   0  0  0  0  0  2  0  0  0  0  0  0
  1 50  1  0
  1  5  1  0
  1  4  1  0
  3  4  1  0
  4  2  1  0
  6  7  1  0
  6  5  1  0
  8  9  1  0
  8  7  1  0
  9 11  1  0
 10 21  2  0
 11 16  1  0
 12 20  1  0
 12 22  1  0
 13 15  1  0
 13 19  1  0
 14 20  1  0
 15 14  1  0
 16 15  2  0
 17 18  1  0
 17 11  2  0
 18 13  2  0
 19 12  1  0
 20 10  1  0
 22 24  2  0
 23 22  1  0
 25 23  1  0
 26 31  1  0
 27 23  1  0
 28 27  1  0
 29 30  1  0
 29 28  1  0
 30 26  1  0
 31 27  1  0
 31 32  2  0
 33 32  1  0
 34 33  2  0
 35 26  2  0
 35 34  1  0
 36 10  1  0
 36 37  1  0
 36 46  1  0
 37 40  1  0
 38 37  1  0
 38 42  1  0
 39 38  2  0
 42 41  1  0
 44 42  1  0
 44 45  1  0
 44 43  1  0
 46 49  1  1
 46 47  1  0
 48 46  1  0
 50 51  1  0
 52 51  1  0
 53 54  2  0
 53 56  1  0
 54 57  1  0
 55 58  1  0
 56 55  2  0
 57 55  1  0
 57 52  1  0
 58 59  1  0
 58 96  1  0
 59 65  1  0
 61 62  1  0
 61 60  1  0
 63 62  1  0
 63 70  1  0
 63 64  1  0
 65 60  1  0
 65 64  1  0
 66 59  2  0
 67 68  2  0
 68 69  1  0
 68 87  1  0
 69 72  1  0
 70 67  1  0
 70 71  1  0
 71 69  2  0
 72 73  1  0
 73 74  2  0
 75 78  1  0
 75 74  1  0
 76 75  2  0
 77 76  1  0
 77 72  2  0
 78 79  1  0
 79 84  2  0
 79 80  1  0
 80 81  2  0
 81 82  1  0
 82 86  1  0
 83 82  2  0
 84 83  1  0
 85 84  1  0
 87 88  1  0
 88 91  1  0
 88 90  1  0
 89 87  2  0
 92 93  1  0
 92 67  1  0
 94 92  1  0
 95 96  1  0
M  ISO  4   8 101   9 101  58 100  59 100
M  END
>  <TORSDO>  (44) 
F 27

>  <SCORE>  (44) 
-2.265

>  <name>  (44) 
44

>  <ligand_id>  (44) 
44

>  <original_smiles>  (44) 
[H]c1nc(C([H])(C(=O)N2C([H])([H])C([H])([H])C([H])([H])C([H])(n3nc(-c4c([H])c([H])c(Oc5c([H])c([H])c(F)c([H])c5F)c([H])c4[H])c(C(=O)N([H])[H])c3N([H])[H])C2([H])[H])C([H])([H])C([H])([H])[H])n(C([H])([H])C([H])([H])C([H])([H])C([H])(C([H])([H])C([H])([H])C([H])([H])C([H])([H])Oc2c([H])c([H])c3c(c2[H])C([H])([H])N(C(=O)C([H])(N([H])C(=O)C([H])(N([H])C([H])([H])[H])C([H])([H])[H])C(C([H])([H])[H])(C([H])([H])[H])C([H])([H])[H])C([H])(C(=O)N([H])C2([H])c4c([H])c([H])c([H])c([H])c4C([H])([H])C([H])([H])C2([H])[H])C3([H])[H])C([H])(C([H])([H])[H])C([H])([H])[H])c1[H]

>  <smiles>  (44) 
[H]c1nc(C([H])(C(=O)N2C([H])([H])C([H])([H])C([H])([H])C([H])(n3nc(-c4c([H])c([H])c(Oc5c([H])c([H])c(F)c([H])c5F)c([H])c4[H])c(C(=O)N([H])[H])c3N([H])[H])C2([H])[H])C([H])([H])C([H])([H])[H])n(C([H])([H])C([H])([H])C([H])([H])C([H])(C([H])([H])C([H])([H])C([H])([H])C([H])([H])Oc2c([H])c([H])c3c(c2[H])C([H])([H])N(C(=O)C([H])(N([H])C(=O)C([H])(N([H])C([H])([H])[H])C([H])([H])[H])C(C([H])([H])[H])(C([H])([H])[H])C([H])([H])[H])C([H])(C(=O)N([H])C2([H])c4c([H])c([H])c([H])c([H])c4C([H])([H])C([H])([H])C2([H])[H])C3([H])[H])C([H])(C([H])([H])[H])C([H])([H])[H])c1[H]

$$$$
45:0:0
     RDKit          3D

 87 95  0  0  1  0  0  0  0  0999 V2000
  -28.9600  -21.7890   20.1410 C   0  0  0  0  0  2  0  0  0  0  0  0
  -30.3980  -21.0980   22.0550 C   0  0  0  0  0  3  0  0  0  0  0  0
  -30.1950  -19.3010   20.9380 C   0  0  0  0  0  0  0  0  0  0  0  0
  -31.1020  -20.1980   22.7270 N   0  0  0  0  0  0  0  0  0  0  0  0
  -30.9830  -19.0560   22.0010 N   0  0  0  0  0  0  0  0  0  0  0  0
  -29.7910  -20.7000   20.9180 N   0  0  0  0  0  0  0  0  0  0  0  0
  -30.0910  -17.9730   20.0140 C   0  0  0  0  0  2  0  0  0  0  0  0
  -30.0580  -16.4190   20.6900 C   0  0  0  0  0  2  0  0  0  0  0  0
  -30.7640  -15.0290   20.1370 C   0  0  0  0  0  0  0  0  0  0  0  0
  -30.5760  -12.7050   19.1300 C   0  0  0  0  0  2  0  0  0  0  0  0
  -29.6160  -12.7380   17.9170 C   0  0  0  0  0  2  0  0  0  0  0  0
  -28.1540  -12.5590   18.3680 C   0  0  0  0  0  2  0  0  0  0  0  0
  -27.8010  -13.4580   19.5810 C   0  0  0  0  0  3  0  0  0  0  0  0
  -28.8760  -13.3880   20.6860 C   0  0  0  0  0  2  0  0  0  0  0  0
  -30.1570  -13.7750   20.0800 N   0  0  0  0  0  0  0  0  0  0  0  0
  -31.9210  -15.0980   19.7070 O   0  0  0  0  0  0  0  0  0  0  0  0
  -25.4370  -14.0780   20.3460 C   0  0  0  0  0  0  0  0  0  0  0  0
  -24.3660  -13.3210   20.7350 C   0  0  0  0  0  0  0  0  0  0  0  0
  -24.8090  -11.9630   20.7040 C   0  0  0  0  0  0  0  0  0  0  0  0
  -26.4630  -13.1830   20.0960 N   0  0  0  0  0  0  0  0  0  0  0  0
  -26.0950  -11.9060   20.3750 N   0  0  0  0  0  0  0  0  0  0  0  0
  -24.0650  -10.7130   20.9110 C   0  0  0  0  0  0  0  0  0  0  0  0
  -24.4820   -9.7520   21.8570 C   0  0  0  0  0  3  0  0  0  0  0  0
  -23.7380   -8.5690   22.0520 C   0  0  0  0  0  3  0  0  0  0  0  0
  -22.5620   -8.3380   21.3000 C   0  0  0  0  0  0  0  0  0  0  0  0
  -22.1640   -9.2870   20.3410 C   0  0  0  0  0  3  0  0  0  0  0  0
  -22.9090  -10.4610   20.1450 C   0  0  0  0  0  3  0  0  0  0  0  0
  -21.7920   -7.2050   21.4020 O   0  0  0  0  0  0  0  0  0  0  0  0
  -21.7120   -6.4900   22.5700 C   0  0  0  0  0  0  0  0  0  0  0  0
  -21.2770   -7.0800   23.7770 C   0  0  0  0  0  3  0  0  0  0  0  0
  -21.1450   -6.2930   24.9380 C   0  0  0  0  0  3  0  0  0  0  0  0
  -21.4370   -4.9170   24.8950 C   0  0  0  0  0  0  0  0  0  0  0  0
  -21.8670   -4.3260   23.6930 C   0  0  0  0  0  3  0  0  0  0  0  0
  -22.0000   -5.1110   22.5330 C   0  0  0  0  0  0  0  0  0  0  0  0
  -22.3930   -4.5320   21.3730 F   0  0  0  0  0  0  0  0  0  0  0  0
  -21.3040   -4.1600   26.0080 F   0  0  0  0  0  0  0  0  0  0  0  0
  -22.9800  -13.8220   21.0220 C   0  0  0  0  0  0  0  0  0  0  0  0
  -22.2570  -13.1480   21.9110 N   0  0  0  0  0  0  0  0  0  0  0  0
  -22.5490  -14.8470   20.4960 O   0  0  0  0  0  0  0  0  0  0  0  0
  -22.6200  -12.3210   22.3590 H   0  0  0  0  0  0  0  0  0  0  0  0
  -21.3270  -13.4670   22.1450 H   0  0  0  0  0  0  0  0  0  0  0  0
  -25.6190  -15.4450   20.1620 N   0  0  0  0  0  0  0  0  0  0  0  0
  -24.8640  -16.1130   20.2860 H   0  0  0  0  0  0  0  0  0  0  0  0
  -26.4730  -15.8720   19.8270 H   0  0  0  0  0  0  0  0  0  0  0  0
  -29.0020  -23.4340   20.5820 C   0  0  0  0  0  3  0  0  0  0  0  0
  -28.0770  -24.7030   19.9800 C   0  0  0  0  0  3  0  0  0  0  0  0
  -28.2630  -26.2220   20.2660 O   0  0  0  0  0  0  0  0  0  0  0  0
  -24.6300  -31.8960   23.2100 C   0  0  0  0  0  0  0  0  0  0  0  0
  -27.1980  -27.1900   20.1740 C   0  0  0  0  0  0  0  0  0  0  0  0
  -23.4190  -30.4930   21.5830 C   0  0  0  0  0  3  0  0  0  0  0  0
  -24.8610  -28.9210   20.1480 C   0  0  0  0  0  0  0  0  0  0  0  0
  -25.9700  -30.7680   21.3960 C   0  0  0  0  0  2  0  0  0  0  0  0
  -26.0410  -29.3750   20.7500 C   0  0  0  0  0  0  0  0  0  0  0  0
  -27.2080  -28.5250   20.7480 C   0  0  0  0  0  3  0  0  0  0  0  0
  -25.9940  -26.8420   19.5210 C   0  0  0  0  0  3  0  0  0  0  0  0
  -24.8490  -27.6680   19.5190 C   0  0  0  0  0  3  0  0  0  0  0  0
  -23.6310  -29.8120   20.2050 C   0  0  0  0  0  2  0  0  0  0  0  0
  -24.6940  -31.0750   22.1180 N   0  0  0  0  0  0  0  0  0  0  0  0
  -23.5480  -32.1800   23.7460 O   0  0  0  0  0  0  0  0  0  0  0  0
  -22.7520  -29.4880   22.5540 C   0  0  0  0  0  0  0  0  0  0  0  0
  -21.4270  -29.2950   22.4220 N   0  0  0  0  0  0  0  0  0  0  0  0
  -23.4270  -28.8830   23.3900 O   0  0  0  0  0  0  0  0  0  0  0  0
  -20.9370  -29.8350   21.7220 H   0  0  0  0  0  0  0  0  0  0  0  0
  -18.0700  -28.0150   22.8850 C   0  0  0  0  0  0  0  0  0  0  0  0
  -20.6140  -28.3580   23.2000 C   0  0  0  0  0  3  0  0  0  0  0  0
  -20.7680  -26.9130   22.6690 C   0  0  0  0  0  2  0  0  0  0  0  0
  -19.7000  -26.5330   21.6390 C   0  0  0  0  0  2  0  0  0  0  0  0
  -18.3000  -26.6550   22.2490 C   0  0  0  0  0  2  0  0  0  0  0  0
  -19.1580  -28.8210   23.3170 C   0  0  0  0  0  0  0  0  0  0  0  0
  -18.8890  -30.0910   23.8720 C   0  0  0  0  0  3  0  0  0  0  0  0
  -17.5670  -30.5570   23.9980 C   0  0  0  0  0  3  0  0  0  0  0  0
  -16.4950  -29.7510   23.5820 C   0  0  0  0  0  3  0  0  0  0  0  0
  -16.7470  -28.4820   23.0300 C   0  0  0  0  0  3  0  0  0  0  0  0
  -25.9120  -32.5380   23.8240 C   0  0  0  0  0  3  0  0  0  0  0  0
  -25.6000  -33.9370   24.1530 N   0  0  0  0  0  0  0  0  0  0  0  0
  -25.9360  -34.9930   23.3990 C   0  0  0  0  0  0  0  0  0  0  0  0
  -26.6090  -34.8910   22.3700 O   0  0  0  0  0  0  0  0  0  0  0  0
  -25.0030  -34.0910   24.9510 H   0  0  0  0  0  0  0  0  0  0  0  0
  -24.2150  -36.7950   23.0460 C   0  0  0  0  0  1  0  0  0  0  0  0
  -25.4510  -36.3820   23.8610 C   0  0  0  0  0  3  0  0  0  0  0  0
  -27.5840  -37.2600   24.7030 C   0  0  0  0  0  1  0  0  0  0  0  0
  -26.4860  -37.4330   23.7560 N   0  0  0  0  0  0  0  0  0  0  0  0
  -26.0820  -38.3540   23.9040 H   0  0  0  0  0  0  0  0  0  0  0  0
  -26.4320  -31.7750   25.1050 C   0  0  1  0  0  0  0  0  0  0  0  0
  -25.3440  -31.5480   26.1800 C   0  0  0  0  0  1  0  0  0  0  0  0
  -27.0130  -30.3930   24.7250 C   0  0  0  0  0  1  0  0  0  0  0  0
  -27.5850  -32.5740   25.7560 C   0  0  0  0  0  1  0  0  0  0  0  0
  1 45  1  0
  1  6  1  0
  2  4  2  0
  3  5  2  0
  5  4  1  0
  6  3  1  0
  6  2  1  0
  7  8  1  0
  7  3  1  0
  9  8  1  0
 10 15  1  0
 11 12  1  0
 11 10  1  0
 13 12  1  0
 13 20  1  0
 13 14  1  0
 15  9  1  0
 15 14  1  0
 16  9  2  0
 17 18  2  0
 18 37  1  0
 19 18  1  0
 19 22  1  0
 20 17  1  0
 20 21  1  0
 21 19  2  0
 22 23  1  0
 23 24  2  0
 25 28  1  0
 25 24  1  0
 26 25  2  0
 27 26  1  0
 27 22  2  0
 28 29  1  0
 29 30  1  0
 30 31  2  0
 32 31  1  0
 32 36  1  0
 33 32  2  0
 34 29  2  0
 34 33  1  0
 35 34  1  0
 37 38  1  0
 38 41  1  0
 38 40  1  0
 39 37  2  0
 42 43  1  0
 42 17  1  0
 44 42  1  0
 46 47  1  0
 46 45  2  0
 48 59  2  0
 49 47  1  0
 49 54  1  0
 50 58  1  0
 50 60  1  0
 51 57  1  0
 51 53  1  0
 52 58  1  0
 53 52  1  0
 54 53  2  0
 55 49  2  0
 56 55  1  0
 56 51  2  0
 57 50  1  0
 58 48  1  0
 60 62  2  0
 61 60  1  0
 63 61  1  0
 64 73  2  0
 64 69  1  0
 65 61  1  0
 65 69  1  0
 66 65  1  0
 67 68  1  0
 67 66  1  0
 68 64  1  0
 69 70  2  0
 70 71  1  0
 72 71  2  0
 73 72  1  0
 74 48  1  0
 74 75  1  0
 74 84  1  0
 75 78  1  0
 76 80  1  0
 76 75  1  0
 77 76  2  0
 80 79  1  0
 82 80  1  0
 82 83  1  0
 82 81  1  0
 84 87  1  1
 84 85  1  0
 86 84  1  0
M  ISO  4   8 100   9 100  46 101  47 101
M  END
>  <TORSDO>  (45) 
F 21

>  <SCORE>  (45) 
-14.943

>  <name>  (45) 
45

>  <ligand_id>  (45) 
45

>  <original_smiles>  (45) 
[H]c1c([H])c([H])c2c(c1[H])C([H])([H])C([H])([H])C([H])([H])C2([H])N([H])C(=O)C1([H])N(C(=O)C([H])(N([H])C(=O)C([H])(N([H])C([H])([H])[H])C([H])([H])[H])C(C([H])([H])[H])(C([H])([H])[H])C([H])([H])[H])C([H])([H])c2c([H])c(OC([H])([H])C([H])([H])C([H])([H])n3c([H])nnc3C([H])([H])C([H])([H])C(=O)N3C([H])([H])C([H])([H])C([H])([H])C([H])(n4nc(-c5c([H])c([H])c(Oc6c([H])c([H])c(F)c([H])c6F)c([H])c5[H])c(C(=O)N([H])[H])c4N([H])[H])C3([H])[H])c([H])c([H])c2C1([H])[H]

>  <smiles>  (45) 
[H]c1c([H])c([H])c2c(c1[H])C([H])([H])C([H])([H])C([H])([H])C2([H])N([H])C(=O)C1([H])N(C(=O)C([H])(N([H])C(=O)C([H])(N([H])C([H])([H])[H])C([H])([H])[H])C(C([H])([H])[H])(C([H])([H])[H])C([H])([H])[H])C([H])([H])c2c([H])c(OC([H])([H])C([H])([H])C([H])([H])n3c([H])nnc3C([H])([H])C([H])([H])C(=O)N3C([H])([H])C([H])([H])C([H])([H])C([H])(n4nc(-c5c([H])c([H])c(Oc6c([H])c([H])c(F)c([H])c6F)c([H])c5[H])c(C(=O)N([H])[H])c4N([H])[H])C3([H])[H])c([H])c([H])c2C1([H])[H]

$$$$
46:0:0
     RDKit          3D

 93101  0  0  1  0  0  0  0  0999 V2000
  -27.5400  -20.8170   18.9040 C   0  0  0  0  0  1  0  0  0  0  0  0
  -29.3230  -22.4700   18.3760 C   0  0  0  0  0  1  0  0  0  0  0  0
  -28.6100  -21.7400   19.5340 C   0  0  1  0  0  0  0  0  0  0  0  0
  -27.8150  -22.8100   20.3780 C   0  0  0  0  0  2  0  0  0  0  0  0
  -28.4400  -24.1900   20.7920 C   0  0  0  0  0  2  0  0  0  0  0  0
  -28.5300  -25.3050   19.7000 C   0  0  0  0  0  2  0  0  0  0  0  0
  -28.4410  -26.6670   20.1930 O   0  0  0  0  0  0  0  0  0  0  0  0
  -24.6010  -31.8470   23.2660 C   0  0  0  0  0  0  0  0  0  0  0  0
  -27.2470  -27.3810   20.1710 C   0  0  0  0  0  0  0  0  0  0  0  0
  -23.3970  -30.4460   21.6240 C   0  0  0  0  0  3  0  0  0  0  0  0
  -24.8480  -28.9150   20.1900 C   0  0  0  0  0  0  0  0  0  0  0  0
  -25.9240  -30.8050   21.4200 C   0  0  0  0  0  2  0  0  0  0  0  0
  -26.0100  -29.4320   20.7750 C   0  0  0  0  0  0  0  0  0  0  0  0
  -27.2080  -28.6740   20.7560 C   0  0  0  0  0  3  0  0  0  0  0  0
  -26.0570  -26.8870   19.5870 C   0  0  0  0  0  3  0  0  0  0  0  0
  -24.8700  -27.6450   19.5910 C   0  0  0  0  0  3  0  0  0  0  0  0
  -23.6060  -29.7750   20.2410 C   0  0  0  0  0  2  0  0  0  0  0  0
  -24.6600  -31.0480   22.1620 N   0  0  0  0  0  0  0  0  0  0  0  0
  -23.5190  -32.1130   23.8090 O   0  0  0  0  0  0  0  0  0  0  0  0
  -22.7480  -29.4200   22.5830 C   0  0  0  0  0  0  0  0  0  0  0  0
  -21.4230  -29.2370   22.4620 N   0  0  0  0  0  0  0  0  0  0  0  0
  -23.4360  -28.7910   23.3920 O   0  0  0  0  0  0  0  0  0  0  0  0
  -20.9300  -29.7970   21.7810 H   0  0  0  0  0  0  0  0  0  0  0  0
  -18.0520  -28.0300   22.9650 C   0  0  0  0  0  0  0  0  0  0  0  0
  -20.6110  -28.2950   23.2310 C   0  0  0  0  0  3  0  0  0  0  0  0
  -20.7150  -26.8650   22.6490 C   0  0  0  0  0  2  0  0  0  0  0  0
  -19.6110  -26.5440   21.6370 C   0  0  0  0  0  2  0  0  0  0  0  0
  -18.2300  -26.6830   22.2860 C   0  0  0  0  0  2  0  0  0  0  0  0
  -19.1700  -28.7930   23.3960 C   0  0  0  0  0  0  0  0  0  0  0  0
  -18.9500  -30.0550   23.9900 C   0  0  0  0  0  3  0  0  0  0  0  0
  -17.6440  -30.5530   24.1600 C   0  0  0  0  0  3  0  0  0  0  0  0
  -16.5410  -29.7860   23.7480 C   0  0  0  0  0  3  0  0  0  0  0  0
  -16.7460  -28.5270   23.1560 C   0  0  0  0  0  3  0  0  0  0  0  0
  -25.8850  -32.4820   23.8850 C   0  0  0  0  0  3  0  0  0  0  0  0
  -25.5720  -33.8780   24.2220 N   0  0  0  0  0  0  0  0  0  0  0  0
  -25.8920  -34.9340   23.4630 C   0  0  0  0  0  0  0  0  0  0  0  0
  -26.5550  -34.8360   22.4260 O   0  0  0  0  0  0  0  0  0  0  0  0
  -24.9830  -34.0270   25.0280 H   0  0  0  0  0  0  0  0  0  0  0  0
  -24.1530  -36.7180   23.1240 C   0  0  0  0  0  1  0  0  0  0  0  0
  -25.4010  -36.3190   23.9270 C   0  0  0  0  0  3  0  0  0  0  0  0
  -27.5380  -37.2100   24.7440 C   0  0  0  0  0  1  0  0  0  0  0  0
  -26.4290  -37.3770   23.8090 N   0  0  0  0  0  0  0  0  0  0  0  0
  -26.0210  -38.2950   23.9620 H   0  0  0  0  0  0  0  0  0  0  0  0
  -26.4110  -31.7070   25.1540 C   0  0  1  0  0  0  0  0  0  0  0  0
  -25.3250  -31.4580   26.2280 C   0  0  0  0  0  1  0  0  0  0  0  0
  -26.9970  -30.3350   24.7500 C   0  0  0  0  0  1  0  0  0  0  0  0
  -27.5630  -32.5030   25.8130 C   0  0  0  0  0  1  0  0  0  0  0  0
  -29.6620  -20.9050   20.3810 C   0  0  0  0  0  2  0  0  0  0  0  0
  -29.5550  -19.3330   20.5680 C   0  0  0  0  0  2  0  0  0  0  0  0
  -30.9020  -16.8150   18.2240 C   0  0  0  0  0  3  0  0  0  0  0  0
  -30.5750  -18.9040   18.3370 C   0  0  0  0  0  3  0  0  0  0  0  0
  -30.4340  -17.0550   19.5080 C   0  0  0  0  0  0  0  0  0  0  0  0
  -31.0110  -17.9860   17.4940 N   0  0  0  0  0  0  0  0  0  0  0  0
  -30.1640  -18.4600   19.5350 N   0  0  0  0  0  0  0  0  0  0  0  0
  -31.2940  -16.3500   21.7850 C   0  0  0  0  0  1  0  0  0  0  0  0
  -28.9040  -16.0700   21.2850 C   0  0  0  0  0  1  0  0  0  0  0  0
  -30.3040  -16.0000   20.6430 C   0  0  1  0  0  0  0  0  0  0  0  0
  -30.7830  -14.5670   20.1040 C   0  0  0  0  0  0  0  0  0  0  0  0
  -30.3820  -12.4160   18.9300 C   0  0  0  0  0  2  0  0  0  0  0  0
  -29.4000  -12.6120   17.7560 C   0  0  0  0  0  2  0  0  0  0  0  0
  -27.9420  -12.4680   18.2380 C   0  0  0  0  0  2  0  0  0  0  0  0
  -27.6550  -13.2920   19.5170 C   0  0  0  0  0  3  0  0  0  0  0  0
  -28.7540  -13.0530   20.5750 C   0  0  0  0  0  2  0  0  0  0  0  0
  -30.0460  -13.4130   19.9750 N   0  0  0  0  0  0  0  0  0  0  0  0
  -31.9250  -14.5750   19.6300 O   0  0  0  0  0  0  0  0  0  0  0  0
  -25.2960  -13.9030   20.3440 C   0  0  0  0  0  0  0  0  0  0  0  0
  -24.2450  -13.1320   20.7600 C   0  0  0  0  0  0  0  0  0  0  0  0
  -24.7000  -11.7800   20.7020 C   0  0  0  0  0  0  0  0  0  0  0  0
  -26.3270  -13.0200   20.0580 N   0  0  0  0  0  0  0  0  0  0  0  0
  -25.9750  -11.7380   20.3360 N   0  0  0  0  0  0  0  0  0  0  0  0
  -23.9810  -10.5190   20.9150 C   0  0  0  0  0  0  0  0  0  0  0  0
  -24.4400   -9.5540   21.8380 C   0  0  0  0  0  3  0  0  0  0  0  0
  -23.7210   -8.3540   22.0380 C   0  0  0  0  0  3  0  0  0  0  0  0
  -22.5270   -8.1160   21.3160 C   0  0  0  0  0  0  0  0  0  0  0  0
  -22.0870   -9.0710   20.3820 C   0  0  0  0  0  3  0  0  0  0  0  0
  -22.8070  -10.2600   20.1810 C   0  0  0  0  0  3  0  0  0  0  0  0
  -21.7710   -6.9720   21.4270 O   0  0  0  0  0  0  0  0  0  0  0  0
  -21.7370   -6.2430   22.5880 C   0  0  0  0  0  0  0  0  0  0  0  0
  -21.3310   -6.8130   23.8150 C   0  0  0  0  0  3  0  0  0  0  0  0
  -21.2470   -6.0090   24.9690 C   0  0  0  0  0  3  0  0  0  0  0  0
  -21.5530   -4.6370   24.8970 C   0  0  0  0  0  0  0  0  0  0  0  0
  -21.9490   -4.0670   23.6750 C   0  0  0  0  0  3  0  0  0  0  0  0
  -22.0390   -4.8670   22.5220 C   0  0  0  0  0  0  0  0  0  0  0  0
  -22.4000   -4.3110   21.3420 F   0  0  0  0  0  0  0  0  0  0  0  0
  -21.4630   -3.8610   26.0030 F   0  0  0  0  0  0  0  0  0  0  0  0
  -22.8610  -13.6120   21.0950 C   0  0  0  0  0  0  0  0  0  0  0  0
  -22.1690  -12.9140   21.9860 N   0  0  0  0  0  0  0  0  0  0  0  0
  -22.4030  -14.6410   20.5980 O   0  0  0  0  0  0  0  0  0  0  0  0
  -22.5510  -12.0830   22.4150 H   0  0  0  0  0  0  0  0  0  0  0  0
  -21.2430  -13.2180   22.2490 H   0  0  0  0  0  0  0  0  0  0  0  0
  -25.4500  -15.2740   20.1590 N   0  0  0  0  0  0  0  0  0  0  0  0
  -24.6930  -15.9310   20.3110 H   0  0  0  0  0  0  0  0  0  0  0  0
  -26.2780  -15.7100   19.7740 H   0  0  0  0  0  0  0  0  0  0  0  0
  3  1  1  6
  2  3  1  0
  3  4  1  0
  3 48  1  0
  4  5  1  0
  6  7  1  0
  6  5  1  0
  8 19  2  0
  9  7  1  0
  9 14  1  0
 10 18  1  0
 10 20  1  0
 11 17  1  0
 11 13  1  0
 12 18  1  0
 13 12  1  0
 14 13  2  0
 15 16  1  0
 15  9  2  0
 16 11  2  0
 17 10  1  0
 18  8  1  0
 20 22  2  0
 21 20  1  0
 23 21  1  0
 24 33  2  0
 24 29  1  0
 25 21  1  0
 25 29  1  0
 26 25  1  0
 27 28  1  0
 27 26  1  0
 28 24  1  0
 29 30  2  0
 30 31  1  0
 32 31  2  0
 33 32  1  0
 34  8  1  0
 34 35  1  0
 34 44  1  0
 35 38  1  0
 36 40  1  0
 36 35  1  0
 37 36  2  0
 40 39  1  0
 42 40  1  0
 42 43  1  0
 42 41  1  0
 44 47  1  1
 44 45  1  0
 46 44  1  0
 48 49  1  0
 50 52  2  0
 51 54  1  0
 52 54  1  0
 52 57  1  0
 53 50  1  0
 53 51  2  0
 54 49  1  0
 57 56  1  1
 57 55  1  0
 58 57  1  0
 59 64  1  0
 60 61  1  0
 60 59  1  0
 62 61  1  0
 62 69  1  0
 62 63  1  0
 64 58  1  0
 64 63  1  0
 65 58  2  0
 66 67  2  0
 67 86  1  0
 68 67  1  0
 68 71  1  0
 69 70  1  0
 69 66  1  0
 70 68  2  0
 71 72  1  0
 72 73  2  0
 74 77  1  0
 74 73  1  0
 75 74  2  0
 76 75  1  0
 76 71  2  0
 77 78  1  0
 78 79  1  0
 79 80  2  0
 81 80  1  0
 81 85  1  0
 82 81  2  0
 83 78  2  0
 83 82  1  0
 84 83  1  0
 86 87  1  0
 87 90  1  0
 87 89  1  0
 88 86  2  0
 91 92  1  0
 91 66  1  0
 93 91  1  0
M  ISO  4   6 101   7 101  57 100  58 100
M  END
>  <TORSDO>  (46) 
F 23

>  <SCORE>  (46) 
-12.478

>  <name>  (46) 
46

>  <ligand_id>  (46) 
46

>  <original_smiles>  (46) 
[H]c1nc([H])n(C([H])([H])C([H])([H])C(C([H])([H])[H])(C([H])([H])[H])C([H])([H])C([H])([H])C([H])([H])Oc2c([H])c([H])c3c(c2[H])C([H])([H])N(C(=O)C([H])(N([H])C(=O)C([H])(N([H])C([H])([H])[H])C([H])([H])[H])C(C([H])([H])[H])(C([H])([H])[H])C([H])([H])[H])C([H])(C(=O)N([H])C2([H])c4c([H])c([H])c([H])c([H])c4C([H])([H])C([H])([H])C2([H])[H])C3([H])[H])c1C(C(=O)N1C([H])([H])C([H])([H])C([H])([H])C([H])(n2nc(-c3c([H])c([H])c(Oc4c([H])c([H])c(F)c([H])c4F)c([H])c3[H])c(C(=O)N([H])[H])c2N([H])[H])C1([H])[H])(C([H])([H])[H])C([H])([H])[H]

>  <smiles>  (46) 
[H]c1nc([H])n(C([H])([H])C([H])([H])C(C([H])([H])[H])(C([H])([H])[H])C([H])([H])C([H])([H])C([H])([H])Oc2c([H])c([H])c3c(c2[H])C([H])([H])N(C(=O)C([H])(N([H])C(=O)C([H])(N([H])C([H])([H])[H])C([H])([H])[H])C(C([H])([H])[H])(C([H])([H])[H])C([H])([H])[H])C([H])(C(=O)N([H])C2([H])c4c([H])c([H])c([H])c([H])c4C([H])([H])C([H])([H])C2([H])[H])C3([H])[H])c1C(C(=O)N1C([H])([H])C([H])([H])C([H])([H])C([H])(n2nc(-c3c([H])c([H])c(Oc4c([H])c([H])c(F)c([H])c4F)c([H])c3[H])c(C(=O)N([H])[H])c2N([H])[H])C1([H])[H])(C([H])([H])[H])C([H])([H])[H]

$$$$
47:0:0
     RDKit          3D

 96104  0  0  1  0  0  0  0  0999 V2000
  -29.2230  -20.2870   20.4400 C   0  0  0  0  0  0  0  0  0  0  0  0
  -29.9150  -18.3240   20.0900 C   0  0  0  0  0  3  0  0  0  0  0  0
  -30.1380  -19.3720   20.8970 N   0  0  0  0  0  0  0  0  0  0  0  0
  -28.4120  -19.8260   19.4940 N   0  0  0  0  0  2  0  0  0  0  0  0
  -28.9190  -18.5850   19.2160 N   0  0  0  0  0  0  0  0  0  0  0  0
  -27.5700  -18.6450   17.0760 C   0  0  0  0  0  1  0  0  0  0  0  0
  -28.3810  -17.8110   18.0900 C   0  0  0  0  0  2  0  0  0  0  0  0
  -29.1120  -21.7010   20.9920 C   0  0  0  0  0  3  0  0  0  0  0  0
  -28.6410  -22.8090   19.9860 C   0  0  0  0  0  3  0  0  0  0  0  0
  -28.4270  -24.5920   21.8160 C   0  0  0  0  0  1  0  0  0  0  0  0
  -28.8360  -24.3410   20.3510 C   0  0  1  0  0  0  0  0  0  0  0  0
  -31.2370  -24.9050   21.3160 C   0  0  0  0  0  1  0  0  0  0  0  0
  -30.3030  -24.8050   20.0890 C   0  0  0  0  0  2  0  0  0  0  0  0
  -27.8590  -25.2030   19.4700 C   0  0  0  0  0  2  0  0  0  0  0  0
  -28.0000  -26.6560   19.5660 O   0  0  0  0  0  0  0  0  0  0  0  0
  -24.4490  -31.8520   22.9910 C   0  0  0  0  0  0  0  0  0  0  0  0
  -26.8660  -27.4580   19.5920 C   0  0  0  0  0  0  0  0  0  0  0  0
  -23.1530  -30.5230   21.3630 C   0  0  0  0  0  3  0  0  0  0  0  0
  -24.5120  -29.0370   19.8010 C   0  0  0  0  0  0  0  0  0  0  0  0
  -25.6790  -30.8540   21.0560 C   0  0  0  0  0  2  0  0  0  0  0  0
  -25.7090  -29.5070   20.3520 C   0  0  0  0  0  0  0  0  0  0  0  0
  -26.8880  -28.7210   20.2470 C   0  0  0  0  0  3  0  0  0  0  0  0
  -25.6480  -27.0520   18.9870 C   0  0  0  0  0  3  0  0  0  0  0  0
  -24.4760  -27.8180   19.1150 C   0  0  0  0  0  3  0  0  0  0  0  0
  -23.2870  -29.9100   19.9470 C   0  0  0  0  0  2  0  0  0  0  0  0
  -24.4500  -31.0910   21.8600 N   0  0  0  0  0  0  0  0  0  0  0  0
  -23.3970  -32.1080   23.5910 O   0  0  0  0  0  0  0  0  0  0  0  0
  -22.5260  -29.4770   22.3150 C   0  0  0  0  0  0  0  0  0  0  0  0
  -21.1950  -29.2950   22.2370 N   0  0  0  0  0  0  0  0  0  0  0  0
  -23.2390  -28.8240   23.0860 O   0  0  0  0  0  0  0  0  0  0  0  0
  -20.6800  -29.8260   21.5470 H   0  0  0  0  0  0  0  0  0  0  0  0
  -17.8520  -28.0990   22.8710 C   0  0  0  0  0  0  0  0  0  0  0  0
  -20.4200  -28.3520   23.0390 C   0  0  0  0  0  3  0  0  0  0  0  0
  -20.4810  -26.9270   22.4530 C   0  0  0  0  0  2  0  0  0  0  0  0
  -19.3610  -26.6630   21.4380 C   0  0  0  0  0  2  0  0  0  0  0  0
  -18.0060  -26.7680   22.1450 C   0  0  0  0  0  2  0  0  0  0  0  0
  -18.9900  -28.8500   23.2790 C   0  0  0  0  0  0  0  0  0  0  0  0
  -18.7970  -30.0930   23.9190 C   0  0  0  0  0  3  0  0  0  0  0  0
  -17.5030  -30.5910   24.1530 C   0  0  0  0  0  3  0  0  0  0  0  0
  -16.3810  -29.8390   23.7640 C   0  0  0  0  0  3  0  0  0  0  0  0
  -16.5560  -28.5950   23.1290 C   0  0  0  0  0  3  0  0  0  0  0  0
  -25.7680  -32.4540   23.5690 C   0  0  0  0  0  3  0  0  0  0  0  0
  -25.4790  -33.8330   23.9880 N   0  0  0  0  0  0  0  0  0  0  0  0
  -25.8390  -34.9280   23.3060 C   0  0  0  0  0  0  0  0  0  0  0  0
  -26.5190  -34.8790   22.2760 O   0  0  0  0  0  0  0  0  0  0  0  0
  -24.8770  -33.9460   24.7900 H   0  0  0  0  0  0  0  0  0  0  0  0
  -24.1910  -36.8030   23.0150 C   0  0  0  0  0  1  0  0  0  0  0  0
  -25.3770  -36.2950   23.8510 C   0  0  0  0  0  3  0  0  0  0  0  0
  -27.4920  -37.0360   24.8490 C   0  0  0  0  0  1  0  0  0  0  0  0
  -26.4460  -37.3140   23.8660 N   0  0  0  0  0  0  0  0  0  0  0  0
  -26.0690  -38.2370   24.0580 H   0  0  0  0  0  0  0  0  0  0  0  0
  -26.3550  -31.6170   24.7700 C   0  0  1  0  0  0  0  0  0  0  0  0
  -25.3300  -31.3180   25.8900 C   0  0  0  0  0  1  0  0  0  0  0  0
  -26.9090  -30.2630   24.2750 C   0  0  0  0  0  1  0  0  0  0  0  0
  -27.5520  -32.3710   25.3960 C   0  0  0  0  0  1  0  0  0  0  0  0
  -30.8460  -17.1040   20.0640 C   0  0  0  0  0  3  0  0  0  0  0  0
  -30.9780  -14.7130   20.7540 C   0  0  0  0  0  0  0  0  0  0  0  0
  -30.7150  -12.5280   19.7130 C   0  0  0  0  0  2  0  0  0  0  0  0
  -29.8400  -12.7280   18.4650 C   0  0  0  0  0  2  0  0  0  0  0  0
  -28.3490  -12.6100   18.8360 C   0  0  0  0  0  2  0  0  0  0  0  0
  -27.9450  -13.4610   20.0700 C   0  0  0  0  0  3  0  0  0  0  0  0
  -28.9510  -13.2950   21.2310 C   0  0  0  0  0  2  0  0  0  0  0  0
  -30.2930  -13.5430   20.6900 N   0  0  0  0  0  0  0  0  0  0  0  0
  -32.1970  -14.7670   20.6490 O   0  0  0  0  0  0  0  0  0  0  0  0
  -30.2430  -15.8280   20.5330 N   0  0  0  0  0  0  0  0  0  0  0  0
  -29.2420  -15.7440   20.5480 H   0  0  0  0  0  0  0  0  0  0  0  0
  -25.5160  -14.0500   20.6630 C   0  0  0  0  0  0  0  0  0  0  0  0
  -24.4340  -13.2700   20.9730 C   0  0  0  0  0  0  0  0  0  0  0  0
  -24.9040  -11.9240   20.9600 C   0  0  0  0  0  0  0  0  0  0  0  0
  -26.5750  -13.1750   20.4840 N   0  0  0  0  0  0  0  0  0  0  0  0
  -26.2110  -11.8920   20.7290 N   0  0  0  0  0  0  0  0  0  0  0  0
  -24.1740  -10.6570   21.1060 C   0  0  0  0  0  0  0  0  0  0  0  0
  -24.5390   -9.6990   22.0760 C   0  0  0  0  0  3  0  0  0  0  0  0
  -23.8090   -8.4970   22.2090 C   0  0  0  0  0  3  0  0  0  0  0  0
  -22.6990   -8.2440   21.3680 C   0  0  0  0  0  0  0  0  0  0  0  0
  -22.3530   -9.1940   20.3900 C   0  0  0  0  0  3  0  0  0  0  0  0
  -23.0850  -10.3850   20.2570 C   0  0  0  0  0  3  0  0  0  0  0  0
  -21.9440   -7.0960   21.4080 O   0  0  0  0  0  0  0  0  0  0  0  0
  -21.7910   -6.3780   22.5700 C   0  0  0  0  0  0  0  0  0  0  0  0
  -21.2010   -6.9400   23.7240 C   0  0  0  0  0  3  0  0  0  0  0  0
  -21.0010   -6.1450   24.8700 C   0  0  0  0  0  3  0  0  0  0  0  0
  -21.3780   -4.7890   24.8620 C   0  0  0  0  0  0  0  0  0  0  0  0
  -21.9590   -4.2270   23.7130 C   0  0  0  0  0  3  0  0  0  0  0  0
  -22.1650   -5.0190   22.5700 C   0  0  0  0  0  0  0  0  0  0  0  0
  -22.7050   -4.4650   21.4580 F   0  0  0  0  0  0  0  0  0  0  0  0
  -21.1820   -4.0250   25.9630 F   0  0  0  0  0  0  0  0  0  0  0  0
  -23.0200  -13.7390   21.1640 C   0  0  0  0  0  0  0  0  0  0  0  0
  -22.2490  -13.0370   21.9880 N   0  0  0  0  0  0  0  0  0  0  0  0
  -22.6050  -14.7580   20.6170 O   0  0  0  0  0  0  0  0  0  0  0  0
  -22.5940  -12.2060   22.4450 H   0  0  0  0  0  0  0  0  0  0  0  0
  -21.2970  -13.3330   22.1560 H   0  0  0  0  0  0  0  0  0  0  0  0
  -25.6840  -15.4210   20.5000 N   0  0  0  0  0  0  0  0  0  0  0  0
  -24.9160  -16.0730   20.6080 H   0  0  0  0  0  0  0  0  0  0  0  0
  -26.5460  -15.8690   20.2170 H   0  0  0  0  0  0  0  0  0  0  0  0
  -32.2900  -18.2840   18.2620 C   0  0  0  0  0  1  0  0  0  0  0  0
  -31.6820  -16.9610   18.7570 C   0  0  0  0  0  2  0  0  0  0  0  0
  1  3  2  0
  1  8  1  0
  2 56  1  0
  2  3  1  0
  4  1  1  0
  5  4  1  0
  5  2  1  0
  6  7  1  0
  7  5  1  0
  9 11  1  0
  9  8  2  0
 11 10  1  1
 13 11  1  0
 13 12  1  0
 14 15  1  0
 14 11  1  0
 15 17  1  0
 16 27  2  0
 17 22  1  0
 18 26  1  0
 18 28  1  0
 19 25  1  0
 19 21  1  0
 20 26  1  0
 21 20  1  0
 22 21  2  0
 23 24  1  0
 23 17  2  0
 24 19  2  0
 25 18  1  0
 26 16  1  0
 28 30  2  0
 29 28  1  0
 31 29  1  0
 32 41  2  0
 32 37  1  0
 33 29  1  0
 33 37  1  0
 34 33  1  0
 35 36  1  0
 35 34  1  0
 36 32  1  0
 37 38  2  0
 38 39  1  0
 40 39  2  0
 41 40  1  0
 42 16  1  0
 42 43  1  0
 42 52  1  0
 43 46  1  0
 44 48  1  0
 44 43  1  0
 45 44  2  0
 48 47  1  0
 48 50  1  0
 50 51  1  0
 50 49  1  0
 52 55  1  1
 52 53  1  0
 54 52  1  0
 56 96  1  0
 56 65  1  0
 58 63  1  0
 59 60  1  0
 59 58  1  0
 61 60  1  0
 61 70  1  0
 61 62  1  0
 63 57  1  0
 63 62  1  0
 64 57  2  0
 65 66  1  0
 65 57  1  0
 67 68  2  0
 68 87  1  0
 69 68  1  0
 69 72  1  0
 70 67  1  0
 70 71  1  0
 71 69  2  0
 72 73  1  0
 73 74  2  0
 75 78  1  0
 75 74  1  0
 76 75  2  0
 77 76  1  0
 77 72  2  0
 78 79  1  0
 79 80  1  0
 80 81  2  0
 82 81  1  0
 82 86  1  0
 83 82  2  0
 84 79  2  0
 84 83  1  0
 85 84  1  0
 87 88  1  0
 88 91  1  0
 88 90  1  0
 89 87  2  0
 92 93  1  0
 92 67  1  0
 94 92  1  0
 95 96  1  0
M  ISO  4  14 101  15 101  57 100  65 100
M  END
>  <TORSDO>  (47) 
F 24

>  <SCORE>  (47) 
-12.111

>  <name>  (47) 
47

>  <ligand_id>  (47) 
47

>  <original_smiles>  (47) 
[H]c1c([H])c([H])c2c(c1[H])C([H])([H])C([H])([H])C([H])([H])C2([H])N([H])C(=O)C1([H])N(C(=O)C([H])(N([H])C(=O)C([H])(N([H])C([H])([H])[H])C([H])([H])[H])C(C([H])([H])[H])(C([H])([H])[H])C([H])([H])[H])C([H])([H])c2c([H])c(OC([H])([H])C(C([H])([H])[H])(C([H])([H])C([H])([H])[H])C([H])([H])C([H])([H])c3nc(C([H])(N([H])C(=O)N4C([H])([H])C([H])([H])C([H])([H])C([H])(n5nc(-c6c([H])c([H])c(Oc7c([H])c([H])c(F)c([H])c7F)c([H])c6[H])c(C(=O)N([H])[H])c5N([H])[H])C4([H])[H])C([H])([H])C([H])([H])[H])n(C([H])([H])C([H])([H])[H])n3)c([H])c([H])c2C1([H])[H]

>  <smiles>  (47) 
[H]c1c([H])c([H])c2c(c1[H])C([H])([H])C([H])([H])C([H])([H])C2([H])N([H])C(=O)C1([H])N(C(=O)C([H])(N([H])C(=O)C([H])(N([H])C([H])([H])[H])C([H])([H])[H])C(C([H])([H])[H])(C([H])([H])[H])C([H])([H])[H])C([H])([H])c2c([H])c(OC([H])([H])C(C([H])([H])[H])(C([H])([H])C([H])([H])[H])C([H])([H])C([H])([H])c3nc(C([H])(N([H])C(=O)N4C([H])([H])C([H])([H])C([H])([H])C([H])(n5nc(-c6c([H])c([H])c(Oc7c([H])c([H])c(F)c([H])c7F)c([H])c6[H])c(C(=O)N([H])[H])c5N([H])[H])C4([H])[H])C([H])([H])C([H])([H])[H])n(C([H])([H])C([H])([H])[H])n3)c([H])c([H])c2C1([H])[H]

$$$$
48:0:0
     RDKit          3D

 95103  0  0  1  0  0  0  0  0999 V2000
  -30.0490  -18.1810   21.1960 C   0  0  0  0  0  3  0  0  0  0  0  0
  -29.7810  -17.3100   20.0950 C   0  0  0  0  0  0  0  0  0  0  0  0
  -28.3810  -19.0160   19.2450 C   0  0  0  0  0  0  0  0  0  0  0  0
  -28.7260  -19.9180   20.2940 C   0  0  0  0  0  0  0  0  0  0  0  0
  -27.4050  -19.3750   18.1410 C   0  0  0  0  0  1  0  0  0  0  0  0
  -29.5400  -19.4570   21.2900 N   0  0  0  0  0  0  0  0  0  0  0  0
  -28.9070  -17.7630   19.1510 N   0  0  0  0  0  0  0  0  0  0  0  0
  -30.4080  -15.6800   18.1800 C   0  0  0  0  0  1  0  0  0  0  0  0
  -30.7750  -16.1700   19.6130 C   0  0  2  0  0  0  0  0  0  0  0  0
  -31.0810  -14.8600   20.5320 C   0  0  0  0  0  0  0  0  0  0  0  0
  -30.8140  -12.5240   19.7840 C   0  0  0  0  0  2  0  0  0  0  0  0
  -29.9450  -12.3840   18.5170 C   0  0  0  0  0  2  0  0  0  0  0  0
  -28.4420  -12.3770   18.8540 C   0  0  0  0  0  2  0  0  0  0  0  0
  -28.0090  -13.3810   19.9610 C   0  0  0  0  0  3  0  0  0  0  0  0
  -29.0200  -13.4570   21.1210 C   0  0  0  0  0  2  0  0  0  0  0  0
  -30.3420  -13.7020   20.5310 N   0  0  0  0  0  0  0  0  0  0  0  0
  -32.2660  -14.7510   20.8330 O   0  0  0  0  0  0  0  0  0  0  0  0
  -25.6010  -14.0240   20.5490 C   0  0  0  0  0  0  0  0  0  0  0  0
  -24.5020  -13.2720   20.8650 C   0  0  0  0  0  0  0  0  0  0  0  0
  -24.9480  -11.9150   20.9020 C   0  0  0  0  0  0  0  0  0  0  0  0
  -26.6450  -13.1250   20.4080 N   0  0  0  0  0  0  0  0  0  0  0  0
  -26.2570  -11.8550   20.6920 N   0  0  0  0  0  0  0  0  0  0  0  0
  -24.1960  -10.6650   21.0680 C   0  0  0  0  0  0  0  0  0  0  0  0
  -24.5520   -9.7160   22.0510 C   0  0  0  0  0  3  0  0  0  0  0  0
  -23.8010   -8.5310   22.2080 C   0  0  0  0  0  3  0  0  0  0  0  0
  -22.6780   -8.2870   21.3800 C   0  0  0  0  0  0  0  0  0  0  0  0
  -22.3430   -9.2240   20.3860 C   0  0  0  0  0  3  0  0  0  0  0  0
  -23.0950  -10.4010   20.2290 C   0  0  0  0  0  3  0  0  0  0  0  0
  -21.9040   -7.1540   21.4470 O   0  0  0  0  0  0  0  0  0  0  0  0
  -21.7640   -6.4450   22.6120 C   0  0  0  0  0  0  0  0  0  0  0  0
  -21.2310   -7.0290   23.7820 C   0  0  0  0  0  3  0  0  0  0  0  0
  -21.0410   -6.2440   24.9370 C   0  0  0  0  0  3  0  0  0  0  0  0
  -21.3750   -4.8760   24.9230 C   0  0  0  0  0  0  0  0  0  0  0  0
  -21.9000   -4.2920   23.7570 C   0  0  0  0  0  3  0  0  0  0  0  0
  -22.0920   -5.0740   22.6040 C   0  0  0  0  0  0  0  0  0  0  0  0
  -22.5790   -4.5010   21.4770 F   0  0  0  0  0  0  0  0  0  0  0  0
  -21.1850   -4.1200   26.0290 F   0  0  0  0  0  0  0  0  0  0  0  0
  -23.0950  -13.7700   21.0200 C   0  0  0  0  0  0  0  0  0  0  0  0
  -22.3000  -13.1070   21.8530 N   0  0  0  0  0  0  0  0  0  0  0  0
  -22.7060  -14.7810   20.4370 O   0  0  0  0  0  0  0  0  0  0  0  0
  -22.6260  -12.2910   22.3480 H   0  0  0  0  0  0  0  0  0  0  0  0
  -21.3530  -13.4220   22.0010 H   0  0  0  0  0  0  0  0  0  0  0  0
  -25.7960  -15.3870   20.3420 N   0  0  0  0  0  0  0  0  0  0  0  0
  -25.0350  -16.0550   20.3840 H   0  0  0  0  0  0  0  0  0  0  0  0
  -26.6760  -15.8060   20.0650 H   0  0  0  0  0  0  0  0  0  0  0  0
  -32.1520  -16.9080   19.3700 C   0  0  0  0  0  2  0  0  0  0  0  0
  -32.1120  -18.0390   18.4100 N   0  0  0  0  0  4  0  0  0  0  0  0
  -31.8280  -17.7190   17.5010 H   0  0  0  0  0  0  0  0  0  0  0  0
  -33.0290  -18.4420   18.3200 H   0  0  0  0  0  0  0  0  0  0  0  0
  -31.4790  -18.7590   18.7060 H   0  0  0  0  0  0  0  0  0  0  0  0
  -28.0830  -21.3530   20.4130 C   0  0  0  0  0  2  0  0  0  0  0  0
  -28.9790  -22.6600   20.4300 C   0  0  0  0  0  2  0  0  0  0  0  0
  -28.3000  -24.0380   19.9840 C   0  0  0  0  0  2  0  0  0  0  0  0
  -28.6530  -25.3470   20.8050 C   0  0  0  0  0  2  0  0  0  0  0  0
  -28.6120  -26.6810   20.1900 O   0  0  0  0  0  0  0  0  0  0  0  0
  -24.6320  -31.8590   23.2430 C   0  0  0  0  0  0  0  0  0  0  0  0
  -27.4430  -27.4340   20.2170 C   0  0  0  0  0  0  0  0  0  0  0  0
  -23.5120  -30.4630   21.5390 C   0  0  0  0  0  3  0  0  0  0  0  0
  -25.0410  -28.9590   20.1480 C   0  0  0  0  0  0  0  0  0  0  0  0
  -26.0430  -30.8490   21.4400 C   0  0  0  0  0  2  0  0  0  0  0  0
  -26.1730  -29.4810   20.7860 C   0  0  0  0  0  0  0  0  0  0  0  0
  -27.3820  -28.7290   20.8070 C   0  0  0  0  0  3  0  0  0  0  0  0
  -26.2920  -26.9440   19.5740 C   0  0  0  0  0  3  0  0  0  0  0  0
  -25.1000  -27.6950   19.5360 C   0  0  0  0  0  3  0  0  0  0  0  0
  -23.7850  -29.8070   20.1590 C   0  0  0  0  0  2  0  0  0  0  0  0
  -24.7450  -31.0740   22.1330 N   0  0  0  0  0  0  0  0  0  0  0  0
  -23.5270  -32.1050   23.7470 O   0  0  0  0  0  0  0  0  0  0  0  0
  -22.8420  -29.4170   22.4620 C   0  0  0  0  0  0  0  0  0  0  0  0
  -21.5170  -29.2500   22.3220 N   0  0  0  0  0  0  0  0  0  0  0  0
  -23.5150  -28.7600   23.2620 O   0  0  0  0  0  0  0  0  0  0  0  0
  -21.0350  -29.8330   21.6510 H   0  0  0  0  0  0  0  0  0  0  0  0
  -18.1200  -28.1170   22.8200 C   0  0  0  0  0  0  0  0  0  0  0  0
  -20.6880  -28.2910   23.0550 C   0  0  0  0  0  3  0  0  0  0  0  0
  -20.7420  -26.8940   22.3950 C   0  0  0  0  0  2  0  0  0  0  0  0
  -19.6120  -26.6600   21.3870 C   0  0  0  0  0  2  0  0  0  0  0  0
  -18.2470  -26.8050   22.0650 C   0  0  0  0  0  2  0  0  0  0  0  0
  -19.2670  -28.8230   23.2700 C   0  0  0  0  0  0  0  0  0  0  0  0
  -19.0950  -30.0560   23.9370 C   0  0  0  0  0  3  0  0  0  0  0  0
  -17.8080  -30.5820   24.1570 C   0  0  0  0  0  3  0  0  0  0  0  0
  -16.6750  -29.8700   23.7230 C   0  0  0  0  0  3  0  0  0  0  0  0
  -16.8330  -28.6400   23.0610 C   0  0  0  0  0  3  0  0  0  0  0  0
  -25.8810  -32.5070   23.9180 C   0  0  0  0  0  3  0  0  0  0  0  0
  -26.3370  -31.7550   25.2290 C   0  0  1  0  0  0  0  0  0  0  0  0
  -25.1930  -31.5270   26.2440 C   0  0  0  0  0  1  0  0  0  0  0  0
  -26.9440  -30.3760   24.8840 C   0  0  0  0  0  1  0  0  0  0  0  0
  -27.4510  -32.5630   25.9360 C   0  0  0  0  0  1  0  0  0  0  0  0
  -25.5510  -33.9080   24.2120 N   0  0  0  0  0  0  0  0  0  0  0  0
  -25.9120  -34.9510   23.4530 C   0  0  0  0  0  0  0  0  0  0  0  0
  -26.6280  -34.8360   22.4540 O   0  0  0  0  0  0  0  0  0  0  0  0
  -24.9210  -34.0720   24.9830 H   0  0  0  0  0  0  0  0  0  0  0  0
  -24.1960  -36.7320   22.9940 C   0  0  0  0  0  1  0  0  0  0  0  0
  -25.3980  -36.3430   23.8690 C   0  0  0  0  0  3  0  0  0  0  0  0
  -27.4780  -37.2570   24.7980 C   0  0  0  0  0  1  0  0  0  0  0  0
  -26.4310  -37.4000   23.7910 N   0  0  0  0  0  0  0  0  0  0  0  0
  -26.0120  -38.3200   23.8970 H   0  0  0  0  0  0  0  0  0  0  0  0
  1  6  1  0
  2  1  2  0
  3  4  1  0
  4 51  1  0
  4  6  2  0
  5  3  1  0
  7  3  2  0
  7  2  1  0
  9  8  1  6
  9  2  1  0
  9 10  1  0
 10 17  2  0
 11 16  1  0
 12 13  1  0
 12 11  1  0
 14 13  1  0
 14 21  1  0
 14 15  1  0
 16 10  1  0
 16 15  1  0
 18 19  2  0
 19 20  1  0
 19 38  1  0
 20 23  1  0
 21 18  1  0
 21 22  1  0
 22 20  2  0
 23 24  1  0
 24 25  2  0
 26 29  1  0
 26 25  1  0
 27 26  2  0
 28 27  1  0
 28 23  2  0
 29 30  1  0
 30 31  1  0
 31 32  2  0
 33 32  1  0
 33 37  1  0
 34 33  2  0
 35 30  2  0
 35 34  1  0
 36 35  1  0
 38 39  1  0
 39 42  1  0
 39 41  1  0
 40 38  2  0
 43 44  1  0
 43 18  1  0
 45 43  1  0
 46  9  1  0
 47 50  1  0
 47 46  1  0
 48 47  1  0
 49 47  1  0
 51 52  1  0
 53 52  1  0
 53 54  1  0
 55 57  1  0
 55 54  1  0
 56 67  2  0
 57 62  1  0
 58 66  1  0
 58 68  1  0
 59 65  1  0
 59 61  1  0
 60 66  1  0
 61 62  2  0
 61 60  1  0
 63 57  2  0
 64 63  1  0
 64 59  2  0
 65 58  1  0
 66 56  1  0
 68 70  2  0
 69 68  1  0
 71 69  1  0
 72 81  2  0
 72 77  1  0
 73 69  1  0
 73 77  1  0
 74 73  1  0
 75 76  1  0
 75 74  1  0
 76 72  1  0
 77 78  2  0
 78 79  1  0
 80 79  2  0
 81 80  1  0
 82 56  1  0
 82 87  1  0
 82 83  1  0
 83 86  1  1
 83 84  1  0
 85 83  1  0
 87 90  1  0
 88 92  1  0
 88 87  1  0
 89 88  2  0
 92 91  1  0
 94 92  1  0
 94 95  1  0
 94 93  1  0
M  ISO  4   9 100  10 100  54 101  55 101
M  END
>  <TORSDO>  (48) 
F 23

>  <SCORE>  (48) 
-12.324

>  <name>  (48) 
48

>  <ligand_id>  (48) 
48

>  <original_smiles>  (48) 
[H]c1nc(C([H])([H])C([H])([H])C([H])([H])C([H])([H])Oc2c([H])c([H])c3c(c2[H])C([H])([H])N(C(=O)C([H])(N([H])C(=O)C([H])(N([H])C([H])([H])[H])C([H])([H])[H])C(C([H])([H])[H])(C([H])([H])[H])C([H])([H])[H])C([H])(C(=O)N([H])C2([H])c4c([H])c([H])c([H])c([H])c4C([H])([H])C([H])([H])C2([H])[H])C3([H])[H])c(C([H])([H])[H])nc1C(C(=O)N1C([H])([H])C([H])([H])C([H])([H])C([H])(n2nc(-c3c([H])c([H])c(Oc4c([H])c([H])c(F)c([H])c4F)c([H])c3[H])c(C(=O)N([H])[H])c2N([H])[H])C1([H])[H])(C([H])([H])[H])C([H])([H])[N+]([H])([H])[H]

>  <smiles>  (48) 
[H]c1nc(C([H])([H])C([H])([H])C([H])([H])C([H])([H])Oc2c([H])c([H])c3c(c2[H])C([H])([H])N(C(=O)C([H])(N([H])C(=O)C([H])(N([H])C([H])([H])[H])C([H])([H])[H])C(C([H])([H])[H])(C([H])([H])[H])C([H])([H])[H])C([H])(C(=O)N([H])C2([H])c4c([H])c([H])c([H])c([H])c4C([H])([H])C([H])([H])C2([H])[H])C3([H])[H])c(C([H])([H])[H])nc1C(C(=O)N1C([H])([H])C([H])([H])C([H])([H])C([H])(n2nc(-c3c([H])c([H])c(Oc4c([H])c([H])c(F)c([H])c4F)c([H])c3[H])c(C(=O)N([H])[H])c2N([H])[H])C1([H])[H])(C([H])([H])[H])C([H])([H])[N+]([H])([H])[H]

$$$$
49:0:0
     RDKit          3D

 93101  0  0  1  0  0  0  0  0999 V2000
  -29.1970  -21.2800   21.4150 C   0  0  0  0  0  3  0  0  0  0  0  0
  -29.8580  -20.3660   20.6390 C   0  0  0  0  0  0  0  0  0  0  0  0
  -30.9380  -21.0170   20.0370 N   0  0  0  0  0  0  0  0  0  0  0  0
  -30.9670  -22.2580   20.4250 N   0  0  0  0  0  0  0  0  0  0  0  0
  -29.9170  -22.4490   21.2600 N   0  0  0  0  0  0  0  0  0  0  0  0
  -29.0980  -18.6810   18.9270 C   0  0  0  0  0  1  0  0  0  0  0  0
  -29.5100  -18.9110   20.3910 C   0  0  0  0  0  3  0  0  0  0  0  0
  -29.5830  -17.0220   22.0810 C   0  0  0  0  0  1  0  0  0  0  0  0
  -31.5920  -18.4460   21.8300 C   0  0  0  0  0  1  0  0  0  0  0  0
  -30.4360  -17.7960   21.0370 C   0  0  2  0  0  0  0  0  0  0  0  0
  -31.0820  -16.8080   19.9890 C   0  0  0  0  0  2  0  0  0  0  0  0
  -31.5550  -14.3400   19.7960 C   0  0  0  0  0  0  0  0  0  0  0  0
  -31.1440  -12.1020   18.8440 C   0  0  0  0  0  2  0  0  0  0  0  0
  -30.1600  -12.2520   17.6620 C   0  0  0  0  0  2  0  0  0  0  0  0
  -28.6980  -12.2260   18.1520 C   0  0  0  0  0  2  0  0  0  0  0  0
  -28.4530  -13.1790   19.3510 C   0  0  0  0  0  3  0  0  0  0  0  0
  -29.5350  -12.9780   20.4370 C   0  0  0  0  0  2  0  0  0  0  0  0
  -30.8540  -13.1740   19.8080 N   0  0  0  0  0  0  0  0  0  0  0  0
  -32.6370  -14.4770   19.2160 O   0  0  0  0  0  0  0  0  0  0  0  0
  -30.8960  -15.3870   20.3180 N   0  0  0  0  0  0  0  0  0  0  0  0
  -30.0410  -15.1620   20.8040 H   0  0  0  0  0  0  0  0  0  0  0  0
  -26.1530  -13.9890   20.1820 C   0  0  0  0  0  0  0  0  0  0  0  0
  -25.0420  -13.3090   20.6020 C   0  0  0  0  0  0  0  0  0  0  0  0
  -25.3800  -11.9230   20.5370 C   0  0  0  0  0  0  0  0  0  0  0  0
  -27.1040  -13.0220   19.8920 N   0  0  0  0  0  0  0  0  0  0  0  0
  -26.6430  -11.7730   20.1600 N   0  0  0  0  0  0  0  0  0  0  0  0
  -24.5560  -10.7260   20.7570 C   0  0  0  0  0  0  0  0  0  0  0  0
  -24.8880   -9.7740   21.7470 C   0  0  0  0  0  3  0  0  0  0  0  0
  -24.0720   -8.6410   21.9520 C   0  0  0  0  0  3  0  0  0  0  0  0
  -22.9100   -8.4530   21.1660 C   0  0  0  0  0  0  0  0  0  0  0  0
  -22.5970   -9.3910   20.1670 C   0  0  0  0  0  3  0  0  0  0  0  0
  -23.4140  -10.5150   19.9610 C   0  0  0  0  0  3  0  0  0  0  0  0
  -22.0740   -7.3680   21.2780 O   0  0  0  0  0  0  0  0  0  0  0  0
  -21.8650   -6.7400   22.4790 C   0  0  0  0  0  0  0  0  0  0  0  0
  -21.3730   -7.4330   23.6070 C   0  0  0  0  0  3  0  0  0  0  0  0
  -21.1070   -6.7340   24.8010 C   0  0  0  0  0  3  0  0  0  0  0  0
  -21.3240   -5.3450   24.8680 C   0  0  0  0  0  0  0  0  0  0  0  0
  -21.8120   -4.6530   23.7440 C   0  0  0  0  0  3  0  0  0  0  0  0
  -22.0780   -5.3480   22.5530 C   0  0  0  0  0  0  0  0  0  0  0  0
  -22.5260   -4.6740   21.4670 F   0  0  0  0  0  0  0  0  0  0  0  0
  -21.0610   -4.6710   26.0120 F   0  0  0  0  0  0  0  0  0  0  0  0
  -23.7080  -13.9030   20.9510 C   0  0  0  0  0  0  0  0  0  0  0  0
  -22.9930  -13.2950   21.8920 N   0  0  0  0  0  0  0  0  0  0  0  0
  -23.3120  -14.9440   20.4260 O   0  0  0  0  0  0  0  0  0  0  0  0
  -23.3270  -12.4520   22.3370 H   0  0  0  0  0  0  0  0  0  0  0  0
  -22.1010  -13.6750   22.1730 H   0  0  0  0  0  0  0  0  0  0  0  0
  -26.4280  -15.3410   20.0040 N   0  0  0  0  0  0  0  0  0  0  0  0
  -25.7360  -16.0640   20.1710 H   0  0  0  0  0  0  0  0  0  0  0  0
  -27.2950  -15.6990   19.6290 H   0  0  0  0  0  0  0  0  0  0  0  0
  -29.7660  -23.7080   21.9860 C   0  0  0  0  0  2  0  0  0  0  0  0
  -29.7710  -25.0040   21.1370 C   0  0  0  0  0  2  0  0  0  0  0  0
  -28.4060  -25.4360   20.5620 C   0  0  0  0  0  2  0  0  0  0  0  0
  -28.4770  -26.8220   20.1980 O   0  0  0  0  0  0  0  0  0  0  0  0
  -24.5320  -31.8720   23.2830 C   0  0  0  0  0  0  0  0  0  0  0  0
  -27.2850  -27.5110   20.1950 C   0  0  0  0  0  0  0  0  0  0  0  0
  -23.3660  -30.4680   21.6140 C   0  0  0  0  0  3  0  0  0  0  0  0
  -24.8600  -28.9640   20.1930 C   0  0  0  0  0  0  0  0  0  0  0  0
  -25.8850  -30.8730   21.4440 C   0  0  0  0  0  2  0  0  0  0  0  0
  -26.0030  -29.5110   20.7920 C   0  0  0  0  0  0  0  0  0  0  0  0
  -27.2190  -28.7940   20.7830 C   0  0  0  0  0  3  0  0  0  0  0  0
  -26.1260  -26.9720   19.5950 C   0  0  0  0  0  3  0  0  0  0  0  0
  -24.9170  -27.6940   19.5920 C   0  0  0  0  0  3  0  0  0  0  0  0
  -23.6000  -29.8010   20.2310 C   0  0  0  0  0  2  0  0  0  0  0  0
  -24.6120  -31.0850   22.1730 N   0  0  0  0  0  0  0  0  0  0  0  0
  -23.4420  -32.1220   23.8150 O   0  0  0  0  0  0  0  0  0  0  0  0
  -22.7200  -29.4290   22.5580 C   0  0  0  0  0  0  0  0  0  0  0  0
  -21.4100  -29.1910   22.3790 N   0  0  0  0  0  0  0  0  0  0  0  0
  -23.3950  -28.8380   23.4040 O   0  0  0  0  0  0  0  0  0  0  0  0
  -20.9250  -29.7230   21.6690 H   0  0  0  0  0  0  0  0  0  0  0  0
  -18.0740  -27.8550   22.7380 C   0  0  0  0  0  0  0  0  0  0  0  0
  -20.6020  -28.2260   23.1230 C   0  0  0  0  0  3  0  0  0  0  0  0
  -20.7930  -26.7970   22.5690 C   0  0  0  0  0  2  0  0  0  0  0  0
  -19.7540  -26.4160   21.5090 C   0  0  0  0  0  2  0  0  0  0  0  0
  -18.3390  -26.5080   22.0880 C   0  0  0  0  0  2  0  0  0  0  0  0
  -19.1370  -28.6690   23.2090 C   0  0  0  0  0  0  0  0  0  0  0  0
  -18.8380  -29.9290   23.7720 C   0  0  0  0  0  3  0  0  0  0  0  0
  -17.5060  -30.3750   23.8710 C   0  0  0  0  0  3  0  0  0  0  0  0
  -16.4560  -29.5590   23.4170 C   0  0  0  0  0  3  0  0  0  0  0  0
  -16.7400  -28.3000   22.8560 C   0  0  0  0  0  3  0  0  0  0  0  0
  -25.8030  -32.5150   23.9240 C   0  0  0  0  0  3  0  0  0  0  0  0
  -25.4960  -33.9260   24.1970 N   0  0  0  0  0  0  0  0  0  0  0  0
  -25.8800  -34.9500   23.4240 C   0  0  0  0  0  0  0  0  0  0  0  0
  -26.5990  -34.8070   22.4310 O   0  0  0  0  0  0  0  0  0  0  0  0
  -24.8650  -34.1110   24.9630 H   0  0  0  0  0  0  0  0  0  0  0  0
  -24.1940  -36.7460   22.9240 C   0  0  0  0  0  1  0  0  0  0  0  0
  -25.3850  -36.3550   23.8120 C   0  0  0  0  0  3  0  0  0  0  0  0
  -27.4820  -37.2430   24.7300 C   0  0  0  0  0  1  0  0  0  0  0  0
  -26.4350  -37.3940   23.7230 N   0  0  0  0  0  0  0  0  0  0  0  0
  -26.0320  -38.3230   23.8220 H   0  0  0  0  0  0  0  0  0  0  0  0
  -26.2760  -31.7820   25.2390 C   0  0  1  0  0  0  0  0  0  0  0  0
  -25.1440  -31.5620   26.2690 C   0  0  0  0  0  1  0  0  0  0  0  0
  -26.8840  -30.4000   24.9040 C   0  0  0  0  0  1  0  0  0  0  0  0
  -27.3930  -32.6030   25.9250 C   0  0  0  0  0  1  0  0  0  0  0  0
  2  1  2  0
  3  4  2  0
  3  2  1  0
  4  5  1  0
  5  1  1  0
  5 50  1  0
  7  6  1  0
  7  2  1  0
  7 10  1  0
 10  9  1  1
 10  8  1  0
 11 20  1  0
 11 10  1  0
 12 18  1  0
 12 20  1  0
 13 18  1  0
 14 15  1  0
 14 13  1  0
 16 15  1  0
 16 25  1  0
 16 17  1  0
 18 17  1  0
 19 12  2  0
 20 21  1  0
 22 23  2  0
 23 42  1  0
 24 23  1  0
 24 27  1  0
 25 26  1  0
 25 22  1  0
 26 24  2  0
 27 28  1  0
 28 29  2  0
 30 33  1  0
 30 29  1  0
 31 30  2  0
 32 31  1  0
 32 27  2  0
 33 34  1  0
 34 39  2  0
 34 35  1  0
 35 36  2  0
 36 37  1  0
 37 41  1  0
 38 37  2  0
 39 38  1  0
 40 39  1  0
 42 43  1  0
 43 46  1  0
 43 45  1  0
 44 42  2  0
 47 48  1  0
 47 22  1  0
 49 47  1  0
 51 50  1  0
 52 51  1  0
 53 52  1  0
 54 65  2  0
 55 53  1  0
 55 60  1  0
 56 64  1  0
 56 66  1  0
 57 63  1  0
 57 59  1  0
 58 64  1  0
 59 58  1  0
 60 59  2  0
 61 55  2  0
 62 61  1  0
 62 57  2  0
 63 56  1  0
 64 54  1  0
 66 68  2  0
 67 66  1  0
 69 67  1  0
 70 79  2  0
 70 75  1  0
 71 67  1  0
 71 75  1  0
 72 71  1  0
 73 74  1  0
 73 72  1  0
 74 70  1  0
 75 76  2  0
 76 77  1  0
 78 77  2  0
 79 78  1  0
 80 54  1  0
 80 81  1  0
 80 90  1  0
 81 84  1  0
 82 86  1  0
 82 81  1  0
 83 82  2  0
 86 85  1  0
 88 86  1  0
 88 89  1  0
 88 87  1  0
 90 93  1  1
 90 91  1  0
 92 90  1  0
M  ISO  4  12 100  20 100  52 101  53 101
M  END
>  <TORSDO>  (49) 
F 22

>  <SCORE>  (49) 
-12.066

>  <name>  (49) 
49

>  <ligand_id>  (49) 
49

>  <original_smiles>  (49) 
[H]c1c([H])c([H])c2c(c1[H])C([H])([H])C([H])([H])C([H])([H])C2([H])N([H])C(=O)C1([H])N(C(=O)C([H])(N([H])C(=O)C([H])(N([H])C([H])([H])[H])C([H])([H])[H])C(C([H])([H])[H])(C([H])([H])[H])C([H])([H])[H])C([H])([H])c2c([H])c(OC([H])([H])C([H])([H])C([H])([H])n3nnc(C([H])(C([H])([H])[H])C(C([H])([H])[H])(C([H])([H])[H])C([H])([H])N([H])C(=O)N4C([H])([H])C([H])([H])C([H])([H])C([H])(n5nc(-c6c([H])c([H])c(Oc7c([H])c([H])c(F)c([H])c7F)c([H])c6[H])c(C(=O)N([H])[H])c5N([H])[H])C4([H])[H])c3[H])c([H])c([H])c2C1([H])[H]

>  <smiles>  (49) 
[H]c1c([H])c([H])c2c(c1[H])C([H])([H])C([H])([H])C([H])([H])C2([H])N([H])C(=O)C1([H])N(C(=O)C([H])(N([H])C(=O)C([H])(N([H])C([H])([H])[H])C([H])([H])[H])C(C([H])([H])[H])(C([H])([H])[H])C([H])([H])[H])C([H])([H])c2c([H])c(OC([H])([H])C([H])([H])C([H])([H])n3nnc(C([H])(C([H])([H])[H])C(C([H])([H])[H])(C([H])([H])[H])C([H])([H])N([H])C(=O)N4C([H])([H])C([H])([H])C([H])([H])C([H])(n5nc(-c6c([H])c([H])c(Oc7c([H])c([H])c(F)c([H])c7F)c([H])c6[H])c(C(=O)N([H])[H])c5N([H])[H])C4([H])[H])c3[H])c([H])c([H])c2C1([H])[H]

$$$$
50:0:0
     RDKit          3D

 90 98  0  0  1  0  0  0  0  0999 V2000
  -29.2070  -19.1660   20.1730 C   0  0  0  0  0  3  0  0  0  0  0  0
  -29.6230  -20.5530   20.3550 C   0  0  0  0  0  0  0  0  0  0  0  0
  -30.0920  -18.0140   20.4010 C   0  0  0  0  0  0  0  0  0  0  0  0
  -31.6710  -19.6300   20.9410 C   0  0  0  0  0  0  0  0  0  0  0  0
  -33.0940  -19.9030   21.3790 C   0  0  0  0  0  1  0  0  0  0  0  0
  -30.9040  -20.7150   20.7350 N   0  0  0  0  0  0  0  0  0  0  0  0
  -31.3360  -18.3340   20.8140 N   0  0  0  0  0  0  0  0  0  0  0  0
  -28.9380  -16.4590   18.8570 C   0  0  0  0  0  1  0  0  0  0  0  0
  -28.5760  -16.3330   21.4060 C   0  0  0  0  0  1  0  0  0  0  0  0
  -29.6090  -16.4380   20.2580 C   0  0  2  0  0  0  0  0  0  0  0  0
  -30.5320  -15.0160   20.2740 C   0  0  0  0  0  0  0  0  0  0  0  0
  -30.4930  -12.6350   19.3820 C   0  0  0  0  0  2  0  0  0  0  0  0
  -29.5460  -12.5520   18.1570 C   0  0  0  0  0  2  0  0  0  0  0  0
  -28.0740  -12.3470   18.5790 C   0  0  0  0  0  2  0  0  0  0  0  0
  -27.6610  -13.2500   19.7690 C   0  0  0  0  0  3  0  0  0  0  0  0
  -28.7370  -13.2230   20.8780 C   0  0  0  0  0  2  0  0  0  0  0  0
  -29.9970  -13.7140   20.2860 N   0  0  0  0  0  0  0  0  0  0  0  0
  -31.7450  -15.0770   20.0280 O   0  0  0  0  0  0  0  0  0  0  0  0
  -25.2690  -13.8440   20.4680 C   0  0  0  0  0  0  0  0  0  0  0  0
  -24.2050  -13.0730   20.8390 C   0  0  0  0  0  0  0  0  0  0  0  0
  -24.6720  -11.7230   20.8170 C   0  0  0  0  0  0  0  0  0  0  0  0
  -26.3200  -12.9640   20.2550 N   0  0  0  0  0  0  0  0  0  0  0  0
  -25.9650  -11.6830   20.5230 N   0  0  0  0  0  0  0  0  0  0  0  0
  -23.9480  -10.4630   21.0020 C   0  0  0  0  0  0  0  0  0  0  0  0
  -24.3670   -9.5060   21.9520 C   0  0  0  0  0  3  0  0  0  0  0  0
  -23.6420   -8.3090   22.1270 C   0  0  0  0  0  3  0  0  0  0  0  0
  -22.4840   -8.0600   21.3510 C   0  0  0  0  0  0  0  0  0  0  0  0
  -22.0850   -9.0060   20.3910 C   0  0  0  0  0  3  0  0  0  0  0  0
  -22.8100  -10.1960   20.2140 C   0  0  0  0  0  3  0  0  0  0  0  0
  -21.7320   -6.9150   21.4370 O   0  0  0  0  0  0  0  0  0  0  0  0
  -21.6460   -6.1970   22.6020 C   0  0  0  0  0  0  0  0  0  0  0  0
  -21.1680   -6.7740   23.7990 C   0  0  0  0  0  3  0  0  0  0  0  0
  -21.0290   -5.9820   24.9550 C   0  0  0  0  0  3  0  0  0  0  0  0
  -21.3570   -4.6140   24.9170 C   0  0  0  0  0  0  0  0  0  0  0  0
  -21.8290   -4.0360   23.7240 C   0  0  0  0  0  3  0  0  0  0  0  0
  -21.9700   -4.8250   22.5690 C   0  0  0  0  0  0  0  0  0  0  0  0
  -22.4040   -4.2600   21.4180 F   0  0  0  0  0  0  0  0  0  0  0  0
  -21.2160   -3.8500   26.0250 F   0  0  0  0  0  0  0  0  0  0  0  0
  -22.8060  -13.5510   21.0970 C   0  0  0  0  0  0  0  0  0  0  0  0
  -22.0760  -12.8630   21.9670 N   0  0  0  0  0  0  0  0  0  0  0  0
  -22.3690  -14.5700   20.5630 O   0  0  0  0  0  0  0  0  0  0  0  0
  -22.4430  -12.0380   22.4180 H   0  0  0  0  0  0  0  0  0  0  0  0
  -21.1380  -13.1660   22.1870 H   0  0  0  0  0  0  0  0  0  0  0  0
  -25.4130  -15.2140   20.2650 N   0  0  0  0  0  0  0  0  0  0  0  0
  -24.6230  -15.8450   20.3440 H   0  0  0  0  0  0  0  0  0  0  0  0
  -26.2400  -15.6610   19.8950 H   0  0  0  0  0  0  0  0  0  0  0  0
  -28.7160  -21.8880   20.0790 C   0  0  0  0  0  2  0  0  0  0  0  0
  -29.0930  -23.4790   20.4230 C   0  0  0  0  0  3  0  0  0  0  0  0
  -28.0620  -24.7520   20.0800 C   0  0  0  0  0  3  0  0  0  0  0  0
  -28.2930  -26.2620   20.3150 O   0  0  0  0  0  0  0  0  0  0  0  0
  -24.6370  -31.9170   23.2440 C   0  0  0  0  0  0  0  0  0  0  0  0
  -27.2180  -27.2150   20.2350 C   0  0  0  0  0  0  0  0  0  0  0  0
  -23.4340  -30.5210   21.6050 C   0  0  0  0  0  3  0  0  0  0  0  0
  -24.8820  -28.9380   20.1920 C   0  0  0  0  0  0  0  0  0  0  0  0
  -25.9860  -30.7860   21.4430 C   0  0  0  0  0  2  0  0  0  0  0  0
  -26.0590  -29.3930   20.7990 C   0  0  0  0  0  0  0  0  0  0  0  0
  -27.2270  -28.5470   20.8040 C   0  0  0  0  0  3  0  0  0  0  0  0
  -26.0130  -26.8510   19.5930 C   0  0  0  0  0  3  0  0  0  0  0  0
  -24.8700  -27.6780   19.5750 C   0  0  0  0  0  3  0  0  0  0  0  0
  -23.6550  -29.8350   20.2300 C   0  0  0  0  0  2  0  0  0  0  0  0
  -24.7050  -31.0960   22.1530 N   0  0  0  0  0  0  0  0  0  0  0  0
  -23.5500  -32.2080   23.7680 O   0  0  0  0  0  0  0  0  0  0  0  0
  -22.7490  -29.5200   22.5690 C   0  0  0  0  0  0  0  0  0  0  0  0
  -21.4190  -29.3610   22.4420 N   0  0  0  0  0  0  0  0  0  0  0  0
  -23.4160  -28.8900   23.3940 O   0  0  0  0  0  0  0  0  0  0  0  0
  -20.9380  -29.9210   21.7530 H   0  0  0  0  0  0  0  0  0  0  0  0
  -18.0260  -28.2010   22.9530 C   0  0  0  0  0  0  0  0  0  0  0  0
  -20.5900  -28.4330   23.2140 C   0  0  0  0  0  3  0  0  0  0  0  0
  -20.6720  -26.9990   22.6410 C   0  0  0  0  0  2  0  0  0  0  0  0
  -19.5640  -26.6900   21.6290 C   0  0  0  0  0  2  0  0  0  0  0  0
  -18.1860  -26.8500   22.2770 C   0  0  0  0  0  2  0  0  0  0  0  0
  -19.1550  -28.9510   23.3800 C   0  0  0  0  0  0  0  0  0  0  0  0
  -18.9500  -30.2140   23.9750 C   0  0  0  0  0  3  0  0  0  0  0  0
  -17.6500  -30.7280   24.1460 C   0  0  0  0  0  3  0  0  0  0  0  0
  -16.5380  -29.9760   23.7350 C   0  0  0  0  0  3  0  0  0  0  0  0
  -16.7260  -28.7130   23.1440 C   0  0  0  0  0  3  0  0  0  0  0  0
  -25.9160  -32.5480   23.8720 C   0  0  0  0  0  3  0  0  0  0  0  0
  -26.4260  -31.7740   25.1490 C   0  0  1  0  0  0  0  0  0  0  0  0
  -25.3290  -31.5370   26.2130 C   0  0  0  0  0  1  0  0  0  0  0  0
  -27.0060  -30.3950   24.7590 C   0  0  0  0  0  1  0  0  0  0  0  0
  -27.5780  -32.5630   25.8150 C   0  0  0  0  0  1  0  0  0  0  0  0
  -25.6060  -33.9470   24.2100 N   0  0  0  0  0  0  0  0  0  0  0  0
  -25.9240  -35.0040   23.4500 C   0  0  0  0  0  0  0  0  0  0  0  0
  -26.5740  -34.9050   22.4060 O   0  0  0  0  0  0  0  0  0  0  0  0
  -25.0260  -34.0970   25.0220 H   0  0  0  0  0  0  0  0  0  0  0  0
  -24.1760  -36.7900   23.1530 C   0  0  0  0  0  1  0  0  0  0  0  0
  -25.4450  -36.3910   23.9230 C   0  0  0  0  0  3  0  0  0  0  0  0
  -27.6000  -37.2890   24.6840 C   0  0  0  0  0  1  0  0  0  0  0  0
  -26.4670  -37.4490   23.7760 N   0  0  0  0  0  0  0  0  0  0  0  0
  -26.0610  -38.3680   23.9330 H   0  0  0  0  0  0  0  0  0  0  0  0
  1  2  2  0
  1  3  1  0
  2  6  1  0
  3  7  2  0
  4  5  1  0
  6  4  2  0
  7  4  1  0
 10  8  1  6
 10 11  1  0
 10  3  1  0
 10  9  1  0
 11 17  1  0
 12 17  1  0
 13 14  1  0
 13 12  1  0
 15 14  1  0
 15 22  1  0
 15 16  1  0
 17 16  1  0
 18 11  2  0
 19 20  2  0
 20 39  1  0
 21 20  1  0
 21 24  1  0
 22 19  1  0
 22 23  1  0
 23 21  2  0
 24 25  1  0
 25 26  2  0
 27 30  1  0
 27 26  1  0
 28 27  2  0
 29 28  1  0
 29 24  2  0
 30 31  1  0
 31 32  1  0
 32 33  2  0
 34 33  1  0
 34 38  1  0
 35 34  2  0
 36 31  2  0
 36 35  1  0
 37 36  1  0
 39 40  1  0
 40 43  1  0
 40 42  1  0
 41 39  2  0
 44 45  1  0
 44 19  1  0
 46 44  1  0
 47  2  1  0
 47 48  1  0
 49 50  1  0
 49 48  2  0
 51 62  2  0
 52 50  1  0
 52 57  1  0
 53 61  1  0
 53 63  1  0
 54 60  1  0
 54 56  1  0
 55 61  1  0
 56 57  2  0
 56 55  1  0
 58 52  2  0
 59 58  1  0
 59 54  2  0
 60 53  1  0
 61 51  1  0
 63 65  2  0
 64 63  1  0
 66 64  1  0
 67 76  2  0
 67 72  1  0
 68 64  1  0
 68 72  1  0
 69 68  1  0
 70 71  1  0
 70 69  1  0
 71 67  1  0
 72 73  2  0
 73 74  1  0
 75 74  2  0
 76 75  1  0
 77 51  1  0
 77 82  1  0
 77 78  1  0
 78 81  1  1
 78 79  1  0
 80 78  1  0
 82 85  1  0
 83 87  1  0
 83 82  1  0
 84 83  2  0
 87 86  1  0
 89 87  1  0
 89 90  1  0
 89 88  1  0
M  ISO  4  10 100  11 100  49 101  50 101
M  END
>  <TORSDO>  (50) 
F 20

>  <SCORE>  (50) 
-13.685

>  <name>  (50) 
50

>  <ligand_id>  (50) 
50

>  <original_smiles>  (50) 
[H]c1c(C([H])([H])C([H])([H])C([H])([H])Oc2c([H])c([H])c3c(c2[H])C([H])([H])N(C(=O)C([H])(N([H])C(=O)C([H])(N([H])C([H])([H])[H])C([H])([H])[H])C(C([H])([H])[H])(C([H])([H])[H])C([H])([H])[H])C([H])(C(=O)N([H])C2([H])c4c([H])c([H])c([H])c([H])c4C([H])([H])C([H])([H])C2([H])[H])C3([H])[H])nc(C([H])([H])[H])nc1C(C(=O)N1C([H])([H])C([H])([H])C([H])([H])C([H])(n2nc(-c3c([H])c([H])c(Oc4c([H])c([H])c(F)c([H])c4F)c([H])c3[H])c(C(=O)N([H])[H])c2N([H])[H])C1([H])[H])(C([H])([H])[H])C([H])([H])[H]

>  <smiles>  (50) 
[H]c1c(C([H])([H])C([H])([H])C([H])([H])Oc2c([H])c([H])c3c(c2[H])C([H])([H])N(C(=O)C([H])(N([H])C(=O)C([H])(N([H])C([H])([H])[H])C([H])([H])[H])C(C([H])([H])[H])(C([H])([H])[H])C([H])([H])[H])C([H])(C(=O)N([H])C2([H])c4c([H])c([H])c([H])c([H])c4C([H])([H])C([H])([H])C2([H])[H])C3([H])[H])nc(C([H])([H])[H])nc1C(C(=O)N1C([H])([H])C([H])([H])C([H])([H])C([H])(n2nc(-c3c([H])c([H])c(Oc4c([H])c([H])c(F)c([H])c4F)c([H])c3[H])c(C(=O)N([H])[H])c2N([H])[H])C1([H])[H])(C([H])([H])[H])C([H])([H])[H]

$$$$
51:0:0
     RDKit          3D

 94102  0  0  1  0  0  0  0  0999 V2000
  -28.7530  -18.7670   19.6500 C   0  0  0  0  0  0  0  0  0  0  0  0
  -30.2890  -19.9420   21.5010 C   0  0  0  0  0  0  0  0  0  0  0  0
  -29.3080  -20.7810   20.8420 C   0  0  0  0  0  0  0  0  0  0  0  0
  -29.8110  -17.9360   20.2250 C   0  0  0  0  0  0  0  0  0  0  0  0
  -27.7310  -18.2940   18.6270 C   0  0  0  0  0  1  0  0  0  0  0  0
  -28.5280  -20.1050   19.9530 N   0  0  0  0  0  0  0  0  0  0  0  0
  -30.5450  -18.6110   21.1720 N   0  0  0  0  0  0  0  0  0  0  0  0
  -29.7230  -16.0840   18.2900 C   0  0  0  0  0  1  0  0  0  0  0  0
  -31.7690  -17.0210   18.9930 C   0  0  0  0  0  1  0  0  0  0  0  0
  -30.4160  -16.5180   19.6000 C   0  0  1  0  0  0  0  0  0  0  0  0
  -30.8060  -15.0960   20.4040 C   0  0  0  0  0  0  0  0  0  0  0  0
  -30.6220  -12.7470   19.5340 C   0  0  0  0  0  2  0  0  0  0  0  0
  -29.6870  -12.5570   18.3210 C   0  0  0  0  0  2  0  0  0  0  0  0
  -28.2140  -12.4170   18.7480 C   0  0  0  0  0  2  0  0  0  0  0  0
  -27.7870  -13.3940   19.8740 C   0  0  0  0  0  3  0  0  0  0  0  0
  -28.8470  -13.5140   20.9860 C   0  0  0  0  0  2  0  0  0  0  0  0
  -30.1170  -13.8870   20.3410 N   0  0  0  0  0  0  0  0  0  0  0  0
  -32.0110  -14.9680   20.6300 O   0  0  0  0  0  0  0  0  0  0  0  0
  -25.3990  -13.9870   20.5720 C   0  0  0  0  0  0  0  0  0  0  0  0
  -24.3250  -13.2110   20.8990 C   0  0  0  0  0  0  0  0  0  0  0  0
  -24.7920  -11.8600   20.8920 C   0  0  0  0  0  0  0  0  0  0  0  0
  -26.4500  -13.1070   20.3710 N   0  0  0  0  0  0  0  0  0  0  0  0
  -26.0940  -11.8260   20.6380 N   0  0  0  0  0  0  0  0  0  0  0  0
  -24.0690  -10.5950   21.0550 C   0  0  0  0  0  0  0  0  0  0  0  0
  -24.4600   -9.6470   22.0240 C   0  0  0  0  0  3  0  0  0  0  0  0
  -23.7350   -8.4480   22.1830 C   0  0  0  0  0  3  0  0  0  0  0  0
  -22.6070   -8.1880   21.3690 C   0  0  0  0  0  0  0  0  0  0  0  0
  -22.2380   -9.1240   20.3890 C   0  0  0  0  0  3  0  0  0  0  0  0
  -22.9640  -10.3160   20.2280 C   0  0  0  0  0  3  0  0  0  0  0  0
  -21.8600   -7.0390   21.4310 O   0  0  0  0  0  0  0  0  0  0  0  0
  -21.7290   -6.3280   22.5960 C   0  0  0  0  0  0  0  0  0  0  0  0
  -21.1640   -6.8990   23.7570 C   0  0  0  0  0  3  0  0  0  0  0  0
  -20.9830   -6.1140   24.9120 C   0  0  0  0  0  3  0  0  0  0  0  0
  -21.3590   -4.7570   24.9080 C   0  0  0  0  0  0  0  0  0  0  0  0
  -21.9200   -4.1850   23.7520 C   0  0  0  0  0  3  0  0  0  0  0  0
  -22.0990   -4.9690   22.5980 C   0  0  0  0  0  0  0  0  0  0  0  0
  -22.6180   -4.4070   21.4800 F   0  0  0  0  0  0  0  0  0  0  0  0
  -21.1790   -3.9980   26.0150 F   0  0  0  0  0  0  0  0  0  0  0  0
  -22.9150  -13.6800   21.1110 C   0  0  0  0  0  0  0  0  0  0  0  0
  -22.1670  -12.9870   21.9580 N   0  0  0  0  0  0  0  0  0  0  0  0
  -22.4910  -14.6970   20.5620 O   0  0  0  0  0  0  0  0  0  0  0  0
  -22.5310  -12.1660   22.4200 H   0  0  0  0  0  0  0  0  0  0  0  0
  -21.2160  -13.2750   22.1420 H   0  0  0  0  0  0  0  0  0  0  0  0
  -25.5670  -15.3610   20.3980 N   0  0  0  0  0  0  0  0  0  0  0  0
  -24.8000  -16.0160   20.5020 H   0  0  0  0  0  0  0  0  0  0  0  0
  -26.4340  -15.8120   20.1470 H   0  0  0  0  0  0  0  0  0  0  0  0
  -32.4370  -21.0520   22.3300 C   0  0  0  0  0  1  0  0  0  0  0  0
  -31.0870  -20.4340   22.7040 C   0  0  0  0  0  2  0  0  0  0  0  0
  -28.9030  -22.3030   21.2960 C   0  0  0  0  0  3  0  0  0  0  0  0
  -28.6050  -23.6470   20.3620 C   0  0  0  0  0  3  0  0  0  0  0  0
  -30.1590  -25.4070   21.3570 C   0  0  0  0  0  1  0  0  0  0  0  0
  -27.8760  -25.2810   22.3080 C   0  0  0  0  0  1  0  0  0  0  0  0
  -28.6750  -25.1930   20.9920 C   0  0  2  0  0  0  0  0  0  0  0  0
  -28.4470  -26.4920   20.2070 O   0  0  0  0  0  0  0  0  0  0  0  0
  -24.6050  -31.9390   23.2550 C   0  0  0  0  0  0  0  0  0  0  0  0
  -27.3050  -27.3470   20.2550 C   0  0  0  0  0  0  0  0  0  0  0  0
  -23.4310  -30.5320   21.5960 C   0  0  0  0  0  3  0  0  0  0  0  0
  -24.9200  -28.9790   20.1910 C   0  0  0  0  0  0  0  0  0  0  0  0
  -25.9710  -30.8670   21.4360 C   0  0  0  0  0  2  0  0  0  0  0  0
  -26.0780  -29.4770   20.8030 C   0  0  0  0  0  0  0  0  0  0  0  0
  -27.2730  -28.6770   20.8150 C   0  0  0  0  0  3  0  0  0  0  0  0
  -26.1230  -26.9210   19.6150 C   0  0  0  0  0  3  0  0  0  0  0  0
  -24.9490  -27.7100   19.5850 C   0  0  0  0  0  3  0  0  0  0  0  0
  -23.6720  -29.8460   20.2220 C   0  0  0  0  0  2  0  0  0  0  0  0
  -24.6870  -31.1340   22.1530 N   0  0  0  0  0  0  0  0  0  0  0  0
  -23.5150  -32.2020   23.7850 O   0  0  0  0  0  0  0  0  0  0  0  0
  -22.7680  -29.5120   22.5530 C   0  0  0  0  0  0  0  0  0  0  0  0
  -21.4430  -29.3240   22.4210 N   0  0  0  0  0  0  0  0  0  0  0  0
  -23.4460  -28.8920   23.3760 O   0  0  0  0  0  0  0  0  0  0  0  0
  -20.9520  -29.8780   21.7330 H   0  0  0  0  0  0  0  0  0  0  0  0
  -18.0740  -28.0980   22.9180 C   0  0  0  0  0  0  0  0  0  0  0  0
  -20.6320  -28.3700   23.1820 C   0  0  0  0  0  3  0  0  0  0  0  0
  -20.7400  -26.9470   22.5860 C   0  0  0  0  0  2  0  0  0  0  0  0
  -19.6360  -26.6310   21.5710 C   0  0  0  0  0  2  0  0  0  0  0  0
  -18.2560  -26.7600   22.2220 C   0  0  0  0  0  2  0  0  0  0  0  0
  -19.1900  -28.8620   23.3540 C   0  0  0  0  0  0  0  0  0  0  0  0
  -18.9670  -30.1140   23.9650 C   0  0  0  0  0  3  0  0  0  0  0  0
  -17.6600  -30.6040   24.1450 C   0  0  0  0  0  3  0  0  0  0  0  0
  -16.5580  -29.8360   23.7270 C   0  0  0  0  0  3  0  0  0  0  0  0
  -16.7660  -28.5870   23.1190 C   0  0  0  0  0  3  0  0  0  0  0  0
  -25.8710  -32.5890   23.8920 C   0  0  0  0  0  3  0  0  0  0  0  0
  -25.5520  -33.9920   24.1990 N   0  0  0  0  0  0  0  0  0  0  0  0
  -25.8990  -35.0380   23.4360 C   0  0  0  0  0  0  0  0  0  0  0  0
  -26.5900  -34.9250   22.4210 O   0  0  0  0  0  0  0  0  0  0  0  0
  -24.9480  -34.1520   24.9910 H   0  0  0  0  0  0  0  0  0  0  0  0
  -24.1950  -36.8400   23.0130 C   0  0  0  0  0  1  0  0  0  0  0  0
  -25.4030  -36.4330   23.8710 C   0  0  0  0  0  3  0  0  0  0  0  0
  -27.5060  -37.3190   24.7790 C   0  0  0  0  0  1  0  0  0  0  0  0
  -26.4440  -37.4810   23.7890 N   0  0  0  0  0  0  0  0  0  0  0  0
  -26.0360  -38.4050   23.9110 H   0  0  0  0  0  0  0  0  0  0  0  0
  -26.3670  -31.8400   25.1890 C   0  0  1  0  0  0  0  0  0  0  0  0
  -25.2560  -31.6170   26.2420 C   0  0  0  0  0  1  0  0  0  0  0  0
  -26.9610  -30.4580   24.8300 C   0  0  0  0  0  1  0  0  0  0  0  0
  -27.5030  -32.6480   25.8590 C   0  0  0  0  0  1  0  0  0  0  0  0
  1  6  2  0
  1  4  1  0
  2 48  1  0
  3 49  1  0
  3  2  2  0
  4  7  2  0
  5  1  1  0
  6  3  1  0
  7  2  1  0
 10  8  1  6
  9 10  1  0
 10  4  1  0
 10 11  1  0
 11 18  2  0
 12 17  1  0
 13 14  1  0
 13 12  1  0
 15 14  1  0
 15 22  1  0
 15 16  1  0
 17 11  1  0
 17 16  1  0
 19 20  2  0
 20 39  1  0
 21 20  1  0
 21 24  1  0
 22 19  1  0
 22 23  1  0
 23 21  2  0
 24 25  1  0
 25 26  2  0
 27 30  1  0
 27 26  1  0
 28 27  2  0
 29 28  1  0
 29 24  2  0
 30 31  1  0
 31 36  2  0
 31 32  1  0
 32 33  2  0
 34 33  1  0
 34 38  1  0
 35 34  2  0
 36 35  1  0
 37 36  1  0
 39 40  1  0
 40 43  1  0
 40 42  1  0
 41 39  2  0
 44 45  1  0
 44 19  1  0
 46 44  1  0
 47 48  1  0
 50 53  1  0
 50 49  2  0
 53 51  1  1
 53 52  1  0
 54 56  1  0
 54 53  1  0
 55 66  2  0
 56 61  1  0
 57 65  1  0
 57 67  1  0
 58 64  1  0
 58 60  1  0
 59 65  1  0
 60 61  2  0
 60 59  1  0
 62 56  2  0
 63 62  1  0
 63 58  2  0
 64 57  1  0
 65 55  1  0
 67 69  2  0
 68 67  1  0
 70 68  1  0
 71 80  2  0
 71 76  1  0
 72 68  1  0
 72 76  1  0
 73 72  1  0
 74 75  1  0
 74 73  1  0
 75 71  1  0
 76 77  2  0
 77 78  1  0
 79 78  2  0
 80 79  1  0
 81 55  1  0
 81 82  1  0
 81 91  1  0
 82 85  1  0
 83 87  1  0
 83 82  1  0
 84 83  2  0
 87 86  1  0
 89 87  1  0
 89 90  1  0
 89 88  1  0
 91 94  1  1
 91 92  1  0
 93 91  1  0
M  ISO  4  10 100  11 100  53 101  54 101
M  END
>  <TORSDO>  (51) 
F 21

>  <SCORE>  (51) 
-13.350

>  <name>  (51) 
51

>  <ligand_id>  (51) 
51

>  <original_smiles>  (51) 
[H]c1c([H])c([H])c2c(c1[H])C([H])([H])C([H])([H])C([H])([H])C2([H])N([H])C(=O)C1([H])N(C(=O)C([H])(N([H])C(=O)C([H])(N([H])C([H])([H])[H])C([H])([H])[H])C(C([H])([H])[H])(C([H])([H])[H])C([H])([H])[H])C([H])([H])c2c([H])c(OC(C([H])([H])[H])(C([H])([H])[H])C([H])([H])C([H])([H])c3nc(C([H])([H])[H])c(C(C(=O)N4C([H])([H])C([H])([H])C([H])([H])C([H])(n5nc(-c6c([H])c([H])c(Oc7c([H])c([H])c(F)c([H])c7F)c([H])c6[H])c(C(=O)N([H])[H])c5N([H])[H])C4([H])[H])(C([H])([H])[H])C([H])([H])[H])nc3C([H])([H])C([H])([H])[H])c([H])c([H])c2C1([H])[H]

>  <smiles>  (51) 
[H]c1c([H])c([H])c2c(c1[H])C([H])([H])C([H])([H])C([H])([H])C2([H])N([H])C(=O)C1([H])N(C(=O)C([H])(N([H])C(=O)C([H])(N([H])C([H])([H])[H])C([H])([H])[H])C(C([H])([H])[H])(C([H])([H])[H])C([H])([H])[H])C([H])([H])c2c([H])c(OC(C([H])([H])[H])(C([H])([H])[H])C([H])([H])C([H])([H])c3nc(C([H])([H])[H])c(C(C(=O)N4C([H])([H])C([H])([H])C([H])([H])C([H])(n5nc(-c6c([H])c([H])c(Oc7c([H])c([H])c(F)c([H])c7F)c([H])c6[H])c(C(=O)N([H])[H])c5N([H])[H])C4([H])[H])(C([H])([H])[H])C([H])([H])[H])nc3C([H])([H])C([H])([H])[H])c([H])c([H])c2C1([H])[H]

$$$$
52:0:0
     RDKit          3D

 93101  0  0  1  0  0  0  0  0999 V2000
  -28.8700  -23.2400   21.1520 C   0  0  0  0  0  3  0  0  0  0  0  0
  -29.0840  -21.8470   21.3670 C   0  0  0  0  0  3  0  0  0  0  0  0
  -28.9670  -23.7860   19.8480 C   0  0  0  0  0  0  0  0  0  0  0  0
  -29.4090  -20.9940   20.2850 C   0  0  0  0  0  0  0  0  0  0  0  0
  -29.3980  -22.8680   18.8370 C   0  0  0  0  0  0  0  0  0  0  0  0
  -29.6250  -21.5410   19.0650 N   0  0  0  0  0  0  0  0  0  0  0  0
  -29.8800  -22.1920   16.3640 C   0  0  0  0  0  1  0  0  0  0  0  0
  -29.5110  -23.2990   17.3710 C   0  0  0  0  0  2  0  0  0  0  0  0
  -28.2750  -25.1400   19.4490 C   0  0  0  0  0  2  0  0  0  0  0  0
  -28.3430  -26.4070   20.2140 O   0  0  0  0  0  0  0  0  0  0  0  0
  -24.6410  -31.8680   23.1970 C   0  0  0  0  0  0  0  0  0  0  0  0
  -27.2380  -27.2870   20.1320 C   0  0  0  0  0  0  0  0  0  0  0  0
  -23.4320  -30.4610   21.5720 C   0  0  0  0  0  3  0  0  0  0  0  0
  -24.8760  -28.9200   20.1410 C   0  0  0  0  0  0  0  0  0  0  0  0
  -25.9730  -30.7730   21.3860 C   0  0  0  0  0  2  0  0  0  0  0  0
  -26.0470  -29.3930   20.7430 C   0  0  0  0  0  0  0  0  0  0  0  0
  -27.2270  -28.5840   20.7440 C   0  0  0  0  0  3  0  0  0  0  0  0
  -26.0400  -26.9060   19.4710 C   0  0  0  0  0  3  0  0  0  0  0  0
  -24.8730  -27.6800   19.5020 C   0  0  0  0  0  3  0  0  0  0  0  0
  -23.6420  -29.7930   20.1900 C   0  0  0  0  0  2  0  0  0  0  0  0
  -24.7000  -31.0530   22.1060 N   0  0  0  0  0  0  0  0  0  0  0  0
  -23.5600  -32.1470   23.7350 O   0  0  0  0  0  0  0  0  0  0  0  0
  -22.7750  -29.4440   22.5360 C   0  0  0  0  0  0  0  0  0  0  0  0
  -21.4490  -29.2650   22.4180 N   0  0  0  0  0  0  0  0  0  0  0  0
  -23.4590  -28.8200   23.3530 O   0  0  0  0  0  0  0  0  0  0  0  0
  -20.9590  -29.8210   21.7320 H   0  0  0  0  0  0  0  0  0  0  0  0
  -18.0740  -28.0810   22.9530 C   0  0  0  0  0  0  0  0  0  0  0  0
  -20.6340  -28.3360   23.2020 C   0  0  0  0  0  3  0  0  0  0  0  0
  -20.7300  -26.9020   22.6380 C   0  0  0  0  0  2  0  0  0  0  0  0
  -19.6200  -26.5730   21.6330 C   0  0  0  0  0  2  0  0  0  0  0  0
  -18.2420  -26.7270   22.2860 C   0  0  0  0  0  2  0  0  0  0  0  0
  -19.1980  -28.8440   23.3700 C   0  0  0  0  0  0  0  0  0  0  0  0
  -18.9870  -30.1090   23.9590 C   0  0  0  0  0  3  0  0  0  0  0  0
  -17.6860  -30.6150   24.1320 C   0  0  0  0  0  3  0  0  0  0  0  0
  -16.5760  -29.8500   23.7310 C   0  0  0  0  0  3  0  0  0  0  0  0
  -16.7710  -28.5850   23.1480 C   0  0  0  0  0  3  0  0  0  0  0  0
  -25.9280  -32.5070   23.8050 C   0  0  0  0  0  3  0  0  0  0  0  0
  -25.6110  -33.8980   24.1550 N   0  0  0  0  0  0  0  0  0  0  0  0
  -25.9240  -34.9620   23.4040 C   0  0  0  0  0  0  0  0  0  0  0  0
  -26.5880  -34.8770   22.3660 O   0  0  0  0  0  0  0  0  0  0  0  0
  -25.0300  -34.0380   24.9690 H   0  0  0  0  0  0  0  0  0  0  0  0
  -24.1890  -36.7460   23.0690 C   0  0  0  0  0  1  0  0  0  0  0  0
  -25.4290  -36.3400   23.8810 C   0  0  0  0  0  3  0  0  0  0  0  0
  -27.5540  -37.2200   24.7390 C   0  0  0  0  0  1  0  0  0  0  0  0
  -26.4540  -37.4020   23.7930 N   0  0  0  0  0  0  0  0  0  0  0  0
  -26.0420  -38.3160   23.9580 H   0  0  0  0  0  0  0  0  0  0  0  0
  -26.4680  -31.7300   25.0670 C   0  0  1  0  0  0  0  0  0  0  0  0
  -25.3890  -31.4710   26.1430 C   0  0  0  0  0  1  0  0  0  0  0  0
  -27.0590  -30.3620   24.6560 C   0  0  0  0  0  1  0  0  0  0  0  0
  -27.6190  -32.5290   25.7240 C   0  0  0  0  0  1  0  0  0  0  0  0
  -29.1930  -19.4380   20.3340 C   0  0  0  0  0  2  0  0  0  0  0  0
  -31.7200  -18.9250   20.3540 C   0  0  0  0  0  1  0  0  0  0  0  0
  -30.2630  -18.0220   22.1660 C   0  0  0  0  0  1  0  0  0  0  0  0
  -30.3230  -18.3520   20.6590 C   0  0  1  0  0  0  0  0  0  0  0  0
  -30.1290  -16.9980   19.8280 C   0  0  0  0  0  2  0  0  0  0  0  0
  -30.8820  -14.5840   20.2190 C   0  0  0  0  0  0  0  0  0  0  0  0
  -30.5930  -12.3460   19.2070 C   0  0  0  0  0  2  0  0  0  0  0  0
  -29.6490  -12.5010   17.9940 C   0  0  0  0  0  2  0  0  0  0  0  0
  -28.1760  -12.3840   18.4300 C   0  0  0  0  0  2  0  0  0  0  0  0
  -27.8440  -13.2630   19.6650 C   0  0  0  0  0  3  0  0  0  0  0  0
  -28.9080  -13.1010   20.7790 C   0  0  0  0  0  2  0  0  0  0  0  0
  -30.2290  -13.3840   20.1930 N   0  0  0  0  0  0  0  0  0  0  0  0
  -32.0210  -14.7170   19.7650 O   0  0  0  0  0  0  0  0  0  0  0  0
  -30.1220  -15.6710   20.5270 N   0  0  0  0  0  0  0  0  0  0  0  0
  -29.2490  -15.4380   20.9770 H   0  0  0  0  0  0  0  0  0  0  0  0
  -25.4650  -13.9090   20.3970 C   0  0  0  0  0  0  0  0  0  0  0  0
  -24.3870  -13.1570   20.7770 C   0  0  0  0  0  0  0  0  0  0  0  0
  -24.8220  -11.7970   20.7430 C   0  0  0  0  0  0  0  0  0  0  0  0
  -26.4930  -13.0080   20.1580 N   0  0  0  0  0  0  0  0  0  0  0  0
  -26.1090  -11.7330   20.4250 N   0  0  0  0  0  0  0  0  0  0  0  0
  -24.0730  -10.5480   20.9420 C   0  0  0  0  0  0  0  0  0  0  0  0
  -24.4730   -9.5890   21.8980 C   0  0  0  0  0  3  0  0  0  0  0  0
  -23.7260   -8.4060   22.0830 C   0  0  0  0  0  3  0  0  0  0  0  0
  -22.5620   -8.1730   21.3130 C   0  0  0  0  0  0  0  0  0  0  0  0
  -22.1790   -9.1210   20.3460 C   0  0  0  0  0  3  0  0  0  0  0  0
  -22.9290  -10.2950   20.1590 C   0  0  0  0  0  3  0  0  0  0  0  0
  -21.7880   -7.0410   21.4060 O   0  0  0  0  0  0  0  0  0  0  0  0
  -21.6780   -6.3400   22.5790 C   0  0  0  0  0  0  0  0  0  0  0  0
  -21.2030   -6.9430   23.7640 C   0  0  0  0  0  3  0  0  0  0  0  0
  -21.0350   -6.1700   24.9290 C   0  0  0  0  0  3  0  0  0  0  0  0
  -21.3350   -4.7950   24.9130 C   0  0  0  0  0  0  0  0  0  0  0  0
  -21.8040   -4.1910   23.7330 C   0  0  0  0  0  3  0  0  0  0  0  0
  -21.9720   -4.9610   22.5690 C   0  0  0  0  0  0  0  0  0  0  0  0
  -22.4030   -4.3710   21.4280 F   0  0  0  0  0  0  0  0  0  0  0  0
  -21.1680   -4.0490   26.0300 F   0  0  0  0  0  0  0  0  0  0  0  0
  -23.0000  -13.6600   21.0620 C   0  0  0  0  0  0  0  0  0  0  0  0
  -22.2710  -12.9860   21.9440 N   0  0  0  0  0  0  0  0  0  0  0  0
  -22.5740  -14.6870   20.5360 O   0  0  0  0  0  0  0  0  0  0  0  0
  -22.6300  -12.1560   22.3910 H   0  0  0  0  0  0  0  0  0  0  0  0
  -21.3420  -13.3060   22.1780 H   0  0  0  0  0  0  0  0  0  0  0  0
  -25.6530  -15.2750   20.2150 N   0  0  0  0  0  0  0  0  0  0  0  0
  -24.8980  -15.9450   20.3220 H   0  0  0  0  0  0  0  0  0  0  0  0
  -26.5090  -15.6980   19.8800 H   0  0  0  0  0  0  0  0  0  0  0  0
  1  2  1  0
  3  1  2  0
  4 51  1  0
  4  2  2  0
  5  6  2  0
  5  3  1  0
  6  4  1  0
  7  8  1  0
  8  5  1  0
  9  3  1  0
  9 10  1  0
 11 22  2  0
 12 10  1  0
 12 17  1  0
 13 21  1  0
 13 23  1  0
 14 20  1  0
 14 16  1  0
 15 21  1  0
 16 17  2  0
 16 15  1  0
 18 19  1  0
 18 12  2  0
 19 14  2  0
 20 13  1  0
 21 11  1  0
 23 25  2  0
 24 23  1  0
 26 24  1  0
 27 36  2  0
 27 32  1  0
 28 24  1  0
 28 32  1  0
 29 28  1  0
 30 31  1  0
 30 29  1  0
 31 27  1  0
 32 33  2  0
 33 34  1  0
 35 34  2  0
 36 35  1  0
 37 11  1  0
 37 38  1  0
 37 47  1  0
 38 41  1  0
 39 43  1  0
 39 38  1  0
 40 39  2  0
 43 42  1  0
 45 43  1  0
 45 46  1  0
 45 44  1  0
 47 50  1  1
 47 48  1  0
 49 47  1  0
 51 54  1  0
 54 52  1  1
 54 53  1  0
 55 64  1  0
 55 54  1  0
 56 64  1  0
 57 62  1  0
 58 59  1  0
 58 57  1  0
 60 59  1  0
 60 69  1  0
 60 61  1  0
 62 56  1  0
 62 61  1  0
 63 56  2  0
 64 65  1  0
 66 67  2  0
 67 86  1  0
 68 67  1  0
 68 71  1  0
 69 66  1  0
 69 70  1  0
 70 68  2  0
 71 72  1  0
 72 73  2  0
 74 77  1  0
 74 73  1  0
 75 74  2  0
 76 75  1  0
 76 71  2  0
 77 78  1  0
 78 79  1  0
 79 80  2  0
 81 80  1  0
 81 85  1  0
 82 81  2  0
 83 78  2  0
 83 82  1  0
 84 83  1  0
 86 87  1  0
 87 90  1  0
 87 89  1  0
 88 86  2  0
 91 92  1  0
 91 66  1  0
 93 91  1  0
M  ISO  4   9 101  10 101  56 100  64 100
M  END
>  <TORSDO>  (52) 
F 21

>  <SCORE>  (52) 
-13.356

>  <name>  (52) 
52

>  <ligand_id>  (52) 
52

>  <original_smiles>  (52) 
[H]c1c(C([H])([H])C(C([H])([H])[H])(C([H])([H])[H])C([H])([H])N([H])C(=O)N2C([H])([H])C([H])([H])C([H])([H])C([H])(n3nc(-c4c([H])c([H])c(Oc5c([H])c([H])c(F)c([H])c5F)c([H])c4[H])c(C(=O)N([H])[H])c3N([H])[H])C2([H])[H])nc(C([H])([H])C([H])([H])[H])c(C([H])([H])Oc2c([H])c([H])c3c(c2[H])C([H])([H])N(C(=O)C([H])(N([H])C(=O)C([H])(N([H])C([H])([H])[H])C([H])([H])[H])C(C([H])([H])[H])(C([H])([H])[H])C([H])([H])[H])C([H])(C(=O)N([H])C2([H])c4c([H])c([H])c([H])c([H])c4C([H])([H])C([H])([H])C2([H])[H])C3([H])[H])c1[H]

>  <smiles>  (52) 
[H]c1c(C([H])([H])C(C([H])([H])[H])(C([H])([H])[H])C([H])([H])N([H])C(=O)N2C([H])([H])C([H])([H])C([H])([H])C([H])(n3nc(-c4c([H])c([H])c(Oc5c([H])c([H])c(F)c([H])c5F)c([H])c4[H])c(C(=O)N([H])[H])c3N([H])[H])C2([H])[H])nc(C([H])([H])C([H])([H])[H])c(C([H])([H])Oc2c([H])c([H])c3c(c2[H])C([H])([H])N(C(=O)C([H])(N([H])C(=O)C([H])(N([H])C([H])([H])[H])C([H])([H])[H])C(C([H])([H])[H])(C([H])([H])[H])C([H])([H])[H])C([H])(C(=O)N([H])C2([H])c4c([H])c([H])c([H])c([H])c4C([H])([H])C([H])([H])C2([H])[H])C3([H])[H])c1[H]

$$$$
53:0:0
     RDKit          3D

 94102  0  0  1  0  0  0  0  0999 V2000
  -29.9730  -21.1280   22.3710 C   0  0  0  0  0  3  0  0  0  0  0  0
  -29.9920  -20.1420   20.1970 C   0  0  0  0  0  3  0  0  0  0  0  0
  -29.6310  -21.2810   21.0070 C   0  0  0  0  0  0  0  0  0  0  0  0
  -30.5460  -19.9270   22.8440 C   0  0  0  0  0  0  0  0  0  0  0  0
  -30.5720  -18.9320   20.7460 C   0  0  0  0  0  0  0  0  0  0  0  0
  -30.8570  -19.7370   24.3110 C   0  0  0  0  0  1  0  0  0  0  0  0
  -30.8330  -18.8600   22.0650 N   0  0  0  0  0  0  0  0  0  0  0  0
  -27.9170  -22.1040   19.2850 C   0  0  0  0  0  1  0  0  0  0  0  0
  -27.6020  -22.6320   21.6680 C   0  0  0  0  0  1  0  0  0  0  0  0
  -28.6860  -22.5040   20.5600 C   0  0  1  0  0  0  0  0  0  0  0  0
  -29.3010  -23.9940   20.3460 C   0  0  0  0  0  3  0  0  0  0  0  0
  -28.2860  -25.1310   19.8080 C   0  0  0  0  0  3  0  0  0  0  0  0
  -28.5370  -26.5980   19.6990 O   0  0  0  0  0  0  0  0  0  0  0  0
  -24.5580  -31.5860   23.0090 C   0  0  0  0  0  0  0  0  0  0  0  0
  -27.3890  -27.4160   19.6380 C   0  0  0  0  0  0  0  0  0  0  0  0
  -23.4040  -30.1830   21.3410 C   0  0  0  0  0  3  0  0  0  0  0  0
  -24.9160  -28.8520   19.7660 C   0  0  0  0  0  0  0  0  0  0  0  0
  -25.9050  -30.7200   21.0880 C   0  0  0  0  0  2  0  0  0  0  0  0
  -26.0660  -29.3960   20.3500 C   0  0  0  0  0  0  0  0  0  0  0  0
  -27.3070  -28.6950   20.2710 C   0  0  0  0  0  3  0  0  0  0  0  0
  -26.2140  -26.9480   18.9960 C   0  0  0  0  0  3  0  0  0  0  0  0
  -24.9920  -27.6390   19.0700 C   0  0  0  0  0  3  0  0  0  0  0  0
  -23.6140  -29.6130   19.9140 C   0  0  0  0  0  2  0  0  0  0  0  0
  -24.6410  -30.8450   21.8670 N   0  0  0  0  0  0  0  0  0  0  0  0
  -23.4790  -31.7440   23.5980 O   0  0  0  0  0  0  0  0  0  0  0  0
  -22.8670  -29.0590   22.2590 C   0  0  0  0  0  0  0  0  0  0  0  0
  -21.5770  -28.7130   22.1040 N   0  0  0  0  0  0  0  0  0  0  0  0
  -23.6090  -28.5050   23.0730 O   0  0  0  0  0  0  0  0  0  0  0  0
  -21.0310  -29.2160   21.4200 H   0  0  0  0  0  0  0  0  0  0  0  0
  -18.3960  -27.0250   22.4570 C   0  0  0  0  0  0  0  0  0  0  0  0
  -20.8740  -27.6600   22.8390 C   0  0  0  0  0  3  0  0  0  0  0  0
  -21.2150  -26.2620   22.2710 C   0  0  0  0  0  2  0  0  0  0  0  0
  -20.2190  -25.7860   21.2110 C   0  0  0  0  0  2  0  0  0  0  0  0
  -18.8020  -25.7210   21.7900 C   0  0  0  0  0  2  0  0  0  0  0  0
  -19.3690  -27.9430   22.9340 C   0  0  0  0  0  0  0  0  0  0  0  0
  -18.9390  -29.1590   23.5090 C   0  0  0  0  0  3  0  0  0  0  0  0
  -17.5680  -29.4590   23.6180 C   0  0  0  0  0  3  0  0  0  0  0  0
  -16.6090  -28.5360   23.1620 C   0  0  0  0  0  3  0  0  0  0  0  0
  -17.0240  -27.3250   22.5840 C   0  0  0  0  0  3  0  0  0  0  0  0
  -25.8100  -32.2880   23.6180 C   0  0  0  0  0  3  0  0  0  0  0  0
  -26.4100  -31.5260   24.8630 C   0  0  1  0  0  0  0  0  0  0  0  0
  -25.3630  -31.1770   25.9470 C   0  0  0  0  0  1  0  0  0  0  0  0
  -27.0860  -30.2090   24.4240 C   0  0  0  0  0  1  0  0  0  0  0  0
  -27.5180  -32.3870   25.5190 C   0  0  0  0  0  1  0  0  0  0  0  0
  -25.4140  -33.6540   23.9910 N   0  0  0  0  0  0  0  0  0  0  0  0
  -25.7080  -34.7530   23.2860 C   0  0  0  0  0  0  0  0  0  0  0  0
  -26.4100  -34.7310   22.2710 O   0  0  0  0  0  0  0  0  0  0  0  0
  -24.7950  -33.7460   24.7830 H   0  0  0  0  0  0  0  0  0  0  0  0
  -23.9040  -36.4700   22.9450 C   0  0  0  0  0  1  0  0  0  0  0  0
  -25.1330  -36.0930   23.7880 C   0  0  0  0  0  3  0  0  0  0  0  0
  -27.1790  -37.0390   24.7550 C   0  0  0  0  0  1  0  0  0  0  0  0
  -26.1110  -37.2020   23.7700 N   0  0  0  0  0  0  0  0  0  0  0  0
  -25.6520  -38.0900   23.9500 H   0  0  0  0  0  0  0  0  0  0  0  0
  -32.6390  -17.9630   19.8000 C   0  0  0  0  0  1  0  0  0  0  0  0
  -30.5260  -17.8120   18.4720 C   0  0  0  0  0  1  0  0  0  0  0  0
  -31.1140  -17.7030   19.8900 C   0  0  2  0  0  0  0  0  0  0  0  0
  -31.4480  -15.0680   20.0430 C   0  0  0  0  0  0  0  0  0  0  0  0
  -31.0850  -12.7940   19.0700 C   0  0  0  0  0  2  0  0  0  0  0  0
  -30.1440  -12.9120   17.8520 C   0  0  0  0  0  2  0  0  0  0  0  0
  -28.6810  -12.7880   18.3060 C   0  0  0  0  0  2  0  0  0  0  0  0
  -28.3610  -13.6920   19.5260 C   0  0  0  0  0  3  0  0  0  0  0  0
  -29.4350  -13.6030   20.6310 C   0  0  0  0  0  2  0  0  0  0  0  0
  -30.7370  -13.8860   20.0150 N   0  0  0  0  0  0  0  0  0  0  0  0
  -32.5920  -15.0620   19.5870 O   0  0  0  0  0  0  0  0  0  0  0  0
  -30.8210  -16.2640   20.3750 N   0  0  0  0  0  0  0  0  0  0  0  0
  -29.9530  -16.1800   20.8850 H   0  0  0  0  0  0  0  0  0  0  0  0
  -26.0170  -14.3510   20.3310 C   0  0  0  0  0  0  0  0  0  0  0  0
  -24.9370  -13.6110   20.7150 C   0  0  0  0  0  0  0  0  0  0  0  0
  -25.3460  -12.2440   20.6400 C   0  0  0  0  0  0  0  0  0  0  0  0
  -27.0210  -13.4410   20.0440 N   0  0  0  0  0  0  0  0  0  0  0  0
  -26.6250  -12.1660   20.2920 N   0  0  0  0  0  0  0  0  0  0  0  0
  -24.5770  -11.0070   20.8290 C   0  0  0  0  0  0  0  0  0  0  0  0
  -24.9310  -10.0590   21.8160 C   0  0  0  0  0  3  0  0  0  0  0  0
  -24.1630   -8.8870   21.9930 C   0  0  0  0  0  3  0  0  0  0  0  0
  -23.0290   -8.6500   21.1820 C   0  0  0  0  0  0  0  0  0  0  0  0
  -22.6910   -9.5860   20.1860 C   0  0  0  0  0  3  0  0  0  0  0  0
  -23.4580  -10.7520   20.0090 C   0  0  0  0  0  3  0  0  0  0  0  0
  -22.2400   -7.5280   21.2620 O   0  0  0  0  0  0  0  0  0  0  0  0
  -22.0080   -6.8970   22.4570 C   0  0  0  0  0  0  0  0  0  0  0  0
  -21.3910   -7.5580   23.5410 C   0  0  0  0  0  3  0  0  0  0  0  0
  -21.1070   -6.8540   24.7270 C   0  0  0  0  0  3  0  0  0  0  0  0
  -21.4300   -5.4870   24.8280 C   0  0  0  0  0  0  0  0  0  0  0  0
  -22.0360   -4.8230   23.7470 C   0  0  0  0  0  3  0  0  0  0  0  0
  -22.3220   -5.5260   22.5650 C   0  0  0  0  0  0  0  0  0  0  0  0
  -22.8890   -4.8790   21.5170 F   0  0  0  0  0  0  0  0  0  0  0  0
  -21.1490   -4.8060   25.9640 F   0  0  0  0  0  0  0  0  0  0  0  0
  -23.5680  -14.1310   21.0400 C   0  0  0  0  0  0  0  0  0  0  0  0
  -22.8540  -13.4580   21.9320 N   0  0  0  0  0  0  0  0  0  0  0  0
  -23.1470  -15.1740   20.5400 O   0  0  0  0  0  0  0  0  0  0  0  0
  -23.2150  -12.6180   22.3610 H   0  0  0  0  0  0  0  0  0  0  0  0
  -21.9320  -13.7850   22.1870 H   0  0  0  0  0  0  0  0  0  0  0  0
  -26.2310  -15.7190   20.1760 N   0  0  0  0  0  0  0  0  0  0  0  0
  -25.4990  -16.4040   20.3240 H   0  0  0  0  0  0  0  0  0  0  0  0
  -27.0860  -16.1270   19.8240 H   0  0  0  0  0  0  0  0  0  0  0  0
  1  4  1  0
  2  5  2  0
  2  3  1  0
  3  1  2  0
  4  6  1  0
  5  7  1  0
  7  4  2  0
 10  8  1  6
 10  3  1  0
 10  9  1  0
 11 10  1  0
 12 11  2  0
 13 12  1  0
 14 25  2  0
 15 13  1  0
 15 20  1  0
 16 24  1  0
 16 26  1  0
 17 23  1  0
 17 19  1  0
 18 24  1  0
 19 18  1  0
 20 19  2  0
 21 22  1  0
 21 15  2  0
 22 17  2  0
 23 16  1  0
 24 14  1  0
 26 28  2  0
 27 26  1  0
 29 27  1  0
 30 39  2  0
 30 35  1  0
 31 27  1  0
 31 35  1  0
 32 31  1  0
 33 34  1  0
 33 32  1  0
 34 30  1  0
 35 36  2  0
 36 37  1  0
 38 37  2  0
 39 38  1  0
 40 14  1  0
 40 45  1  0
 40 41  1  0
 41 44  1  1
 41 42  1  0
 43 41  1  0
 45 48  1  0
 46 50  1  0
 46 45  1  0
 47 46  2  0
 50 49  1  0
 52 50  1  0
 52 53  1  0
 52 51  1  0
 56 54  1  6
 55 56  1  0
 56 65  1  0
 56  5  1  0
 57 65  1  0
 58 63  1  0
 59 60  1  0
 59 58  1  0
 61 60  1  0
 61 70  1  0
 61 62  1  0
 63 57  1  0
 63 62  1  0
 64 57  2  0
 65 66  1  0
 67 68  2  0
 68 87  1  0
 69 68  1  0
 69 72  1  0
 70 71  1  0
 70 67  1  0
 71 69  2  0
 72 73  1  0
 73 74  2  0
 75 78  1  0
 75 74  1  0
 76 75  2  0
 77 76  1  0
 77 72  2  0
 78 79  1  0
 79 84  2  0
 79 80  1  0
 80 81  2  0
 81 82  1  0
 82 86  1  0
 83 82  2  0
 84 83  1  0
 85 84  1  0
 87 88  1  0
 88 91  1  0
 88 90  1  0
 89 87  2  0
 92 93  1  0
 92 67  1  0
 94 92  1  0
M  ISO  4  12 101  13 101  57 100  65 100
M  END
>  <TORSDO>  (53) 
F 20

>  <SCORE>  (53) 
-11.777

>  <name>  (53) 
53

>  <ligand_id>  (53) 
53

>  <original_smiles>  (53) 
[H]c1c([H])c([H])c2c(c1[H])C([H])([H])C([H])([H])C([H])([H])C2([H])N([H])C(=O)C1([H])N(C(=O)C([H])(N([H])C(=O)C([H])(N([H])C([H])([H])[H])C([H])([H])[H])C(C([H])([H])[H])(C([H])([H])[H])C([H])([H])[H])C([H])([H])c2c([H])c(OC([H])([H])C([H])([H])C(c3c([H])c(C([H])([H])[H])nc(C(N([H])C(=O)N4C([H])([H])C([H])([H])C([H])([H])C([H])(n5nc(-c6c([H])c([H])c(Oc7c([H])c([H])c(F)c([H])c7F)c([H])c6[H])c(C(=O)N([H])[H])c5N([H])[H])C4([H])[H])(C([H])([H])[H])C([H])([H])[H])c3[H])(C([H])([H])[H])C([H])([H])[H])c([H])c([H])c2C1([H])[H]

>  <smiles>  (53) 
[H]c1c([H])c([H])c2c(c1[H])C([H])([H])C([H])([H])C([H])([H])C2([H])N([H])C(=O)C1([H])N(C(=O)C([H])(N([H])C(=O)C([H])(N([H])C([H])([H])[H])C([H])([H])[H])C(C([H])([H])[H])(C([H])([H])[H])C([H])([H])[H])C([H])([H])c2c([H])c(OC([H])([H])C([H])([H])C(c3c([H])c(C([H])([H])[H])nc(C(N([H])C(=O)N4C([H])([H])C([H])([H])C([H])([H])C([H])(n5nc(-c6c([H])c([H])c(Oc7c([H])c([H])c(F)c([H])c7F)c([H])c6[H])c(C(=O)N([H])[H])c5N([H])[H])C4([H])[H])(C([H])([H])[H])C([H])([H])[H])c3[H])(C([H])([H])[H])C([H])([H])[H])c([H])c([H])c2C1([H])[H]

$$$$
54:0:0
     RDKit          3D

 94102  0  0  1  0  0  0  0  0999 V2000
  -29.2540  -20.4720   20.6840 C   0  0  0  0  0  2  0  0  0  0  0  0
  -31.1720  -19.8580   19.1140 C   0  0  0  0  0  3  0  0  0  0  0  0
  -30.2600  -19.4810   20.0610 C   0  0  0  0  0  0  0  0  0  0  0  0
  -30.5560  -18.0630   20.2530 C   0  0  0  0  0  0  0  0  0  0  0  0
  -33.0490  -18.7090   17.8630 C   0  0  0  0  0  1  0  0  0  0  0  0
  -31.5470  -17.6770   19.4570 N   0  0  0  0  0  0  0  0  0  0  0  0
  -31.9310  -18.7710   18.7790 N   0  0  0  0  0  0  0  0  0  0  0  0
  -30.9000  -17.0820   22.5640 C   0  0  0  0  0  1  0  0  0  0  0  0
  -30.0490  -17.0320   21.2830 C   0  0  0  0  0  3  0  0  0  0  0  0
  -30.6220  -14.5880   20.4490 C   0  0  0  0  0  0  0  0  0  0  0  0
  -30.3820  -12.3930   19.3080 C   0  0  0  0  0  2  0  0  0  0  0  0
  -29.4350  -12.5550   18.1000 C   0  0  0  0  0  2  0  0  0  0  0  0
  -27.9620  -12.3940   18.5270 C   0  0  0  0  0  2  0  0  0  0  0  0
  -27.6080  -13.2490   19.7740 C   0  0  0  0  0  3  0  0  0  0  0  0
  -28.6620  -13.0550   20.8840 C   0  0  0  0  0  2  0  0  0  0  0  0
  -29.9780  -13.3910   20.3130 N   0  0  0  0  0  0  0  0  0  0  0  0
  -31.7950  -14.7340   20.0930 O   0  0  0  0  0  0  0  0  0  0  0  0
  -29.8310  -15.6090   20.8720 N   0  0  0  0  0  0  0  0  0  0  0  0
  -28.8840  -15.3020   21.0310 H   0  0  0  0  0  0  0  0  0  0  0  0
  -25.2100  -13.8640   20.4730 C   0  0  0  0  0  0  0  0  0  0  0  0
  -24.1390  -13.0960   20.8470 C   0  0  0  0  0  0  0  0  0  0  0  0
  -24.6000  -11.7440   20.8280 C   0  0  0  0  0  0  0  0  0  0  0  0
  -26.2540  -12.9790   20.2520 N   0  0  0  0  0  0  0  0  0  0  0  0
  -25.8930  -11.7010   20.5270 N   0  0  0  0  0  0  0  0  0  0  0  0
  -23.8720  -10.4850   21.0240 C   0  0  0  0  0  0  0  0  0  0  0  0
  -24.3070   -9.5200   21.9590 C   0  0  0  0  0  3  0  0  0  0  0  0
  -23.5800   -8.3230   22.1440 C   0  0  0  0  0  3  0  0  0  0  0  0
  -22.4030   -8.0840   21.3930 C   0  0  0  0  0  0  0  0  0  0  0  0
  -21.9890   -9.0390   20.4460 C   0  0  0  0  0  3  0  0  0  0  0  0
  -22.7170  -10.2260   20.2590 C   0  0  0  0  0  3  0  0  0  0  0  0
  -21.6490   -6.9400   21.4860 O   0  0  0  0  0  0  0  0  0  0  0  0
  -21.6120   -6.1930   22.6370 C   0  0  0  0  0  0  0  0  0  0  0  0
  -21.2110   -6.7480   23.8720 C   0  0  0  0  0  3  0  0  0  0  0  0
  -21.1200   -5.9280   25.0150 C   0  0  0  0  0  3  0  0  0  0  0  0
  -21.4200   -4.5550   24.9230 C   0  0  0  0  0  0  0  0  0  0  0  0
  -21.8160   -4.0010   23.6930 C   0  0  0  0  0  3  0  0  0  0  0  0
  -21.9090   -4.8180   22.5530 C   0  0  0  0  0  0  0  0  0  0  0  0
  -22.2680   -4.2750   21.3650 F   0  0  0  0  0  0  0  0  0  0  0  0
  -21.3270   -3.7650   26.0190 F   0  0  0  0  0  0  0  0  0  0  0  0
  -22.7410  -13.5760   21.1060 C   0  0  0  0  0  0  0  0  0  0  0  0
  -22.0060  -12.8890   21.9730 N   0  0  0  0  0  0  0  0  0  0  0  0
  -22.3080  -14.5970   20.5730 O   0  0  0  0  0  0  0  0  0  0  0  0
  -22.3710  -12.0640   22.4270 H   0  0  0  0  0  0  0  0  0  0  0  0
  -21.0640  -13.1880   22.1830 H   0  0  0  0  0  0  0  0  0  0  0  0
  -25.3780  -15.2320   20.2780 N   0  0  0  0  0  0  0  0  0  0  0  0
  -24.6070  -15.8840   20.3670 H   0  0  0  0  0  0  0  0  0  0  0  0
  -26.2120  -15.6580   19.8960 H   0  0  0  0  0  0  0  0  0  0  0  0
  -29.8830  -21.8250   21.2000 C   0  0  0  0  0  2  0  0  0  0  0  0
  -30.9020  -24.0940   20.9270 C   0  0  0  0  0  1  0  0  0  0  0  0
  -29.7580  -23.1250   18.9500 C   0  0  0  0  0  1  0  0  0  0  0  0
  -29.6870  -23.2450   20.4870 C   0  0  1  0  0  0  0  0  0  0  0  0
  -28.3530  -24.0200   20.8670 C   0  0  0  0  0  2  0  0  0  0  0  0
  -28.3590  -25.5590   21.2590 C   0  0  0  0  0  2  0  0  0  0  0  0
  -28.3850  -26.5880   20.2300 O   0  0  0  0  0  0  0  0  0  0  0  0
  -24.6040  -31.8850   23.2410 C   0  0  0  0  0  0  0  0  0  0  0  0
  -27.2610  -27.4000   20.2010 C   0  0  0  0  0  0  0  0  0  0  0  0
  -23.4080  -30.4780   21.5970 C   0  0  0  0  0  3  0  0  0  0  0  0
  -24.8730  -28.9340   20.1820 C   0  0  0  0  0  0  0  0  0  0  0  0
  -25.9400  -30.8270   21.4150 C   0  0  0  0  0  2  0  0  0  0  0  0
  -26.0300  -29.4510   20.7790 C   0  0  0  0  0  0  0  0  0  0  0  0
  -27.2300  -28.6930   20.7840 C   0  0  0  0  0  3  0  0  0  0  0  0
  -26.0910  -26.9090   19.5900 C   0  0  0  0  0  3  0  0  0  0  0  0
  -24.9010  -27.6640   19.5800 C   0  0  0  0  0  3  0  0  0  0  0  0
  -23.6290  -29.8000   20.2200 C   0  0  0  0  0  2  0  0  0  0  0  0
  -24.6700  -31.0780   22.1430 N   0  0  0  0  0  0  0  0  0  0  0  0
  -23.5210  -32.1570   23.7750 O   0  0  0  0  0  0  0  0  0  0  0  0
  -22.7510  -29.4590   22.5570 C   0  0  0  0  0  0  0  0  0  0  0  0
  -21.4280  -29.2730   22.4230 N   0  0  0  0  0  0  0  0  0  0  0  0
  -23.4300  -28.8380   23.3800 O   0  0  0  0  0  0  0  0  0  0  0  0
  -20.9370  -29.8260   21.7330 H   0  0  0  0  0  0  0  0  0  0  0  0
  -18.0530  -28.0710   22.9050 C   0  0  0  0  0  0  0  0  0  0  0  0
  -20.6080  -28.3370   23.1950 C   0  0  0  0  0  3  0  0  0  0  0  0
  -20.7200  -26.9040   22.6260 C   0  0  0  0  0  2  0  0  0  0  0  0
  -19.6270  -26.5730   21.6060 C   0  0  0  0  0  2  0  0  0  0  0  0
  -18.2390  -26.7180   22.2380 C   0  0  0  0  0  2  0  0  0  0  0  0
  -19.1670  -28.8380   23.3400 C   0  0  0  0  0  0  0  0  0  0  0  0
  -18.9390  -30.1030   23.9230 C   0  0  0  0  0  3  0  0  0  0  0  0
  -17.6330  -30.6010   24.0790 C   0  0  0  0  0  3  0  0  0  0  0  0
  -16.5340  -29.8300   23.6620 C   0  0  0  0  0  3  0  0  0  0  0  0
  -16.7450  -28.5690   23.0780 C   0  0  0  0  0  3  0  0  0  0  0  0
  -25.8860  -32.5210   23.8640 C   0  0  0  0  0  3  0  0  0  0  0  0
  -25.5740  -33.9180   24.1930 N   0  0  0  0  0  0  0  0  0  0  0  0
  -25.9070  -34.9700   23.4330 C   0  0  0  0  0  0  0  0  0  0  0  0
  -26.5800  -34.8660   22.4030 O   0  0  0  0  0  0  0  0  0  0  0  0
  -24.9810  -34.0740   24.9940 H   0  0  0  0  0  0  0  0  0  0  0  0
  -24.1790  -36.7550   23.0630 C   0  0  0  0  0  1  0  0  0  0  0  0
  -25.4160  -36.3580   23.8840 C   0  0  0  0  0  3  0  0  0  0  0  0
  -27.5470  -37.2430   24.7250 C   0  0  0  0  0  1  0  0  0  0  0  0
  -26.4490  -37.4110   23.7760 N   0  0  0  0  0  0  0  0  0  0  0  0
  -26.0420  -38.3310   23.9210 H   0  0  0  0  0  0  0  0  0  0  0  0
  -26.4030  -31.7500   25.1400 C   0  0  1  0  0  0  0  0  0  0  0  0
  -25.3100  -31.5070   26.2050 C   0  0  0  0  0  1  0  0  0  0  0  0
  -26.9910  -30.3740   24.7480 C   0  0  0  0  0  1  0  0  0  0  0  0
  -27.5550  -32.5430   25.8000 C   0  0  0  0  0  1  0  0  0  0  0  0
  1 48  1  0
  2  3  2  0
  3  4  1  0
  3  1  1  0
  4  9  1  0
  5  7  1  0
  6  4  2  0
  7  2  1  0
  7  6  1  0
  9  8  1  0
 10 18  1  0
 11 16  1  0
 12 13  1  0
 12 11  1  0
 14 13  1  0
 14 23  1  0
 14 15  1  0
 16 10  1  0
 16 15  1  0
 17 10  2  0
 18 19  1  0
 18  9  1  0
 20 21  2  0
 21 40  1  0
 22 21  1  0
 22 25  1  0
 23 20  1  0
 23 24  1  0
 24 22  2  0
 25 26  1  0
 26 27  2  0
 28 31  1  0
 28 27  1  0
 29 28  2  0
 30 29  1  0
 30 25  2  0
 31 32  1  0
 32 33  1  0
 33 34  2  0
 35 34  1  0
 35 39  1  0
 36 35  2  0
 37 32  2  0
 37 36  1  0
 38 37  1  0
 40 41  1  0
 41 44  1  0
 41 43  1  0
 42 40  2  0
 45 46  1  0
 45 20  1  0
 47 45  1  0
 51 50  1  6
 51 52  1  0
 51 49  1  0
 51 48  1  0
 52 53  1  0
 54 53  1  0
 55 66  2  0
 56 54  1  0
 56 61  1  0
 57 65  1  0
 57 67  1  0
 58 64  1  0
 58 60  1  0
 59 65  1  0
 60 61  2  0
 60 59  1  0
 62 56  2  0
 63 62  1  0
 63 58  2  0
 64 57  1  0
 65 55  1  0
 67 69  2  0
 68 67  1  0
 70 68  1  0
 71 80  2  0
 71 76  1  0
 72 68  1  0
 72 76  1  0
 73 72  1  0
 74 75  1  0
 74 73  1  0
 75 71  1  0
 76 77  2  0
 77 78  1  0
 79 78  2  0
 80 79  1  0
 81 55  1  0
 81 82  1  0
 81 91  1  0
 82 85  1  0
 83 87  1  0
 83 82  1  0
 84 83  2  0
 87 86  1  0
 89 87  1  0
 89 90  1  0
 89 88  1  0
 91 94  1  1
 91 92  1  0
 93 91  1  0
M  ISO  4  10 100  18 100  53 101  54 101
M  END
>  <TORSDO>  (54) 
F 22

>  <SCORE>  (54) 
-13.362

>  <name>  (54) 
54

>  <ligand_id>  (54) 
54

>  <original_smiles>  (54) 
[H]c1c([H])c([H])c2c(c1[H])C([H])([H])C([H])([H])C([H])([H])C2([H])N([H])C(=O)C1([H])N(C(=O)C([H])(N([H])C(=O)C([H])(N([H])C([H])([H])[H])C([H])([H])[H])C(C([H])([H])[H])(C([H])([H])[H])C([H])([H])[H])C([H])([H])c2c([H])c(OC([H])([H])C([H])([H])C(C([H])([H])[H])(C([H])([H])[H])C([H])([H])C([H])([H])c3c(C([H])(N([H])C(=O)N4C([H])([H])C([H])([H])C([H])([H])C([H])(n5nc(-c6c([H])c([H])c(Oc7c([H])c([H])c(F)c([H])c7F)c([H])c6[H])c(C(=O)N([H])[H])c5N([H])[H])C4([H])[H])C([H])([H])[H])nn(C([H])([H])[H])c3[H])c([H])c([H])c2C1([H])[H]

>  <smiles>  (54) 
[H]c1c([H])c([H])c2c(c1[H])C([H])([H])C([H])([H])C([H])([H])C2([H])N([H])C(=O)C1([H])N(C(=O)C([H])(N([H])C(=O)C([H])(N([H])C([H])([H])[H])C([H])([H])[H])C(C([H])([H])[H])(C([H])([H])[H])C([H])([H])[H])C([H])([H])c2c([H])c(OC([H])([H])C([H])([H])C(C([H])([H])[H])(C([H])([H])[H])C([H])([H])C([H])([H])c3c(C([H])(N([H])C(=O)N4C([H])([H])C([H])([H])C([H])([H])C([H])(n5nc(-c6c([H])c([H])c(Oc7c([H])c([H])c(F)c([H])c7F)c([H])c6[H])c(C(=O)N([H])[H])c5N([H])[H])C4([H])[H])C([H])([H])[H])nn(C([H])([H])[H])c3[H])c([H])c([H])c2C1([H])[H]

$$$$
55:0:0
     RDKit          3D

 91 99  0  0  1  0  0  0  0  0999 V2000
  -29.9860  -18.6160   20.8200 C   0  0  0  0  0  3  0  0  0  0  0  0
  -29.2790  -19.7120   20.2430 C   0  0  0  0  0  0  0  0  0  0  0  0
  -29.7110  -17.2690   20.3990 C   0  0  0  0  0  0  0  0  0  0  0  0
  -28.1200  -18.1690   18.9860 C   0  0  0  0  0  0  0  0  0  0  0  0
  -27.0300  -17.9190   17.9660 C   0  0  0  0  0  1  0  0  0  0  0  0
  -28.3600  -19.4450   19.2950 N   0  0  0  0  0  0  0  0  0  0  0  0
  -28.7280  -17.0930   19.4900 N   0  0  0  0  0  0  0  0  0  0  0  0
  -29.4010  -15.6400   22.2770 C   0  0  0  0  0  1  0  0  0  0  0  0
  -31.6770  -16.3500   21.7470 C   0  0  0  0  0  1  0  0  0  0  0  0
  -30.3230  -15.9700   21.0840 C   0  0  2  0  0  0  0  0  0  0  0  0
  -30.6790  -14.7050   20.1340 C   0  0  0  0  0  0  0  0  0  0  0  0
  -30.3090  -12.5600   18.8950 C   0  0  0  0  0  2  0  0  0  0  0  0
  -29.2960  -12.7710   17.7450 C   0  0  0  0  0  2  0  0  0  0  0  0
  -27.8430  -12.6170   18.2410 C   0  0  0  0  0  2  0  0  0  0  0  0
  -27.5910  -13.3940   19.5600 C   0  0  0  0  0  3  0  0  0  0  0  0
  -28.7050  -13.0930   20.5770 C   0  0  0  0  0  2  0  0  0  0  0  0
  -29.9820  -13.5190   19.9830 N   0  0  0  0  0  0  0  0  0  0  0  0
  -31.7300  -14.8160   19.4850 O   0  0  0  0  0  0  0  0  0  0  0  0
  -25.2550  -14.0130   20.4300 C   0  0  0  0  0  0  0  0  0  0  0  0
  -24.2000  -13.2460   20.8480 C   0  0  0  0  0  0  0  0  0  0  0  0
  -24.6410  -11.8890   20.7650 C   0  0  0  0  0  0  0  0  0  0  0  0
  -26.2690  -13.1210   20.1150 N   0  0  0  0  0  0  0  0  0  0  0  0
  -25.9070  -11.8380   20.3750 N   0  0  0  0  0  0  0  0  0  0  0  0
  -23.9090  -10.6320   20.9720 C   0  0  0  0  0  0  0  0  0  0  0  0
  -24.3760   -9.6420   21.8660 C   0  0  0  0  0  3  0  0  0  0  0  0
  -23.6490   -8.4470   22.0570 C   0  0  0  0  0  3  0  0  0  0  0  0
  -22.4370   -8.2340   21.3580 C   0  0  0  0  0  0  0  0  0  0  0  0
  -21.9870   -9.2130   20.4560 C   0  0  0  0  0  3  0  0  0  0  0  0
  -22.7150  -10.4000   20.2610 C   0  0  0  0  0  3  0  0  0  0  0  0
  -21.6730   -7.0980   21.4690 O   0  0  0  0  0  0  0  0  0  0  0  0
  -21.6680   -6.3400   22.6140 C   0  0  0  0  0  0  0  0  0  0  0  0
  -21.3190   -6.8850   23.8690 C   0  0  0  0  0  3  0  0  0  0  0  0
  -21.2630   -6.0540   25.0070 C   0  0  0  0  0  3  0  0  0  0  0  0
  -21.5430   -4.6790   24.8900 C   0  0  0  0  0  0  0  0  0  0  0  0
  -21.8840   -4.1340   23.6400 C   0  0  0  0  0  3  0  0  0  0  0  0
  -21.9430   -4.9610   22.5050 C   0  0  0  0  0  0  0  0  0  0  0  0
  -22.2510   -4.4270   21.2990 F   0  0  0  0  0  0  0  0  0  0  0  0
  -21.4800   -3.8790   25.9790 F   0  0  0  0  0  0  0  0  0  0  0  0
  -22.8290  -13.7370   21.2150 C   0  0  0  0  0  0  0  0  0  0  0  0
  -22.1440  -13.0330   22.1110 N   0  0  0  0  0  0  0  0  0  0  0  0
  -22.3750  -14.7760   20.7410 O   0  0  0  0  0  0  0  0  0  0  0  0
  -22.5190  -12.1830   22.5060 H   0  0  0  0  0  0  0  0  0  0  0  0
  -21.2290  -13.3500   22.4000 H   0  0  0  0  0  0  0  0  0  0  0  0
  -25.4390  -15.3840   20.2770 N   0  0  0  0  0  0  0  0  0  0  0  0
  -26.3150  -15.8070   19.9920 H   0  0  0  0  0  0  0  0  0  0  0  0
  -24.6960  -16.0570   20.4240 H   0  0  0  0  0  0  0  0  0  0  0  0
  -29.6330  -21.2230   20.5140 C   0  0  0  0  0  3  0  0  0  0  0  0
  -28.5210  -22.3650   20.4390 C   0  0  0  0  0  3  0  0  0  0  0  0
  -28.9850  -23.8960   20.5810 C   0  0  0  0  0  3  0  0  0  0  0  0
  -27.9290  -25.0240   20.2050 C   0  0  0  0  0  3  0  0  0  0  0  0
  -28.2310  -26.4760   20.3520 O   0  0  0  0  0  0  0  0  0  0  0  0
  -24.5610  -31.9890   23.2590 C   0  0  0  0  0  0  0  0  0  0  0  0
  -27.1390  -27.3630   20.2740 C   0  0  0  0  0  0  0  0  0  0  0  0
  -23.3520  -30.5700   21.6460 C   0  0  0  0  0  3  0  0  0  0  0  0
  -24.7910  -29.0000   20.2390 C   0  0  0  0  0  0  0  0  0  0  0  0
  -25.8940  -30.8720   21.4570 C   0  0  0  0  0  2  0  0  0  0  0  0
  -25.9660  -29.4840   20.8310 C   0  0  0  0  0  0  0  0  0  0  0  0
  -27.1450  -28.6770   20.8400 C   0  0  0  0  0  3  0  0  0  0  0  0
  -25.9420  -26.9450   19.6470 C   0  0  0  0  0  3  0  0  0  0  0  0
  -24.7830  -27.7360   19.6380 C   0  0  0  0  0  3  0  0  0  0  0  0
  -23.5620  -29.8800   20.2730 C   0  0  0  0  0  2  0  0  0  0  0  0
  -24.6210  -31.1630   22.1750 N   0  0  0  0  0  0  0  0  0  0  0  0
  -23.4780  -32.2790   23.7900 O   0  0  0  0  0  0  0  0  0  0  0  0
  -22.6880  -29.5660   22.6210 C   0  0  0  0  0  0  0  0  0  0  0  0
  -21.3670  -29.3680   22.4800 N   0  0  0  0  0  0  0  0  0  0  0  0
  -23.3620  -28.9700   23.4660 O   0  0  0  0  0  0  0  0  0  0  0  0
  -20.8810  -29.9020   21.7740 H   0  0  0  0  0  0  0  0  0  0  0  0
  -18.0000  -28.1290   22.9500 C   0  0  0  0  0  0  0  0  0  0  0  0
  -20.5470  -28.4440   23.2660 C   0  0  0  0  0  3  0  0  0  0  0  0
  -20.6870  -26.9950   22.7430 C   0  0  0  0  0  2  0  0  0  0  0  0
  -19.6130  -26.6160   21.7180 C   0  0  0  0  0  2  0  0  0  0  0  0
  -18.2150  -26.7610   22.3260 C   0  0  0  0  0  2  0  0  0  0  0  0
  -19.0950  -28.9250   23.3770 C   0  0  0  0  0  0  0  0  0  0  0  0
  -18.8420  -30.2050   23.9180 C   0  0  0  0  0  3  0  0  0  0  0  0
  -17.5250  -30.6870   24.0390 C   0  0  0  0  0  3  0  0  0  0  0  0
  -16.4440  -29.8880   23.6280 C   0  0  0  0  0  3  0  0  0  0  0  0
  -16.6820  -28.6120   23.0880 C   0  0  0  0  0  3  0  0  0  0  0  0
  -25.8460  -32.6300   23.8690 C   0  0  0  0  0  3  0  0  0  0  0  0
  -25.5390  -34.0350   24.1740 N   0  0  0  0  0  0  0  0  0  0  0  0
  -25.8550  -35.0710   23.3850 C   0  0  0  0  0  0  0  0  0  0  0  0
  -26.5060  -34.9470   22.3440 O   0  0  0  0  0  0  0  0  0  0  0  0
  -24.9620  -34.2060   24.9840 H   0  0  0  0  0  0  0  0  0  0  0  0
  -24.1040  -36.8440   23.0410 C   0  0  0  0  0  1  0  0  0  0  0  0
  -25.3730  -36.4690   23.8230 C   0  0  0  0  0  3  0  0  0  0  0  0
  -27.5270  -37.3870   24.5630 C   0  0  0  0  0  1  0  0  0  0  0  0
  -26.3940  -37.5250   23.6510 N   0  0  0  0  0  0  0  0  0  0  0  0
  -25.9860  -38.4450   23.7880 H   0  0  0  0  0  0  0  0  0  0  0  0
  -26.3600  -31.8810   25.1590 C   0  0  1  0  0  0  0  0  0  0  0  0
  -25.2640  -31.6550   26.2270 C   0  0  0  0  0  1  0  0  0  0  0  0
  -26.9510  -30.5000   24.7920 C   0  0  0  0  0  1  0  0  0  0  0  0
  -27.5040  -32.6910   25.8150 C   0  0  0  0  0  1  0  0  0  0  0  0
  2 47  1  0
  2  1  2  0
  3  1  1  0
  3 10  1  0
  4  6  2  0
  4  7  1  0
  5  4  1  0
  6  2  1  0
  7  3  2  0
 10  9  1  1
 10  8  1  0
 11 10  1  0
 12 17  1  0
 13 14  1  0
 13 12  1  0
 15 14  1  0
 15 22  1  0
 15 16  1  0
 17 11  1  0
 17 16  1  0
 18 11  2  0
 19 20  2  0
 20 39  1  0
 21 20  1  0
 21 24  1  0
 22 23  1  0
 22 19  1  0
 23 21  2  0
 24 25  1  0
 25 26  2  0
 27 30  1  0
 27 26  1  0
 28 27  2  0
 29 28  1  0
 29 24  2  0
 30 31  1  0
 31 32  1  0
 32 33  2  0
 34 33  1  0
 34 38  1  0
 35 34  2  0
 36 31  2  0
 36 35  1  0
 37 36  1  0
 39 40  1  0
 40 43  1  0
 40 42  1  0
 41 39  2  0
 44 46  1  0
 44 19  1  0
 45 44  1  0
 48 47  2  0
 48 49  1  0
 50 51  1  0
 50 49  2  0
 52 63  2  0
 53 51  1  0
 53 58  1  0
 54 62  1  0
 54 64  1  0
 55 61  1  0
 55 57  1  0
 56 62  1  0
 57 58  2  0
 57 56  1  0
 59 53  2  0
 60 59  1  0
 60 55  2  0
 61 54  1  0
 62 52  1  0
 64 66  2  0
 65 64  1  0
 67 65  1  0
 68 77  2  0
 68 73  1  0
 69 65  1  0
 69 73  1  0
 70 69  1  0
 71 72  1  0
 71 70  1  0
 72 68  1  0
 73 74  2  0
 74 75  1  0
 76 75  2  0
 77 76  1  0
 78 52  1  0
 78 79  1  0
 78 88  1  0
 79 82  1  0
 80 84  1  0
 80 79  1  0
 81 80  2  0
 84 83  1  0
 86 87  1  0
 86 84  1  0
 86 85  1  0
 88 91  1  1
 88 89  1  0
 90 88  1  0
M  ISO  4  10 100  11 100  50 101  51 101
M  END
>  <TORSDO>  (55) 
F 21

>  <SCORE>  (55) 
-11.038

>  <name>  (55) 
55

>  <ligand_id>  (55) 
55

>  <original_smiles>  (55) 
[H]c1c(C([H])([H])C([H])([H])C([H])([H])C([H])([H])Oc2c([H])c([H])c3c(c2[H])C([H])([H])N(C(=O)C([H])(N([H])C(=O)C([H])(N([H])C([H])([H])[H])C([H])([H])[H])C(C([H])([H])[H])(C([H])([H])[H])C([H])([H])[H])C([H])(C(=O)N([H])C2([H])c4c([H])c([H])c([H])c([H])c4C([H])([H])C([H])([H])C2([H])[H])C3([H])[H])nc(C([H])([H])[H])nc1C(C(=O)N1C([H])([H])C([H])([H])C([H])([H])C([H])(n2nc(-c3c([H])c([H])c(Oc4c([H])c([H])c(F)c([H])c4F)c([H])c3[H])c(C(=O)N([H])[H])c2N([H])[H])C1([H])[H])(C([H])([H])[H])C([H])([H])[H]

>  <smiles>  (55) 
[H]c1c(C([H])([H])C([H])([H])C([H])([H])C([H])([H])Oc2c([H])c([H])c3c(c2[H])C([H])([H])N(C(=O)C([H])(N([H])C(=O)C([H])(N([H])C([H])([H])[H])C([H])([H])[H])C(C([H])([H])[H])(C([H])([H])[H])C([H])([H])[H])C([H])(C(=O)N([H])C2([H])c4c([H])c([H])c([H])c([H])c4C([H])([H])C([H])([H])C2([H])[H])C3([H])[H])nc(C([H])([H])[H])nc1C(C(=O)N1C([H])([H])C([H])([H])C([H])([H])C([H])(n2nc(-c3c([H])c([H])c(Oc4c([H])c([H])c(F)c([H])c4F)c([H])c3[H])c(C(=O)N([H])[H])c2N([H])[H])C1([H])[H])(C([H])([H])[H])C([H])([H])[H]

$$$$
56:0:0
     RDKit          3D

 94102  0  0  1  0  0  0  0  0999 V2000
  -30.1500  -21.0390   18.8060 C   0  0  0  0  0  3  0  0  0  0  0  0
  -29.1690  -22.1390   18.8980 C   0  0  0  0  0  0  0  0  0  0  0  0
  -29.8130  -19.6310   19.0920 C   0  0  0  0  0  0  0  0  0  0  0  0
  -27.6900  -20.4560   19.5280 C   0  0  0  0  0  0  0  0  0  0  0  0
  -26.2920  -20.1300   20.0040 C   0  0  0  0  0  1  0  0  0  0  0  0
  -27.9440  -21.7520   19.3080 N   0  0  0  0  0  0  0  0  0  0  0  0
  -28.5240  -19.4170   19.4070 N   0  0  0  0  0  0  0  0  0  0  0  0
  -30.5150  -17.7540   17.4690 C   0  0  0  0  0  1  0  0  0  0  0  0
  -30.7260  -18.2660   18.9050 C   0  0  0  0  0  3  0  0  0  0  0  0
  -30.7040  -16.9200   19.9260 C   0  0  0  0  0  3  0  0  0  0  0  0
  -31.5270  -15.5010   19.6310 C   0  0  0  0  0  0  0  0  0  0  0  0
  -31.5000  -13.0450   18.9700 C   0  0  0  0  0  2  0  0  0  0  0  0
  -30.5360  -12.8480   17.7770 C   0  0  0  0  0  2  0  0  0  0  0  0
  -29.0890  -12.6560   18.2730 C   0  0  0  0  0  2  0  0  0  0  0  0
  -28.6900  -13.6910   19.3570 C   0  0  0  0  0  3  0  0  0  0  0  0
  -29.7700  -13.8460   20.4470 C   0  0  0  0  0  2  0  0  0  0  0  0
  -31.0130  -14.2130   19.7630 N   0  0  0  0  0  0  0  0  0  0  0  0
  -32.6880  -15.5830   19.2120 O   0  0  0  0  0  0  0  0  0  0  0  0
  -26.3810  -14.3220   20.2660 C   0  0  0  0  0  0  0  0  0  0  0  0
  -25.3170  -13.5700   20.6700 C   0  0  0  0  0  0  0  0  0  0  0  0
  -25.7310  -12.2060   20.5580 C   0  0  0  0  0  0  0  0  0  0  0  0
  -27.3760  -13.4210   19.9240 N   0  0  0  0  0  0  0  0  0  0  0  0
  -26.9970  -12.1380   20.1610 N   0  0  0  0  0  0  0  0  0  0  0  0
  -24.9720  -10.9620   20.7440 C   0  0  0  0  0  0  0  0  0  0  0  0
  -25.2970  -10.0420   21.7660 C   0  0  0  0  0  3  0  0  0  0  0  0
  -24.5380   -8.8640   21.9370 C   0  0  0  0  0  3  0  0  0  0  0  0
  -23.4410   -8.5950   21.0840 C   0  0  0  0  0  0  0  0  0  0  0  0
  -23.1370   -9.5020   20.0530 C   0  0  0  0  0  3  0  0  0  0  0  0
  -23.8970  -10.6710   19.8810 C   0  0  0  0  0  3  0  0  0  0  0  0
  -22.6680   -7.4620   21.1580 O   0  0  0  0  0  0  0  0  0  0  0  0
  -22.3060   -6.9150   22.3630 C   0  0  0  0  0  0  0  0  0  0  0  0
  -21.5350   -7.6310   23.3040 C   0  0  0  0  0  3  0  0  0  0  0  0
  -21.1240   -7.0080   24.4990 C   0  0  0  0  0  3  0  0  0  0  0  0
  -21.4760   -5.6680   24.7520 C   0  0  0  0  0  0  0  0  0  0  0  0
  -22.2370   -4.9510   23.8120 C   0  0  0  0  0  3  0  0  0  0  0  0
  -22.6480   -5.5720   22.6200 C   0  0  0  0  0  0  0  0  0  0  0  0
  -23.3640   -4.8700   21.7100 F   0  0  0  0  0  0  0  0  0  0  0  0
  -21.0770   -5.0650   25.8960 F   0  0  0  0  0  0  0  0  0  0  0  0
  -23.9580  -14.0800   21.0510 C   0  0  0  0  0  0  0  0  0  0  0  0
  -23.2730  -13.3880   21.9520 N   0  0  0  0  0  0  0  0  0  0  0  0
  -23.5180  -15.1310   20.5840 O   0  0  0  0  0  0  0  0  0  0  0  0
  -23.6420  -12.5360   22.3460 H   0  0  0  0  0  0  0  0  0  0  0  0
  -22.3640  -13.7140   22.2510 H   0  0  0  0  0  0  0  0  0  0  0  0
  -26.5800  -15.6940   20.1370 N   0  0  0  0  0  0  0  0  0  0  0  0
  -25.8390  -16.3560   20.3330 H   0  0  0  0  0  0  0  0  0  0  0  0
  -27.4150  -16.1370   19.7770 H   0  0  0  0  0  0  0  0  0  0  0  0
  -30.9390  -17.3640   21.3930 C   0  0  0  0  0  2  0  0  0  0  0  0
  -32.2240  -18.0550   21.6220 N   0  0  0  0  0  4  0  0  0  0  0  0
  -32.9880  -17.4060   21.5730 H   0  0  0  0  0  0  0  0  0  0  0  0
  -32.2270  -18.4690   22.5400 H   0  0  0  0  0  0  0  0  0  0  0  0
  -32.3760  -18.7870   20.9510 H   0  0  0  0  0  0  0  0  0  0  0  0
  -29.3960  -23.7720   18.7360 C   0  0  0  0  0  3  0  0  0  0  0  0
  -28.2240  -24.9650   18.9320 C   0  0  0  0  0  3  0  0  0  0  0  0
  -28.3930  -26.5160   18.8120 O   0  0  0  0  0  0  0  0  0  0  0  0
  -24.7270  -31.4620   22.8870 C   0  0  0  0  0  0  0  0  0  0  0  0
  -27.2920  -27.4280   18.9990 C   0  0  0  0  0  0  0  0  0  0  0  0
  -23.4910  -30.2980   21.1040 C   0  0  0  0  0  3  0  0  0  0  0  0
  -24.9100  -29.0560   19.3660 C   0  0  0  0  0  0  0  0  0  0  0  0
  -26.0230  -30.7010   20.8630 C   0  0  0  0  0  2  0  0  0  0  0  0
  -26.1050  -29.4440   19.9830 C   0  0  0  0  0  0  0  0  0  0  0  0
  -27.2980  -28.6500   19.7810 C   0  0  0  0  0  3  0  0  0  0  0  0
  -26.0650  -27.1490   18.3580 C   0  0  0  0  0  3  0  0  0  0  0  0
  -24.9000  -27.9260   18.5380 C   0  0  0  0  0  3  0  0  0  0  0  0
  -23.6580  -29.8800   19.6180 C   0  0  0  0  0  2  0  0  0  0  0  0
  -24.7710  -30.8330   21.6760 N   0  0  0  0  0  0  0  0  0  0  0  0
  -23.6610  -31.6170   23.5030 O   0  0  0  0  0  0  0  0  0  0  0  0
  -22.9070  -29.1150   21.9140 C   0  0  0  0  0  0  0  0  0  0  0  0
  -21.5800  -28.9120   21.8260 N   0  0  0  0  0  0  0  0  0  0  0  0
  -23.6440  -28.3910   22.5890 O   0  0  0  0  0  0  0  0  0  0  0  0
  -21.0470  -29.5510   21.2530 H   0  0  0  0  0  0  0  0  0  0  0  0
  -18.2530  -27.5810   22.3590 C   0  0  0  0  0  0  0  0  0  0  0  0
  -20.8260  -27.8310   22.4660 C   0  0  0  0  0  3  0  0  0  0  0  0
  -20.8840  -26.5420   21.6150 C   0  0  0  0  0  2  0  0  0  0  0  0
  -19.7000  -26.3980   20.6550 C   0  0  0  0  0  2  0  0  0  0  0  0
  -18.3770  -26.3900   21.4250 C   0  0  0  0  0  2  0  0  0  0  0  0
  -19.4020  -28.2680   22.8340 C   0  0  0  0  0  0  0  0  0  0  0  0
  -19.2270  -29.3900   23.6740 C   0  0  0  0  0  3  0  0  0  0  0  0
  -17.9380  -29.8170   24.0480 C   0  0  0  0  0  3  0  0  0  0  0  0
  -16.8070  -29.1210   23.5880 C   0  0  0  0  0  3  0  0  0  0  0  0
  -16.9650  -28.0060   22.7470 C   0  0  0  0  0  3  0  0  0  0  0  0
  -26.0150  -32.0390   23.5520 C   0  0  0  0  0  3  0  0  0  0  0  0
  -25.7000  -33.3910   24.0350 N   0  0  0  0  0  0  0  0  0  0  0  0
  -25.9550  -34.5230   23.3650 C   0  0  0  0  0  0  0  0  0  0  0  0
  -26.5500  -34.5400   22.2840 O   0  0  0  0  0  0  0  0  0  0  0  0
  -25.1580  -33.4500   24.8840 H   0  0  0  0  0  0  0  0  0  0  0  0
  -24.1420  -36.2730   23.3600 C   0  0  0  0  0  1  0  0  0  0  0  0
  -25.4740  -35.8460   23.9970 C   0  0  0  0  0  3  0  0  0  0  0  0
  -27.6480  -36.7520   24.6970 C   0  0  0  0  0  1  0  0  0  0  0  0
  -26.4540  -36.9490   23.8790 N   0  0  0  0  0  0  0  0  0  0  0  0
  -26.0310  -37.8320   24.1490 H   0  0  0  0  0  0  0  0  0  0  0  0
  -26.5570  -31.1450   24.7350 C   0  0  1  0  0  0  0  0  0  0  0  0
  -25.4820  -30.7940   25.7900 C   0  0  0  0  0  1  0  0  0  0  0  0
  -27.1350  -29.8170   24.1940 C   0  0  0  0  0  1  0  0  0  0  0  0
  -27.7130  -31.8790   25.4550 C   0  0  0  0  0  1  0  0  0  0  0  0
  1  2  2  0
  1  3  1  0
  2  6  1  0
  3  7  2  0
  4  5  1  0
  6  4  2  0
  7  4  1  0
  9  8  1  0
  9  3  1  0
  9 10  1  0
 10 47  1  0
 11 17  1  0
 11 10  1  0
 12 17  1  0
 13 14  1  0
 13 12  1  0
 15 14  1  0
 15 22  1  0
 15 16  1  0
 17 16  1  0
 18 11  2  0
 19 20  2  0
 20 39  1  0
 21 20  1  0
 21 24  1  0
 22 23  1  0
 22 19  1  0
 23 21  2  0
 24 25  1  0
 25 26  2  0
 27 30  1  0
 27 26  1  0
 28 27  2  0
 29 28  1  0
 29 24  2  0
 30 31  1  0
 31 36  2  0
 31 32  1  0
 32 33  2  0
 33 34  1  0
 34 38  1  0
 35 34  2  0
 36 35  1  0
 37 36  1  0
 39 40  1  0
 40 43  1  0
 40 42  1  0
 41 39  2  0
 44 19  1  0
 44 45  1  0
 46 44  1  0
 47 48  1  0
 48 50  1  0
 49 48  1  0
 51 48  1  0
 52  2  1  0
 52 53  2  0
 54 53  1  0
 54 56  1  0
 55 66  2  0
 56 61  1  0
 57 65  1  0
 57 67  1  0
 58 64  1  0
 58 60  1  0
 59 65  1  0
 60 59  1  0
 61 60  2  0
 62 63  1  0
 62 56  2  0
 63 58  2  0
 64 57  1  0
 65 55  1  0
 67 69  2  0
 68 67  1  0
 70 68  1  0
 71 80  2  0
 71 76  1  0
 72 68  1  0
 72 76  1  0
 73 72  1  0
 74 75  1  0
 74 73  1  0
 75 71  1  0
 76 77  2  0
 77 78  1  0
 79 78  2  0
 80 79  1  0
 81 55  1  0
 81 82  1  0
 81 91  1  0
 82 85  1  0
 83 87  1  0
 83 82  1  0
 84 83  2  0
 87 86  1  0
 89 87  1  0
 89 90  1  0
 89 88  1  0
 91 94  1  1
 91 92  1  0
 93 91  1  0
M  ISO  4  10 100  11 100  53 101  54 101
M  END
>  <TORSDO>  (56) 
F 22

>  <SCORE>  (56) 
-8.412

>  <name>  (56) 
56

>  <ligand_id>  (56) 
56

>  <original_smiles>  (56) 
[H]c1c(C([H])([H])C([H])([H])Oc2c([H])c([H])c3c(c2[H])C([H])([H])N(C(=O)C([H])(N([H])C(=O)C([H])(N([H])C([H])([H])[H])C([H])([H])[H])C(C([H])([H])[H])(C([H])([H])[H])C([H])([H])[H])C([H])(C(=O)N([H])C2([H])c4c([H])c([H])c([H])c([H])c4C([H])([H])C([H])([H])C2([H])[H])C3([H])[H])nc(C([H])([H])[H])nc1C([H])(C([H])([H])[H])C([H])(C(=O)N1C([H])([H])C([H])([H])C([H])([H])C([H])(n2nc(-c3c([H])c([H])c(Oc4c([H])c([H])c(F)c([H])c4F)c([H])c3[H])c(C(=O)N([H])[H])c2N([H])[H])C1([H])[H])C([H])([H])[N+]([H])([H])[H]

>  <smiles>  (56) 
[H]c1c(C([H])([H])C([H])([H])Oc2c([H])c([H])c3c(c2[H])C([H])([H])N(C(=O)C([H])(N([H])C(=O)C([H])(N([H])C([H])([H])[H])C([H])([H])[H])C(C([H])([H])[H])(C([H])([H])[H])C([H])([H])[H])C([H])(C(=O)N([H])C2([H])c4c([H])c([H])c([H])c([H])c4C([H])([H])C([H])([H])C2([H])[H])C3([H])[H])nc(C([H])([H])[H])nc1C([H])(C([H])([H])[H])C([H])(C(=O)N1C([H])([H])C([H])([H])C([H])([H])C([H])(n2nc(-c3c([H])c([H])c(Oc4c([H])c([H])c(F)c([H])c4F)c([H])c3[H])c(C(=O)N([H])[H])c2N([H])[H])C1([H])[H])C([H])([H])[N+]([H])([H])[H]

$$$$
57:0:0
     RDKit          3D

 93101  0  0  1  0  0  0  0  0999 V2000
  -29.6030  -21.1520   19.2240 C   0  0  0  0  0  2  0  0  0  0  0  0
  -29.8780  -17.5330   20.3600 C   0  0  0  0  0  0  0  0  0  0  0  0
  -30.3760  -18.8500   20.4930 C   0  0  0  0  0  0  0  0  0  0  0  0
  -28.7210  -17.6880   19.5880 N   0  0  0  0  0  0  0  0  0  0  0  0
  -28.5180  -18.9370   19.2600 N   0  0  0  0  0  0  0  0  0  0  0  0
  -29.5060  -19.7200   19.7730 N   0  0  0  0  0  0  0  0  0  0  0  0
  -30.9300  -16.2590   22.3720 C   0  0  0  0  0  1  0  0  0  0  0  0
  -30.1750  -16.1110   21.0400 C   0  0  0  0  0  3  0  0  0  0  0  0
  -30.8130  -14.8420   20.2600 C   0  0  0  0  0  0  0  0  0  0  0  0
  -30.5660  -12.6220   19.0940 C   0  0  0  0  0  2  0  0  0  0  0  0
  -29.5970  -12.7610   17.8970 C   0  0  0  0  0  2  0  0  0  0  0  0
  -28.1330  -12.6030   18.3520 C   0  0  0  0  0  2  0  0  0  0  0  0
  -27.8110  -13.4350   19.6250 C   0  0  0  0  0  3  0  0  0  0  0  0
  -28.8910  -13.2300   20.7090 C   0  0  0  0  0  2  0  0  0  0  0  0
  -30.1750  -13.6240   20.1160 N   0  0  0  0  0  0  0  0  0  0  0  0
  -31.9420  -14.9680   19.7750 O   0  0  0  0  0  0  0  0  0  0  0  0
  -25.4300  -14.0460   20.3580 C   0  0  0  0  0  0  0  0  0  0  0  0
  -24.3590  -13.2770   20.7360 C   0  0  0  0  0  0  0  0  0  0  0  0
  -24.8170  -11.9250   20.7120 C   0  0  0  0  0  0  0  0  0  0  0  0
  -26.4680  -13.1590   20.1250 N   0  0  0  0  0  0  0  0  0  0  0  0
  -26.1060  -11.8790   20.3980 N   0  0  0  0  0  0  0  0  0  0  0  0
  -24.0850  -10.6670   20.9140 C   0  0  0  0  0  0  0  0  0  0  0  0
  -24.5040   -9.7130   21.8660 C   0  0  0  0  0  3  0  0  0  0  0  0
  -23.7720   -8.5200   22.0540 C   0  0  0  0  0  3  0  0  0  0  0  0
  -22.6080   -8.2750   21.2880 C   0  0  0  0  0  0  0  0  0  0  0  0
  -22.2080   -9.2190   20.3260 C   0  0  0  0  0  3  0  0  0  0  0  0
  -22.9400  -10.4020   20.1360 C   0  0  0  0  0  3  0  0  0  0  0  0
  -21.8480   -7.1340   21.3850 O   0  0  0  0  0  0  0  0  0  0  0  0
  -21.7550   -6.4270   22.5570 C   0  0  0  0  0  0  0  0  0  0  0  0
  -21.2960   -7.0230   23.7530 C   0  0  0  0  0  3  0  0  0  0  0  0
  -21.1500   -6.2430   24.9180 C   0  0  0  0  0  3  0  0  0  0  0  0
  -21.4520   -4.8690   24.8890 C   0  0  0  0  0  0  0  0  0  0  0  0
  -21.9050   -4.2730   23.6980 C   0  0  0  0  0  3  0  0  0  0  0  0
  -22.0520   -5.0500   22.5360 C   0  0  0  0  0  0  0  0  0  0  0  0
  -22.4680   -4.4640   21.3870 F   0  0  0  0  0  0  0  0  0  0  0  0
  -21.3060   -4.1200   26.0050 F   0  0  0  0  0  0  0  0  0  0  0  0
  -22.9670  -13.7650   21.0110 C   0  0  0  0  0  0  0  0  0  0  0  0
  -22.2470  -13.0850   21.8970 N   0  0  0  0  0  0  0  0  0  0  0  0
  -22.5280  -14.7830   20.4790 O   0  0  0  0  0  0  0  0  0  0  0  0
  -22.6170  -12.2620   22.3460 H   0  0  0  0  0  0  0  0  0  0  0  0
  -21.3140  -13.3930   22.1320 H   0  0  0  0  0  0  0  0  0  0  0  0
  -25.6000  -15.4140   20.1710 N   0  0  0  0  0  0  0  0  0  0  0  0
  -24.8360  -16.0750   20.2730 H   0  0  0  0  0  0  0  0  0  0  0  0
  -26.4540  -15.8490   19.8410 H   0  0  0  0  0  0  0  0  0  0  0  0
  -31.5770  -19.4040   21.2130 C   0  0  0  0  0  2  0  0  0  0  0  0
  -30.2020  -21.0050   22.7520 C   0  0  0  0  0  1  0  0  0  0  0  0
  -31.3040  -19.9380   22.6380 C   0  0  0  0  0  2  0  0  0  0  0  0
  -29.1250  -22.5590   19.9300 C   0  0  0  0  0  2  0  0  0  0  0  0
  -29.0660  -23.5850   17.5760 C   0  0  0  0  0  1  0  0  0  0  0  0
  -26.9970  -23.5430   18.9140 C   0  0  0  0  0  1  0  0  0  0  0  0
  -28.5070  -23.7900   19.0130 C   0  0  1  0  0  0  0  0  0  0  0  0
  -28.7700  -25.4130   19.2220 C   0  0  0  0  0  2  0  0  0  0  0  0
  -28.3540  -26.4440   20.2190 O   0  0  0  0  0  0  0  0  0  0  0  0
  -24.6250  -31.8880   23.1830 C   0  0  0  0  0  0  0  0  0  0  0  0
  -27.2640  -27.3370   20.0800 C   0  0  0  0  0  0  0  0  0  0  0  0
  -23.4290  -30.4960   21.5300 C   0  0  0  0  0  3  0  0  0  0  0  0
  -24.8910  -28.9710   20.0750 C   0  0  0  0  0  0  0  0  0  0  0  0
  -25.9690  -30.8150   21.3620 C   0  0  0  0  0  2  0  0  0  0  0  0
  -26.0530  -29.4420   20.6970 C   0  0  0  0  0  0  0  0  0  0  0  0
  -27.2300  -28.6300   20.7060 C   0  0  0  0  0  3  0  0  0  0  0  0
  -26.0840  -26.9400   19.4190 C   0  0  0  0  0  3  0  0  0  0  0  0
  -24.9130  -27.7280   19.4210 C   0  0  0  0  0  3  0  0  0  0  0  0
  -23.6440  -29.8350   20.1420 C   0  0  0  0  0  2  0  0  0  0  0  0
  -24.6920  -31.0870   22.0780 N   0  0  0  0  0  0  0  0  0  0  0  0
  -23.5420  -32.1570   23.7220 O   0  0  0  0  0  0  0  0  0  0  0  0
  -22.7720  -29.4700   22.4860 C   0  0  0  0  0  0  0  0  0  0  0  0
  -21.4470  -29.2810   22.3550 N   0  0  0  0  0  0  0  0  0  0  0  0
  -23.4530  -28.8490   23.3070 O   0  0  0  0  0  0  0  0  0  0  0  0
  -20.9570  -29.8270   21.6600 H   0  0  0  0  0  0  0  0  0  0  0  0
  -18.0830  -28.0370   22.8220 C   0  0  0  0  0  0  0  0  0  0  0  0
  -20.6350  -28.3350   23.1210 C   0  0  0  0  0  3  0  0  0  0  0  0
  -20.7660  -26.9040   22.5500 C   0  0  0  0  0  2  0  0  0  0  0  0
  -19.6820  -26.5630   21.5240 C   0  0  0  0  0  2  0  0  0  0  0  0
  -18.2900  -26.6890   22.1510 C   0  0  0  0  0  2  0  0  0  0  0  0
  -19.1850  -28.8160   23.2630 C   0  0  0  0  0  0  0  0  0  0  0  0
  -18.9390  -30.0760   23.8490 C   0  0  0  0  0  3  0  0  0  0  0  0
  -17.6250  -30.5570   24.0020 C   0  0  0  0  0  3  0  0  0  0  0  0
  -16.5370  -29.7740   23.5800 C   0  0  0  0  0  3  0  0  0  0  0  0
  -16.7660  -28.5150   22.9940 C   0  0  0  0  0  3  0  0  0  0  0  0
  -25.9070  -32.5250   23.8050 C   0  0  0  0  0  3  0  0  0  0  0  0
  -25.5830  -33.9150   24.1600 N   0  0  0  0  0  0  0  0  0  0  0  0
  -25.8990  -34.9850   23.4210 C   0  0  0  0  0  0  0  0  0  0  0  0
  -26.5610  -34.9090   22.3820 O   0  0  0  0  0  0  0  0  0  0  0  0
  -24.9850  -34.0470   24.9620 H   0  0  0  0  0  0  0  0  0  0  0  0
  -24.1470  -36.7680   23.1220 C   0  0  0  0  0  1  0  0  0  0  0  0
  -25.4020  -36.3600   23.9090 C   0  0  0  0  0  3  0  0  0  0  0  0
  -27.5350  -37.2550   24.7300 C   0  0  0  0  0  1  0  0  0  0  0  0
  -26.4210  -37.4270   23.8050 N   0  0  0  0  0  0  0  0  0  0  0  0
  -26.0050  -38.3390   23.9720 H   0  0  0  0  0  0  0  0  0  0  0  0
  -26.4400  -31.7410   25.0680 C   0  0  1  0  0  0  0  0  0  0  0  0
  -25.3560  -31.4780   26.1390 C   0  0  0  0  0  1  0  0  0  0  0  0
  -27.0350  -30.3730   24.6580 C   0  0  0  0  0  1  0  0  0  0  0  0
  -27.5860  -32.5380   25.7320 C   0  0  0  0  0  1  0  0  0  0  0  0
  1  6  1  0
  1 48  1  0
  2  3  2  0
  2  8  1  0
  3 45  1  0
  4  2  1  0
  5  4  2  0
  5  6  1  0
  6  3  1  0
  8  7  1  0
  9  8  1  0
 10 15  1  0
 11 12  1  0
 11 10  1  0
 13 12  1  0
 13 20  1  0
 13 14  1  0
 15  9  1  0
 15 14  1  0
 16  9  2  0
 17 18  2  0
 18 37  1  0
 19 18  1  0
 19 22  1  0
 20 17  1  0
 20 21  1  0
 21 19  2  0
 22 23  1  0
 23 24  2  0
 25 28  1  0
 25 24  1  0
 26 25  2  0
 27 26  1  0
 27 22  2  0
 28 29  1  0
 29 30  1  0
 30 31  2  0
 32 31  1  0
 32 36  1  0
 33 32  2  0
 34 29  2  0
 34 33  1  0
 35 34  1  0
 37 38  1  0
 38 41  1  0
 38 40  1  0
 39 37  2  0
 42 43  1  0
 42 17  1  0
 44 42  1  0
 45 47  1  0
 47 46  1  0
 51 49  1  6
 50 51  1  0
 51 52  1  0
 51 48  1  0
 52 53  1  0
 54 65  2  0
 55 53  1  0
 55 60  1  0
 56 64  1  0
 56 66  1  0
 57 63  1  0
 57 59  1  0
 58 64  1  0
 59 60  2  0
 59 58  1  0
 61 62  1  0
 61 55  2  0
 62 57  2  0
 63 56  1  0
 64 54  1  0
 66 68  2  0
 67 66  1  0
 69 67  1  0
 70 79  2  0
 70 75  1  0
 71 67  1  0
 71 75  1  0
 72 71  1  0
 73 74  1  0
 73 72  1  0
 74 70  1  0
 75 76  2  0
 76 77  1  0
 78 77  2  0
 79 78  1  0
 80 54  1  0
 80 81  1  0
 80 90  1  0
 81 84  1  0
 82 86  1  0
 82 81  1  0
 83 82  2  0
 86 85  1  0
 88 86  1  0
 88 89  1  0
 88 87  1  0
 90 93  1  1
 90 91  1  0
 92 90  1  0
M  ISO  4   8 100   9 100  52 101  53 101
M  END
>  <TORSDO>  (57) 
F 23

>  <SCORE>  (57) 
-12.918

>  <name>  (57) 
57

>  <ligand_id>  (57) 
57

>  <original_smiles>  (57) 
[H]c1c([H])c([H])c2c(c1[H])C([H])([H])C([H])([H])C([H])([H])C2([H])N([H])C(=O)C1([H])N(C(=O)C([H])(N([H])C(=O)C([H])(N([H])C([H])([H])[H])C([H])([H])[H])C(C([H])([H])[H])(C([H])([H])[H])C([H])([H])[H])C([H])([H])c2c([H])c(OC([H])([H])C(C([H])([H])[H])(C([H])([H])[H])C([H])([H])C([H])([H])n3nnc(C([H])(C(=O)N4C([H])([H])C([H])([H])C([H])([H])C([H])(n5nc(-c6c([H])c([H])c(Oc7c([H])c([H])c(F)c([H])c7F)c([H])c6[H])c(C(=O)N([H])[H])c5N([H])[H])C4([H])[H])C([H])([H])[H])c3C([H])([H])C([H])([H])C([H])([H])[H])c([H])c([H])c2C1([H])[H]

>  <smiles>  (57) 
[H]c1c([H])c([H])c2c(c1[H])C([H])([H])C([H])([H])C([H])([H])C2([H])N([H])C(=O)C1([H])N(C(=O)C([H])(N([H])C(=O)C([H])(N([H])C([H])([H])[H])C([H])([H])[H])C(C([H])([H])[H])(C([H])([H])[H])C([H])([H])[H])C([H])([H])c2c([H])c(OC([H])([H])C(C([H])([H])[H])(C([H])([H])[H])C([H])([H])C([H])([H])n3nnc(C([H])(C(=O)N4C([H])([H])C([H])([H])C([H])([H])C([H])(n5nc(-c6c([H])c([H])c(Oc7c([H])c([H])c(F)c([H])c7F)c([H])c6[H])c(C(=O)N([H])[H])c5N([H])[H])C4([H])[H])C([H])([H])[H])c3C([H])([H])C([H])([H])C([H])([H])[H])c([H])c([H])c2C1([H])[H]

$$$$
58:0:0
     RDKit          3D

 91 99  0  0  1  0  0  0  0  0999 V2000
  -29.4640  -23.3500   18.3150 C   0  0  0  0  0  1  0  0  0  0  0  0
  -29.2700  -22.9510   19.8000 C   0  0  1  0  0  0  0  0  0  0  0  0
  -30.4770  -15.2750   19.9250 C   0  0  0  0  0  0  0  0  0  0  0  0
  -30.4080  -12.8630   18.9370 C   0  0  0  0  0  2  0  0  0  0  0  0
  -29.4000  -12.6890   17.7680 C   0  0  0  0  0  2  0  0  0  0  0  0
  -27.9770  -12.4110   18.2840 C   0  0  0  0  0  2  0  0  0  0  0  0
  -27.6180  -13.3160   19.4850 C   0  0  0  0  0  3  0  0  0  0  0  0
  -28.7390  -13.3640   20.5360 C   0  0  0  0  0  2  0  0  0  0  0  0
  -29.9230  -13.9510   19.8710 N   0  0  0  0  0  0  0  0  0  0  0  0
  -31.6290  -15.3050   19.4570 O   0  0  0  0  0  0  0  0  0  0  0  0
  -28.6970  -20.2700   20.8500 C   0  0  0  0  0  3  0  0  0  0  0  0
  -29.2840  -21.1730   19.8800 C   0  0  0  0  0  0  0  0  0  0  0  0
  -30.0680  -20.2190   19.0560 C   0  0  0  0  0  0  0  0  0  0  0  0
  -29.6250  -18.0430   20.1540 C   0  0  0  0  0  0  0  0  0  0  0  0
  -30.9280  -20.6900   17.8960 C   0  0  0  0  0  1  0  0  0  0  0  0
  -29.3210  -16.2360   21.8100 C   0  0  0  0  0  1  0  0  0  0  0  0
  -28.8520  -18.8600   20.9580 N   0  0  0  0  0  0  0  0  0  0  0  0
  -30.2040  -18.8070   19.1890 N   0  0  0  0  0  0  0  0  0  0  0  0
  -29.7860  -16.5000   20.4320 N   0  0  0  0  0  0  0  0  0  0  0  0
  -25.3160  -13.8640   20.4410 C   0  0  0  0  0  0  0  0  0  0  0  0
  -24.2780  -13.0780   20.8570 C   0  0  0  0  0  0  0  0  0  0  0  0
  -24.7300  -11.7280   20.7370 C   0  0  0  0  0  0  0  0  0  0  0  0
  -26.3270  -12.9920   20.0760 N   0  0  0  0  0  0  0  0  0  0  0  0
  -25.9940  -11.6990   20.3220 N   0  0  0  0  0  0  0  0  0  0  0  0
  -24.0110  -10.4630   20.9340 C   0  0  0  0  0  0  0  0  0  0  0  0
  -24.4500   -9.4980   21.8650 C   0  0  0  0  0  3  0  0  0  0  0  0
  -23.7270   -8.2990   22.0470 C   0  0  0  0  0  3  0  0  0  0  0  0
  -22.5520   -8.0580   21.2980 C   0  0  0  0  0  0  0  0  0  0  0  0
  -22.1310   -9.0130   20.3550 C   0  0  0  0  0  3  0  0  0  0  0  0
  -22.8550  -10.2030   20.1710 C   0  0  0  0  0  3  0  0  0  0  0  0
  -21.8020   -6.9100   21.3870 O   0  0  0  0  0  0  0  0  0  0  0  0
  -21.6880   -6.2150   22.5640 C   0  0  0  0  0  0  0  0  0  0  0  0
  -21.1810   -6.8140   23.7370 C   0  0  0  0  0  3  0  0  0  0  0  0
  -21.0140   -6.0470   24.9060 C   0  0  0  0  0  3  0  0  0  0  0  0
  -21.3450   -4.6790   24.9040 C   0  0  0  0  0  0  0  0  0  0  0  0
  -21.8440   -4.0770   23.7350 C   0  0  0  0  0  3  0  0  0  0  0  0
  -22.0120   -4.8420   22.5670 C   0  0  0  0  0  0  0  0  0  0  0  0
  -22.4740   -4.2520   21.4400 F   0  0  0  0  0  0  0  0  0  0  0  0
  -21.1770   -3.9390   26.0250 F   0  0  0  0  0  0  0  0  0  0  0  0
  -22.9100  -13.5540   21.2500 C   0  0  0  0  0  0  0  0  0  0  0  0
  -22.2480  -12.8390   22.1500 N   0  0  0  0  0  0  0  0  0  0  0  0
  -22.4390  -14.5950   20.7920 O   0  0  0  0  0  0  0  0  0  0  0  0
  -22.6450  -11.9990   22.5420 H   0  0  0  0  0  0  0  0  0  0  0  0
  -21.3330  -13.1400   22.4550 H   0  0  0  0  0  0  0  0  0  0  0  0
  -25.4770  -15.2410   20.3200 N   0  0  0  0  0  0  0  0  0  0  0  0
  -24.7270  -15.8890   20.5380 H   0  0  0  0  0  0  0  0  0  0  0  0
  -26.3150  -15.7050   19.9940 H   0  0  0  0  0  0  0  0  0  0  0  0
  -30.4730  -23.0870   22.0930 C   0  0  0  0  0  1  0  0  0  0  0  0
  -30.5460  -23.3520   20.5790 C   0  0  0  0  0  2  0  0  0  0  0  0
  -28.1350  -24.2680   20.2270 C   0  0  0  0  0  2  0  0  0  0  0  0
  -28.3220  -25.9040   20.1380 O   0  0  0  0  0  0  0  0  0  0  0  0
  -24.7260  -31.8290   23.1420 C   0  0  0  0  0  0  0  0  0  0  0  0
  -27.2800  -26.9660   20.1230 C   0  0  0  0  0  0  0  0  0  0  0  0
  -23.5260  -30.4220   21.5200 C   0  0  0  0  0  3  0  0  0  0  0  0
  -24.9660  -28.8190   20.0950 C   0  0  0  0  0  0  0  0  0  0  0  0
  -26.0870  -30.6520   21.3450 C   0  0  0  0  0  2  0  0  0  0  0  0
  -26.1590  -29.2410   20.6950 C   0  0  0  0  0  0  0  0  0  0  0  0
  -27.3130  -28.3370   20.6760 C   0  0  0  0  0  3  0  0  0  0  0  0
  -26.0480  -26.6840   19.4910 C   0  0  0  0  0  3  0  0  0  0  0  0
  -24.9340  -27.5590   19.4740 C   0  0  0  0  0  3  0  0  0  0  0  0
  -23.7450  -29.7340   20.1460 C   0  0  0  0  0  2  0  0  0  0  0  0
  -24.8030  -30.9940   22.0550 N   0  0  0  0  0  0  0  0  0  0  0  0
  -23.6400  -32.1130   23.6700 O   0  0  0  0  0  0  0  0  0  0  0  0
  -22.8470  -29.4240   22.4940 C   0  0  0  0  0  0  0  0  0  0  0  0
  -21.5150  -29.2570   22.3840 N   0  0  0  0  0  0  0  0  0  0  0  0
  -23.5220  -28.7990   23.3150 O   0  0  0  0  0  0  0  0  0  0  0  0
  -21.0230  -29.8060   21.6940 H   0  0  0  0  0  0  0  0  0  0  0  0
  -18.1350  -28.0650   22.9480 C   0  0  0  0  0  0  0  0  0  0  0  0
  -20.7020  -28.3230   23.1700 C   0  0  0  0  0  3  0  0  0  0  0  0
  -20.7870  -26.8920   22.5910 C   0  0  0  0  0  2  0  0  0  0  0  0
  -19.6670  -26.5760   21.5940 C   0  0  0  0  0  2  0  0  0  0  0  0
  -18.2970  -26.7190   22.2610 C   0  0  0  0  0  2  0  0  0  0  0  0
  -19.2640  -28.8240   23.3600 C   0  0  0  0  0  0  0  0  0  0  0  0
  -19.0540  -30.0820   23.9670 C   0  0  0  0  0  3  0  0  0  0  0  0
  -17.7510  -30.5790   24.1640 C   0  0  0  0  0  3  0  0  0  0  0  0
  -16.6400  -29.8160   23.7660 C   0  0  0  0  0  3  0  0  0  0  0  0
  -16.8330  -28.5610   23.1640 C   0  0  0  0  0  3  0  0  0  0  0  0
  -25.9980  -32.4790   23.7630 C   0  0  0  0  0  3  0  0  0  0  0  0
  -25.6630  -33.8650   24.1320 N   0  0  0  0  0  0  0  0  0  0  0  0
  -25.9490  -34.9460   23.3950 C   0  0  0  0  0  0  0  0  0  0  0  0
  -26.5860  -34.8840   22.3410 O   0  0  0  0  0  0  0  0  0  0  0  0
  -25.0890  -33.9840   24.9540 H   0  0  0  0  0  0  0  0  0  0  0  0
  -24.1640  -36.7080   23.1640 C   0  0  0  0  0  1  0  0  0  0  0  0
  -25.4510  -36.3140   23.9080 C   0  0  0  0  0  3  0  0  0  0  0  0
  -27.5990  -37.2350   24.6630 C   0  0  0  0  0  1  0  0  0  0  0  0
  -26.4520  -37.3960   23.7730 N   0  0  0  0  0  0  0  0  0  0  0  0
  -26.0310  -38.3020   23.9600 H   0  0  0  0  0  0  0  0  0  0  0  0
  -26.5390  -31.6990   25.0250 C   0  0  1  0  0  0  0  0  0  0  0  0
  -25.4610  -31.4350   26.1040 C   0  0  0  0  0  1  0  0  0  0  0  0
  -27.1350  -30.3340   24.6140 C   0  0  0  0  0  1  0  0  0  0  0  0
  -27.6860  -32.5020   25.6830 C   0  0  0  0  0  1  0  0  0  0  0  0
  2  1  1  6
  2 12  1  0
  2 50  1  0
  2 49  1  0
  3 19  1  0
  4  9  1  0
  5  6  1  0
  5  4  1  0
  7  6  1  0
  7 23  1  0
  7  8  1  0
  9  3  1  0
  9  8  1  0
 10  3  2  0
 11 17  1  0
 12 11  2  0
 13 18  2  0
 13 12  1  0
 14 19  1  0
 14 17  2  0
 15 13  1  0
 18 14  1  0
 19 16  1  0
 20 21  2  0
 21 40  1  0
 22 21  1  0
 22 25  1  0
 23 24  1  0
 23 20  1  0
 24 22  2  0
 25 26  1  0
 26 27  2  0
 28 31  1  0
 28 27  1  0
 29 28  2  0
 30 29  1  0
 30 25  2  0
 31 32  1  0
 32 37  2  0
 32 33  1  0
 33 34  2  0
 35 34  1  0
 35 39  1  0
 36 35  2  0
 37 36  1  0
 38 37  1  0
 40 41  1  0
 41 44  1  0
 41 43  1  0
 42 40  2  0
 45 20  1  0
 45 46  1  0
 47 45  1  0
 49 48  1  0
 51 50  1  0
 52 63  2  0
 53 51  1  0
 53 58  1  0
 54 62  1  0
 54 64  1  0
 55 61  1  0
 55 57  1  0
 56 62  1  0
 57 56  1  0
 58 57  2  0
 59 53  2  0
 60 59  1  0
 60 55  2  0
 61 54  1  0
 62 52  1  0
 64 66  2  0
 65 64  1  0
 67 65  1  0
 68 77  2  0
 68 73  1  0
 69 65  1  0
 69 73  1  0
 70 69  1  0
 71 72  1  0
 71 70  1  0
 72 68  1  0
 73 74  2  0
 74 75  1  0
 76 75  2  0
 77 76  1  0
 78 52  1  0
 78 79  1  0
 78 88  1  0
 79 82  1  0
 80 84  1  0
 80 79  1  0
 81 80  2  0
 84 83  1  0
 86 84  1  0
 86 87  1  0
 86 85  1  0
 88 91  1  1
 88 89  1  0
 90 88  1  0
M  ISO  4   3 100  19 100  50 101  51 101
M  END
>  <TORSDO>  (58) 
F 18

>  <SCORE>  (58) 
-14.847

>  <name>  (58) 
58

>  <ligand_id>  (58) 
58

>  <original_smiles>  (58) 
[H]c1nc(N(C(=O)N2C([H])([H])C([H])([H])C([H])([H])C([H])(n3nc(-c4c([H])c([H])c(Oc5c([H])c([H])c(F)c([H])c5F)c([H])c4[H])c(C(=O)N([H])[H])c3N([H])[H])C2([H])[H])C([H])([H])[H])nc(C([H])([H])[H])c1C(C([H])([H])[H])(C([H])([H])Oc1c([H])c([H])c2c(c1[H])C([H])([H])N(C(=O)C([H])(N([H])C(=O)C([H])(N([H])C([H])([H])[H])C([H])([H])[H])C(C([H])([H])[H])(C([H])([H])[H])C([H])([H])[H])C([H])(C(=O)N([H])C1([H])c3c([H])c([H])c([H])c([H])c3C([H])([H])C([H])([H])C1([H])[H])C2([H])[H])C([H])([H])C([H])([H])[H]

>  <smiles>  (58) 
[H]c1nc(N(C(=O)N2C([H])([H])C([H])([H])C([H])([H])C([H])(n3nc(-c4c([H])c([H])c(Oc5c([H])c([H])c(F)c([H])c5F)c([H])c4[H])c(C(=O)N([H])[H])c3N([H])[H])C2([H])[H])C([H])([H])[H])nc(C([H])([H])[H])c1C(C([H])([H])[H])(C([H])([H])Oc1c([H])c([H])c2c(c1[H])C([H])([H])N(C(=O)C([H])(N([H])C(=O)C([H])(N([H])C([H])([H])[H])C([H])([H])[H])C(C([H])([H])[H])(C([H])([H])[H])C([H])([H])[H])C([H])(C(=O)N([H])C1([H])c3c([H])c([H])c([H])c([H])c3C([H])([H])C([H])([H])C1([H])[H])C2([H])[H])C([H])([H])C([H])([H])[H]

$$$$
59:0:0
     RDKit          3D

 93101  0  0  1  0  0  0  0  0999 V2000
  -30.2870  -20.8400   19.4880 C   0  0  0  0  0  3  0  0  0  0  0  0
  -29.8340  -22.1700   19.2940 C   0  0  0  0  0  0  0  0  0  0  0  0
  -29.3190  -19.8270   19.6970 C   0  0  0  0  0  0  0  0  0  0  0  0
  -27.6800  -21.4340   19.5360 C   0  0  0  0  0  0  0  0  0  0  0  0
  -28.5180  -22.4420   19.3110 N   0  0  0  0  0  0  0  0  0  0  0  0
  -28.0170  -20.1640   19.7400 N   0  0  0  0  0  0  0  0  0  0  0  0
  -25.8130  -22.5580   20.8330 C   0  0  0  0  0  1  0  0  0  0  0  0
  -26.2000  -21.7610   19.5800 C   0  0  0  0  0  2  0  0  0  0  0  0
  -30.7110  -17.9040   18.7030 C   0  0  0  0  0  1  0  0  0  0  0  0
  -29.6040  -18.2960   19.6970 C   0  0  0  0  0  3  0  0  0  0  0  0
  -29.8310  -17.6380   21.1010 C   0  0  0  0  0  2  0  0  0  0  0  0
  -30.5560  -15.1750   20.8750 C   0  0  0  0  0  0  0  0  0  0  0  0
  -30.6050  -12.8710   19.9800 C   0  0  0  0  0  2  0  0  0  0  0  0
  -29.7750  -12.8260   18.6790 C   0  0  0  0  0  2  0  0  0  0  0  0
  -28.2820  -12.5830   18.9820 C   0  0  0  0  0  2  0  0  0  0  0  0
  -27.7370  -13.5190   20.0930 C   0  0  0  0  0  3  0  0  0  0  0  0
  -28.6880  -13.5350   21.3130 C   0  0  0  0  0  2  0  0  0  0  0  0
  -30.0270  -13.9200   20.8360 N   0  0  0  0  0  0  0  0  0  0  0  0
  -31.7160  -15.4260   20.5420 O   0  0  0  0  0  0  0  0  0  0  0  0
  -29.6670  -16.1590   21.1310 N   0  0  0  0  0  0  0  0  0  0  0  0
  -28.7410  -15.8350   21.3650 H   0  0  0  0  0  0  0  0  0  0  0  0
  -25.2700  -13.9920   20.6480 C   0  0  0  0  0  0  0  0  0  0  0  0
  -24.2160  -13.1600   20.9200 C   0  0  0  0  0  0  0  0  0  0  0  0
  -24.7440  -11.8330   20.8900 C   0  0  0  0  0  0  0  0  0  0  0  0
  -26.3700  -13.1670   20.4710 N   0  0  0  0  0  0  0  0  0  0  0  0
  -26.0530  -11.8630   20.6750 N   0  0  0  0  0  0  0  0  0  0  0  0
  -24.0700  -10.5330   20.9970 C   0  0  0  0  0  0  0  0  0  0  0  0
  -24.5040   -9.5490   21.9120 C   0  0  0  0  0  3  0  0  0  0  0  0
  -23.8270   -8.3130   22.0080 C   0  0  0  0  0  3  0  0  0  0  0  0
  -22.7040   -8.0530   21.1890 C   0  0  0  0  0  0  0  0  0  0  0  0
  -22.2900   -9.0280   20.2640 C   0  0  0  0  0  3  0  0  0  0  0  0
  -22.9660  -10.2550   20.1650 C   0  0  0  0  0  3  0  0  0  0  0  0
  -22.0010   -6.8730   21.1960 O   0  0  0  0  0  0  0  0  0  0  0  0
  -21.9590   -6.0670   22.3040 C   0  0  0  0  0  0  0  0  0  0  0  0
  -21.4790   -6.5360   23.5470 C   0  0  0  0  0  3  0  0  0  0  0  0
  -21.3870   -5.6550   24.6440 C   0  0  0  0  0  3  0  0  0  0  0  0
  -21.7640   -4.3070   24.4970 C   0  0  0  0  0  0  0  0  0  0  0  0
  -22.2350   -3.8360   23.2590 C   0  0  0  0  0  3  0  0  0  0  0  0
  -22.3290   -4.7150   22.1650 C   0  0  0  0  0  0  0  0  0  0  0  0
  -22.7640   -4.2520   20.9680 F   0  0  0  0  0  0  0  0  0  0  0  0
  -21.6680   -3.4580   25.5480 F   0  0  0  0  0  0  0  0  0  0  0  0
  -22.7820  -13.5630   21.1040 C   0  0  0  0  0  0  0  0  0  0  0  0
  -22.0370  -12.8200   21.9150 N   0  0  0  0  0  0  0  0  0  0  0  0
  -22.3260  -14.5700   20.5660 O   0  0  0  0  0  0  0  0  0  0  0  0
  -22.4180  -12.0060   22.3740 H   0  0  0  0  0  0  0  0  0  0  0  0
  -21.0710  -13.0690   22.0800 H   0  0  0  0  0  0  0  0  0  0  0  0
  -25.3790  -15.3720   20.5150 N   0  0  0  0  0  0  0  0  0  0  0  0
  -24.5750  -15.9860   20.5830 H   0  0  0  0  0  0  0  0  0  0  0  0
  -26.2260  -15.8600   20.2570 H   0  0  0  0  0  0  0  0  0  0  0  0
  -30.7790  -23.3030   18.8480 C   0  0  0  0  0  2  0  0  0  0  0  0
  -30.5760  -24.7440   19.4300 C   0  0  0  0  0  2  0  0  0  0  0  0
  -29.3560  -25.5380   18.8780 C   0  0  0  0  0  2  0  0  0  0  0  0
  -29.2980  -26.9120   19.3380 O   0  0  0  0  0  0  0  0  0  0  0  0
  -24.9840  -31.2580   23.0200 C   0  0  0  0  0  0  0  0  0  0  0  0
  -28.0620  -27.5480   19.3810 C   0  0  0  0  0  0  0  0  0  0  0  0
  -23.9300  -29.9980   21.1750 C   0  0  0  0  0  3  0  0  0  0  0  0
  -25.5310  -28.8330   19.5660 C   0  0  0  0  0  0  0  0  0  0  0  0
  -26.4130  -30.6160   21.0740 C   0  0  0  0  0  2  0  0  0  0  0  0
  -26.6350  -29.3660   20.2430 C   0  0  0  0  0  0  0  0  0  0  0  0
  -27.8990  -28.7340   20.1450 C   0  0  0  0  0  3  0  0  0  0  0  0
  -26.9310  -27.0450   18.6930 C   0  0  0  0  0  3  0  0  0  0  0  0
  -25.6770  -27.6750   18.7860 C   0  0  0  0  0  3  0  0  0  0  0  0
  -24.2100  -29.5540   19.7140 C   0  0  0  0  0  2  0  0  0  0  0  0
  -25.1260  -30.6340   21.8160 N   0  0  0  0  0  0  0  0  0  0  0  0
  -23.8800  -31.3440   23.5730 O   0  0  0  0  0  0  0  0  0  0  0  0
  -23.3780  -28.7900   21.9660 C   0  0  0  0  0  0  0  0  0  0  0  0
  -22.0760  -28.5040   21.7970 N   0  0  0  0  0  0  0  0  0  0  0  0
  -24.1180  -28.1180   22.6890 O   0  0  0  0  0  0  0  0  0  0  0  0
  -21.5330  -29.1070   21.1950 H   0  0  0  0  0  0  0  0  0  0  0  0
  -18.8290  -26.9410   22.0800 C   0  0  0  0  0  0  0  0  0  0  0  0
  -21.3530  -27.3910   22.4120 C   0  0  0  0  0  3  0  0  0  0  0  0
  -21.5850  -26.0760   21.6320 C   0  0  0  0  0  2  0  0  0  0  0  0
  -20.5140  -25.8080   20.5700 C   0  0  0  0  0  2  0  0  0  0  0  0
  -19.1270  -25.7280   21.2140 C   0  0  0  0  0  2  0  0  0  0  0  0
  -19.8740  -27.7320   22.6290 C   0  0  0  0  0  0  0  0  0  0  0  0
  -19.5410  -28.8690   23.3970 C   0  0  0  0  0  3  0  0  0  0  0  0
  -18.1970  -29.2160   23.6240 C   0  0  0  0  0  3  0  0  0  0  0  0
  -17.1660  -28.4230   23.0900 C   0  0  0  0  0  3  0  0  0  0  0  0
  -17.4830  -27.2870   22.3240 C   0  0  0  0  0  3  0  0  0  0  0  0
  -26.1990  -31.9160   23.7470 C   0  0  0  0  0  3  0  0  0  0  0  0
  -25.7810  -33.2540   24.1890 N   0  0  0  0  0  0  0  0  0  0  0  0
  -26.0770  -34.3930   23.5500 C   0  0  0  0  0  0  0  0  0  0  0  0
  -26.8040  -34.4330   22.5530 O   0  0  0  0  0  0  0  0  0  0  0  0
  -25.1430  -33.2930   24.9710 H   0  0  0  0  0  0  0  0  0  0  0  0
  -24.2510  -36.0980   23.2640 C   0  0  0  0  0  1  0  0  0  0  0  0
  -25.4720  -35.6970   24.1070 C   0  0  0  0  0  3  0  0  0  0  0  0
  -27.4970  -36.6240   25.1370 C   0  0  0  0  0  1  0  0  0  0  0  0
  -26.4330  -36.8200   24.1570 N   0  0  0  0  0  0  0  0  0  0  0  0
  -25.9560  -37.6900   24.3780 H   0  0  0  0  0  0  0  0  0  0  0  0
  -26.7290  -31.0660   24.9660 C   0  0  1  0  0  0  0  0  0  0  0  0
  -25.6230  -30.6570   25.9680 C   0  0  0  0  0  1  0  0  0  0  0  0
  -27.4180  -29.7730   24.4710 C   0  0  0  0  0  1  0  0  0  0  0  0
  -27.8020  -31.8690   25.7370 C   0  0  0  0  0  1  0  0  0  0  0  0
  1  3  1  0
  2  5  1  0
  2  1  2  0
  3  6  2  0
  4  8  1  0
  4  6  1  0
  5  4  2  0
  8  7  1  0
 10  9  1  0
 10  3  1  0
 10 11  1  0
 11 20  1  0
 12 20  1  0
 13 18  1  0
 14 15  1  0
 14 13  1  0
 16 15  1  0
 16 25  1  0
 16 17  1  0
 18 12  1  0
 18 17  1  0
 19 12  2  0
 20 21  1  0
 22 23  2  0
 23 42  1  0
 24 23  1  0
 24 27  1  0
 25 22  1  0
 25 26  1  0
 26 24  2  0
 27 28  1  0
 28 29  2  0
 30 33  1  0
 30 29  1  0
 31 30  2  0
 32 31  1  0
 32 27  2  0
 33 34  1  0
 34 35  1  0
 35 36  2  0
 37 36  1  0
 37 41  1  0
 38 37  2  0
 39 34  2  0
 39 38  1  0
 40 39  1  0
 42 43  1  0
 43 46  1  0
 43 45  1  0
 44 42  2  0
 47 48  1  0
 47 22  1  0
 49 47  1  0
 50  2  1  0
 50 51  1  0
 52 53  1  0
 52 51  1  0
 53 55  1  0
 54 65  2  0
 55 60  1  0
 56 64  1  0
 56 66  1  0
 57 63  1  0
 57 59  1  0
 58 64  1  0
 59 58  1  0
 60 59  2  0
 61 62  1  0
 61 55  2  0
 62 57  2  0
 63 56  1  0
 64 54  1  0
 66 68  2  0
 67 66  1  0
 69 67  1  0
 70 79  2  0
 70 75  1  0
 71 67  1  0
 71 75  1  0
 72 71  1  0
 73 74  1  0
 73 72  1  0
 74 70  1  0
 75 76  2  0
 76 77  1  0
 78 77  2  0
 79 78  1  0
 80 54  1  0
 80 81  1  0
 80 90  1  0
 81 84  1  0
 82 86  1  0
 82 81  1  0
 83 82  2  0
 86 85  1  0
 86 88  1  0
 88 89  1  0
 88 87  1  0
 90 93  1  1
 90 91  1  0
 92 90  1  0
M  ISO  4  12 100  20 100  52 101  53 101
M  END
>  <TORSDO>  (59) 
F 22

>  <SCORE>  (59) 
-9.520

>  <name>  (59) 
59

>  <ligand_id>  (59) 
59

>  <original_smiles>  (59) 
[H]c1c(C([H])([H])C([H])([H])C([H])([H])Oc2c([H])c([H])c3c(c2[H])C([H])([H])N(C(=O)C([H])(N([H])C(=O)C([H])(N([H])C([H])([H])[H])C([H])([H])[H])C(C([H])([H])[H])(C([H])([H])[H])C([H])([H])[H])C([H])(C(=O)N([H])C2([H])c4c([H])c([H])c([H])c([H])c4C([H])([H])C([H])([H])C2([H])[H])C3([H])[H])nc(C([H])([H])C([H])([H])[H])nc1C([H])(C([H])([H])[H])C([H])([H])N([H])C(=O)N1C([H])([H])C([H])([H])C([H])([H])C([H])(n2nc(-c3c([H])c([H])c(Oc4c([H])c([H])c(F)c([H])c4F)c([H])c3[H])c(C(=O)N([H])[H])c2N([H])[H])C1([H])[H]

>  <smiles>  (59) 
[H]c1c(C([H])([H])C([H])([H])C([H])([H])Oc2c([H])c([H])c3c(c2[H])C([H])([H])N(C(=O)C([H])(N([H])C(=O)C([H])(N([H])C([H])([H])[H])C([H])([H])[H])C(C([H])([H])[H])(C([H])([H])[H])C([H])([H])[H])C([H])(C(=O)N([H])C2([H])c4c([H])c([H])c([H])c([H])c4C([H])([H])C([H])([H])C2([H])[H])C3([H])[H])nc(C([H])([H])C([H])([H])[H])nc1C([H])(C([H])([H])[H])C([H])([H])N([H])C(=O)N1C([H])([H])C([H])([H])C([H])([H])C([H])(n2nc(-c3c([H])c([H])c(Oc4c([H])c([H])c(F)c([H])c4F)c([H])c3[H])c(C(=O)N([H])[H])c2N([H])[H])C1([H])[H]

$$$$
60:0:0
     RDKit          3D

 96104  0  0  1  0  0  0  0  0999 V2000
  -28.4340  -19.7620   18.6370 C   0  0  0  0  0  3  0  0  0  0  0  0
  -28.7810  -18.4410   18.6720 C   0  0  0  0  0  3  0  0  0  0  0  0
  -29.4650  -20.4390   19.3470 C   0  0  0  0  0  0  0  0  0  0  0  0
  -30.2880  -19.5410   19.9180 N   0  0  0  0  0  0  0  0  0  0  0  0
  -29.9170  -18.3030   19.4460 N   0  0  0  0  0  0  0  0  0  0  0  0
  -31.2300  -22.2250   19.4440 C   0  0  0  0  0  1  0  0  0  0  0  0
  -29.2440  -22.5320   18.0040 C   0  0  0  0  0  1  0  0  0  0  0  0
  -29.7070  -21.9740   19.3710 C   0  0  1  0  0  0  0  0  0  0  0  0
  -28.9990  -22.7340   20.5610 C   0  0  0  0  0  2  0  0  0  0  0  0
  -28.1360  -24.0380   20.3210 C   0  0  0  0  0  2  0  0  0  0  0  0
  -28.7760  -25.3110   19.6730 C   0  0  0  0  0  2  0  0  0  0  0  0
  -28.5610  -26.5850   20.3270 O   0  0  0  0  0  0  0  0  0  0  0  0
  -24.5450  -31.7410   23.1560 C   0  0  0  0  0  0  0  0  0  0  0  0
  -27.3690  -27.2850   20.2170 C   0  0  0  0  0  0  0  0  0  0  0  0
  -23.4200  -30.3050   21.4850 C   0  0  0  0  0  3  0  0  0  0  0  0
  -24.9500  -28.7760   20.1200 C   0  0  0  0  0  0  0  0  0  0  0  0
  -25.9470  -30.6950   21.3780 C   0  0  0  0  0  2  0  0  0  0  0  0
  -26.0750  -29.3170   20.7520 C   0  0  0  0  0  0  0  0  0  0  0  0
  -27.2810  -28.5760   20.8010 C   0  0  0  0  0  3  0  0  0  0  0  0
  -26.2240  -26.7680   19.5720 C   0  0  0  0  0  3  0  0  0  0  0  0
  -25.0210  -27.5040   19.5250 C   0  0  0  0  0  3  0  0  0  0  0  0
  -23.6890  -29.6160   20.1190 C   0  0  0  0  0  2  0  0  0  0  0  0
  -24.6530  -30.9310   22.0650 N   0  0  0  0  0  0  0  0  0  0  0  0
  -23.4410  -32.0010   23.6550 O   0  0  0  0  0  0  0  0  0  0  0  0
  -22.7520  -29.2820   22.4320 C   0  0  0  0  0  0  0  0  0  0  0  0
  -21.4310  -29.0920   22.2730 N   0  0  0  0  0  0  0  0  0  0  0  0
  -23.4180  -28.6630   23.2650 O   0  0  0  0  0  0  0  0  0  0  0  0
  -20.9540  -29.6420   21.5720 H   0  0  0  0  0  0  0  0  0  0  0  0
  -18.0530  -27.8820   22.6950 C   0  0  0  0  0  0  0  0  0  0  0  0
  -20.6020  -28.1500   23.0260 C   0  0  0  0  0  3  0  0  0  0  0  0
  -20.7250  -26.7210   22.4510 C   0  0  0  0  0  2  0  0  0  0  0  0
  -19.6470  -26.3940   21.4120 C   0  0  0  0  0  2  0  0  0  0  0  0
  -18.2510  -26.5340   22.0230 C   0  0  0  0  0  2  0  0  0  0  0  0
  -19.1580  -28.6480   23.1520 C   0  0  0  0  0  0  0  0  0  0  0  0
  -18.9210  -29.9110   23.7380 C   0  0  0  0  0  3  0  0  0  0  0  0
  -17.6120  -30.4060   23.8730 C   0  0  0  0  0  3  0  0  0  0  0  0
  -16.5190  -29.6370   23.4350 C   0  0  0  0  0  3  0  0  0  0  0  0
  -16.7410  -28.3770   22.8520 C   0  0  0  0  0  3  0  0  0  0  0  0
  -25.7970  -32.3980   23.8140 C   0  0  0  0  0  3  0  0  0  0  0  0
  -26.3070  -31.6260   25.0930 C   0  0  1  0  0  0  0  0  0  0  0  0
  -25.1960  -31.3470   26.1320 C   0  0  0  0  0  1  0  0  0  0  0  0
  -26.9350  -30.2690   24.6980 C   0  0  0  0  0  1  0  0  0  0  0  0
  -27.4210  -32.4420   25.7890 C   0  0  0  0  0  1  0  0  0  0  0  0
  -25.4450  -33.7840   24.1510 N   0  0  0  0  0  0  0  0  0  0  0  0
  -25.7590  -34.8530   23.4060 C   0  0  0  0  0  0  0  0  0  0  0  0
  -26.4480  -34.7780   22.3840 O   0  0  0  0  0  0  0  0  0  0  0  0
  -24.8340  -33.9150   24.9440 H   0  0  0  0  0  0  0  0  0  0  0  0
  -23.9790  -36.5920   23.0480 C   0  0  0  0  0  1  0  0  0  0  0  0
  -25.2260  -36.2220   23.8680 C   0  0  0  0  0  3  0  0  0  0  0  0
  -27.3260  -37.1670   24.7200 C   0  0  0  0  0  1  0  0  0  0  0  0
  -26.2260  -37.3070   23.7700 N   0  0  0  0  0  0  0  0  0  0  0  0
  -25.7910  -38.2140   23.9200 H   0  0  0  0  0  0  0  0  0  0  0  0
  -32.2430  -17.4690   19.8510 C   0  0  0  0  0  1  0  0  0  0  0  0
  -30.7680  -17.0750   19.5890 C   0  0  0  0  0  3  0  0  0  0  0  0
  -28.6840  -16.0040   20.6090 C   0  0  0  0  0  1  0  0  0  0  0  0
  -30.2120  -15.7950   20.4230 C   0  0  1  0  0  0  0  0  0  0  0  0
  -30.6400  -14.4280   19.6860 C   0  0  0  0  0  0  0  0  0  0  0  0
  -30.1400  -12.3070   18.4740 C   0  0  0  0  0  2  0  0  0  0  0  0
  -29.0650  -12.5450   17.3940 C   0  0  0  0  0  2  0  0  0  0  0  0
  -27.6490  -12.3910   17.9850 C   0  0  0  0  0  2  0  0  0  0  0  0
  -27.4810  -13.1780   19.3090 C   0  0  0  0  0  3  0  0  0  0  0  0
  -28.6630  -12.8900   20.2670 C   0  0  0  0  0  2  0  0  0  0  0  0
  -29.9000  -13.2720   19.5750 N   0  0  0  0  0  0  0  0  0  0  0  0
  -31.7150  -14.4680   19.0780 O   0  0  0  0  0  0  0  0  0  0  0  0
  -25.2020  -13.8420   20.2980 C   0  0  0  0  0  0  0  0  0  0  0  0
  -24.1650  -13.0890   20.7760 C   0  0  0  0  0  0  0  0  0  0  0  0
  -24.5880  -11.7290   20.6750 C   0  0  0  0  0  0  0  0  0  0  0  0
  -26.1910  -12.9360   19.9400 N   0  0  0  0  0  0  0  0  0  0  0  0
  -25.8320  -11.6610   20.2240 N   0  0  0  0  0  0  0  0  0  0  0  0
  -23.8590  -10.4830   20.9250 C   0  0  0  0  0  0  0  0  0  0  0  0
  -24.3570   -9.5030   21.8110 C   0  0  0  0  0  3  0  0  0  0  0  0
  -23.6280   -8.3170   22.0470 C   0  0  0  0  0  3  0  0  0  0  0  0
  -22.3900   -8.1050   21.3950 C   0  0  0  0  0  0  0  0  0  0  0  0
  -21.9140   -9.0720   20.4930 C   0  0  0  0  0  3  0  0  0  0  0  0
  -22.6410  -10.2490   20.2560 C   0  0  0  0  0  3  0  0  0  0  0  0
  -21.6240   -6.9740   21.5450 O   0  0  0  0  0  0  0  0  0  0  0  0
  -21.6390   -6.2450   22.7070 C   0  0  0  0  0  0  0  0  0  0  0  0
  -21.3190   -6.8240   23.9550 C   0  0  0  0  0  3  0  0  0  0  0  0
  -21.2790   -6.0220   25.1130 C   0  0  0  0  0  3  0  0  0  0  0  0
  -21.5490   -4.6430   25.0250 C   0  0  0  0  0  0  0  0  0  0  0  0
  -21.8660   -4.0650   23.7840 C   0  0  0  0  0  3  0  0  0  0  0  0
  -21.9070   -4.8630   22.6270 C   0  0  0  0  0  0  0  0  0  0  0  0
  -22.1900   -4.2970   21.4300 F   0  0  0  0  0  0  0  0  0  0  0  0
  -21.5040   -3.8720   26.1350 F   0  0  0  0  0  0  0  0  0  0  0  0
  -22.8200  -13.5940   21.2110 C   0  0  0  0  0  0  0  0  0  0  0  0
  -22.1870  -12.9110   22.1580 N   0  0  0  0  0  0  0  0  0  0  0  0
  -22.3440  -14.6290   20.7470 O   0  0  0  0  0  0  0  0  0  0  0  0
  -22.5880  -12.0720   22.5530 H   0  0  0  0  0  0  0  0  0  0  0  0
  -21.2890  -13.2290   22.4920 H   0  0  0  0  0  0  0  0  0  0  0  0
  -25.3720  -15.2110   20.1170 N   0  0  0  0  0  0  0  0  0  0  0  0
  -24.6330  -15.8740   20.3220 H   0  0  0  0  0  0  0  0  0  0  0  0
  -26.1850  -15.6420   19.7020 H   0  0  0  0  0  0  0  0  0  0  0  0
  -30.8100  -15.7530   21.8670 C   0  0  2  0  0  0  0  0  0  0  0  0
  -32.1210  -15.5000   21.8900 F   0  0  0  0  0  0  0  0  0  0  0  0
  -30.2350  -14.7830   22.5810 F   0  0  0  0  0  0  0  0  0  0  0  0
  -30.6000  -16.9030   22.5080 F   0  0  0  0  0  0  0  0  0  0  0  0
  1  2  2  0
  1  3  1  0
  2  5  1  0
  3  8  1  0
  3  4  2  0
  5 54  1  0
  5  4  1  0
  8  7  1  6
  8  6  1  0
  8  9  1  0
 10  9  1  0
 11 10  1  0
 11 12  1  0
 13 24  2  0
 14 12  1  0
 14 19  1  0
 15 23  1  0
 15 25  1  0
 16 18  1  0
 17 23  1  0
 18 19  2  0
 18 17  1  0
 20 14  2  0
 21 20  1  0
 21 16  2  0
 22 16  1  0
 22 15  1  0
 23 13  1  0
 25 27  2  0
 26 25  1  0
 28 26  1  0
 29 38  2  0
 29 34  1  0
 30 26  1  0
 30 34  1  0
 31 30  1  0
 32 33  1  0
 32 31  1  0
 33 29  1  0
 34 35  2  0
 35 36  1  0
 37 36  2  0
 38 37  1  0
 39 13  1  0
 39 44  1  0
 39 40  1  0
 40 43  1  1
 40 41  1  0
 42 40  1  0
 44 47  1  0
 45 49  1  0
 45 44  1  0
 46 45  2  0
 49 48  1  0
 51 49  1  0
 51 52  1  0
 51 50  1  0
 54 53  1  0
 54 56  1  0
 56 55  1  1
 56 93  1  0
 57 56  1  0
 58 63  1  0
 59 60  1  0
 59 58  1  0
 61 60  1  0
 61 68  1  0
 61 62  1  0
 63 57  1  0
 63 62  1  0
 64 57  2  0
 65 66  2  0
 66 85  1  0
 67 66  1  0
 67 70  1  0
 68 69  1  0
 68 65  1  0
 69 67  2  0
 70 71  1  0
 71 72  2  0
 73 76  1  0
 73 72  1  0
 74 73  2  0
 75 74  1  0
 75 70  2  0
 76 77  1  0
 77 78  1  0
 78 79  2  0
 80 79  1  0
 80 84  1  0
 81 80  2  0
 82 77  2  0
 82 81  1  0
 83 82  1  0
 85 86  1  0
 86 89  1  0
 86 88  1  0
 87 85  2  0
 90 65  1  0
 90 91  1  0
 92 90  1  0
 93 94  1  6
 93 96  1  0
 93 95  1  0
M  ISO  4  11 101  12 101  56 100  57 100
M  END
>  <TORSDO>  (60) 
F 23

>  <SCORE>  (60) 
-11.365

>  <name>  (60) 
60

>  <ligand_id>  (60) 
60

>  <original_smiles>  (60) 
[H]c1c([H])c([H])c2c(c1[H])C([H])([H])C([H])([H])C([H])([H])C2([H])N([H])C(=O)C1([H])N(C(=O)C([H])(N([H])C(=O)C([H])(N([H])C([H])([H])[H])C([H])([H])[H])C(C([H])([H])[H])(C([H])([H])[H])C([H])([H])[H])C([H])([H])c2c([H])c(OC([H])([H])C([H])([H])C([H])([H])C(c3nn(C([H])(C([H])([H])[H])C(C(=O)N4C([H])([H])C([H])([H])C([H])([H])C([H])(n5nc(-c6c([H])c([H])c(Oc7c([H])c([H])c(F)c([H])c7F)c([H])c6[H])c(C(=O)N([H])[H])c5N([H])[H])C4([H])[H])(C([H])([H])[H])C(F)(F)F)c([H])c3[H])(C([H])([H])[H])C([H])([H])[H])c([H])c([H])c2C1([H])[H]

>  <smiles>  (60) 
[H]c1c([H])c([H])c2c(c1[H])C([H])([H])C([H])([H])C([H])([H])C2([H])N([H])C(=O)C1([H])N(C(=O)C([H])(N([H])C(=O)C([H])(N([H])C([H])([H])[H])C([H])([H])[H])C(C([H])([H])[H])(C([H])([H])[H])C([H])([H])[H])C([H])([H])c2c([H])c(OC([H])([H])C([H])([H])C([H])([H])C(c3nn(C([H])(C([H])([H])[H])C(C(=O)N4C([H])([H])C([H])([H])C([H])([H])C([H])(n5nc(-c6c([H])c([H])c(Oc7c([H])c([H])c(F)c([H])c7F)c([H])c6[H])c(C(=O)N([H])[H])c5N([H])[H])C4([H])[H])(C([H])([H])[H])C(F)(F)F)c([H])c3[H])(C([H])([H])[H])C([H])([H])[H])c([H])c([H])c2C1([H])[H]

$$$$
61:0:0
     RDKit          3D

 94102  0  0  1  0  0  0  0  0999 V2000
  -27.6840  -23.4540   18.3820 C   0  0  0  0  0  1  0  0  0  0  0  0
  -29.0040  -23.0860   19.1110 C   0  0  1  0  0  0  0  0  0  0  0  0
  -29.9650  -20.8350   20.0970 C   0  0  0  0  0  3  0  0  0  0  0  0
  -28.3440  -20.6480   18.6900 C   0  0  0  0  0  3  0  0  0  0  0  0
  -29.6460  -19.4870   19.9560 C   0  0  0  0  0  0  0  0  0  0  0  0
  -28.5970  -19.3920   19.0480 N   0  0  0  0  0  0  0  0  0  0  0  0
  -29.0780  -21.5960   19.3100 N   0  0  0  0  0  0  0  0  0  0  0  0
  -29.1020  -18.1080   21.9270 C   0  0  0  0  0  1  0  0  0  0  0  0
  -30.0990  -18.2620   20.7610 C   0  0  0  0  0  3  0  0  0  0  0  0
  -30.2620  -16.9280   19.9210 C   0  0  0  0  0  2  0  0  0  0  0  0
  -32.5010  -16.1200   20.7880 C   0  0  0  0  0  1  0  0  0  0  0  0
  -30.5100  -15.2360   21.9100 C   0  0  0  0  0  1  0  0  0  0  0  0
  -31.0350  -15.6700   20.5200 C   0  0  1  0  0  0  0  0  0  0  0  0
  -31.1230  -14.4790   19.4590 C   0  0  0  0  0  0  0  0  0  0  0  0
  -30.4490  -12.4180   18.2310 C   0  0  0  0  0  2  0  0  0  0  0  0
  -29.3730  -12.7210   17.1680 C   0  0  0  0  0  2  0  0  0  0  0  0
  -27.9580  -12.6390   17.7750 C   0  0  0  0  0  2  0  0  0  0  0  0
  -27.8520  -13.4360   19.1010 C   0  0  0  0  0  3  0  0  0  0  0  0
  -29.0250  -13.0920   20.0390 C   0  0  0  0  0  2  0  0  0  0  0  0
  -30.2940  -13.3830   19.3490 N   0  0  0  0  0  0  0  0  0  0  0  0
  -32.0550  -14.5810   18.6570 O   0  0  0  0  0  0  0  0  0  0  0  0
  -25.6610  -14.1650   20.2380 C   0  0  0  0  0  0  0  0  0  0  0  0
  -24.5950  -13.4480   20.7200 C   0  0  0  0  0  0  0  0  0  0  0  0
  -24.9210  -12.0730   20.5180 C   0  0  0  0  0  0  0  0  0  0  0  0
  -26.5670  -13.2270   19.7690 N   0  0  0  0  0  0  0  0  0  0  0  0
  -26.1360  -11.9580   19.9960 N   0  0  0  0  0  0  0  0  0  0  0  0
  -24.1180  -10.8620   20.7340 C   0  0  0  0  0  0  0  0  0  0  0  0
  -24.5940   -9.7890   21.5200 C   0  0  0  0  0  3  0  0  0  0  0  0
  -23.7950   -8.6420   21.7250 C   0  0  0  0  0  3  0  0  0  0  0  0
  -22.5060   -8.5630   21.1460 C   0  0  0  0  0  0  0  0  0  0  0  0
  -22.0480   -9.6230   20.3420 C   0  0  0  0  0  3  0  0  0  0  0  0
  -22.8460  -10.7600   20.1360 C   0  0  0  0  0  3  0  0  0  0  0  0
  -21.6690   -7.4820   21.2700 O   0  0  0  0  0  0  0  0  0  0  0  0
  -21.7170   -6.6550   22.3610 C   0  0  0  0  0  0  0  0  0  0  0  0
  -21.5550   -7.1430   23.6770 C   0  0  0  0  0  3  0  0  0  0  0  0
  -21.5430   -6.2470   24.7630 C   0  0  0  0  0  3  0  0  0  0  0  0
  -21.6850   -4.8650   24.5390 C   0  0  0  0  0  0  0  0  0  0  0  0
  -21.8420   -4.3760   23.2310 C   0  0  0  0  0  3  0  0  0  0  0  0
  -21.8560   -5.2690   22.1440 C   0  0  0  0  0  0  0  0  0  0  0  0
  -21.9840   -4.7900   20.8830 F   0  0  0  0  0  0  0  0  0  0  0  0
  -21.6660   -4.0020   25.5830 F   0  0  0  0  0  0  0  0  0  0  0  0
  -23.3050  -14.0100   21.2460 C   0  0  0  0  0  0  0  0  0  0  0  0
  -22.6630  -13.3110   22.1780 N   0  0  0  0  0  0  0  0  0  0  0  0
  -22.8770  -15.0970   20.8620 O   0  0  0  0  0  0  0  0  0  0  0  0
  -23.0250  -12.4300   22.5110 H   0  0  0  0  0  0  0  0  0  0  0  0
  -21.7980  -13.6640   22.5610 H   0  0  0  0  0  0  0  0  0  0  0  0
  -25.9210  -15.5260   20.1410 N   0  0  0  0  0  0  0  0  0  0  0  0
  -25.2460  -16.2290   20.4200 H   0  0  0  0  0  0  0  0  0  0  0  0
  -26.7600  -15.9250   19.7390 H   0  0  0  0  0  0  0  0  0  0  0  0
  -30.3610  -22.8180   16.8710 C   0  0  0  0  0  1  0  0  0  0  0  0
  -30.1960  -23.5410   18.2230 C   0  0  0  0  0  2  0  0  0  0  0  0
  -29.0830  -23.8820   20.4780 C   0  0  0  0  0  2  0  0  0  0  0  0
  -28.1830  -25.1450   20.7570 C   0  0  0  0  0  2  0  0  0  0  0  0
  -28.4810  -26.4560   20.1800 O   0  0  0  0  0  0  0  0  0  0  0  0
  -24.5540  -31.6790   23.1500 C   0  0  0  0  0  0  0  0  0  0  0  0
  -27.3610  -27.2760   20.1030 C   0  0  0  0  0  0  0  0  0  0  0  0
  -23.4220  -30.2490   21.4830 C   0  0  0  0  0  3  0  0  0  0  0  0
  -24.9450  -28.7690   20.0680 C   0  0  0  0  0  0  0  0  0  0  0  0
  -25.9470  -30.6680   21.3410 C   0  0  0  0  0  2  0  0  0  0  0  0
  -26.0850  -29.3040   20.6860 C   0  0  0  0  0  0  0  0  0  0  0  0
  -27.3000  -28.5660   20.7000 C   0  0  0  0  0  3  0  0  0  0  0  0
  -26.2100  -26.7930   19.4440 C   0  0  0  0  0  3  0  0  0  0  0  0
  -25.0070  -27.5160   19.4410 C   0  0  0  0  0  3  0  0  0  0  0  0
  -23.6760  -29.5900   20.1040 C   0  0  0  0  0  2  0  0  0  0  0  0
  -24.6580  -30.8820   22.0480 N   0  0  0  0  0  0  0  0  0  0  0  0
  -23.4550  -31.9160   23.6700 O   0  0  0  0  0  0  0  0  0  0  0  0
  -22.7830  -29.2020   22.4260 C   0  0  0  0  0  0  0  0  0  0  0  0
  -21.4650  -28.9870   22.2830 N   0  0  0  0  0  0  0  0  0  0  0  0
  -23.4710  -28.5900   23.2460 O   0  0  0  0  0  0  0  0  0  0  0  0
  -20.9670  -29.5350   21.5960 H   0  0  0  0  0  0  0  0  0  0  0  0
  -18.1200  -27.6880   22.7240 C   0  0  0  0  0  0  0  0  0  0  0  0
  -20.6650  -28.0240   23.0390 C   0  0  0  0  0  3  0  0  0  0  0  0
  -20.8210  -26.5970   22.4630 C   0  0  0  0  0  2  0  0  0  0  0  0
  -19.7460  -26.2430   21.4300 C   0  0  0  0  0  2  0  0  0  0  0  0
  -18.3500  -26.3460   22.0510 C   0  0  0  0  0  2  0  0  0  0  0  0
  -19.2080  -28.4820   23.1740 C   0  0  0  0  0  0  0  0  0  0  0  0
  -18.9410  -29.7370   23.7620 C   0  0  0  0  0  3  0  0  0  0  0  0
  -17.6190  -30.1990   23.9080 C   0  0  0  0  0  3  0  0  0  0  0  0
  -16.5460  -29.4010   23.4750 C   0  0  0  0  0  3  0  0  0  0  0  0
  -16.7970  -28.1470   22.8900 C   0  0  0  0  0  3  0  0  0  0  0  0
  -25.8080  -32.3490   23.7930 C   0  0  0  0  0  3  0  0  0  0  0  0
  -25.4470  -33.7330   24.1290 N   0  0  0  0  0  0  0  0  0  0  0  0
  -25.7480  -34.8020   23.3800 C   0  0  0  0  0  0  0  0  0  0  0  0
  -26.4290  -34.7300   22.3540 O   0  0  0  0  0  0  0  0  0  0  0  0
  -24.8410  -33.8630   24.9270 H   0  0  0  0  0  0  0  0  0  0  0  0
  -23.9580  -36.5320   23.0230 C   0  0  0  0  0  1  0  0  0  0  0  0
  -25.2060  -36.1690   23.8420 C   0  0  0  0  0  3  0  0  0  0  0  0
  -27.3020  -37.1200   24.6930 C   0  0  0  0  0  1  0  0  0  0  0  0
  -26.2000  -37.2600   23.7460 N   0  0  0  0  0  0  0  0  0  0  0  0
  -25.7590  -38.1620   23.9050 H   0  0  0  0  0  0  0  0  0  0  0  0
  -26.3370  -31.5870   25.0690 C   0  0  1  0  0  0  0  0  0  0  0  0
  -25.2410  -31.3010   26.1220 C   0  0  0  0  0  1  0  0  0  0  0  0
  -26.9720  -30.2330   24.6750 C   0  0  0  0  0  1  0  0  0  0  0  0
  -27.4530  -32.4150   25.7500 C   0  0  0  0  0  1  0  0  0  0  0  0
  2  1  1  6
  2  7  1  0
  2 52  1  0
  4  6  2  0
  4  7  1  0
  5  3  2  0
  5  9  1  0
  6  5  1  0
  7  3  1  0
  9  8  1  0
 10 13  1  0
 10  9  1  0
 13 11  1  1
 13 12  1  0
 14 13  1  0
 15 20  1  0
 16 17  1  0
 16 15  1  0
 18 17  1  0
 18 25  1  0
 18 19  1  0
 20 14  1  0
 20 19  1  0
 21 14  2  0
 22 23  2  0
 23 42  1  0
 24 23  1  0
 24 27  1  0
 25 26  1  0
 25 22  1  0
 26 24  2  0
 27 28  1  0
 28 29  2  0
 30 33  1  0
 30 29  1  0
 31 30  2  0
 32 31  1  0
 32 27  2  0
 33 34  1  0
 34 35  1  0
 35 36  2  0
 37 36  1  0
 37 41  1  0
 38 37  2  0
 39 34  2  0
 39 38  1  0
 40 39  1  0
 42 43  1  0
 43 45  1  0
 43 46  1  0
 44 42  2  0
 47 22  1  0
 47 48  1  0
 49 47  1  0
 50 51  1  0
 51  2  1  0
 52 53  1  0
 54 53  1  0
 55 66  2  0
 56 54  1  0
 56 61  1  0
 57 65  1  0
 57 67  1  0
 58 64  1  0
 58 60  1  0
 59 65  1  0
 60 61  2  0
 60 59  1  0
 62 56  2  0
 63 62  1  0
 63 58  2  0
 64 57  1  0
 65 55  1  0
 67 69  2  0
 68 67  1  0
 70 68  1  0
 71 80  2  0
 71 76  1  0
 72 68  1  0
 72 76  1  0
 73 72  1  0
 74 75  1  0
 74 73  1  0
 75 71  1  0
 76 77  2  0
 77 78  1  0
 79 78  2  0
 80 79  1  0
 81 55  1  0
 81 82  1  0
 81 91  1  0
 82 85  1  0
 83 87  1  0
 83 82  1  0
 84 83  2  0
 87 86  1  0
 89 87  1  0
 89 90  1  0
 89 88  1  0
 91 94  1  1
 91 92  1  0
 93 91  1  0
M  ISO  4  13 100  14 100  53 101  54 101
M  END
>  <TORSDO>  (61) 
F 23

>  <SCORE>  (61) 
-9.315

>  <name>  (61) 
61

>  <ligand_id>  (61) 
61

>  <original_smiles>  (61) 
[H]c1c([H])c([H])c2c(c1[H])C([H])([H])C([H])([H])C([H])([H])C2([H])N([H])C(=O)C1([H])N(C(=O)C([H])(N([H])C(=O)C([H])(N([H])C([H])([H])[H])C([H])([H])[H])C(C([H])([H])[H])(C([H])([H])[H])C([H])([H])[H])C([H])([H])c2c([H])c(OC([H])([H])C([H])([H])C(n3c([H])nc(C([H])(C([H])([H])[H])C([H])([H])C(C(=O)N4C([H])([H])C([H])([H])C([H])([H])C([H])(n5nc(-c6c([H])c([H])c(Oc7c([H])c([H])c(F)c([H])c7F)c([H])c6[H])c(C(=O)N([H])[H])c5N([H])[H])C4([H])[H])(C([H])([H])[H])C([H])([H])[H])c3[H])(C([H])([H])[H])C([H])([H])C([H])([H])[H])c([H])c([H])c2C1([H])[H]

>  <smiles>  (61) 
[H]c1c([H])c([H])c2c(c1[H])C([H])([H])C([H])([H])C([H])([H])C2([H])N([H])C(=O)C1([H])N(C(=O)C([H])(N([H])C(=O)C([H])(N([H])C([H])([H])[H])C([H])([H])[H])C(C([H])([H])[H])(C([H])([H])[H])C([H])([H])[H])C([H])([H])c2c([H])c(OC([H])([H])C([H])([H])C(n3c([H])nc(C([H])(C([H])([H])[H])C([H])([H])C(C(=O)N4C([H])([H])C([H])([H])C([H])([H])C([H])(n5nc(-c6c([H])c([H])c(Oc7c([H])c([H])c(F)c([H])c7F)c([H])c6[H])c(C(=O)N([H])[H])c5N([H])[H])C4([H])[H])(C([H])([H])[H])C([H])([H])[H])c3[H])(C([H])([H])[H])C([H])([H])C([H])([H])[H])c([H])c([H])c2C1([H])[H]

$$$$
62:0:0
     RDKit          3D

 96104  0  0  1  0  0  0  0  0999 V2000
  -27.3830  -20.4970   20.0640 C   0  0  0  0  0  2  0  0  0  0  0  0
  -27.3530  -19.2310   19.1890 C   0  0  0  0  0  2  0  0  0  0  0  0
  -28.7600  -18.7300   18.8030 C   0  0  0  0  0  2  0  0  0  0  0  0
  -31.3940  -14.2870   19.6910 C   0  0  0  0  0  0  0  0  0  0  0  0
  -30.6880  -12.2780   18.4580 C   0  0  0  0  0  2  0  0  0  0  0  0
  -29.6280  -12.5700   17.3850 C   0  0  0  0  0  2  0  0  0  0  0  0
  -28.2170  -12.5080   17.9940 C   0  0  0  0  0  2  0  0  0  0  0  0
  -28.0890  -13.3760   19.2710 C   0  0  0  0  0  3  0  0  0  0  0  0
  -29.2460  -13.0870   20.2540 C   0  0  0  0  0  2  0  0  0  0  0  0
  -30.5300  -13.2510   19.5440 N   0  0  0  0  0  0  0  0  0  0  0  0
  -32.3070  -14.5320   18.8890 O   0  0  0  0  0  0  0  0  0  0  0  0
  -29.9150  -16.7560   19.9030 C   0  0  0  0  0  3  0  0  0  0  0  0
  -29.5450  -18.1010   19.9440 C   0  0  0  0  0  0  0  0  0  0  0  0
  -30.7620  -16.2680   20.9210 C   0  0  0  0  0  0  0  0  0  0  0  0
  -30.6610  -18.3450   21.9160 C   0  0  0  0  0  0  0  0  0  0  0  0
  -31.0260  -19.2390   23.0770 C   0  0  0  0  0  1  0  0  0  0  0  0
  -32.2260  -14.5100   21.9140 C   0  0  0  0  0  1  0  0  0  0  0  0
  -29.9490  -18.8980   20.9450 N   0  0  0  0  0  0  0  0  0  0  0  0
  -31.0850  -17.0880   21.9480 N   0  0  0  0  0  0  0  0  0  0  0  0
  -31.2980  -14.9450   20.8610 N   0  0  0  0  0  0  0  0  0  0  0  0
  -25.8740  -14.1560   20.3290 C   0  0  0  0  0  0  0  0  0  0  0  0
  -24.7850  -13.4620   20.7890 C   0  0  0  0  0  0  0  0  0  0  0  0
  -25.1000  -12.0790   20.6180 C   0  0  0  0  0  0  0  0  0  0  0  0
  -26.7850  -13.2000   19.9100 N   0  0  0  0  0  0  0  0  0  0  0  0
  -26.3300  -11.9410   20.1380 N   0  0  0  0  0  0  0  0  0  0  0  0
  -24.2820  -10.8770   20.8310 C   0  0  0  0  0  0  0  0  0  0  0  0
  -24.6730   -9.8690   21.7390 C   0  0  0  0  0  3  0  0  0  0  0  0
  -23.8600   -8.7310   21.9370 C   0  0  0  0  0  3  0  0  0  0  0  0
  -22.6430   -8.5950   21.2260 C   0  0  0  0  0  0  0  0  0  0  0  0
  -22.2710   -9.5940   20.3070 C   0  0  0  0  0  3  0  0  0  0  0  0
  -23.0830  -10.7220   20.1080 C   0  0  0  0  0  3  0  0  0  0  0  0
  -21.8030   -7.5150   21.3380 O   0  0  0  0  0  0  0  0  0  0  0  0
  -21.6850   -6.8130   22.5110 C   0  0  0  0  0  0  0  0  0  0  0  0
  -21.2400   -7.4250   23.7030 C   0  0  0  0  0  3  0  0  0  0  0  0
  -21.0660   -6.6540   24.8690 C   0  0  0  0  0  3  0  0  0  0  0  0
  -21.3230   -5.2690   24.8430 C   0  0  0  0  0  0  0  0  0  0  0  0
  -21.7590   -4.6570   23.6550 C   0  0  0  0  0  3  0  0  0  0  0  0
  -21.9370   -5.4270   22.4920 C   0  0  0  0  0  0  0  0  0  0  0  0
  -22.3390   -4.8280   21.3450 F   0  0  0  0  0  0  0  0  0  0  0  0
  -21.1470   -4.5250   25.9600 F   0  0  0  0  0  0  0  0  0  0  0  0
  -23.4880  -14.0450   21.2700 C   0  0  0  0  0  0  0  0  0  0  0  0
  -22.8420  -13.3940   22.2330 N   0  0  0  0  0  0  0  0  0  0  0  0
  -23.0620  -15.1100   20.8280 O   0  0  0  0  0  0  0  0  0  0  0  0
  -23.1950  -12.5260   22.6090 H   0  0  0  0  0  0  0  0  0  0  0  0
  -21.9750  -13.7640   22.5950 H   0  0  0  0  0  0  0  0  0  0  0  0
  -26.1560  -15.5140   20.2140 N   0  0  0  0  0  0  0  0  0  0  0  0
  -25.4880  -16.2280   20.4820 H   0  0  0  0  0  0  0  0  0  0  0  0
  -27.0100  -15.8930   19.8260 H   0  0  0  0  0  0  0  0  0  0  0  0
  -26.3310  -21.5530   19.6830 C   0  0  0  0  0  2  0  0  0  0  0  0
  -25.3320  -23.6240   20.5520 C   0  0  0  0  0  1  0  0  0  0  0  0
  -26.5760  -22.8290   20.3970 N   0  0  2  0  0  4  0  0  0  0  0  0
  -26.8670  -22.5710   21.3270 H   0  0  0  0  0  0  0  0  0  0  0  0
  -27.6770  -23.6140   19.7720 C   0  0  0  0  0  2  0  0  0  0  0  0
  -28.3260  -24.6270   20.7340 C   0  0  0  0  0  2  0  0  0  0  0  0
  -29.1850  -25.6640   19.9770 C   0  0  0  0  0  2  0  0  0  0  0  0
  -29.0070  -26.9770   20.5000 O   0  0  0  0  0  0  0  0  0  0  0  0
  -24.5750  -31.7440   23.2900 C   0  0  0  0  0  0  0  0  0  0  0  0
  -27.7710  -27.5750   20.3780 C   0  0  0  0  0  0  0  0  0  0  0  0
  -23.6030  -30.2900   21.5410 C   0  0  0  0  0  3  0  0  0  0  0  0
  -25.2690  -28.8820   20.2280 C   0  0  0  0  0  0  0  0  0  0  0  0
  -26.1030  -30.8280   21.5560 C   0  0  0  0  0  2  0  0  0  0  0  0
  -26.3330  -29.4790   20.9130 C   0  0  0  0  0  0  0  0  0  0  0  0
  -27.5800  -28.8300   20.9950 C   0  0  0  0  0  3  0  0  0  0  0  0
  -26.6890  -26.9970   19.6700 C   0  0  0  0  0  3  0  0  0  0  0  0
  -25.4390  -27.6340   19.6090 C   0  0  0  0  0  3  0  0  0  0  0  0
  -23.9660  -29.6450   20.1790 C   0  0  0  0  0  2  0  0  0  0  0  0
  -24.7730  -30.9660   22.1890 N   0  0  0  0  0  0  0  0  0  0  0  0
  -23.4380  -31.9350   23.7430 O   0  0  0  0  0  0  0  0  0  0  0  0
  -22.9500  -29.2110   22.4340 C   0  0  0  0  0  0  0  0  0  0  0  0
  -21.6380  -28.9960   22.2470 N   0  0  0  0  0  0  0  0  0  0  0  0
  -23.6210  -28.5720   23.2480 O   0  0  0  0  0  0  0  0  0  0  0  0
  -21.1570  -29.5610   21.5610 H   0  0  0  0  0  0  0  0  0  0  0  0
  -18.2720  -27.7600   22.6280 C   0  0  0  0  0  0  0  0  0  0  0  0
  -20.8230  -28.0090   22.9500 C   0  0  0  0  0  3  0  0  0  0  0  0
  -20.9410  -26.6190   22.2840 C   0  0  0  0  0  2  0  0  0  0  0  0
  -19.8550  -26.3600   21.2360 C   0  0  0  0  0  2  0  0  0  0  0  0
  -18.4630  -26.4580   21.8690 C   0  0  0  0  0  2  0  0  0  0  0  0
  -19.3800  -28.4980   23.1210 C   0  0  0  0  0  0  0  0  0  0  0  0
  -19.1500  -29.7250   23.7800 C   0  0  0  0  0  3  0  0  0  0  0  0
  -17.8410  -30.2100   23.9590 C   0  0  0  0  0  3  0  0  0  0  0  0
  -16.7450  -29.4660   23.4890 C   0  0  0  0  0  3  0  0  0  0  0  0
  -16.9620  -28.2440   22.8270 C   0  0  0  0  0  3  0  0  0  0  0  0
  -25.7650  -32.4490   24.0160 C   0  0  0  0  0  3  0  0  0  0  0  0
  -25.3820  -33.8500   24.2290 N   0  0  0  0  0  0  0  0  0  0  0  0
  -25.7660  -34.8720   23.4530 C   0  0  0  0  0  0  0  0  0  0  0  0
  -26.5500  -34.7380   22.5090 O   0  0  0  0  0  0  0  0  0  0  0  0
  -24.7000  -34.0230   24.9530 H   0  0  0  0  0  0  0  0  0  0  0  0
  -24.0270  -36.5720   22.8150 C   0  0  0  0  0  1  0  0  0  0  0  0
  -25.1870  -36.2620   23.7740 C   0  0  0  0  0  3  0  0  0  0  0  0
  -27.1800  -37.2820   24.7810 C   0  0  0  0  0  1  0  0  0  0  0  0
  -26.1890  -37.3470   23.7100 N   0  0  0  0  0  0  0  0  0  0  0  0
  -25.7360  -38.2550   23.7560 H   0  0  0  0  0  0  0  0  0  0  0  0
  -26.1550  -31.7630   25.3820 C   0  0  1  0  0  0  0  0  0  0  0  0
  -24.9560  -31.5430   26.3340 C   0  0  0  0  0  1  0  0  0  0  0  0
  -26.8190  -30.3880   25.1320 C   0  0  0  0  0  1  0  0  0  0  0  0
  -27.1970  -32.6280   26.1290 C   0  0  0  0  0  1  0  0  0  0  0  0
  2  1  1  0
  3  2  1  0
  3 13  1  0
  4 20  1  0
  5 10  1  0
  6  7  1  0
  6  5  1  0
  8  7  1  0
  8 24  1  0
  8  9  1  0
 10  4  1  0
 10  9  1  0
 11  4  2  0
 12 13  2  0
 12 14  1  0
 13 18  1  0
 14 19  2  0
 15 19  1  0
 15 16  1  0
 18 15  2  0
 20 14  1  0
 20 17  1  0
 21 22  2  0
 22 41  1  0
 23 22  1  0
 23 26  1  0
 24 25  1  0
 24 21  1  0
 25 23  2  0
 26 27  1  0
 27 28  2  0
 29 32  1  0
 29 28  1  0
 30 29  2  0
 31 30  1  0
 31 26  2  0
 32 33  1  0
 33 34  1  0
 34 35  2  0
 36 35  1  0
 36 40  1  0
 37 36  2  0
 38 33  2  0
 38 37  1  0
 39 38  1  0
 41 42  1  0
 42 45  1  0
 42 44  1  0
 43 41  2  0
 46 21  1  0
 46 47  1  0
 48 46  1  0
 49  1  1  0
 49 51  1  0
 51 50  1  0
 51 52  1  1
 53 51  1  0
 53 54  1  0
 55 56  1  0
 55 54  1  0
 57 68  2  0
 58 56  1  0
 58 63  1  0
 59 67  1  0
 59 69  1  0
 60 62  1  0
 61 67  1  0
 62 63  2  0
 62 61  1  0
 64 58  2  0
 65 64  1  0
 65 60  2  0
 66 60  1  0
 66 59  1  0
 67 57  1  0
 69 71  2  0
 70 69  1  0
 72 70  1  0
 73 82  2  0
 73 78  1  0
 74 70  1  0
 74 78  1  0
 75 74  1  0
 76 77  1  0
 76 75  1  0
 77 73  1  0
 78 79  2  0
 79 80  1  0
 81 80  2  0
 82 81  1  0
 83 57  1  0
 83 84  1  0
 83 93  1  0
 84 87  1  0
 85 89  1  0
 85 84  1  0
 86 85  2  0
 89 88  1  0
 91 92  1  0
 91 89  1  0
 91 90  1  0
 93 96  1  1
 93 94  1  0
 95 93  1  0
M  ISO  4   4 100  20 100  55 101  56 101
M  END
>  <TORSDO>  (62) 
F 23

>  <SCORE>  (62) 
-10.155

>  <name>  (62) 
62

>  <ligand_id>  (62) 
62

>  <original_smiles>  (62) 
[H]c1c(N(C(=O)N2C([H])([H])C([H])([H])C([H])([H])C([H])(n3nc(-c4c([H])c([H])c(Oc5c([H])c([H])c(F)c([H])c5F)c([H])c4[H])c(C(=O)N([H])[H])c3N([H])[H])C2([H])[H])C([H])([H])[H])nc(C([H])([H])[H])nc1C([H])([H])C([H])([H])C([H])([H])C([H])([H])[N+]([H])(C([H])([H])[H])C([H])([H])C([H])([H])C([H])([H])Oc1c([H])c([H])c2c(c1[H])C([H])([H])N(C(=O)C([H])(N([H])C(=O)C([H])(N([H])C([H])([H])[H])C([H])([H])[H])C(C([H])([H])[H])(C([H])([H])[H])C([H])([H])[H])C([H])(C(=O)N([H])C1([H])c3c([H])c([H])c([H])c([H])c3C([H])([H])C([H])([H])C1([H])[H])C2([H])[H]

>  <smiles>  (62) 
[H]c1c(N(C(=O)N2C([H])([H])C([H])([H])C([H])([H])C([H])(n3nc(-c4c([H])c([H])c(Oc5c([H])c([H])c(F)c([H])c5F)c([H])c4[H])c(C(=O)N([H])[H])c3N([H])[H])C2([H])[H])C([H])([H])[H])nc(C([H])([H])[H])nc1C([H])([H])C([H])([H])C([H])([H])C([H])([H])[N+]([H])(C([H])([H])[H])C([H])([H])C([H])([H])C([H])([H])Oc1c([H])c([H])c2c(c1[H])C([H])([H])N(C(=O)C([H])(N([H])C(=O)C([H])(N([H])C([H])([H])[H])C([H])([H])[H])C(C([H])([H])[H])(C([H])([H])[H])C([H])([H])[H])C([H])(C(=O)N([H])C1([H])c3c([H])c([H])c([H])c([H])c3C([H])([H])C([H])([H])C1([H])[H])C2([H])[H]

$$$$
63:0:0
     RDKit          3D

 95103  0  0  1  0  0  0  0  0999 V2000
  -30.5960  -18.7150   20.6100 C   0  0  0  0  0  3  0  0  0  0  0  0
  -30.5310  -17.5060   19.9150 C   0  0  0  0  0  0  0  0  0  0  0  0
  -29.7570  -17.8220   18.7850 N   0  0  0  0  0  0  0  0  0  0  0  0
  -29.3820  -19.0910   18.7940 N   0  0  0  0  0  0  0  0  0  0  0  0
  -29.8520  -19.6920   19.9220 N   0  0  0  0  0  0  0  0  0  0  0  0
  -32.3020  -16.1690   21.1030 C   0  0  0  0  0  1  0  0  0  0  0  0
  -30.8980  -16.0390   20.4400 C   0  0  2  0  0  0  0  0  0  0  0  0
  -31.1000  -14.7870   19.3910 C   0  0  0  0  0  0  0  0  0  0  0  0
  -30.5850  -12.6370   18.1660 C   0  0  0  0  0  2  0  0  0  0  0  0
  -29.4600  -12.8570   17.1250 C   0  0  0  0  0  2  0  0  0  0  0  0
  -28.0620  -12.7160   17.7630 C   0  0  0  0  0  2  0  0  0  0  0  0
  -27.9570  -13.4750   19.1090 C   0  0  0  0  0  3  0  0  0  0  0  0
  -29.1670  -13.1300   19.9980 C   0  0  0  0  0  2  0  0  0  0  0  0
  -30.3790  -13.5940   19.2930 N   0  0  0  0  0  0  0  0  0  0  0  0
  -32.0670  -14.8970   18.6250 O   0  0  0  0  0  0  0  0  0  0  0  0
  -25.7600  -14.1390   20.2560 C   0  0  0  0  0  0  0  0  0  0  0  0
  -24.7220  -13.3940   20.7460 C   0  0  0  0  0  0  0  0  0  0  0  0
  -25.0840  -12.0270   20.5390 C   0  0  0  0  0  0  0  0  0  0  0  0
  -26.6910  -13.2250   19.7870 N   0  0  0  0  0  0  0  0  0  0  0  0
  -26.2990  -11.9450   20.0100 N   0  0  0  0  0  0  0  0  0  0  0  0
  -24.3190  -10.7940   20.7610 C   0  0  0  0  0  0  0  0  0  0  0  0
  -24.7490   -9.8120   21.6820 C   0  0  0  0  0  3  0  0  0  0  0  0
  -23.9870   -8.6420   21.8920 C   0  0  0  0  0  3  0  0  0  0  0  0
  -22.7790   -8.4450   21.1810 C   0  0  0  0  0  0  0  0  0  0  0  0
  -22.3660   -9.4120   20.2490 C   0  0  0  0  0  3  0  0  0  0  0  0
  -23.1290  -10.5750   20.0380 C   0  0  0  0  0  3  0  0  0  0  0  0
  -21.9850   -7.3310   21.3020 O   0  0  0  0  0  0  0  0  0  0  0  0
  -21.8230   -6.6900   22.5040 C   0  0  0  0  0  0  0  0  0  0  0  0
  -21.2820   -7.3440   23.6320 C   0  0  0  0  0  3  0  0  0  0  0  0
  -21.0690   -6.6280   24.8270 C   0  0  0  0  0  3  0  0  0  0  0  0
  -21.3860   -5.2580   24.8940 C   0  0  0  0  0  0  0  0  0  0  0  0
  -21.9190   -4.6040   23.7700 C   0  0  0  0  0  3  0  0  0  0  0  0
  -22.1360   -5.3170   22.5790 C   0  0  0  0  0  0  0  0  0  0  0  0
  -22.6310   -4.6750   21.4930 F   0  0  0  0  0  0  0  0  0  0  0  0
  -21.1750   -4.5690   26.0400 F   0  0  0  0  0  0  0  0  0  0  0  0
  -23.4230  -13.9190   21.2840 C   0  0  0  0  0  0  0  0  0  0  0  0
  -22.8140  -13.2030   22.2230 N   0  0  0  0  0  0  0  0  0  0  0  0
  -22.9620  -14.9960   20.9070 O   0  0  0  0  0  0  0  0  0  0  0  0
  -23.2000  -12.3300   22.5490 H   0  0  0  0  0  0  0  0  0  0  0  0
  -21.9450  -13.5280   22.6190 H   0  0  0  0  0  0  0  0  0  0  0  0
  -25.9810  -15.5110   20.1510 N   0  0  0  0  0  0  0  0  0  0  0  0
  -25.2680  -16.1880   20.4020 H   0  0  0  0  0  0  0  0  0  0  0  0
  -26.7530  -15.9280   19.6460 H   0  0  0  0  0  0  0  0  0  0  0  0
  -29.8870  -15.7110   21.5790 C   0  0  0  0  0  2  0  0  0  0  0  0
  -29.8110  -16.7100   22.6710 N   0  0  0  0  0  4  0  0  0  0  0  0
  -30.6470  -16.7110   23.2280 H   0  0  0  0  0  0  0  0  0  0  0  0
  -29.0350  -16.4970   23.2750 H   0  0  0  0  0  0  0  0  0  0  0  0
  -29.6680  -17.6310   22.2870 H   0  0  0  0  0  0  0  0  0  0  0  0
  -29.3250  -21.0360   20.4240 C   0  0  0  0  0  3  0  0  0  0  0  0
  -29.5320  -22.4340   19.6540 C   0  0  0  0  0  3  0  0  0  0  0  0
  -28.8800  -23.7810   20.2960 C   0  0  0  0  0  2  0  0  0  0  0  0
  -28.6590  -25.1710   18.1260 C   0  0  0  0  0  1  0  0  0  0  0  0
  -30.6100  -25.5080   19.6110 C   0  0  0  0  0  1  0  0  0  0  0  0
  -29.0900  -25.2330   19.6070 C   0  0  2  0  0  0  0  0  0  0  0  0
  -28.6470  -26.4890   20.3200 O   0  0  0  0  0  0  0  0  0  0  0  0
  -24.6630  -31.8050   23.1820 C   0  0  0  0  0  0  0  0  0  0  0  0
  -27.4530  -27.2470   20.2260 C   0  0  0  0  0  0  0  0  0  0  0  0
  -23.5260  -30.3730   21.5230 C   0  0  0  0  0  3  0  0  0  0  0  0
  -25.0420  -28.8280   20.1510 C   0  0  0  0  0  0  0  0  0  0  0  0
  -26.0650  -30.7320   21.3990 C   0  0  0  0  0  2  0  0  0  0  0  0
  -26.1870  -29.3470   20.7640 C   0  0  0  0  0  0  0  0  0  0  0  0
  -27.3890  -28.5710   20.7810 C   0  0  0  0  0  3  0  0  0  0  0  0
  -26.2620  -26.7700   19.6340 C   0  0  0  0  0  3  0  0  0  0  0  0
  -25.0840  -27.5440   19.5810 C   0  0  0  0  0  3  0  0  0  0  0  0
  -23.7880  -29.6840   20.1580 C   0  0  0  0  0  2  0  0  0  0  0  0
  -24.7690  -30.9890   22.0910 N   0  0  0  0  0  0  0  0  0  0  0  0
  -23.5600  -32.0680   23.6850 O   0  0  0  0  0  0  0  0  0  0  0  0
  -22.8520  -29.3570   22.4760 C   0  0  0  0  0  0  0  0  0  0  0  0
  -21.5350  -29.1520   22.3080 N   0  0  0  0  0  0  0  0  0  0  0  0
  -23.5150  -28.7560   23.3240 O   0  0  0  0  0  0  0  0  0  0  0  0
  -21.0590  -29.6880   21.5970 H   0  0  0  0  0  0  0  0  0  0  0  0
  -18.1610  -27.9150   22.7360 C   0  0  0  0  0  0  0  0  0  0  0  0
  -20.7100  -28.2050   23.0620 C   0  0  0  0  0  3  0  0  0  0  0  0
  -20.8420  -26.7750   22.4900 C   0  0  0  0  0  2  0  0  0  0  0  0
  -19.7670  -26.4380   21.4520 C   0  0  0  0  0  2  0  0  0  0  0  0
  -18.3700  -26.5670   22.0650 C   0  0  0  0  0  2  0  0  0  0  0  0
  -19.2620  -28.6910   23.1900 C   0  0  0  0  0  0  0  0  0  0  0  0
  -19.0130  -29.9510   23.7770 C   0  0  0  0  0  3  0  0  0  0  0  0
  -17.6990  -30.4360   23.9130 C   0  0  0  0  0  3  0  0  0  0  0  0
  -16.6130  -29.6560   23.4780 C   0  0  0  0  0  3  0  0  0  0  0  0
  -16.8470  -28.3980   22.8940 C   0  0  0  0  0  3  0  0  0  0  0  0
  -25.9150  -32.4640   23.8380 C   0  0  0  0  0  3  0  0  0  0  0  0
  -26.4290  -31.6910   25.1140 C   0  0  1  0  0  0  0  0  0  0  0  0
  -25.3130  -31.3560   26.1320 C   0  0  0  0  0  1  0  0  0  0  0  0
  -27.1120  -30.3630   24.7100 C   0  0  0  0  0  1  0  0  0  0  0  0
  -27.4990  -32.5370   25.8450 C   0  0  0  0  0  1  0  0  0  0  0  0
  -25.5610  -33.8490   24.1820 N   0  0  0  0  0  0  0  0  0  0  0  0
  -25.8720  -34.9220   23.4420 C   0  0  0  0  0  0  0  0  0  0  0  0
  -26.5550  -34.8520   22.4170 O   0  0  0  0  0  0  0  0  0  0  0  0
  -24.9530  -33.9760   24.9770 H   0  0  0  0  0  0  0  0  0  0  0  0
  -24.1010  -36.6750   23.0950 C   0  0  0  0  0  1  0  0  0  0  0  0
  -25.3430  -36.2900   23.9150 C   0  0  0  0  0  3  0  0  0  0  0  0
  -27.4390  -37.2250   24.7920 C   0  0  0  0  0  1  0  0  0  0  0  0
  -26.3490  -37.3720   23.8300 N   0  0  0  0  0  0  0  0  0  0  0  0
  -25.9140  -38.2780   23.9790 H   0  0  0  0  0  0  0  0  0  0  0  0
  2  7  1  0
  2  1  2  0
  3  4  2  0
  3  2  1  0
  4  5  1  0
  5 49  1  0
  5  1  1  0
  7  6  1  1
  7 44  1  0
  8  7  1  0
  9 14  1  0
 10 11  1  0
 10  9  1  0
 12 11  1  0
 12 19  1  0
 12 13  1  0
 14  8  1  0
 14 13  1  0
 15  8  2  0
 16 17  2  0
 17 36  1  0
 18 17  1  0
 18 21  1  0
 19 20  1  0
 19 16  1  0
 20 18  2  0
 21 22  1  0
 22 23  2  0
 24 27  1  0
 24 23  1  0
 25 24  2  0
 26 25  1  0
 26 21  2  0
 27 28  1  0
 28 33  2  0
 28 29  1  0
 29 30  2  0
 30 31  1  0
 31 35  1  0
 32 31  2  0
 33 32  1  0
 34 33  1  0
 36 37  1  0
 37 39  1  0
 37 40  1  0
 38 36  2  0
 41 16  1  0
 41 42  1  0
 43 41  1  0
 44 45  1  0
 45 46  1  0
 45 47  1  0
 48 45  1  0
 50 51  1  0
 50 49  2  0
 54 52  1  6
 54 53  1  0
 54 51  1  0
 54 55  1  0
 56 67  2  0
 57 55  1  0
 57 62  1  0
 58 66  1  0
 58 68  1  0
 59 65  1  0
 59 61  1  0
 60 66  1  0
 61 62  2  0
 61 60  1  0
 63 57  2  0
 64 63  1  0
 64 59  2  0
 65 58  1  0
 66 56  1  0
 68 70  2  0
 69 68  1  0
 71 69  1  0
 72 81  2  0
 72 77  1  0
 73 69  1  0
 73 77  1  0
 74 73  1  0
 75 76  1  0
 75 74  1  0
 76 72  1  0
 77 78  2  0
 78 79  1  0
 80 79  2  0
 81 80  1  0
 82 56  1  0
 82 87  1  0
 82 83  1  0
 83 86  1  1
 83 84  1  0
 85 83  1  0
 87 90  1  0
 88 92  1  0
 88 87  1  0
 89 88  2  0
 92 91  1  0
 94 92  1  0
 94 95  1  0
 94 93  1  0
M  ISO  4   7 100   8 100  54 101  55 101
M  END
>  <TORSDO>  (63) 
F 23

>  <SCORE>  (63) 
-10.178

>  <name>  (63) 
63

>  <ligand_id>  (63) 
63

>  <original_smiles>  (63) 
[H]c1c([H])c([H])c2c(c1[H])C([H])([H])C([H])([H])C([H])([H])C2([H])N([H])C(=O)C1([H])N(C(=O)C([H])(N([H])C(=O)C([H])(N([H])C([H])([H])[H])C([H])([H])[H])C(C([H])([H])[H])(C([H])([H])[H])C([H])([H])[H])C([H])([H])c2c([H])c(OC(C([H])([H])[H])(C([H])([H])[H])C([H])([H])C([H])([H])C([H])([H])n3nnc(C(C(=O)N4C([H])([H])C([H])([H])C([H])([H])C([H])(n5nc(-c6c([H])c([H])c(Oc7c([H])c([H])c(F)c([H])c7F)c([H])c6[H])c(C(=O)N([H])[H])c5N([H])[H])C4([H])[H])(C([H])([H])[H])C([H])([H])[N+]([H])([H])[H])c3[H])c([H])c([H])c2C1([H])[H]

>  <smiles>  (63) 
[H]c1c([H])c([H])c2c(c1[H])C([H])([H])C([H])([H])C([H])([H])C2([H])N([H])C(=O)C1([H])N(C(=O)C([H])(N([H])C(=O)C([H])(N([H])C([H])([H])[H])C([H])([H])[H])C(C([H])([H])[H])(C([H])([H])[H])C([H])([H])[H])C([H])([H])c2c([H])c(OC(C([H])([H])[H])(C([H])([H])[H])C([H])([H])C([H])([H])C([H])([H])n3nnc(C(C(=O)N4C([H])([H])C([H])([H])C([H])([H])C([H])(n5nc(-c6c([H])c([H])c(Oc7c([H])c([H])c(F)c([H])c7F)c([H])c6[H])c(C(=O)N([H])[H])c5N([H])[H])C4([H])[H])(C([H])([H])[H])C([H])([H])[N+]([H])([H])[H])c3[H])c([H])c([H])c2C1([H])[H]

$$$$
64:0:0
     RDKit          3D

 94102  0  0  1  0  0  0  0  0999 V2000
  -35.4510  -19.6660   14.7950 C   0  0  0  0  0  3  0  0  0  0  0  0
  -34.4840  -20.9920   13.4140 C   0  0  0  0  0  0  0  0  0  0  0  0
  -35.7480  -20.7390   12.9230 C   0  0  0  0  0  0  0  0  0  0  0  0
  -34.3050  -20.3140   14.6190 N   0  0  0  0  0  0  0  0  0  0  0  0
  -36.3630  -19.8640   13.8290 N   0  0  0  0  0  0  0  0  0  0  0  0
  -37.4940  -17.7360   13.3610 C   0  0  0  0  0  1  0  0  0  0  0  0
  -37.6730  -19.2210   13.7260 C   0  0  0  0  0  3  0  0  0  0  0  0
  -38.5410  -19.4210   14.9890 C   0  0  0  0  0  2  0  0  0  0  0  0
  -39.8610  -21.5160   14.6370 C   0  0  0  0  0  0  0  0  0  0  0  0
  -41.3480  -23.4450   15.0110 C   0  0  0  0  0  2  0  0  0  0  0  0
  -42.3450  -23.1070   16.1380 C   0  0  0  0  0  2  0  0  0  0  0  0
  -41.7390  -23.4020   17.5250 C   0  0  0  0  0  2  0  0  0  0  0  0
  -40.3140  -22.8110   17.6960 C   0  0  0  0  0  3  0  0  0  0  0  0
  -39.4310  -23.1730   16.4810 C   0  0  0  0  0  2  0  0  0  0  0  0
  -40.1110  -22.6950   15.2590 N   0  0  0  0  0  0  0  0  0  0  0  0
  -40.5510  -21.0620   13.7180 O   0  0  0  0  0  0  0  0  0  0  0  0
  -38.8360  -20.8380   15.1570 N   0  0  0  0  0  0  0  0  0  0  0  0
  -38.3060  -21.3210   15.8660 H   0  0  0  0  0  0  0  0  0  0  0  0
  -38.8320  -22.5540   19.7900 C   0  0  0  0  0  0  0  0  0  0  0  0
  -38.6150  -23.3760   20.8640 C   0  0  0  0  0  0  0  0  0  0  0  0
  -39.3980  -24.5460   20.6280 C   0  0  0  0  0  0  0  0  0  0  0  0
  -39.7040  -23.2380   18.9560 N   0  0  0  0  0  0  0  0  0  0  0  0
  -40.0020  -24.4670   19.4490 N   0  0  0  0  0  0  0  0  0  0  0  0
  -39.6510  -25.7150   21.4800 C   0  0  0  0  0  0  0  0  0  0  0  0
  -38.6250  -26.6330   21.7990 C   0  0  0  0  0  3  0  0  0  0  0  0
  -38.8880  -27.7390   22.6360 C   0  0  0  0  0  3  0  0  0  0  0  0
  -40.1860  -27.9360   23.1660 C   0  0  0  0  0  0  0  0  0  0  0  0
  -41.2080  -27.0320   22.8270 C   0  0  0  0  0  3  0  0  0  0  0  0
  -40.9460  -25.9350   21.9900 C   0  0  0  0  0  3  0  0  0  0  0  0
  -40.5400  -28.9970   23.9650 O   0  0  0  0  0  0  0  0  0  0  0  0
  -40.2450  -29.0200   25.3040 C   0  0  0  0  0  0  0  0  0  0  0  0
  -40.9950  -28.2830   26.2450 C   0  0  0  0  0  3  0  0  0  0  0  0
  -40.7000  -28.3880   27.6190 C   0  0  0  0  0  3  0  0  0  0  0  0
  -39.6610  -29.2340   28.0530 C   0  0  0  0  0  0  0  0  0  0  0  0
  -38.9170  -29.9730   27.1170 C   0  0  0  0  0  3  0  0  0  0  0  0
  -39.2100  -29.8660   25.7470 C   0  0  0  0  0  0  0  0  0  0  0  0
  -38.5010  -30.5950   24.8500 F   0  0  0  0  0  0  0  0  0  0  0  0
  -39.3820  -29.3430   29.3730 F   0  0  0  0  0  0  0  0  0  0  0  0
  -37.8040  -23.0540   22.0870 C   0  0  0  0  0  0  0  0  0  0  0  0
  -36.6390  -23.6780   22.2330 N   0  0  0  0  0  0  0  0  0  0  0  0
  -38.1780  -22.2090   22.8970 O   0  0  0  0  0  0  0  0  0  0  0  0
  -36.3190  -24.3600   21.5610 H   0  0  0  0  0  0  0  0  0  0  0  0
  -36.0570  -23.4670   23.0310 H   0  0  0  0  0  0  0  0  0  0  0  0
  -38.3760  -21.2800   19.4650 N   0  0  0  0  0  0  0  0  0  0  0  0
  -37.7900  -20.7430   20.0930 H   0  0  0  0  0  0  0  0  0  0  0  0
  -38.6670  -20.7580   18.6480 H   0  0  0  0  0  0  0  0  0  0  0  0
  -33.3820  -21.8170   12.8110 C   0  0  0  0  0  2  0  0  0  0  0  0
  -33.4340  -23.2880   13.2440 C   0  0  0  0  0  2  0  0  0  0  0  0
  -32.1650  -24.0670   12.8560 C   0  0  0  0  0  2  0  0  0  0  0  0
  -32.2070  -25.5420   13.2950 C   0  0  0  0  0  2  0  0  0  0  0  0
  -31.2660  -26.3210   12.5620 O   0  0  0  0  0  0  0  0  0  0  0  0
  -25.5440  -26.4650    8.3870 C   0  0  0  0  0  0  0  0  0  0  0  0
  -29.9660  -25.8930   12.4180 C   0  0  0  0  0  0  0  0  0  0  0  0
  -25.2120  -25.4130   10.6030 C   0  0  0  0  0  3  0  0  0  0  0  0
  -27.3320  -24.9770   11.9500 C   0  0  0  0  0  0  0  0  0  0  0  0
  -27.5170  -25.4240    9.4940 C   0  0  0  0  0  2  0  0  0  0  0  0
  -28.1150  -25.4310   10.8840 C   0  0  0  0  0  0  0  0  0  0  0  0
  -29.4320  -25.8800   11.1130 C   0  0  0  0  0  3  0  0  0  0  0  0
  -29.1580  -25.4470   13.4910 C   0  0  0  0  0  3  0  0  0  0  0  0
  -27.8480  -24.9870   13.2600 C   0  0  0  0  0  3  0  0  0  0  0  0
  -25.9400  -24.4910   11.6180 C   0  0  0  0  0  2  0  0  0  0  0  0
  -26.0880  -25.8140    9.4550 N   0  0  0  0  0  0  0  0  0  0  0  0
  -24.3280  -26.6920    8.3280 O   0  0  0  0  0  0  0  0  0  0  0  0
  -24.6270  -26.6190   11.3730 C   0  0  0  0  0  0  0  0  0  0  0  0
  -23.3470  -26.5110   11.7630 N   0  0  0  0  0  0  0  0  0  0  0  0
  -25.3220  -27.6050   11.6320 O   0  0  0  0  0  0  0  0  0  0  0  0
  -22.8470  -25.6710   11.5090 H   0  0  0  0  0  0  0  0  0  0  0  0
  -20.0180  -27.7000   12.5030 C   0  0  0  0  0  0  0  0  0  0  0  0
  -22.5950  -27.5010   12.5310 C   0  0  0  0  0  3  0  0  0  0  0  0
  -22.4430  -27.0590   14.0050 C   0  0  0  0  0  2  0  0  0  0  0  0
  -21.1470  -26.2880   14.2750 C   0  0  0  0  0  2  0  0  0  0  0  0
  -19.9290  -27.1440   13.9150 C   0  0  0  0  0  2  0  0  0  0  0  0
  -21.2680  -27.8520   11.8480 C   0  0  0  0  0  0  0  0  0  0  0  0
  -21.2930  -28.3400   10.5240 C   0  0  0  0  0  3  0  0  0  0  0  0
  -20.0980  -28.6750    9.8580 C   0  0  0  0  0  3  0  0  0  0  0  0
  -18.8640  -28.5380   10.5170 C   0  0  0  0  0  3  0  0  0  0  0  0
  -18.8270  -28.0560   11.8380 C   0  0  0  0  0  3  0  0  0  0  0  0
  -26.4180  -26.9310    7.1790 C   0  0  0  0  0  3  0  0  0  0  0  0
  -25.7030  -26.5610    5.9500 N   0  0  0  0  0  0  0  0  0  0  0  0
  -25.9040  -25.4280    5.2660 C   0  0  0  0  0  0  0  0  0  0  0  0
  -26.7750  -24.6070    5.5690 O   0  0  0  0  0  0  0  0  0  0  0  0
  -24.9410  -27.1620    5.6730 H   0  0  0  0  0  0  0  0  0  0  0  0
  -24.0100  -24.0280    4.3830 C   0  0  0  0  0  1  0  0  0  0  0  0
  -24.9950  -25.1620    4.0510 C   0  0  0  0  0  3  0  0  0  0  0  0
  -26.2580  -26.0050    2.1230 C   0  0  0  0  0  1  0  0  0  0  0  0
  -25.7410  -24.8300    2.8190 N   0  0  0  0  0  0  0  0  0  0  0  0
  -25.1530  -24.3110    2.1710 H   0  0  0  0  0  0  0  0  0  0  0  0
  -26.7340  -28.4770    7.1980 C   0  0  1  0  0  0  0  0  0  0  0  0
  -25.6350  -29.3430    6.5400 C   0  0  0  0  0  1  0  0  0  0  0  0
  -26.9250  -28.9790    8.6470 C   0  0  0  0  0  1  0  0  0  0  0  0
  -28.0640  -28.7490    6.4560 C   0  0  0  0  0  1  0  0  0  0  0  0
  -36.3770  -21.2510   11.6600 C   0  0  0  0  0  2  0  0  0  0  0  0
  -37.0250  -23.6970   11.9860 C   0  0  0  0  0  1  0  0  0  0  0  0
  -37.5190  -22.2480   11.9040 C   0  0  0  0  0  2  0  0  0  0  0  0
  2  4  1  0
  3  2  2  0
  3  5  1  0
  4  1  2  0
  5  1  1  0
  7  6  1  0
  7  5  1  0
  7  8  1  0
  8 17  1  0
  9 17  1  0
  9 15  1  0
 10 15  1  0
 10 11  1  0
 11 12  1  0
 12 13  1  0
 13 14  1  0
 13 22  1  0
 15 14  1  0
 16  9  2  0
 17 18  1  0
 19 20  2  0
 20 39  1  0
 21 20  1  0
 21 24  1  0
 22 23  1  0
 22 19  1  0
 23 21  2  0
 24 25  2  0
 24 29  1  0
 25 26  1  0
 26 27  2  0
 27 30  1  0
 28 27  1  0
 29 28  2  0
 30 31  1  0
 31 36  2  0
 31 32  1  0
 32 33  2  0
 33 34  1  0
 34 38  1  0
 35 34  2  0
 36 35  1  0
 37 36  1  0
 39 40  1  0
 39 41  2  0
 40 43  1  0
 42 40  1  0
 44 19  1  0
 44 45  1  0
 46 44  1  0
 47 48  1  0
 47  2  1  0
 49 48  1  0
 49 50  1  0
 51 50  1  0
 52 62  1  0
 53 51  1  0
 53 59  1  0
 54 64  1  0
 54 61  1  0
 55 60  1  0
 56 57  1  0
 57 58  1  0
 57 55  2  0
 58 53  2  0
 60 59  2  0
 61 55  1  0
 62 56  1  0
 62 54  1  0
 63 52  2  0
 64 66  2  0
 64 65  1  0
 67 65  1  0
 68 72  1  0
 69 65  1  0
 69 70  1  0
 70 71  1  0
 72 71  1  0
 73 68  1  0
 73 69  1  0
 74 73  2  0
 75 76  2  0
 75 74  1  0
 76 77  1  0
 77 68  2  0
 78 88  1  0
 78 52  1  0
 79 78  1  0
 80 81  2  0
 80 79  1  0
 82 79  1  0
 84 83  1  0
 84 80  1  0
 85 86  1  0
 86 84  1  0
 87 86  1  0
 88 90  1  1
 89 88  1  0
 91 88  1  0
 92 94  1  0
 92  3  1  0
 94 93  1  0
M  ISO  4   9 100  17 100  50 101  51 101
M  END
>  <TORSDO>  (64) 
F 24

>  <SCORE>  (64) 
-3.482

>  <name>  (64) 
64

>  <ligand_id>  (64) 
64

>  <original_smiles>  (64) 
[H]c1c([H])c([H])c2c(c1[H])C([H])([H])C([H])([H])C([H])([H])C2([H])N([H])C(=O)C1([H])N(C(=O)C([H])(N([H])C(=O)C([H])(N([H])C([H])([H])[H])C([H])([H])[H])C(C([H])([H])[H])(C([H])([H])[H])C([H])([H])[H])C([H])([H])c2c([H])c(OC([H])([H])C([H])([H])C([H])([H])C([H])([H])c3nc([H])n(C([H])(C([H])([H])[H])C([H])([H])N([H])C(=O)N4C([H])([H])C([H])([H])C([H])([H])C([H])(n5nc(-c6c([H])c([H])c(Oc7c([H])c([H])c(F)c([H])c7F)c([H])c6[H])c(C(=O)N([H])[H])c5N([H])[H])C4([H])[H])c3C([H])([H])C([H])([H])C([H])([H])[H])c([H])c([H])c2C1([H])[H]

>  <smiles>  (64) 
[H]c1c([H])c([H])c2c(c1[H])C([H])([H])C([H])([H])C([H])([H])C2([H])N([H])C(=O)C1([H])N(C(=O)C([H])(N([H])C(=O)C([H])(N([H])C([H])([H])[H])C([H])([H])[H])C(C([H])([H])[H])(C([H])([H])[H])C([H])([H])[H])C([H])([H])c2c([H])c(OC([H])([H])C([H])([H])C([H])([H])C([H])([H])c3nc([H])n(C([H])(C([H])([H])[H])C([H])([H])N([H])C(=O)N4C([H])([H])C([H])([H])C([H])([H])C([H])(n5nc(-c6c([H])c([H])c(Oc7c([H])c([H])c(F)c([H])c7F)c([H])c6[H])c(C(=O)N([H])[H])c5N([H])[H])C4([H])[H])c3C([H])([H])C([H])([H])C([H])([H])[H])c([H])c([H])c2C1([H])[H]

$$$$
65:0:0
     RDKit          3D

 89 97  0  0  1  0  0  0  0  0999 V2000
  -29.6430  -21.3400   19.6570 C   0  0  0  0  0  3  0  0  0  0  0  0
  -30.3460  -18.8620   19.3410 C   0  0  0  0  0  3  0  0  0  0  0  0
  -30.2940  -17.6860   20.0720 C   0  0  0  0  0  0  0  0  0  0  0  0
  -29.7680  -18.0860   21.3170 N   0  0  0  0  0  0  0  0  0  0  0  0
  -29.5440  -19.3950   21.3400 N   0  0  0  0  0  0  0  0  0  0  0  0
  -29.8420  -19.9070   20.1150 N   0  0  0  0  0  0  0  0  0  0  0  0
  -29.0250  -16.1150   18.7440 C   0  0  0  0  0  1  0  0  0  0  0  0
  -31.3840  -16.3000   18.2670 C   0  0  0  0  0  1  0  0  0  0  0  0
  -30.3770  -16.2310   19.4500 C   0  0  1  0  0  0  0  0  0  0  0  0
  -30.8760  -14.8970   20.2650 C   0  0  0  0  0  0  0  0  0  0  0  0
  -30.6390  -12.5630   19.4610 C   0  0  0  0  0  2  0  0  0  0  0  0
  -29.7170  -12.5120   18.2240 C   0  0  0  0  0  2  0  0  0  0  0  0
  -28.2390  -12.3710   18.6510 C   0  0  0  0  0  2  0  0  0  0  0  0
  -27.8320  -13.2900   19.8330 C   0  0  0  0  0  3  0  0  0  0  0  0
  -28.9070  -13.3870   20.9350 C   0  0  0  0  0  2  0  0  0  0  0  0
  -30.1940  -13.6980   20.2950 N   0  0  0  0  0  0  0  0  0  0  0  0
  -32.0990  -14.8450   20.4160 O   0  0  0  0  0  0  0  0  0  0  0  0
  -25.4650  -13.9390   20.5640 C   0  0  0  0  0  0  0  0  0  0  0  0
  -24.3870  -13.1830   20.9180 C   0  0  0  0  0  0  0  0  0  0  0  0
  -24.8330  -11.8270   20.8780 C   0  0  0  0  0  0  0  0  0  0  0  0
  -26.4980  -13.0380   20.3360 N   0  0  0  0  0  0  0  0  0  0  0  0
  -26.1250  -11.7650   20.5870 N   0  0  0  0  0  0  0  0  0  0  0  0
  -24.0960  -10.5760   21.0450 C   0  0  0  0  0  0  0  0  0  0  0  0
  -24.4980   -9.6090   21.9940 C   0  0  0  0  0  3  0  0  0  0  0  0
  -23.7630   -8.4160   22.1480 C   0  0  0  0  0  3  0  0  0  0  0  0
  -22.6130   -8.1830   21.3560 C   0  0  0  0  0  0  0  0  0  0  0  0
  -22.2320   -9.1390   20.3980 C   0  0  0  0  0  3  0  0  0  0  0  0
  -22.9680  -10.3260   20.2400 C   0  0  0  0  0  3  0  0  0  0  0  0
  -21.8520   -7.0420   21.4260 O   0  0  0  0  0  0  0  0  0  0  0  0
  -21.7410   -6.3220   22.5880 C   0  0  0  0  0  0  0  0  0  0  0  0
  -21.2060   -6.8870   23.7680 C   0  0  0  0  0  3  0  0  0  0  0  0
  -21.0500   -6.0910   24.9190 C   0  0  0  0  0  3  0  0  0  0  0  0
  -21.4150   -4.7320   24.8910 C   0  0  0  0  0  0  0  0  0  0  0  0
  -21.9420   -4.1670   23.7170 C   0  0  0  0  0  3  0  0  0  0  0  0
  -22.1040   -4.9600   22.5680 C   0  0  0  0  0  0  0  0  0  0  0  0
  -22.5960   -4.4100   21.4330 F   0  0  0  0  0  0  0  0  0  0  0  0
  -21.2560   -3.9640   25.9950 F   0  0  0  0  0  0  0  0  0  0  0  0
  -22.9920  -13.6780   21.1740 C   0  0  0  0  0  0  0  0  0  0  0  0
  -22.2380  -12.9910   22.0230 N   0  0  0  0  0  0  0  0  0  0  0  0
  -22.5790  -14.7160   20.6520 O   0  0  0  0  0  0  0  0  0  0  0  0
  -22.5770  -12.1590   22.4860 H   0  0  0  0  0  0  0  0  0  0  0  0
  -21.2970  -13.3040   22.2190 H   0  0  0  0  0  0  0  0  0  0  0  0
  -25.6390  -15.3110   20.3880 N   0  0  0  0  0  0  0  0  0  0  0  0
  -24.8530  -15.9460   20.4740 H   0  0  0  0  0  0  0  0  0  0  0  0
  -26.4810  -15.7620   20.0580 H   0  0  0  0  0  0  0  0  0  0  0  0
  -28.9170  -22.4700   20.5230 C   0  0  0  0  0  3  0  0  0  0  0  0
  -28.7200  -23.9130   19.8280 C   0  0  0  0  0  3  0  0  0  0  0  0
  -28.3100  -25.1660   20.7360 C   0  0  0  0  0  3  0  0  0  0  0  0
  -28.4170  -26.5570   20.2320 O   0  0  0  0  0  0  0  0  0  0  0  0
  -24.5820  -31.8870   23.2910 C   0  0  0  0  0  0  0  0  0  0  0  0
  -27.2790  -27.3730   20.2390 C   0  0  0  0  0  0  0  0  0  0  0  0
  -23.4160  -30.4970   21.6140 C   0  0  0  0  0  3  0  0  0  0  0  0
  -24.9000  -28.9560   20.2090 C   0  0  0  0  0  0  0  0  0  0  0  0
  -25.9550  -30.8320   21.4760 C   0  0  0  0  0  2  0  0  0  0  0  0
  -26.0560  -29.4570   20.8230 C   0  0  0  0  0  0  0  0  0  0  0  0
  -27.2510  -28.6770   20.8240 C   0  0  0  0  0  3  0  0  0  0  0  0
  -26.1010  -26.9170   19.6100 C   0  0  0  0  0  3  0  0  0  0  0  0
  -24.9230  -27.6920   19.5950 C   0  0  0  0  0  3  0  0  0  0  0  0
  -23.6590  -29.8280   20.2350 C   0  0  0  0  0  2  0  0  0  0  0  0
  -24.6700  -31.0900   22.1850 N   0  0  0  0  0  0  0  0  0  0  0  0
  -23.4870  -32.1540   23.8100 O   0  0  0  0  0  0  0  0  0  0  0  0
  -22.7390  -29.4720   22.5540 C   0  0  0  0  0  0  0  0  0  0  0  0
  -21.4130  -29.3030   22.4120 N   0  0  0  0  0  0  0  0  0  0  0  0
  -23.4060  -28.8320   23.3710 O   0  0  0  0  0  0  0  0  0  0  0  0
  -20.9340  -29.8750   21.7290 H   0  0  0  0  0  0  0  0  0  0  0  0
  -18.0240  -28.1310   22.8860 C   0  0  0  0  0  0  0  0  0  0  0  0
  -20.5840  -28.3560   23.1580 C   0  0  0  0  0  3  0  0  0  0  0  0
  -20.6690  -26.9360   22.5510 C   0  0  0  0  0  2  0  0  0  0  0  0
  -19.5630  -26.6500   21.5280 C   0  0  0  0  0  2  0  0  0  0  0  0
  -18.1830  -26.7980   22.1760 C   0  0  0  0  0  2  0  0  0  0  0  0
  -19.1510  -28.8700   23.3330 C   0  0  0  0  0  0  0  0  0  0  0  0
  -18.9470  -30.1200   23.9550 C   0  0  0  0  0  3  0  0  0  0  0  0
  -17.6490  -30.6330   24.1330 C   0  0  0  0  0  3  0  0  0  0  0  0
  -16.5340  -29.8910   23.7000 C   0  0  0  0  0  3  0  0  0  0  0  0
  -16.7230  -28.6420   23.0830 C   0  0  0  0  0  3  0  0  0  0  0  0
  -25.8500  -32.5200   23.9450 C   0  0  0  0  0  3  0  0  0  0  0  0
  -25.5440  -33.9260   24.2480 N   0  0  0  0  0  0  0  0  0  0  0  0
  -25.8970  -34.9640   23.4780 C   0  0  0  0  0  0  0  0  0  0  0  0
  -26.5850  -34.8380   22.4600 O   0  0  0  0  0  0  0  0  0  0  0  0
  -24.9460  -34.0990   25.0430 H   0  0  0  0  0  0  0  0  0  0  0  0
  -24.2030  -36.7700   23.0360 C   0  0  0  0  0  1  0  0  0  0  0  0
  -25.4100  -36.3640   23.8990 C   0  0  0  0  0  3  0  0  0  0  0  0
  -27.5180  -37.2400   24.8030 C   0  0  0  0  0  1  0  0  0  0  0  0
  -26.4580  -37.4040   23.8120 N   0  0  0  0  0  0  0  0  0  0  0  0
  -26.0580  -38.3310   23.9260 H   0  0  0  0  0  0  0  0  0  0  0  0
  -26.3210  -31.7650   25.2480 C   0  0  1  0  0  0  0  0  0  0  0  0
  -25.1950  -31.5460   26.2850 C   0  0  0  0  0  1  0  0  0  0  0  0
  -26.9110  -30.3810   24.8950 C   0  0  0  0  0  1  0  0  0  0  0  0
  -27.4570  -32.5620   25.9340 C   0  0  0  0  0  1  0  0  0  0  0  0
  1  6  1  0
  1 46  2  0
  2  3  2  0
  2  6  1  0
  3  4  1  0
  4  5  2  0
  6  5  1  0
  9  7  1  6
  8  9  1  0
  9  3  1  0
  9 10  1  0
 10 16  1  0
 10 17  2  0
 11 16  1  0
 12 13  1  0
 12 11  1  0
 14 13  1  0
 14 21  1  0
 14 15  1  0
 16 15  1  0
 18 19  2  0
 19 38  1  0
 20 19  1  0
 20 23  1  0
 21 18  1  0
 21 22  1  0
 22 20  2  0
 23 24  1  0
 24 25  2  0
 26 29  1  0
 26 25  1  0
 27 26  2  0
 28 27  1  0
 28 23  2  0
 29 30  1  0
 30 31  1  0
 31 32  2  0
 33 32  1  0
 33 37  1  0
 34 33  2  0
 35 30  2  0
 35 34  1  0
 36 35  1  0
 38 39  1  0
 39 42  1  0
 39 41  1  0
 40 38  2  0
 43 44  1  0
 43 18  1  0
 45 43  1  0
 47 46  1  0
 47 48  2  0
 49 51  1  0
 49 48  1  0
 50 61  2  0
 51 56  1  0
 52 60  1  0
 52 62  1  0
 53 59  1  0
 53 55  1  0
 54 60  1  0
 55 56  2  0
 55 54  1  0
 57 51  2  0
 58 57  1  0
 58 53  2  0
 59 52  1  0
 60 50  1  0
 62 64  2  0
 63 62  1  0
 65 63  1  0
 66 75  2  0
 66 71  1  0
 67 63  1  0
 67 71  1  0
 68 67  1  0
 69 70  1  0
 69 68  1  0
 70 66  1  0
 71 72  2  0
 72 73  1  0
 74 73  2  0
 75 74  1  0
 76 50  1  0
 76 77  1  0
 76 86  1  0
 77 80  1  0
 78 82  1  0
 78 77  1  0
 79 78  2  0
 82 81  1  0
 84 82  1  0
 84 85  1  0
 84 83  1  0
 86 89  1  1
 86 87  1  0
 88 86  1  0
M  ISO  4   9 100  10 100  48 101  49 101
M  END
>  <TORSDO>  (65) 
F 21

>  <SCORE>  (65) 
-12.847

>  <name>  (65) 
65

>  <ligand_id>  (65) 
65

>  <original_smiles>  (65) 
[H]c1c([H])c([H])c2c(c1[H])C([H])([H])C([H])([H])C([H])([H])C2([H])N([H])C(=O)C1([H])N(C(=O)C([H])(N([H])C(=O)C([H])(N([H])C([H])([H])[H])C([H])([H])[H])C(C([H])([H])[H])(C([H])([H])[H])C([H])([H])[H])C([H])([H])c2c([H])c(OC([H])([H])C([H])([H])C([H])([H])C([H])([H])n3nnc(C(C(=O)N4C([H])([H])C([H])([H])C([H])([H])C([H])(n5nc(-c6c([H])c([H])c(Oc7c([H])c([H])c(F)c([H])c7F)c([H])c6[H])c(C(=O)N([H])[H])c5N([H])[H])C4([H])[H])(C([H])([H])[H])C([H])([H])[H])c3[H])c([H])c([H])c2C1([H])[H]

>  <smiles>  (65) 
[H]c1c([H])c([H])c2c(c1[H])C([H])([H])C([H])([H])C([H])([H])C2([H])N([H])C(=O)C1([H])N(C(=O)C([H])(N([H])C(=O)C([H])(N([H])C([H])([H])[H])C([H])([H])[H])C(C([H])([H])[H])(C([H])([H])[H])C([H])([H])[H])C([H])([H])c2c([H])c(OC([H])([H])C([H])([H])C([H])([H])C([H])([H])n3nnc(C(C(=O)N4C([H])([H])C([H])([H])C([H])([H])C([H])(n5nc(-c6c([H])c([H])c(Oc7c([H])c([H])c(F)c([H])c7F)c([H])c6[H])c(C(=O)N([H])[H])c5N([H])[H])C4([H])[H])(C([H])([H])[H])C([H])([H])[H])c3[H])c([H])c([H])c2C1([H])[H]

$$$$
66:0:0
     RDKit          3D

 94102  0  0  1  0  0  0  0  0999 V2000
  -30.7850  -18.2220   19.9510 C   0  0  0  0  0  3  0  0  0  0  0  0
  -28.6280  -18.2180   19.7800 C   0  0  0  0  0  3  0  0  0  0  0  0
  -30.3230  -16.9410   20.2170 C   0  0  0  0  0  0  0  0  0  0  0  0
  -28.9290  -16.9540   20.1020 N   0  0  0  0  0  0  0  0  0  0  0  0
  -29.6860  -19.0370   19.6680 N   0  0  0  0  0  0  0  0  0  0  0  0
  -29.6960  -20.4450   19.2300 C   0  0  0  0  0  2  0  0  0  0  0  0
  -28.9500  -21.4780   20.1340 C   0  0  0  0  0  2  0  0  0  0  0  0
  -28.8760  -22.9050   19.4940 C   0  0  0  0  0  2  0  0  0  0  0  0
  -28.2660  -24.0620   20.3520 C   0  0  0  0  0  2  0  0  0  0  0  0
  -28.2260  -25.4340   19.6020 C   0  0  0  0  0  2  0  0  0  0  0  0
  -27.9760  -26.5940   20.4320 O   0  0  0  0  0  0  0  0  0  0  0  0
  -24.2820  -31.9680   23.3150 C   0  0  0  0  0  0  0  0  0  0  0  0
  -26.7990  -27.3310   20.3700 C   0  0  0  0  0  0  0  0  0  0  0  0
  -23.0370  -30.5560   21.7100 C   0  0  0  0  0  3  0  0  0  0  0  0
  -24.4460  -28.9310   20.3320 C   0  0  0  0  0  0  0  0  0  0  0  0
  -25.5750  -30.8250   21.5130 C   0  0  0  0  0  2  0  0  0  0  0  0
  -25.6180  -29.4320   20.9110 C   0  0  0  0  0  0  0  0  0  0  0  0
  -26.7910  -28.6370   20.9280 C   0  0  0  0  0  3  0  0  0  0  0  0
  -25.6000  -26.8510   19.7910 C   0  0  0  0  0  3  0  0  0  0  0  0
  -24.4340  -27.6430   19.7690 C   0  0  0  0  0  3  0  0  0  0  0  0
  -23.2260  -29.8270   20.3520 C   0  0  0  0  0  2  0  0  0  0  0  0
  -24.3170  -31.1340   22.2370 N   0  0  0  0  0  0  0  0  0  0  0  0
  -23.2090  -32.2870   23.8440 O   0  0  0  0  0  0  0  0  0  0  0  0
  -22.3530  -29.5840   22.7000 C   0  0  0  0  0  0  0  0  0  0  0  0
  -21.0370  -29.3740   22.5230 N   0  0  0  0  0  0  0  0  0  0  0  0
  -23.0050  -29.0180   23.5810 O   0  0  0  0  0  0  0  0  0  0  0  0
  -20.5740  -29.8840   21.7850 H   0  0  0  0  0  0  0  0  0  0  0  0
  -17.6760  -28.0970   22.8810 C   0  0  0  0  0  0  0  0  0  0  0  0
  -20.1990  -28.4680   23.3060 C   0  0  0  0  0  3  0  0  0  0  0  0
  -20.3870  -27.0010   22.8530 C   0  0  0  0  0  2  0  0  0  0  0  0
  -19.3700  -26.5620   21.7950 C   0  0  0  0  0  2  0  0  0  0  0  0
  -17.9430  -26.7070   22.3290 C   0  0  0  0  0  2  0  0  0  0  0  0
  -18.7370  -28.9300   23.3260 C   0  0  0  0  0  0  0  0  0  0  0  0
  -18.4380  -30.2280   23.7960 C   0  0  0  0  0  3  0  0  0  0  0  0
  -17.1100  -30.6930   23.8300 C   0  0  0  0  0  3  0  0  0  0  0  0
  -16.0630  -29.8590   23.4040 C   0  0  0  0  0  3  0  0  0  0  0  0
  -16.3460  -28.5630   22.9360 C   0  0  0  0  0  3  0  0  0  0  0  0
  -25.5860  -32.5770   23.9200 C   0  0  0  0  0  3  0  0  0  0  0  0
  -26.0480  -31.8650   25.2500 C   0  0  1  0  0  0  0  0  0  0  0  0
  -24.9200  -31.7180   26.2980 C   0  0  0  0  0  1  0  0  0  0  0  0
  -26.5990  -30.4520   24.9480 C   0  0  0  0  0  1  0  0  0  0  0  0
  -27.2020  -32.6630   25.9010 C   0  0  0  0  0  1  0  0  0  0  0  0
  -25.3400  -34.0050   24.1550 N   0  0  0  0  0  0  0  0  0  0  0  0
  -25.7260  -34.9900   23.3340 C   0  0  0  0  0  0  0  0  0  0  0  0
  -26.3980  -34.7910   22.3180 O   0  0  0  0  0  0  0  0  0  0  0  0
  -24.7460  -34.2400   24.9380 H   0  0  0  0  0  0  0  0  0  0  0  0
  -24.0790  -36.8300   22.8550 C   0  0  0  0  0  1  0  0  0  0  0  0
  -25.2990  -36.4250   23.6970 C   0  0  0  0  0  3  0  0  0  0  0  0
  -27.4670  -37.2700   24.4800 C   0  0  0  0  0  1  0  0  0  0  0  0
  -26.3760  -37.4230   23.5200 N   0  0  0  0  0  0  0  0  0  0  0  0
  -26.0100  -38.3680   23.6060 H   0  0  0  0  0  0  0  0  0  0  0  0
  -31.1240  -15.7120   20.6710 C   0  0  0  0  0  3  0  0  0  0  0  0
  -31.2780  -14.5780   19.5840 C   0  0  0  0  0  0  0  0  0  0  0  0
  -30.6730  -12.5090   18.3430 C   0  0  0  0  0  2  0  0  0  0  0  0
  -29.6330  -12.7910   17.2400 C   0  0  0  0  0  2  0  0  0  0  0  0
  -28.2020  -12.7230   17.8010 C   0  0  0  0  0  2  0  0  0  0  0  0
  -28.0450  -13.5260   19.1150 C   0  0  0  0  0  3  0  0  0  0  0  0
  -29.1850  -13.2020   20.0980 C   0  0  0  0  0  2  0  0  0  0  0  0
  -30.4680  -13.4820   19.4370 N   0  0  0  0  0  0  0  0  0  0  0  0
  -32.2400  -14.7240   18.8180 O   0  0  0  0  0  0  0  0  0  0  0  0
  -25.7790  -14.2370   20.0980 C   0  0  0  0  0  0  0  0  0  0  0  0
  -24.7100  -13.5150   20.5550 C   0  0  0  0  0  0  0  0  0  0  0  0
  -25.0840  -12.1400   20.4390 C   0  0  0  0  0  0  0  0  0  0  0  0
  -26.7370  -13.3090   19.7270 N   0  0  0  0  0  0  0  0  0  0  0  0
  -26.3280  -12.0400   19.9890 N   0  0  0  0  0  0  0  0  0  0  0  0
  -24.3080  -10.9150   20.6770 C   0  0  0  0  0  0  0  0  0  0  0  0
  -24.7440   -9.9270   21.5870 C   0  0  0  0  0  3  0  0  0  0  0  0
  -23.9700   -8.7660   21.8090 C   0  0  0  0  0  3  0  0  0  0  0  0
  -22.7450   -8.5880   21.1240 C   0  0  0  0  0  0  0  0  0  0  0  0
  -22.3290   -9.5640   20.2000 C   0  0  0  0  0  3  0  0  0  0  0  0
  -23.1020  -10.7140   19.9750 C   0  0  0  0  0  3  0  0  0  0  0  0
  -21.9420   -7.4820   21.2540 O   0  0  0  0  0  0  0  0  0  0  0  0
  -21.8700   -6.7800   22.4300 C   0  0  0  0  0  0  0  0  0  0  0  0
  -21.4820   -7.3940   23.6420 C   0  0  0  0  0  3  0  0  0  0  0  0
  -21.3530   -6.6220   24.8140 C   0  0  0  0  0  3  0  0  0  0  0  0
  -21.6040   -5.2370   24.7750 C   0  0  0  0  0  0  0  0  0  0  0  0
  -21.9840   -4.6230   23.5690 C   0  0  0  0  0  3  0  0  0  0  0  0
  -22.1150   -5.3920   22.4000 C   0  0  0  0  0  0  0  0  0  0  0  0
  -22.4610   -4.7930   21.2370 F   0  0  0  0  0  0  0  0  0  0  0  0
  -21.4730   -4.4950   25.8990 F   0  0  0  0  0  0  0  0  0  0  0  0
  -23.3810  -14.0600   20.9940 C   0  0  0  0  0  0  0  0  0  0  0  0
  -22.7180  -13.3810   21.9250 N   0  0  0  0  0  0  0  0  0  0  0  0
  -22.9430  -15.1190   20.5480 O   0  0  0  0  0  0  0  0  0  0  0  0
  -23.0910  -12.5250   22.3090 H   0  0  0  0  0  0  0  0  0  0  0  0
  -21.8280  -13.7220   22.2600 H   0  0  0  0  0  0  0  0  0  0  0  0
  -26.0140  -15.6010   19.9500 N   0  0  0  0  0  0  0  0  0  0  0  0
  -25.3340  -16.3090   20.2010 H   0  0  0  0  0  0  0  0  0  0  0  0
  -26.9030  -15.9930   19.6590 H   0  0  0  0  0  0  0  0  0  0  0  0
  -31.7190  -14.1300   22.6810 C   0  0  0  0  0  1  0  0  0  0  0  0
  -30.9140  -15.3540   22.1830 C   0  0  0  0  0  3  0  0  0  0  0  0
  -31.2100  -16.5190   23.0490 N   0  0  0  0  0  4  0  0  0  0  0  0
  -32.1470  -16.8640   22.9220 H   0  0  0  0  0  0  0  0  0  0  0  0
  -31.0860  -16.2820   24.0170 H   0  0  0  0  0  0  0  0  0  0  0  0
  -30.5650  -17.2610   22.8340 H   0  0  0  0  0  0  0  0  0  0  0  0
  1  3  2  0
  2  4  2  0
  3 52  1  0
  4  3  1  0
  5  2  1  0
  5  1  1  0
  6  5  1  0
  6  7  1  0
  8  7  1  0
  8  9  1  0
 10  9  1  0
 10 11  1  0
 12 23  2  0
 13 11  1  0
 13 18  1  0
 14 22  1  0
 14 24  1  0
 15 21  1  0
 15 17  1  0
 16 22  1  0
 17 18  2  0
 17 16  1  0
 19 13  2  0
 20 19  1  0
 20 15  2  0
 21 14  1  0
 22 12  1  0
 24 26  2  0
 25 24  1  0
 27 25  1  0
 28 37  2  0
 28 33  1  0
 29 25  1  0
 29 33  1  0
 30 29  1  0
 31 32  1  0
 31 30  1  0
 32 28  1  0
 33 34  2  0
 34 35  1  0
 36 35  2  0
 37 36  1  0
 38 12  1  0
 38 43  1  0
 38 39  1  0
 39 42  1  1
 39 40  1  0
 41 39  1  0
 43 46  1  0
 44 48  1  0
 44 43  1  0
 45 44  2  0
 48 47  1  0
 50 51  1  0
 50 48  1  0
 50 49  1  0
 52 53  1  0
 52 90  1  0
 54 59  1  0
 55 56  1  0
 55 54  1  0
 57 56  1  0
 57 64  1  0
 57 58  1  0
 59 53  1  0
 59 58  1  0
 60 53  2  0
 61 62  2  0
 62 81  1  0
 63 62  1  0
 63 66  1  0
 64 65  1  0
 64 61  1  0
 65 63  2  0
 66 67  1  0
 67 68  2  0
 69 72  1  0
 69 68  1  0
 70 69  2  0
 71 70  1  0
 71 66  2  0
 72 73  1  0
 73 74  1  0
 74 75  2  0
 76 75  1  0
 76 80  1  0
 77 76  2  0
 78 73  2  0
 78 77  1  0
 79 78  1  0
 81 82  1  0
 82 85  1  0
 82 84  1  0
 83 81  2  0
 86 61  1  0
 86 87  1  0
 88 86  1  0
 90 89  1  0
 90 91  1  0
 91 93  1  0
 92 91  1  0
 94 91  1  0
M  ISO  4  10 101  11 101  52 100  53 100
M  END
>  <TORSDO>  (66) 
F 24

>  <SCORE>  (66) 
-8.569

>  <name>  (66) 
66

>  <ligand_id>  (66) 
66

>  <original_smiles>  (66) 
[H]c1c([H])c([H])c2c(c1[H])C([H])([H])C([H])([H])C([H])([H])C2([H])N([H])C(=O)C1([H])N(C(=O)C([H])(N([H])C(=O)C([H])(N([H])C([H])([H])[H])C([H])([H])[H])C(C([H])([H])[H])(C([H])([H])[H])C([H])([H])[H])C([H])([H])c2c([H])c(OC([H])([H])C([H])([H])C([H])([H])C([H])([H])C([H])([H])n3c([H])nc(C([H])(C(=O)N4C([H])([H])C([H])([H])C([H])([H])C([H])(n5nc(-c6c([H])c([H])c(Oc7c([H])c([H])c(F)c([H])c7F)c([H])c6[H])c(C(=O)N([H])[H])c5N([H])[H])C4([H])[H])C([H])(C([H])([H])[H])[N+]([H])([H])[H])c3[H])c([H])c([H])c2C1([H])[H]

>  <smiles>  (66) 
[H]c1c([H])c([H])c2c(c1[H])C([H])([H])C([H])([H])C([H])([H])C2([H])N([H])C(=O)C1([H])N(C(=O)C([H])(N([H])C(=O)C([H])(N([H])C([H])([H])[H])C([H])([H])[H])C(C([H])([H])[H])(C([H])([H])[H])C([H])([H])[H])C([H])([H])c2c([H])c(OC([H])([H])C([H])([H])C([H])([H])C([H])([H])C([H])([H])n3c([H])nc(C([H])(C(=O)N4C([H])([H])C([H])([H])C([H])([H])C([H])(n5nc(-c6c([H])c([H])c(Oc7c([H])c([H])c(F)c([H])c7F)c([H])c6[H])c(C(=O)N([H])[H])c5N([H])[H])C4([H])[H])C([H])(C([H])([H])[H])[N+]([H])([H])[H])c3[H])c([H])c([H])c2C1([H])[H]

$$$$
67:0:0
     RDKit          3D

 95103  0  0  1  0  0  0  0  0999 V2000
  -29.9390  -19.1330   21.9950 C   0  0  0  0  0  3  0  0  0  0  0  0
  -29.3800  -19.8320   20.9470 C   0  0  0  0  0  0  0  0  0  0  0  0
  -29.9810  -17.6860   20.2760 C   0  0  0  0  0  3  0  0  0  0  0  0
  -29.4850  -18.9250   19.8790 N   0  0  0  0  0  0  0  0  0  0  0  0
  -30.2900  -17.8750   21.5620 N   0  0  0  0  0  0  0  0  0  0  0  0
  -30.7450  -17.1830   22.1440 H   0  0  0  0  0  0  0  0  0  0  0  0
  -29.1270  -16.1000   18.4890 C   0  0  0  0  0  1  0  0  0  0  0  0
  -31.5010  -16.7490   18.5460 C   0  0  0  0  0  1  0  0  0  0  0  0
  -30.2980  -16.3580   19.4580 C   0  0  1  0  0  0  0  0  0  0  0  0
  -30.8040  -14.9650   20.1930 C   0  0  0  0  0  0  0  0  0  0  0  0
  -30.5900  -12.6240   19.4010 C   0  0  0  0  0  2  0  0  0  0  0  0
  -29.6530  -12.4990   18.1850 C   0  0  0  0  0  2  0  0  0  0  0  0
  -28.1680  -12.4040   18.6150 C   0  0  0  0  0  2  0  0  0  0  0  0
  -27.7590  -13.3490   19.7840 C   0  0  0  0  0  3  0  0  0  0  0  0
  -28.8470  -13.4410   20.8700 C   0  0  0  0  0  2  0  0  0  0  0  0
  -30.1220  -13.7630   20.2140 N   0  0  0  0  0  0  0  0  0  0  0  0
  -32.0210  -14.8900   20.3560 O   0  0  0  0  0  0  0  0  0  0  0  0
  -25.4050  -13.9470   20.5760 C   0  0  0  0  0  0  0  0  0  0  0  0
  -24.3410  -13.1730   20.9390 C   0  0  0  0  0  0  0  0  0  0  0  0
  -24.8010  -11.8220   20.8870 C   0  0  0  0  0  0  0  0  0  0  0  0
  -26.4400  -13.0620   20.3180 N   0  0  0  0  0  0  0  0  0  0  0  0
  -26.0900  -11.7830   20.5790 N   0  0  0  0  0  0  0  0  0  0  0  0
  -24.0780  -10.5590   21.0490 C   0  0  0  0  0  0  0  0  0  0  0  0
  -24.5110   -9.5770   21.9690 C   0  0  0  0  0  3  0  0  0  0  0  0
  -23.7860   -8.3770   22.1240 C   0  0  0  0  0  3  0  0  0  0  0  0
  -22.6180   -8.1510   21.3600 C   0  0  0  0  0  0  0  0  0  0  0  0
  -22.2060   -9.1200   20.4280 C   0  0  0  0  0  3  0  0  0  0  0  0
  -22.9310  -10.3120   20.2680 C   0  0  0  0  0  3  0  0  0  0  0  0
  -21.8650   -7.0050   21.4290 O   0  0  0  0  0  0  0  0  0  0  0  0
  -21.7960   -6.2550   22.5780 C   0  0  0  0  0  0  0  0  0  0  0  0
  -21.3310   -6.7960   23.7950 C   0  0  0  0  0  3  0  0  0  0  0  0
  -21.2100   -5.9720   24.9310 C   0  0  0  0  0  3  0  0  0  0  0  0
  -21.5490   -4.6090   24.8510 C   0  0  0  0  0  0  0  0  0  0  0  0
  -22.0140   -4.0680   23.6390 C   0  0  0  0  0  3  0  0  0  0  0  0
  -22.1320   -4.8880   22.5030 C   0  0  0  0  0  0  0  0  0  0  0  0
  -22.5560   -4.3560   21.3320 F   0  0  0  0  0  0  0  0  0  0  0  0
  -21.4270   -3.8140   25.9410 F   0  0  0  0  0  0  0  0  0  0  0  0
  -22.9440  -13.6500   21.2130 C   0  0  0  0  0  0  0  0  0  0  0  0
  -22.2180  -12.9460   22.0720 N   0  0  0  0  0  0  0  0  0  0  0  0
  -22.5080  -14.6800   20.7000 O   0  0  0  0  0  0  0  0  0  0  0  0
  -22.5890  -12.1160   22.5110 H   0  0  0  0  0  0  0  0  0  0  0  0
  -21.2800  -13.2460   22.3020 H   0  0  0  0  0  0  0  0  0  0  0  0
  -25.5680  -15.3220   20.4090 N   0  0  0  0  0  0  0  0  0  0  0  0
  -24.7980  -15.9710   20.5230 H   0  0  0  0  0  0  0  0  0  0  0  0
  -26.3930  -15.7630   20.0270 H   0  0  0  0  0  0  0  0  0  0  0  0
  -28.6540  -21.2260   21.0160 C   0  0  0  0  0  3  0  0  0  0  0  0
  -29.1920  -22.6010   20.3790 C   0  0  0  0  0  3  0  0  0  0  0  0
  -29.0250  -24.3840   22.2300 C   0  0  0  0  0  1  0  0  0  0  0  0
  -26.9740  -23.8140   20.9220 C   0  0  0  0  0  1  0  0  0  0  0  0
  -28.5030  -24.0050   20.8320 C   0  0  2  0  0  0  0  0  0  0  0  0
  -28.7820  -25.2680   19.8730 C   0  0  0  0  0  2  0  0  0  0  0  0
  -28.6350  -26.6680   20.3500 O   0  0  0  0  0  0  0  0  0  0  0  0
  -24.6670  -31.9090   23.2730 C   0  0  0  0  0  0  0  0  0  0  0  0
  -27.4660  -27.4390   20.2510 C   0  0  0  0  0  0  0  0  0  0  0  0
  -23.5350  -30.4930   21.5920 C   0  0  0  0  0  3  0  0  0  0  0  0
  -25.0560  -28.9870   20.1890 C   0  0  0  0  0  0  0  0  0  0  0  0
  -26.0650  -30.8760   21.4720 C   0  0  0  0  0  2  0  0  0  0  0  0
  -26.1930  -29.5050   20.8190 C   0  0  0  0  0  0  0  0  0  0  0  0
  -27.3970  -28.7410   20.8380 C   0  0  0  0  0  3  0  0  0  0  0  0
  -26.3070  -26.9700   19.5950 C   0  0  0  0  0  3  0  0  0  0  0  0
  -25.1160  -27.7260   19.5700 C   0  0  0  0  0  3  0  0  0  0  0  0
  -23.7950  -29.8280   20.2130 C   0  0  0  0  0  2  0  0  0  0  0  0
  -24.7720  -31.1140   22.1680 N   0  0  0  0  0  0  0  0  0  0  0  0
  -23.5640  -32.1550   23.7860 O   0  0  0  0  0  0  0  0  0  0  0  0
  -22.8760  -29.4560   22.5330 C   0  0  0  0  0  0  0  0  0  0  0  0
  -21.5580  -29.2500   22.3760 N   0  0  0  0  0  0  0  0  0  0  0  0
  -23.5510  -28.8400   23.3620 O   0  0  0  0  0  0  0  0  0  0  0  0
  -21.0740  -29.8000   21.6790 H   0  0  0  0  0  0  0  0  0  0  0  0
  -18.1990  -27.9770   22.7950 C   0  0  0  0  0  0  0  0  0  0  0  0
  -20.7450  -28.2850   23.1200 C   0  0  0  0  0  3  0  0  0  0  0  0
  -20.8890  -26.8660   22.5270 C   0  0  0  0  0  2  0  0  0  0  0  0
  -19.8140  -26.5330   21.4890 C   0  0  0  0  0  2  0  0  0  0  0  0
  -18.4180  -26.6400   22.1080 C   0  0  0  0  0  2  0  0  0  0  0  0
  -19.2920  -28.7570   23.2560 C   0  0  0  0  0  0  0  0  0  0  0  0
  -19.0360  -30.0080   23.8580 C   0  0  0  0  0  3  0  0  0  0  0  0
  -17.7180  -30.4820   24.0000 C   0  0  0  0  0  3  0  0  0  0  0  0
  -16.6380  -29.7000   23.5550 C   0  0  0  0  0  3  0  0  0  0  0  0
  -16.8790  -28.4490   22.9600 C   0  0  0  0  0  3  0  0  0  0  0  0
  -25.9220  -32.5670   23.9290 C   0  0  0  0  0  3  0  0  0  0  0  0
  -25.5870  -33.9670   24.2260 N   0  0  0  0  0  0  0  0  0  0  0  0
  -25.9270  -35.0120   23.4570 C   0  0  0  0  0  0  0  0  0  0  0  0
  -26.6250  -34.8970   22.4460 O   0  0  0  0  0  0  0  0  0  0  0  0
  -24.9690  -34.1260   25.0090 H   0  0  0  0  0  0  0  0  0  0  0  0
  -24.1850  -36.7730   23.0200 C   0  0  0  0  0  1  0  0  0  0  0  0
  -25.4090  -36.4020   23.8750 C   0  0  0  0  0  3  0  0  0  0  0  0
  -27.5060  -37.3320   24.7510 C   0  0  0  0  0  1  0  0  0  0  0  0
  -26.4310  -37.4650   23.7690 N   0  0  0  0  0  0  0  0  0  0  0  0
  -26.0100  -38.3830   23.8820 H   0  0  0  0  0  0  0  0  0  0  0  0
  -26.3990  -31.8250   25.2380 C   0  0  1  0  0  0  0  0  0  0  0  0
  -25.2690  -31.5940   26.2700 C   0  0  0  0  0  1  0  0  0  0  0  0
  -27.0130  -30.4470   24.8960 C   0  0  0  0  0  1  0  0  0  0  0  0
  -27.5170  -32.6410   25.9270 C   0  0  0  0  0  1  0  0  0  0  0  0
  -29.1420  -19.3180   18.4920 C   0  0  0  0  0  2  0  0  0  0  0  0
  -27.4180  -19.8670   16.7250 C   0  0  0  0  0  1  0  0  0  0  0  0
  -27.6400  -19.3540   18.1540 C   0  0  0  0  0  2  0  0  0  0  0  0
  2 46  1  0
  2  1  2  0
  3  9  1  0
  3  5  1  0
  4  3  1  0
  4  2  1  0
  5  1  1  0
  5  6  1  0
  9  7  1  6
  8  9  1  0
  9 10  1  0
 10 16  1  0
 10 17  2  0
 11 16  1  0
 12 13  1  0
 12 11  1  0
 14 13  1  0
 14 21  1  0
 14 15  1  0
 16 15  1  0
 18 19  2  0
 19 38  1  0
 20 19  1  0
 20 23  1  0
 21 18  1  0
 21 22  1  0
 22 20  2  0
 23 24  1  0
 24 25  2  0
 26 29  1  0
 26 25  1  0
 27 26  2  0
 28 27  1  0
 28 23  2  0
 29 30  1  0
 30 31  1  0
 31 32  2  0
 33 32  1  0
 33 37  1  0
 34 33  2  0
 35 30  2  0
 35 34  1  0
 36 35  1  0
 38 39  1  0
 39 42  1  0
 39 41  1  0
 40 38  2  0
 43 44  1  0
 43 18  1  0
 45 43  1  0
 47 50  1  0
 47 46  2  0
 50 49  1  1
 50 48  1  0
 51 52  1  0
 51 50  1  0
 53 64  2  0
 54 52  1  0
 54 59  1  0
 55 63  1  0
 55 65  1  0
 56 62  1  0
 56 58  1  0
 57 63  1  0
 58 59  2  0
 58 57  1  0
 60 54  2  0
 61 60  1  0
 61 56  2  0
 62 55  1  0
 63 53  1  0
 65 67  2  0
 66 65  1  0
 68 66  1  0
 69 78  2  0
 69 74  1  0
 70 66  1  0
 70 74  1  0
 71 70  1  0
 72 73  1  0
 72 71  1  0
 73 69  1  0
 74 75  2  0
 75 76  1  0
 77 76  2  0
 78 77  1  0
 79 53  1  0
 79 80  1  0
 79 89  1  0
 80 83  1  0
 81 85  1  0
 81 80  1  0
 82 81  2  0
 85 84  1  0
 87 85  1  0
 87 88  1  0
 87 86  1  0
 89 92  1  1
 89 90  1  0
 91 89  1  0
 93  4  1  0
 94 95  1  0
 95 93  1  0
M  ISO  4   9 100  10 100  51 101  52 101
M  END
>  <TORSDO>  (67) 
F 23

>  <SCORE>  (67) 
-12.234

>  <name>  (67) 
67

>  <ligand_id>  (67) 
67

>  <original_smiles>  (67) 
[H]c1c([H])c([H])c2c(c1[H])C([H])([H])C([H])([H])C([H])([H])C2([H])N([H])C(=O)C1([H])N(C(=O)C([H])(N([H])C(=O)C([H])(N([H])C([H])([H])[H])C([H])([H])[H])C(C([H])([H])[H])(C([H])([H])[H])C([H])([H])[H])C([H])([H])c2c([H])c(OC([H])([H])C(C([H])([H])[H])(C([H])([H])[H])C([H])([H])C([H])([H])c3c([H])[n+]([H])c(C(C(=O)N4C([H])([H])C([H])([H])C([H])([H])C([H])(n5nc(-c6c([H])c([H])c(Oc7c([H])c([H])c(F)c([H])c7F)c([H])c6[H])c(C(=O)N([H])[H])c5N([H])[H])C4([H])[H])(C([H])([H])[H])C([H])([H])[H])n3C([H])([H])C([H])([H])C([H])([H])[H])c([H])c([H])c2C1([H])[H]

>  <smiles>  (67) 
[H]c1c([H])c([H])c2c(c1[H])C([H])([H])C([H])([H])C([H])([H])C2([H])N([H])C(=O)C1([H])N(C(=O)C([H])(N([H])C(=O)C([H])(N([H])C([H])([H])[H])C([H])([H])[H])C(C([H])([H])[H])(C([H])([H])[H])C([H])([H])[H])C([H])([H])c2c([H])c(OC([H])([H])C(C([H])([H])[H])(C([H])([H])[H])C([H])([H])C([H])([H])c3c([H])[n+]([H])c(C(C(=O)N4C([H])([H])C([H])([H])C([H])([H])C([H])(n5nc(-c6c([H])c([H])c(Oc7c([H])c([H])c(F)c([H])c7F)c([H])c6[H])c(C(=O)N([H])[H])c5N([H])[H])C4([H])[H])(C([H])([H])[H])C([H])([H])[H])n3C([H])([H])C([H])([H])C([H])([H])[H])c([H])c([H])c2C1([H])[H]

$$$$
68:0:0
     RDKit          3D

 92100  0  0  1  0  0  0  0  0999 V2000
  -26.5950  -17.2100   21.0640 C   0  0  0  0  0  3  0  0  0  0  0  0
  -26.5610  -15.8400   20.6170 C   0  0  0  0  0  0  0  0  0  0  0  0
  -27.2080  -16.0740   19.3610 N   0  0  0  0  0  0  0  0  0  0  0  0
  -27.5330  -17.3280   19.0760 N   0  0  0  0  0  0  0  0  0  0  0  0
  -27.1840  -18.1550   20.0880 N   0  0  0  0  0  0  0  0  0  0  0  0
  -24.1750  -12.1160   18.8380 C   0  0  0  0  0  1  0  0  0  0  0  0
  -25.5910  -14.3870   22.6300 C   0  0  0  0  0  1  0  0  0  0  0  0
  -26.1250  -14.1870   21.1540 C   0  0  0  0  0  3  0  0  0  0  0  0
  -27.8090  -13.9350   21.4640 C   0  0  0  0  0  2  0  0  0  0  0  0
  -30.2410  -13.4140   20.0830 C   0  0  0  0  0  0  0  0  0  0  0  0
  -30.9970  -11.0070   19.8590 C   0  0  0  0  0  2  0  0  0  0  0  0
  -30.0830  -10.2150   18.8520 C   0  0  0  0  0  2  0  0  0  0  0  0
  -28.5740  -10.0910   19.2100 C   0  0  0  0  0  2  0  0  0  0  0  0
  -28.1660  -11.4260   19.7770 C   0  0  0  0  0  3  0  0  0  0  0  0
  -29.1060  -11.5460   21.0130 C   0  0  0  0  0  2  0  0  0  0  0  0
  -30.2640  -12.1250   20.4650 N   0  0  0  0  0  0  0  0  0  0  0  0
  -31.1640  -13.8140   19.3350 O   0  0  0  0  0  0  0  0  0  0  0  0
  -29.0830  -14.1200   20.5070 N   0  0  0  0  0  0  0  0  0  0  0  0
  -29.0660  -15.0320   20.0730 H   0  0  0  0  0  0  0  0  0  0  0  0
  -25.4510  -12.5910   19.9930 C   0  0  1  0  0  0  0  0  0  0  0  0
  -24.3850  -11.9780   20.9950 C   0  0  0  0  0  3  0  0  0  0  0  0
  -24.9320  -10.6280   21.6750 C   0  0  0  0  0  3  0  0  0  0  0  0
  -26.8570  -11.5350   20.1860 N   0  0  0  0  0  0  0  0  0  0  0  0
  -26.3870  -10.4350   21.3000 N   0  0  0  0  0  2  0  0  0  0  0  0
  -24.0830   -9.3000   21.7620 C   0  0  0  0  0  0  0  0  0  0  0  0
  -24.4760   -8.2110   22.5780 C   0  0  0  0  0  3  0  0  0  0  0  0
  -23.7010   -7.0250   22.7130 C   0  0  0  0  0  3  0  0  0  0  0  0
  -22.4950   -6.8370   21.9990 C   0  0  0  0  0  0  0  0  0  0  0  0
  -22.1400   -7.8360   21.0730 C   0  0  0  0  0  3  0  0  0  0  0  0
  -22.9130   -9.0240   20.9610 C   0  0  0  0  0  3  0  0  0  0  0  0
  -21.6770   -5.7260   22.1320 O   0  0  0  0  0  0  0  0  0  0  0  0
  -21.6530   -4.9760   23.2900 C   0  0  0  0  0  0  0  0  0  0  0  0
  -21.2580   -5.5290   24.5300 C   0  0  0  0  0  3  0  0  0  0  0  0
  -21.2150   -4.7240   25.6890 C   0  0  0  0  0  3  0  0  0  0  0  0
  -21.5550   -3.3610   25.6140 C   0  0  0  0  0  0  0  0  0  0  0  0
  -21.9300   -2.8000   24.3810 C   0  0  0  0  0  3  0  0  0  0  0  0
  -21.9710   -3.6010   23.2260 C   0  0  0  0  0  0  0  0  0  0  0  0
  -22.3160   -3.0410   22.0410 F   0  0  0  0  0  0  0  0  0  0  0  0
  -21.5200   -2.5880   26.7270 F   0  0  0  0  0  0  0  0  0  0  0  0
  -22.9580  -12.3820   21.1140 C   0  0  0  0  0  0  0  0  0  0  0  0
  -22.1980  -11.7470   22.0040 N   0  0  0  0  0  0  0  0  0  0  0  0
  -22.5210  -13.2970   20.4320 O   0  0  0  0  0  0  0  0  0  0  0  0
  -22.5580  -10.9910   22.5660 H   0  0  0  0  0  0  0  0  0  0  0  0
  -21.2300  -12.0150   22.1130 H   0  0  0  0  0  0  0  0  0  0  0  0
  -25.4320  -13.7180   19.2320 N   0  0  0  0  0  0  0  0  0  0  0  0
  -24.6570  -14.3420   19.4200 H   0  0  0  0  0  0  0  0  0  0  0  0
  -26.3230  -14.2110   19.3150 H   0  0  0  0  0  0  0  0  0  0  0  0
  -27.7250  -19.6900   20.1040 C   0  0  0  0  0  3  0  0  0  0  0  0
  -27.5500  -20.9940   18.9720 C   0  0  0  0  0  3  0  0  0  0  0  0
  -28.2670  -22.5840   19.0100 C   0  0  0  0  0  3  0  0  0  0  0  0
  -27.6940  -24.0860   18.3550 C   0  0  0  0  0  3  0  0  0  0  0  0
  -28.2270  -25.6030   18.3710 O   0  0  0  0  0  0  0  0  0  0  0  0
  -24.9100  -30.6620   22.5160 C   0  0  0  0  0  0  0  0  0  0  0  0
  -27.3070  -26.7210   18.4470 C   0  0  0  0  0  0  0  0  0  0  0  0
  -23.6380  -29.5510   20.7280 C   0  0  0  0  0  3  0  0  0  0  0  0
  -25.0090  -28.4270   18.8730 C   0  0  0  0  0  0  0  0  0  0  0  0
  -26.1560  -29.9930   20.4230 C   0  0  0  0  0  2  0  0  0  0  0  0
  -26.2210  -28.7660   19.4920 C   0  0  0  0  0  0  0  0  0  0  0  0
  -27.3830  -27.9280   19.2660 C   0  0  0  0  0  3  0  0  0  0  0  0
  -26.1120  -26.5800   17.7230 C   0  0  0  0  0  3  0  0  0  0  0  0
  -24.9750  -27.3700   17.9590 C   0  0  0  0  0  3  0  0  0  0  0  0
  -23.7580  -29.2150   19.2200 C   0  0  0  0  0  2  0  0  0  0  0  0
  -24.9250  -30.0850   21.2760 N   0  0  0  0  0  0  0  0  0  0  0  0
  -23.8650  -30.7520   23.1790 O   0  0  0  0  0  0  0  0  0  0  0  0
  -23.1180  -28.3110   21.5000 C   0  0  0  0  0  0  0  0  0  0  0  0
  -21.8110  -28.0150   21.3800 N   0  0  0  0  0  0  0  0  0  0  0  0
  -23.8900  -27.6280   22.1790 O   0  0  0  0  0  0  0  0  0  0  0  0
  -21.2370  -28.6260   20.8170 H   0  0  0  0  0  0  0  0  0  0  0  0
  -18.6320  -26.2980   21.6440 C   0  0  0  0  0  0  0  0  0  0  0  0
  -21.1290  -26.8720   21.9950 C   0  0  0  0  0  3  0  0  0  0  0  0
  -21.4290  -25.5650   21.2240 C   0  0  0  0  0  2  0  0  0  0  0  0
  -20.3810  -25.2420   20.1540 C   0  0  0  0  0  2  0  0  0  0  0  0
  -18.9940  -25.1000   20.7850 C   0  0  0  0  0  2  0  0  0  0  0  0
  -19.6320  -27.1390   22.2010 C   0  0  0  0  0  0  0  0  0  0  0  0
  -19.2370  -28.2580   22.9660 C   0  0  0  0  0  3  0  0  0  0  0  0
  -17.8760  -28.5390   23.1810 C   0  0  0  0  0  3  0  0  0  0  0  0
  -16.8890  -27.6960   22.6400 C   0  0  0  0  0  3  0  0  0  0  0  0
  -17.2680  -26.5760   21.8780 C   0  0  0  0  0  3  0  0  0  0  0  0
  -26.2020  -31.2550   23.1520 C   0  0  0  0  0  3  0  0  0  0  0  0
  -25.8320  -32.5110   23.8260 N   0  0  0  0  0  0  0  0  0  0  0  0
  -26.0850  -33.7380   23.3510 C   0  0  0  0  0  0  0  0  0  0  0  0
  -26.7210  -33.9320   22.3120 O   0  0  0  0  0  0  0  0  0  0  0  0
  -25.2610  -32.4260   24.6530 H   0  0  0  0  0  0  0  0  0  0  0  0
  -24.2750  -35.4820   23.4890 C   0  0  0  0  0  1  0  0  0  0  0  0
  -25.5490  -34.9400   24.1560 C   0  0  0  0  0  3  0  0  0  0  0  0
  -27.6560  -35.6840   25.1750 C   0  0  0  0  0  1  0  0  0  0  0  0
  -26.5340  -36.0340   24.3080 N   0  0  0  0  0  0  0  0  0  0  0  0
  -26.0910  -36.8670   24.6840 H   0  0  0  0  0  0  0  0  0  0  0  0
  -26.8980  -30.2720   24.1720 C   0  0  1  0  0  0  0  0  0  0  0  0
  -25.9410  -29.7200   25.2550 C   0  0  0  0  0  1  0  0  0  0  0  0
  -27.5180  -29.0610   23.4380 C   0  0  0  0  0  1  0  0  0  0  0  0
  -28.0650  -30.9960   24.8830 C   0  0  0  0  0  1  0  0  0  0  0  0
  2  1  2  0
  2  8  1  0
  3  2  1  0
  4  3  2  0
  4  5  1  0
  5 48  1  0
  5  1  1  0
  8  9  1  0
  8  7  1  0
 10 16  1  0
 10 18  1  0
 11 16  1  0
 12 13  1  0
 12 11  1  0
 14 13  1  0
 14 23  1  0
 14 15  1  0
 16 15  1  0
 17 10  2  0
 18  9  1  0
 19 18  1  0
 20  6  1  6
 20 23  1  0
 20 21  1  0
 21 40  1  0
 21 22  1  0
 22 25  1  0
 23 24  1  0
 24 22  1  0
 25 26  1  0
 26 27  2  0
 28 31  1  0
 28 27  1  0
 29 28  2  0
 30 29  1  0
 30 25  2  0
 31 32  1  0
 32 33  1  0
 33 34  2  0
 35 34  1  0
 35 39  1  0
 36 35  2  0
 37 32  2  0
 37 36  1  0
 38 37  1  0
 40 41  1  0
 41 44  1  0
 41 43  1  0
 42 40  2  0
 45 47  1  0
 45 46  1  0
 45 20  1  0
 49 50  1  0
 49 48  2  0
 51 52  1  0
 51 50  2  0
 52 54  1  0
 53 64  2  0
 54 59  1  0
 55 63  1  0
 55 65  1  0
 56 62  1  0
 56 58  1  0
 57 63  1  0
 58 57  1  0
 59 58  2  0
 60 61  1  0
 60 54  2  0
 61 56  2  0
 62 55  1  0
 63 53  1  0
 65 67  2  0
 66 65  1  0
 68 66  1  0
 69 78  2  0
 69 74  1  0
 70 66  1  0
 70 74  1  0
 71 70  1  0
 72 73  1  0
 72 71  1  0
 73 69  1  0
 74 75  2  0
 75 76  1  0
 77 76  2  0
 78 77  1  0
 79 53  1  0
 79 80  1  0
 79 89  1  0
 80 83  1  0
 81 80  1  0
 81 85  1  0
 82 81  2  0
 85 84  1  0
 85 87  1  0
 87 88  1  0
 87 86  1  0
 89 92  1  1
 89 90  1  0
 91 89  1  0
M  ISO  4  10 100  18 100  51 101  52 101
M  END
>  <TORSDO>  (68) 
F 22

>  <SCORE>  (68) 
-2.995

>  <name>  (68) 
68

>  <ligand_id>  (68) 
68

>  <original_smiles>  (68) 
[H]c1c([H])c([H])c2c(c1[H])C([H])([H])C([H])([H])C([H])([H])C2([H])N([H])C(=O)C1([H])N(C(=O)C([H])(N([H])C(=O)C([H])(N([H])C([H])([H])[H])C([H])([H])[H])C(C([H])([H])[H])(C([H])([H])[H])C([H])([H])[H])C([H])([H])c2c([H])c(OC([H])([H])C([H])([H])C([H])([H])C([H])([H])n3nnc(C(C([H])([H])[H])(C([H])([H])[H])C([H])([H])N([H])C(=O)N4C([H])([H])C([H])([H])C([H])([H])C([H])(n5nc(-c6c([H])c([H])c(Oc7c([H])c([H])c(F)c([H])c7F)c([H])c6[H])c(C(=O)N([H])[H])c5N([H])[H])C4([H])[H])c3[H])c([H])c([H])c2C1([H])[H]

>  <smiles>  (68) 
[H]c1c([H])c([H])c2c(c1[H])C([H])([H])C([H])([H])C([H])([H])C2([H])N([H])C(=O)C1([H])N(C(=O)C([H])(N([H])C(=O)C([H])(N([H])C([H])([H])[H])C([H])([H])[H])C(C([H])([H])[H])(C([H])([H])[H])C([H])([H])[H])C([H])([H])c2c([H])c(OC([H])([H])C([H])([H])C([H])([H])C([H])([H])n3nnc(C(C([H])([H])[H])(C([H])([H])[H])C([H])([H])N([H])C(=O)N4C([H])([H])C([H])([H])C([H])([H])C([H])(n5nc(-c6c([H])c([H])c(Oc7c([H])c([H])c(F)c([H])c7F)c([H])c6[H])c(C(=O)N([H])[H])c5N([H])[H])C4([H])[H])c3[H])c([H])c([H])c2C1([H])[H]

$$$$
69:0:0
     RDKit          3D

 91 99  0  0  1  0  0  0  0  0999 V2000
  -29.6730  -22.4220   18.3300 C   0  0  0  0  0  3  0  0  0  0  0  0
  -29.4090  -21.9220   19.6380 C   0  0  0  0  0  0  0  0  0  0  0  0
  -29.4350  -20.5390   19.4790 C   0  0  0  0  0  0  0  0  0  0  0  0
  -29.5970  -19.0940   17.3540 C   0  0  0  0  0  1  0  0  0  0  0  0
  -29.7920  -21.4710   17.4280 N   0  0  0  0  0  0  0  0  0  0  0  0
  -29.6140  -20.3280   18.1150 N   0  0  0  0  0  0  0  0  0  0  0  0
  -29.1430  -22.8040   20.8580 C   0  0  0  0  0  2  0  0  0  0  0  0
  -29.3590  -24.3540   20.6760 C   0  0  0  0  0  2  0  0  0  0  0  0
  -28.1820  -25.1790   20.0690 C   0  0  0  0  0  2  0  0  0  0  0  0
  -28.3450  -26.6230   20.1650 O   0  0  0  0  0  0  0  0  0  0  0  0
  -24.6070  -31.8880   23.2380 C   0  0  0  0  0  0  0  0  0  0  0  0
  -27.1930  -27.4030   20.1280 C   0  0  0  0  0  0  0  0  0  0  0  0
  -23.3780  -30.4940   21.6080 C   0  0  0  0  0  3  0  0  0  0  0  0
  -24.8100  -28.9560   20.1580 C   0  0  0  0  0  0  0  0  0  0  0  0
  -25.9070  -30.8340   21.3860 C   0  0  0  0  0  2  0  0  0  0  0  0
  -25.9810  -29.4630   20.7380 C   0  0  0  0  0  0  0  0  0  0  0  0
  -27.1740  -28.6950   20.7180 C   0  0  0  0  0  3  0  0  0  0  0  0
  -26.0030  -26.9320   19.5240 C   0  0  0  0  0  3  0  0  0  0  0  0
  -24.8190  -27.6920   19.5460 C   0  0  0  0  0  3  0  0  0  0  0  0
  -23.5700  -29.8200   20.2240 C   0  0  0  0  0  2  0  0  0  0  0  0
  -24.6490  -31.0890   22.1330 N   0  0  0  0  0  0  0  0  0  0  0  0
  -23.5320  -32.1630   23.7920 O   0  0  0  0  0  0  0  0  0  0  0  0
  -22.7360  -29.4710   22.5740 C   0  0  0  0  0  0  0  0  0  0  0  0
  -21.4110  -29.2850   22.4600 N   0  0  0  0  0  0  0  0  0  0  0  0
  -23.4280  -28.8490   23.3850 O   0  0  0  0  0  0  0  0  0  0  0  0
  -20.9140  -29.8440   21.7790 H   0  0  0  0  0  0  0  0  0  0  0  0
  -18.0470  -28.0640   22.9720 C   0  0  0  0  0  0  0  0  0  0  0  0
  -20.6030  -28.3460   23.2380 C   0  0  0  0  0  3  0  0  0  0  0  0
  -20.7150  -26.9120   22.6690 C   0  0  0  0  0  2  0  0  0  0  0  0
  -19.6150  -26.5760   21.6590 C   0  0  0  0  0  2  0  0  0  0  0  0
  -18.2330  -26.7120   22.3050 C   0  0  0  0  0  2  0  0  0  0  0  0
  -19.1610  -28.8380   23.3950 C   0  0  0  0  0  0  0  0  0  0  0  0
  -18.9340  -30.1040   23.9780 C   0  0  0  0  0  3  0  0  0  0  0  0
  -17.6260  -30.5970   24.1410 C   0  0  0  0  0  3  0  0  0  0  0  0
  -16.5270  -29.8210   23.7350 C   0  0  0  0  0  3  0  0  0  0  0  0
  -16.7380  -28.5570   23.1560 C   0  0  0  0  0  3  0  0  0  0  0  0
  -25.9010  -32.5160   23.8430 C   0  0  0  0  0  3  0  0  0  0  0  0
  -25.5960  -33.9120   24.1850 N   0  0  0  0  0  0  0  0  0  0  0  0
  -25.9190  -34.9700   23.4280 C   0  0  0  0  0  0  0  0  0  0  0  0
  -26.5750  -34.8730   22.3890 O   0  0  0  0  0  0  0  0  0  0  0  0
  -25.0050  -34.0610   24.9900 H   0  0  0  0  0  0  0  0  0  0  0  0
  -24.1830  -36.7640   23.1100 C   0  0  0  0  0  1  0  0  0  0  0  0
  -25.4360  -36.3550   23.9000 C   0  0  0  0  0  3  0  0  0  0  0  0
  -27.5850  -37.2330   24.7010 C   0  0  0  0  0  1  0  0  0  0  0  0
  -26.4660  -37.4100   23.7800 N   0  0  0  0  0  0  0  0  0  0  0  0
  -26.0600  -38.3270   23.9450 H   0  0  0  0  0  0  0  0  0  0  0  0
  -26.4410  -31.7370   25.1050 C   0  0  1  0  0  0  0  0  0  0  0  0
  -25.3660  -31.4940   26.1900 C   0  0  0  0  0  1  0  0  0  0  0  0
  -27.0170  -30.3620   24.6960 C   0  0  0  0  0  1  0  0  0  0  0  0
  -27.6030  -32.5270   25.7510 C   0  0  0  0  0  1  0  0  0  0  0  0
  -29.2110  -19.3540   20.4240 C   0  0  0  0  0  3  0  0  0  0  0  0
  -30.4040  -18.3500   20.6370 C   0  0  0  0  0  3  0  0  0  0  0  0
  -30.0910  -16.9510   21.3170 C   0  0  0  0  0  2  0  0  0  0  0  0
  -30.6410  -14.6190   20.5160 C   0  0  0  0  0  0  0  0  0  0  0  0
  -30.4080  -12.3610   19.5370 C   0  0  0  0  0  2  0  0  0  0  0  0
  -29.4990  -12.4410   18.2920 C   0  0  0  0  0  2  0  0  0  0  0  0
  -28.0100  -12.3380   18.6920 C   0  0  0  0  0  2  0  0  0  0  0  0
  -27.6180  -13.2320   19.9020 C   0  0  0  0  0  3  0  0  0  0  0  0
  -28.6600  -13.1390   21.0380 C   0  0  0  0  0  2  0  0  0  0  0  0
  -29.9810  -13.4240   20.4600 N   0  0  0  0  0  0  0  0  0  0  0  0
  -31.8580  -14.7060   20.3300 O   0  0  0  0  0  0  0  0  0  0  0  0
  -29.3450  -16.1030   19.1280 C   0  0  0  0  0  1  0  0  0  0  0  0
  -29.8680  -15.7480   20.4520 N   0  0  0  0  0  0  0  0  0  0  0  0
  -25.2150  -13.8540   20.5490 C   0  0  0  0  0  0  0  0  0  0  0  0
  -24.1350  -13.0890   20.8920 C   0  0  0  0  0  0  0  0  0  0  0  0
  -24.5960  -11.7370   20.8950 C   0  0  0  0  0  0  0  0  0  0  0  0
  -26.2630  -12.9660   20.3620 N   0  0  0  0  0  0  0  0  0  0  0  0
  -25.8950  -11.6890   20.6330 N   0  0  0  0  0  0  0  0  0  0  0  0
  -23.8650  -10.4780   21.0770 C   0  0  0  0  0  0  0  0  0  0  0  0
  -24.2870   -9.5120   22.0170 C   0  0  0  0  0  3  0  0  0  0  0  0
  -23.5570   -8.3150   22.1880 C   0  0  0  0  0  3  0  0  0  0  0  0
  -22.3930   -8.0790   21.4180 C   0  0  0  0  0  0  0  0  0  0  0  0
  -21.9920   -9.0340   20.4670 C   0  0  0  0  0  3  0  0  0  0  0  0
  -22.7220  -10.2220   20.2960 C   0  0  0  0  0  3  0  0  0  0  0  0
  -21.6360   -6.9350   21.4970 O   0  0  0  0  0  0  0  0  0  0  0  0
  -21.5890   -6.1840   22.6440 C   0  0  0  0  0  0  0  0  0  0  0  0
  -21.1860   -6.7350   23.8800 C   0  0  0  0  0  3  0  0  0  0  0  0
  -21.0850   -5.9110   25.0200 C   0  0  0  0  0  3  0  0  0  0  0  0
  -21.3770   -4.5370   24.9230 C   0  0  0  0  0  0  0  0  0  0  0  0
  -21.7730   -3.9850   23.6920 C   0  0  0  0  0  3  0  0  0  0  0  0
  -21.8760   -4.8070   22.5560 C   0  0  0  0  0  0  0  0  0  0  0  0
  -22.2380   -4.2670   21.3670 F   0  0  0  0  0  0  0  0  0  0  0  0
  -21.2720   -3.7430   26.0140 F   0  0  0  0  0  0  0  0  0  0  0  0
  -22.7300  -13.5710   21.1100 C   0  0  0  0  0  0  0  0  0  0  0  0
  -21.9740  -12.8880   21.9630 N   0  0  0  0  0  0  0  0  0  0  0  0
  -22.3090  -14.5880   20.5610 O   0  0  0  0  0  0  0  0  0  0  0  0
  -22.3260  -12.0650   22.4290 H   0  0  0  0  0  0  0  0  0  0  0  0
  -21.0310  -13.1950   22.1550 H   0  0  0  0  0  0  0  0  0  0  0  0
  -25.3870  -15.2230   20.3580 N   0  0  0  0  0  0  0  0  0  0  0  0
  -24.6200  -15.8820   20.4390 H   0  0  0  0  0  0  0  0  0  0  0  0
  -26.2600  -15.6580   20.0880 H   0  0  0  0  0  0  0  0  0  0  0  0
  1  2  1  0
  2  7  1  0
  3  2  2  0
  3 51  1  0
  4  6  1  0
  5  6  1  0
  5  1  2  0
  6  3  1  0
  8  7  1  0
  9 10  1  0
  9  8  1  0
 11 22  2  0
 12 10  1  0
 12 17  1  0
 13 21  1  0
 13 23  1  0
 14 20  1  0
 14 16  1  0
 15 21  1  0
 16 15  1  0
 17 16  2  0
 18 19  1  0
 18 12  2  0
 19 14  2  0
 20 13  1  0
 21 11  1  0
 23 25  2  0
 24 23  1  0
 26 24  1  0
 27 36  2  0
 27 32  1  0
 28 24  1  0
 28 32  1  0
 29 28  1  0
 30 31  1  0
 30 29  1  0
 31 27  1  0
 32 33  2  0
 33 34  1  0
 35 34  2  0
 36 35  1  0
 37 11  1  0
 37 38  1  0
 37 47  1  0
 38 41  1  0
 39 43  1  0
 39 38  1  0
 40 39  2  0
 43 42  1  0
 45 43  1  0
 45 46  1  0
 45 44  1  0
 47 50  1  1
 47 48  1  0
 49 47  1  0
 51 52  2  0
 52 53  1  0
 55 60  1  0
 56 57  1  0
 56 55  1  0
 58 57  1  0
 58 67  1  0
 58 59  1  0
 60 54  1  0
 60 59  1  0
 61 54  2  0
 62 63  1  0
 63 54  1  0
 63 53  1  0
 64 65  2  0
 65 66  1  0
 65 84  1  0
 66 69  1  0
 67 64  1  0
 67 68  1  0
 68 66  2  0
 69 70  1  0
 70 71  2  0
 72 75  1  0
 72 71  1  0
 73 72  2  0
 74 73  1  0
 74 69  2  0
 75 76  1  0
 76 77  1  0
 77 78  2  0
 79 78  1  0
 79 83  1  0
 80 79  2  0
 81 76  2  0
 81 80  1  0
 82 81  1  0
 84 85  1  0
 85 88  1  0
 85 87  1  0
 86 84  2  0
 89 90  1  0
 89 64  1  0
 91 89  1  0
M  ISO  4   9 101  10 101  54 100  63 100
M  END
>  <TORSDO>  (69) 
F 22

>  <SCORE>  (69) 
-13.086

>  <name>  (69) 
69

>  <ligand_id>  (69) 
69

>  <original_smiles>  (69) 
[H]c1nn(C([H])([H])[H])c(C([H])([H])C([H])([H])C([H])([H])N(C(=O)N2C([H])([H])C([H])([H])C([H])([H])C([H])(n3nc(-c4c([H])c([H])c(Oc5c([H])c([H])c(F)c([H])c5F)c([H])c4[H])c(C(=O)N([H])[H])c3N([H])[H])C2([H])[H])C([H])([H])[H])c1C([H])([H])C([H])([H])C([H])([H])Oc1c([H])c([H])c2c(c1[H])C([H])([H])N(C(=O)C([H])(N([H])C(=O)C([H])(N([H])C([H])([H])[H])C([H])([H])[H])C(C([H])([H])[H])(C([H])([H])[H])C([H])([H])[H])C([H])(C(=O)N([H])C1([H])c3c([H])c([H])c([H])c([H])c3C([H])([H])C([H])([H])C1([H])[H])C2([H])[H]

>  <smiles>  (69) 
[H]c1nn(C([H])([H])[H])c(C([H])([H])C([H])([H])C([H])([H])N(C(=O)N2C([H])([H])C([H])([H])C([H])([H])C([H])(n3nc(-c4c([H])c([H])c(Oc5c([H])c([H])c(F)c([H])c5F)c([H])c4[H])c(C(=O)N([H])[H])c3N([H])[H])C2([H])[H])C([H])([H])[H])c1C([H])([H])C([H])([H])C([H])([H])Oc1c([H])c([H])c2c(c1[H])C([H])([H])N(C(=O)C([H])(N([H])C(=O)C([H])(N([H])C([H])([H])[H])C([H])([H])[H])C(C([H])([H])[H])(C([H])([H])[H])C([H])([H])[H])C([H])(C(=O)N([H])C1([H])c3c([H])c([H])c([H])c([H])c3C([H])([H])C([H])([H])C1([H])[H])C2([H])[H]

$$$$
70:0:0
     RDKit          3D

 91 99  0  0  1  0  0  0  0  0999 V2000
  -29.9980  -22.1090   19.7030 C   0  0  0  0  0  3  0  0  0  0  0  0
  -28.4670  -23.7160   21.2580 C   0  0  0  0  0  0  0  0  0  0  0  0
  -28.9470  -24.1740   19.9940 C   0  0  0  0  0  0  0  0  0  0  0  0
  -29.4780  -21.6410   20.9370 C   0  0  0  0  0  0  0  0  0  0  0  0
  -27.6250  -24.5660   22.1910 C   0  0  0  0  0  1  0  0  0  0  0  0
  -29.7300  -23.3570   19.2370 N   0  0  0  0  0  0  0  0  0  0  0  0
  -28.7360  -22.4660   21.7180 N   0  0  0  0  0  0  0  0  0  0  0  0
  -28.5920  -25.5250   19.3220 C   0  0  0  0  0  2  0  0  0  0  0  0
  -28.3480  -26.6620   20.1770 O   0  0  0  0  0  0  0  0  0  0  0  0
  -24.5100  -31.8420   23.2110 C   0  0  0  0  0  0  0  0  0  0  0  0
  -27.1510  -27.3670   20.1340 C   0  0  0  0  0  0  0  0  0  0  0  0
  -23.2990  -30.4340   21.5830 C   0  0  0  0  0  3  0  0  0  0  0  0
  -24.7440  -28.8870   20.1580 C   0  0  0  0  0  0  0  0  0  0  0  0
  -25.8250  -30.7830   21.3700 C   0  0  0  0  0  2  0  0  0  0  0  0
  -25.9050  -29.4070   20.7420 C   0  0  0  0  0  0  0  0  0  0  0  0
  -27.1010  -28.6500   20.7340 C   0  0  0  0  0  3  0  0  0  0  0  0
  -25.9590  -26.8580   19.5620 C   0  0  0  0  0  3  0  0  0  0  0  0
  -24.7700  -27.6110   19.5710 C   0  0  0  0  0  3  0  0  0  0  0  0
  -23.4990  -29.7480   20.2060 C   0  0  0  0  0  2  0  0  0  0  0  0
  -24.5650  -31.0390   22.1110 N   0  0  0  0  0  0  0  0  0  0  0  0
  -23.4290  -32.1150   23.7530 O   0  0  0  0  0  0  0  0  0  0  0  0
  -22.6530  -29.4160   22.5520 C   0  0  0  0  0  0  0  0  0  0  0  0
  -21.3300  -29.2260   22.4220 N   0  0  0  0  0  0  0  0  0  0  0  0
  -23.3380  -28.7940   23.3710 O   0  0  0  0  0  0  0  0  0  0  0  0
  -20.8350  -29.7820   21.7370 H   0  0  0  0  0  0  0  0  0  0  0  0
  -17.9620  -28.0070   22.9160 C   0  0  0  0  0  0  0  0  0  0  0  0
  -20.5180  -28.2860   23.1960 C   0  0  0  0  0  3  0  0  0  0  0  0
  -20.6320  -26.8500   22.6320 C   0  0  0  0  0  2  0  0  0  0  0  0
  -19.5390  -26.5120   21.6150 C   0  0  0  0  0  2  0  0  0  0  0  0
  -18.1520  -26.6520   22.2520 C   0  0  0  0  0  2  0  0  0  0  0  0
  -19.0740  -28.7780   23.3440 C   0  0  0  0  0  0  0  0  0  0  0  0
  -18.8450  -30.0450   23.9220 C   0  0  0  0  0  3  0  0  0  0  0  0
  -17.5380  -30.5380   24.0820 C   0  0  0  0  0  3  0  0  0  0  0  0
  -16.4390  -29.7650   23.6730 C   0  0  0  0  0  3  0  0  0  0  0  0
  -16.6530  -28.5000   23.0940 C   0  0  0  0  0  3  0  0  0  0  0  0
  -25.7960  -32.4820   23.8220 C   0  0  0  0  0  3  0  0  0  0  0  0
  -25.4770  -33.8750   24.1650 N   0  0  0  0  0  0  0  0  0  0  0  0
  -25.7910  -34.9370   23.4120 C   0  0  0  0  0  0  0  0  0  0  0  0
  -26.4530  -34.8450   22.3740 O   0  0  0  0  0  0  0  0  0  0  0  0
  -24.8880  -34.0200   24.9710 H   0  0  0  0  0  0  0  0  0  0  0  0
  -24.0430  -36.7150   23.0870 C   0  0  0  0  0  1  0  0  0  0  0  0
  -25.2970  -36.3190   23.8820 C   0  0  0  0  0  3  0  0  0  0  0  0
  -27.4310  -37.2160   24.6950 C   0  0  0  0  0  1  0  0  0  0  0  0
  -26.3170  -37.3820   23.7660 N   0  0  0  0  0  0  0  0  0  0  0  0
  -25.9040  -38.2970   23.9250 H   0  0  0  0  0  0  0  0  0  0  0  0
  -26.3260  -31.7060   25.0890 C   0  0  1  0  0  0  0  0  0  0  0  0
  -25.2290  -31.4160   26.1380 C   0  0  0  0  0  1  0  0  0  0  0  0
  -26.9540  -30.3560   24.6760 C   0  0  0  0  0  1  0  0  0  0  0  0
  -27.4530  -32.5240   25.7700 C   0  0  0  0  0  1  0  0  0  0  0  0
  -29.6180  -20.3590   21.4430 O   0  0  0  0  0  0  0  0  0  0  0  0
  -30.2130  -19.3500   20.6180 C   0  0  0  0  0  2  0  0  0  0  0  0
  -29.9350  -17.9410   21.2000 C   0  0  0  0  0  2  0  0  0  0  0  0
  -30.6680  -16.8030   20.4520 C   0  0  0  0  0  2  0  0  0  0  0  0
  -30.8490  -14.4170   20.1210 C   0  0  0  0  0  0  0  0  0  0  0  0
  -30.3280  -12.3790   18.8430 C   0  0  0  0  0  2  0  0  0  0  0  0
  -29.3230  -12.6690   17.7120 C   0  0  0  0  0  2  0  0  0  0  0  0
  -27.8840  -12.5090   18.2300 C   0  0  0  0  0  2  0  0  0  0  0  0
  -27.6500  -13.2960   19.5450 C   0  0  0  0  0  3  0  0  0  0  0  0
  -28.7650  -13.0190   20.5770 C   0  0  0  0  0  2  0  0  0  0  0  0
  -30.0660  -13.3160   19.9500 N   0  0  0  0  0  0  0  0  0  0  0  0
  -31.8640  -14.6050   19.4370 O   0  0  0  0  0  0  0  0  0  0  0  0
  -30.2900  -15.1980   22.3600 C   0  0  0  0  0  1  0  0  0  0  0  0
  -30.3890  -15.4180   20.9090 N   0  0  0  0  0  0  0  0  0  0  0  0
  -25.3120  -13.9030   20.4340 C   0  0  0  0  0  0  0  0  0  0  0  0
  -24.2690  -13.1260   20.8580 C   0  0  0  0  0  0  0  0  0  0  0  0
  -24.7230  -11.7730   20.7720 C   0  0  0  0  0  0  0  0  0  0  0  0
  -26.3310  -13.0220   20.1090 N   0  0  0  0  0  0  0  0  0  0  0  0
  -25.9870  -11.7370   20.3730 N   0  0  0  0  0  0  0  0  0  0  0  0
  -24.0060  -10.5100   20.9780 C   0  0  0  0  0  0  0  0  0  0  0  0
  -24.4740   -9.5290   21.8790 C   0  0  0  0  0  3  0  0  0  0  0  0
  -23.7550   -8.3300   22.0700 C   0  0  0  0  0  3  0  0  0  0  0  0
  -22.5540   -8.1010   21.3580 C   0  0  0  0  0  0  0  0  0  0  0  0
  -22.1070   -9.0720   20.4430 C   0  0  0  0  0  3  0  0  0  0  0  0
  -22.8270  -10.2610   20.2500 C   0  0  0  0  0  3  0  0  0  0  0  0
  -21.8030   -6.9550   21.4650 O   0  0  0  0  0  0  0  0  0  0  0  0
  -21.7750   -6.2180   22.6220 C   0  0  0  0  0  0  0  0  0  0  0  0
  -21.3810   -6.7830   23.8550 C   0  0  0  0  0  3  0  0  0  0  0  0
  -21.2980   -5.9740   25.0050 C   0  0  0  0  0  3  0  0  0  0  0  0
  -21.5950   -4.6000   24.9250 C   0  0  0  0  0  0  0  0  0  0  0  0
  -21.9840   -4.0350   23.6980 C   0  0  0  0  0  3  0  0  0  0  0  0
  -22.0710   -4.8410   22.5490 C   0  0  0  0  0  0  0  0  0  0  0  0
  -22.4240   -4.2870   21.3640 F   0  0  0  0  0  0  0  0  0  0  0  0
  -21.5090   -3.8210   26.0270 F   0  0  0  0  0  0  0  0  0  0  0  0
  -22.8960  -13.6020   21.2320 C   0  0  0  0  0  0  0  0  0  0  0  0
  -22.2290  -12.8940   22.1330 N   0  0  0  0  0  0  0  0  0  0  0  0
  -22.4260  -14.6370   20.7600 O   0  0  0  0  0  0  0  0  0  0  0  0
  -22.6210  -12.0530   22.5280 H   0  0  0  0  0  0  0  0  0  0  0  0
  -21.3120  -13.1970   22.4310 H   0  0  0  0  0  0  0  0  0  0  0  0
  -25.4720  -15.2780   20.2790 N   0  0  0  0  0  0  0  0  0  0  0  0
  -24.7040  -15.9180   20.4440 H   0  0  0  0  0  0  0  0  0  0  0  0
  -26.2980  -15.7290   19.9080 H   0  0  0  0  0  0  0  0  0  0  0  0
  1  4  1  0
  2  7  1  0
  2  5  1  0
  3  2  2  0
  4 50  1  0
  4  7  2  0
  6  1  2  0
  6  3  1  0
  8  3  1  0
  8  9  1  0
 10 21  2  0
 11  9  1  0
 11 16  1  0
 12 20  1  0
 12 22  1  0
 13 19  1  0
 13 15  1  0
 14 20  1  0
 15 14  1  0
 16 15  2  0
 17 18  1  0
 17 11  2  0
 18 13  2  0
 19 12  1  0
 20 10  1  0
 22 24  2  0
 23 22  1  0
 25 23  1  0
 26 35  2  0
 26 31  1  0
 27 23  1  0
 27 31  1  0
 28 27  1  0
 29 30  1  0
 29 28  1  0
 30 26  1  0
 31 32  2  0
 32 33  1  0
 34 33  2  0
 35 34  1  0
 36 10  1  0
 36 37  1  0
 36 46  1  0
 37 40  1  0
 38 42  1  0
 38 37  1  0
 39 38  2  0
 42 41  1  0
 44 42  1  0
 44 45  1  0
 44 43  1  0
 46 49  1  1
 46 47  1  0
 48 46  1  0
 51 52  1  0
 51 50  1  0
 53 63  1  0
 53 52  1  0
 54 63  1  0
 55 60  1  0
 56 57  1  0
 56 55  1  0
 58 57  1  0
 58 67  1  0
 58 59  1  0
 60 54  1  0
 60 59  1  0
 61 54  2  0
 63 62  1  0
 64 65  2  0
 65 84  1  0
 66 65  1  0
 66 69  1  0
 67 68  1  0
 67 64  1  0
 68 66  2  0
 69 70  1  0
 70 71  2  0
 72 75  1  0
 72 71  1  0
 73 72  2  0
 74 73  1  0
 74 69  2  0
 75 76  1  0
 76 77  1  0
 77 78  2  0
 79 78  1  0
 79 83  1  0
 80 79  2  0
 81 76  2  0
 81 80  1  0
 82 81  1  0
 84 85  1  0
 85 88  1  0
 85 87  1  0
 86 84  2  0
 89 64  1  0
 89 90  1  0
 91 89  1  0
M  ISO  4   8 101   9 101  54 100  63 100
M  END
>  <TORSDO>  (70) 
F 21

>  <SCORE>  (70) 
-12.220

>  <name>  (70) 
70

>  <ligand_id>  (70) 
70

>  <original_smiles>  (70) 
[H]c1nc(C([H])([H])Oc2c([H])c([H])c3c(c2[H])C([H])([H])N(C(=O)C([H])(N([H])C(=O)C([H])(N([H])C([H])([H])[H])C([H])([H])[H])C(C([H])([H])[H])(C([H])([H])[H])C([H])([H])[H])C([H])(C(=O)N([H])C2([H])c4c([H])c([H])c([H])c([H])c4C([H])([H])C([H])([H])C2([H])[H])C3([H])[H])c(C([H])([H])[H])nc1OC([H])([H])C([H])([H])C([H])([H])N(C(=O)N1C([H])([H])C([H])([H])C([H])([H])C([H])(n2nc(-c3c([H])c([H])c(Oc4c([H])c([H])c(F)c([H])c4F)c([H])c3[H])c(C(=O)N([H])[H])c2N([H])[H])C1([H])[H])C([H])([H])[H]

>  <smiles>  (70) 
[H]c1nc(C([H])([H])Oc2c([H])c([H])c3c(c2[H])C([H])([H])N(C(=O)C([H])(N([H])C(=O)C([H])(N([H])C([H])([H])[H])C([H])([H])[H])C(C([H])([H])[H])(C([H])([H])[H])C([H])([H])[H])C([H])(C(=O)N([H])C2([H])c4c([H])c([H])c([H])c([H])c4C([H])([H])C([H])([H])C2([H])[H])C3([H])[H])c(C([H])([H])[H])nc1OC([H])([H])C([H])([H])C([H])([H])N(C(=O)N1C([H])([H])C([H])([H])C([H])([H])C([H])(n2nc(-c3c([H])c([H])c(Oc4c([H])c([H])c(F)c([H])c4F)c([H])c3[H])c(C(=O)N([H])[H])c2N([H])[H])C1([H])[H])C([H])([H])[H]

$$$$
71:0:0
     RDKit          3D

 91 99  0  0  1  0  0  0  0  0999 V2000
  -31.1720  -21.2620   20.7560 C   0  0  0  0  0  2  0  0  0  0  0  0
  -29.9980  -18.9930   20.8870 C   0  0  0  0  0  3  0  0  0  0  0  0
  -30.1250  -17.8690   20.1130 C   0  0  0  0  0  0  0  0  0  0  0  0
  -30.9670  -18.1840   19.0450 N   0  0  0  0  0  0  0  0  0  0  0  0
  -31.3780  -19.4130   19.1610 N   0  0  0  0  0  0  0  0  0  0  0  0
  -30.7910  -19.9380   20.2650 N   0  0  0  0  0  0  0  0  0  0  0  0
  -28.1540  -16.6260   21.0300 C   0  0  0  0  0  1  0  0  0  0  0  0
  -29.4920  -16.4990   20.2760 C   0  0  0  0  0  3  0  0  0  0  0  0
  -31.6340  -15.9970   21.6820 C   0  0  0  0  0  1  0  0  0  0  0  0
  -30.4000  -15.4140   20.9550 C   0  0  0  0  0  3  0  0  0  0  0  0
  -30.8090  -14.2730   19.9790 C   0  0  0  0  0  0  0  0  0  0  0  0
  -30.4220  -12.0580   18.9310 C   0  0  0  0  0  2  0  0  0  0  0  0
  -29.4290  -12.1480   17.7560 C   0  0  0  0  0  2  0  0  0  0  0  0
  -27.9750  -12.0450   18.2530 C   0  0  0  0  0  2  0  0  0  0  0  0
  -27.6910  -12.9970   19.4430 C   0  0  0  0  0  3  0  0  0  0  0  0
  -28.7830  -12.8570   20.5270 C   0  0  0  0  0  2  0  0  0  0  0  0
  -30.0920  -13.1150   19.9030 N   0  0  0  0  0  0  0  0  0  0  0  0
  -31.8220  -14.4430   19.2920 O   0  0  0  0  0  0  0  0  0  0  0  0
  -25.3600  -13.7130   20.2720 C   0  0  0  0  0  0  0  0  0  0  0  0
  -24.2850  -12.9870   20.7070 C   0  0  0  0  0  0  0  0  0  0  0  0
  -24.6900  -11.6170   20.6630 C   0  0  0  0  0  0  0  0  0  0  0  0
  -26.3560  -12.7870   19.9960 N   0  0  0  0  0  0  0  0  0  0  0  0
  -25.9590  -11.5230   20.2870 N   0  0  0  0  0  0  0  0  0  0  0  0
  -23.9260  -10.3870   20.9040 C   0  0  0  0  0  0  0  0  0  0  0  0
  -24.3560   -9.4220   21.8420 C   0  0  0  0  0  3  0  0  0  0  0  0
  -23.5950   -8.2550   22.0680 C   0  0  0  0  0  3  0  0  0  0  0  0
  -22.3920   -8.0440   21.3550 C   0  0  0  0  0  0  0  0  0  0  0  0
  -21.9800   -8.9960   20.4050 C   0  0  0  0  0  3  0  0  0  0  0  0
  -22.7400  -10.1550   20.1790 C   0  0  0  0  0  3  0  0  0  0  0  0
  -21.6020   -6.9270   21.4880 O   0  0  0  0  0  0  0  0  0  0  0  0
  -21.5510   -6.2180   22.6620 C   0  0  0  0  0  0  0  0  0  0  0  0
  -21.1790   -6.8230   23.8820 C   0  0  0  0  0  3  0  0  0  0  0  0
  -21.0720   -6.0420   25.0500 C   0  0  0  0  0  3  0  0  0  0  0  0
  -21.3290   -4.6580   24.9990 C   0  0  0  0  0  0  0  0  0  0  0  0
  -21.6940   -4.0540   23.7830 C   0  0  0  0  0  3  0  0  0  0  0  0
  -21.8020   -4.8320   22.6180 C   0  0  0  0  0  0  0  0  0  0  0  0
  -22.1350   -4.2410   21.4450 F   0  0  0  0  0  0  0  0  0  0  0  0
  -21.2180   -3.9070   26.1190 F   0  0  0  0  0  0  0  0  0  0  0  0
  -22.9240  -13.5220   21.0490 C   0  0  0  0  0  0  0  0  0  0  0  0
  -22.2190  -12.8660   21.9630 N   0  0  0  0  0  0  0  0  0  0  0  0
  -22.4950  -14.5570   20.5400 O   0  0  0  0  0  0  0  0  0  0  0  0
  -22.5790  -12.0290   22.4000 H   0  0  0  0  0  0  0  0  0  0  0  0
  -21.3080  -13.2070   22.2360 H   0  0  0  0  0  0  0  0  0  0  0  0
  -25.5670  -15.0730   20.0670 N   0  0  0  0  0  0  0  0  0  0  0  0
  -24.8300  -15.7540   20.2170 H   0  0  0  0  0  0  0  0  0  0  0  0
  -26.4100  -15.4790   19.6870 H   0  0  0  0  0  0  0  0  0  0  0  0
  -31.0850  -22.4330   19.7430 C   0  0  0  0  0  2  0  0  0  0  0  0
  -29.7170  -23.1540   19.6360 C   0  0  0  0  0  2  0  0  0  0  0  0
  -29.7840  -24.6740   19.9470 C   0  0  0  0  0  2  0  0  0  0  0  0
  -28.4350  -25.3950   19.7630 C   0  0  0  0  0  2  0  0  0  0  0  0
  -28.4930  -26.7820   20.1310 O   0  0  0  0  0  0  0  0  0  0  0  0
  -24.6380  -31.9240   23.2420 C   0  0  0  0  0  0  0  0  0  0  0  0
  -27.3020  -27.4900   20.1410 C   0  0  0  0  0  0  0  0  0  0  0  0
  -23.4360  -30.5140   21.6060 C   0  0  0  0  0  3  0  0  0  0  0  0
  -24.8930  -28.9870   20.1820 C   0  0  0  0  0  0  0  0  0  0  0  0
  -25.9600  -30.8880   21.3970 C   0  0  0  0  0  2  0  0  0  0  0  0
  -26.0530  -29.5160   20.7580 C   0  0  0  0  0  0  0  0  0  0  0  0
  -27.2600  -28.7750   20.7310 C   0  0  0  0  0  3  0  0  0  0  0  0
  -26.1090  -26.9750   19.5720 C   0  0  0  0  0  3  0  0  0  0  0  0
  -24.9150  -27.7160   19.5910 C   0  0  0  0  0  3  0  0  0  0  0  0
  -23.6450  -29.8370   20.2280 C   0  0  0  0  0  2  0  0  0  0  0  0
  -24.6970  -31.1210   22.1410 N   0  0  0  0  0  0  0  0  0  0  0  0
  -23.5560  -32.1900   23.7840 O   0  0  0  0  0  0  0  0  0  0  0  0
  -22.7930  -29.4870   22.5670 C   0  0  0  0  0  0  0  0  0  0  0  0
  -21.4700  -29.2950   22.4380 N   0  0  0  0  0  0  0  0  0  0  0  0
  -23.4810  -28.8650   23.3820 O   0  0  0  0  0  0  0  0  0  0  0  0
  -20.9790  -29.8440   21.7460 H   0  0  0  0  0  0  0  0  0  0  0  0
  -18.1030  -28.0780   22.9330 C   0  0  0  0  0  0  0  0  0  0  0  0
  -20.6580  -28.3550   23.2110 C   0  0  0  0  0  3  0  0  0  0  0  0
  -20.7740  -26.9220   22.6400 C   0  0  0  0  0  2  0  0  0  0  0  0
  -19.6780  -26.5890   21.6230 C   0  0  0  0  0  2  0  0  0  0  0  0
  -18.2930  -26.7260   22.2630 C   0  0  0  0  0  2  0  0  0  0  0  0
  -19.2160  -28.8500   23.3630 C   0  0  0  0  0  0  0  0  0  0  0  0
  -18.9880  -30.1130   23.9480 C   0  0  0  0  0  3  0  0  0  0  0  0
  -17.6800  -30.6070   24.1090 C   0  0  0  0  0  3  0  0  0  0  0  0
  -16.5820  -29.8330   23.6970 C   0  0  0  0  0  3  0  0  0  0  0  0
  -16.7950  -28.5710   23.1130 C   0  0  0  0  0  3  0  0  0  0  0  0
  -25.9210  -32.5620   23.8550 C   0  0  0  0  0  3  0  0  0  0  0  0
  -25.6050  -33.9550   24.1940 N   0  0  0  0  0  0  0  0  0  0  0  0
  -25.9250  -35.0130   23.4380 C   0  0  0  0  0  0  0  0  0  0  0  0
  -26.5920  -34.9180   22.4040 O   0  0  0  0  0  0  0  0  0  0  0  0
  -25.0110  -34.1000   24.9980 H   0  0  0  0  0  0  0  0  0  0  0  0
  -24.1760  -36.7870   23.0930 C   0  0  0  0  0  1  0  0  0  0  0  0
  -25.4240  -36.3950   23.9000 C   0  0  0  0  0  3  0  0  0  0  0  0
  -27.5530  -37.2900   24.7280 C   0  0  0  0  0  1  0  0  0  0  0  0
  -26.4470  -37.4580   23.7900 N   0  0  0  0  0  0  0  0  0  0  0  0
  -26.0340  -38.3720   23.9520 H   0  0  0  0  0  0  0  0  0  0  0  0
  -26.4570  -31.7890   25.1220 C   0  0  1  0  0  0  0  0  0  0  0  0
  -25.3710  -31.5290   26.1930 C   0  0  0  0  0  1  0  0  0  0  0  0
  -27.0540  -30.4220   24.7150 C   0  0  0  0  0  1  0  0  0  0  0  0
  -27.6070  -32.5890   25.7810 C   0  0  0  0  0  1  0  0  0  0  0  0
  3  8  1  0
  3  2  2  0
  4  5  2  0
  4  3  1  0
  5  6  1  0
  6  1  1  0
  6  2  1  0
  8 10  1  0
  8  7  1  0
 10  9  1  0
 11 10  1  0
 12 17  1  0
 13 14  1  0
 13 12  1  0
 15 14  1  0
 15 22  1  0
 15 16  1  0
 17 11  1  0
 17 16  1  0
 18 11  2  0
 19 20  2  0
 20 39  1  0
 21 20  1  0
 21 24  1  0
 22 19  1  0
 22 23  1  0
 23 21  2  0
 24 25  1  0
 25 26  2  0
 27 30  1  0
 27 26  1  0
 28 27  2  0
 29 28  1  0
 29 24  2  0
 30 31  1  0
 31 32  1  0
 32 33  2  0
 34 33  1  0
 34 38  1  0
 35 34  2  0
 36 31  2  0
 36 35  1  0
 37 36  1  0
 39 40  1  0
 40 43  1  0
 40 42  1  0
 41 39  2  0
 44 45  1  0
 44 19  1  0
 46 44  1  0
 47  1  1  0
 48 47  1  0
 48 49  1  0
 50 49  1  0
 50 51  1  0
 51 53  1  0
 52 63  2  0
 53 58  1  0
 54 62  1  0
 54 64  1  0
 55 61  1  0
 55 57  1  0
 56 62  1  0
 57 56  1  0
 58 57  2  0
 59 60  1  0
 59 53  2  0
 60 55  2  0
 61 54  1  0
 62 52  1  0
 64 66  2  0
 65 64  1  0
 67 65  1  0
 68 77  2  0
 68 73  1  0
 69 65  1  0
 69 73  1  0
 70 69  1  0
 71 72  1  0
 71 70  1  0
 72 68  1  0
 73 74  2  0
 74 75  1  0
 76 75  2  0
 77 76  1  0
 78 52  1  0
 78 79  1  0
 78 88  1  0
 79 82  1  0
 80 84  1  0
 80 79  1  0
 81 80  2  0
 84 83  1  0
 86 84  1  0
 86 87  1  0
 86 85  1  0
 88 91  1  1
 88 89  1  0
 90 88  1  0
M  ISO  4  10 100  11 100  50 101  51 101
M  END
>  <TORSDO>  (71) 
F 23

>  <SCORE>  (71) 
-11.974

>  <name>  (71) 
71

>  <ligand_id>  (71) 
71

>  <original_smiles>  (71) 
[H]c1c([H])c([H])c2c(c1[H])C([H])([H])C([H])([H])C([H])([H])C2([H])N([H])C(=O)C1([H])N(C(=O)C([H])(N([H])C(=O)C([H])(N([H])C([H])([H])[H])C([H])([H])[H])C(C([H])([H])[H])(C([H])([H])[H])C([H])([H])[H])C([H])([H])c2c([H])c(OC([H])([H])C([H])([H])C([H])([H])C([H])([H])C([H])([H])n3nnc(C([H])(C([H])([H])[H])C([H])(C(=O)N4C([H])([H])C([H])([H])C([H])([H])C([H])(n5nc(-c6c([H])c([H])c(Oc7c([H])c([H])c(F)c([H])c7F)c([H])c6[H])c(C(=O)N([H])[H])c5N([H])[H])C4([H])[H])C([H])([H])[H])c3[H])c([H])c([H])c2C1([H])[H]

>  <smiles>  (71) 
[H]c1c([H])c([H])c2c(c1[H])C([H])([H])C([H])([H])C([H])([H])C2([H])N([H])C(=O)C1([H])N(C(=O)C([H])(N([H])C(=O)C([H])(N([H])C([H])([H])[H])C([H])([H])[H])C(C([H])([H])[H])(C([H])([H])[H])C([H])([H])[H])C([H])([H])c2c([H])c(OC([H])([H])C([H])([H])C([H])([H])C([H])([H])C([H])([H])n3nnc(C([H])(C([H])([H])[H])C([H])(C(=O)N4C([H])([H])C([H])([H])C([H])([H])C([H])(n5nc(-c6c([H])c([H])c(Oc7c([H])c([H])c(F)c([H])c7F)c([H])c6[H])c(C(=O)N([H])[H])c5N([H])[H])C4([H])[H])C([H])([H])[H])c3[H])c([H])c([H])c2C1([H])[H]

$$$$
72:0:0
     RDKit          3D

 90 98  0  0  1  0  0  0  0  0999 V2000
  -28.9560  -21.7000   18.4280 C   0  0  0  0  0  1  0  0  0  0  0  0
  -27.2580  -21.5740   20.2270 C   0  0  0  0  0  1  0  0  0  0  0  0
  -28.7540  -21.8240   19.9510 C   0  0  2  0  0  0  0  0  0  0  0  0
  -29.1770  -23.4700   21.9350 C   0  0  0  0  0  1  0  0  0  0  0  0
  -30.4570  -23.8530   19.8520 C   0  0  0  0  0  1  0  0  0  0  0  0
  -29.0720  -23.4530   20.4000 C   0  0  1  0  0  0  0  0  0  0  0  0
  -28.0680  -24.7570   20.0080 C   0  0  0  0  0  2  0  0  0  0  0  0
  -28.3280  -26.2720   20.2440 O   0  0  0  0  0  0  0  0  0  0  0  0
  -24.6900  -31.9040   23.2840 C   0  0  0  0  0  0  0  0  0  0  0  0
  -27.2700  -27.2480   20.1790 C   0  0  0  0  0  0  0  0  0  0  0  0
  -23.4850  -30.5200   21.6380 C   0  0  0  0  0  3  0  0  0  0  0  0
  -24.9330  -28.9730   20.1790 C   0  0  0  0  0  0  0  0  0  0  0  0
  -26.0340  -30.8050   21.4550 C   0  0  0  0  0  2  0  0  0  0  0  0
  -26.1110  -29.4200   20.7900 C   0  0  0  0  0  0  0  0  0  0  0  0
  -27.2810  -28.5720   20.7740 C   0  0  0  0  0  3  0  0  0  0  0  0
  -26.0680  -26.9070   19.5170 C   0  0  0  0  0  3  0  0  0  0  0  0
  -24.9250  -27.7330   19.5230 C   0  0  0  0  0  3  0  0  0  0  0  0
  -23.6930  -29.8500   20.2530 C   0  0  0  0  0  2  0  0  0  0  0  0
  -24.7580  -31.0970   22.1810 N   0  0  0  0  0  0  0  0  0  0  0  0
  -23.6060  -32.1780   23.8210 O   0  0  0  0  0  0  0  0  0  0  0  0
  -22.8170  -29.5020   22.5930 C   0  0  0  0  0  0  0  0  0  0  0  0
  -21.4920  -29.3140   22.4550 N   0  0  0  0  0  0  0  0  0  0  0  0
  -23.4910  -28.8810   23.4180 O   0  0  0  0  0  0  0  0  0  0  0  0
  -21.0080  -29.8600   21.7540 H   0  0  0  0  0  0  0  0  0  0  0  0
  -18.1240  -28.0620   22.9100 C   0  0  0  0  0  0  0  0  0  0  0  0
  -20.6740  -28.3640   23.2110 C   0  0  0  0  0  3  0  0  0  0  0  0
  -20.8090  -26.9360   22.6330 C   0  0  0  0  0  2  0  0  0  0  0  0
  -19.7250  -26.5980   21.6060 C   0  0  0  0  0  2  0  0  0  0  0  0
  -18.3320  -26.7190   22.2320 C   0  0  0  0  0  2  0  0  0  0  0  0
  -19.2240  -28.8430   23.3540 C   0  0  0  0  0  0  0  0  0  0  0  0
  -18.9770  -30.1000   23.9460 C   0  0  0  0  0  3  0  0  0  0  0  0
  -17.6620  -30.5770   24.1020 C   0  0  0  0  0  3  0  0  0  0  0  0
  -16.5750  -29.7930   23.6770 C   0  0  0  0  0  3  0  0  0  0  0  0
  -16.8070  -28.5390   23.0860 C   0  0  0  0  0  3  0  0  0  0  0  0
  -25.9690  -32.5350   23.9130 C   0  0  0  0  0  3  0  0  0  0  0  0
  -26.4650  -31.7730   25.2020 C   0  0  1  0  0  0  0  0  0  0  0  0
  -25.3600  -31.5530   26.2600 C   0  0  0  0  0  1  0  0  0  0  0  0
  -27.0420  -30.3880   24.8320 C   0  0  0  0  0  1  0  0  0  0  0  0
  -27.6170  -32.5650   25.8670 C   0  0  0  0  0  1  0  0  0  0  0  0
  -25.6650  -33.9390   24.2340 N   0  0  0  0  0  0  0  0  0  0  0  0
  -25.9900  -34.9850   23.4640 C   0  0  0  0  0  0  0  0  0  0  0  0
  -26.6420  -34.8690   22.4230 O   0  0  0  0  0  0  0  0  0  0  0  0
  -25.0890  -34.1010   25.0470 H   0  0  0  0  0  0  0  0  0  0  0  0
  -24.2600  -36.7820   23.1280 C   0  0  0  0  0  1  0  0  0  0  0  0
  -25.5160  -36.3810   23.9180 C   0  0  0  0  0  3  0  0  0  0  0  0
  -27.6650  -37.2730   24.7020 C   0  0  0  0  0  1  0  0  0  0  0  0
  -26.5500  -37.4290   23.7730 N   0  0  0  0  0  0  0  0  0  0  0  0
  -26.1490  -38.3520   23.9140 H   0  0  0  0  0  0  0  0  0  0  0  0
  -29.6110  -20.5180   20.6150 C   0  0  0  0  0  2  0  0  0  0  0  0
  -30.4440  -17.8770   20.4220 C   0  0  0  0  0  3  0  0  0  0  0  0
  -28.3530  -18.1820   20.2410 C   0  0  0  0  0  3  0  0  0  0  0  0
  -29.9020  -16.5490   20.3550 C   0  0  0  0  0  0  0  0  0  0  0  0
  -28.5260  -16.8330   20.2210 N   0  0  0  0  0  0  0  0  0  0  0  0
  -29.4570  -18.9500   20.3710 N   0  0  0  0  0  0  0  0  0  0  0  0
  -30.6520  -15.0820   20.2930 C   0  0  0  0  0  0  0  0  0  0  0  0
  -30.5210  -12.7140   19.3990 C   0  0  0  0  0  2  0  0  0  0  0  0
  -29.6090  -12.6630   18.1530 C   0  0  0  0  0  2  0  0  0  0  0  0
  -28.1390  -12.4500   18.5610 C   0  0  0  0  0  2  0  0  0  0  0  0
  -27.7090  -13.3800   19.7250 C   0  0  0  0  0  3  0  0  0  0  0  0
  -28.7510  -13.4380   20.8590 C   0  0  0  0  0  2  0  0  0  0  0  0
  -30.0340  -13.8280   20.2680 N   0  0  0  0  0  0  0  0  0  0  0  0
  -31.8710  -15.0740   20.0840 O   0  0  0  0  0  0  0  0  0  0  0  0
  -25.3210  -13.9320   20.4510 C   0  0  0  0  0  0  0  0  0  0  0  0
  -24.2610  -13.1470   20.8060 C   0  0  0  0  0  0  0  0  0  0  0  0
  -24.7390  -11.8000   20.7890 C   0  0  0  0  0  0  0  0  0  0  0  0
  -26.3750  -13.0640   20.2220 N   0  0  0  0  0  0  0  0  0  0  0  0
  -26.0350  -11.7760   20.4970 N   0  0  0  0  0  0  0  0  0  0  0  0
  -24.0220  -10.5310   20.9760 C   0  0  0  0  0  0  0  0  0  0  0  0
  -24.4390   -9.5770   21.9310 C   0  0  0  0  0  3  0  0  0  0  0  0
  -23.7210   -8.3740   22.1060 C   0  0  0  0  0  3  0  0  0  0  0  0
  -22.5700   -8.1140   21.3240 C   0  0  0  0  0  0  0  0  0  0  0  0
  -22.1700   -9.0560   20.3590 C   0  0  0  0  0  3  0  0  0  0  0  0
  -22.8890  -10.2500   20.1840 C   0  0  0  0  0  3  0  0  0  0  0  0
  -21.8270   -6.9620   21.4060 O   0  0  0  0  0  0  0  0  0  0  0  0
  -21.7440   -6.2380   22.5690 C   0  0  0  0  0  0  0  0  0  0  0  0
  -21.2420   -6.8010   23.7620 C   0  0  0  0  0  3  0  0  0  0  0  0
  -21.1110   -6.0030   24.9160 C   0  0  0  0  0  3  0  0  0  0  0  0
  -21.4720   -4.6420   24.8770 C   0  0  0  0  0  0  0  0  0  0  0  0
  -21.9670   -4.0790   23.6880 C   0  0  0  0  0  3  0  0  0  0  0  0
  -22.1000   -4.8750   22.5360 C   0  0  0  0  0  0  0  0  0  0  0  0
  -22.5580   -4.3210   21.3870 F   0  0  0  0  0  0  0  0  0  0  0  0
  -21.3380   -3.8730   25.9830 F   0  0  0  0  0  0  0  0  0  0  0  0
  -22.8540  -13.6100   21.0550 C   0  0  0  0  0  0  0  0  0  0  0  0
  -22.1190  -12.9100   21.9100 N   0  0  0  0  0  0  0  0  0  0  0  0
  -22.4160  -14.6300   20.5240 O   0  0  0  0  0  0  0  0  0  0  0  0
  -22.4860  -12.0840   22.3600 H   0  0  0  0  0  0  0  0  0  0  0  0
  -21.1750  -13.2040   22.1170 H   0  0  0  0  0  0  0  0  0  0  0  0
  -25.4830  -15.3050   20.2770 N   0  0  0  0  0  0  0  0  0  0  0  0
  -24.7280  -15.9700   20.3930 H   0  0  0  0  0  0  0  0  0  0  0  0
  -26.3770  -15.7420   20.0700 H   0  0  0  0  0  0  0  0  0  0  0  0
  3  1  1  6
  3  2  1  0
  3  6  1  0
  3 49  1  0
  6  5  1  6
  6  4  1  0
  7  8  1  0
  7  6  1  0
  9 20  2  0
 10  8  1  0
 10 15  1  0
 11 19  1  0
 11 21  1  0
 12 18  1  0
 12 14  1  0
 13 19  1  0
 14 13  1  0
 15 14  2  0
 16 17  1  0
 16 10  2  0
 17 12  2  0
 18 11  1  0
 19  9  1  0
 21 23  2  0
 22 21  1  0
 24 22  1  0
 25 34  2  0
 25 30  1  0
 26 22  1  0
 26 30  1  0
 27 26  1  0
 28 29  1  0
 28 27  1  0
 29 25  1  0
 30 31  2  0
 31 32  1  0
 33 32  2  0
 34 33  1  0
 35  9  1  0
 35 40  1  0
 35 36  1  0
 36 39  1  1
 36 37  1  0
 38 36  1  0
 40 43  1  0
 41 45  1  0
 41 40  1  0
 42 41  2  0
 45 44  1  0
 47 48  1  0
 47 45  1  0
 47 46  1  0
 51 54  1  0
 52 50  2  0
 53 51  2  0
 53 52  1  0
 54 50  1  0
 54 49  1  0
 55 52  1  0
 56 61  1  0
 57 58  1  0
 57 56  1  0
 59 58  1  0
 59 66  1  0
 59 60  1  0
 61 55  1  0
 61 60  1  0
 62 55  2  0
 63 64  2  0
 64 83  1  0
 65 64  1  0
 65 68  1  0
 66 63  1  0
 66 67  1  0
 67 65  2  0
 68 69  1  0
 69 70  2  0
 71 74  1  0
 71 70  1  0
 72 71  2  0
 73 72  1  0
 73 68  2  0
 74 75  1  0
 75 76  1  0
 76 77  2  0
 78 77  1  0
 78 82  1  0
 79 78  2  0
 80 75  2  0
 80 79  1  0
 81 80  1  0
 83 84  1  0
 84 87  1  0
 84 86  1  0
 85 83  2  0
 88 89  1  0
 88 63  1  0
 90 88  1  0
M  ISO  4   7 101   8 101  52 100  55 100
M  END
>  <TORSDO>  (72) 
F 20

>  <SCORE>  (72) 
-14.820

>  <name>  (72) 
72

>  <ligand_id>  (72) 
72

>  <original_smiles>  (72) 
[H]c1c([H])c([H])c2c(c1[H])C([H])([H])C([H])([H])C([H])([H])C2([H])N([H])C(=O)C1([H])N(C(=O)C([H])(N([H])C(=O)C([H])(N([H])C([H])([H])[H])C([H])([H])[H])C(C([H])([H])[H])(C([H])([H])[H])C([H])([H])[H])C([H])([H])c2c([H])c(OC([H])([H])C(C([H])([H])[H])(C([H])([H])[H])C(C([H])([H])[H])(C([H])([H])[H])C([H])([H])n3c([H])nc(C(=O)N4C([H])([H])C([H])([H])C([H])([H])C([H])(n5nc(-c6c([H])c([H])c(Oc7c([H])c([H])c(F)c([H])c7F)c([H])c6[H])c(C(=O)N([H])[H])c5N([H])[H])C4([H])[H])c3[H])c([H])c([H])c2C1([H])[H]

>  <smiles>  (72) 
[H]c1c([H])c([H])c2c(c1[H])C([H])([H])C([H])([H])C([H])([H])C2([H])N([H])C(=O)C1([H])N(C(=O)C([H])(N([H])C(=O)C([H])(N([H])C([H])([H])[H])C([H])([H])[H])C(C([H])([H])[H])(C([H])([H])[H])C([H])([H])[H])C([H])([H])c2c([H])c(OC([H])([H])C(C([H])([H])[H])(C([H])([H])[H])C(C([H])([H])[H])(C([H])([H])[H])C([H])([H])n3c([H])nc(C(=O)N4C([H])([H])C([H])([H])C([H])([H])C([H])(n5nc(-c6c([H])c([H])c(Oc7c([H])c([H])c(F)c([H])c7F)c([H])c6[H])c(C(=O)N([H])[H])c5N([H])[H])C4([H])[H])c3[H])c([H])c([H])c2C1([H])[H]

$$$$
73:0:0
     RDKit          3D

 94102  0  0  1  0  0  0  0  0999 V2000
  -30.6020  -21.0220   19.1050 C   0  0  0  0  0  3  0  0  0  0  0  0
  -30.7940  -22.3430   18.6420 C   0  0  0  0  0  0  0  0  0  0  0  0
  -29.6190  -20.7440   20.0520 C   0  0  0  0  0  0  0  0  0  0  0  0
  -29.1060  -23.2060   20.0010 C   0  0  0  0  0  0  0  0  0  0  0  0
  -30.0690  -23.3950   19.1020 N   0  0  0  0  0  0  0  0  0  0  0  0
  -28.8730  -21.8920   20.4690 N   0  0  0  0  0  0  0  0  0  0  0  0
  -32.5790  -21.4080   17.0460 C   0  0  0  0  0  1  0  0  0  0  0  0
  -32.8910  -23.6380   18.1070 C   0  0  0  0  0  1  0  0  0  0  0  0
  -31.1300  -23.2830   16.3270 C   0  0  0  0  0  1  0  0  0  0  0  0
  -31.8340  -22.6660   17.5500 C   0  0  2  0  0  0  0  0  0  0  0  0
  -27.9080  -18.8300   20.2680 C   0  0  0  0  0  1  0  0  0  0  0  0
  -29.6530  -19.0950   22.0350 C   0  0  0  0  0  1  0  0  0  0  0  0
  -29.3910  -19.1480   20.5210 C   0  0  2  0  0  0  0  0  0  0  0  0
  -30.2710  -17.8180   19.8740 C   0  0  0  0  0  2  0  0  0  0  0  0
  -30.7800  -15.0700   19.8610 C   0  0  0  0  0  0  0  0  0  0  0  0
  -30.6180  -12.7200   18.8970 C   0  0  0  0  0  2  0  0  0  0  0  0
  -29.5970  -12.6730   17.7360 C   0  0  0  0  0  2  0  0  0  0  0  0
  -28.1710  -12.4460   18.2740 C   0  0  0  0  0  2  0  0  0  0  0  0
  -27.8500  -13.3530   19.4930 C   0  0  0  0  0  3  0  0  0  0  0  0
  -28.9840  -13.3590   20.5380 C   0  0  0  0  0  2  0  0  0  0  0  0
  -30.1990  -13.7990   19.8420 N   0  0  0  0  0  0  0  0  0  0  0  0
  -31.9490  -15.1420   19.4610 O   0  0  0  0  0  0  0  0  0  0  0  0
  -30.0140  -16.2530   20.1250 N   0  0  0  0  0  0  0  0  0  0  0  0
  -29.0790  -16.0430   20.4400 H   0  0  0  0  0  0  0  0  0  0  0  0
  -25.5530  -13.9170   20.4660 C   0  0  0  0  0  0  0  0  0  0  0  0
  -24.5130  -13.1370   20.8880 C   0  0  0  0  0  0  0  0  0  0  0  0
  -24.9490  -11.7850   20.7420 C   0  0  0  0  0  0  0  0  0  0  0  0
  -26.5550  -13.0410   20.0870 N   0  0  0  0  0  0  0  0  0  0  0  0
  -26.2070  -11.7480   20.3180 N   0  0  0  0  0  0  0  0  0  0  0  0
  -24.2190  -10.5250   20.9270 C   0  0  0  0  0  0  0  0  0  0  0  0
  -24.6330   -9.5620   21.8740 C   0  0  0  0  0  3  0  0  0  0  0  0
  -23.9000   -8.3680   22.0460 C   0  0  0  0  0  3  0  0  0  0  0  0
  -22.7380   -8.1300   21.2740 C   0  0  0  0  0  0  0  0  0  0  0  0
  -22.3450   -9.0810   20.3150 C   0  0  0  0  0  3  0  0  0  0  0  0
  -23.0790  -10.2670   20.1400 C   0  0  0  0  0  3  0  0  0  0  0  0
  -21.9770   -6.9870   21.3560 O   0  0  0  0  0  0  0  0  0  0  0  0
  -21.8120   -6.3170   22.5420 C   0  0  0  0  0  0  0  0  0  0  0  0
  -21.1990   -6.9220   23.6620 C   0  0  0  0  0  3  0  0  0  0  0  0
  -20.9810   -6.1720   24.8340 C   0  0  0  0  0  3  0  0  0  0  0  0
  -21.3730   -4.8200   24.8910 C   0  0  0  0  0  0  0  0  0  0  0  0
  -21.9800   -4.2170   23.7750 C   0  0  0  0  0  3  0  0  0  0  0  0
  -22.1950   -4.9620   22.6030 C   0  0  0  0  0  0  0  0  0  0  0  0
  -22.7610   -4.3700   21.5260 F   0  0  0  0  0  0  0  0  0  0  0  0
  -21.1580   -4.0990   26.0160 F   0  0  0  0  0  0  0  0  0  0  0  0
  -23.1550  -13.6200   21.3020 C   0  0  0  0  0  0  0  0  0  0  0  0
  -22.4860  -12.8880   22.1870 N   0  0  0  0  0  0  0  0  0  0  0  0
  -22.6970  -14.6810   20.8780 O   0  0  0  0  0  0  0  0  0  0  0  0
  -22.8700  -12.0320   22.5550 H   0  0  0  0  0  0  0  0  0  0  0  0
  -21.5760  -13.1920   22.5020 H   0  0  0  0  0  0  0  0  0  0  0  0
  -25.7220  -15.2930   20.3460 N   0  0  0  0  0  0  0  0  0  0  0  0
  -24.9670  -15.9410   20.5510 H   0  0  0  0  0  0  0  0  0  0  0  0
  -26.5150  -15.7390   19.9050 H   0  0  0  0  0  0  0  0  0  0  0  0
  -28.1840  -24.5580   20.3760 C   0  0  0  0  0  2  0  0  0  0  0  0
  -28.5030  -26.1020   20.1670 O   0  0  0  0  0  0  0  0  0  0  0  0
  -24.7510  -31.8110   23.1200 C   0  0  0  0  0  0  0  0  0  0  0  0
  -27.4530  -27.1100   20.1210 C   0  0  0  0  0  0  0  0  0  0  0  0
  -23.6070  -30.4070   21.4510 C   0  0  0  0  0  3  0  0  0  0  0  0
  -25.1090  -28.8610   20.0450 C   0  0  0  0  0  0  0  0  0  0  0  0
  -26.1630  -30.6990   21.3420 C   0  0  0  0  0  2  0  0  0  0  0  0
  -26.2730  -29.3080   20.6830 C   0  0  0  0  0  0  0  0  0  0  0  0
  -27.4460  -28.4510   20.7010 C   0  0  0  0  0  3  0  0  0  0  0  0
  -26.2630  -26.7860   19.4310 C   0  0  0  0  0  3  0  0  0  0  0  0
  -25.1230  -27.6180   19.4000 C   0  0  0  0  0  3  0  0  0  0  0  0
  -23.8680  -29.7450   20.0730 C   0  0  0  0  0  2  0  0  0  0  0  0
  -24.8600  -30.9960   22.0260 N   0  0  0  0  0  0  0  0  0  0  0  0
  -23.6510  -32.0760   23.6270 O   0  0  0  0  0  0  0  0  0  0  0  0
  -22.9250  -29.3840   22.3930 C   0  0  0  0  0  0  0  0  0  0  0  0
  -21.5960  -29.2170   22.2640 N   0  0  0  0  0  0  0  0  0  0  0  0
  -23.5950  -28.7420   23.2070 O   0  0  0  0  0  0  0  0  0  0  0  0
  -21.1120  -29.7830   21.5830 H   0  0  0  0  0  0  0  0  0  0  0  0
  -18.2070  -28.0380   22.7740 C   0  0  0  0  0  0  0  0  0  0  0  0
  -20.7720  -28.2690   23.0200 C   0  0  0  0  0  3  0  0  0  0  0  0
  -20.8540  -26.8520   22.4060 C   0  0  0  0  0  2  0  0  0  0  0  0
  -19.7380  -26.5670   21.3950 C   0  0  0  0  0  2  0  0  0  0  0  0
  -18.3660  -26.7060   22.0580 C   0  0  0  0  0  2  0  0  0  0  0  0
  -19.3380  -28.7790   23.2110 C   0  0  0  0  0  0  0  0  0  0  0  0
  -19.1360  -30.0240   23.8440 C   0  0  0  0  0  3  0  0  0  0  0  0
  -17.8370  -30.5300   24.0410 C   0  0  0  0  0  3  0  0  0  0  0  0
  -16.7220  -29.7860   23.6190 C   0  0  0  0  0  3  0  0  0  0  0  0
  -16.9080  -28.5410   22.9920 C   0  0  0  0  0  3  0  0  0  0  0  0
  -26.0070  -32.4660   23.7730 C   0  0  0  0  0  3  0  0  0  0  0  0
  -26.5120  -31.6950   25.0540 C   0  0  1  0  0  0  0  0  0  0  0  0
  -25.4010  -31.4250   26.0960 C   0  0  0  0  0  1  0  0  0  0  0  0
  -27.1340  -30.3320   24.6700 C   0  0  0  0  0  1  0  0  0  0  0  0
  -27.6270  -32.5080   25.7500 C   0  0  0  0  0  1  0  0  0  0  0  0
  -25.6600  -33.8540   24.1180 N   0  0  0  0  0  0  0  0  0  0  0  0
  -25.9780  -34.9290   23.3830 C   0  0  0  0  0  0  0  0  0  0  0  0
  -26.6620  -34.8580   22.3580 O   0  0  0  0  0  0  0  0  0  0  0  0
  -25.0510  -33.9820   24.9140 H   0  0  0  0  0  0  0  0  0  0  0  0
  -24.2260  -36.7030   23.0340 C   0  0  0  0  0  1  0  0  0  0  0  0
  -25.4590  -36.3000   23.8600 C   0  0  0  0  0  3  0  0  0  0  0  0
  -27.5520  -37.2150   24.7610 C   0  0  0  0  0  1  0  0  0  0  0  0
  -26.4740  -37.3720   23.7880 N   0  0  0  0  0  0  0  0  0  0  0  0
  -26.0470  -38.2820   23.9350 H   0  0  0  0  0  0  0  0  0  0  0  0
  1  3  1  0
  2  5  1  0
  2  1  2  0
  3  6  2  0
  3 13  1  0
  4 53  1  0
  4  6  1  0
  5  4  2  0
 10  7  1  6
  9 10  1  0
 10  8  1  0
 10  2  1  0
 13 11  1  1
 13 12  1  0
 14 23  1  0
 14 13  1  0
 15 23  1  0
 16 21  1  0
 17 18  1  0
 17 16  1  0
 19 18  1  0
 19 28  1  0
 19 20  1  0
 21 15  1  0
 21 20  1  0
 22 15  2  0
 23 24  1  0
 25 26  2  0
 26 45  1  0
 27 26  1  0
 27 30  1  0
 28 29  1  0
 28 25  1  0
 29 27  2  0
 30 31  1  0
 31 32  2  0
 33 36  1  0
 33 32  1  0
 34 33  2  0
 35 34  1  0
 35 30  2  0
 36 37  1  0
 37 42  2  0
 37 38  1  0
 38 39  2  0
 39 40  1  0
 40 44  1  0
 41 40  2  0
 42 41  1  0
 43 42  1  0
 45 46  1  0
 46 49  1  0
 46 48  1  0
 47 45  2  0
 50 25  1  0
 50 51  1  0
 52 50  1  0
 54 53  1  0
 55 66  2  0
 56 54  1  0
 56 61  1  0
 57 65  1  0
 57 67  1  0
 58 64  1  0
 58 60  1  0
 59 65  1  0
 60 61  2  0
 60 59  1  0
 62 56  2  0
 63 62  1  0
 63 58  2  0
 64 57  1  0
 65 55  1  0
 67 69  2  0
 68 67  1  0
 70 68  1  0
 71 80  2  0
 71 76  1  0
 72 68  1  0
 72 76  1  0
 73 72  1  0
 74 75  1  0
 74 73  1  0
 75 71  1  0
 76 77  2  0
 77 78  1  0
 79 78  2  0
 80 79  1  0
 81 55  1  0
 81 86  1  0
 81 82  1  0
 82 85  1  1
 82 83  1  0
 84 82  1  0
 86 89  1  0
 87 91  1  0
 87 86  1  0
 88 87  2  0
 91 90  1  0
 93 91  1  0
 93 94  1  0
 93 92  1  0
M  ISO  4  15 100  23 100  53 101  54 101
M  END
>  <TORSDO>  (73) 
F 20

>  <SCORE>  (73) 
-13.024

>  <name>  (73) 
73

>  <ligand_id>  (73) 
73

>  <original_smiles>  (73) 
[H]c1c(C(C([H])([H])[H])(C([H])([H])[H])C([H])([H])[H])nc(C([H])([H])Oc2c([H])c([H])c3c(c2[H])C([H])([H])N(C(=O)C([H])(N([H])C(=O)C([H])(N([H])C([H])([H])[H])C([H])([H])[H])C(C([H])([H])[H])(C([H])([H])[H])C([H])([H])[H])C([H])(C(=O)N([H])C2([H])c4c([H])c([H])c([H])c([H])c4C([H])([H])C([H])([H])C2([H])[H])C3([H])[H])nc1C(C([H])([H])[H])(C([H])([H])[H])C([H])([H])N([H])C(=O)N1C([H])([H])C([H])([H])C([H])([H])C([H])(n2nc(-c3c([H])c([H])c(Oc4c([H])c([H])c(F)c([H])c4F)c([H])c3[H])c(C(=O)N([H])[H])c2N([H])[H])C1([H])[H]

>  <smiles>  (73) 
[H]c1c(C(C([H])([H])[H])(C([H])([H])[H])C([H])([H])[H])nc(C([H])([H])Oc2c([H])c([H])c3c(c2[H])C([H])([H])N(C(=O)C([H])(N([H])C(=O)C([H])(N([H])C([H])([H])[H])C([H])([H])[H])C(C([H])([H])[H])(C([H])([H])[H])C([H])([H])[H])C([H])(C(=O)N([H])C2([H])c4c([H])c([H])c([H])c([H])c4C([H])([H])C([H])([H])C2([H])[H])C3([H])[H])nc1C(C([H])([H])[H])(C([H])([H])[H])C([H])([H])N([H])C(=O)N1C([H])([H])C([H])([H])C([H])([H])C([H])(n2nc(-c3c([H])c([H])c(Oc4c([H])c([H])c(F)c([H])c4F)c([H])c3[H])c(C(=O)N([H])[H])c2N([H])[H])C1([H])[H]

$$$$
74:0:0
     RDKit          3D

 95103  0  0  1  0  0  0  0  0999 V2000
  -28.8320  -22.1980   21.4820 C   0  0  0  0  0  3  0  0  0  0  0  0
  -27.7890  -22.8420   20.7970 C   0  0  0  0  0  3  0  0  0  0  0  0
  -30.0790  -22.0160   20.8470 C   0  0  0  0  0  0  0  0  0  0  0  0
  -28.0160  -23.2970   19.4910 C   0  0  0  0  0  0  0  0  0  0  0  0
  -30.2260  -22.5210   19.5280 C   0  0  0  0  0  0  0  0  0  0  0  0
  -29.2120  -23.1490   18.8760 N   0  0  0  0  0  0  0  0  0  0  0  0
  -31.1820  -21.3050   21.6340 C   0  0  1  0  0  0  0  0  0  0  0  0
  -30.6400  -20.4000   22.4490 F   0  0  0  0  0  0  0  0  0  0  0  0
  -32.0670  -20.6580   20.8790 F   0  0  0  0  0  0  0  0  0  0  0  0
  -31.8310  -22.2030   22.3750 F   0  0  0  0  0  0  0  0  0  0  0  0
  -26.8950  -23.9540   18.6940 C   0  0  0  0  0  2  0  0  0  0  0  0
  -26.7030  -25.4530   19.0110 C   0  0  0  0  0  2  0  0  0  0  0  0
  -26.1900  -26.2540   17.8000 C   0  0  0  0  0  2  0  0  0  0  0  0
  -26.4360  -27.6550   17.9420 O   0  0  0  0  0  0  0  0  0  0  0  0
  -25.5590  -31.4680   23.8600 C   0  0  0  0  0  0  0  0  0  0  0  0
  -25.5650  -28.4510   18.6560 C   0  0  0  0  0  0  0  0  0  0  0  0
  -23.5260  -31.1600   22.4830 C   0  0  0  0  0  3  0  0  0  0  0  0
  -23.9020  -30.1750   20.1620 C   0  0  0  0  0  0  0  0  0  0  0  0
  -25.8480  -31.1330   21.4070 C   0  0  0  0  0  2  0  0  0  0  0  0
  -25.2860  -30.1860   20.3660 C   0  0  0  0  0  0  0  0  0  0  0  0
  -26.1180  -29.3340   19.6100 C   0  0  0  0  0  3  0  0  0  0  0  0
  -24.1600  -28.4450   18.4730 C   0  0  0  0  0  3  0  0  0  0  0  0
  -23.3320  -29.3070   19.2160 C   0  0  0  0  0  3  0  0  0  0  0  0
  -23.0820  -31.1310   20.9960 C   0  0  0  0  0  2  0  0  0  0  0  0
  -25.0160  -31.2380   22.6300 N   0  0  0  0  0  0  0  0  0  0  0  0
  -24.8400  -31.6590   24.8490 O   0  0  0  0  0  0  0  0  0  0  0  0
  -22.9020  -29.9500   23.2150 C   0  0  0  0  0  0  0  0  0  0  0  0
  -21.5810  -29.7720   23.0590 N   0  0  0  0  0  0  0  0  0  0  0  0
  -23.6060  -29.1850   23.8800 O   0  0  0  0  0  0  0  0  0  0  0  0
  -21.0750  -30.4550   22.5130 H   0  0  0  0  0  0  0  0  0  0  0  0
  -18.4260  -28.0300   22.7710 C   0  0  0  0  0  0  0  0  0  0  0  0
  -20.7810  -28.6800   23.6150 C   0  0  0  0  0  3  0  0  0  0  0  0
  -21.2460  -27.3130   23.0600 C   0  0  0  0  0  2  0  0  0  0  0  0
  -20.4630  -26.8630   21.8240 C   0  0  0  0  0  2  0  0  0  0  0  0
  -18.9700  -26.7580   22.1440 C   0  0  0  0  0  2  0  0  0  0  0  0
  -19.2800  -28.9400   23.4490 C   0  0  0  0  0  0  0  0  0  0  0  0
  -18.7300  -30.1280   23.9820 C   0  0  0  0  0  3  0  0  0  0  0  0
  -17.3560  -30.4080   23.8530 C   0  0  0  0  0  3  0  0  0  0  0  0
  -16.5120  -29.4940   23.1960 C   0  0  0  0  0  3  0  0  0  0  0  0
  -17.0470  -28.3110   22.6570 C   0  0  0  0  0  3  0  0  0  0  0  0
  -27.1050  -31.5340   24.0740 C   0  0  0  0  0  3  0  0  0  0  0  0
  -27.6740  -30.2980   24.8730 C   0  0  1  0  0  0  0  0  0  0  0  0
  -26.9050  -29.9960   26.1800 C   0  0  0  0  0  1  0  0  0  0  0  0
  -27.6330  -29.0220   24.0000 C   0  0  0  0  0  1  0  0  0  0  0  0
  -29.1590  -30.5400   25.2350 C   0  0  0  0  0  1  0  0  0  0  0  0
  -27.4020  -32.7890   24.7780 N   0  0  0  0  0  0  0  0  0  0  0  0
  -27.9380  -33.8740   24.2050 C   0  0  0  0  0  0  0  0  0  0  0  0
  -28.3060  -33.8950   23.0260 O   0  0  0  0  0  0  0  0  0  0  0  0
  -27.0760  -32.8600   25.7310 H   0  0  0  0  0  0  0  0  0  0  0  0
  -26.9690  -36.1290   24.7500 C   0  0  0  0  0  1  0  0  0  0  0  0
  -28.0940  -35.1340   25.0760 C   0  0  0  0  0  3  0  0  0  0  0  0
  -30.5130  -35.0270   25.4810 C   0  0  0  0  0  1  0  0  0  0  0  0
  -29.4070  -35.7990   24.9230 N   0  0  0  0  0  0  0  0  0  0  0  0
  -29.4010  -36.7120   25.3710 H   0  0  0  0  0  0  0  0  0  0  0  0
  -31.5050  -22.3690   18.7000 C   0  0  0  0  0  2  0  0  0  0  0  0
  -31.7300  -20.9230   18.1970 C   0  0  0  0  0  2  0  0  0  0  0  0
  -33.2060  -20.4320   18.2350 C   0  0  0  0  0  2  0  0  0  0  0  0
  -34.2290  -18.2970   18.8600 C   0  0  0  0  0  0  0  0  0  0  0  0
  -34.4470  -15.9050   19.3860 C   0  0  0  0  0  2  0  0  0  0  0  0
  -33.7900  -15.0920   18.2500 C   0  0  0  0  0  2  0  0  0  0  0  0
  -32.2810  -14.9110   18.5110 C   0  0  0  0  0  2  0  0  0  0  0  0
  -31.5620  -16.2360   18.8850 C   0  0  0  0  0  3  0  0  0  0  0  0
  -32.3580  -17.0180   19.9560 C   0  0  0  0  0  2  0  0  0  0  0  0
  -33.7340  -17.1870   19.4680 N   0  0  0  0  0  0  0  0  0  0  0  0
  -35.4370  -18.4870   18.6900 O   0  0  0  0  0  0  0  0  0  0  0  0
  -33.3900  -18.5890   16.6560 C   0  0  0  0  0  1  0  0  0  0  0  0
  -33.3420  -18.9680   18.0810 N   0  0  0  0  0  0  0  0  0  0  0  0
  -29.1570  -16.9050   19.4990 C   0  0  0  0  0  0  0  0  0  0  0  0
  -28.0480  -16.1620   19.8000 C   0  0  0  0  0  0  0  0  0  0  0  0
  -28.4690  -14.7970   19.7640 C   0  0  0  0  0  0  0  0  0  0  0  0
  -30.1840  -15.9960   19.3000 N   0  0  0  0  0  0  0  0  0  0  0  0
  -29.7710  -14.7210   19.5220 N   0  0  0  0  0  0  0  0  0  0  0  0
  -27.6960  -13.5550   19.8890 C   0  0  0  0  0  0  0  0  0  0  0  0
  -27.7640  -12.7550   21.0520 C   0  0  0  0  0  3  0  0  0  0  0  0
  -26.9990  -11.5730   21.1550 C   0  0  0  0  0  3  0  0  0  0  0  0
  -26.1500  -11.1830   20.0910 C   0  0  0  0  0  0  0  0  0  0  0  0
  -26.1060  -11.9680   18.9260 C   0  0  0  0  0  3  0  0  0  0  0  0
  -26.8730  -13.1410   18.8240 C   0  0  0  0  0  3  0  0  0  0  0  0
  -25.3880  -10.0410   20.0930 O   0  0  0  0  0  0  0  0  0  0  0  0
  -24.5660   -9.7250   21.1450 C   0  0  0  0  0  0  0  0  0  0  0  0
  -23.4600  -10.5290   21.4940 C   0  0  0  0  0  3  0  0  0  0  0  0
  -22.6040  -10.1310   22.5420 C   0  0  0  0  0  3  0  0  0  0  0  0
  -22.8450   -8.9290   23.2310 C   0  0  0  0  0  0  0  0  0  0  0  0
  -23.9440   -8.1240   22.8800 C   0  0  0  0  0  3  0  0  0  0  0  0
  -24.8000   -8.5200   21.8380 C   0  0  0  0  0  0  0  0  0  0  0  0
  -25.8460   -7.7310   21.4910 F   0  0  0  0  0  0  0  0  0  0  0  0
  -22.0190   -8.5410   24.2310 F   0  0  0  0  0  0  0  0  0  0  0  0
  -26.6530  -16.6770   20.0110 C   0  0  0  0  0  0  0  0  0  0  0  0
  -25.8570  -15.9800   20.8130 N   0  0  0  0  0  0  0  0  0  0  0  0
  -26.2760  -17.7300   19.4990 O   0  0  0  0  0  0  0  0  0  0  0  0
  -26.1700  -15.1250   21.2510 H   0  0  0  0  0  0  0  0  0  0  0  0
  -24.9180  -16.3060   20.9940 H   0  0  0  0  0  0  0  0  0  0  0  0
  -29.3770  -18.2730   19.3560 N   0  0  0  0  0  0  0  0  0  0  0  0
  -28.6360  -18.9610   19.4430 H   0  0  0  0  0  0  0  0  0  0  0  0
  -30.2700  -18.6790   19.1120 H   0  0  0  0  0  0  0  0  0  0  0  0
  2  1  2  0
  3  1  1  0
  3  7  1  0
  4  2  1  0
  5  3  2  0
  6  4  2  0
  6  5  1  0
  7 10  1  1
  7  8  1  0
  9  7  1  0
 11 12  1  0
 11  4  1  0
 13 14  1  0
 13 12  1  0
 14 16  1  0
 15 26  2  0
 16 21  1  0
 17 25  1  0
 17 27  1  0
 18 20  1  0
 18 24  1  0
 19 25  1  0
 20 19  1  0
 21 20  2  0
 22 16  2  0
 22 23  1  0
 23 18  2  0
 24 17  1  0
 25 15  1  0
 27 29  2  0
 28 27  1  0
 30 28  1  0
 31 36  1  0
 32 28  1  0
 33 32  1  0
 34 35  1  0
 34 33  1  0
 35 31  1  0
 36 32  1  0
 36 37  2  0
 38 37  1  0
 39 38  2  0
 40 31  2  0
 40 39  1  0
 41 15  1  0
 41 46  1  0
 41 42  1  0
 42 45  1  1
 42 43  1  0
 44 42  1  0
 46 49  1  0
 47 46  1  0
 47 51  1  0
 48 47  2  0
 51 50  1  0
 53 51  1  0
 53 54  1  0
 53 52  1  0
 55  5  1  0
 56 57  1  0
 56 55  1  0
 58 64  1  0
 59 64  1  0
 60 61  1  0
 60 59  1  0
 62 61  1  0
 62 71  1  0
 62 63  1  0
 64 63  1  0
 65 58  2  0
 66 67  1  0
 67 57  1  0
 67 58  1  0
 68 69  2  0
 69 88  1  0
 70 69  1  0
 70 73  1  0
 71 68  1  0
 71 72  1  0
 72 70  2  0
 73 74  1  0
 74 75  2  0
 76 79  1  0
 76 75  1  0
 77 76  2  0
 78 77  1  0
 78 73  2  0
 79 80  1  0
 80 81  2  0
 80 85  1  0
 81 82  1  0
 82 83  2  0
 83 87  1  0
 84 83  1  0
 85 84  2  0
 86 85  1  0
 88 89  1  0
 89 92  1  0
 89 91  1  0
 90 88  2  0
 93 94  1  0
 93 68  1  0
 95 93  1  0
M  ISO  4  13 101  14 101  58 100  67 100
M  END
>  <TORSDO>  (74) 
F 23

>  <SCORE>  (74) 
-6.495

>  <name>  (74) 
74

>  <ligand_id>  (74) 
74

>  <original_smiles>  (74) 
[H]c1c(C([H])([H])C([H])([H])C([H])([H])Oc2c([H])c([H])c3c(c2[H])C([H])([H])N(C(=O)C([H])(N([H])C(=O)C([H])(N([H])C([H])([H])[H])C([H])([H])[H])C(C([H])([H])[H])(C([H])([H])[H])C([H])([H])[H])C([H])(C(=O)N([H])C2([H])c4c([H])c([H])c([H])c([H])c4C([H])([H])C([H])([H])C2([H])[H])C3([H])[H])nc(C([H])([H])C([H])([H])C([H])([H])N(C(=O)N2C([H])([H])C([H])([H])C([H])([H])C([H])(n3nc(-c4c([H])c([H])c(Oc5c([H])c([H])c(F)c([H])c5F)c([H])c4[H])c(C(=O)N([H])[H])c3N([H])[H])C2([H])[H])C([H])([H])[H])c(C(F)(F)F)c1[H]

>  <smiles>  (74) 
[H]c1c(C([H])([H])C([H])([H])C([H])([H])Oc2c([H])c([H])c3c(c2[H])C([H])([H])N(C(=O)C([H])(N([H])C(=O)C([H])(N([H])C([H])([H])[H])C([H])([H])[H])C(C([H])([H])[H])(C([H])([H])[H])C([H])([H])[H])C([H])(C(=O)N([H])C2([H])c4c([H])c([H])c([H])c([H])c4C([H])([H])C([H])([H])C2([H])[H])C3([H])[H])nc(C([H])([H])C([H])([H])C([H])([H])N(C(=O)N2C([H])([H])C([H])([H])C([H])([H])C([H])(n3nc(-c4c([H])c([H])c(Oc5c([H])c([H])c(F)c([H])c5F)c([H])c4[H])c(C(=O)N([H])[H])c3N([H])[H])C2([H])[H])C([H])([H])[H])c(C(F)(F)F)c1[H]

$$$$
75:0:0
     RDKit          3D

 94102  0  0  1  0  0  0  0  0999 V2000
  -29.3250  -17.1090   22.3830 C   0  0  0  0  0  3  0  0  0  0  0  0
  -30.4520  -16.6400   21.6760 C   0  0  0  0  0  0  0  0  0  0  0  0
  -28.7960  -18.5140   20.6290 C   0  0  0  0  0  0  0  0  0  0  0  0
  -29.9940  -18.1230   19.9610 C   0  0  0  0  0  0  0  0  0  0  0  0
  -27.7600  -19.4510   20.0210 C   0  0  0  0  0  1  0  0  0  0  0  0
  -28.4860  -18.0350   21.8600 N   0  0  0  0  0  0  0  0  0  0  0  0
  -30.8140  -17.1860   20.4890 N   0  0  0  0  0  0  0  0  0  0  0  0
  -32.7560  -15.8290   22.3410 C   0  0  0  0  0  1  0  0  0  0  0  0
  -31.2800  -15.4450   22.1370 C   0  0  0  0  0  3  0  0  0  0  0  0
  -31.6550  -13.1390   21.1670 C   0  0  0  0  0  0  0  0  0  0  0  0
  -31.1710  -10.7760   20.5940 C   0  0  0  0  0  2  0  0  0  0  0  0
  -30.4600  -10.6880   19.2270 C   0  0  0  0  0  2  0  0  0  0  0  0
  -28.9370  -10.8680   19.3890 C   0  0  0  0  0  2  0  0  0  0  0  0
  -28.5580  -12.0880   20.2800 C   0  0  0  0  0  3  0  0  0  0  0  0
  -29.3950  -12.0940   21.5720 C   0  0  0  0  0  2  0  0  0  0  0  0
  -30.8110  -12.0730   21.1750 N   0  0  0  0  0  0  0  0  0  0  0  0
  -32.8680  -13.0330   20.9820 O   0  0  0  0  0  0  0  0  0  0  0  0
  -31.0650  -14.3430   21.1830 N   0  0  0  0  0  0  0  0  0  0  0  0
  -30.2690  -14.4710   20.5570 H   0  0  0  0  0  0  0  0  0  0  0  0
  -26.2730  -13.2190   20.5940 C   0  0  0  0  0  0  0  0  0  0  0  0
  -25.0120  -12.7060   20.7890 C   0  0  0  0  0  0  0  0  0  0  0  0
  -25.1700  -11.2910   20.8340 C   0  0  0  0  0  0  0  0  0  0  0  0
  -27.1220  -12.1270   20.5470 N   0  0  0  0  0  0  0  0  0  0  0  0
  -26.4520  -10.9630   20.7400 N   0  0  0  0  0  0  0  0  0  0  0  0
  -24.1650  -10.2220   20.9120 C   0  0  0  0  0  0  0  0  0  0  0  0
  -24.2650   -9.1890   21.8700 C   0  0  0  0  0  3  0  0  0  0  0  0
  -23.2800   -8.1810   21.9420 C   0  0  0  0  0  3  0  0  0  0  0  0
  -22.1800   -8.1980   21.0530 C   0  0  0  0  0  0  0  0  0  0  0  0
  -22.0930   -9.2190   20.0890 C   0  0  0  0  0  3  0  0  0  0  0  0
  -23.0770  -10.2200   20.0150 C   0  0  0  0  0  3  0  0  0  0  0  0
  -21.1900   -7.2450   21.0310 O   0  0  0  0  0  0  0  0  0  0  0  0
  -20.8380   -6.5390   22.1550 C   0  0  0  0  0  0  0  0  0  0  0  0
  -20.4200   -7.1870   23.3370 C   0  0  0  0  0  3  0  0  0  0  0  0
  -20.0010   -6.4250   24.4470 C   0  0  0  0  0  3  0  0  0  0  0  0
  -19.9890   -5.0200   24.3750 C   0  0  0  0  0  0  0  0  0  0  0  0
  -20.4040   -4.3740   23.1970 C   0  0  0  0  0  3  0  0  0  0  0  0
  -20.8240   -5.1310   22.0890 C   0  0  0  0  0  0  0  0  0  0  0  0
  -21.1990   -4.5010   20.9500 F   0  0  0  0  0  0  0  0  0  0  0  0
  -19.5830   -4.2900   25.4390 F   0  0  0  0  0  0  0  0  0  0  0  0
  -23.7310  -13.4870   20.8270 C   0  0  0  0  0  0  0  0  0  0  0  0
  -22.7450  -13.0090   21.5860 N   0  0  0  0  0  0  0  0  0  0  0  0
  -23.6070  -14.5450   20.2170 O   0  0  0  0  0  0  0  0  0  0  0  0
  -22.8480  -12.1520   22.1070 H   0  0  0  0  0  0  0  0  0  0  0  0
  -21.8700  -13.5140   21.6420 H   0  0  0  0  0  0  0  0  0  0  0  0
  -26.7610  -14.5110   20.4390 N   0  0  0  0  0  0  0  0  0  0  0  0
  -26.1530  -15.3200   20.3960 H   0  0  0  0  0  0  0  0  0  0  0  0
  -27.7410  -14.7400   20.3070 H   0  0  0  0  0  0  0  0  0  0  0  0
  -30.4870  -18.6890   18.6240 C   0  0  0  0  0  2  0  0  0  0  0  0
  -30.3180  -20.2300   18.4870 C   0  0  0  0  0  2  0  0  0  0  0  0
  -31.6300  -21.0200   18.1960 C   0  0  0  0  0  2  0  0  0  0  0  0
  -31.9430  -22.0840   19.2870 C   0  0  0  0  0  2  0  0  0  0  0  0
  -32.0390  -23.5520   18.8480 C   0  0  0  0  0  2  0  0  0  0  0  0
  -31.7470  -24.4510   20.0890 C   0  0  0  0  0  2  0  0  0  0  0  0
  -31.7530  -25.8510   19.8240 O   0  0  0  0  0  0  0  0  0  0  0  0
  -27.1790  -29.0920   24.2160 C   0  0  0  0  0  0  0  0  0  0  0  0
  -30.5290  -26.4470   19.9840 C   0  0  0  0  0  0  0  0  0  0  0  0
  -26.2770  -28.4100   22.0140 C   0  0  0  0  0  3  0  0  0  0  0  0
  -28.0110  -27.6530   20.3130 C   0  0  0  0  0  0  0  0  0  0  0  0
  -28.7700  -28.9460   22.3100 C   0  0  0  0  0  2  0  0  0  0  0  0
  -29.0510  -27.9550   21.2040 C   0  0  0  0  0  0  0  0  0  0  0  0
  -30.3150  -27.3500   21.0480 C   0  0  0  0  0  3  0  0  0  0  0  0
  -29.4770  -26.1740   19.0850 C   0  0  0  0  0  3  0  0  0  0  0  0
  -28.2120  -26.7550   19.2540 C   0  0  0  0  0  3  0  0  0  0  0  0
  -26.6980  -28.3680   20.5250 C   0  0  0  0  0  2  0  0  0  0  0  0
  -27.4180  -28.8060   22.9070 N   0  0  0  0  0  0  0  0  0  0  0  0
  -26.0240  -29.0580   24.6700 O   0  0  0  0  0  0  0  0  0  0  0  0
  -25.6560  -27.0430   22.3920 C   0  0  0  0  0  0  0  0  0  0  0  0
  -24.4060  -26.8290   21.9620 N   0  0  0  0  0  0  0  0  0  0  0  0
  -26.2980  -26.2090   23.0410 O   0  0  0  0  0  0  0  0  0  0  0  0
  -23.9420  -27.5730   21.4590 H   0  0  0  0  0  0  0  0  0  0  0  0
  -21.1990  -25.2780   21.3500 C   0  0  0  0  0  0  0  0  0  0  0  0
  -23.6210  -25.6200   22.1940 C   0  0  0  0  0  3  0  0  0  0  0  0
  -24.0120  -24.5090   21.1960 C   0  0  0  0  0  2  0  0  0  0  0  0
  -23.1440  -24.4940   19.9360 C   0  0  0  0  0  2  0  0  0  0  0  0
  -21.6710  -24.2780   20.3040 C   0  0  0  0  0  2  0  0  0  0  0  0
  -22.1170  -25.9170   22.2270 C   0  0  0  0  0  0  0  0  0  0  0  0
  -21.6270  -26.8530   23.1700 C   0  0  0  0  0  3  0  0  0  0  0  0
  -20.2470  -27.1360   23.2480 C   0  0  0  0  0  3  0  0  0  0  0  0
  -19.3440  -26.5050   22.3720 C   0  0  0  0  0  3  0  0  0  0  0  0
  -19.8220  -25.5700   21.4350 C   0  0  0  0  0  3  0  0  0  0  0  0
  -28.3320  -29.4920   25.1910 C   0  0  0  0  0  3  0  0  0  0  0  0
  -27.8680  -30.6390   25.9780 N   0  0  0  0  0  0  0  0  0  0  0  0
  -28.2260  -31.9130   25.7520 C   0  0  0  0  0  0  0  0  0  0  0  0
  -29.0600  -32.2330   24.9010 O   0  0  0  0  0  0  0  0  0  0  0  0
  -27.1510  -30.4510   26.6620 H   0  0  0  0  0  0  0  0  0  0  0  0
  -26.4520  -33.6900   25.8050 C   0  0  0  0  0  1  0  0  0  0  0  0
  -27.5590  -32.9980   26.6160 C   0  0  0  0  0  3  0  0  0  0  0  0
  -29.4330  -33.4740   28.1250 C   0  0  0  0  0  1  0  0  0  0  0  0
  -28.5080  -34.0080   27.1280 N   0  0  0  0  0  0  0  0  0  0  0  0
  -28.0150  -34.7930   27.5420 H   0  0  0  0  0  0  0  0  0  0  0  0
  -28.7930  -28.3080   26.1290 C   0  0  1  0  0  0  0  0  0  0  0  0
  -27.6210  -27.6280   26.8730 C   0  0  0  0  0  1  0  0  0  0  0  0
  -29.5380  -27.2220   25.3180 C   0  0  0  0  0  1  0  0  0  0  0  0
  -29.7960  -28.8380   27.1820 C   0  0  0  0  0  1  0  0  0  0  0  0
  2  9  1  0
  2  1  2  0
  3  6  2  0
  4  7  2  0
  4  3  1  0
  5  3  1  0
  6  1  1  0
  7  2  1  0
  9  8  1  0
 10 16  1  0
 10 18  1  0
 11 16  1  0
 12 13  1  0
 12 11  1  0
 14 13  1  0
 14 23  1  0
 14 15  1  0
 16 15  1  0
 17 10  2  0
 18  9  1  0
 19 18  1  0
 20 21  2  0
 21 40  1  0
 21 22  1  0
 22 25  1  0
 23 20  1  0
 23 24  1  0
 24 22  2  0
 25 26  1  0
 26 27  2  0
 28 27  1  0
 29 28  2  0
 30 29  1  0
 30 25  2  0
 31 28  1  0
 31 32  1  0
 32 33  1  0
 33 34  2  0
 35 34  1  0
 35 39  1  0
 36 35  2  0
 37 32  2  0
 37 36  1  0
 38 37  1  0
 40 41  1  0
 41 44  1  0
 41 43  1  0
 42 40  2  0
 45 20  1  0
 46 45  1  0
 47 45  1  0
 48  4  1  0
 49 48  1  0
 50 49  1  0
 50 51  1  0
 52 51  1  0
 52 53  1  0
 54 56  1  0
 54 53  1  0
 55 66  2  0
 56 61  1  0
 57 67  1  0
 57 65  1  0
 58 64  1  0
 58 60  1  0
 59 65  1  0
 60 59  1  0
 61 60  2  0
 62 63  1  0
 62 56  2  0
 63 58  2  0
 64 57  1  0
 65 55  1  0
 67 69  2  0
 68 67  1  0
 70 68  1  0
 71 80  2  0
 71 76  1  0
 72 68  1  0
 72 76  1  0
 73 72  1  0
 74 75  1  0
 74 73  1  0
 75 71  1  0
 76 77  2  0
 77 78  1  0
 79 78  2  0
 80 79  1  0
 81 55  1  0
 81 82  1  0
 81 91  1  0
 82 85  1  0
 83 82  1  0
 83 87  1  0
 84 83  2  0
 87 86  1  0
 87 89  1  0
 89 90  1  0
 89 88  1  0
 91 92  1  1
 91 94  1  0
 93 91  1  0
M  ISO  4  10 100  18 100  53 101  54 101
M  END
>  <TORSDO>  (75) 
F 23

>  <SCORE>  (75) 
-1.065

>  <name>  (75) 
75

>  <ligand_id>  (75) 
75

>  <original_smiles>  (75) 
[H]c1nc(C([H])([H])[H])c(C([H])([H])C([H])([H])C([H])([H])C([H])([H])C([H])([H])C([H])([H])Oc2c([H])c([H])c3c(c2[H])C([H])([H])N(C(=O)C([H])(N([H])C(=O)C([H])(N([H])C([H])([H])[H])C([H])([H])[H])C(C([H])([H])[H])(C([H])([H])[H])C([H])([H])[H])C([H])(C(=O)N([H])C2([H])c4c([H])c([H])c([H])c([H])c4C([H])([H])C([H])([H])C2([H])[H])C3([H])[H])nc1C([H])(N([H])C(=O)N1C([H])([H])C([H])([H])C([H])([H])C([H])(n2nc(-c3c([H])c([H])c(Oc4c([H])c([H])c(F)c([H])c4F)c([H])c3[H])c(C(=O)N([H])[H])c2N([H])[H])C1([H])[H])C([H])([H])[H]

>  <smiles>  (75) 
[H]c1nc(C([H])([H])[H])c(C([H])([H])C([H])([H])C([H])([H])C([H])([H])C([H])([H])C([H])([H])Oc2c([H])c([H])c3c(c2[H])C([H])([H])N(C(=O)C([H])(N([H])C(=O)C([H])(N([H])C([H])([H])[H])C([H])([H])[H])C(C([H])([H])[H])(C([H])([H])[H])C([H])([H])[H])C([H])(C(=O)N([H])C2([H])c4c([H])c([H])c([H])c([H])c4C([H])([H])C([H])([H])C2([H])[H])C3([H])[H])nc1C([H])(N([H])C(=O)N1C([H])([H])C([H])([H])C([H])([H])C([H])(n2nc(-c3c([H])c([H])c(Oc4c([H])c([H])c(F)c([H])c4F)c([H])c3[H])c(C(=O)N([H])[H])c2N([H])[H])C1([H])[H])C([H])([H])[H]

$$$$
76:0:0
     RDKit          3D

 95103  0  0  1  0  0  0  0  0999 V2000
  -28.3310  -19.7990   19.8980 C   0  0  0  0  0  3  0  0  0  0  0  0
  -29.4050  -20.2800   20.5880 C   0  0  0  0  0  0  0  0  0  0  0  0
  -29.3220  -18.0180   20.8290 C   0  0  0  0  0  3  0  0  0  0  0  0
  -28.2620  -18.4450   20.0960 N   0  0  0  0  0  0  0  0  0  0  0  0
  -30.0040  -19.1500   21.1270 N   0  0  0  0  0  0  0  0  0  0  0  0
  -30.8430  -19.1590   21.6960 H   0  0  0  0  0  0  0  0  0  0  0  0
  -26.9450  -17.7690   18.0960 C   0  0  0  0  0  1  0  0  0  0  0  0
  -25.8400  -18.0180   20.3520 C   0  0  0  0  0  1  0  0  0  0  0  0
  -27.1360  -17.6280   19.6230 C   0  0  0  0  0  3  0  0  0  0  0  0
  -30.8530  -16.5990   22.2900 C   0  0  0  0  0  1  0  0  0  0  0  0
  -29.6770  -16.5740   21.2890 C   0  0  0  0  0  3  0  0  0  0  0  0
  -30.6780  -14.4610   20.1950 C   0  0  0  0  0  0  0  0  0  0  0  0
  -30.5000  -12.1910   19.2140 C   0  0  0  0  0  2  0  0  0  0  0  0
  -29.5200  -12.2150   18.0240 C   0  0  0  0  0  2  0  0  0  0  0  0
  -28.0610  -12.0570   18.4970 C   0  0  0  0  0  2  0  0  0  0  0  0
  -27.7090  -12.9450   19.7180 C   0  0  0  0  0  3  0  0  0  0  0  0
  -28.8030  -12.8910   20.8050 C   0  0  0  0  0  2  0  0  0  0  0  0
  -30.0750  -13.2350   20.1650 N   0  0  0  0  0  0  0  0  0  0  0  0
  -31.8570  -14.5990   19.8530 O   0  0  0  0  0  0  0  0  0  0  0  0
  -29.4410  -16.0380   18.8450 C   0  0  0  0  0  1  0  0  0  0  0  0
  -29.8340  -15.5530   20.1820 N   0  0  0  0  0  0  0  0  0  0  0  0
  -25.3350  -13.4890   20.5240 C   0  0  0  0  0  0  0  0  0  0  0  0
  -24.2960  -12.7090   20.9330 C   0  0  0  0  0  0  0  0  0  0  0  0
  -24.7720  -11.3670   20.8600 C   0  0  0  0  0  0  0  0  0  0  0  0
  -26.3870  -12.6330   20.2500 N   0  0  0  0  0  0  0  0  0  0  0  0
  -26.0530  -11.3450   20.5080 N   0  0  0  0  0  0  0  0  0  0  0  0
  -24.0640  -10.1020   21.0500 C   0  0  0  0  0  0  0  0  0  0  0  0
  -24.4810   -9.1680   22.0200 C   0  0  0  0  0  3  0  0  0  0  0  0
  -23.7730   -7.9620   22.1960 C   0  0  0  0  0  3  0  0  0  0  0  0
  -22.6360   -7.6830   21.4010 C   0  0  0  0  0  0  0  0  0  0  0  0
  -22.2400   -8.6080   20.4200 C   0  0  0  0  0  3  0  0  0  0  0  0
  -22.9490   -9.8070   20.2410 C   0  0  0  0  0  3  0  0  0  0  0  0
  -21.9050   -6.5240   21.4830 O   0  0  0  0  0  0  0  0  0  0  0  0
  -21.7580   -5.8480   22.6680 C   0  0  0  0  0  0  0  0  0  0  0  0
  -21.1740   -6.4530   23.8020 C   0  0  0  0  0  3  0  0  0  0  0  0
  -20.9800   -5.7030   24.9780 C   0  0  0  0  0  3  0  0  0  0  0  0
  -21.3600   -4.3480   25.0200 C   0  0  0  0  0  0  0  0  0  0  0  0
  -21.9390   -3.7430   23.8900 C   0  0  0  0  0  3  0  0  0  0  0  0
  -22.1340   -4.4910   22.7160 C   0  0  0  0  0  0  0  0  0  0  0  0
  -22.6700   -3.8990   21.6220 F   0  0  0  0  0  0  0  0  0  0  0  0
  -21.1660   -3.6240   26.1470 F   0  0  0  0  0  0  0  0  0  0  0  0
  -22.9080  -13.1760   21.2640 C   0  0  0  0  0  0  0  0  0  0  0  0
  -22.2220  -12.4710   22.1570 N   0  0  0  0  0  0  0  0  0  0  0  0
  -22.4390  -14.2010   20.7690 O   0  0  0  0  0  0  0  0  0  0  0  0
  -22.6130  -11.6460   22.5870 H   0  0  0  0  0  0  0  0  0  0  0  0
  -21.2930  -12.7660   22.4180 H   0  0  0  0  0  0  0  0  0  0  0  0
  -25.4620  -14.8500   20.3340 N   0  0  0  0  0  0  0  0  0  0  0  0
  -24.6540  -15.4560   20.4110 H   0  0  0  0  0  0  0  0  0  0  0  0
  -26.2420  -15.2800   19.8620 H   0  0  0  0  0  0  0  0  0  0  0  0
  -29.8870  -21.7190   20.7120 C   0  0  0  0  0  2  0  0  0  0  0  0
  -27.4920  -22.2380   21.7100 C   0  0  0  0  0  1  0  0  0  0  0  0
  -28.8780  -22.7880   21.2970 C   0  0  0  0  0  3  0  0  0  0  0  0
  -28.7490  -24.0860   20.4190 C   0  0  0  0  0  2  0  0  0  0  0  0
  -28.0610  -25.3030   21.1120 C   0  0  0  0  0  2  0  0  0  0  0  0
  -28.1480  -26.5420   20.3780 O   0  0  0  0  0  0  0  0  0  0  0  0
  -24.5270  -31.9930   23.2710 C   0  0  0  0  0  0  0  0  0  0  0  0
  -27.0110  -27.3250   20.3790 C   0  0  0  0  0  0  0  0  0  0  0  0
  -23.2740  -30.5740   21.6790 C   0  0  0  0  0  3  0  0  0  0  0  0
  -24.6730  -28.9220   20.3240 C   0  0  0  0  0  0  0  0  0  0  0  0
  -25.8110  -30.8280   21.4750 C   0  0  0  0  0  2  0  0  0  0  0  0
  -25.8490  -29.4260   20.8940 C   0  0  0  0  0  0  0  0  0  0  0  0
  -27.0230  -28.6360   20.9150 C   0  0  0  0  0  3  0  0  0  0  0  0
  -25.8180  -26.8320   19.8090 C   0  0  0  0  0  3  0  0  0  0  0  0
  -24.6530  -27.6240   19.7800 C   0  0  0  0  0  3  0  0  0  0  0  0
  -23.4630  -29.8320   20.3280 C   0  0  0  0  0  2  0  0  0  0  0  0
  -24.5570  -31.1480   22.2020 N   0  0  0  0  0  0  0  0  0  0  0  0
  -23.4550  -32.3250   23.7950 O   0  0  0  0  0  0  0  0  0  0  0  0
  -22.5820  -29.6190   22.6770 C   0  0  0  0  0  0  0  0  0  0  0  0
  -21.2520  -29.4730   22.5440 N   0  0  0  0  0  0  0  0  0  0  0  0
  -23.2380  -29.0100   23.5260 O   0  0  0  0  0  0  0  0  0  0  0  0
  -20.7870  -30.0200   21.8340 H   0  0  0  0  0  0  0  0  0  0  0  0
  -17.8360  -28.4180   23.0660 C   0  0  0  0  0  0  0  0  0  0  0  0
  -20.4000  -28.5940   23.3430 C   0  0  0  0  0  3  0  0  0  0  0  0
  -20.4520  -27.1390   22.8210 C   0  0  0  0  0  2  0  0  0  0  0  0
  -19.3440  -26.8180   21.8130 C   0  0  0  0  0  2  0  0  0  0  0  0
  -17.9670  -27.0370   22.4430 C   0  0  0  0  0  2  0  0  0  0  0  0
  -18.9790  -29.1540   23.4730 C   0  0  0  0  0  0  0  0  0  0  0  0
  -18.8040  -30.4460   24.0130 C   0  0  0  0  0  3  0  0  0  0  0  0
  -17.5180  -31.0010   24.1540 C   0  0  0  0  0  3  0  0  0  0  0  0
  -16.3890  -30.2630   23.7600 C   0  0  0  0  0  3  0  0  0  0  0  0
  -16.5480  -28.9730   23.2220 C   0  0  0  0  0  3  0  0  0  0  0  0
  -25.8350  -32.6000   23.8710 C   0  0  0  0  0  3  0  0  0  0  0  0
  -25.5540  -33.9980   24.2220 N   0  0  0  0  0  0  0  0  0  0  0  0
  -25.8760  -35.0530   23.4590 C   0  0  0  0  0  0  0  0  0  0  0  0
  -26.5100  -34.9490   22.4060 O   0  0  0  0  0  0  0  0  0  0  0  0
  -24.9880  -34.1560   25.0420 H   0  0  0  0  0  0  0  0  0  0  0  0
  -24.1590  -36.8680   23.1760 C   0  0  0  0  0  1  0  0  0  0  0  0
  -25.4220  -36.4440   23.9410 C   0  0  0  0  0  3  0  0  0  0  0  0
  -27.5910  -37.3020   24.7060 C   0  0  0  0  0  1  0  0  0  0  0  0
  -26.4630  -37.4850   23.7970 N   0  0  0  0  0  0  0  0  0  0  0  0
  -26.0720  -38.4090   23.9600 H   0  0  0  0  0  0  0  0  0  0  0  0
  -26.3660  -31.8060   25.1270 C   0  0  1  0  0  0  0  0  0  0  0  0
  -25.2850  -31.5390   26.2000 C   0  0  0  0  0  1  0  0  0  0  0  0
  -26.9560  -30.4440   24.6970 C   0  0  0  0  0  1  0  0  0  0  0  0
  -27.5190  -32.5930   25.7960 C   0  0  0  0  0  1  0  0  0  0  0  0
  1  4  1  0
  1  2  2  0
  2 50  1  0
  2  5  1  0
  3  5  1  0
  3 11  1  0
  4  3  1  0
  5  6  1  0
  7  9  1  0
  9  4  1  0
  9  8  1  0
 11 10  1  0
 13 18  1  0
 14 15  1  0
 14 13  1  0
 16 15  1  0
 16 25  1  0
 16 17  1  0
 18 12  1  0
 18 17  1  0
 19 12  2  0
 20 21  1  0
 21 12  1  0
 21 11  1  0
 22 23  2  0
 23 42  1  0
 24 23  1  0
 24 27  1  0
 25 26  1  0
 25 22  1  0
 26 24  2  0
 27 28  1  0
 28 29  2  0
 30 33  1  0
 30 29  1  0
 31 30  2  0
 32 31  1  0
 32 27  2  0
 33 34  1  0
 34 39  2  0
 34 35  1  0
 35 36  2  0
 36 37  1  0
 37 41  1  0
 38 37  2  0
 39 38  1  0
 40 39  1  0
 42 43  1  0
 43 46  1  0
 43 45  1  0
 44 42  2  0
 47 48  1  0
 47 22  1  0
 49 47  1  0
 50 52  1  0
 52 51  1  0
 53 54  1  0
 53 52  1  0
 55 57  1  0
 55 54  1  0
 56 67  2  0
 57 62  1  0
 58 66  1  0
 58 68  1  0
 59 65  1  0
 59 61  1  0
 60 66  1  0
 61 62  2  0
 61 60  1  0
 63 57  2  0
 64 63  1  0
 64 59  2  0
 65 58  1  0
 66 56  1  0
 68 70  2  0
 69 68  1  0
 71 69  1  0
 72 81  2  0
 72 77  1  0
 73 69  1  0
 73 77  1  0
 74 73  1  0
 75 76  1  0
 75 74  1  0
 76 72  1  0
 77 78  2  0
 78 79  1  0
 80 79  2  0
 81 80  1  0
 82 56  1  0
 82 83  1  0
 82 92  1  0
 83 86  1  0
 84 88  1  0
 84 83  1  0
 85 84  2  0
 88 87  1  0
 90 88  1  0
 90 91  1  0
 90 89  1  0
 92 95  1  1
 92 93  1  0
 94 92  1  0
M  ISO  4  12 100  21 100  54 101  55 101
M  END
>  <TORSDO>  (76) 
F 22

>  <SCORE>  (76) 
-11.509

>  <name>  (76) 
76

>  <ligand_id>  (76) 
76

>  <original_smiles>  (76) 
[H]c1c([H])c([H])c2c(c1[H])C([H])([H])C([H])([H])C([H])([H])C2([H])N([H])C(=O)C1([H])N(C(=O)C([H])(N([H])C(=O)C([H])(N([H])C([H])([H])[H])C([H])([H])[H])C(C([H])([H])[H])(C([H])([H])[H])C([H])([H])[H])C([H])([H])c2c([H])c(OC([H])([H])C([H])([H])C([H])(C([H])([H])[H])C([H])([H])c3c([H])n(C([H])(C([H])([H])[H])C([H])([H])[H])c(C([H])(N(C(=O)N4C([H])([H])C([H])([H])C([H])([H])C([H])(n5nc(-c6c([H])c([H])c(Oc7c([H])c([H])c(F)c([H])c7F)c([H])c6[H])c(C(=O)N([H])[H])c5N([H])[H])C4([H])[H])C([H])([H])[H])C([H])([H])[H])[n+]3[H])c([H])c([H])c2C1([H])[H]

>  <smiles>  (76) 
[H]c1c([H])c([H])c2c(c1[H])C([H])([H])C([H])([H])C([H])([H])C2([H])N([H])C(=O)C1([H])N(C(=O)C([H])(N([H])C(=O)C([H])(N([H])C([H])([H])[H])C([H])([H])[H])C(C([H])([H])[H])(C([H])([H])[H])C([H])([H])[H])C([H])([H])c2c([H])c(OC([H])([H])C([H])([H])C([H])(C([H])([H])[H])C([H])([H])c3c([H])n(C([H])(C([H])([H])[H])C([H])([H])[H])c(C([H])(N(C(=O)N4C([H])([H])C([H])([H])C([H])([H])C([H])(n5nc(-c6c([H])c([H])c(Oc7c([H])c([H])c(F)c([H])c7F)c([H])c6[H])c(C(=O)N([H])[H])c5N([H])[H])C4([H])[H])C([H])([H])[H])C([H])([H])[H])[n+]3[H])c([H])c([H])c2C1([H])[H]

$$$$
77:0:0
     RDKit          3D

 92100  0  0  1  0  0  0  0  0999 V2000
  -29.1370  -20.1170   21.4230 C   0  0  0  0  0  3  0  0  0  0  0  0
  -29.8430  -19.6790   19.2110 C   0  0  0  0  0  3  0  0  0  0  0  0
  -29.5590  -19.1480   20.4840 C   0  0  0  0  0  0  0  0  0  0  0  0
  -29.3080  -21.8250   19.8870 C   0  0  0  0  0  0  0  0  0  0  0  0
  -28.9960  -21.4340   21.1210 N   0  0  0  0  0  0  0  0  0  0  0  0
  -29.7230  -20.9960   18.9310 N   0  0  0  0  0  0  0  0  0  0  0  0
  -28.2680  -17.1250   21.3500 C   0  0  0  0  0  1  0  0  0  0  0  0
  -29.6460  -17.6370   20.8550 C   0  0  0  0  0  3  0  0  0  0  0  0
  -30.2580  -16.6410   19.7830 C   0  0  0  0  0  2  0  0  0  0  0  0
  -32.7290  -17.1030   19.4030 C   0  0  0  0  0  1  0  0  0  0  0  0
  -32.0730  -15.9020   21.4970 C   0  0  0  0  0  1  0  0  0  0  0  0
  -31.7180  -16.0640   19.9940 C   0  0  1  0  0  0  0  0  0  0  0  0
  -31.9810  -14.6730   19.2570 C   0  0  0  0  0  0  0  0  0  0  0  0
  -31.5740  -12.2670   18.7520 C   0  0  0  0  0  2  0  0  0  0  0  0
  -30.5790  -12.1150   17.5840 C   0  0  0  0  0  2  0  0  0  0  0  0
  -29.1250  -12.1400   18.0890 C   0  0  0  0  0  2  0  0  0  0  0  0
  -28.8600  -13.3050   19.0780 C   0  0  0  0  0  3  0  0  0  0  0  0
  -29.9730  -13.3770   20.1580 C   0  0  0  0  0  2  0  0  0  0  0  0
  -31.2600  -13.5230   19.4670 N   0  0  0  0  0  0  0  0  0  0  0  0
  -32.9430  -14.6350   18.4790 O   0  0  0  0  0  0  0  0  0  0  0  0
  -26.6400  -14.2240   19.9980 C   0  0  0  0  0  0  0  0  0  0  0  0
  -25.5090  -13.6020   20.4640 C   0  0  0  0  0  0  0  0  0  0  0  0
  -25.7690  -12.2020   20.3760 C   0  0  0  0  0  0  0  0  0  0  0  0
  -27.5230  -13.2090   19.6670 N   0  0  0  0  0  0  0  0  0  0  0  0
  -27.0040  -11.9870   19.9390 N   0  0  0  0  0  0  0  0  0  0  0  0
  -24.8940  -11.0470   20.6270 C   0  0  0  0  0  0  0  0  0  0  0  0
  -25.2190  -10.0740   21.5960 C   0  0  0  0  0  3  0  0  0  0  0  0
  -24.3540   -8.9840   21.8330 C   0  0  0  0  0  3  0  0  0  0  0  0
  -23.1470   -8.8610   21.1050 C   0  0  0  0  0  0  0  0  0  0  0  0
  -22.8440   -9.8200   20.1250 C   0  0  0  0  0  3  0  0  0  0  0  0
  -23.7070  -10.9000   19.8830 C   0  0  0  0  0  3  0  0  0  0  0  0
  -22.2610   -7.8200   21.2510 O   0  0  0  0  0  0  0  0  0  0  0  0
  -22.0550   -7.2170   22.4670 C   0  0  0  0  0  0  0  0  0  0  0  0
  -21.6310   -7.9450   23.6010 C   0  0  0  0  0  3  0  0  0  0  0  0
  -21.3630   -7.2710   24.8080 C   0  0  0  0  0  3  0  0  0  0  0  0
  -21.5100   -5.8720   24.8830 C   0  0  0  0  0  0  0  0  0  0  0  0
  -21.9320   -5.1470   23.7550 C   0  0  0  0  0  3  0  0  0  0  0  0
  -22.2020   -5.8190   22.5500 C   0  0  0  0  0  0  0  0  0  0  0  0
  -22.5850   -5.1120   21.4590 F   0  0  0  0  0  0  0  0  0  0  0  0
  -21.2470   -5.2250   26.0430 F   0  0  0  0  0  0  0  0  0  0  0  0
  -24.2280  -14.2650   20.8820 C   0  0  0  0  0  0  0  0  0  0  0  0
  -23.5180  -13.6690   21.8360 N   0  0  0  0  0  0  0  0  0  0  0  0
  -23.8700  -15.3370   20.3980 O   0  0  0  0  0  0  0  0  0  0  0  0
  -23.8190  -12.7980   22.2420 H   0  0  0  0  0  0  0  0  0  0  0  0
  -22.6640  -14.0920   22.1660 H   0  0  0  0  0  0  0  0  0  0  0  0
  -26.9940  -15.5550   19.8220 N   0  0  0  0  0  0  0  0  0  0  0  0
  -26.3830  -16.3320   20.0390 H   0  0  0  0  0  0  0  0  0  0  0  0
  -27.8910  -15.8510   19.4570 H   0  0  0  0  0  0  0  0  0  0  0  0
  -28.9680  -23.2650   19.4230 C   0  0  0  0  0  2  0  0  0  0  0  0
  -29.7320  -24.4990   20.0130 C   0  0  0  0  0  2  0  0  0  0  0  0
  -28.8580  -25.5510   20.7690 C   0  0  0  0  0  2  0  0  0  0  0  0
  -28.9970  -26.9330   20.3080 O   0  0  0  0  0  0  0  0  0  0  0  0
  -24.8130  -31.8140   23.4610 C   0  0  0  0  0  0  0  0  0  0  0  0
  -27.8210  -27.6680   20.2710 C   0  0  0  0  0  0  0  0  0  0  0  0
  -23.7490  -30.4170   21.7180 C   0  0  0  0  0  3  0  0  0  0  0  0
  -25.3470  -29.0540   20.2600 C   0  0  0  0  0  0  0  0  0  0  0  0
  -26.2580  -30.9380   21.6270 C   0  0  0  0  0  2  0  0  0  0  0  0
  -26.4520  -29.6080   20.9180 C   0  0  0  0  0  0  0  0  0  0  0  0
  -27.6910  -28.9170   20.9280 C   0  0  0  0  0  3  0  0  0  0  0  0
  -26.7070  -27.1620   19.5710 C   0  0  0  0  0  3  0  0  0  0  0  0
  -25.4700  -27.8290   19.5860 C   0  0  0  0  0  3  0  0  0  0  0  0
  -24.0430  -29.8170   20.3180 C   0  0  0  0  0  2  0  0  0  0  0  0
  -24.9550  -31.0710   22.3260 N   0  0  0  0  0  0  0  0  0  0  0  0
  -23.7030  -31.9920   23.9850 O   0  0  0  0  0  0  0  0  0  0  0  0
  -23.1410  -29.3130   22.6150 C   0  0  0  0  0  0  0  0  0  0  0  0
  -21.8750  -28.9550   22.3550 N   0  0  0  0  0  0  0  0  0  0  0  0
  -23.8090  -28.7810   23.5040 O   0  0  0  0  0  0  0  0  0  0  0  0
  -21.3860  -29.4360   21.6130 H   0  0  0  0  0  0  0  0  0  0  0  0
  -18.6900  -27.2500   22.4570 C   0  0  0  0  0  0  0  0  0  0  0  0
  -21.1200  -27.9110   23.0420 C   0  0  0  0  0  3  0  0  0  0  0  0
  -21.5180  -26.5090   22.5290 C   0  0  0  0  0  2  0  0  0  0  0  0
  -20.6190  -26.0030   21.3970 C   0  0  0  0  0  2  0  0  0  0  0  0
  -19.1600  -25.9360   21.8520 C   0  0  0  0  0  2  0  0  0  0  0  0
  -19.6130  -28.1840   23.0000 C   0  0  0  0  0  0  0  0  0  0  0  0
  -19.1230  -29.4010   23.5220 C   0  0  0  0  0  3  0  0  0  0  0  0
  -17.7450  -29.6910   23.5050 C   0  0  0  0  0  3  0  0  0  0  0  0
  -16.8370  -28.7560   22.9810 C   0  0  0  0  0  3  0  0  0  0  0  0
  -17.3090  -27.5380   22.4620 C   0  0  0  0  0  3  0  0  0  0  0  0
  -26.0390  -32.5000   24.1450 C   0  0  0  0  0  3  0  0  0  0  0  0
  -25.6530  -33.8810   24.4680 N   0  0  0  0  0  0  0  0  0  0  0  0
  -25.9810  -34.9560   23.7370 C   0  0  0  0  0  0  0  0  0  0  0  0
  -26.7090  -34.8890   22.7410 O   0  0  0  0  0  0  0  0  0  0  0  0
  -25.0150  -34.0040   25.2420 H   0  0  0  0  0  0  0  0  0  0  0  0
  -24.2010  -36.6750   23.2940 C   0  0  0  0  0  1  0  0  0  0  0  0
  -25.4080  -36.3170   24.1770 C   0  0  0  0  0  3  0  0  0  0  0  0
  -27.4540  -37.2760   25.1350 C   0  0  0  0  0  1  0  0  0  0  0  0
  -26.3990  -37.4150   24.1330 N   0  0  0  0  0  0  0  0  0  0  0  0
  -25.9450  -38.3140   24.2730 H   0  0  0  0  0  0  0  0  0  0  0  0
  -26.5370  -31.7450   25.4390 C   0  0  1  0  0  0  0  0  0  0  0  0
  -25.4040  -31.3940   26.4300 C   0  0  0  0  0  1  0  0  0  0  0  0
  -27.2570  -30.4290   25.0670 C   0  0  0  0  0  1  0  0  0  0  0  0
  -27.5720  -32.6180   26.1870 C   0  0  0  0  0  1  0  0  0  0  0  0
  2  3  1  0
  3  8  1  0
  3  1  2  0
  4  5  2  0
  5  1  1  0
  6  2  2  0
  6  4  1  0
  8  7  1  0
  9 12  1  0
  9  8  1  0
 12 10  1  6
 12 11  1  0
 13 19  1  0
 13 12  1  0
 14 19  1  0
 15 16  1  0
 15 14  1  0
 17 16  1  0
 17 24  1  0
 17 18  1  0
 19 18  1  0
 20 13  2  0
 21 22  2  0
 22 41  1  0
 23 22  1  0
 23 26  1  0
 24 25  1  0
 24 21  1  0
 25 23  2  0
 26 27  1  0
 27 28  2  0
 29 32  1  0
 29 28  1  0
 30 29  2  0
 31 30  1  0
 31 26  2  0
 32 33  1  0
 33 38  2  0
 33 34  1  0
 34 35  2  0
 35 36  1  0
 36 40  1  0
 37 36  2  0
 38 37  1  0
 39 38  1  0
 41 42  1  0
 42 45  1  0
 42 44  1  0
 43 41  2  0
 46 21  1  0
 46 47  1  0
 48 46  1  0
 49  4  1  0
 49 50  1  0
 50 51  1  0
 52 51  1  0
 53 64  2  0
 54 52  1  0
 54 59  1  0
 55 63  1  0
 55 65  1  0
 56 62  1  0
 56 58  1  0
 57 63  1  0
 58 59  2  0
 58 57  1  0
 60 61  1  0
 60 54  2  0
 61 56  2  0
 62 55  1  0
 63 53  1  0
 65 67  2  0
 66 65  1  0
 68 66  1  0
 69 78  2  0
 69 74  1  0
 70 66  1  0
 71 70  1  0
 72 73  1  0
 72 71  1  0
 73 69  1  0
 74 70  1  0
 74 75  2  0
 76 75  1  0
 77 76  2  0
 78 77  1  0
 79 53  1  0
 79 80  1  0
 79 89  1  0
 80 83  1  0
 81 85  1  0
 81 80  1  0
 82 81  2  0
 85 84  1  0
 87 85  1  0
 87 88  1  0
 87 86  1  0
 89 92  1  1
 89 90  1  0
 91 89  1  0
M  ISO  4  12 100  13 100  51 101  52 101
M  END
>  <TORSDO>  (77) 
F 22

>  <SCORE>  (77) 
-9.201

>  <name>  (77) 
77

>  <ligand_id>  (77) 
77

>  <original_smiles>  (77) 
[H]c1nc(C([H])([H])C([H])([H])C([H])([H])Oc2c([H])c([H])c3c(c2[H])C([H])([H])N(C(=O)C([H])(N([H])C(=O)C([H])(N([H])C([H])([H])[H])C([H])([H])[H])C(C([H])([H])[H])(C([H])([H])[H])C([H])([H])[H])C([H])(C(=O)N([H])C2([H])c4c([H])c([H])c([H])c([H])c4C([H])([H])C([H])([H])C2([H])[H])C3([H])[H])nc([H])c1C([H])(C([H])([H])[H])C([H])([H])C(C(=O)N1C([H])([H])C([H])([H])C([H])([H])C([H])(n2nc(-c3c([H])c([H])c(Oc4c([H])c([H])c(F)c([H])c4F)c([H])c3[H])c(C(=O)N([H])[H])c2N([H])[H])C1([H])[H])(C([H])([H])[H])C([H])([H])[H]

>  <smiles>  (77) 
[H]c1nc(C([H])([H])C([H])([H])C([H])([H])Oc2c([H])c([H])c3c(c2[H])C([H])([H])N(C(=O)C([H])(N([H])C(=O)C([H])(N([H])C([H])([H])[H])C([H])([H])[H])C(C([H])([H])[H])(C([H])([H])[H])C([H])([H])[H])C([H])(C(=O)N([H])C2([H])c4c([H])c([H])c([H])c([H])c4C([H])([H])C([H])([H])C2([H])[H])C3([H])[H])nc([H])c1C([H])(C([H])([H])[H])C([H])([H])C(C(=O)N1C([H])([H])C([H])([H])C([H])([H])C([H])(n2nc(-c3c([H])c([H])c(Oc4c([H])c([H])c(F)c([H])c4F)c([H])c3[H])c(C(=O)N([H])[H])c2N([H])[H])C1([H])[H])(C([H])([H])[H])C([H])([H])[H]

$$$$
78:0:0
     RDKit          3D

 97106  0  0  1  0  0  0  0  0999 V2000
  -27.3050  -22.6100   20.5360 C   0  0  0  0  0  0  0  0  0  0  0  0
  -28.6710  -22.9910   20.4130 C   0  0  0  0  0  3  0  0  0  0  0  0
  -27.8070  -20.4510   19.8620 C   0  0  0  0  0  3  0  0  0  0  0  0
  -29.2010  -20.7520   19.8690 C   0  0  0  0  0  0  0  0  0  0  0  0
  -26.8830  -21.3680   20.2210 N   0  0  0  0  0  0  0  0  0  0  0  0
  -29.6170  -22.0460   20.0820 N   0  0  0  0  0  0  0  0  0  0  0  0
  -25.9550  -23.1160   22.5770 C   0  0  0  0  0  1  0  0  0  0  0  0
  -26.2140  -23.4980   21.1150 C   0  0  0  0  0  2  0  0  0  0  0  0
  -26.6130  -19.2180   17.9960 C   0  0  0  0  0  1  0  0  0  0  0  0
  -27.2160  -19.1290   19.4060 C   0  0  0  0  0  2  0  0  0  0  0  0
  -29.1070  -24.4620   20.6840 C   0  0  0  0  0  2  0  0  0  0  0  0
  -28.6570  -25.5090   19.6020 C   0  0  0  0  0  2  0  0  0  0  0  0
  -28.5660  -26.9060   20.0320 O   0  0  0  0  0  0  0  0  0  0  0  0
  -24.5980  -31.8400   23.3600 C   0  0  0  0  0  0  0  0  0  0  0  0
  -27.3690  -27.6300   20.0090 C   0  0  0  0  0  0  0  0  0  0  0  0
  -23.4440  -30.5410   21.6020 C   0  0  0  0  0  3  0  0  0  0  0  0
  -24.9470  -29.1360   20.0930 C   0  0  0  0  0  0  0  0  0  0  0  0
  -25.9720  -30.9430   21.4780 C   0  0  0  0  0  2  0  0  0  0  0  0
  -26.0910  -29.6250   20.7320 C   0  0  0  0  0  0  0  0  0  0  0  0
  -27.3020  -28.8860   20.6780 C   0  0  0  0  0  3  0  0  0  0  0  0
  -26.1950  -27.1840   19.3500 C   0  0  0  0  0  3  0  0  0  0  0  0
  -24.9990  -27.9210   19.3960 C   0  0  0  0  0  3  0  0  0  0  0  0
  -23.6880  -29.9660   20.1820 C   0  0  0  0  0  2  0  0  0  0  0  0
  -24.6880  -31.1200   22.2040 N   0  0  0  0  0  0  0  0  0  0  0  0
  -23.5030  -32.0560   23.8970 O   0  0  0  0  0  0  0  0  0  0  0  0
  -22.7920  -29.4450   22.4790 C   0  0  0  0  0  0  0  0  0  0  0  0
  -21.4770  -29.2420   22.3040 N   0  0  0  0  0  0  0  0  0  0  0  0
  -23.4690  -28.7800   23.2680 O   0  0  0  0  0  0  0  0  0  0  0  0
  -20.9910  -29.8340   21.6430 H   0  0  0  0  0  0  0  0  0  0  0  0
  -18.1270  -27.9050   22.6080 C   0  0  0  0  0  0  0  0  0  0  0  0
  -20.6630  -28.2350   22.9870 C   0  0  0  0  0  3  0  0  0  0  0  0
  -20.8380  -26.8440   22.3360 C   0  0  0  0  0  2  0  0  0  0  0  0
  -19.7860  -26.5410   21.2650 C   0  0  0  0  0  2  0  0  0  0  0  0
  -18.3780  -26.6020   21.8640 C   0  0  0  0  0  2  0  0  0  0  0  0
  -19.2020  -28.6790   23.1210 C   0  0  0  0  0  0  0  0  0  0  0  0
  -18.9180  -29.8960   23.7760 C   0  0  0  0  0  3  0  0  0  0  0  0
  -17.5920  -30.3460   23.9200 C   0  0  0  0  0  3  0  0  0  0  0  0
  -16.5310  -29.5680   23.4220 C   0  0  0  0  0  3  0  0  0  0  0  0
  -16.7980  -28.3470   22.7760 C   0  0  0  0  0  3  0  0  0  0  0  0
  -25.8630  -32.4440   24.0470 C   0  0  0  0  0  3  0  0  0  0  0  0
  -25.5380  -33.8230   24.4350 N   0  0  0  0  0  0  0  0  0  0  0  0
  -25.8930  -34.9140   23.7430 C   0  0  0  0  0  0  0  0  0  0  0  0
  -26.5960  -34.8630   22.7290 O   0  0  0  0  0  0  0  0  0  0  0  0
  -24.9170  -33.9390   25.2240 H   0  0  0  0  0  0  0  0  0  0  0  0
  -24.1720  -36.7170   23.4240 C   0  0  0  0  0  1  0  0  0  0  0  0
  -25.3880  -36.2770   24.2540 C   0  0  0  0  0  3  0  0  0  0  0  0
  -27.4940  -37.1180   25.1950 C   0  0  0  0  0  1  0  0  0  0  0  0
  -26.4220  -37.3340   24.2260 N   0  0  0  0  0  0  0  0  0  0  0  0
  -26.0140  -38.2470   24.4030 H   0  0  0  0  0  0  0  0  0  0  0  0
  -26.3520  -31.6160   25.2970 C   0  0  1  0  0  0  0  0  0  0  0  0
  -25.2300  -31.3130   26.3160 C   0  0  0  0  0  1  0  0  0  0  0  0
  -26.9620  -30.2660   24.8550 C   0  0  0  0  0  1  0  0  0  0  0  0
  -27.4730  -32.3880   26.0300 C   0  0  0  0  0  1  0  0  0  0  0  0
  -30.1900  -19.8120   19.5660 O   0  0  0  0  0  0  0  0  0  0  0  0
  -30.6930  -17.4200   19.8510 C   0  0  0  0  0  3  0  0  0  0  0  0
  -30.5270  -18.8310   21.7880 C   0  0  0  0  0  3  0  0  0  0  0  0
  -30.4420  -18.7110   20.3900 C   0  0  0  0  0  0  0  0  0  0  0  0
  -31.0220  -16.3180   20.6990 C   0  0  0  0  0  0  0  0  0  0  0  0
  -30.8420  -17.6980   22.5670 C   0  0  0  0  0  0  0  0  0  0  0  0
  -30.9580  -17.8180   24.0720 C   0  0  0  0  0  1  0  0  0  0  0  0
  -31.0920  -16.4810   22.0420 N   0  0  0  0  0  0  0  0  0  0  0  0
  -31.5770  -15.0250   20.1000 C   0  0  0  0  0  0  0  0  0  0  0  0
  -31.1640  -12.8360   19.0360 C   0  0  0  0  0  2  0  0  0  0  0  0
  -30.2160  -13.0310   17.8320 C   0  0  0  0  0  2  0  0  0  0  0  0
  -28.7520  -12.9350   18.2870 C   0  0  0  0  0  2  0  0  0  0  0  0
  -28.4500  -13.8360   19.5120 C   0  0  0  0  0  3  0  0  0  0  0  0
  -29.5120  -13.6450   20.6180 C   0  0  0  0  0  2  0  0  0  0  0  0
  -30.8390  -13.8750   20.0280 N   0  0  0  0  0  0  0  0  0  0  0  0
  -32.6900  -15.1060   19.5700 O   0  0  0  0  0  0  0  0  0  0  0  0
  -26.0890  -14.5220   20.2510 C   0  0  0  0  0  0  0  0  0  0  0  0
  -24.9950  -13.7850   20.6130 C   0  0  0  0  0  0  0  0  0  0  0  0
  -25.4050  -12.4160   20.5760 C   0  0  0  0  0  0  0  0  0  0  0  0
  -27.0960  -13.6030   20.0080 N   0  0  0  0  0  0  0  0  0  0  0  0
  -26.6940  -12.3330   20.2670 N   0  0  0  0  0  0  0  0  0  0  0  0
  -24.6340  -11.1840   20.7640 C   0  0  0  0  0  0  0  0  0  0  0  0
  -25.0110  -10.2170   21.7210 C   0  0  0  0  0  3  0  0  0  0  0  0
  -24.2370   -9.0500   21.9020 C   0  0  0  0  0  3  0  0  0  0  0  0
  -23.0690   -8.8470   21.1260 C   0  0  0  0  0  0  0  0  0  0  0  0
  -22.7110   -9.8010   20.1560 C   0  0  0  0  0  3  0  0  0  0  0  0
  -23.4890  -10.9540   19.9730 C   0  0  0  0  0  3  0  0  0  0  0  0
  -22.2760   -7.7280   21.2140 O   0  0  0  0  0  0  0  0  0  0  0  0
  -22.1040   -7.0560   22.3950 C   0  0  0  0  0  0  0  0  0  0  0  0
  -21.6310   -7.7010   23.5590 C   0  0  0  0  0  3  0  0  0  0  0  0
  -21.4010   -6.9570   24.7340 C   0  0  0  0  0  3  0  0  0  0  0  0
  -21.6340   -5.5690   24.7420 C   0  0  0  0  0  0  0  0  0  0  0  0
  -22.1000   -4.9230   23.5850 C   0  0  0  0  0  3  0  0  0  0  0  0
  -22.3310   -5.6630   22.4140 C   0  0  0  0  0  0  0  0  0  0  0  0
  -22.7550   -5.0340   21.2910 F   0  0  0  0  0  0  0  0  0  0  0  0
  -21.4110   -4.8510   25.8670 F   0  0  0  0  0  0  0  0  0  0  0  0
  -23.6190  -14.3110   20.9020 C   0  0  0  0  0  0  0  0  0  0  0  0
  -22.9020  -13.6610   21.8120 N   0  0  0  0  0  0  0  0  0  0  0  0
  -23.1960  -15.3310   20.3590 O   0  0  0  0  0  0  0  0  0  0  0  0
  -23.2740  -12.8390   22.2650 H   0  0  0  0  0  0  0  0  0  0  0  0
  -21.9780  -13.9810   22.0570 H   0  0  0  0  0  0  0  0  0  0  0  0
  -26.3130  -15.8850   20.1010 N   0  0  0  0  0  0  0  0  0  0  0  0
  -25.6240  -16.5740   20.3730 H   0  0  0  0  0  0  0  0  0  0  0  0
  -27.2420  -16.2640   19.9840 H   0  0  0  0  0  0  0  0  0  0  0  0
  1  8  1  0
  2  1  1  0
  2 11  1  0
  3 10  1  0
  3  4  1  0
  3  5  1  0
  4  6  2  0
  5  1  2  0
  6  2  1  0
  8  7  1  0
  9 10  1  0
 12 13  1  0
 12 11  1  0
 14 25  2  0
 15 13  1  0
 15 20  1  0
 16 24  1  0
 16 26  1  0
 17 23  1  0
 17 19  1  0
 18 24  1  0
 19 18  1  0
 20 19  2  0
 21 22  1  0
 21 15  2  0
 22 17  2  0
 23 16  1  0
 24 14  1  0
 26 28  2  0
 27 26  1  0
 29 27  1  0
 30 39  2  0
 30 35  1  0
 31 27  1  0
 31 35  1  0
 32 31  1  0
 33 34  1  0
 33 32  1  0
 34 30  1  0
 35 36  2  0
 36 37  1  0
 38 37  2  0
 39 38  1  0
 40 14  1  0
 40 41  1  0
 40 50  1  0
 41 44  1  0
 42 46  1  0
 42 41  1  0
 43 42  2  0
 46 45  1  0
 48 46  1  0
 48 49  1  0
 48 47  1  0
 50 53  1  1
 50 51  1  0
 52 50  1  0
 54  4  1  0
 54 57  1  0
 55 57  2  0
 55 58  1  0
 56 59  2  0
 57 56  1  0
 58 61  2  0
 59 60  1  0
 61 59  1  0
 62 58  1  0
 63 68  1  0
 64 65  1  0
 64 63  1  0
 66 65  1  0
 66 73  1  0
 66 67  1  0
 68 62  1  0
 68 67  1  0
 69 62  2  0
 70 71  2  0
 71 90  1  0
 72 71  1  0
 72 75  1  0
 73 70  1  0
 73 74  1  0
 74 72  2  0
 75 76  1  0
 76 77  2  0
 78 81  1  0
 78 77  1  0
 79 78  2  0
 80 79  1  0
 80 75  2  0
 81 82  1  0
 82 87  2  0
 82 83  1  0
 83 84  2  0
 84 85  1  0
 85 89  1  0
 86 85  2  0
 87 86  1  0
 88 87  1  0
 90 91  1  0
 91 94  1  0
 91 93  1  0
 92 90  2  0
 95 70  1  0
 95 96  1  0
 97 95  1  0
M  ISO  4  12 101  13 101  58 100  62 100
M  END
>  <TORSDO>  (78) 
F 22

>  <SCORE>  (78) 
-9.299

>  <name>  (78) 
78

>  <ligand_id>  (78) 
78

>  <original_smiles>  (78) 
[H]c1c([H])c([H])c2c(c1[H])C([H])([H])C([H])([H])C([H])([H])C2([H])N([H])C(=O)C1([H])N(C(=O)C([H])(N([H])C(=O)C([H])(N([H])C([H])([H])[H])C([H])([H])[H])C(C([H])([H])[H])(C([H])([H])[H])C([H])([H])[H])C([H])([H])c2c([H])c(OC([H])([H])C([H])([H])c3nc(Oc4c([H])c(C(=O)N5C([H])([H])C([H])([H])C([H])([H])C([H])(n6nc(-c7c([H])c([H])c(Oc8c([H])c([H])c(F)c([H])c8F)c([H])c7[H])c(C(=O)N([H])[H])c6N([H])[H])C5([H])[H])nc(C([H])([H])[H])c4[H])c(C([H])([H])C([H])([H])[H])nc3C([H])([H])C([H])([H])[H])c([H])c([H])c2C1([H])[H]

>  <smiles>  (78) 
[H]c1c([H])c([H])c2c(c1[H])C([H])([H])C([H])([H])C([H])([H])C2([H])N([H])C(=O)C1([H])N(C(=O)C([H])(N([H])C(=O)C([H])(N([H])C([H])([H])[H])C([H])([H])[H])C(C([H])([H])[H])(C([H])([H])[H])C([H])([H])[H])C([H])([H])c2c([H])c(OC([H])([H])C([H])([H])c3nc(Oc4c([H])c(C(=O)N5C([H])([H])C([H])([H])C([H])([H])C([H])(n6nc(-c7c([H])c([H])c(Oc8c([H])c([H])c(F)c([H])c8F)c([H])c7[H])c(C(=O)N([H])[H])c6N([H])[H])C5([H])[H])nc(C([H])([H])[H])c4[H])c(C([H])([H])C([H])([H])[H])nc3C([H])([H])C([H])([H])[H])c([H])c([H])c2C1([H])[H]

$$$$
79:0:0
     RDKit          3D

 95103  0  0  1  0  0  0  0  0999 V2000
  -30.0390  -22.1790   20.5710 C   0  0  0  0  0  3  0  0  0  0  0  0
  -28.7650  -22.3790   20.0800 C   0  0  0  0  0  0  0  0  0  0  0  0
  -29.3480  -20.1140   19.9900 C   0  0  0  0  0  3  0  0  0  0  0  0
  -28.3640  -21.0500   19.7460 N   0  0  0  0  0  0  0  0  0  0  0  0
  -30.3540  -20.8350   20.4960 N   0  0  0  0  0  0  0  0  0  0  0  0
  -31.2470  -20.4470   20.7760 H   0  0  0  0  0  0  0  0  0  0  0  0
  -26.5070  -23.5740   20.2190 C   0  0  0  0  0  1  0  0  0  0  0  0
  -28.1910  -24.0800   18.3360 C   0  0  0  0  0  1  0  0  0  0  0  0
  -27.9920  -23.7570   19.8310 C   0  0  2  0  0  0  0  0  0  0  0  0
  -28.4720  -25.0840   20.6280 C   0  0  0  0  0  2  0  0  0  0  0  0
  -28.3720  -26.4860   20.0980 O   0  0  0  0  0  0  0  0  0  0  0  0
  -24.6150  -31.8680   23.2090 C   0  0  0  0  0  0  0  0  0  0  0  0
  -27.2220  -27.2910   20.1620 C   0  0  0  0  0  0  0  0  0  0  0  0
  -23.4070  -30.4630   21.5770 C   0  0  0  0  0  3  0  0  0  0  0  0
  -24.8540  -28.9080   20.1540 C   0  0  0  0  0  0  0  0  0  0  0  0
  -25.9450  -30.7800   21.3850 C   0  0  0  0  0  2  0  0  0  0  0  0
  -26.0240  -29.3960   20.7500 C   0  0  0  0  0  0  0  0  0  0  0  0
  -27.2100  -28.5990   20.7440 C   0  0  0  0  0  3  0  0  0  0  0  0
  -26.0370  -26.8750   19.5210 C   0  0  0  0  0  3  0  0  0  0  0  0
  -24.8620  -27.6510   19.5330 C   0  0  0  0  0  3  0  0  0  0  0  0
  -23.6180  -29.7830   20.2000 C   0  0  0  0  0  2  0  0  0  0  0  0
  -24.6750  -31.0570   22.1130 N   0  0  0  0  0  0  0  0  0  0  0  0
  -23.5340  -32.1450   23.7480 O   0  0  0  0  0  0  0  0  0  0  0  0
  -22.7510  -29.4480   22.5430 C   0  0  0  0  0  0  0  0  0  0  0  0
  -21.4240  -29.2710   22.4260 N   0  0  0  0  0  0  0  0  0  0  0  0
  -23.4350  -28.8200   23.3560 O   0  0  0  0  0  0  0  0  0  0  0  0
  -20.9310  -29.8290   21.7430 H   0  0  0  0  0  0  0  0  0  0  0  0
  -18.0490  -28.0820   22.9550 C   0  0  0  0  0  0  0  0  0  0  0  0
  -20.6100  -28.3350   23.2020 C   0  0  0  0  0  3  0  0  0  0  0  0
  -20.7030  -26.9040   22.6240 C   0  0  0  0  0  2  0  0  0  0  0  0
  -19.5910  -26.5850   21.6190 C   0  0  0  0  0  2  0  0  0  0  0  0
  -18.2150  -26.7340   22.2770 C   0  0  0  0  0  2  0  0  0  0  0  0
  -19.1730  -28.8410   23.3760 C   0  0  0  0  0  0  0  0  0  0  0  0
  -18.9620  -30.1040   23.9710 C   0  0  0  0  0  3  0  0  0  0  0  0
  -17.6600  -30.6090   24.1490 C   0  0  0  0  0  3  0  0  0  0  0  0
  -16.5500  -29.8460   23.7440 C   0  0  0  0  0  3  0  0  0  0  0  0
  -16.7450  -28.5850   23.1530 C   0  0  0  0  0  3  0  0  0  0  0  0
  -25.9010  -32.5040   23.8240 C   0  0  0  0  0  3  0  0  0  0  0  0
  -25.5900  -33.9020   24.1530 N   0  0  0  0  0  0  0  0  0  0  0  0
  -25.9150  -34.9550   23.3910 C   0  0  0  0  0  0  0  0  0  0  0  0
  -26.5780  -34.8520   22.3560 O   0  0  0  0  0  0  0  0  0  0  0  0
  -25.0000  -34.0570   24.9580 H   0  0  0  0  0  0  0  0  0  0  0  0
  -24.1780  -36.7430   23.0500 C   0  0  0  0  0  1  0  0  0  0  0  0
  -25.4290  -36.3430   23.8510 C   0  0  0  0  0  3  0  0  0  0  0  0
  -27.5680  -37.2350   24.6590 C   0  0  0  0  0  1  0  0  0  0  0  0
  -26.4570  -37.3990   23.7260 N   0  0  0  0  0  0  0  0  0  0  0  0
  -26.0490  -38.3180   23.8750 H   0  0  0  0  0  0  0  0  0  0  0  0
  -26.4240  -31.7360   25.0990 C   0  0  1  0  0  0  0  0  0  0  0  0
  -25.3360  -31.4980   26.1720 C   0  0  0  0  0  1  0  0  0  0  0  0
  -27.0080  -30.3580   24.7090 C   0  0  0  0  0  1  0  0  0  0  0  0
  -27.5770  -32.5330   25.7540 C   0  0  0  0  0  1  0  0  0  0  0  0
  -26.8410  -20.8630   17.7140 C   0  0  0  0  0  1  0  0  0  0  0  0
  -27.0520  -20.6000   19.2150 C   0  0  0  0  0  2  0  0  0  0  0  0
  -29.1130  -18.2440   18.2280 C   0  0  0  0  0  1  0  0  0  0  0  0
  -29.3430  -18.5470   19.7240 C   0  0  0  0  0  3  0  0  0  0  0  0
  -30.5360  -17.5740   20.2010 C   0  0  0  0  0  2  0  0  0  0  0  0
  -30.4900  -16.0370   22.2520 C   0  0  0  0  0  1  0  0  0  0  0  0
  -30.1860  -16.0790   20.7420 C   0  0  1  0  0  0  0  0  0  0  0  0
  -28.8610  -15.9800   20.6380 F   0  0  0  0  0  0  0  0  0  0  0  0
  -30.8540  -14.7680   20.0750 C   0  0  0  0  0  0  0  0  0  0  0  0
  -30.5630  -12.5350   18.9610 C   0  0  0  0  0  2  0  0  0  0  0  0
  -29.5760  -12.6650   17.7770 C   0  0  0  0  0  2  0  0  0  0  0  0
  -28.1170  -12.5150   18.2540 C   0  0  0  0  0  2  0  0  0  0  0  0
  -27.8160  -13.3860   19.4990 C   0  0  0  0  0  3  0  0  0  0  0  0
  -28.9070  -13.2030   20.5770 C   0  0  0  0  0  2  0  0  0  0  0  0
  -30.1980  -13.5560   19.9700 N   0  0  0  0  0  0  0  0  0  0  0  0
  -31.9830  -14.8760   19.5860 O   0  0  0  0  0  0  0  0  0  0  0  0
  -25.4710  -14.0570   20.3060 C   0  0  0  0  0  0  0  0  0  0  0  0
  -24.3940  -13.3150   20.7060 C   0  0  0  0  0  0  0  0  0  0  0  0
  -24.8150  -11.9500   20.6580 C   0  0  0  0  0  0  0  0  0  0  0  0
  -26.4780  -13.1440   20.0330 N   0  0  0  0  0  0  0  0  0  0  0  0
  -26.0920  -11.8730   20.3060 N   0  0  0  0  0  0  0  0  0  0  0  0
  -24.0600  -10.7100   20.8710 C   0  0  0  0  0  0  0  0  0  0  0  0
  -24.4720   -9.7470   21.8180 C   0  0  0  0  0  3  0  0  0  0  0  0
  -23.7200   -8.5700   22.0170 C   0  0  0  0  0  3  0  0  0  0  0  0
  -22.5400   -8.3470   21.2690 C   0  0  0  0  0  0  0  0  0  0  0  0
  -22.1450   -9.2980   20.3110 C   0  0  0  0  0  3  0  0  0  0  0  0
  -22.8990  -10.4670   20.1100 C   0  0  0  0  0  3  0  0  0  0  0  0
  -21.7600   -7.2210   21.3750 O   0  0  0  0  0  0  0  0  0  0  0  0
  -21.6600   -6.5240   22.5520 C   0  0  0  0  0  0  0  0  0  0  0  0
  -21.2190   -7.1380   23.7450 C   0  0  0  0  0  3  0  0  0  0  0  0
  -21.0640   -6.3680   24.9170 C   0  0  0  0  0  3  0  0  0  0  0  0
  -21.3400   -4.9870   24.8940 C   0  0  0  0  0  0  0  0  0  0  0  0
  -21.7730   -4.3750   23.7050 C   0  0  0  0  0  3  0  0  0  0  0  0
  -21.9300   -5.1410   22.5370 C   0  0  0  0  0  0  0  0  0  0  0  0
  -22.3280   -4.5430   21.3880 F   0  0  0  0  0  0  0  0  0  0  0  0
  -21.1830   -4.2470   26.0160 F   0  0  0  0  0  0  0  0  0  0  0  0
  -23.0210  -13.8320   21.0250 C   0  0  0  0  0  0  0  0  0  0  0  0
  -22.3070  -13.1600   21.9230 N   0  0  0  0  0  0  0  0  0  0  0  0
  -22.5910  -14.8660   20.5150 O   0  0  0  0  0  0  0  0  0  0  0  0
  -22.6680  -12.3230   22.3560 H   0  0  0  0  0  0  0  0  0  0  0  0
  -21.3870  -13.4880   22.1800 H   0  0  0  0  0  0  0  0  0  0  0  0
  -25.6770  -15.4220   20.1350 N   0  0  0  0  0  0  0  0  0  0  0  0
  -24.9570  -16.1120   20.3160 H   0  0  0  0  0  0  0  0  0  0  0  0
  -26.5780  -15.8290   19.9100 H   0  0  0  0  0  0  0  0  0  0  0  0
  2  1  2  0
  3 55  1  0
  3  5  1  0
  4  3  1  0
  4  2  1  0
  5  1  1  0
  5  6  1  0
  9  8  1  6
  9  2  1  0
  9  7  1  0
  9 10  1  0
 11 13  1  0
 11 10  1  0
 12 23  2  0
 13 18  1  0
 14 22  1  0
 14 24  1  0
 15 21  1  0
 15 17  1  0
 16 22  1  0
 17 16  1  0
 18 17  2  0
 19 20  1  0
 19 13  2  0
 20 15  2  0
 21 14  1  0
 22 12  1  0
 24 26  2  0
 25 24  1  0
 27 25  1  0
 28 37  2  0
 28 33  1  0
 29 25  1  0
 29 33  1  0
 30 29  1  0
 31 32  1  0
 31 30  1  0
 32 28  1  0
 33 34  2  0
 34 35  1  0
 36 35  2  0
 37 36  1  0
 38 12  1  0
 38 39  1  0
 38 48  1  0
 39 42  1  0
 40 44  1  0
 40 39  1  0
 41 40  2  0
 44 43  1  0
 46 44  1  0
 46 47  1  0
 46 45  1  0
 48 51  1  1
 48 49  1  0
 50 48  1  0
 52 53  1  0
 53  4  1  0
 55 54  1  0
 55 56  1  0
 56 58  1  0
 58 57  1  1
 59 58  1  0
 60 58  1  0
 61 66  1  0
 62 63  1  0
 62 61  1  0
 64 63  1  0
 64 71  1  0
 64 65  1  0
 66 60  1  0
 66 65  1  0
 67 60  2  0
 68 69  2  0
 69 88  1  0
 70 69  1  0
 70 73  1  0
 71 72  1  0
 71 68  1  0
 72 70  2  0
 73 74  1  0
 74 75  2  0
 76 79  1  0
 76 75  1  0
 77 76  2  0
 78 77  1  0
 78 73  2  0
 79 80  1  0
 80 81  1  0
 81 82  2  0
 83 82  1  0
 83 87  1  0
 84 83  2  0
 85 80  2  0
 85 84  1  0
 86 85  1  0
 88 89  1  0
 89 92  1  0
 89 91  1  0
 90 88  2  0
 93 68  1  0
 93 94  1  0
 95 93  1  0
M  ISO  4  10 101  11 101  58 100  60 100
M  END
>  <TORSDO>  (79) 
F 22

>  <SCORE>  (79) 
-13.005

>  <name>  (79) 
79

>  <ligand_id>  (79) 
79

>  <original_smiles>  (79) 
[H]c1c([H])c([H])c2c(c1[H])C([H])([H])C([H])([H])C([H])([H])C2([H])N([H])C(=O)C1([H])N(C(=O)C([H])(N([H])C(=O)C([H])(N([H])C([H])([H])[H])C([H])([H])[H])C(C([H])([H])[H])(C([H])([H])[H])C([H])([H])[H])C([H])([H])c2c([H])c(OC([H])([H])C(c3c([H])[n+]([H])c(C([H])(C([H])([H])[H])C([H])([H])C(F)(C(=O)N4C([H])([H])C([H])([H])C([H])([H])C([H])(n5nc(-c6c([H])c([H])c(Oc7c([H])c([H])c(F)c([H])c7F)c([H])c6[H])c(C(=O)N([H])[H])c5N([H])[H])C4([H])[H])C([H])([H])[H])n3C([H])([H])C([H])([H])[H])(C([H])([H])[H])C([H])([H])[H])c([H])c([H])c2C1([H])[H]

>  <smiles>  (79) 
[H]c1c([H])c([H])c2c(c1[H])C([H])([H])C([H])([H])C([H])([H])C2([H])N([H])C(=O)C1([H])N(C(=O)C([H])(N([H])C(=O)C([H])(N([H])C([H])([H])[H])C([H])([H])[H])C(C([H])([H])[H])(C([H])([H])[H])C([H])([H])[H])C([H])([H])c2c([H])c(OC([H])([H])C(c3c([H])[n+]([H])c(C([H])(C([H])([H])[H])C([H])([H])C(F)(C(=O)N4C([H])([H])C([H])([H])C([H])([H])C([H])(n5nc(-c6c([H])c([H])c(Oc7c([H])c([H])c(F)c([H])c7F)c([H])c6[H])c(C(=O)N([H])[H])c5N([H])[H])C4([H])[H])C([H])([H])[H])n3C([H])([H])C([H])([H])[H])(C([H])([H])[H])C([H])([H])[H])c([H])c([H])c2C1([H])[H]

$$$$
80:0:0
     RDKit          3D

 96104  0  0  1  0  0  0  0  0999 V2000
  -31.8200  -22.1310   19.5340 C   0  0  0  0  0  1  0  0  0  0  0  0
  -29.9470  -20.8230   18.5750 C   0  0  0  0  0  1  0  0  0  0  0  0
  -30.3460  -21.7440   19.7620 C   0  0  1  0  0  0  0  0  0  0  0  0
  -30.2300  -20.9230   21.1070 C   0  0  0  0  0  2  0  0  0  0  0  0
  -29.8760  -18.3040   20.7440 C   0  0  0  0  0  3  0  0  0  0  0  0
  -30.6660  -19.4580   21.0060 C   0  0  0  0  0  0  0  0  0  0  0  0
  -30.7500  -17.3070   20.3560 C   0  0  0  0  0  0  0  0  0  0  0  0
  -31.9440  -19.1380   21.0270 N   0  0  0  0  0  0  0  0  0  0  0  0
  -32.0240  -17.8630   20.5710 N   0  0  0  0  0  0  0  0  0  0  0  0
  -31.1450  -16.0220   18.2340 C   0  0  0  0  0  1  0  0  0  0  0  0
  -28.9170  -16.1120   19.1700 C   0  0  0  0  0  1  0  0  0  0  0  0
  -30.3890  -16.0040   19.5950 C   0  0  2  0  0  0  0  0  0  0  0  0
  -30.7620  -14.6230   20.3030 C   0  0  0  0  0  0  0  0  0  0  0  0
  -30.3660  -12.3720   19.4350 C   0  0  0  0  0  2  0  0  0  0  0  0
  -29.4520  -12.4230   18.2000 C   0  0  0  0  0  2  0  0  0  0  0  0
  -27.9780  -12.2690   18.6210 C   0  0  0  0  0  2  0  0  0  0  0  0
  -27.5790  -13.2000   19.7920 C   0  0  0  0  0  3  0  0  0  0  0  0
  -28.6530  -13.2790   20.9060 C   0  0  0  0  0  2  0  0  0  0  0  0
  -29.9750  -13.4980   20.2960 N   0  0  0  0  0  0  0  0  0  0  0  0
  -31.9670  -14.4740   20.4380 O   0  0  0  0  0  0  0  0  0  0  0  0
  -25.2030  -13.8440   20.4910 C   0  0  0  0  0  0  0  0  0  0  0  0
  -24.1230  -13.0850   20.8430 C   0  0  0  0  0  0  0  0  0  0  0  0
  -24.5770  -11.7320   20.8420 C   0  0  0  0  0  0  0  0  0  0  0  0
  -26.2410  -12.9440   20.2940 N   0  0  0  0  0  0  0  0  0  0  0  0
  -25.8740  -11.6730   20.5750 N   0  0  0  0  0  0  0  0  0  0  0  0
  -23.8450  -10.4780   21.0290 C   0  0  0  0  0  0  0  0  0  0  0  0
  -24.2620   -9.5210   21.9790 C   0  0  0  0  0  3  0  0  0  0  0  0
  -23.5320   -8.3260   22.1540 C   0  0  0  0  0  3  0  0  0  0  0  0
  -22.3740   -8.0820   21.3800 C   0  0  0  0  0  0  0  0  0  0  0  0
  -21.9790   -9.0290   20.4180 C   0  0  0  0  0  3  0  0  0  0  0  0
  -22.7090  -10.2150   20.2400 C   0  0  0  0  0  3  0  0  0  0  0  0
  -21.6160   -6.9410   21.4660 O   0  0  0  0  0  0  0  0  0  0  0  0
  -21.5590   -6.2050   22.6220 C   0  0  0  0  0  0  0  0  0  0  0  0
  -21.1300   -6.7680   23.8440 C   0  0  0  0  0  3  0  0  0  0  0  0
  -21.0220   -5.9570   24.9910 C   0  0  0  0  0  3  0  0  0  0  0  0
  -21.3280   -4.5840   24.9170 C   0  0  0  0  0  0  0  0  0  0  0  0
  -21.7480   -4.0230   23.6990 C   0  0  0  0  0  3  0  0  0  0  0  0
  -21.8620   -4.8310   22.5530 C   0  0  0  0  0  0  0  0  0  0  0  0
  -22.2490   -4.2800   21.3780 F   0  0  0  0  0  0  0  0  0  0  0  0
  -21.2110   -3.8040   26.0150 F   0  0  0  0  0  0  0  0  0  0  0  0
  -22.7220  -13.5750   21.0660 C   0  0  0  0  0  0  0  0  0  0  0  0
  -21.9650  -12.8960   21.9220 N   0  0  0  0  0  0  0  0  0  0  0  0
  -22.3060  -14.5940   20.5130 O   0  0  0  0  0  0  0  0  0  0  0  0
  -22.3130  -12.0680   22.3850 H   0  0  0  0  0  0  0  0  0  0  0  0
  -21.0280  -13.2110   22.1240 H   0  0  0  0  0  0  0  0  0  0  0  0
  -25.3740  -15.2110   20.2940 N   0  0  0  0  0  0  0  0  0  0  0  0
  -24.6020  -15.8630   20.3820 H   0  0  0  0  0  0  0  0  0  0  0  0
  -26.2340  -15.6540   19.9950 H   0  0  0  0  0  0  0  0  0  0  0  0
  -34.0340  -18.1660   19.1280 C   0  0  0  0  0  1  0  0  0  0  0  0
  -33.3830  -17.4000   20.2930 C   0  0  0  0  0  2  0  0  0  0  0  0
  -29.3580  -22.9810   19.6600 C   0  0  0  0  0  2  0  0  0  0  0  0
  -30.7660  -25.1600   19.6410 C   0  0  0  0  0  1  0  0  0  0  0  0
  -29.7800  -24.3150   21.8130 C   0  0  0  0  0  1  0  0  0  0  0  0
  -29.5800  -24.4110   20.2890 C   0  0  2  0  0  0  0  0  0  0  0  0
  -28.2920  -25.2530   19.9800 C   0  0  0  0  0  2  0  0  0  0  0  0
  -28.3740  -26.6680   20.2600 O   0  0  0  0  0  0  0  0  0  0  0  0
  -24.5820  -31.8970   23.2630 C   0  0  0  0  0  0  0  0  0  0  0  0
  -27.2010  -27.4130   20.2060 C   0  0  0  0  0  0  0  0  0  0  0  0
  -23.3680  -30.4990   21.6240 C   0  0  0  0  0  3  0  0  0  0  0  0
  -24.8140  -28.9530   20.1980 C   0  0  0  0  0  0  0  0  0  0  0  0
  -25.8970  -30.8400   21.4260 C   0  0  0  0  0  2  0  0  0  0  0  0
  -25.9740  -29.4670   20.7880 C   0  0  0  0  0  0  0  0  0  0  0  0
  -27.1680  -28.7050   20.7870 C   0  0  0  0  0  3  0  0  0  0  0  0
  -26.0200  -26.9270   19.5970 C   0  0  0  0  0  3  0  0  0  0  0  0
  -24.8330  -27.6860   19.5940 C   0  0  0  0  0  3  0  0  0  0  0  0
  -23.5730  -29.8160   20.2440 C   0  0  0  0  0  2  0  0  0  0  0  0
  -24.6340  -31.0940   22.1630 N   0  0  0  0  0  0  0  0  0  0  0  0
  -23.5030  -32.1760   23.8040 O   0  0  0  0  0  0  0  0  0  0  0  0
  -22.7110  -29.4850   22.5880 C   0  0  0  0  0  0  0  0  0  0  0  0
  -21.3850  -29.3080   22.4580 N   0  0  0  0  0  0  0  0  0  0  0  0
  -23.3890  -28.8590   23.4050 O   0  0  0  0  0  0  0  0  0  0  0  0
  -20.8970  -29.8660   21.7710 H   0  0  0  0  0  0  0  0  0  0  0  0
  -18.0060  -28.1270   22.9540 C   0  0  0  0  0  0  0  0  0  0  0  0
  -20.5630  -28.3780   23.2330 C   0  0  0  0  0  3  0  0  0  0  0  0
  -20.6630  -26.9430   22.6630 C   0  0  0  0  0  2  0  0  0  0  0  0
  -19.5630  -26.6190   21.6480 C   0  0  0  0  0  2  0  0  0  0  0  0
  -18.1800  -26.7740   22.2860 C   0  0  0  0  0  2  0  0  0  0  0  0
  -19.1260  -28.8870   23.3850 C   0  0  0  0  0  0  0  0  0  0  0  0
  -18.9110  -30.1550   23.9670 C   0  0  0  0  0  3  0  0  0  0  0  0
  -17.6080  -30.6620   24.1250 C   0  0  0  0  0  3  0  0  0  0  0  0
  -16.5010  -29.9000   23.7100 C   0  0  0  0  0  3  0  0  0  0  0  0
  -16.7020  -28.6330   23.1310 C   0  0  0  0  0  3  0  0  0  0  0  0
  -25.8720  -32.5220   23.8810 C   0  0  0  0  0  3  0  0  0  0  0  0
  -25.5710  -33.9190   24.2170 N   0  0  0  0  0  0  0  0  0  0  0  0
  -25.9000  -34.9730   23.4570 C   0  0  0  0  0  0  0  0  0  0  0  0
  -26.5610  -34.8710   22.4200 O   0  0  0  0  0  0  0  0  0  0  0  0
  -24.9910  -34.0740   25.0280 H   0  0  0  0  0  0  0  0  0  0  0  0
  -24.1700  -36.7650   23.1190 C   0  0  0  0  0  1  0  0  0  0  0  0
  -25.4170  -36.3600   23.9220 C   0  0  0  0  0  3  0  0  0  0  0  0
  -27.5590  -37.2380   24.7380 C   0  0  0  0  0  1  0  0  0  0  0  0
  -26.4490  -37.4120   23.8040 N   0  0  0  0  0  0  0  0  0  0  0  0
  -26.0460  -38.3310   23.9580 H   0  0  0  0  0  0  0  0  0  0  0  0
  -26.3950  -31.7440   25.1490 C   0  0  1  0  0  0  0  0  0  0  0  0
  -25.3080  -31.5070   26.2220 C   0  0  0  0  0  1  0  0  0  0  0  0
  -26.9730  -30.3670   24.7460 C   0  0  0  0  0  1  0  0  0  0  0  0
  -27.5500  -32.5330   25.8100 C   0  0  0  0  0  1  0  0  0  0  0  0
  3  1  1  6
  2  3  1  0
  3  4  1  0
  5  6  1  0
  6  8  2  0
  6  4  1  0
  7  9  1  0
  7  5  2  0
  9  8  1  0
 12 10  1  6
 11 12  1  0
 12 13  1  0
 12  7  1  0
 13 20  2  0
 14 19  1  0
 15 16  1  0
 15 14  1  0
 17 16  1  0
 17 24  1  0
 17 18  1  0
 19 13  1  0
 19 18  1  0
 21 22  2  0
 22 41  1  0
 23 22  1  0
 23 26  1  0
 24 21  1  0
 24 25  1  0
 25 23  2  0
 26 27  1  0
 27 28  2  0
 29 32  1  0
 29 28  1  0
 30 29  2  0
 31 30  1  0
 31 26  2  0
 32 33  1  0
 33 34  1  0
 34 35  2  0
 36 35  1  0
 36 40  1  0
 37 36  2  0
 38 33  2  0
 38 37  1  0
 39 38  1  0
 41 42  1  0
 42 45  1  0
 42 44  1  0
 43 41  2  0
 46 47  1  0
 46 21  1  0
 48 46  1  0
 49 50  1  0
 50  9  1  0
 51  3  1  0
 51 54  1  0
 54 52  1  6
 54 53  1  0
 55 56  1  0
 55 54  1  0
 57 68  2  0
 58 56  1  0
 58 63  1  0
 59 67  1  0
 59 69  1  0
 60 66  1  0
 60 62  1  0
 61 67  1  0
 62 61  1  0
 63 62  2  0
 64 58  2  0
 65 64  1  0
 65 60  2  0
 66 59  1  0
 67 57  1  0
 69 71  2  0
 70 69  1  0
 72 70  1  0
 73 82  2  0
 73 78  1  0
 74 70  1  0
 74 78  1  0
 75 74  1  0
 76 77  1  0
 76 75  1  0
 77 73  1  0
 78 79  2  0
 79 80  1  0
 81 80  2  0
 82 81  1  0
 83 57  1  0
 83 84  1  0
 83 93  1  0
 84 87  1  0
 85 89  1  0
 85 84  1  0
 86 85  2  0
 89 88  1  0
 91 89  1  0
 91 92  1  0
 91 90  1  0
 93 96  1  1
 93 94  1  0
 95 93  1  0
M  ISO  4  12 100  13 100  55 101  56 101
M  END
>  <TORSDO>  (80) 
F 23

>  <SCORE>  (80) 
-12.640

>  <name>  (80) 
80

>  <ligand_id>  (80) 
80

>  <original_smiles>  (80) 
[H]c1c([H])c([H])c2c(c1[H])C([H])([H])C([H])([H])C([H])([H])C2([H])N([H])C(=O)C1([H])N(C(=O)C([H])(N([H])C(=O)C([H])(N([H])C([H])([H])[H])C([H])([H])[H])C(C([H])([H])[H])(C([H])([H])[H])C([H])([H])[H])C([H])([H])c2c([H])c(OC([H])([H])C(C([H])([H])[H])(C([H])([H])[H])C([H])([H])C(C([H])([H])[H])(C([H])([H])[H])C([H])([H])c3nn(C([H])([H])C([H])([H])[H])c(C(C(=O)N4C([H])([H])C([H])([H])C([H])([H])C([H])(n5nc(-c6c([H])c([H])c(Oc7c([H])c([H])c(F)c([H])c7F)c([H])c6[H])c(C(=O)N([H])[H])c5N([H])[H])C4([H])[H])(C([H])([H])[H])C([H])([H])[H])c3[H])c([H])c([H])c2C1([H])[H]

>  <smiles>  (80) 
[H]c1c([H])c([H])c2c(c1[H])C([H])([H])C([H])([H])C([H])([H])C2([H])N([H])C(=O)C1([H])N(C(=O)C([H])(N([H])C(=O)C([H])(N([H])C([H])([H])[H])C([H])([H])[H])C(C([H])([H])[H])(C([H])([H])[H])C([H])([H])[H])C([H])([H])c2c([H])c(OC([H])([H])C(C([H])([H])[H])(C([H])([H])[H])C([H])([H])C(C([H])([H])[H])(C([H])([H])[H])C([H])([H])c3nn(C([H])([H])C([H])([H])[H])c(C(C(=O)N4C([H])([H])C([H])([H])C([H])([H])C([H])(n5nc(-c6c([H])c([H])c(Oc7c([H])c([H])c(F)c([H])c7F)c([H])c6[H])c(C(=O)N([H])[H])c5N([H])[H])C4([H])[H])(C([H])([H])[H])C([H])([H])[H])c3[H])c([H])c([H])c2C1([H])[H]

$$$$
81:0:0
     RDKit          3D

 99107  0  0  1  0  0  0  0  0999 V2000
  -29.9030  -21.0620   20.7610 C   0  0  0  0  0  3  0  0  0  0  0  0
  -31.9550  -17.2650   21.1480 C   0  0  0  0  0  3  0  0  0  0  0  0
  -30.6650  -17.3620   20.5790 C   0  0  0  0  0  0  0  0  0  0  0  0
  -32.0190  -19.5670   21.5060 C   0  0  0  0  0  0  0  0  0  0  0  0
  -30.7280  -19.7280   20.9030 C   0  0  0  0  0  0  0  0  0  0  0  0
  -32.8100  -20.6670   22.1910 C   0  0  0  0  0  1  0  0  0  0  0  0
  -32.6200  -18.3540   21.6020 N   0  0  0  0  0  0  0  0  0  0  0  0
  -30.0690  -18.6010   20.4860 N   0  0  0  0  0  0  0  0  0  0  0  0
  -29.2360  -16.4990   18.7450 C   0  0  0  0  0  1  0  0  0  0  0  0
  -28.6930  -16.0340   21.2160 C   0  0  0  0  0  1  0  0  0  0  0  0
  -29.8040  -16.1190   20.1430 C   0  0  2  0  0  0  0  0  0  0  0  0
  -30.5780  -14.7220   19.9390 C   0  0  0  0  0  0  0  0  0  0  0  0
  -30.3140  -12.4690   18.9360 C   0  0  0  0  0  2  0  0  0  0  0  0
  -29.3000  -12.5900   17.7690 C   0  0  0  0  0  2  0  0  0  0  0  0
  -27.8510  -12.4140   18.2770 C   0  0  0  0  0  2  0  0  0  0  0  0
  -27.5550  -13.2730   19.5340 C   0  0  0  0  0  3  0  0  0  0  0  0
  -28.6850  -13.0880   20.5730 C   0  0  0  0  0  2  0  0  0  0  0  0
  -29.9560  -13.4910   19.9440 N   0  0  0  0  0  0  0  0  0  0  0  0
  -31.7300  -14.7910   19.5000 O   0  0  0  0  0  0  0  0  0  0  0  0
  -25.2140  -13.9070   20.3920 C   0  0  0  0  0  0  0  0  0  0  0  0
  -24.1660  -13.1460   20.8250 C   0  0  0  0  0  0  0  0  0  0  0  0
  -24.6110  -11.7890   20.7580 C   0  0  0  0  0  0  0  0  0  0  0  0
  -26.2350  -13.0150   20.0950 N   0  0  0  0  0  0  0  0  0  0  0  0
  -25.8800  -11.7380   20.3750 N   0  0  0  0  0  0  0  0  0  0  0  0
  -23.8920  -10.5320   20.9750 C   0  0  0  0  0  0  0  0  0  0  0  0
  -24.3680   -9.5570   21.8750 C   0  0  0  0  0  3  0  0  0  0  0  0
  -23.6490   -8.3600   22.0770 C   0  0  0  0  0  3  0  0  0  0  0  0
  -22.4410   -8.1320   21.3770 C   0  0  0  0  0  0  0  0  0  0  0  0
  -21.9860   -9.0970   20.4630 C   0  0  0  0  0  3  0  0  0  0  0  0
  -22.7050  -10.2850   20.2610 C   0  0  0  0  0  3  0  0  0  0  0  0
  -21.6840   -6.9930   21.4940 O   0  0  0  0  0  0  0  0  0  0  0  0
  -21.6790   -6.2520   22.6460 C   0  0  0  0  0  0  0  0  0  0  0  0
  -21.3200   -6.8120   23.8890 C   0  0  0  0  0  3  0  0  0  0  0  0
  -21.2600   -5.9970   25.0380 C   0  0  0  0  0  3  0  0  0  0  0  0
  -21.5490   -4.6230   24.9420 C   0  0  0  0  0  0  0  0  0  0  0  0
  -21.9050   -4.0630   23.7040 C   0  0  0  0  0  3  0  0  0  0  0  0
  -21.9650   -4.8760   22.5590 C   0  0  0  0  0  0  0  0  0  0  0  0
  -22.2870   -4.3280   21.3630 F   0  0  0  0  0  0  0  0  0  0  0  0
  -21.4850   -3.8380   26.0450 F   0  0  0  0  0  0  0  0  0  0  0  0
  -22.7910  -13.6300   21.1880 C   0  0  0  0  0  0  0  0  0  0  0  0
  -22.1120  -12.9300   22.0900 N   0  0  0  0  0  0  0  0  0  0  0  0
  -22.3290  -14.6630   20.7060 O   0  0  0  0  0  0  0  0  0  0  0  0
  -22.4980  -12.0880   22.4860 H   0  0  0  0  0  0  0  0  0  0  0  0
  -21.1940  -13.2330   22.3850 H   0  0  0  0  0  0  0  0  0  0  0  0
  -25.3730  -15.2790   20.2140 N   0  0  0  0  0  0  0  0  0  0  0  0
  -24.6300  -15.9400   20.4230 H   0  0  0  0  0  0  0  0  0  0  0  0
  -26.2100  -15.7180   19.8560 H   0  0  0  0  0  0  0  0  0  0  0  0
  -28.9950  -21.1660   21.9140 N   0  0  0  0  0  4  0  0  0  0  0  0
  -29.4940  -21.4050   22.7530 H   0  0  0  0  0  0  0  0  0  0  0  0
  -28.5410  -20.2780   22.0470 H   0  0  0  0  0  0  0  0  0  0  0  0
  -28.3000  -21.8670   21.7410 H   0  0  0  0  0  0  0  0  0  0  0  0
  -31.7160  -22.3230   19.3900 C   0  0  0  0  0  1  0  0  0  0  0  0
  -30.6560  -22.4330   20.5080 C   0  0  0  0  0  3  0  0  0  0  0  0
  -29.8750  -23.8220   20.4250 C   0  0  0  0  0  2  0  0  0  0  0  0
  -28.9760  -23.5230   18.0210 C   0  0  0  0  0  1  0  0  0  0  0  0
  -27.3710  -23.7010   19.9170 C   0  0  0  0  0  1  0  0  0  0  0  0
  -28.7330  -24.1850   19.3950 C   0  0  1  0  0  0  0  0  0  0  0  0
  -28.6520  -25.7420   19.0990 C   0  0  0  0  0  2  0  0  0  0  0  0
  -28.3420  -26.6870   20.1590 O   0  0  0  0  0  0  0  0  0  0  0  0
  -24.5130  -31.9240   23.2160 C   0  0  0  0  0  0  0  0  0  0  0  0
  -27.1690  -27.4420   20.1250 C   0  0  0  0  0  0  0  0  0  0  0  0
  -23.3120  -30.5160   21.5810 C   0  0  0  0  0  3  0  0  0  0  0  0
  -24.7660  -28.9790   20.1510 C   0  0  0  0  0  0  0  0  0  0  0  0
  -25.8400  -30.8750   21.3730 C   0  0  0  0  0  2  0  0  0  0  0  0
  -25.9290  -29.4970   20.7320 C   0  0  0  0  0  0  0  0  0  0  0  0
  -27.1290  -28.7350   20.7150 C   0  0  0  0  0  3  0  0  0  0  0  0
  -25.9710  -26.9420   19.5640 C   0  0  0  0  0  3  0  0  0  0  0  0
  -24.7830  -27.6980   19.5720 C   0  0  0  0  0  3  0  0  0  0  0  0
  -23.5200  -29.8420   20.2010 C   0  0  0  0  0  2  0  0  0  0  0  0
  -24.5750  -31.1180   22.1170 N   0  0  0  0  0  0  0  0  0  0  0  0
  -23.4320  -32.1940   23.7560 O   0  0  0  0  0  0  0  0  0  0  0  0
  -22.6610  -29.4930   22.5430 C   0  0  0  0  0  0  0  0  0  0  0  0
  -21.3370  -29.3000   22.4150 N   0  0  0  0  0  0  0  0  0  0  0  0
  -23.3480  -28.8770   23.3620 O   0  0  0  0  0  0  0  0  0  0  0  0
  -20.8390  -29.8560   21.7340 H   0  0  0  0  0  0  0  0  0  0  0  0
  -17.9780  -28.0620   22.9030 C   0  0  0  0  0  0  0  0  0  0  0  0
  -20.5290  -28.3590   23.1900 C   0  0  0  0  0  3  0  0  0  0  0  0
  -20.6560  -26.9230   22.6320 C   0  0  0  0  0  2  0  0  0  0  0  0
  -19.5670  -26.5730   21.6130 C   0  0  0  0  0  2  0  0  0  0  0  0
  -18.1770  -26.7090   22.2430 C   0  0  0  0  0  2  0  0  0  0  0  0
  -19.0830  -28.8440   23.3330 C   0  0  0  0  0  0  0  0  0  0  0  0
  -18.8420  -30.1120   23.9090 C   0  0  0  0  0  3  0  0  0  0  0  0
  -17.5300  -30.5990   24.0560 C   0  0  0  0  0  3  0  0  0  0  0  0
  -16.4400  -29.8150   23.6400 C   0  0  0  0  0  3  0  0  0  0  0  0
  -16.6630  -28.5490   23.0710 C   0  0  0  0  0  3  0  0  0  0  0  0
  -25.7960  -32.5670   23.8310 C   0  0  0  0  0  3  0  0  0  0  0  0
  -26.3210  -31.8020   25.1070 C   0  0  1  0  0  0  0  0  0  0  0  0
  -25.2350  -31.5640   26.1830 C   0  0  0  0  0  1  0  0  0  0  0  0
  -26.9080  -30.4270   24.7130 C   0  0  0  0  0  1  0  0  0  0  0  0
  -27.4720  -32.6020   25.7610 C   0  0  0  0  0  1  0  0  0  0  0  0
  -25.4820  -33.9660   24.1560 N   0  0  0  0  0  0  0  0  0  0  0  0
  -25.8060  -35.0150   23.3870 C   0  0  0  0  0  0  0  0  0  0  0  0
  -26.4730  -34.9070   22.3550 O   0  0  0  0  0  0  0  0  0  0  0  0
  -24.8950  -34.1250   24.9610 H   0  0  0  0  0  0  0  0  0  0  0  0
  -24.0690  -36.7970   23.0310 C   0  0  0  0  0  1  0  0  0  0  0  0
  -25.3160  -36.4050   23.8390 C   0  0  0  0  0  3  0  0  0  0  0  0
  -27.4530  -37.3020   24.6490 C   0  0  0  0  0  1  0  0  0  0  0  0
  -26.3430  -37.4610   23.7130 N   0  0  0  0  0  0  0  0  0  0  0  0
  -25.9340  -38.3800   23.8640 H   0  0  0  0  0  0  0  0  0  0  0  0
  1  5  1  0
  1 48  1  0
  2  7  1  0
  3  2  2  0
  4  7  2  0
  4  6  1  0
  5  4  1  0
  8  3  1  0
  8  5  2  0
 11  9  1  6
 11  3  1  0
 11 10  1  0
 12 18  1  0
 12 11  1  0
 13 18  1  0
 14 15  1  0
 14 13  1  0
 16 15  1  0
 16 23  1  0
 16 17  1  0
 18 17  1  0
 19 12  2  0
 20 21  2  0
 21 40  1  0
 22 21  1  0
 22 25  1  0
 23 24  1  0
 23 20  1  0
 24 22  2  0
 25 26  1  0
 26 27  2  0
 28 31  1  0
 28 27  1  0
 29 28  2  0
 30 29  1  0
 30 25  2  0
 31 32  1  0
 32 33  1  0
 33 34  2  0
 35 34  1  0
 35 39  1  0
 36 35  2  0
 37 32  2  0
 37 36  1  0
 38 37  1  0
 40 41  1  0
 41 44  1  0
 41 43  1  0
 42 40  2  0
 45 20  1  0
 45 46  1  0
 47 45  1  0
 48 50  1  0
 48 49  1  0
 51 48  1  0
 53 52  1  0
 53  1  1  0
 54 53  1  0
 57 55  1  6
 57 56  1  0
 57 54  1  0
 58 57  1  0
 58 59  1  0
 60 71  2  0
 61 59  1  0
 61 66  1  0
 62 70  1  0
 62 72  1  0
 63 69  1  0
 63 65  1  0
 64 70  1  0
 65 64  1  0
 66 65  2  0
 67 68  1  0
 67 61  2  0
 68 63  2  0
 69 62  1  0
 70 60  1  0
 72 74  2  0
 73 72  1  0
 75 73  1  0
 76 85  2  0
 76 81  1  0
 77 73  1  0
 77 81  1  0
 78 77  1  0
 79 80  1  0
 79 78  1  0
 80 76  1  0
 81 82  2  0
 82 83  1  0
 84 83  2  0
 85 84  1  0
 86 60  1  0
 86 91  1  0
 86 87  1  0
 87 90  1  1
 87 88  1  0
 89 87  1  0
 91 94  1  0
 92 96  1  0
 92 91  1  0
 93 92  2  0
 96 95  1  0
 98 96  1  0
 98 99  1  0
 98 97  1  0
M  ISO  4  11 100  12 100  58 101  59 101
M  END
>  <TORSDO>  (81) 
F 23

>  <SCORE>  (81) 
-12.715

>  <name>  (81) 
81

>  <ligand_id>  (81) 
81

>  <original_smiles>  (81) 
[H]c1nc(C([H])([H])[H])c(C([H])(C([H])(C([H])([H])[H])C([H])([H])C(C([H])([H])[H])(C([H])([H])[H])C([H])([H])Oc2c([H])c([H])c3c(c2[H])C([H])([H])N(C(=O)C([H])(N([H])C(=O)C([H])(N([H])C([H])([H])[H])C([H])([H])[H])C(C([H])([H])[H])(C([H])([H])[H])C([H])([H])[H])C([H])(C(=O)N([H])C2([H])c4c([H])c([H])c([H])c([H])c4C([H])([H])C([H])([H])C2([H])[H])C3([H])[H])[N+]([H])([H])[H])nc1C(C(=O)N1C([H])([H])C([H])([H])C([H])([H])C([H])(n2nc(-c3c([H])c([H])c(Oc4c([H])c([H])c(F)c([H])c4F)c([H])c3[H])c(C(=O)N([H])[H])c2N([H])[H])C1([H])[H])(C([H])([H])[H])C([H])([H])[H]

>  <smiles>  (81) 
[H]c1nc(C([H])([H])[H])c(C([H])(C([H])(C([H])([H])[H])C([H])([H])C(C([H])([H])[H])(C([H])([H])[H])C([H])([H])Oc2c([H])c([H])c3c(c2[H])C([H])([H])N(C(=O)C([H])(N([H])C(=O)C([H])(N([H])C([H])([H])[H])C([H])([H])[H])C(C([H])([H])[H])(C([H])([H])[H])C([H])([H])[H])C([H])(C(=O)N([H])C2([H])c4c([H])c([H])c([H])c([H])c4C([H])([H])C([H])([H])C2([H])[H])C3([H])[H])[N+]([H])([H])[H])nc1C(C(=O)N1C([H])([H])C([H])([H])C([H])([H])C([H])(n2nc(-c3c([H])c([H])c(Oc4c([H])c([H])c(F)c([H])c4F)c([H])c3[H])c(C(=O)N([H])[H])c2N([H])[H])C1([H])[H])(C([H])([H])[H])C([H])([H])[H]

$$$$
82:0:0
     RDKit          3D

 92100  0  0  1  0  0  0  0  0999 V2000
  -29.8490  -21.1850   20.4330 C   0  0  0  0  0  2  0  0  0  0  0  0
  -29.1330  -17.2440   18.8760 C   0  0  0  0  0  3  0  0  0  0  0  0
  -28.6710  -18.4190   18.2710 C   0  0  0  0  0  3  0  0  0  0  0  0
  -29.7810  -17.3460   20.1150 C   0  0  0  0  0  0  0  0  0  0  0  0
  -29.4550  -19.7160   19.9980 C   0  0  0  0  0  0  0  0  0  0  0  0
  -28.8440  -19.6350   18.8230 N   0  0  0  0  0  0  0  0  0  0  0  0
  -29.9010  -18.6160   20.6670 N   0  0  0  0  0  0  0  0  0  0  0  0
  -31.4980  -16.4090   21.7240 C   0  0  0  0  0  1  0  0  0  0  0  0
  -29.1210  -15.8430   22.0150 C   0  0  0  0  0  1  0  0  0  0  0  0
  -30.2050  -16.0490   20.9410 C   0  0  1  0  0  0  0  0  0  0  0  0
  -30.6000  -14.7040   20.0990 C   0  0  0  0  0  0  0  0  0  0  0  0
  -30.2460  -12.5170   18.9080 C   0  0  0  0  0  2  0  0  0  0  0  0
  -29.2300  -12.6810   17.7550 C   0  0  0  0  0  2  0  0  0  0  0  0
  -27.7870  -12.4930   18.2650 C   0  0  0  0  0  2  0  0  0  0  0  0
  -27.5200  -13.2910   19.5660 C   0  0  0  0  0  3  0  0  0  0  0  0
  -28.6480  -13.0670   20.5930 C   0  0  0  0  0  2  0  0  0  0  0  0
  -29.9090  -13.5040   19.9740 N   0  0  0  0  0  0  0  0  0  0  0  0
  -31.6690  -14.7810   19.4800 O   0  0  0  0  0  0  0  0  0  0  0  0
  -25.1770  -13.8620   20.4430 C   0  0  0  0  0  0  0  0  0  0  0  0
  -24.1380  -13.0790   20.8620 C   0  0  0  0  0  0  0  0  0  0  0  0
  -24.5990  -11.7290   20.7720 C   0  0  0  0  0  0  0  0  0  0  0  0
  -26.2060  -12.9910   20.1230 N   0  0  0  0  0  0  0  0  0  0  0  0
  -25.8660  -11.7010   20.3790 N   0  0  0  0  0  0  0  0  0  0  0  0
  -23.8870  -10.4620   20.9840 C   0  0  0  0  0  0  0  0  0  0  0  0
  -24.3530   -9.4970   21.9040 C   0  0  0  0  0  3  0  0  0  0  0  0
  -23.6420   -8.2940   22.1020 C   0  0  0  0  0  3  0  0  0  0  0  0
  -22.4500   -8.0470   21.3790 C   0  0  0  0  0  0  0  0  0  0  0  0
  -22.0030   -9.0020   20.4490 C   0  0  0  0  0  3  0  0  0  0  0  0
  -22.7150  -10.1960   20.2490 C   0  0  0  0  0  3  0  0  0  0  0  0
  -21.7060   -6.8970   21.4860 O   0  0  0  0  0  0  0  0  0  0  0  0
  -21.6670   -6.1710   22.6510 C   0  0  0  0  0  0  0  0  0  0  0  0
  -21.2500   -6.7430   23.8730 C   0  0  0  0  0  3  0  0  0  0  0  0
  -21.1590   -5.9430   25.0280 C   0  0  0  0  0  3  0  0  0  0  0  0
  -21.4750   -4.5720   24.9650 C   0  0  0  0  0  0  0  0  0  0  0  0
  -21.8860   -4.0010   23.7480 C   0  0  0  0  0  3  0  0  0  0  0  0
  -21.9780   -4.7980   22.5940 C   0  0  0  0  0  0  0  0  0  0  0  0
  -22.3530   -4.2360   21.4190 F   0  0  0  0  0  0  0  0  0  0  0  0
  -21.3810   -3.8020   26.0740 F   0  0  0  0  0  0  0  0  0  0  0  0
  -22.7600  -13.5460   21.2340 C   0  0  0  0  0  0  0  0  0  0  0  0
  -22.0920  -12.8300   22.1320 N   0  0  0  0  0  0  0  0  0  0  0  0
  -22.2870  -14.5800   20.7620 O   0  0  0  0  0  0  0  0  0  0  0  0
  -22.4930  -11.9980   22.5370 H   0  0  0  0  0  0  0  0  0  0  0  0
  -21.1680  -13.1200   22.4180 H   0  0  0  0  0  0  0  0  0  0  0  0
  -25.3250  -15.2380   20.2860 N   0  0  0  0  0  0  0  0  0  0  0  0
  -24.5640  -15.8810   20.4700 H   0  0  0  0  0  0  0  0  0  0  0  0
  -26.1470  -15.6910   19.9080 H   0  0  0  0  0  0  0  0  0  0  0  0
  -28.7440  -22.3240   20.6790 C   0  0  0  0  0  3  0  0  0  0  0  0
  -29.0590  -23.8620   20.2790 C   0  0  0  0  0  3  0  0  0  0  0  0
  -28.8110  -25.4020   22.3040 C   0  0  0  0  0  1  0  0  0  0  0  0
  -26.7680  -24.5740   21.1450 C   0  0  0  0  0  1  0  0  0  0  0  0
  -28.2160  -25.0820   20.9200 C   0  0  2  0  0  0  0  0  0  0  0  0
  -28.3180  -26.4090   20.2040 O   0  0  0  0  0  0  0  0  0  0  0  0
  -24.6310  -31.8760   23.2220 C   0  0  0  0  0  0  0  0  0  0  0  0
  -27.2310  -27.3070   20.1720 C   0  0  0  0  0  0  0  0  0  0  0  0
  -23.4290  -30.4780   21.5830 C   0  0  0  0  0  3  0  0  0  0  0  0
  -24.8790  -28.9380   20.1450 C   0  0  0  0  0  0  0  0  0  0  0  0
  -25.9680  -30.7950   21.4000 C   0  0  0  0  0  2  0  0  0  0  0  0
  -26.0470  -29.4170   20.7550 C   0  0  0  0  0  0  0  0  0  0  0  0
  -27.2260  -28.6080   20.7700 C   0  0  0  0  0  3  0  0  0  0  0  0
  -26.0640  -26.9200   19.4790 C   0  0  0  0  0  3  0  0  0  0  0  0
  -24.8900  -27.6950   19.4970 C   0  0  0  0  0  3  0  0  0  0  0  0
  -23.6390  -29.8080   20.1990 C   0  0  0  0  0  2  0  0  0  0  0  0
  -24.6940  -31.0690   22.1230 N   0  0  0  0  0  0  0  0  0  0  0  0
  -23.5480  -32.1500   23.7590 O   0  0  0  0  0  0  0  0  0  0  0  0
  -22.7730  -29.4560   22.5430 C   0  0  0  0  0  0  0  0  0  0  0  0
  -21.4470  -29.2750   22.4230 N   0  0  0  0  0  0  0  0  0  0  0  0
  -23.4580  -28.8290   23.3570 O   0  0  0  0  0  0  0  0  0  0  0  0
  -20.9550  -29.8260   21.7340 H   0  0  0  0  0  0  0  0  0  0  0  0
  -18.0740  -28.0750   22.9430 C   0  0  0  0  0  0  0  0  0  0  0  0
  -20.6340  -28.3350   23.1970 C   0  0  0  0  0  3  0  0  0  0  0  0
  -20.7330  -26.9060   22.6150 C   0  0  0  0  0  2  0  0  0  0  0  0
  -19.6240  -26.5870   21.6070 C   0  0  0  0  0  2  0  0  0  0  0  0
  -18.2460  -26.7290   22.2610 C   0  0  0  0  0  2  0  0  0  0  0  0
  -19.1950  -28.8370   23.3680 C   0  0  0  0  0  0  0  0  0  0  0  0
  -18.9780  -30.0970   23.9650 C   0  0  0  0  0  3  0  0  0  0  0  0
  -17.6740  -30.5970   24.1440 C   0  0  0  0  0  3  0  0  0  0  0  0
  -16.5680  -29.8320   23.7340 C   0  0  0  0  0  3  0  0  0  0  0  0
  -16.7680  -28.5740   23.1380 C   0  0  0  0  0  3  0  0  0  0  0  0
  -25.9140  -32.5090   23.8420 C   0  0  0  0  0  3  0  0  0  0  0  0
  -25.6020  -33.9070   24.1720 N   0  0  0  0  0  0  0  0  0  0  0  0
  -25.9390  -34.9620   23.4170 C   0  0  0  0  0  0  0  0  0  0  0  0
  -26.6130  -34.8600   22.3890 O   0  0  0  0  0  0  0  0  0  0  0  0
  -24.9970  -34.0610   24.9660 H   0  0  0  0  0  0  0  0  0  0  0  0
  -24.2150  -36.7600   23.0610 C   0  0  0  0  0  1  0  0  0  0  0  0
  -25.4510  -36.3500   23.8770 C   0  0  0  0  0  3  0  0  0  0  0  0
  -27.5840  -37.2300   24.7170 C   0  0  0  0  0  1  0  0  0  0  0  0
  -26.4860  -37.4000   23.7690 N   0  0  0  0  0  0  0  0  0  0  0  0
  -26.0800  -38.3220   23.9110 H   0  0  0  0  0  0  0  0  0  0  0  0
  -26.4330  -31.7390   25.1190 C   0  0  1  0  0  0  0  0  0  0  0  0
  -25.3400  -31.5020   26.1870 C   0  0  0  0  0  1  0  0  0  0  0  0
  -27.0160  -30.3610   24.7310 C   0  0  0  0  0  1  0  0  0  0  0  0
  -27.5830  -32.5360   25.7770 C   0  0  0  0  0  1  0  0  0  0  0  0
  1 47  1  0
  2  4  1  0
  3  6  1  0
  3  2  2  0
  4  7  2  0
  4 10  1  0
  5  1  1  0
  5  7  1  0
  6  5  2  0
 10  8  1  1
 10  9  1  0
 11 10  1  0
 12 17  1  0
 13 14  1  0
 13 12  1  0
 15 14  1  0
 15 22  1  0
 15 16  1  0
 17 11  1  0
 17 16  1  0
 18 11  2  0
 19 20  2  0
 20 39  1  0
 21 20  1  0
 21 24  1  0
 22 23  1  0
 22 19  1  0
 23 21  2  0
 24 25  1  0
 25 26  2  0
 27 30  1  0
 27 26  1  0
 28 27  2  0
 29 28  1  0
 29 24  2  0
 30 31  1  0
 31 32  1  0
 32 33  2  0
 34 33  1  0
 34 38  1  0
 35 34  2  0
 36 31  2  0
 36 35  1  0
 37 36  1  0
 39 40  1  0
 40 43  1  0
 40 42  1  0
 41 39  2  0
 44 19  1  0
 44 45  1  0
 46 44  1  0
 48 47  2  0
 48 51  1  0
 51 50  1  1
 51 49  1  0
 52 51  1  0
 53 64  2  0
 54 52  1  0
 54 59  1  0
 55 63  1  0
 55 65  1  0
 56 62  1  0
 56 58  1  0
 57 63  1  0
 58 59  2  0
 58 57  1  0
 60 61  1  0
 60 54  2  0
 61 56  2  0
 62 55  1  0
 63 53  1  0
 65 67  2  0
 66 65  1  0
 68 66  1  0
 69 78  2  0
 69 74  1  0
 70 66  1  0
 70 74  1  0
 71 70  1  0
 72 73  1  0
 72 71  1  0
 73 69  1  0
 74 75  2  0
 75 76  1  0
 77 76  2  0
 78 77  1  0
 79 53  1  0
 79 80  1  0
 79 89  1  0
 80 83  1  0
 81 85  1  0
 81 80  1  0
 82 81  2  0
 85 84  1  0
 87 85  1  0
 87 88  1  0
 87 86  1  0
 89 92  1  1
 89 90  1  0
 91 89  1  0
M  ISO  4  10 100  11 100  51 101  52 101
M  END
>  <TORSDO>  (82) 
F 21

>  <SCORE>  (82) 
-12.348

>  <name>  (82) 
82

>  <ligand_id>  (82) 
82

>  <original_smiles>  (82) 
[H]c1nc(C([H])([H])C([H])([H])C([H])([H])C(Oc2c([H])c([H])c3c(c2[H])C([H])([H])N(C(=O)C([H])(N([H])C(=O)C([H])(N([H])C([H])([H])[H])C([H])([H])[H])C(C([H])([H])[H])(C([H])([H])[H])C([H])([H])[H])C([H])(C(=O)N([H])C2([H])c4c([H])c([H])c([H])c([H])c4C([H])([H])C([H])([H])C2([H])[H])C3([H])[H])(C([H])([H])[H])C([H])([H])[H])nc(C(C(=O)N2C([H])([H])C([H])([H])C([H])([H])C([H])(n3nc(-c4c([H])c([H])c(Oc5c([H])c([H])c(F)c([H])c5F)c([H])c4[H])c(C(=O)N([H])[H])c3N([H])[H])C2([H])[H])(C([H])([H])[H])C([H])([H])[H])c1[H]

>  <smiles>  (82) 
[H]c1nc(C([H])([H])C([H])([H])C([H])([H])C(Oc2c([H])c([H])c3c(c2[H])C([H])([H])N(C(=O)C([H])(N([H])C(=O)C([H])(N([H])C([H])([H])[H])C([H])([H])[H])C(C([H])([H])[H])(C([H])([H])[H])C([H])([H])[H])C([H])(C(=O)N([H])C2([H])c4c([H])c([H])c([H])c([H])c4C([H])([H])C([H])([H])C2([H])[H])C3([H])[H])(C([H])([H])[H])C([H])([H])[H])nc(C(C(=O)N2C([H])([H])C([H])([H])C([H])([H])C([H])(n3nc(-c4c([H])c([H])c(Oc5c([H])c([H])c(F)c([H])c5F)c([H])c4[H])c(C(=O)N([H])[H])c3N([H])[H])C2([H])[H])(C([H])([H])[H])C([H])([H])[H])c1[H]

$$$$
83:0:0
     RDKit          3D

 88 96  0  0  1  0  0  0  0  0999 V2000
  -28.8890  -22.2670   20.5660 C   0  0  0  0  0  2  0  0  0  0  0  0
  -28.9690  -20.8820   18.3590 C   0  0  0  0  0  1  0  0  0  0  0  0
  -29.6000  -21.0540   19.7530 C   0  0  0  0  0  3  0  0  0  0  0  0
  -30.0260  -17.5460   20.6660 C   0  0  0  0  0  0  0  0  0  0  0  0
  -30.9050  -18.1750   21.5110 N   0  0  0  0  0  0  0  0  0  0  0  0
  -29.3220  -18.4620   19.9580 N   0  0  0  0  0  2  0  0  0  0  0  0
  -30.7970  -19.4690   21.3270 N   0  0  0  0  0  2  0  0  0  0  0  0
  -29.8320  -19.6790   20.3980 N   0  0  0  0  0  0  0  0  0  0  0  0
  -29.6310  -16.0270   20.7880 C   0  0  0  0  0  2  0  0  0  0  0  0
  -30.5320  -14.7670   20.3460 C   0  0  0  0  0  0  0  0  0  0  0  0
  -30.3830  -12.4990   19.2780 C   0  0  0  0  0  2  0  0  0  0  0  0
  -29.4130  -12.5920   18.0740 C   0  0  0  0  0  2  0  0  0  0  0  0
  -27.9460  -12.4060   18.5160 C   0  0  0  0  0  2  0  0  0  0  0  0
  -27.5920  -13.2680   19.7550 C   0  0  0  0  0  3  0  0  0  0  0  0
  -28.6690  -13.1340   20.8550 C   0  0  0  0  0  2  0  0  0  0  0  0
  -29.9650  -13.5120   20.2720 N   0  0  0  0  0  0  0  0  0  0  0  0
  -31.6940  -14.9270   19.9470 O   0  0  0  0  0  0  0  0  0  0  0  0
  -25.2190  -13.8700   20.5210 C   0  0  0  0  0  0  0  0  0  0  0  0
  -24.1550  -13.0980   20.9040 C   0  0  0  0  0  0  0  0  0  0  0  0
  -24.6150  -11.7460   20.8660 C   0  0  0  0  0  0  0  0  0  0  0  0
  -26.2540  -12.9870   20.2640 N   0  0  0  0  0  0  0  0  0  0  0  0
  -25.9010  -11.7040   20.5350 N   0  0  0  0  0  0  0  0  0  0  0  0
  -23.8880  -10.4860   21.0660 C   0  0  0  0  0  0  0  0  0  0  0  0
  -24.3440   -9.5100   21.9790 C   0  0  0  0  0  3  0  0  0  0  0  0
  -23.6210   -8.3110   22.1640 C   0  0  0  0  0  3  0  0  0  0  0  0
  -22.4290   -8.0830   21.4370 C   0  0  0  0  0  0  0  0  0  0  0  0
  -21.9930   -9.0490   20.5130 C   0  0  0  0  0  3  0  0  0  0  0  0
  -22.7150  -10.2390   20.3260 C   0  0  0  0  0  3  0  0  0  0  0  0
  -21.6730   -6.9390   21.5340 O   0  0  0  0  0  0  0  0  0  0  0  0
  -21.6690   -6.1750   22.6740 C   0  0  0  0  0  0  0  0  0  0  0  0
  -21.3000   -6.7100   23.9270 C   0  0  0  0  0  3  0  0  0  0  0  0
  -21.2410   -5.8730   25.0600 C   0  0  0  0  0  3  0  0  0  0  0  0
  -21.5400   -4.5030   24.9400 C   0  0  0  0  0  0  0  0  0  0  0  0
  -21.9040   -3.9670   23.6920 C   0  0  0  0  0  3  0  0  0  0  0  0
  -21.9650   -4.8020   22.5610 C   0  0  0  0  0  0  0  0  0  0  0  0
  -22.2960   -4.2760   21.3560 F   0  0  0  0  0  0  0  0  0  0  0  0
  -21.4750   -3.6970   26.0250 F   0  0  0  0  0  0  0  0  0  0  0  0
  -22.7630  -13.5780   21.1950 C   0  0  0  0  0  0  0  0  0  0  0  0
  -22.0470  -12.8820   22.0710 N   0  0  0  0  0  0  0  0  0  0  0  0
  -22.3170  -14.6040   20.6830 O   0  0  0  0  0  0  0  0  0  0  0  0
  -22.4190  -12.0510   22.5060 H   0  0  0  0  0  0  0  0  0  0  0  0
  -21.1130  -13.1840   22.3110 H   0  0  0  0  0  0  0  0  0  0  0  0
  -25.3840  -15.2420   20.3460 N   0  0  0  0  0  0  0  0  0  0  0  0
  -24.6190  -15.8960   20.4670 H   0  0  0  0  0  0  0  0  0  0  0  0
  -26.2190  -15.6770   19.9770 H   0  0  0  0  0  0  0  0  0  0  0  0
  -28.9040  -23.7780   19.9520 C   0  0  0  0  0  3  0  0  0  0  0  0
  -28.1470  -25.0050   20.6830 C   0  0  0  0  0  3  0  0  0  0  0  0
  -28.3310  -26.4280   20.2340 O   0  0  0  0  0  0  0  0  0  0  0  0
  -24.5980  -31.8790   23.2490 C   0  0  0  0  0  0  0  0  0  0  0  0
  -27.2200  -27.2980   20.2150 C   0  0  0  0  0  0  0  0  0  0  0  0
  -23.3990  -30.4750   21.6100 C   0  0  0  0  0  3  0  0  0  0  0  0
  -24.8570  -28.9240   20.1840 C   0  0  0  0  0  0  0  0  0  0  0  0
  -25.9390  -30.7970   21.4280 C   0  0  0  0  0  2  0  0  0  0  0  0
  -26.0250  -29.4140   20.7850 C   0  0  0  0  0  0  0  0  0  0  0  0
  -27.2110  -28.6130   20.7880 C   0  0  0  0  0  3  0  0  0  0  0  0
  -26.0320  -26.8720   19.5850 C   0  0  0  0  0  3  0  0  0  0  0  0
  -24.8650  -27.6610   19.5740 C   0  0  0  0  0  3  0  0  0  0  0  0
  -23.6150  -29.7960   20.2320 C   0  0  0  0  0  2  0  0  0  0  0  0
  -24.6650  -31.0680   22.1530 N   0  0  0  0  0  0  0  0  0  0  0  0
  -23.5150  -32.1550   23.7830 O   0  0  0  0  0  0  0  0  0  0  0  0
  -22.7360  -29.4610   22.5720 C   0  0  0  0  0  0  0  0  0  0  0  0
  -21.4110  -29.2790   22.4430 N   0  0  0  0  0  0  0  0  0  0  0  0
  -23.4150  -28.8380   23.3930 O   0  0  0  0  0  0  0  0  0  0  0  0
  -20.9210  -29.8330   21.7530 H   0  0  0  0  0  0  0  0  0  0  0  0
  -18.0370  -28.0690   22.9310 C   0  0  0  0  0  0  0  0  0  0  0  0
  -20.5930  -28.3410   23.2130 C   0  0  0  0  0  3  0  0  0  0  0  0
  -20.7050  -26.9070   22.6420 C   0  0  0  0  0  2  0  0  0  0  0  0
  -19.6100  -26.5780   21.6230 C   0  0  0  0  0  2  0  0  0  0  0  0
  -18.2230  -26.7200   22.2590 C   0  0  0  0  0  2  0  0  0  0  0  0
  -19.1500  -28.8380   23.3640 C   0  0  0  0  0  0  0  0  0  0  0  0
  -18.9220  -30.1020   23.9490 C   0  0  0  0  0  3  0  0  0  0  0  0
  -17.6140  -30.5970   24.1060 C   0  0  0  0  0  3  0  0  0  0  0  0
  -16.5150  -29.8250   23.6890 C   0  0  0  0  0  3  0  0  0  0  0  0
  -16.7280  -28.5630   23.1070 C   0  0  0  0  0  3  0  0  0  0  0  0
  -25.8800  -32.5140   23.8720 C   0  0  0  0  0  3  0  0  0  0  0  0
  -25.5710  -33.9140   24.1980 N   0  0  0  0  0  0  0  0  0  0  0  0
  -25.9060  -34.9640   23.4380 C   0  0  0  0  0  0  0  0  0  0  0  0
  -26.5760  -34.8560   22.4080 O   0  0  0  0  0  0  0  0  0  0  0  0
  -24.9720  -34.0720   24.9960 H   0  0  0  0  0  0  0  0  0  0  0  0
  -24.1780  -36.7560   23.0800 C   0  0  0  0  0  1  0  0  0  0  0  0
  -25.4200  -36.3540   23.8910 C   0  0  0  0  0  3  0  0  0  0  0  0
  -27.5580  -37.2390   24.7130 C   0  0  0  0  0  1  0  0  0  0  0  0
  -26.4540  -37.4060   23.7730 N   0  0  0  0  0  0  0  0  0  0  0  0
  -26.0470  -38.3260   23.9220 H   0  0  0  0  0  0  0  0  0  0  0  0
  -26.3930  -31.7460   25.1530 C   0  0  1  0  0  0  0  0  0  0  0  0
  -25.2970  -31.5160   26.2200 C   0  0  0  0  0  1  0  0  0  0  0  0
  -26.9740  -30.3660   24.7700 C   0  0  0  0  0  1  0  0  0  0  0  0
  -27.5450  -32.5400   25.8140 C   0  0  0  0  0  1  0  0  0  0  0  0
  3  2  1  0
  3  8  1  0
  3  1  1  0
  4  9  1  0
  4  5  2  0
  6  8  1  0
  6  4  1  0
  7  5  1  0
  8  7  1  0
 10  9  1  0
 11 16  1  0
 12 13  1  0
 12 11  1  0
 14 13  1  0
 14 21  1  0
 14 15  1  0
 16 10  1  0
 16 15  1  0
 17 10  2  0
 18 19  2  0
 19 38  1  0
 20 19  1  0
 20 23  1  0
 21 18  1  0
 21 22  1  0
 22 20  2  0
 23 24  1  0
 24 25  2  0
 26 29  1  0
 26 25  1  0
 27 26  2  0
 28 27  1  0
 28 23  2  0
 29 30  1  0
 30 31  1  0
 31 32  2  0
 33 32  1  0
 33 37  1  0
 34 33  2  0
 35 30  2  0
 35 34  1  0
 36 35  1  0
 38 39  1  0
 39 42  1  0
 39 41  1  0
 40 38  2  0
 43 44  1  0
 43 18  1  0
 45 43  1  0
 46  1  1  0
 46 47  2  0
 48 47  1  0
 49 60  2  0
 50 48  1  0
 50 55  1  0
 51 59  1  0
 51 61  1  0
 52 58  1  0
 52 54  1  0
 53 59  1  0
 54 55  2  0
 54 53  1  0
 56 50  2  0
 57 56  1  0
 57 52  2  0
 58 51  1  0
 59 49  1  0
 61 63  2  0
 62 61  1  0
 64 62  1  0
 65 74  2  0
 65 70  1  0
 66 62  1  0
 66 70  1  0
 67 66  1  0
 68 69  1  0
 68 67  1  0
 69 65  1  0
 70 71  2  0
 71 72  1  0
 73 72  2  0
 74 73  1  0
 75 49  1  0
 75 76  1  0
 75 85  1  0
 76 79  1  0
 77 81  1  0
 77 76  1  0
 78 77  2  0
 81 80  1  0
 83 81  1  0
 83 84  1  0
 83 82  1  0
 85 88  1  1
 85 86  1  0
 87 85  1  0
M  ISO  4   9 100  10 100  47 101  48 101
M  END
>  <TORSDO>  (83) 
F 21

>  <SCORE>  (83) 
-13.512

>  <name>  (83) 
83

>  <ligand_id>  (83) 
83

>  <original_smiles>  (83) 
[H]c1c([H])c([H])c2c(c1[H])C([H])([H])C([H])([H])C([H])([H])C2([H])N([H])C(=O)C1([H])N(C(=O)C([H])(N([H])C(=O)C([H])(N([H])C([H])([H])[H])C([H])([H])[H])C(C([H])([H])[H])(C([H])([H])[H])C([H])([H])[H])C([H])([H])c2c([H])c(OC([H])([H])C([H])([H])C([H])([H])C([H])(n3nnc(C([H])([H])C(=O)N4C([H])([H])C([H])([H])C([H])([H])C([H])(n5nc(-c6c([H])c([H])c(Oc7c([H])c([H])c(F)c([H])c7F)c([H])c6[H])c(C(=O)N([H])[H])c5N([H])[H])C4([H])[H])n3)C([H])([H])[H])c([H])c([H])c2C1([H])[H]

>  <smiles>  (83) 
[H]c1c([H])c([H])c2c(c1[H])C([H])([H])C([H])([H])C([H])([H])C2([H])N([H])C(=O)C1([H])N(C(=O)C([H])(N([H])C(=O)C([H])(N([H])C([H])([H])[H])C([H])([H])[H])C(C([H])([H])[H])(C([H])([H])[H])C([H])([H])[H])C([H])([H])c2c([H])c(OC([H])([H])C([H])([H])C([H])([H])C([H])(n3nnc(C([H])([H])C(=O)N4C([H])([H])C([H])([H])C([H])([H])C([H])(n5nc(-c6c([H])c([H])c(Oc7c([H])c([H])c(F)c([H])c7F)c([H])c6[H])c(C(=O)N([H])[H])c5N([H])[H])C4([H])[H])n3)C([H])([H])[H])c([H])c([H])c2C1([H])[H]

$$$$
84:0:0
     RDKit          3D

 91 99  0  0  1  0  0  0  0  0999 V2000
  -27.2230  -21.8990   21.4760 C   0  0  0  0  0  1  0  0  0  0  0  0
  -28.6250  -22.0360   20.8420 C   0  0  0  0  0  3  0  0  0  0  0  0
  -30.5900  -15.0340   20.2890 C   0  0  0  0  0  0  0  0  0  0  0  0
  -30.5050  -12.7040   19.3190 C   0  0  0  0  0  2  0  0  0  0  0  0
  -29.5480  -12.7060   18.1000 C   0  0  0  0  0  2  0  0  0  0  0  0
  -28.0840  -12.5020   18.5420 C   0  0  0  0  0  2  0  0  0  0  0  0
  -27.6980  -13.3910   19.7530 C   0  0  0  0  0  3  0  0  0  0  0  0
  -28.7700  -13.3390   20.8620 C   0  0  0  0  0  2  0  0  0  0  0  0
  -30.0420  -13.7580   20.2550 N   0  0  0  0  0  0  0  0  0  0  0  0
  -31.7870  -15.1710   20.0090 O   0  0  0  0  0  0  0  0  0  0  0  0
  -28.1950  -19.6090   19.7380 C   0  0  0  0  0  3  0  0  0  0  0  0
  -28.4580  -18.1930   19.7220 C   0  0  0  0  0  3  0  0  0  0  0  0
  -29.0860  -20.5240   20.3670 C   0  0  0  0  0  0  0  0  0  0  0  0
  -29.6370  -17.6160   20.2930 C   0  0  0  0  0  0  0  0  0  0  0  0
  -30.2300  -19.9210   20.8660 N   0  0  0  0  0  0  0  0  0  0  0  0
  -30.5020  -18.5640   20.8090 N   0  0  0  0  0  0  0  0  0  0  0  0
  -29.6830  -16.1050   20.4070 N   0  0  0  0  0  0  0  0  0  0  0  0
  -28.7580  -15.7260   20.5030 H   0  0  0  0  0  0  0  0  0  0  0  0
  -25.3290  -13.9700   20.5390 C   0  0  0  0  0  0  0  0  0  0  0  0
  -24.2700  -13.1940   20.9160 C   0  0  0  0  0  0  0  0  0  0  0  0
  -24.7310  -11.8420   20.8560 C   0  0  0  0  0  0  0  0  0  0  0  0
  -26.3660  -13.0930   20.2660 N   0  0  0  0  0  0  0  0  0  0  0  0
  -26.0150  -11.8060   20.5210 N   0  0  0  0  0  0  0  0  0  0  0  0
  -24.0090  -10.5780   21.0400 C   0  0  0  0  0  0  0  0  0  0  0  0
  -24.4420   -9.6070   21.9700 C   0  0  0  0  0  3  0  0  0  0  0  0
  -23.7190   -8.4070   22.1410 C   0  0  0  0  0  3  0  0  0  0  0  0
  -22.5450   -8.1720   21.3850 C   0  0  0  0  0  0  0  0  0  0  0  0
  -22.1320   -9.1330   20.4460 C   0  0  0  0  0  3  0  0  0  0  0  0
  -22.8550  -10.3230   20.2720 C   0  0  0  0  0  3  0  0  0  0  0  0
  -21.7910   -7.0270   21.4690 O   0  0  0  0  0  0  0  0  0  0  0  0
  -21.7330   -6.2850   22.6220 C   0  0  0  0  0  0  0  0  0  0  0  0
  -21.2610   -6.8310   23.8370 C   0  0  0  0  0  3  0  0  0  0  0  0
  -21.1470   -6.0120   24.9800 C   0  0  0  0  0  3  0  0  0  0  0  0
  -21.4970   -4.6510   24.9100 C   0  0  0  0  0  0  0  0  0  0  0  0
  -21.9620   -4.1050   23.7000 C   0  0  0  0  0  3  0  0  0  0  0  0
  -22.0750   -4.9200   22.5600 C   0  0  0  0  0  0  0  0  0  0  0  0
  -22.5030   -4.3820   21.3930 F   0  0  0  0  0  0  0  0  0  0  0  0
  -21.3820   -3.8640   26.0060 F   0  0  0  0  0  0  0  0  0  0  0  0
  -22.8770  -13.6670   21.2140 C   0  0  0  0  0  0  0  0  0  0  0  0
  -22.1590  -12.9590   22.0770 N   0  0  0  0  0  0  0  0  0  0  0  0
  -22.4340  -14.7030   20.7160 O   0  0  0  0  0  0  0  0  0  0  0  0
  -22.5260  -12.1210   22.5040 H   0  0  0  0  0  0  0  0  0  0  0  0
  -21.2230  -13.2600   22.3120 H   0  0  0  0  0  0  0  0  0  0  0  0
  -25.4880  -15.3450   20.3810 N   0  0  0  0  0  0  0  0  0  0  0  0
  -24.7160  -15.9880   20.5160 H   0  0  0  0  0  0  0  0  0  0  0  0
  -26.3120  -15.7960   20.0090 H   0  0  0  0  0  0  0  0  0  0  0  0
  -27.9110  -23.2980   18.6900 C   0  0  0  0  0  1  0  0  0  0  0  0
  -30.1900  -23.7040   19.6440 C   0  0  0  0  0  1  0  0  0  0  0  0
  -28.7080  -23.4840   19.9930 C   0  0  2  0  0  0  0  0  0  0  0  0
  -28.1390  -24.9080   20.6840 C   0  0  0  0  0  2  0  0  0  0  0  0
  -28.3410  -26.3660   20.2100 O   0  0  0  0  0  0  0  0  0  0  0  0
  -24.6230  -31.9590   23.2120 C   0  0  0  0  0  0  0  0  0  0  0  0
  -27.2620  -27.3060   20.1960 C   0  0  0  0  0  0  0  0  0  0  0  0
  -23.4410  -30.5470   21.5720 C   0  0  0  0  0  3  0  0  0  0  0  0
  -24.9110  -28.9930   20.1520 C   0  0  0  0  0  0  0  0  0  0  0  0
  -25.9890  -30.8570   21.4060 C   0  0  0  0  0  2  0  0  0  0  0  0
  -26.0820  -29.4670   20.7590 C   0  0  0  0  0  0  0  0  0  0  0  0
  -27.2630  -28.6390   20.7610 C   0  0  0  0  0  3  0  0  0  0  0  0
  -26.0710  -26.9230   19.5490 C   0  0  0  0  0  3  0  0  0  0  0  0
  -24.9180  -27.7330   19.5320 C   0  0  0  0  0  3  0  0  0  0  0  0
  -23.6720  -29.8680   20.1950 C   0  0  0  0  0  2  0  0  0  0  0  0
  -24.7040  -31.1420   22.1190 N   0  0  0  0  0  0  0  0  0  0  0  0
  -23.5350  -32.2310   23.7400 O   0  0  0  0  0  0  0  0  0  0  0  0
  -22.7760  -29.5310   22.5340 C   0  0  0  0  0  0  0  0  0  0  0  0
  -21.4470  -29.3570   22.4210 N   0  0  0  0  0  0  0  0  0  0  0  0
  -23.4570  -28.9000   23.3450 O   0  0  0  0  0  0  0  0  0  0  0  0
  -20.9500  -29.9370   21.7590 H   0  0  0  0  0  0  0  0  0  0  0  0
  -18.0750  -28.1440   22.9240 C   0  0  0  0  0  0  0  0  0  0  0  0
  -20.6340  -28.4080   23.1850 C   0  0  0  0  0  3  0  0  0  0  0  0
  -20.7350  -26.9810   22.5960 C   0  0  0  0  0  2  0  0  0  0  0  0
  -19.6360  -26.6740   21.5760 C   0  0  0  0  0  2  0  0  0  0  0  0
  -18.2530  -26.8070   22.2190 C   0  0  0  0  0  2  0  0  0  0  0  0
  -19.1940  -28.9030   23.3580 C   0  0  0  0  0  0  0  0  0  0  0  0
  -18.9740  -30.1590   23.9670 C   0  0  0  0  0  3  0  0  0  0  0  0
  -17.6690  -30.6550   24.1400 C   0  0  0  0  0  3  0  0  0  0  0  0
  -16.5660  -29.8920   23.7240 C   0  0  0  0  0  3  0  0  0  0  0  0
  -16.7700  -28.6360   23.1240 C   0  0  0  0  0  3  0  0  0  0  0  0
  -25.8930  -32.6050   23.8450 C   0  0  0  0  0  3  0  0  0  0  0  0
  -25.5700  -34.0020   24.1710 N   0  0  0  0  0  0  0  0  0  0  0  0
  -25.9020  -35.0600   23.4180 C   0  0  0  0  0  0  0  0  0  0  0  0
  -26.5780  -34.9620   22.3900 O   0  0  0  0  0  0  0  0  0  0  0  0
  -24.9690  -34.1500   24.9680 H   0  0  0  0  0  0  0  0  0  0  0  0
  -24.1730  -36.8510   23.0460 C   0  0  0  0  0  1  0  0  0  0  0  0
  -25.4030  -36.4450   23.8740 C   0  0  0  0  0  3  0  0  0  0  0  0
  -27.5200  -37.3400   24.7410 C   0  0  0  0  0  1  0  0  0  0  0  0
  -26.4340  -37.5010   23.7790 N   0  0  0  0  0  0  0  0  0  0  0  0
  -26.0230  -38.4210   23.9160 H   0  0  0  0  0  0  0  0  0  0  0  0
  -26.4040  -31.8460   25.1310 C   0  0  1  0  0  0  0  0  0  0  0  0
  -25.2990  -31.6120   26.1890 C   0  0  0  0  0  1  0  0  0  0  0  0
  -27.0020  -30.4690   24.7560 C   0  0  0  0  0  1  0  0  0  0  0  0
  -27.5410  -32.6520   25.8020 C   0  0  0  0  0  1  0  0  0  0  0  0
  2  1  1  0
  3 17  1  0
  4  9  1  0
  5  6  1  0
  5  4  1  0
  7  6  1  0
  7 22  1  0
  7  8  1  0
  9  3  1  0
  9  8  1  0
 10  3  2  0
 11 13  1  0
 12 11  2  0
 12 14  1  0
 13  2  1  0
 13 15  2  0
 14 17  1  0
 14 16  2  0
 16 15  1  0
 17 18  1  0
 19 20  2  0
 20 39  1  0
 21 20  1  0
 21 24  1  0
 22 23  1  0
 22 19  1  0
 23 21  2  0
 24 25  1  0
 25 26  2  0
 27 30  1  0
 27 26  1  0
 28 27  2  0
 29 28  1  0
 29 24  2  0
 30 31  1  0
 31 32  1  0
 32 33  2  0
 34 33  1  0
 34 38  1  0
 35 34  2  0
 36 31  2  0
 36 35  1  0
 37 36  1  0
 39 40  1  0
 40 43  1  0
 40 42  1  0
 41 39  2  0
 44 45  1  0
 44 19  1  0
 46 44  1  0
 49 47  1  6
 48 49  1  0
 49 50  1  0
 49  2  1  0
 51 50  1  0
 52 63  2  0
 53 51  1  0
 53 58  1  0
 54 62  1  0
 54 64  1  0
 55 61  1  0
 55 57  1  0
 56 62  1  0
 57 58  2  0
 57 56  1  0
 59 53  2  0
 60 59  1  0
 60 55  2  0
 61 54  1  0
 62 52  1  0
 64 66  2  0
 65 64  1  0
 67 65  1  0
 68 77  2  0
 68 73  1  0
 69 65  1  0
 69 73  1  0
 70 69  1  0
 71 72  1  0
 71 70  1  0
 72 68  1  0
 73 74  2  0
 74 75  1  0
 76 75  2  0
 77 76  1  0
 78 52  1  0
 78 79  1  0
 78 88  1  0
 79 82  1  0
 80 84  1  0
 80 79  1  0
 81 80  2  0
 84 83  1  0
 86 84  1  0
 86 87  1  0
 86 85  1  0
 88 91  1  1
 88 89  1  0
 90 88  1  0
M  ISO  4   3 100  17 100  50 101  51 101
M  END
>  <TORSDO>  (84) 
F 18

>  <SCORE>  (84) 
-14.404

>  <name>  (84) 
84

>  <ligand_id>  (84) 
84

>  <original_smiles>  (84) 
[H]c1c(N([H])C(=O)N2C([H])([H])C([H])([H])C([H])([H])C([H])(n3nc(-c4c([H])c([H])c(Oc5c([H])c([H])c(F)c([H])c5F)c([H])c4[H])c(C(=O)N([H])[H])c3N([H])[H])C2([H])[H])nnc(C([H])(C([H])([H])[H])C(C([H])([H])[H])(C([H])([H])[H])C([H])([H])Oc2c([H])c([H])c3c(c2[H])C([H])([H])N(C(=O)C([H])(N([H])C(=O)C([H])(N([H])C([H])([H])[H])C([H])([H])[H])C(C([H])([H])[H])(C([H])([H])[H])C([H])([H])[H])C([H])(C(=O)N([H])C2([H])c4c([H])c([H])c([H])c([H])c4C([H])([H])C([H])([H])C2([H])[H])C3([H])[H])c1[H]

>  <smiles>  (84) 
[H]c1c(N([H])C(=O)N2C([H])([H])C([H])([H])C([H])([H])C([H])(n3nc(-c4c([H])c([H])c(Oc5c([H])c([H])c(F)c([H])c5F)c([H])c4[H])c(C(=O)N([H])[H])c3N([H])[H])C2([H])[H])nnc(C([H])(C([H])([H])[H])C(C([H])([H])[H])(C([H])([H])[H])C([H])([H])Oc2c([H])c([H])c3c(c2[H])C([H])([H])N(C(=O)C([H])(N([H])C(=O)C([H])(N([H])C([H])([H])[H])C([H])([H])[H])C(C([H])([H])[H])(C([H])([H])[H])C([H])([H])[H])C([H])(C(=O)N([H])C2([H])c4c([H])c([H])c([H])c([H])c4C([H])([H])C([H])([H])C2([H])[H])C3([H])[H])c1[H]

$$$$
85:0:0
     RDKit          3D

 94102  0  0  1  0  0  0  0  0999 V2000
  -27.8330  -22.2840   19.1250 C   0  0  0  0  0  3  0  0  0  0  0  0
  -28.7010  -21.6260   21.0150 C   0  0  0  0  0  3  0  0  0  0  0  0
  -28.2350  -22.7670   20.4040 C   0  0  0  0  0  0  0  0  0  0  0  0
  -27.9890  -20.9730   18.9890 N   0  0  0  0  0  0  0  0  0  0  0  0
  -28.5400  -20.5530   20.1530 N   0  0  0  0  0  0  0  0  0  0  0  0
  -28.7230  -24.3140   22.3500 C   0  0  0  0  0  1  0  0  0  0  0  0
  -28.0950  -24.1900   20.9510 C   0  0  0  0  0  3  0  0  0  0  0  0
  -28.6620  -25.2690   19.9830 C   0  0  0  0  0  2  0  0  0  0  0  0
  -28.5640  -26.6180   20.4810 O   0  0  0  0  0  0  0  0  0  0  0  0
  -24.5710  -31.7610   23.3340 C   0  0  0  0  0  0  0  0  0  0  0  0
  -27.3770  -27.3190   20.3920 C   0  0  0  0  0  0  0  0  0  0  0  0
  -23.4580  -30.3700   21.6180 C   0  0  0  0  0  3  0  0  0  0  0  0
  -24.9860  -28.8340   20.2720 C   0  0  0  0  0  0  0  0  0  0  0  0
  -25.9920  -30.7230   21.5680 C   0  0  0  0  0  2  0  0  0  0  0  0
  -26.1080  -29.3540   20.9260 C   0  0  0  0  0  0  0  0  0  0  0  0
  -27.3060  -28.6040   20.9780 C   0  0  0  0  0  3  0  0  0  0  0  0
  -26.2310  -26.8130   19.7330 C   0  0  0  0  0  3  0  0  0  0  0  0
  -25.0430  -27.5650   19.6710 C   0  0  0  0  0  3  0  0  0  0  0  0
  -23.7450  -29.6970   20.2500 C   0  0  0  0  0  2  0  0  0  0  0  0
  -24.6890  -30.9660   22.2330 N   0  0  0  0  0  0  0  0  0  0  0  0
  -23.4620  -32.0340   23.8120 O   0  0  0  0  0  0  0  0  0  0  0  0
  -22.7510  -29.3470   22.5350 C   0  0  0  0  0  0  0  0  0  0  0  0
  -21.4330  -29.1780   22.3390 N   0  0  0  0  0  0  0  0  0  0  0  0
  -23.3890  -28.7070   23.3760 O   0  0  0  0  0  0  0  0  0  0  0  0
  -20.9830  -29.7500   21.6370 H   0  0  0  0  0  0  0  0  0  0  0  0
  -18.0290  -28.0150   22.6620 C   0  0  0  0  0  0  0  0  0  0  0  0
  -20.5730  -28.2380   23.0570 C   0  0  0  0  0  3  0  0  0  0  0  0
  -20.6870  -26.8140   22.4640 C   0  0  0  0  0  2  0  0  0  0  0  0
  -19.6270  -26.5160   21.3980 C   0  0  0  0  0  2  0  0  0  0  0  0
  -18.2210  -26.6700   21.9810 C   0  0  0  0  0  2  0  0  0  0  0  0
  -19.1350  -28.7590   23.1540 C   0  0  0  0  0  0  0  0  0  0  0  0
  -18.9030  -30.0170   23.7510 C   0  0  0  0  0  3  0  0  0  0  0  0
  -17.5980  -30.5320   23.8610 C   0  0  0  0  0  3  0  0  0  0  0  0
  -16.5060  -29.7870   23.3860 C   0  0  0  0  0  3  0  0  0  0  0  0
  -16.7220  -28.5300   22.7940 C   0  0  0  0  0  3  0  0  0  0  0  0
  -25.8220  -32.3850   24.0300 C   0  0  0  0  0  3  0  0  0  0  0  0
  -25.5150  -33.7950   24.3100 N   0  0  0  0  0  0  0  0  0  0  0  0
  -25.9070  -34.8230   23.5470 C   0  0  0  0  0  0  0  0  0  0  0  0
  -26.6350  -34.6860   22.5600 O   0  0  0  0  0  0  0  0  0  0  0  0
  -24.8770  -33.9760   25.0720 H   0  0  0  0  0  0  0  0  0  0  0  0
  -24.2190  -36.6210   23.0580 C   0  0  0  0  0  1  0  0  0  0  0  0
  -25.4120  -36.2270   23.9430 C   0  0  0  0  0  3  0  0  0  0  0  0
  -27.5110  -37.1140   24.8590 C   0  0  0  0  0  1  0  0  0  0  0  0
  -26.4610  -37.2670   23.8550 N   0  0  0  0  0  0  0  0  0  0  0  0
  -26.0580  -38.1940   23.9570 H   0  0  0  0  0  0  0  0  0  0  0  0
  -26.2390  -31.6320   25.3520 C   0  0  1  0  0  0  0  0  0  0  0  0
  -25.0710  -31.4210   26.3420 C   0  0  0  0  0  1  0  0  0  0  0  0
  -26.8370  -30.2440   25.0230 C   0  0  0  0  0  1  0  0  0  0  0  0
  -27.3450  -32.4290   26.0830 C   0  0  0  0  0  1  0  0  0  0  0  0
  -27.3530  -18.4910   20.7350 C   0  0  0  0  0  1  0  0  0  0  0  0
  -28.7280  -19.1170   20.4430 C   0  0  0  0  0  3  0  0  0  0  0  0
  -29.4690  -18.2940   19.3360 C   0  0  0  0  0  2  0  0  0  0  0  0
  -31.6720  -19.5770   19.5530 C   0  0  0  0  0  1  0  0  0  0  0  0
  -31.5200  -17.6030   18.0530 C   0  0  0  0  0  1  0  0  0  0  0  0
  -31.0260  -18.1840   19.3970 C   0  0  2  0  0  0  0  0  0  0  0  0
  -31.4950  -17.2780   20.5830 C   0  0  0  0  0  2  0  0  0  0  0  0
  -31.6120  -14.8160   20.0810 C   0  0  0  0  0  0  0  0  0  0  0  0
  -31.2300  -12.5710   19.1330 C   0  0  0  0  0  2  0  0  0  0  0  0
  -30.3050  -12.6890   17.9040 C   0  0  0  0  0  2  0  0  0  0  0  0
  -28.8240  -12.6530   18.3320 C   0  0  0  0  0  2  0  0  0  0  0  0
  -28.5130  -13.6260   19.5010 C   0  0  0  0  0  3  0  0  0  0  0  0
  -29.5490  -13.4710   20.6360 C   0  0  0  0  0  2  0  0  0  0  0  0
  -30.8880  -13.6650   20.0540 N   0  0  0  0  0  0  0  0  0  0  0  0
  -32.7380  -14.9080   19.5840 O   0  0  0  0  0  0  0  0  0  0  0  0
  -30.9750  -15.8980   20.5680 N   0  0  0  0  0  0  0  0  0  0  0  0
  -30.0530  -15.7470   20.9490 H   0  0  0  0  0  0  0  0  0  0  0  0
  -26.1790  -14.4120   20.2450 C   0  0  0  0  0  0  0  0  0  0  0  0
  -25.0550  -13.7220   20.6140 C   0  0  0  0  0  0  0  0  0  0  0  0
  -25.4050  -12.3380   20.5570 C   0  0  0  0  0  0  0  0  0  0  0  0
  -27.1460  -13.4530   19.9890 N   0  0  0  0  0  0  0  0  0  0  0  0
  -26.6840  -12.2000   20.2330 N   0  0  0  0  0  0  0  0  0  0  0  0
  -24.5810  -11.1360   20.7380 C   0  0  0  0  0  0  0  0  0  0  0  0
  -24.9210  -10.1430   21.6830 C   0  0  0  0  0  3  0  0  0  0  0  0
  -24.1030   -9.0040   21.8530 C   0  0  0  0  0  3  0  0  0  0  0  0
  -22.9310   -8.8510   21.0760 C   0  0  0  0  0  0  0  0  0  0  0  0
  -22.6080   -9.8320   20.1210 C   0  0  0  0  0  3  0  0  0  0  0  0
  -23.4260  -10.9610   19.9500 C   0  0  0  0  0  3  0  0  0  0  0  0
  -22.0900   -7.7660   21.1520 O   0  0  0  0  0  0  0  0  0  0  0  0
  -21.9270   -7.0640   22.3200 C   0  0  0  0  0  0  0  0  0  0  0  0
  -21.4790   -7.6870   23.5060 C   0  0  0  0  0  3  0  0  0  0  0  0
  -21.2560   -6.9160   24.6640 C   0  0  0  0  0  3  0  0  0  0  0  0
  -21.4720   -5.5250   24.6370 C   0  0  0  0  0  0  0  0  0  0  0  0
  -21.9140   -4.9040   23.4560 C   0  0  0  0  0  3  0  0  0  0  0  0
  -22.1380   -5.6710   22.3000 C   0  0  0  0  0  0  0  0  0  0  0  0
  -22.5430   -5.0650   21.1590 F   0  0  0  0  0  0  0  0  0  0  0  0
  -21.2510   -4.7830   25.7470 F   0  0  0  0  0  0  0  0  0  0  0  0
  -23.7030  -14.3060   20.9100 C   0  0  0  0  0  0  0  0  0  0  0  0
  -22.9340  -13.6630   21.7810 N   0  0  0  0  0  0  0  0  0  0  0  0
  -23.3400  -15.3660   20.4030 O   0  0  0  0  0  0  0  0  0  0  0  0
  -23.2400  -12.8050   22.2150 H   0  0  0  0  0  0  0  0  0  0  0  0
  -22.0270  -14.0380   22.0200 H   0  0  0  0  0  0  0  0  0  0  0  0
  -26.4530  -15.7670   20.0900 N   0  0  0  0  0  0  0  0  0  0  0  0
  -25.7500  -16.4820   20.2420 H   0  0  0  0  0  0  0  0  0  0  0  0
  -27.3380  -16.1410   19.7740 H   0  0  0  0  0  0  0  0  0  0  0  0
  1  3  1  0
  3  7  1  0
  3  2  2  0
  4  1  2  0
  4  5  1  0
  5 51  1  0
  5  2  1  0
  7  6  1  0
  8  9  1  0
  8  7  1  0
 10 21  2  0
 11  9  1  0
 11 16  1  0
 12 20  1  0
 12 22  1  0
 13 15  1  0
 14 20  1  0
 15 16  2  0
 15 14  1  0
 17 11  2  0
 18 17  1  0
 18 13  2  0
 19 13  1  0
 19 12  1  0
 20 10  1  0
 22 24  2  0
 23 22  1  0
 25 23  1  0
 26 35  2  0
 26 31  1  0
 27 23  1  0
 27 31  1  0
 28 27  1  0
 29 30  1  0
 29 28  1  0
 30 26  1  0
 31 32  2  0
 32 33  1  0
 34 33  2  0
 35 34  1  0
 36 10  1  0
 36 37  1  0
 36 46  1  0
 37 40  1  0
 38 42  1  0
 38 37  1  0
 39 38  2  0
 42 41  1  0
 44 42  1  0
 44 45  1  0
 44 43  1  0
 46 49  1  1
 46 47  1  0
 48 46  1  0
 51 50  1  0
 52 55  1  0
 52 51  1  0
 55 54  1  6
 55 53  1  0
 55 56  1  0
 57 65  1  0
 58 63  1  0
 59 60  1  0
 59 58  1  0
 61 60  1  0
 61 70  1  0
 61 62  1  0
 63 57  1  0
 63 62  1  0
 64 57  2  0
 65 56  1  0
 65 66  1  0
 67 68  2  0
 68 87  1  0
 69 68  1  0
 69 72  1  0
 70 71  1  0
 70 67  1  0
 71 69  2  0
 72 73  1  0
 73 74  2  0
 75 78  1  0
 75 74  1  0
 76 75  2  0
 77 76  1  0
 77 72  2  0
 78 79  1  0
 79 80  1  0
 80 81  2  0
 82 81  1  0
 82 86  1  0
 83 82  2  0
 84 79  2  0
 84 83  1  0
 85 84  1  0
 87 88  1  0
 88 91  1  0
 88 90  1  0
 89 87  2  0
 92 93  1  0
 92 67  1  0
 94 92  1  0
M  ISO  4   8 101   9 101  57 100  65 100
M  END
>  <TORSDO>  (85) 
F 22

>  <SCORE>  (85) 
-11.797

>  <name>  (85) 
85

>  <ligand_id>  (85) 
85

>  <original_smiles>  (85) 
[H]c1nn(C([H])(C([H])([H])[H])C([H])([H])C(C([H])([H])[H])(C([H])([H])[H])C([H])([H])N([H])C(=O)N2C([H])([H])C([H])([H])C([H])([H])C([H])(n3nc(-c4c([H])c([H])c(Oc5c([H])c([H])c(F)c([H])c5F)c([H])c4[H])c(C(=O)N([H])[H])c3N([H])[H])C2([H])[H])c([H])c1C([H])(C([H])([H])[H])C([H])([H])Oc1c([H])c([H])c2c(c1[H])C([H])([H])N(C(=O)C([H])(N([H])C(=O)C([H])(N([H])C([H])([H])[H])C([H])([H])[H])C(C([H])([H])[H])(C([H])([H])[H])C([H])([H])[H])C([H])(C(=O)N([H])C1([H])c3c([H])c([H])c([H])c([H])c3C([H])([H])C([H])([H])C1([H])[H])C2([H])[H]

>  <smiles>  (85) 
[H]c1nn(C([H])(C([H])([H])[H])C([H])([H])C(C([H])([H])[H])(C([H])([H])[H])C([H])([H])N([H])C(=O)N2C([H])([H])C([H])([H])C([H])([H])C([H])(n3nc(-c4c([H])c([H])c(Oc5c([H])c([H])c(F)c([H])c5F)c([H])c4[H])c(C(=O)N([H])[H])c3N([H])[H])C2([H])[H])c([H])c1C([H])(C([H])([H])[H])C([H])([H])Oc1c([H])c([H])c2c(c1[H])C([H])([H])N(C(=O)C([H])(N([H])C(=O)C([H])(N([H])C([H])([H])[H])C([H])([H])[H])C(C([H])([H])[H])(C([H])([H])[H])C([H])([H])[H])C([H])(C(=O)N([H])C1([H])c3c([H])c([H])c([H])c([H])c3C([H])([H])C([H])([H])C1([H])[H])C2([H])[H]

$$$$
86:0:0
     RDKit          3D

 89 97  0  0  1  0  0  0  0  0999 V2000
  -30.6010  -22.6540   20.3920 C   0  0  0  0  0  1  0  0  0  0  0  0
  -30.0890  -22.2670   17.9890 C   0  0  0  0  0  1  0  0  0  0  0  0
  -29.4940  -22.2730   19.4010 C   0  0  1  0  0  0  0  0  0  0  0  0
  -27.8510  -19.2950   21.1140 C   0  0  0  0  0  3  0  0  0  0  0  0
  -28.1110  -20.5470   20.6410 C   0  0  0  0  0  3  0  0  0  0  0  0
  -29.6160  -19.0090   19.7820 C   0  0  0  0  0  0  0  0  0  0  0  0
  -28.7600  -18.3970   20.6050 N   0  0  0  0  0  0  0  0  0  0  0  0
  -29.2210  -20.5620   19.7910 N   0  0  0  0  0  0  0  0  0  0  0  0
  -31.9330  -18.3550   18.7410 C   0  0  0  0  0  1  0  0  0  0  0  0
  -29.8860  -17.3520   17.7270 C   0  0  0  0  0  1  0  0  0  0  0  0
  -30.6070  -17.6380   19.0590 C   0  0  2  0  0  0  0  0  0  0  0  0
  -31.2230  -15.9030   19.5170 C   0  0  0  0  0  0  0  0  0  0  0  0
  -31.2220  -13.3150   18.8690 C   0  0  0  0  0  2  0  0  0  0  0  0
  -30.2590  -12.8440   17.7420 C   0  0  0  0  0  2  0  0  0  0  0  0
  -28.8600  -12.5480   18.3000 C   0  0  0  0  0  2  0  0  0  0  0  0
  -28.4190  -13.6270   19.3130 C   0  0  0  0  0  3  0  0  0  0  0  0
  -29.5120  -14.0120   20.3330 C   0  0  0  0  0  2  0  0  0  0  0  0
  -30.6560  -14.5560   19.5650 N   0  0  0  0  0  0  0  0  0  0  0  0
  -32.4560  -15.7210   19.4450 O   0  0  0  0  0  0  0  0  0  0  0  0
  -26.1850  -14.2510   20.3430 C   0  0  0  0  0  0  0  0  0  0  0  0
  -25.1120  -13.5140   20.7570 C   0  0  0  0  0  0  0  0  0  0  0  0
  -25.4810  -12.1440   20.5900 C   0  0  0  0  0  0  0  0  0  0  0  0
  -27.1360  -13.3340   19.9370 N   0  0  0  0  0  0  0  0  0  0  0  0
  -26.7350  -12.0550   20.1550 N   0  0  0  0  0  0  0  0  0  0  0  0
  -24.6880  -10.9200   20.7640 C   0  0  0  0  0  0  0  0  0  0  0  0
  -25.0440   -9.9330   21.7080 C   0  0  0  0  0  3  0  0  0  0  0  0
  -24.2490   -8.7770   21.8710 C   0  0  0  0  0  3  0  0  0  0  0  0
  -23.0810   -8.6020   21.0900 C   0  0  0  0  0  0  0  0  0  0  0  0
  -22.7460   -9.5760   20.1350 C   0  0  0  0  0  3  0  0  0  0  0  0
  -23.5390  -10.7240   19.9700 C   0  0  0  0  0  3  0  0  0  0  0  0
  -22.2630   -7.4990   21.1600 O   0  0  0  0  0  0  0  0  0  0  0  0
  -22.0320   -6.8500   22.3470 C   0  0  0  0  0  0  0  0  0  0  0  0
  -21.4800   -7.5130   23.4640 C   0  0  0  0  0  3  0  0  0  0  0  0
  -21.1960   -6.7930   24.6410 C   0  0  0  0  0  3  0  0  0  0  0  0
  -21.4510   -5.4080   24.6990 C   0  0  0  0  0  0  0  0  0  0  0  0
  -21.9960   -4.7460   23.5850 C   0  0  0  0  0  3  0  0  0  0  0  0
  -22.2830   -5.4640   22.4120 C   0  0  0  0  0  0  0  0  0  0  0  0
  -22.7850   -4.8170   21.3340 F   0  0  0  0  0  0  0  0  0  0  0  0
  -21.1730   -4.7130   25.8270 F   0  0  0  0  0  0  0  0  0  0  0  0
  -23.7810  -14.0580   21.1830 C   0  0  0  0  0  0  0  0  0  0  0  0
  -23.0970  -13.3630   22.0840 N   0  0  0  0  0  0  0  0  0  0  0  0
  -23.3630  -15.1330   20.7530 O   0  0  0  0  0  0  0  0  0  0  0  0
  -23.4480  -12.4900   22.4490 H   0  0  0  0  0  0  0  0  0  0  0  0
  -22.2060  -13.7080   22.4130 H   0  0  0  0  0  0  0  0  0  0  0  0
  -26.4250  -15.6180   20.2390 N   0  0  0  0  0  0  0  0  0  0  0  0
  -25.7270  -16.3130   20.4810 H   0  0  0  0  0  0  0  0  0  0  0  0
  -27.2760  -16.0250   19.8710 H   0  0  0  0  0  0  0  0  0  0  0  0
  -28.4100  -23.8850   19.4950 C   0  0  0  0  0  2  0  0  0  0  0  0
  -28.5280  -25.6420   19.5190 O   0  0  0  0  0  0  0  0  0  0  0  0
  -24.8020  -31.5890   22.8500 C   0  0  0  0  0  0  0  0  0  0  0  0
  -27.4970  -26.7990   19.5750 C   0  0  0  0  0  0  0  0  0  0  0  0
  -23.6580  -30.2410   21.1430 C   0  0  0  0  0  3  0  0  0  0  0  0
  -25.1560  -28.7370   19.6330 C   0  0  0  0  0  0  0  0  0  0  0  0
  -26.2260  -30.4960   21.0130 C   0  0  0  0  0  2  0  0  0  0  0  0
  -26.3400  -29.1050   20.2820 C   0  0  0  0  0  0  0  0  0  0  0  0
  -27.4960  -28.1670   20.2200 C   0  0  0  0  0  3  0  0  0  0  0  0
  -26.2690  -26.6360   18.8870 C   0  0  0  0  0  3  0  0  0  0  0  0
  -25.1570  -27.5300   18.9110 C   0  0  0  0  0  3  0  0  0  0  0  0
  -23.9140  -29.6360   19.7330 C   0  0  0  0  0  2  0  0  0  0  0  0
  -24.9190  -30.8080   21.7230 N   0  0  0  0  0  0  0  0  0  0  0  0
  -23.7030  -31.8140   23.3850 O   0  0  0  0  0  0  0  0  0  0  0  0
  -22.9900  -29.1800   22.0570 C   0  0  0  0  0  0  0  0  0  0  0  0
  -21.6530  -29.0290   21.9820 N   0  0  0  0  0  0  0  0  0  0  0  0
  -23.6870  -28.4930   22.8090 O   0  0  0  0  0  0  0  0  0  0  0  0
  -21.1370  -29.6360   21.3570 H   0  0  0  0  0  0  0  0  0  0  0  0
  -18.2890  -27.8120   22.6050 C   0  0  0  0  0  0  0  0  0  0  0  0
  -20.8640  -28.0280   22.7110 C   0  0  0  0  0  3  0  0  0  0  0  0
  -20.9020  -26.6600   21.9900 C   0  0  0  0  0  2  0  0  0  0  0  0
  -19.7270  -26.4550   21.0270 C   0  0  0  0  0  2  0  0  0  0  0  0
  -18.3970  -26.5420   21.7770 C   0  0  0  0  0  2  0  0  0  0  0  0
  -19.4460  -28.5170   23.0290 C   0  0  0  0  0  0  0  0  0  0  0  0
  -19.2880  -29.7070   23.7710 C   0  0  0  0  0  3  0  0  0  0  0  0
  -18.0050  -30.1930   24.0910 C   0  0  0  0  0  3  0  0  0  0  0  0
  -16.8620  -29.4850   23.6790 C   0  0  0  0  0  3  0  0  0  0  0  0
  -17.0060  -28.2950   22.9430 C   0  0  0  0  0  3  0  0  0  0  0  0
  -26.0460  -32.2520   23.5180 C   0  0  0  0  0  3  0  0  0  0  0  0
  -26.6010  -31.4250   24.7450 C   0  0  1  0  0  0  0  0  0  0  0  0
  -25.5270  -31.0750   25.8040 C   0  0  0  0  0  1  0  0  0  0  0  0
  -27.2410  -30.0980   24.2790 C   0  0  0  0  0  1  0  0  0  0  0  0
  -27.7220  -32.2250   25.4500 C   0  0  0  0  0  1  0  0  0  0  0  0
  -25.6650  -33.6070   23.9610 N   0  0  0  0  0  0  0  0  0  0  0  0
  -25.9590  -34.7430   23.3090 C   0  0  0  0  0  0  0  0  0  0  0  0
  -26.6390  -34.7610   22.2810 O   0  0  0  0  0  0  0  0  0  0  0  0
  -25.0600  -33.6610   24.7670 H   0  0  0  0  0  0  0  0  0  0  0  0
  -24.1650  -36.5010   23.1100 C   0  0  0  0  0  1  0  0  0  0  0  0
  -25.4170  -36.0670   23.8890 C   0  0  0  0  0  3  0  0  0  0  0  0
  -27.5090  -36.9610   24.8170 C   0  0  0  0  0  1  0  0  0  0  0  0
  -26.4070  -37.1670   23.8790 N   0  0  0  0  0  0  0  0  0  0  0  0
  -25.9640  -38.0510   24.1090 H   0  0  0  0  0  0  0  0  0  0  0  0
  3  2  1  6
  3 48  1  0
  3  8  1  0
  3  1  1  0
  5  4  2  0
  6  8  1  0
  6  7  2  0
  7  4  1  0
  8  5  1  0
 11  9  1  6
 10 11  1  0
 11 12  1  0
 11  6  1  0
 12 18  1  0
 13 18  1  0
 14 15  1  0
 14 13  1  0
 16 15  1  0
 16 23  1  0
 16 17  1  0
 18 17  1  0
 19 12  2  0
 20 21  2  0
 21 40  1  0
 22 21  1  0
 22 25  1  0
 23 24  1  0
 23 20  1  0
 24 22  2  0
 25 26  1  0
 26 27  2  0
 28 31  1  0
 28 27  1  0
 29 28  2  0
 30 29  1  0
 30 25  2  0
 31 32  1  0
 32 37  2  0
 32 33  1  0
 33 34  2  0
 34 35  1  0
 35 39  1  0
 36 35  2  0
 37 36  1  0
 38 37  1  0
 40 41  1  0
 41 44  1  0
 41 43  1  0
 42 40  2  0
 45 20  1  0
 45 46  1  0
 47 45  1  0
 48 49  1  0
 49 51  1  0
 50 61  2  0
 51 56  1  0
 52 60  1  0
 52 62  1  0
 53 59  1  0
 53 55  1  0
 54 60  1  0
 55 54  1  0
 56 55  2  0
 57 58  1  0
 57 51  2  0
 58 53  2  0
 59 52  1  0
 60 50  1  0
 62 64  2  0
 63 62  1  0
 65 63  1  0
 66 75  2  0
 66 71  1  0
 67 63  1  0
 67 71  1  0
 68 67  1  0
 69 70  1  0
 69 68  1  0
 70 66  1  0
 71 72  2  0
 72 73  1  0
 74 73  2  0
 75 74  1  0
 76 50  1  0
 76 81  1  0
 76 77  1  0
 77 80  1  1
 77 78  1  0
 79 77  1  0
 81 84  1  0
 82 86  1  0
 82 81  1  0
 83 82  2  0
 86 85  1  0
 88 86  1  0
 88 89  1  0
 88 87  1  0
M  ISO  4  11 100  12 100  48 101  49 101
M  END
>  <TORSDO>  (86) 
F 19

>  <SCORE>  (86) 
-12.813

>  <name>  (86) 
86

>  <ligand_id>  (86) 
86

>  <original_smiles>  (86) 
[H]c1nc(C(C(=O)N2C([H])([H])C([H])([H])C([H])([H])C([H])(n3nc(-c4c([H])c([H])c(Oc5c([H])c([H])c(F)c([H])c5F)c([H])c4[H])c(C(=O)N([H])[H])c3N([H])[H])C2([H])[H])(C([H])([H])[H])C([H])([H])[H])n(C(C([H])([H])[H])(C([H])([H])[H])C([H])([H])Oc2c([H])c([H])c3c(c2[H])C([H])([H])N(C(=O)C([H])(N([H])C(=O)C([H])(N([H])C([H])([H])[H])C([H])([H])[H])C(C([H])([H])[H])(C([H])([H])[H])C([H])([H])[H])C([H])(C(=O)N([H])C2([H])c4c([H])c([H])c([H])c([H])c4C([H])([H])C([H])([H])C2([H])[H])C3([H])[H])c1[H]

>  <smiles>  (86) 
[H]c1nc(C(C(=O)N2C([H])([H])C([H])([H])C([H])([H])C([H])(n3nc(-c4c([H])c([H])c(Oc5c([H])c([H])c(F)c([H])c5F)c([H])c4[H])c(C(=O)N([H])[H])c3N([H])[H])C2([H])[H])(C([H])([H])[H])C([H])([H])[H])n(C(C([H])([H])[H])(C([H])([H])[H])C([H])([H])Oc2c([H])c([H])c3c(c2[H])C([H])([H])N(C(=O)C([H])(N([H])C(=O)C([H])(N([H])C([H])([H])[H])C([H])([H])[H])C(C([H])([H])[H])(C([H])([H])[H])C([H])([H])[H])C([H])(C(=O)N([H])C2([H])c4c([H])c([H])c([H])c([H])c4C([H])([H])C([H])([H])C2([H])[H])C3([H])[H])c1[H]

$$$$
87:0:0
     RDKit          3D

 95103  0  0  1  0  0  0  0  0999 V2000
  -29.5550  -19.4400   20.7800 C   0  0  0  0  0  2  0  0  0  0  0  0
  -30.7120  -18.7210   18.7470 C   0  0  0  0  0  2  0  0  0  0  0  0
  -29.3330  -21.1270   18.1370 C   0  0  0  0  0  2  0  0  0  0  0  0
  -29.7370  -18.1290   19.8020 C   0  0  0  0  0  3  0  0  0  0  0  0
  -28.8600  -20.9170   20.5110 C   0  0  0  0  0  3  0  0  0  0  0  0
  -30.2390  -19.8590   17.7430 C   0  0  2  0  0  0  0  0  0  0  0  0
  -29.3930  -22.0390   19.4490 C   0  0  1  0  0  0  0  0  0  0  0  0
  -28.7510  -21.5810   21.9000 C   0  0  0  0  0  1  0  0  0  0  0  0
  -29.4430  -19.1320   16.6320 C   0  0  0  0  0  1  0  0  0  0  0  0
  -31.5260  -20.3840   17.0630 C   0  0  0  0  0  1  0  0  0  0  0  0
  -30.8620  -22.3780   19.7680 C   0  0  0  0  0  1  0  0  0  0  0  0
  -31.4370  -16.9680   21.3540 C   0  0  0  0  0  1  0  0  0  0  0  0
  -29.0960  -16.3020   21.5600 C   0  0  0  0  0  1  0  0  0  0  0  0
  -30.1800  -16.6200   20.5120 C   0  0  1  0  0  0  0  0  0  0  0  0
  -30.6410  -15.1750   19.7490 C   0  0  0  0  0  0  0  0  0  0  0  0
  -30.4500  -12.8250   18.7680 C   0  0  0  0  0  2  0  0  0  0  0  0
  -29.3970  -12.7840   17.6340 C   0  0  0  0  0  2  0  0  0  0  0  0
  -27.9820  -12.5430   18.1950 C   0  0  0  0  0  2  0  0  0  0  0  0
  -27.6950  -13.4330   19.4310 C   0  0  0  0  0  3  0  0  0  0  0  0
  -28.8590  -13.3720   20.4370 C   0  0  0  0  0  2  0  0  0  0  0  0
  -30.0590  -13.8910   19.7510 N   0  0  0  0  0  0  0  0  0  0  0  0
  -31.7090  -15.2330   19.1260 O   0  0  0  0  0  0  0  0  0  0  0  0
  -25.4220  -13.9870   20.4750 C   0  0  0  0  0  0  0  0  0  0  0  0
  -24.3960  -13.1980   20.9210 C   0  0  0  0  0  0  0  0  0  0  0  0
  -24.8310  -11.8490   20.7450 C   0  0  0  0  0  0  0  0  0  0  0  0
  -26.4140  -13.1170   20.0560 N   0  0  0  0  0  0  0  0  0  0  0  0
  -26.0730  -11.8210   20.2780 N   0  0  0  0  0  0  0  0  0  0  0  0
  -24.1090  -10.5830   20.9380 C   0  0  0  0  0  0  0  0  0  0  0  0
  -24.5520   -9.6100   21.8600 C   0  0  0  0  0  3  0  0  0  0  0  0
  -23.8280   -8.4110   22.0400 C   0  0  0  0  0  3  0  0  0  0  0  0
  -22.6470   -8.1770   21.2960 C   0  0  0  0  0  0  0  0  0  0  0  0
  -22.2230   -9.1390   20.3610 C   0  0  0  0  0  3  0  0  0  0  0  0
  -22.9470  -10.3290   20.1800 C   0  0  0  0  0  3  0  0  0  0  0  0
  -21.8920   -7.0320   21.3860 O   0  0  0  0  0  0  0  0  0  0  0  0
  -21.7570   -6.3510   22.5690 C   0  0  0  0  0  0  0  0  0  0  0  0
  -21.1740   -6.9470   23.7100 C   0  0  0  0  0  3  0  0  0  0  0  0
  -20.9890   -6.1890   24.8830 C   0  0  0  0  0  3  0  0  0  0  0  0
  -21.3800   -4.8360   24.9170 C   0  0  0  0  0  0  0  0  0  0  0  0
  -21.9570   -4.2410   23.7820 C   0  0  0  0  0  3  0  0  0  0  0  0
  -22.1410   -4.9960   22.6100 C   0  0  0  0  0  0  0  0  0  0  0  0
  -22.6780   -4.4120   21.5120 F   0  0  0  0  0  0  0  0  0  0  0  0
  -21.1970   -4.1060   26.0410 F   0  0  0  0  0  0  0  0  0  0  0  0
  -23.0510  -13.6690   21.3900 C   0  0  0  0  0  0  0  0  0  0  0  0
  -22.4240  -12.9300   22.3000 N   0  0  0  0  0  0  0  0  0  0  0  0
  -22.5680  -14.7260   20.9830 O   0  0  0  0  0  0  0  0  0  0  0  0
  -22.8300  -12.0740   22.6470 H   0  0  0  0  0  0  0  0  0  0  0  0
  -21.5260  -13.2250   22.6550 H   0  0  0  0  0  0  0  0  0  0  0  0
  -25.5850  -15.3640   20.3710 N   0  0  0  0  0  0  0  0  0  0  0  0
  -24.8530  -16.0180   20.6260 H   0  0  0  0  0  0  0  0  0  0  0  0
  -26.3990  -15.8170   19.9740 H   0  0  0  0  0  0  0  0  0  0  0  0
  -27.0480  -23.2000   19.1560 C   0  0  0  0  0  1  0  0  0  0  0  0
  -28.9120  -24.1730   17.8620 C   0  0  0  0  0  1  0  0  0  0  0  0
  -28.5500  -23.5590   19.2380 C   0  0  2  0  0  0  0  0  0  0  0  0
  -28.6330  -24.9350   20.2270 C   0  0  0  0  0  2  0  0  0  0  0  0
  -28.5580  -26.4570   19.8690 O   0  0  0  0  0  0  0  0  0  0  0  0
  -24.5820  -31.7690   23.1400 C   0  0  0  0  0  0  0  0  0  0  0  0
  -27.4090  -27.3210   19.9440 C   0  0  0  0  0  0  0  0  0  0  0  0
  -23.4550  -30.3760   21.4440 C   0  0  0  0  0  3  0  0  0  0  0  0
  -24.9850  -28.9260   19.9720 C   0  0  0  0  0  0  0  0  0  0  0  0
  -25.9890  -30.7820   21.2920 C   0  0  0  0  0  2  0  0  0  0  0  0
  -26.1370  -29.4200   20.5960 C   0  0  0  0  0  0  0  0  0  0  0  0
  -27.3510  -28.6340   20.5610 C   0  0  0  0  0  3  0  0  0  0  0  0
  -26.2280  -26.9220   19.2900 C   0  0  0  0  0  3  0  0  0  0  0  0
  -25.0430  -27.6920   19.3030 C   0  0  0  0  0  3  0  0  0  0  0  0
  -23.7100  -29.7530   20.0460 C   0  0  0  0  0  2  0  0  0  0  0  0
  -24.6940  -30.9980   22.0150 N   0  0  0  0  0  0  0  0  0  0  0  0
  -23.4820  -31.9760   23.6760 O   0  0  0  0  0  0  0  0  0  0  0  0
  -22.8310  -29.3020   22.3690 C   0  0  0  0  0  0  0  0  0  0  0  0
  -21.5150  -29.0600   22.2260 N   0  0  0  0  0  0  0  0  0  0  0  0
  -23.5330  -28.6880   23.1760 O   0  0  0  0  0  0  0  0  0  0  0  0
  -21.0040  -29.6110   21.5500 H   0  0  0  0  0  0  0  0  0  0  0  0
  -18.2020  -27.6650   22.6730 C   0  0  0  0  0  0  0  0  0  0  0  0
  -20.7440  -28.0510   22.9570 C   0  0  0  0  0  3  0  0  0  0  0  0
  -20.9230  -26.6510   22.3260 C   0  0  0  0  0  2  0  0  0  0  0  0
  -19.8390  -26.3110   21.2980 C   0  0  0  0  0  2  0  0  0  0  0  0
  -18.4510  -26.3570   21.9430 C   0  0  0  0  0  2  0  0  0  0  0  0
  -19.2790  -28.4680   23.1350 C   0  0  0  0  0  0  0  0  0  0  0  0
  -18.9930  -29.6920   23.7790 C   0  0  0  0  0  3  0  0  0  0  0  0
  -17.6620  -30.1140   23.9640 C   0  0  0  0  0  3  0  0  0  0  0  0
  -16.6000  -29.3080   23.5170 C   0  0  0  0  0  3  0  0  0  0  0  0
  -16.8720  -28.0860   22.8780 C   0  0  0  0  0  3  0  0  0  0  0  0
  -25.8250  -32.4450   23.7940 C   0  0  0  0  0  3  0  0  0  0  0  0
  -26.3440  -31.6810   25.0740 C   0  0  1  0  0  0  0  0  0  0  0  0
  -25.2350  -31.3720   26.1060 C   0  0  0  0  0  1  0  0  0  0  0  0
  -27.0050  -30.3400   24.6820 C   0  0  0  0  0  1  0  0  0  0  0  0
  -27.4360  -32.5220   25.7770 C   0  0  0  0  0  1  0  0  0  0  0  0
  -25.4540  -33.8260   24.1380 N   0  0  0  0  0  0  0  0  0  0  0  0
  -25.7490  -34.9060   23.4020 C   0  0  0  0  0  0  0  0  0  0  0  0
  -26.4290  -34.8450   22.3750 O   0  0  0  0  0  0  0  0  0  0  0  0
  -24.8470  -33.9440   24.9370 H   0  0  0  0  0  0  0  0  0  0  0  0
  -23.9570  -36.6430   23.0630 C   0  0  0  0  0  1  0  0  0  0  0  0
  -25.2060  -36.2690   23.8780 C   0  0  0  0  0  3  0  0  0  0  0  0
  -27.2910  -37.2300   24.7530 C   0  0  0  0  0  1  0  0  0  0  0  0
  -26.1990  -37.3610   23.7910 N   0  0  0  0  0  0  0  0  0  0  0  0
  -25.7570  -38.2650   23.9360 H   0  0  0  0  0  0  0  0  0  0  0  0
  2  4  1  0
  3  7  1  0
  4 14  1  0
  4  1  1  0
  5  1  1  0
  5  8  1  0
  6  3  1  0
  6  2  1  0
  7 11  1  1
  7  5  1  0
  6  9  1  6
 10  6  1  0
 14 12  1  1
 14 13  1  0
 15 21  1  0
 15 14  1  0
 16 21  1  0
 17 18  1  0
 17 16  1  0
 19 18  1  0
 19 26  1  0
 19 20  1  0
 21 20  1  0
 22 15  2  0
 23 24  2  0
 24 43  1  0
 25 24  1  0
 25 28  1  0
 26 27  1  0
 26 23  1  0
 27 25  2  0
 28 29  1  0
 29 30  2  0
 31 34  1  0
 31 30  1  0
 32 31  2  0
 33 32  1  0
 33 28  2  0
 34 35  1  0
 35 40  2  0
 35 36  1  0
 36 37  2  0
 37 38  1  0
 38 42  1  0
 39 38  2  0
 40 39  1  0
 41 40  1  0
 43 44  1  0
 44 46  1  0
 44 47  1  0
 45 43  2  0
 48 23  1  0
 48 49  1  0
 50 48  1  0
 53 51  1  6
 52 53  1  0
 53  7  1  0
 53 54  1  0
 55 57  1  0
 55 54  1  0
 56 67  2  0
 57 62  1  0
 58 66  1  0
 58 68  1  0
 59 65  1  0
 59 61  1  0
 60 66  1  0
 61 60  1  0
 62 61  2  0
 63 64  1  0
 63 57  2  0
 64 59  2  0
 65 58  1  0
 66 56  1  0
 68 70  2  0
 69 68  1  0
 71 69  1  0
 72 81  2  0
 72 77  1  0
 73 69  1  0
 73 77  1  0
 74 73  1  0
 75 76  1  0
 75 74  1  0
 76 72  1  0
 77 78  2  0
 78 79  1  0
 80 79  2  0
 81 80  1  0
 82 56  1  0
 82 87  1  0
 82 83  1  0
 83 86  1  1
 83 84  1  0
 85 83  1  0
 87 90  1  0
 88 92  1  0
 88 87  1  0
 89 88  2  0
 92 91  1  0
 94 92  1  0
 94 95  1  0
 94 93  1  0
M  ISO  4  14 100  15 100  54 101  55 101
M  END
>  <TORSDO>  (87) 
F 19

>  <SCORE>  (87) 
-15.385

>  <name>  (87) 
87

>  <ligand_id>  (87) 
87

>  <original_smiles>  (87) 
[H]c1c([H])c([H])c2c(c1[H])C([H])([H])C([H])([H])C([H])([H])C2([H])N([H])C(=O)C1([H])N(C(=O)C([H])(N([H])C(=O)C([H])(N([H])C([H])([H])[H])C([H])([H])[H])C(C([H])([H])[H])(C([H])([H])[H])C([H])([H])[H])C([H])([H])c2c([H])c(OC([H])([H])C(C([H])([H])[H])(C([H])([H])[H])C3(C([H])([H])[H])C([H])([H])C(C([H])([H])[H])(C([H])([H])[H])C([H])([H])C([H])(C(C(=O)N4C([H])([H])C([H])([H])C([H])([H])C([H])(n5nc(-c6c([H])c([H])c(Oc7c([H])c([H])c(F)c([H])c7F)c([H])c6[H])c(C(=O)N([H])[H])c5N([H])[H])C4([H])[H])(C([H])([H])[H])C([H])([H])[H])C([H])([H])C3([H])C([H])([H])[H])c([H])c([H])c2C1([H])[H]

>  <smiles>  (87) 
[H]c1c([H])c([H])c2c(c1[H])C([H])([H])C([H])([H])C([H])([H])C2([H])N([H])C(=O)C1([H])N(C(=O)C([H])(N([H])C(=O)C([H])(N([H])C([H])([H])[H])C([H])([H])[H])C(C([H])([H])[H])(C([H])([H])[H])C([H])([H])[H])C([H])([H])c2c([H])c(OC([H])([H])C(C([H])([H])[H])(C([H])([H])[H])C3(C([H])([H])[H])C([H])([H])C(C([H])([H])[H])(C([H])([H])[H])C([H])([H])C([H])(C(C(=O)N4C([H])([H])C([H])([H])C([H])([H])C([H])(n5nc(-c6c([H])c([H])c(Oc7c([H])c([H])c(F)c([H])c7F)c([H])c6[H])c(C(=O)N([H])[H])c5N([H])[H])C4([H])[H])(C([H])([H])[H])C([H])([H])[H])C([H])([H])C3([H])C([H])([H])[H])c([H])c([H])c2C1([H])[H]

$$$$
88:0:0
     RDKit          3D

 94102  0  0  1  0  0  0  0  0999 V2000
  -30.2610  -20.0290   18.9890 C   0  0  0  0  0  3  0  0  0  0  0  0
  -30.6470  -21.3280   20.9680 C   0  0  0  0  0  3  0  0  0  0  0  0
  -30.1590  -21.3070   19.6450 C   0  0  0  0  0  0  0  0  0  0  0  0
  -30.8230  -18.8720   19.6380 C   0  0  0  0  0  0  0  0  0  0  0  0
  -31.1790  -20.1520   21.5610 C   0  0  0  0  0  0  0  0  0  0  0  0
  -31.2520  -18.9600   20.9100 N   0  0  0  0  0  0  0  0  0  0  0  0
  -33.1690  -19.5670   22.9850 C   0  0  0  0  0  1  0  0  0  0  0  0
  -30.8240  -19.2430   23.8880 C   0  0  0  0  0  1  0  0  0  0  0  0
  -31.7910  -21.5270   23.6470 C   0  0  0  0  0  1  0  0  0  0  0  0
  -31.7300  -20.1240   23.0020 C   0  0  2  0  0  0  0  0  0  0  0  0
  -32.5840  -17.5760   18.3870 C   0  0  0  0  0  1  0  0  0  0  0  0
  -31.1230  -17.5100   18.8940 C   0  0  0  0  0  3  0  0  0  0  0  0
  -31.5010  -15.0040   19.6270 C   0  0  0  0  0  0  0  0  0  0  0  0
  -31.1670  -12.6550   18.9270 C   0  0  0  0  0  2  0  0  0  0  0  0
  -30.1750  -12.6340   17.7450 C   0  0  0  0  0  2  0  0  0  0  0  0
  -28.7280  -12.5580   18.2660 C   0  0  0  0  0  2  0  0  0  0  0  0
  -28.4330  -13.5780   19.3970 C   0  0  0  0  0  3  0  0  0  0  0  0
  -29.5490  -13.5950   20.4640 C   0  0  0  0  0  2  0  0  0  0  0  0
  -30.8200  -13.8220   19.7660 N   0  0  0  0  0  0  0  0  0  0  0  0
  -32.6840  -14.9720   19.2890 O   0  0  0  0  0  0  0  0  0  0  0  0
  -30.7890  -16.1860   19.5880 N   0  0  0  0  0  0  0  0  0  0  0  0
  -29.8310  -16.1340   19.9010 H   0  0  0  0  0  0  0  0  0  0  0  0
  -26.1760  -14.3070   20.3770 C   0  0  0  0  0  0  0  0  0  0  0  0
  -25.0760  -13.5970   20.7790 C   0  0  0  0  0  0  0  0  0  0  0  0
  -25.4140  -12.2180   20.6130 C   0  0  0  0  0  0  0  0  0  0  0  0
  -27.1140  -13.3660   19.9870 N   0  0  0  0  0  0  0  0  0  0  0  0
  -26.6670  -12.1000   20.1900 N   0  0  0  0  0  0  0  0  0  0  0  0
  -24.5960  -11.0100   20.7740 C   0  0  0  0  0  0  0  0  0  0  0  0
  -24.9630   -9.9800   21.6700 C   0  0  0  0  0  3  0  0  0  0  0  0
  -24.1490   -8.8380   21.8210 C   0  0  0  0  0  3  0  0  0  0  0  0
  -22.9510   -8.7170   21.0770 C   0  0  0  0  0  0  0  0  0  0  0  0
  -22.6010   -9.7340   20.1710 C   0  0  0  0  0  3  0  0  0  0  0  0
  -23.4160  -10.8680   20.0180 C   0  0  0  0  0  3  0  0  0  0  0  0
  -22.1130   -7.6300   21.1360 O   0  0  0  0  0  0  0  0  0  0  0  0
  -21.9310   -6.9250   22.2980 C   0  0  0  0  0  0  0  0  0  0  0  0
  -21.4440   -7.5380   23.4720 C   0  0  0  0  0  3  0  0  0  0  0  0
  -21.2070   -6.7640   24.6250 C   0  0  0  0  0  3  0  0  0  0  0  0
  -21.4460   -5.3760   24.6040 C   0  0  0  0  0  0  0  0  0  0  0  0
  -21.9250   -4.7630   23.4330 C   0  0  0  0  0  3  0  0  0  0  0  0
  -22.1640   -5.5340   22.2830 C   0  0  0  0  0  0  0  0  0  0  0  0
  -22.6060   -4.9350   21.1500 F   0  0  0  0  0  0  0  0  0  0  0  0
  -21.2100   -4.6300   25.7070 F   0  0  0  0  0  0  0  0  0  0  0  0
  -23.7530  -14.1670   21.1990 C   0  0  0  0  0  0  0  0  0  0  0  0
  -23.0450  -13.4800   22.0880 N   0  0  0  0  0  0  0  0  0  0  0  0
  -23.3620  -15.2530   20.7760 O   0  0  0  0  0  0  0  0  0  0  0  0
  -23.3770  -12.6010   22.4520 H   0  0  0  0  0  0  0  0  0  0  0  0
  -22.1600  -13.8420   22.4110 H   0  0  0  0  0  0  0  0  0  0  0  0
  -26.4430  -15.6680   20.2860 N   0  0  0  0  0  0  0  0  0  0  0  0
  -25.7500  -16.3680   20.5310 H   0  0  0  0  0  0  0  0  0  0  0  0
  -27.2940  -16.0700   19.9180 H   0  0  0  0  0  0  0  0  0  0  0  0
  -29.5560  -22.5990   18.9500 C   0  0  0  0  0  2  0  0  0  0  0  0
  -29.2350  -23.9640   19.7550 C   0  0  0  0  0  3  0  0  0  0  0  0
  -28.8850  -25.2900   18.9030 C   0  0  0  0  0  3  0  0  0  0  0  0
  -28.7170  -26.6420   19.5170 O   0  0  0  0  0  0  0  0  0  0  0  0
  -24.6320  -31.4880   22.9980 C   0  0  0  0  0  0  0  0  0  0  0  0
  -27.5100  -27.3680   19.5440 C   0  0  0  0  0  0  0  0  0  0  0  0
  -23.4940  -30.1040   21.3000 C   0  0  0  0  0  3  0  0  0  0  0  0
  -25.0170  -28.7710   19.7300 C   0  0  0  0  0  0  0  0  0  0  0  0
  -25.9910  -30.6430   21.0680 C   0  0  0  0  0  2  0  0  0  0  0  0
  -26.1600  -29.3200   20.3220 C   0  0  0  0  0  0  0  0  0  0  0  0
  -27.4050  -28.6290   20.2200 C   0  0  0  0  0  3  0  0  0  0  0  0
  -26.3320  -26.8630   18.9530 C   0  0  0  0  0  3  0  0  0  0  0  0
  -25.1030  -27.5480   19.0420 C   0  0  0  0  0  3  0  0  0  0  0  0
  -23.7160  -29.5370   19.8710 C   0  0  0  0  0  2  0  0  0  0  0  0
  -24.7250  -30.7620   21.8450 N   0  0  0  0  0  0  0  0  0  0  0  0
  -23.5480  -31.6380   23.5810 O   0  0  0  0  0  0  0  0  0  0  0  0
  -22.9500  -28.9750   22.2090 C   0  0  0  0  0  0  0  0  0  0  0  0
  -21.6630  -28.6280   22.0380 N   0  0  0  0  0  0  0  0  0  0  0  0
  -23.6840  -28.4190   23.0280 O   0  0  0  0  0  0  0  0  0  0  0  0
  -21.1240  -29.1370   21.3520 H   0  0  0  0  0  0  0  0  0  0  0  0
  -18.4970  -26.9040   22.3210 C   0  0  0  0  0  0  0  0  0  0  0  0
  -20.9570  -27.5650   22.7560 C   0  0  0  0  0  3  0  0  0  0  0  0
  -21.3240  -26.1760   22.1850 C   0  0  0  0  0  2  0  0  0  0  0  0
  -20.3540  -25.6930   21.1030 C   0  0  0  0  0  2  0  0  0  0  0  0
  -18.9280  -25.6080   21.6560 C   0  0  0  0  0  2  0  0  0  0  0  0
  -19.4480  -27.8310   22.8230 C   0  0  0  0  0  0  0  0  0  0  0  0
  -18.9940  -29.0350   23.4030 C   0  0  0  0  0  3  0  0  0  0  0  0
  -17.6180  -29.3170   23.4890 C   0  0  0  0  0  3  0  0  0  0  0  0
  -16.6790  -28.3920   23.0040 C   0  0  0  0  0  3  0  0  0  0  0  0
  -17.1190  -27.1870   22.4250 C   0  0  0  0  0  3  0  0  0  0  0  0
  -25.8780  -32.1860   23.6250 C   0  0  0  0  0  3  0  0  0  0  0  0
  -25.4790  -33.5470   24.0100 N   0  0  0  0  0  0  0  0  0  0  0  0
  -25.7440  -34.6510   23.2970 C   0  0  0  0  0  0  0  0  0  0  0  0
  -26.4200  -34.6330   22.2660 O   0  0  0  0  0  0  0  0  0  0  0  0
  -24.8770  -33.6290   24.8150 H   0  0  0  0  0  0  0  0  0  0  0  0
  -23.8980  -36.3380   23.0190 C   0  0  0  0  0  1  0  0  0  0  0  0
  -25.1680  -35.9850   23.8090 C   0  0  0  0  0  3  0  0  0  0  0  0
  -27.2400  -36.9810   24.6710 C   0  0  0  0  0  1  0  0  0  0  0  0
  -26.1260  -37.1080   23.7360 N   0  0  0  0  0  0  0  0  0  0  0  0
  -25.6590  -37.9910   23.9180 H   0  0  0  0  0  0  0  0  0  0  0  0
  -26.4650  -31.4090   24.8710 C   0  0  1  0  0  0  0  0  0  0  0  0
  -25.4100  -31.0740   25.9500 C   0  0  0  0  0  1  0  0  0  0  0  0
  -27.1220  -30.0810   24.4270 C   0  0  0  0  0  1  0  0  0  0  0  0
  -27.5750  -32.2530   25.5400 C   0  0  0  0  0  1  0  0  0  0  0  0
  1  4  2  0
  1  3  1  0
  2  5  1  0
  3  2  2  0
  4  6  1  0
  5 10  1  0
  6  5  2  0
 10  7  1  6
 10  9  1  0
 10  8  1  0
 12 11  1  0
 12 21  1  0
 12  4  1  0
 13 19  1  0
 14 19  1  0
 15 16  1  0
 15 14  1  0
 17 16  1  0
 17 26  1  0
 17 18  1  0
 19 18  1  0
 20 13  2  0
 21 13  1  0
 21 22  1  0
 23 24  2  0
 24 43  1  0
 25 28  1  0
 25 24  1  0
 26 27  1  0
 26 23  1  0
 27 25  2  0
 28 29  1  0
 29 30  2  0
 31 34  1  0
 31 30  1  0
 32 31  2  0
 33 32  1  0
 33 28  2  0
 34 35  1  0
 35 36  1  0
 36 37  2  0
 38 37  1  0
 38 42  1  0
 39 38  2  0
 40 35  2  0
 40 39  1  0
 41 40  1  0
 43 44  1  0
 44 47  1  0
 44 46  1  0
 45 43  2  0
 48 23  1  0
 48 49  1  0
 50 48  1  0
 51  3  1  0
 51 52  1  0
 53 54  1  0
 53 52  2  0
 54 56  1  0
 55 66  2  0
 56 61  1  0
 57 65  1  0
 57 67  1  0
 58 64  1  0
 58 60  1  0
 59 65  1  0
 60 59  1  0
 61 60  2  0
 62 63  1  0
 62 56  2  0
 63 58  2  0
 64 57  1  0
 65 55  1  0
 67 69  2  0
 68 67  1  0
 70 68  1  0
 71 80  2  0
 71 76  1  0
 72 68  1  0
 72 76  1  0
 73 72  1  0
 74 75  1  0
 74 73  1  0
 75 71  1  0
 76 77  2  0
 77 78  1  0
 79 78  2  0
 80 79  1  0
 81 55  1  0
 81 82  1  0
 81 91  1  0
 82 85  1  0
 83 87  1  0
 83 82  1  0
 84 83  2  0
 87 86  1  0
 89 87  1  0
 89 90  1  0
 89 88  1  0
 91 94  1  1
 91 92  1  0
 93 91  1  0
M  ISO  4  13 100  21 100  53 101  54 101
M  END
>  <TORSDO>  (88) 
F 21

>  <SCORE>  (88) 
-10.833

>  <name>  (88) 
88

>  <ligand_id>  (88) 
88

>  <original_smiles>  (88) 
[H]c1c([H])c([H])c2c(c1[H])C([H])([H])C([H])([H])C([H])([H])C2([H])N([H])C(=O)C1([H])N(C(=O)C([H])(N([H])C(=O)C([H])(N([H])C([H])([H])[H])C([H])([H])[H])C(C([H])([H])[H])(C([H])([H])[H])C([H])([H])[H])C([H])([H])c2c([H])c(OC([H])([H])C([H])([H])C([H])([H])c3c([H])c(C([H])(N([H])C(=O)N4C([H])([H])C([H])([H])C([H])([H])C([H])(n5nc(-c6c([H])c([H])c(Oc7c([H])c([H])c(F)c([H])c7F)c([H])c6[H])c(C(=O)N([H])[H])c5N([H])[H])C4([H])[H])C([H])([H])[H])nc(C(C([H])([H])[H])(C([H])([H])[H])C([H])([H])[H])c3[H])c([H])c([H])c2C1([H])[H]

>  <smiles>  (88) 
[H]c1c([H])c([H])c2c(c1[H])C([H])([H])C([H])([H])C([H])([H])C2([H])N([H])C(=O)C1([H])N(C(=O)C([H])(N([H])C(=O)C([H])(N([H])C([H])([H])[H])C([H])([H])[H])C(C([H])([H])[H])(C([H])([H])[H])C([H])([H])[H])C([H])([H])c2c([H])c(OC([H])([H])C([H])([H])C([H])([H])c3c([H])c(C([H])(N([H])C(=O)N4C([H])([H])C([H])([H])C([H])([H])C([H])(n5nc(-c6c([H])c([H])c(Oc7c([H])c([H])c(F)c([H])c7F)c([H])c6[H])c(C(=O)N([H])[H])c5N([H])[H])C4([H])[H])C([H])([H])[H])nc(C(C([H])([H])[H])(C([H])([H])[H])C([H])([H])[H])c3[H])c([H])c([H])c2C1([H])[H]

$$$$
89:0:0
     RDKit          3D

 97105  0  0  1  0  0  0  0  0999 V2000
  -29.5330  -21.5150   19.0000 C   0  0  1  0  0  0  0  0  0  0  0  0
  -31.6820  -18.7240   20.5040 C   0  0  0  0  0  3  0  0  0  0  0  0
  -31.4970  -19.9920   19.8970 C   0  0  0  0  0  3  0  0  0  0  0  0
  -30.4610  -18.1880   20.7890 C   0  0  0  0  0  0  0  0  0  0  0  0
  -30.1580  -20.2620   19.7380 C   0  0  0  0  0  0  0  0  0  0  0  0
  -29.5120  -19.1200   20.3010 N   0  0  0  0  0  0  0  0  0  0  0  0
  -31.2710  -16.6590   22.6770 C   0  0  0  0  0  1  0  0  0  0  0  0
  -30.1710  -16.9240   21.6290 C   0  0  0  0  0  3  0  0  0  0  0  0
  -30.5170  -14.6820   20.3550 C   0  0  0  0  0  0  0  0  0  0  0  0
  -30.2820  -12.5280   19.1420 C   0  0  0  0  0  2  0  0  0  0  0  0
  -29.3000  -12.6990   17.9660 C   0  0  0  0  0  2  0  0  0  0  0  0
  -27.8430  -12.4900   18.4300 C   0  0  0  0  0  2  0  0  0  0  0  0
  -27.5040  -13.2810   19.7230 C   0  0  0  0  0  3  0  0  0  0  0  0
  -28.6000  -13.0870   20.7930 C   0  0  0  0  0  2  0  0  0  0  0  0
  -29.8850  -13.4810   20.1920 N   0  0  0  0  0  0  0  0  0  0  0  0
  -31.6430  -14.8970   19.8980 O   0  0  0  0  0  0  0  0  0  0  0  0
  -29.7840  -15.6510   20.9610 N   0  0  0  0  0  0  0  0  0  0  0  0
  -28.8420  -15.3590   21.1710 H   0  0  0  0  0  0  0  0  0  0  0  0
  -25.1090  -13.7830   20.5130 C   0  0  0  0  0  0  0  0  0  0  0  0
  -24.0800  -12.9690   20.8950 C   0  0  0  0  0  0  0  0  0  0  0  0
  -24.5860  -11.6350   20.8240 C   0  0  0  0  0  0  0  0  0  0  0  0
  -26.1770  -12.9450   20.2340 N   0  0  0  0  0  0  0  0  0  0  0  0
  -25.8680  -11.6460   20.4800 N   0  0  0  0  0  0  0  0  0  0  0  0
  -23.9080  -10.3470   21.0090 C   0  0  0  0  0  0  0  0  0  0  0  0
  -24.3530   -9.4080   21.9650 C   0  0  0  0  0  3  0  0  0  0  0  0
  -23.6730   -8.1830   22.1350 C   0  0  0  0  0  3  0  0  0  0  0  0
  -22.5340   -7.8870   21.3480 C   0  0  0  0  0  0  0  0  0  0  0  0
  -22.1100   -8.8160   20.3810 C   0  0  0  0  0  3  0  0  0  0  0  0
  -22.7900  -10.0320   20.2080 C   0  0  0  0  0  3  0  0  0  0  0  0
  -21.8260   -6.7130   21.4260 O   0  0  0  0  0  0  0  0  0  0  0  0
  -21.7310   -6.0060   22.5980 C   0  0  0  0  0  0  0  0  0  0  0  0
  -21.1550   -6.5640   23.7600 C   0  0  0  0  0  3  0  0  0  0  0  0
  -21.0170   -5.7790   24.9220 C   0  0  0  0  0  3  0  0  0  0  0  0
  -21.4410   -4.4370   24.9210 C   0  0  0  0  0  0  0  0  0  0  0  0
  -22.0070   -3.8780   23.7630 C   0  0  0  0  0  3  0  0  0  0  0  0
  -22.1500   -4.6610   22.6030 C   0  0  0  0  0  0  0  0  0  0  0  0
  -22.6780   -4.1110   21.4840 F   0  0  0  0  0  0  0  0  0  0  0  0
  -21.3010   -3.6800   26.0350 F   0  0  0  0  0  0  0  0  0  0  0  0
  -22.6740  -13.3940   21.2110 C   0  0  0  0  0  0  0  0  0  0  0  0
  -21.9930  -12.6660   22.0890 N   0  0  0  0  0  0  0  0  0  0  0  0
  -22.1870  -14.4080   20.7130 O   0  0  0  0  0  0  0  0  0  0  0  0
  -22.3980  -11.8460   22.5170 H   0  0  0  0  0  0  0  0  0  0  0  0
  -21.0500  -12.9310   22.3340 H   0  0  0  0  0  0  0  0  0  0  0  0
  -25.2190  -15.1620   20.3600 N   0  0  0  0  0  0  0  0  0  0  0  0
  -24.4230  -15.7770   20.4880 H   0  0  0  0  0  0  0  0  0  0  0  0
  -26.0320  -15.6400   19.9960 H   0  0  0  0  0  0  0  0  0  0  0  0
  -27.5610  -17.9050   19.3510 C   0  0  0  0  0  1  0  0  0  0  0  0
  -28.0800  -18.8950   20.4060 C   0  0  0  0  0  2  0  0  0  0  0  0
  -27.1130  -22.4670   19.6680 C   0  0  0  0  0  1  0  0  0  0  0  0
  -28.6460  -22.5090   19.9440 C   0  0  0  0  0  3  0  0  0  0  0  0
  -29.0580  -24.0490   20.2230 C   0  0  0  0  0  3  0  0  0  0  0  0
  -28.0720  -25.1980   19.7510 C   0  0  0  0  0  3  0  0  0  0  0  0
  -28.2940  -26.6080   20.0960 O   0  0  0  0  0  0  0  0  0  0  0  0
  -24.5470  -31.9080   23.2250 C   0  0  0  0  0  0  0  0  0  0  0  0
  -27.1640  -27.4400   20.0610 C   0  0  0  0  0  0  0  0  0  0  0  0
  -23.3430  -30.5410   21.5610 C   0  0  0  0  0  3  0  0  0  0  0  0
  -24.7900  -29.0280   20.1040 C   0  0  0  0  0  0  0  0  0  0  0  0
  -25.8830  -30.8660   21.3850 C   0  0  0  0  0  2  0  0  0  0  0  0
  -25.9600  -29.5070   20.7080 C   0  0  0  0  0  0  0  0  0  0  0  0
  -27.1490  -28.7230   20.6810 C   0  0  0  0  0  3  0  0  0  0  0  0
  -25.9670  -27.0160   19.4300 C   0  0  0  0  0  3  0  0  0  0  0  0
  -24.7930  -27.7840   19.4620 C   0  0  0  0  0  3  0  0  0  0  0  0
  -23.5540  -29.8970   20.1680 C   0  0  0  0  0  2  0  0  0  0  0  0
  -24.6100  -31.1210   22.1130 N   0  0  0  0  0  0  0  0  0  0  0  0
  -23.4640  -32.1760   23.7630 O   0  0  0  0  0  0  0  0  0  0  0  0
  -22.6820  -29.5030   22.4990 C   0  0  0  0  0  0  0  0  0  0  0  0
  -21.3570  -29.3190   22.3590 N   0  0  0  0  0  0  0  0  0  0  0  0
  -23.3580  -28.8670   23.3120 O   0  0  0  0  0  0  0  0  0  0  0  0
  -20.8720  -29.8860   21.6770 H   0  0  0  0  0  0  0  0  0  0  0  0
  -17.9800  -28.1050   22.8140 C   0  0  0  0  0  0  0  0  0  0  0  0
  -20.5360  -28.3680   23.1100 C   0  0  0  0  0  3  0  0  0  0  0  0
  -20.6480  -26.9450   22.5160 C   0  0  0  0  0  2  0  0  0  0  0  0
  -19.5560  -26.6300   21.4890 C   0  0  0  0  0  2  0  0  0  0  0  0
  -18.1680  -26.7650   22.1230 C   0  0  0  0  0  2  0  0  0  0  0  0
  -19.0930  -28.8640   23.2630 C   0  0  0  0  0  0  0  0  0  0  0  0
  -18.8640  -30.1200   23.8670 C   0  0  0  0  0  3  0  0  0  0  0  0
  -17.5560  -30.6140   24.0280 C   0  0  0  0  0  3  0  0  0  0  0  0
  -16.4580  -29.8510   23.5960 C   0  0  0  0  0  3  0  0  0  0  0  0
  -16.6710  -28.5980   22.9940 C   0  0  0  0  0  3  0  0  0  0  0  0
  -25.8310  -32.5270   23.8580 C   0  0  0  0  0  3  0  0  0  0  0  0
  -25.5360  -33.9320   24.1730 N   0  0  0  0  0  0  0  0  0  0  0  0
  -25.8880  -34.9740   23.4100 C   0  0  0  0  0  0  0  0  0  0  0  0
  -26.5670  -34.8530   22.3850 O   0  0  0  0  0  0  0  0  0  0  0  0
  -24.9340  -34.1000   24.9660 H   0  0  0  0  0  0  0  0  0  0  0  0
  -24.1950  -36.7910   23.0120 C   0  0  0  0  0  1  0  0  0  0  0  0
  -25.4130  -36.3720   23.8490 C   0  0  0  0  0  3  0  0  0  0  0  0
  -27.5430  -37.2320   24.7200 C   0  0  0  0  0  1  0  0  0  0  0  0
  -26.4650  -37.4090   23.7510 N   0  0  0  0  0  0  0  0  0  0  0  0
  -26.0710  -38.3370   23.8810 H   0  0  0  0  0  0  0  0  0  0  0  0
  -26.3190  -31.7600   25.1480 C   0  0  1  0  0  0  0  0  0  0  0  0
  -25.2070  -31.5400   26.2010 C   0  0  0  0  0  1  0  0  0  0  0  0
  -26.8910  -30.3730   24.7750 C   0  0  0  0  0  1  0  0  0  0  0  0
  -27.4680  -32.5440   25.8220 C   0  0  0  0  0  1  0  0  0  0  0  0
  -30.4220  -23.3810   17.2840 C   0  0  0  0  0  1  0  0  0  0  0  0
  -30.7260  -22.3270   18.3720 C   0  0  0  0  0  2  0  0  0  0  0  0
  -29.4300  -20.0150   16.8200 C   0  0  0  0  0  1  0  0  0  0  0  0
  -28.7050  -20.9910   17.7740 C   0  0  0  0  0  2  0  0  0  0  0  0
  1  5  1  0
  1 50  1  0
  2  4  2  0
  3  2  1  0
  4  8  1  0
  5  3  2  0
  5  6  1  0
  6 48  1  0
  6  4  1  0
  8  7  1  0
  9 17  1  0
 10 15  1  0
 11 12  1  0
 11 10  1  0
 13 12  1  0
 13 22  1  0
 13 14  1  0
 15  9  1  0
 15 14  1  0
 16  9  2  0
 17 18  1  0
 17  8  1  0
 19 20  2  0
 20 39  1  0
 21 20  1  0
 21 24  1  0
 22 23  1  0
 22 19  1  0
 23 21  2  0
 24 25  1  0
 25 26  2  0
 27 30  1  0
 27 26  1  0
 28 27  2  0
 29 28  1  0
 29 24  2  0
 30 31  1  0
 31 36  2  0
 31 32  1  0
 32 33  2  0
 34 33  1  0
 34 38  1  0
 35 34  2  0
 36 35  1  0
 37 36  1  0
 39 40  1  0
 40 43  1  0
 40 42  1  0
 41 39  2  0
 44 45  1  0
 44 19  1  0
 46 44  1  0
 47 48  1  0
 50 49  1  0
 50 51  1  0
 52 53  1  0
 52 51  2  0
 54 65  2  0
 55 53  1  0
 55 60  1  0
 56 64  1  0
 56 66  1  0
 57 63  1  0
 57 59  1  0
 58 64  1  0
 59 58  1  0
 60 59  2  0
 61 62  1  0
 61 55  2  0
 62 57  2  0
 63 56  1  0
 64 54  1  0
 66 68  2  0
 67 66  1  0
 69 67  1  0
 70 79  2  0
 70 75  1  0
 71 67  1  0
 71 75  1  0
 72 71  1  0
 73 74  1  0
 73 72  1  0
 74 70  1  0
 75 76  2  0
 76 77  1  0
 78 77  2  0
 79 78  1  0
 80 54  1  0
 80 81  1  0
 80 90  1  0
 81 84  1  0
 82 86  1  0
 82 81  1  0
 83 82  2  0
 86 85  1  0
 88 86  1  0
 88 89  1  0
 88 87  1  0
 90 93  1  1
 90 91  1  0
 92 90  1  0
 94 95  1  0
  1 95  1  6
 96 97  1  0
 97  1  1  0
M  ISO  4   9 100  17 100  52 101  53 101
M  END
>  <TORSDO>  (89) 
F 24

>  <SCORE>  (89) 
-12.536

>  <name>  (89) 
89

>  <ligand_id>  (89) 
89

>  <original_smiles>  (89) 
[H]c1c([H])c([H])c2c(c1[H])C([H])([H])C([H])([H])C([H])([H])C2([H])N([H])C(=O)C1([H])N(C(=O)C([H])(N([H])C(=O)C([H])(N([H])C([H])([H])[H])C([H])([H])[H])C(C([H])([H])[H])(C([H])([H])[H])C([H])([H])[H])C([H])([H])c2c([H])c(OC([H])([H])C([H])([H])C([H])(C([H])([H])[H])C(c3c([H])c([H])c(C([H])(N([H])C(=O)N4C([H])([H])C([H])([H])C([H])([H])C([H])(n5nc(-c6c([H])c([H])c(Oc7c([H])c([H])c(F)c([H])c7F)c([H])c6[H])c(C(=O)N([H])[H])c5N([H])[H])C4([H])[H])C([H])([H])[H])n3C([H])([H])C([H])([H])[H])(C([H])([H])C([H])([H])[H])C([H])([H])C([H])([H])[H])c([H])c([H])c2C1([H])[H]

>  <smiles>  (89) 
[H]c1c([H])c([H])c2c(c1[H])C([H])([H])C([H])([H])C([H])([H])C2([H])N([H])C(=O)C1([H])N(C(=O)C([H])(N([H])C(=O)C([H])(N([H])C([H])([H])[H])C([H])([H])[H])C(C([H])([H])[H])(C([H])([H])[H])C([H])([H])[H])C([H])([H])c2c([H])c(OC([H])([H])C([H])([H])C([H])(C([H])([H])[H])C(c3c([H])c([H])c(C([H])(N([H])C(=O)N4C([H])([H])C([H])([H])C([H])([H])C([H])(n5nc(-c6c([H])c([H])c(Oc7c([H])c([H])c(F)c([H])c7F)c([H])c6[H])c(C(=O)N([H])[H])c5N([H])[H])C4([H])[H])C([H])([H])[H])n3C([H])([H])C([H])([H])[H])(C([H])([H])C([H])([H])[H])C([H])([H])C([H])([H])[H])c([H])c([H])c2C1([H])[H]

$$$$
90:0:0
     RDKit          3D

 91 99  0  0  1  0  0  0  0  0999 V2000
  -28.3180  -19.5470   20.7710 C   0  0  0  0  0  3  0  0  0  0  0  0
  -28.9180  -20.5290   19.9380 C   0  0  0  0  0  0  0  0  0  0  0  0
  -29.9730  -19.9160   19.1880 C   0  0  0  0  0  0  0  0  0  0  0  0
  -29.7220  -17.7250   20.1300 C   0  0  0  0  0  0  0  0  0  0  0  0
  -28.7110  -18.2350   20.8620 N   0  0  0  0  0  0  0  0  0  0  0  0
  -30.3520  -18.5860   19.2970 N   0  0  0  0  0  0  0  0  0  0  0  0
  -31.8310  -16.7360   21.0500 C   0  0  0  0  0  1  0  0  0  0  0  0
  -29.7550  -15.8960   21.9690 C   0  0  0  0  0  1  0  0  0  0  0  0
  -30.4000  -16.3020   20.6210 C   0  0  1  0  0  0  0  0  0  0  0  0
  -30.6610  -14.9460   19.6900 C   0  0  0  0  0  0  0  0  0  0  0  0
  -30.2350  -12.7050   18.5740 C   0  0  0  0  0  2  0  0  0  0  0  0
  -29.1840  -12.8420   17.4460 C   0  0  0  0  0  2  0  0  0  0  0  0
  -27.7590  -12.6810   18.0060 C   0  0  0  0  0  2  0  0  0  0  0  0
  -27.5500  -13.5080   19.3010 C   0  0  0  0  0  3  0  0  0  0  0  0
  -28.7100  -13.3060   20.2930 C   0  0  0  0  0  2  0  0  0  0  0  0
  -29.9500  -13.7370   19.6210 N   0  0  0  0  0  0  0  0  0  0  0  0
  -31.6930  -14.9700   19.0080 O   0  0  0  0  0  0  0  0  0  0  0  0
  -25.2740  -14.1490   20.2870 C   0  0  0  0  0  0  0  0  0  0  0  0
  -24.2210  -13.3980   20.7350 C   0  0  0  0  0  0  0  0  0  0  0  0
  -24.6280  -12.0340   20.6100 C   0  0  0  0  0  0  0  0  0  0  0  0
  -26.2530  -13.2440   19.9150 N   0  0  0  0  0  0  0  0  0  0  0  0
  -25.8780  -11.9630   20.1680 N   0  0  0  0  0  0  0  0  0  0  0  0
  -23.8770  -10.7920   20.8320 C   0  0  0  0  0  0  0  0  0  0  0  0
  -24.3320   -9.8040   21.7320 C   0  0  0  0  0  3  0  0  0  0  0  0
  -23.5830   -8.6250   21.9390 C   0  0  0  0  0  3  0  0  0  0  0  0
  -22.3640   -8.4290   21.2480 C   0  0  0  0  0  0  0  0  0  0  0  0
  -21.9270   -9.4050   20.3360 C   0  0  0  0  0  3  0  0  0  0  0  0
  -22.6760  -10.5750   20.1270 C   0  0  0  0  0  3  0  0  0  0  0  0
  -21.5810   -7.3060   21.3680 O   0  0  0  0  0  0  0  0  0  0  0  0
  -21.5270   -6.5870   22.5350 C   0  0  0  0  0  0  0  0  0  0  0  0
  -21.1360   -7.1780   23.7570 C   0  0  0  0  0  3  0  0  0  0  0  0
  -21.0320   -6.3870   24.9190 C   0  0  0  0  0  3  0  0  0  0  0  0
  -21.3020   -5.0060   24.8580 C   0  0  0  0  0  0  0  0  0  0  0  0
  -21.6810   -4.4160   23.6400 C   0  0  0  0  0  3  0  0  0  0  0  0
  -21.7910   -5.2040   22.4820 C   0  0  0  0  0  0  0  0  0  0  0  0
  -22.1400   -4.6270   21.3070 F   0  0  0  0  0  0  0  0  0  0  0  0
  -21.1910   -4.2430   25.9710 F   0  0  0  0  0  0  0  0  0  0  0  0
  -22.8800  -13.9140   21.1630 C   0  0  0  0  0  0  0  0  0  0  0  0
  -22.2220  -13.2170   22.0830 N   0  0  0  0  0  0  0  0  0  0  0  0
  -22.4270  -14.9700   20.7220 O   0  0  0  0  0  0  0  0  0  0  0  0
  -22.6060  -12.3660   22.4640 H   0  0  0  0  0  0  0  0  0  0  0  0
  -21.3240  -13.5430   22.4100 H   0  0  0  0  0  0  0  0  0  0  0  0
  -25.4710  -15.5190   20.1490 N   0  0  0  0  0  0  0  0  0  0  0  0
  -24.7450  -16.1880   20.3800 H   0  0  0  0  0  0  0  0  0  0  0  0
  -26.3120  -15.9570   19.7940 H   0  0  0  0  0  0  0  0  0  0  0  0
  -32.1580  -21.1090   18.8470 C   0  0  0  0  0  1  0  0  0  0  0  0
  -30.8090  -20.7330   18.2220 C   0  0  0  0  0  2  0  0  0  0  0  0
  -28.2470  -22.0060   19.7190 C   0  0  0  0  0  2  0  0  0  0  0  0
  -28.7250  -23.4980   20.2470 C   0  0  0  0  0  3  0  0  0  0  0  0
  -27.7770  -24.8170   19.9120 C   0  0  0  0  0  3  0  0  0  0  0  0
  -28.0500  -26.3000   20.2010 O   0  0  0  0  0  0  0  0  0  0  0  0
  -24.4990  -31.9450   23.2220 C   0  0  0  0  0  0  0  0  0  0  0  0
  -26.9890  -27.2590   20.1370 C   0  0  0  0  0  0  0  0  0  0  0  0
  -23.2540  -30.5570   21.6100 C   0  0  0  0  0  3  0  0  0  0  0  0
  -24.6630  -28.9850   20.1520 C   0  0  0  0  0  0  0  0  0  0  0  0
  -25.8050  -30.8190   21.3910 C   0  0  0  0  0  2  0  0  0  0  0  0
  -25.8560  -29.4350   20.7320 C   0  0  0  0  0  0  0  0  0  0  0  0
  -27.0210  -28.5880   20.7060 C   0  0  0  0  0  3  0  0  0  0  0  0
  -25.7680  -26.9010   19.5200 C   0  0  0  0  0  3  0  0  0  0  0  0
  -24.6300  -27.7310   19.5270 C   0  0  0  0  0  3  0  0  0  0  0  0
  -23.4400  -29.8810   20.2260 C   0  0  0  0  0  2  0  0  0  0  0  0
  -24.5390  -31.1280   22.1280 N   0  0  0  0  0  0  0  0  0  0  0  0
  -23.4280  -32.2350   23.7760 O   0  0  0  0  0  0  0  0  0  0  0  0
  -22.5940  -29.5490   22.5860 C   0  0  0  0  0  0  0  0  0  0  0  0
  -21.2690  -29.3560   22.4660 N   0  0  0  0  0  0  0  0  0  0  0  0
  -23.2770  -28.9420   23.4160 O   0  0  0  0  0  0  0  0  0  0  0  0
  -20.7730  -29.8980   21.7730 H   0  0  0  0  0  0  0  0  0  0  0  0
  -17.9100  -28.0910   22.9650 C   0  0  0  0  0  0  0  0  0  0  0  0
  -20.4600  -28.4220   23.2540 C   0  0  0  0  0  3  0  0  0  0  0  0
  -20.6010  -26.9750   22.7240 C   0  0  0  0  0  2  0  0  0  0  0  0
  -19.5190  -26.5980   21.7060 C   0  0  0  0  0  2  0  0  0  0  0  0
  -18.1260  -26.7290   22.3290 C   0  0  0  0  0  2  0  0  0  0  0  0
  -19.0060  -28.8930   23.3860 C   0  0  0  0  0  0  0  0  0  0  0  0
  -18.7470  -30.1660   23.9390 C   0  0  0  0  0  3  0  0  0  0  0  0
  -17.4270  -30.6390   24.0740 C   0  0  0  0  0  3  0  0  0  0  0  0
  -16.3480  -29.8340   23.6690 C   0  0  0  0  0  3  0  0  0  0  0  0
  -16.5900  -28.5620   23.1200 C   0  0  0  0  0  3  0  0  0  0  0  0
  -25.7970  -32.5710   23.8190 C   0  0  0  0  0  3  0  0  0  0  0  0
  -25.5070  -33.9770   24.1370 N   0  0  0  0  0  0  0  0  0  0  0  0
  -25.8160  -35.0180   23.3520 C   0  0  0  0  0  0  0  0  0  0  0  0
  -26.4420  -34.8950   22.2970 O   0  0  0  0  0  0  0  0  0  0  0  0
  -24.9510  -34.1480   24.9620 H   0  0  0  0  0  0  0  0  0  0  0  0
  -24.0760  -36.8130   23.0580 C   0  0  0  0  0  1  0  0  0  0  0  0
  -25.3560  -36.4170   23.8100 C   0  0  0  0  0  3  0  0  0  0  0  0
  -27.5300  -37.3120   24.5150 C   0  0  0  0  0  1  0  0  0  0  0  0
  -26.3820  -37.4650   23.6250 N   0  0  0  0  0  0  0  0  0  0  0  0
  -25.9860  -38.3880   23.7780 H   0  0  0  0  0  0  0  0  0  0  0  0
  -26.3200  -31.8150   25.1020 C   0  0  1  0  0  0  0  0  0  0  0  0
  -25.2360  -31.6010   26.1860 C   0  0  0  0  0  1  0  0  0  0  0  0
  -26.8860  -30.4240   24.7300 C   0  0  0  0  0  1  0  0  0  0  0  0
  -27.4840  -32.6090   25.7400 C   0  0  0  0  0  1  0  0  0  0  0  0
  1  5  1  0
  2  1  2  0
  3  6  2  0
  3  2  1  0
  4  9  1  0
  4  5  2  0
  6  4  1  0
  9  7  1  1
  9  8  1  0
 10  9  1  0
 11 16  1  0
 12 13  1  0
 12 11  1  0
 14 13  1  0
 14 21  1  0
 14 15  1  0
 16 10  1  0
 16 15  1  0
 17 10  2  0
 18 19  2  0
 19 38  1  0
 20 19  1  0
 20 23  1  0
 21 22  1  0
 21 18  1  0
 22 20  2  0
 23 24  1  0
 24 25  2  0
 26 29  1  0
 26 25  1  0
 27 26  2  0
 28 27  1  0
 28 23  2  0
 29 30  1  0
 30 31  1  0
 31 32  2  0
 33 32  1  0
 33 37  1  0
 34 33  2  0
 35 30  2  0
 35 34  1  0
 36 35  1  0
 38 39  1  0
 39 42  1  0
 39 41  1  0
 40 38  2  0
 43 18  1  0
 43 44  1  0
 45 43  1  0
 47 46  1  0
 47  3  1  0
 48  2  1  0
 48 49  1  0
 50 51  1  0
 50 49  2  0
 52 63  2  0
 53 51  1  0
 53 58  1  0
 54 62  1  0
 54 64  1  0
 55 61  1  0
 55 57  1  0
 56 62  1  0
 57 56  1  0
 58 57  2  0
 59 60  1  0
 59 53  2  0
 60 55  2  0
 61 54  1  0
 62 52  1  0
 64 66  2  0
 65 64  1  0
 67 65  1  0
 68 77  2  0
 68 73  1  0
 69 65  1  0
 69 73  1  0
 70 69  1  0
 71 72  1  0
 71 70  1  0
 72 68  1  0
 73 74  2  0
 74 75  1  0
 76 75  2  0
 77 76  1  0
 78 52  1  0
 78 79  1  0
 78 88  1  0
 79 82  1  0
 80 84  1  0
 80 79  1  0
 81 80  2  0
 84 83  1  0
 86 87  1  0
 86 84  1  0
 86 85  1  0
 88 91  1  1
 88 89  1  0
 90 88  1  0
M  ISO  4   9 100  10 100  50 101  51 101
M  END
>  <TORSDO>  (90) 
F 21

>  <SCORE>  (90) 
-11.837

>  <name>  (90) 
90

>  <ligand_id>  (90) 
90

>  <original_smiles>  (90) 
[H]c1nc(C(C(=O)N2C([H])([H])C([H])([H])C([H])([H])C([H])(n3nc(-c4c([H])c([H])c(Oc5c([H])c([H])c(F)c([H])c5F)c([H])c4[H])c(C(=O)N([H])[H])c3N([H])[H])C2([H])[H])(C([H])([H])[H])C([H])([H])[H])nc(C([H])([H])C([H])([H])[H])c1C([H])([H])C([H])([H])C([H])([H])Oc1c([H])c([H])c2c(c1[H])C([H])([H])N(C(=O)C([H])(N([H])C(=O)C([H])(N([H])C([H])([H])[H])C([H])([H])[H])C(C([H])([H])[H])(C([H])([H])[H])C([H])([H])[H])C([H])(C(=O)N([H])C1([H])c3c([H])c([H])c([H])c([H])c3C([H])([H])C([H])([H])C1([H])[H])C2([H])[H]

>  <smiles>  (90) 
[H]c1nc(C(C(=O)N2C([H])([H])C([H])([H])C([H])([H])C([H])(n3nc(-c4c([H])c([H])c(Oc5c([H])c([H])c(F)c([H])c5F)c([H])c4[H])c(C(=O)N([H])[H])c3N([H])[H])C2([H])[H])(C([H])([H])[H])C([H])([H])[H])nc(C([H])([H])C([H])([H])[H])c1C([H])([H])C([H])([H])C([H])([H])Oc1c([H])c([H])c2c(c1[H])C([H])([H])N(C(=O)C([H])(N([H])C(=O)C([H])(N([H])C([H])([H])[H])C([H])([H])[H])C(C([H])([H])[H])(C([H])([H])[H])C([H])([H])[H])C([H])(C(=O)N([H])C1([H])c3c([H])c([H])c([H])c([H])c3C([H])([H])C([H])([H])C1([H])[H])C2([H])[H]

$$$$
91:0:0
     RDKit          3D

 91 99  0  0  1  0  0  0  0  0999 V2000
  -27.7900  -21.7420   19.4190 C   0  0  0  0  0  3  0  0  0  0  0  0
  -29.4170  -22.1060   20.8140 C   0  0  0  0  0  3  0  0  0  0  0  0
  -28.3440  -22.7610   20.2510 C   0  0  0  0  0  0  0  0  0  0  0  0
  -28.4410  -20.5840   19.4790 N   0  0  0  0  0  0  0  0  0  0  0  0
  -29.4340  -20.7750   20.3740 N   0  0  0  0  0  0  0  0  0  0  0  0
  -26.6950  -24.0950   21.5680 C   0  0  0  0  0  1  0  0  0  0  0  0
  -27.7430  -24.1720   20.4390 C   0  0  0  0  0  3  0  0  0  0  0  0
  -28.7260  -25.3700   20.6900 C   0  0  0  0  0  2  0  0  0  0  0  0
  -28.5420  -26.6450   19.9960 O   0  0  0  0  0  0  0  0  0  0  0  0
  -24.5550  -31.7310   23.1370 C   0  0  0  0  0  0  0  0  0  0  0  0
  -27.3530  -27.3580   20.0550 C   0  0  0  0  0  0  0  0  0  0  0  0
  -23.4150  -30.3250   21.4540 C   0  0  0  0  0  3  0  0  0  0  0  0
  -24.9320  -28.8470   20.0320 C   0  0  0  0  0  0  0  0  0  0  0  0
  -25.9380  -30.7390   21.3100 C   0  0  0  0  0  2  0  0  0  0  0  0
  -26.0680  -29.3730   20.6580 C   0  0  0  0  0  0  0  0  0  0  0  0
  -27.2820  -28.6380   20.6660 C   0  0  0  0  0  3  0  0  0  0  0  0
  -26.2060  -26.8810   19.3860 C   0  0  0  0  0  3  0  0  0  0  0  0
  -24.9990  -27.6000   19.3920 C   0  0  0  0  0  3  0  0  0  0  0  0
  -23.6680  -29.6770   20.0670 C   0  0  0  0  0  2  0  0  0  0  0  0
  -24.6540  -30.9470   22.0250 N   0  0  0  0  0  0  0  0  0  0  0  0
  -23.4580  -31.9660   23.6610 O   0  0  0  0  0  0  0  0  0  0  0  0
  -22.7750  -29.2710   22.3860 C   0  0  0  0  0  0  0  0  0  0  0  0
  -21.4530  -29.0720   22.2510 N   0  0  0  0  0  0  0  0  0  0  0  0
  -23.4640  -28.6360   23.1900 O   0  0  0  0  0  0  0  0  0  0  0  0
  -20.9550  -29.6440   21.5820 H   0  0  0  0  0  0  0  0  0  0  0  0
  -18.0960  -27.8170   22.7120 C   0  0  0  0  0  0  0  0  0  0  0  0
  -20.6500  -28.1000   22.9920 C   0  0  0  0  0  3  0  0  0  0  0  0
  -20.7700  -26.6890   22.3730 C   0  0  0  0  0  2  0  0  0  0  0  0
  -19.6730  -26.3850   21.3480 C   0  0  0  0  0  2  0  0  0  0  0  0
  -18.2890  -26.4900   21.9980 C   0  0  0  0  0  2  0  0  0  0  0  0
  -19.2040  -28.5800   23.1640 C   0  0  0  0  0  0  0  0  0  0  0  0
  -18.9690  -29.8250   23.7900 C   0  0  0  0  0  3  0  0  0  0  0  0
  -17.6580  -30.3060   23.9680 C   0  0  0  0  0  3  0  0  0  0  0  0
  -16.5630  -29.5390   23.5330 C   0  0  0  0  0  3  0  0  0  0  0  0
  -16.7820  -28.2970   22.9100 C   0  0  0  0  0  3  0  0  0  0  0  0
  -25.8130  -32.3860   23.7880 C   0  0  0  0  0  3  0  0  0  0  0  0
  -25.4640  -33.7720   24.1280 N   0  0  0  0  0  0  0  0  0  0  0  0
  -25.7820  -34.8400   23.3850 C   0  0  0  0  0  0  0  0  0  0  0  0
  -26.4750  -34.7660   22.3650 O   0  0  0  0  0  0  0  0  0  0  0  0
  -24.8510  -33.9020   24.9190 H   0  0  0  0  0  0  0  0  0  0  0  0
  -24.0190  -36.5940   23.0150 C   0  0  0  0  0  1  0  0  0  0  0  0
  -25.2520  -36.2110   23.8480 C   0  0  0  0  0  3  0  0  0  0  0  0
  -27.3440  -37.1410   24.7350 C   0  0  0  0  0  1  0  0  0  0  0  0
  -26.2600  -37.2900   23.7670 N   0  0  0  0  0  0  0  0  0  0  0  0
  -25.8270  -38.1990   23.9140 H   0  0  0  0  0  0  0  0  0  0  0  0
  -26.3260  -31.6100   25.0630 C   0  0  1  0  0  0  0  0  0  0  0  0
  -25.2210  -31.3350   26.1090 C   0  0  0  0  0  1  0  0  0  0  0  0
  -26.9460  -30.2510   24.6620 C   0  0  0  0  0  1  0  0  0  0  0  0
  -27.4450  -32.4240   25.7560 C   0  0  0  0  0  1  0  0  0  0  0  0
  -30.8490  -19.8230   22.1580 C   0  0  0  0  0  1  0  0  0  0  0  0
  -30.3980  -19.6810   20.6910 C   0  0  0  0  0  3  0  0  0  0  0  0
  -29.9060  -18.2020   20.4100 C   0  0  0  0  0  3  0  0  0  0  0  0
  -30.9560  -17.0570   20.6640 C   0  0  0  0  0  3  0  0  0  0  0  0
  -31.1180  -14.5920   20.0200 C   0  0  0  0  0  0  0  0  0  0  0  0
  -30.7630  -12.3540   19.0230 C   0  0  0  0  0  2  0  0  0  0  0  0
  -29.7900  -12.4800   17.8340 C   0  0  0  0  0  2  0  0  0  0  0  0
  -28.3260  -12.3980   18.3100 C   0  0  0  0  0  2  0  0  0  0  0  0
  -28.0370  -13.3190   19.5260 C   0  0  0  0  0  3  0  0  0  0  0  0
  -29.1210  -13.1670   20.6150 C   0  0  0  0  0  2  0  0  0  0  0  0
  -30.4260  -13.4170   19.9850 N   0  0  0  0  0  0  0  0  0  0  0  0
  -32.2410  -14.7090   19.5240 O   0  0  0  0  0  0  0  0  0  0  0  0
  -30.4490  -15.6670   20.5070 N   0  0  0  0  0  0  0  0  0  0  0  0
  -29.5220  -15.4780   20.8590 H   0  0  0  0  0  0  0  0  0  0  0  0
  -25.7150  -14.0300   20.3730 C   0  0  0  0  0  0  0  0  0  0  0  0
  -24.6250  -13.3050   20.7740 C   0  0  0  0  0  0  0  0  0  0  0  0
  -25.0070  -11.9310   20.6820 C   0  0  0  0  0  0  0  0  0  0  0  0
  -26.6960  -13.1000   20.0630 N   0  0  0  0  0  0  0  0  0  0  0  0
  -26.2780  -11.8310   20.3060 N   0  0  0  0  0  0  0  0  0  0  0  0
  -24.2200  -10.7040   20.8710 C   0  0  0  0  0  0  0  0  0  0  0  0
  -24.6170   -9.7050   21.7840 C   0  0  0  0  0  3  0  0  0  0  0  0
  -23.8340   -8.5450   21.9610 C   0  0  0  0  0  3  0  0  0  0  0  0
  -22.6370   -8.3760   21.2260 C   0  0  0  0  0  0  0  0  0  0  0  0
  -22.2560   -9.3650   20.3020 C   0  0  0  0  0  3  0  0  0  0  0  0
  -23.0400  -10.5170   20.1220 C   0  0  0  0  0  3  0  0  0  0  0  0
  -21.8250   -7.2700   21.3140 O   0  0  0  0  0  0  0  0  0  0  0  0
  -21.7230   -6.5450   22.4740 C   0  0  0  0  0  0  0  0  0  0  0  0
  -21.2990   -7.1320   23.6860 C   0  0  0  0  0  3  0  0  0  0  0  0
  -21.1400   -6.3350   24.8370 C   0  0  0  0  0  3  0  0  0  0  0  0
  -21.3950   -4.9520   24.7780 C   0  0  0  0  0  0  0  0  0  0  0  0
  -21.8110   -4.3630   23.5710 C   0  0  0  0  0  3  0  0  0  0  0  0
  -21.9720   -5.1580   22.4220 C   0  0  0  0  0  0  0  0  0  0  0  0
  -22.3530   -4.5820   21.2550 F   0  0  0  0  0  0  0  0  0  0  0  0
  -21.2340   -4.1840   25.8820 F   0  0  0  0  0  0  0  0  0  0  0  0
  -23.2720  -13.8490   21.1290 C   0  0  0  0  0  0  0  0  0  0  0  0
  -22.5570  -13.1810   22.0280 N   0  0  0  0  0  0  0  0  0  0  0  0
  -22.8610  -14.9020   20.6440 O   0  0  0  0  0  0  0  0  0  0  0  0
  -22.9030  -12.3290   22.4440 H   0  0  0  0  0  0  0  0  0  0  0  0
  -21.6490  -13.5270   22.3060 H   0  0  0  0  0  0  0  0  0  0  0  0
  -25.9490  -15.3940   20.2250 N   0  0  0  0  0  0  0  0  0  0  0  0
  -25.2200  -16.0830   20.3770 H   0  0  0  0  0  0  0  0  0  0  0  0
  -26.8000  -15.7930   19.8520 H   0  0  0  0  0  0  0  0  0  0  0  0
  1  4  2  0
  1  3  1  0
  3  7  1  0
  3  2  2  0
  4  5  1  0
  5 51  1  0
  5  2  1  0
  7  8  1  0
  7  6  1  0
  9 11  1  0
  9  8  1  0
 10 21  2  0
 11 16  1  0
 12 20  1  0
 12 22  1  0
 13 19  1  0
 13 15  1  0
 14 20  1  0
 15 16  2  0
 15 14  1  0
 17 18  1  0
 17 11  2  0
 18 13  2  0
 19 12  1  0
 20 10  1  0
 22 24  2  0
 23 22  1  0
 25 23  1  0
 26 35  2  0
 26 31  1  0
 27 23  1  0
 27 31  1  0
 28 27  1  0
 29 30  1  0
 29 28  1  0
 30 26  1  0
 31 32  2  0
 32 33  1  0
 34 33  2  0
 35 34  1  0
 36 10  1  0
 36 37  1  0
 36 46  1  0
 37 40  1  0
 38 42  1  0
 38 37  1  0
 39 38  2  0
 42 41  1  0
 44 42  1  0
 44 45  1  0
 44 43  1  0
 46 49  1  1
 46 47  1  0
 48 46  1  0
 51 50  1  0
 52 53  2  0
 52 51  1  0
 54 62  1  0
 55 60  1  0
 56 57  1  0
 56 55  1  0
 58 57  1  0
 58 67  1  0
 58 59  1  0
 60 54  1  0
 60 59  1  0
 61 54  2  0
 62 53  1  0
 62 63  1  0
 64 65  2  0
 65 84  1  0
 66 65  1  0
 66 69  1  0
 67 68  1  0
 67 64  1  0
 68 66  2  0
 69 70  1  0
 70 71  2  0
 72 75  1  0
 72 71  1  0
 73 72  2  0
 74 73  1  0
 74 69  2  0
 75 76  1  0
 76 77  1  0
 77 78  2  0
 79 78  1  0
 79 83  1  0
 80 79  2  0
 81 76  2  0
 81 80  1  0
 82 81  1  0
 84 85  1  0
 85 88  1  0
 85 87  1  0
 86 84  2  0
 89 64  1  0
 89 90  1  0
 91 89  1  0
M  ISO  4   8 101   9 101  54 100  62 100
M  END
>  <TORSDO>  (91) 
F 21

>  <SCORE>  (91) 
-13.253

>  <name>  (91) 
91

>  <ligand_id>  (91) 
91

>  <original_smiles>  (91) 
[H]c1nn(C([H])(C([H])([H])[H])C([H])([H])C([H])([H])N([H])C(=O)N2C([H])([H])C([H])([H])C([H])([H])C([H])(n3nc(-c4c([H])c([H])c(Oc5c([H])c([H])c(F)c([H])c5F)c([H])c4[H])c(C(=O)N([H])[H])c3N([H])[H])C2([H])[H])c([H])c1C([H])(C([H])([H])[H])C([H])([H])Oc1c([H])c([H])c2c(c1[H])C([H])([H])N(C(=O)C([H])(N([H])C(=O)C([H])(N([H])C([H])([H])[H])C([H])([H])[H])C(C([H])([H])[H])(C([H])([H])[H])C([H])([H])[H])C([H])(C(=O)N([H])C1([H])c3c([H])c([H])c([H])c([H])c3C([H])([H])C([H])([H])C1([H])[H])C2([H])[H]

>  <smiles>  (91) 
[H]c1nn(C([H])(C([H])([H])[H])C([H])([H])C([H])([H])N([H])C(=O)N2C([H])([H])C([H])([H])C([H])([H])C([H])(n3nc(-c4c([H])c([H])c(Oc5c([H])c([H])c(F)c([H])c5F)c([H])c4[H])c(C(=O)N([H])[H])c3N([H])[H])C2([H])[H])c([H])c1C([H])(C([H])([H])[H])C([H])([H])Oc1c([H])c([H])c2c(c1[H])C([H])([H])N(C(=O)C([H])(N([H])C(=O)C([H])(N([H])C([H])([H])[H])C([H])([H])[H])C(C([H])([H])[H])(C([H])([H])[H])C([H])([H])[H])C([H])(C(=O)N([H])C1([H])c3c([H])c([H])c([H])c([H])c3C([H])([H])C([H])([H])C1([H])[H])C2([H])[H]

$$$$
92:0:0
     RDKit          3D

 92100  0  0  1  0  0  0  0  0999 V2000
  -26.7400  -22.6440   19.2590 C   0  0  0  0  0  1  0  0  0  0  0  0
  -28.0360  -23.0210   20.0030 C   0  0  0  0  0  3  0  0  0  0  0  0
  -29.5040  -19.3800   20.0820 C   0  0  0  0  0  0  0  0  0  0  0  0
  -29.3940  -21.1430   21.3470 C   0  0  0  0  0  3  0  0  0  0  0  0
  -29.4390  -22.0050   22.5690 C   0  0  0  0  0  1  0  0  0  0  0  0
  -29.8120  -19.8450   21.3400 N   0  0  0  0  0  0  0  0  0  0  0  0
  -28.9330  -20.4390   19.3610 N   0  0  0  0  0  2  0  0  0  0  0  0
  -28.8570  -21.6180   20.1980 N   0  0  0  0  0  0  0  0  0  0  0  0
  -31.4820  -18.1240   19.0230 C   0  0  0  0  0  1  0  0  0  0  0  0
  -30.0290  -17.8960   19.4830 C   0  0  0  0  0  0  0  0  0  0  0  0
  -30.5940  -15.1320   19.9530 C   0  0  0  0  0  0  0  0  0  0  0  0
  -30.4740  -12.6910   19.1970 C   0  0  0  0  0  2  0  0  0  0  0  0
  -29.5290  -12.5670   17.9830 C   0  0  0  0  0  2  0  0  0  0  0  0
  -28.0840  -12.3320   18.4560 C   0  0  0  0  0  2  0  0  0  0  0  0
  -27.6840  -13.3110   19.5920 C   0  0  0  0  0  3  0  0  0  0  0  0
  -28.7630  -13.4380   20.6890 C   0  0  0  0  0  2  0  0  0  0  0  0
  -30.0050  -13.8530   20.0240 N   0  0  0  0  0  0  0  0  0  0  0  0
  -31.7790  -15.1180   19.6050 O   0  0  0  0  0  0  0  0  0  0  0  0
  -29.8560  -16.3810   20.0580 N   0  0  0  0  0  4  0  0  0  0  0  0
  -28.9390  -16.2570   20.4560 H   0  0  0  0  0  0  0  0  0  0  0  0
  -25.3460  -13.8930   20.4450 C   0  0  0  0  0  0  0  0  0  0  0  0
  -24.2920  -13.1240   20.8450 C   0  0  0  0  0  0  0  0  0  0  0  0
  -24.7380  -11.7690   20.7710 C   0  0  0  0  0  0  0  0  0  0  0  0
  -26.3680  -13.0110   20.1440 N   0  0  0  0  0  0  0  0  0  0  0  0
  -26.0150  -11.7260   20.4050 N   0  0  0  0  0  0  0  0  0  0  0  0
  -24.0030  -10.5140   20.9610 C   0  0  0  0  0  0  0  0  0  0  0  0
  -24.4240   -9.5410   21.8930 C   0  0  0  0  0  3  0  0  0  0  0  0
  -23.6820   -8.3550   22.0740 C   0  0  0  0  0  3  0  0  0  0  0  0
  -22.5040   -8.1320   21.3240 C   0  0  0  0  0  0  0  0  0  0  0  0
  -22.1040   -9.0920   20.3780 C   0  0  0  0  0  3  0  0  0  0  0  0
  -22.8470  -10.2700   20.1940 C   0  0  0  0  0  3  0  0  0  0  0  0
  -21.7330   -6.9970   21.4160 O   0  0  0  0  0  0  0  0  0  0  0  0
  -21.6340   -6.2860   22.5850 C   0  0  0  0  0  0  0  0  0  0  0  0
  -21.1590   -6.8730   23.7770 C   0  0  0  0  0  3  0  0  0  0  0  0
  -21.0050   -6.0880   24.9370 C   0  0  0  0  0  3  0  0  0  0  0  0
  -21.3190   -4.7160   24.9080 C   0  0  0  0  0  0  0  0  0  0  0  0
  -21.7880   -4.1280   23.7200 C   0  0  0  0  0  3  0  0  0  0  0  0
  -21.9430   -4.9110   22.5610 C   0  0  0  0  0  0  0  0  0  0  0  0
  -22.3740   -4.3330   21.4150 F   0  0  0  0  0  0  0  0  0  0  0  0
  -21.1670   -3.9610   26.0200 F   0  0  0  0  0  0  0  0  0  0  0  0
  -22.9140  -13.6150   21.1840 C   0  0  0  0  0  0  0  0  0  0  0  0
  -22.2180  -12.9220   22.0750 N   0  0  0  0  0  0  0  0  0  0  0  0
  -22.4690  -14.6520   20.6880 O   0  0  0  0  0  0  0  0  0  0  0  0
  -22.5910  -12.0830   22.4970 H   0  0  0  0  0  0  0  0  0  0  0  0
  -21.2940  -13.2330   22.3420 H   0  0  0  0  0  0  0  0  0  0  0  0
  -25.5160  -15.2680   20.2850 N   0  0  0  0  0  0  0  0  0  0  0  0
  -24.7450  -15.9160   20.4130 H   0  0  0  0  0  0  0  0  0  0  0  0
  -26.3530  -15.7200   19.9420 H   0  0  0  0  0  0  0  0  0  0  0  0
  -30.0810  -24.5070   19.9780 C   0  0  0  0  0  1  0  0  0  0  0  0
  -28.5410  -24.7270   18.0170 C   0  0  0  0  0  1  0  0  0  0  0  0
  -28.6030  -24.6010   19.5530 C   0  0  1  0  0  0  0  0  0  0  0  0
  -28.3260  -26.1100   20.0320 O   0  0  0  0  0  0  0  0  0  0  0  0
  -24.6410  -31.7650   23.0380 C   0  0  0  0  0  0  0  0  0  0  0  0
  -27.2510  -27.0890   19.9030 C   0  0  0  0  0  0  0  0  0  0  0  0
  -23.4500  -30.3930   21.3710 C   0  0  0  0  0  3  0  0  0  0  0  0
  -24.9050  -28.8480   19.9050 C   0  0  0  0  0  0  0  0  0  0  0  0
  -25.9980  -30.6820   21.1910 C   0  0  0  0  0  2  0  0  0  0  0  0
  -26.0840  -29.2930   20.5130 C   0  0  0  0  0  0  0  0  0  0  0  0
  -27.2500  -28.4290   20.4970 C   0  0  0  0  0  3  0  0  0  0  0  0
  -26.0400  -26.7540   19.2650 C   0  0  0  0  0  3  0  0  0  0  0  0
  -24.8960  -27.5890   19.2770 C   0  0  0  0  0  3  0  0  0  0  0  0
  -23.6750  -29.7460   19.9750 C   0  0  0  0  0  2  0  0  0  0  0  0
  -24.7180  -30.9690   21.9250 N   0  0  0  0  0  0  0  0  0  0  0  0
  -23.5540  -32.0220   23.5800 O   0  0  0  0  0  0  0  0  0  0  0  0
  -22.7910  -29.3570   22.3150 C   0  0  0  0  0  0  0  0  0  0  0  0
  -21.4620  -29.1870   22.2020 N   0  0  0  0  0  0  0  0  0  0  0  0
  -23.4760  -28.7100   23.1120 O   0  0  0  0  0  0  0  0  0  0  0  0
  -20.9680  -29.7640   21.5360 H   0  0  0  0  0  0  0  0  0  0  0  0
  -18.0950  -27.9350   22.6970 C   0  0  0  0  0  0  0  0  0  0  0  0
  -20.6540  -28.2210   22.9520 C   0  0  0  0  0  3  0  0  0  0  0  0
  -20.7680  -26.8080   22.3360 C   0  0  0  0  0  2  0  0  0  0  0  0
  -19.6620  -26.5010   21.3220 C   0  0  0  0  0  2  0  0  0  0  0  0
  -18.2830  -26.6090   21.9800 C   0  0  0  0  0  2  0  0  0  0  0  0
  -19.2090  -28.7000   23.1390 C   0  0  0  0  0  0  0  0  0  0  0  0
  -18.9800  -29.9410   23.7720 C   0  0  0  0  0  3  0  0  0  0  0  0
  -17.6720  -30.4160   23.9740 C   0  0  0  0  0  3  0  0  0  0  0  0
  -16.5730  -29.6500   23.5480 C   0  0  0  0  0  3  0  0  0  0  0  0
  -16.7850  -28.4130   22.9120 C   0  0  0  0  0  3  0  0  0  0  0  0
  -25.9140  -32.4040   23.6770 C   0  0  0  0  0  3  0  0  0  0  0  0
  -26.4360  -31.6090   24.9370 C   0  0  1  0  0  0  0  0  0  0  0  0
  -25.3440  -31.3500   26.0060 C   0  0  0  0  0  1  0  0  0  0  0  0
  -27.0220  -30.2430   24.5110 C   0  0  0  0  0  1  0  0  0  0  0  0
  -27.5950  -32.3850   25.6050 C   0  0  0  0  0  1  0  0  0  0  0  0
  -25.5890  -33.7910   24.0510 N   0  0  0  0  0  0  0  0  0  0  0  0
  -25.9110  -34.8740   23.3300 C   0  0  0  0  0  0  0  0  0  0  0  0
  -26.5850  -34.8110   22.3000 O   0  0  0  0  0  0  0  0  0  0  0  0
  -25.0120  -33.9170   24.8690 H   0  0  0  0  0  0  0  0  0  0  0  0
  -24.1720  -36.6660   23.0200 C   0  0  0  0  0  1  0  0  0  0  0  0
  -25.4070  -36.2440   23.8310 C   0  0  0  0  0  3  0  0  0  0  0  0
  -27.5210  -37.1200   24.7240 C   0  0  0  0  0  1  0  0  0  0  0  0
  -26.4310  -37.3110   23.7680 N   0  0  0  0  0  0  0  0  0  0  0  0
  -26.0140  -38.2190   23.9440 H   0  0  0  0  0  0  0  0  0  0  0  0
  2  1  1  0
  2  8  1  0
  3  6  2  0
  4  5  1  0
  6  4  1  0
  7  3  1  0
  7  8  1  0
  8  4  1  0
  9 10  1  0
 10 19  2  0
 10  3  1  0
 11 17  1  0
 11 19  1  0
 12 17  1  0
 13 14  1  0
 13 12  1  0
 15 14  1  0
 15 24  1  0
 15 16  1  0
 17 16  1  0
 18 11  2  0
 19 20  1  0
 21 22  2  0
 22 41  1  0
 23 22  1  0
 23 26  1  0
 24 25  1  0
 24 21  1  0
 25 23  2  0
 26 27  1  0
 27 28  2  0
 29 32  1  0
 29 28  1  0
 30 29  2  0
 31 30  1  0
 31 26  2  0
 32 33  1  0
 33 34  1  0
 34 35  2  0
 36 35  1  0
 36 40  1  0
 37 36  2  0
 38 33  2  0
 38 37  1  0
 39 38  1  0
 41 42  1  0
 42 45  1  0
 42 44  1  0
 43 41  2  0
 46 47  1  0
 46 21  1  0
 48 46  1  0
 51 50  1  6
 51 49  1  0
 51  2  1  0
 51 52  1  0
 53 64  2  0
 54 52  1  0
 54 59  1  0
 55 63  1  0
 55 65  1  0
 56 62  1  0
 56 58  1  0
 57 63  1  0
 58 57  1  0
 59 58  2  0
 60 61  1  0
 60 54  2  0
 61 56  2  0
 62 55  1  0
 63 53  1  0
 65 67  2  0
 66 65  1  0
 68 66  1  0
 69 78  2  0
 69 74  1  0
 70 66  1  0
 70 74  1  0
 71 70  1  0
 72 73  1  0
 72 71  1  0
 73 69  1  0
 74 75  2  0
 75 76  1  0
 77 76  2  0
 78 77  1  0
 79 53  1  0
 79 84  1  0
 79 80  1  0
 80 83  1  1
 80 81  1  0
 82 80  1  0
 84 87  1  0
 85 89  1  0
 85 84  1  0
 86 85  2  0
 89 88  1  0
 91 89  1  0
 91 92  1  0
 91 90  1  0
M  ISO  4  11 100  19 100  51 101  52 101
M  END
>  <TORSDO>  (92) 
F 19

>  <SCORE>  (92) 
-14.621

>  <name>  (92) 
92

>  <ligand_id>  (92) 
92

>  <original_smiles>  (92) 
[H]c1c([H])c([H])c2c(c1[H])C([H])([H])C([H])([H])C([H])([H])C2([H])N([H])C(=O)C1([H])N(C(=O)C([H])(N([H])C(=O)C([H])(N([H])C([H])([H])[H])C([H])([H])[H])C(C([H])([H])[H])(C([H])([H])[H])C([H])([H])[H])C([H])([H])c2c([H])c(OC(C([H])([H])[H])(C([H])([H])[H])C([H])(n3nc(C([H])(N([H])C(=O)N4C([H])([H])C([H])([H])C([H])([H])C([H])(n5nc(-c6c([H])c([H])c(Oc7c([H])c([H])c(F)c([H])c7F)c([H])c6[H])c(C(=O)N([H])[H])c5N([H])[H])C4([H])[H])C([H])([H])[H])nc3C([H])([H])[H])C([H])([H])[H])c([H])c([H])c2C1([H])[H]

>  <smiles>  (92) 
[H]c1c([H])c([H])c2c(c1[H])C([H])([H])C([H])([H])C([H])([H])C2([H])N([H])C(=O)C1([H])N(C(=O)C([H])(N([H])C(=O)C([H])(N([H])C([H])([H])[H])C([H])([H])[H])C(C([H])([H])[H])(C([H])([H])[H])C([H])([H])[H])C([H])([H])c2c([H])c(OC(C([H])([H])[H])(C([H])([H])[H])C([H])(n3nc(C([H])(N([H])C(=O)N4C([H])([H])C([H])([H])C([H])([H])C([H])(n5nc(-c6c([H])c([H])c(Oc7c([H])c([H])c(F)c([H])c7F)c([H])c6[H])c(C(=O)N([H])[H])c5N([H])[H])C4([H])[H])C([H])([H])[H])nc3C([H])([H])[H])C([H])([H])[H])c([H])c([H])c2C1([H])[H]

$$$$
93:0:0
     RDKit          3D

 93101  0  0  1  0  0  0  0  0999 V2000
  -27.1570  -21.3660   20.2830 C   0  0  0  0  0  1  0  0  0  0  0  0
  -28.8870  -22.1590   21.9200 C   0  0  0  0  0  1  0  0  0  0  0  0
  -28.6090  -21.8710   20.4350 C   0  0  2  0  0  0  0  0  0  0  0  0
  -28.8400  -23.1630   19.5820 C   0  0  0  0  0  2  0  0  0  0  0  0
  -28.1360  -24.4690   20.0290 C   0  0  0  0  0  2  0  0  0  0  0  0
  -28.5560  -25.6890   19.1810 C   0  0  0  0  0  2  0  0  0  0  0  0
  -28.3770  -26.9390   19.8500 O   0  0  0  0  0  0  0  0  0  0  0  0
  -24.5540  -31.9020   23.1510 C   0  0  0  0  0  0  0  0  0  0  0  0
  -27.1600  -27.5850   19.8700 C   0  0  0  0  0  0  0  0  0  0  0  0
  -23.3170  -30.5450   21.4920 C   0  0  0  0  0  3  0  0  0  0  0  0
  -24.7470  -29.0640   19.9790 C   0  0  0  0  0  0  0  0  0  0  0  0
  -25.8310  -30.9290   21.2430 C   0  0  0  0  0  2  0  0  0  0  0  0
  -25.9080  -29.5740   20.5710 C   0  0  0  0  0  0  0  0  0  0  0  0
  -27.1080  -28.8350   20.5280 C   0  0  0  0  0  3  0  0  0  0  0  0
  -25.9800  -27.0820   19.2740 C   0  0  0  0  0  3  0  0  0  0  0  0
  -24.7770  -27.8140   19.3300 C   0  0  0  0  0  3  0  0  0  0  0  0
  -23.4990  -29.9140   20.0830 C   0  0  0  0  0  2  0  0  0  0  0  0
  -24.5870  -31.1410   22.0210 N   0  0  0  0  0  0  0  0  0  0  0  0
  -23.4830  -32.1470   23.7230 O   0  0  0  0  0  0  0  0  0  0  0  0
  -22.7010  -29.4850   22.4340 C   0  0  0  0  0  0  0  0  0  0  0  0
  -21.3790  -29.2850   22.3200 N   0  0  0  0  0  0  0  0  0  0  0  0
  -23.4060  -28.8500   23.2220 O   0  0  0  0  0  0  0  0  0  0  0  0
  -20.8720  -29.8510   21.6560 H   0  0  0  0  0  0  0  0  0  0  0  0
  -18.0300  -28.0160   22.7970 C   0  0  0  0  0  0  0  0  0  0  0  0
  -20.5820  -28.3150   23.0690 C   0  0  0  0  0  3  0  0  0  0  0  0
  -20.7150  -26.9000   22.4580 C   0  0  0  0  0  2  0  0  0  0  0  0
  -19.6160  -26.5790   21.4400 C   0  0  0  0  0  2  0  0  0  0  0  0
  -18.2330  -26.6840   22.0910 C   0  0  0  0  0  2  0  0  0  0  0  0
  -19.1360  -28.7890   23.2390 C   0  0  0  0  0  0  0  0  0  0  0  0
  -18.8940  -30.0370   23.8560 C   0  0  0  0  0  3  0  0  0  0  0  0
  -17.5820  -30.5100   24.0340 C   0  0  0  0  0  3  0  0  0  0  0  0
  -16.4910  -29.7320   23.6110 C   0  0  0  0  0  3  0  0  0  0  0  0
  -16.7160  -28.4860   22.9960 C   0  0  0  0  0  3  0  0  0  0  0  0
  -25.8480  -32.5220   23.7640 C   0  0  0  0  0  3  0  0  0  0  0  0
  -25.5520  -33.9160   24.1160 N   0  0  0  0  0  0  0  0  0  0  0  0
  -25.8900  -34.9760   23.3680 C   0  0  0  0  0  0  0  0  0  0  0  0
  -26.5560  -34.8820   22.3330 O   0  0  0  0  0  0  0  0  0  0  0  0
  -24.9690  -34.0660   24.9260 H   0  0  0  0  0  0  0  0  0  0  0  0
  -24.1810  -36.7890   23.0290 C   0  0  0  0  0  1  0  0  0  0  0  0
  -25.4120  -36.3620   23.8440 C   0  0  0  0  0  3  0  0  0  0  0  0
  -27.5440  -37.2150   24.7100 C   0  0  0  0  0  1  0  0  0  0  0  0
  -26.4550  -37.4070   23.7570 N   0  0  0  0  0  0  0  0  0  0  0  0
  -26.0560  -38.3280   23.9130 H   0  0  0  0  0  0  0  0  0  0  0  0
  -26.3820  -31.7310   25.0200 C   0  0  1  0  0  0  0  0  0  0  0  0
  -25.3090  -31.4770   26.1060 C   0  0  0  0  0  1  0  0  0  0  0  0
  -26.9530  -30.3610   24.5880 C   0  0  0  0  0  1  0  0  0  0  0  0
  -27.5450  -32.5140   25.6790 C   0  0  0  0  0  1  0  0  0  0  0  0
  -29.6320  -20.8120   19.9240 C   0  0  0  0  0  2  0  0  0  0  0  0
  -30.5480  -17.7780   21.6480 C   0  0  0  0  0  2  0  0  0  0  0  0
  -30.2410  -19.1100   21.7160 C   0  0  0  0  0  2  0  0  0  0  0  0
  -30.1940  -17.3210   20.3430 C   0  0  0  0  0  3  0  0  0  0  0  0
  -29.3220  -18.2800   19.8580 C   0  0  0  0  0  3  0  0  0  0  0  0
  -28.3910  -18.3150   18.6820 C   0  0  0  0  0  1  0  0  0  0  0  0
  -29.6610  -19.4610   20.5110 N   0  0  0  0  0  0  0  0  0  0  0  0
  -30.3280  -16.0310   18.0940 C   0  0  0  0  0  1  0  0  0  0  0  0
  -32.2300  -17.0160   19.1510 C   0  0  0  0  0  1  0  0  0  0  0  0
  -30.9190  -16.2460   19.5080 C   0  0  1  0  0  0  0  0  0  0  0  0
  -31.3520  -14.8780   20.2210 C   0  0  0  0  0  0  0  0  0  0  0  0
  -30.9840  -12.6330   19.3440 C   0  0  0  0  0  2  0  0  0  0  0  0
  -30.0630  -12.6480   18.1090 C   0  0  0  0  0  2  0  0  0  0  0  0
  -28.5750  -12.6850   18.5040 C   0  0  0  0  0  2  0  0  0  0  0  0
  -28.2230  -13.5960   19.7140 C   0  0  0  0  0  3  0  0  0  0  0  0
  -29.2790  -13.5280   20.8310 C   0  0  0  0  0  2  0  0  0  0  0  0
  -30.5930  -13.7440   20.2160 N   0  0  0  0  0  0  0  0  0  0  0  0
  -32.5670  -14.7570   20.3800 O   0  0  0  0  0  0  0  0  0  0  0  0
  -25.8450  -14.2610   20.3920 C   0  0  0  0  0  0  0  0  0  0  0  0
  -24.7450  -13.5170   20.7210 C   0  0  0  0  0  0  0  0  0  0  0  0
  -25.1740  -12.1540   20.7070 C   0  0  0  0  0  0  0  0  0  0  0  0
  -26.8690  -13.3500   20.1910 N   0  0  0  0  0  0  0  0  0  0  0  0
  -26.4730  -12.0790   20.4490 N   0  0  0  0  0  0  0  0  0  0  0  0
  -24.4100  -10.9110   20.8660 C   0  0  0  0  0  0  0  0  0  0  0  0
  -24.7670   -9.9410   21.8300 C   0  0  0  0  0  3  0  0  0  0  0  0
  -24.0080   -8.7590   21.9710 C   0  0  0  0  0  3  0  0  0  0  0  0
  -22.8800   -8.5400   21.1470 C   0  0  0  0  0  0  0  0  0  0  0  0
  -22.5470   -9.4920   20.1670 C   0  0  0  0  0  3  0  0  0  0  0  0
  -23.3060  -10.6650   20.0240 C   0  0  0  0  0  3  0  0  0  0  0  0
  -22.0870   -7.4180   21.2060 O   0  0  0  0  0  0  0  0  0  0  0  0
  -21.9000   -6.7320   22.3760 C   0  0  0  0  0  0  0  0  0  0  0  0
  -21.3370   -7.3420   23.5200 C   0  0  0  0  0  3  0  0  0  0  0  0
  -21.1000   -6.5790   24.6790 C   0  0  0  0  0  3  0  0  0  0  0  0
  -21.4150   -5.2080   24.7010 C   0  0  0  0  0  0  0  0  0  0  0  0
  -21.9760   -4.5990   23.5630 C   0  0  0  0  0  3  0  0  0  0  0  0
  -22.2170   -5.3580   22.4070 C   0  0  0  0  0  0  0  0  0  0  0  0
  -22.7350   -4.7620   21.3060 F   0  0  0  0  0  0  0  0  0  0  0  0
  -21.1810   -4.4720   25.8120 F   0  0  0  0  0  0  0  0  0  0  0  0
  -23.3520  -14.0300   20.9430 C   0  0  0  0  0  0  0  0  0  0  0  0
  -22.5750  -13.3580   21.7870 N   0  0  0  0  0  0  0  0  0  0  0  0
  -22.9570  -15.0640   20.4060 O   0  0  0  0  0  0  0  0  0  0  0  0
  -22.9000  -12.5240   22.2500 H   0  0  0  0  0  0  0  0  0  0  0  0
  -21.6380  -13.6880   21.9750 H   0  0  0  0  0  0  0  0  0  0  0  0
  -26.0560  -15.6260   20.2240 N   0  0  0  0  0  0  0  0  0  0  0  0
  -25.3210  -16.3160   20.3340 H   0  0  0  0  0  0  0  0  0  0  0  0
  -26.9560  -16.0350   19.9980 H   0  0  0  0  0  0  0  0  0  0  0  0
  3  1  1  1
  3  2  1  0
  4  5  1  0
  4  3  1  0
  6  7  1  0
  6  5  1  0
  7  9  1  0
  8 19  2  0
  9 14  1  0
 10 18  1  0
 10 20  1  0
 11 17  1  0
 11 13  1  0
 12 18  1  0
 13 12  1  0
 14 13  2  0
 15 16  1  0
 15  9  2  0
 16 11  2  0
 17 10  1  0
 18  8  1  0
 20 22  2  0
 21 20  1  0
 23 21  1  0
 24 33  2  0
 24 29  1  0
 25 21  1  0
 25 29  1  0
 26 25  1  0
 27 28  1  0
 27 26  1  0
 28 24  1  0
 29 30  2  0
 30 31  1  0
 32 31  2  0
 33 32  1  0
 34  8  1  0
 34 35  1  0
 34 44  1  0
 35 38  1  0
 36 40  1  0
 36 35  1  0
 37 36  2  0
 40 39  1  0
 42 40  1  0
 42 43  1  0
 42 41  1  0
 44 47  1  1
 44 45  1  0
 46 44  1  0
 48  3  1  0
 48 54  1  0
 49 50  1  0
 51 57  1  0
 51 49  1  0
 52 53  1  0
 52 51  1  0
 52 54  1  0
 54 50  1  0
 57 55  1  6
 56 57  1  0
 57 58  1  0
 58 65  2  0
 59 64  1  0
 60 61  1  0
 60 59  1  0
 62 61  1  0
 62 69  1  0
 62 63  1  0
 64 58  1  0
 64 63  1  0
 66 67  2  0
 67 86  1  0
 68 67  1  0
 68 71  1  0
 69 66  1  0
 69 70  1  0
 70 68  2  0
 71 72  1  0
 72 73  2  0
 74 77  1  0
 74 73  1  0
 75 74  2  0
 76 75  1  0
 76 71  2  0
 77 78  1  0
 78 83  2  0
 78 79  1  0
 79 80  2  0
 80 81  1  0
 81 85  1  0
 82 81  2  0
 83 82  1  0
 84 83  1  0
 86 87  1  0
 87 90  1  0
 87 89  1  0
 88 86  2  0
 91 92  1  0
 91 66  1  0
 93 91  1  0
M  ISO  4   6 101   7 101  57 100  58 100
M  END
>  <TORSDO>  (93) 
F 22

>  <SCORE>  (93) 
-11.896

>  <name>  (93) 
93

>  <ligand_id>  (93) 
93

>  <original_smiles>  (93) 
[H]c1c([H])c([H])c2c(c1[H])C([H])([H])C([H])([H])C([H])([H])C2([H])N([H])C(=O)C1([H])N(C(=O)C([H])(N([H])C(=O)C([H])(N([H])C([H])([H])[H])C([H])([H])[H])C(C([H])([H])[H])(C([H])([H])[H])C([H])([H])[H])C([H])([H])c2c([H])c(OC([H])([H])C([H])([H])C([H])([H])C(C([H])([H])[H])(C([H])([H])[H])C([H])([H])n3c([H])c([H])c(C(C(=O)N4C([H])([H])C([H])([H])C([H])([H])C([H])(n5nc(-c6c([H])c([H])c(Oc7c([H])c([H])c(F)c([H])c7F)c([H])c6[H])c(C(=O)N([H])[H])c5N([H])[H])C4([H])[H])(C([H])([H])[H])C([H])([H])[H])c3C([H])([H])[H])c([H])c([H])c2C1([H])[H]

>  <smiles>  (93) 
[H]c1c([H])c([H])c2c(c1[H])C([H])([H])C([H])([H])C([H])([H])C2([H])N([H])C(=O)C1([H])N(C(=O)C([H])(N([H])C(=O)C([H])(N([H])C([H])([H])[H])C([H])([H])[H])C(C([H])([H])[H])(C([H])([H])[H])C([H])([H])[H])C([H])([H])c2c([H])c(OC([H])([H])C([H])([H])C([H])([H])C(C([H])([H])[H])(C([H])([H])[H])C([H])([H])n3c([H])c([H])c(C(C(=O)N4C([H])([H])C([H])([H])C([H])([H])C([H])(n5nc(-c6c([H])c([H])c(Oc7c([H])c([H])c(F)c([H])c7F)c([H])c6[H])c(C(=O)N([H])[H])c5N([H])[H])C4([H])[H])(C([H])([H])[H])C([H])([H])[H])c3C([H])([H])[H])c([H])c([H])c2C1([H])[H]

$$$$
94:0:0
     RDKit          3D

 95103  0  0  1  0  0  0  0  0999 V2000
  -31.1040  -22.4930   21.4060 C   0  0  0  0  0  3  0  0  0  0  0  0
  -30.1990  -22.2760   20.3500 C   0  0  0  0  0  0  0  0  0  0  0  0
  -29.9790  -20.0470   20.9860 C   0  0  0  0  0  0  0  0  0  0  0  0
  -30.8690  -20.2810   22.0860 C   0  0  0  0  0  0  0  0  0  0  0  0
  -31.4400  -21.5040   22.2620 N   0  0  0  0  0  0  0  0  0  0  0  0
  -29.6480  -21.0550   20.1320 N   0  0  0  0  0  0  0  0  0  0  0  0
  -31.3140  -19.2330   23.1200 C   0  0  1  0  0  0  0  0  0  0  0  0
  -31.5780  -19.8210   24.2900 F   0  0  0  0  0  0  0  0  0  0  0  0
  -30.4000  -18.2930   23.3610 F   0  0  0  0  0  0  0  0  0  0  0  0
  -32.4400  -18.6480   22.7090 F   0  0  0  0  0  0  0  0  0  0  0  0
  -29.7910  -23.4070   19.4190 C   0  0  0  0  0  2  0  0  0  0  0  0
  -29.3880  -24.6990   20.1550 C   0  0  0  0  0  2  0  0  0  0  0  0
  -28.6810  -25.7090   19.2470 C   0  0  0  0  0  2  0  0  0  0  0  0
  -28.5250  -26.9370   19.9700 O   0  0  0  0  0  0  0  0  0  0  0  0
  -24.6390  -31.9170   23.2520 C   0  0  0  0  0  0  0  0  0  0  0  0
  -27.3180  -27.6090   19.9900 C   0  0  0  0  0  0  0  0  0  0  0  0
  -23.4470  -30.5560   21.5720 C   0  0  0  0  0  3  0  0  0  0  0  0
  -24.9120  -29.1000   20.0860 C   0  0  0  0  0  0  0  0  0  0  0  0
  -25.9710  -30.9540   21.3790 C   0  0  0  0  0  2  0  0  0  0  0  0
  -26.0670  -29.6070   20.6910 C   0  0  0  0  0  0  0  0  0  0  0  0
  -27.2700  -28.8630   20.6490 C   0  0  0  0  0  3  0  0  0  0  0  0
  -26.1340  -27.1250   19.3810 C   0  0  0  0  0  3  0  0  0  0  0  0
  -24.9390  -27.8590   19.4370 C   0  0  0  0  0  3  0  0  0  0  0  0
  -23.6600  -29.9410   20.1670 C   0  0  0  0  0  2  0  0  0  0  0  0
  -24.7050  -31.1520   22.1260 N   0  0  0  0  0  0  0  0  0  0  0  0
  -23.5540  -32.1530   23.8040 O   0  0  0  0  0  0  0  0  0  0  0  0
  -22.8160  -29.4830   22.4910 C   0  0  0  0  0  0  0  0  0  0  0  0
  -21.4950  -29.2770   22.3540 N   0  0  0  0  0  0  0  0  0  0  0  0
  -23.5120  -28.8420   23.2840 O   0  0  0  0  0  0  0  0  0  0  0  0
  -20.9930  -29.8520   21.6920 H   0  0  0  0  0  0  0  0  0  0  0  0
  -18.1430  -28.0100   22.7950 C   0  0  0  0  0  0  0  0  0  0  0  0
  -20.6930  -28.3020   23.0930 C   0  0  0  0  0  3  0  0  0  0  0  0
  -20.8280  -26.8900   22.4770 C   0  0  0  0  0  2  0  0  0  0  0  0
  -19.7370  -26.5790   21.4480 C   0  0  0  0  0  2  0  0  0  0  0  0
  -18.3470  -26.6810   22.0860 C   0  0  0  0  0  2  0  0  0  0  0  0
  -19.2460  -28.7770   23.2530 C   0  0  0  0  0  0  0  0  0  0  0  0
  -19.0010  -30.0220   23.8720 C   0  0  0  0  0  3  0  0  0  0  0  0
  -17.6870  -30.5000   24.0390 C   0  0  0  0  0  3  0  0  0  0  0  0
  -16.5980  -29.7250   23.6010 C   0  0  0  0  0  3  0  0  0  0  0  0
  -16.8270  -28.4830   22.9830 C   0  0  0  0  0  3  0  0  0  0  0  0
  -25.9170  -32.5480   23.8840 C   0  0  0  0  0  3  0  0  0  0  0  0
  -26.4170  -31.7780   25.1670 C   0  0  1  0  0  0  0  0  0  0  0  0
  -25.3110  -31.5410   26.2200 C   0  0  0  0  0  1  0  0  0  0  0  0
  -27.0080  -30.4000   24.7810 C   0  0  0  0  0  1  0  0  0  0  0  0
  -27.5550  -32.5730   25.8460 C   0  0  0  0  0  1  0  0  0  0  0  0
  -25.6110  -33.9490   24.2010 N   0  0  0  0  0  0  0  0  0  0  0  0
  -25.9590  -34.9920   23.4360 C   0  0  0  0  0  0  0  0  0  0  0  0
  -26.6430  -34.8760   22.4150 O   0  0  0  0  0  0  0  0  0  0  0  0
  -25.0090  -34.1150   24.9950 H   0  0  0  0  0  0  0  0  0  0  0  0
  -24.2400  -36.7800   23.0410 C   0  0  0  0  0  1  0  0  0  0  0  0
  -25.4710  -36.3860   23.8730 C   0  0  0  0  0  3  0  0  0  0  0  0
  -27.5950  -37.2740   24.7230 C   0  0  0  0  0  1  0  0  0  0  0  0
  -26.5070  -37.4350   23.7610 N   0  0  0  0  0  0  0  0  0  0  0  0
  -26.1020  -38.3560   23.8990 H   0  0  0  0  0  0  0  0  0  0  0  0
  -29.2870  -18.7150   20.6610 C   0  0  0  0  0  2  0  0  0  0  0  0
  -30.0780  -17.7340   19.7620 C   0  0  0  0  0  2  0  0  0  0  0  0
  -31.1840  -16.9330   20.4880 C   0  0  0  0  0  2  0  0  0  0  0  0
  -31.4280  -14.4980   19.9240 C   0  0  0  0  0  0  0  0  0  0  0  0
  -31.0170  -12.2510   18.9940 C   0  0  0  0  0  2  0  0  0  0  0  0
  -30.0400  -12.3640   17.8030 C   0  0  0  0  0  2  0  0  0  0  0  0
  -28.5770  -12.3250   18.2860 C   0  0  0  0  0  2  0  0  0  0  0  0
  -28.3110  -13.3010   19.4610 C   0  0  0  0  0  3  0  0  0  0  0  0
  -29.3900  -13.1490   20.5560 C   0  0  0  0  0  2  0  0  0  0  0  0
  -30.7160  -13.3380   19.9340 N   0  0  0  0  0  0  0  0  0  0  0  0
  -32.4790  -14.6510   19.2910 O   0  0  0  0  0  0  0  0  0  0  0  0
  -30.8490  -15.5120   20.5820 N   0  0  0  0  0  0  0  0  0  0  0  0
  -30.0460  -15.2760   21.1500 H   0  0  0  0  0  0  0  0  0  0  0  0
  -26.0140  -14.0830   20.3170 C   0  0  0  0  0  0  0  0  0  0  0  0
  -24.9040  -13.3940   20.7180 C   0  0  0  0  0  0  0  0  0  0  0  0
  -25.2400  -12.0080   20.6130 C   0  0  0  0  0  0  0  0  0  0  0  0
  -26.9650  -13.1270   20.0020 N   0  0  0  0  0  0  0  0  0  0  0  0
  -26.5030  -11.8700   20.2330 N   0  0  0  0  0  0  0  0  0  0  0  0
  -24.4210  -10.8050   20.8010 C   0  0  0  0  0  0  0  0  0  0  0  0
  -24.7920   -9.7940   21.7160 C   0  0  0  0  0  3  0  0  0  0  0  0
  -23.9790   -8.6540   21.8890 C   0  0  0  0  0  3  0  0  0  0  0  0
  -22.7800   -8.5180   21.1510 C   0  0  0  0  0  0  0  0  0  0  0  0
  -22.4330   -9.5120   20.2200 C   0  0  0  0  0  3  0  0  0  0  0  0
  -23.2450  -10.6440   20.0430 C   0  0  0  0  0  3  0  0  0  0  0  0
  -21.9420   -7.4330   21.2350 O   0  0  0  0  0  0  0  0  0  0  0  0
  -21.8110   -6.7140   22.3960 C   0  0  0  0  0  0  0  0  0  0  0  0
  -21.3790   -7.3130   23.6020 C   0  0  0  0  0  3  0  0  0  0  0  0
  -21.1950   -6.5230   24.7540 C   0  0  0  0  0  3  0  0  0  0  0  0
  -21.4280   -5.1370   24.7010 C   0  0  0  0  0  0  0  0  0  0  0  0
  -21.8530   -4.5380   23.5020 C   0  0  0  0  0  3  0  0  0  0  0  0
  -22.0410   -5.3240   22.3520 C   0  0  0  0  0  0  0  0  0  0  0  0
  -22.4310   -4.7410   21.1930 F   0  0  0  0  0  0  0  0  0  0  0  0
  -21.2440   -4.3740   25.8040 F   0  0  0  0  0  0  0  0  0  0  0  0
  -23.5680  -13.9730   21.0850 C   0  0  0  0  0  0  0  0  0  0  0  0
  -22.8360  -13.3120   21.9730 N   0  0  0  0  0  0  0  0  0  0  0  0
  -23.1860  -15.0430   20.6120 O   0  0  0  0  0  0  0  0  0  0  0  0
  -23.1650  -12.4480   22.3800 H   0  0  0  0  0  0  0  0  0  0  0  0
  -21.9340  -13.6770   22.2470 H   0  0  0  0  0  0  0  0  0  0  0  0
  -26.2930  -15.4400   20.1660 N   0  0  0  0  0  0  0  0  0  0  0  0
  -25.5820  -16.1560   20.2740 H   0  0  0  0  0  0  0  0  0  0  0  0
  -27.1360  -15.7870   19.7270 H   0  0  0  0  0  0  0  0  0  0  0  0
  1  5  1  0
  2  1  2  0
  3  4  1  0
  4  5  2  0
  4  7  1  0
  6  2  1  0
  6  3  2  0
  7  9  1  1
  7  8  1  0
 10  7  1  0
 11 12  1  0
 11  2  1  0
 13 14  1  0
 13 12  1  0
 14 16  1  0
 15 26  2  0
 16 21  1  0
 17 25  1  0
 17 27  1  0
 18 24  1  0
 18 20  1  0
 19 25  1  0
 20 19  1  0
 21 20  2  0
 22 23  1  0
 22 16  2  0
 23 18  2  0
 24 17  1  0
 25 15  1  0
 27 29  2  0
 28 27  1  0
 30 28  1  0
 31 40  2  0
 31 36  1  0
 32 28  1  0
 32 36  1  0
 33 32  1  0
 34 35  1  0
 34 33  1  0
 35 31  1  0
 36 37  2  0
 37 38  1  0
 39 38  2  0
 40 39  1  0
 41 15  1  0
 41 46  1  0
 41 42  1  0
 42 45  1  1
 42 43  1  0
 44 42  1  0
 46 49  1  0
 47 51  1  0
 47 46  1  0
 48 47  2  0
 51 50  1  0
 53 51  1  0
 53 54  1  0
 53 52  1  0
 55  3  1  0
 56 57  1  0
 56 55  1  0
 57 66  1  0
 58 64  1  0
 58 66  1  0
 59 64  1  0
 60 61  1  0
 60 59  1  0
 62 61  1  0
 62 71  1  0
 62 63  1  0
 64 63  1  0
 65 58  2  0
 66 67  1  0
 68 69  2  0
 69 88  1  0
 70 69  1  0
 70 73  1  0
 71 72  1  0
 71 68  1  0
 72 70  2  0
 73 74  1  0
 74 75  2  0
 76 79  1  0
 76 75  1  0
 77 76  2  0
 78 77  1  0
 78 73  2  0
 79 80  1  0
 80 81  1  0
 81 82  2  0
 83 82  1  0
 83 87  1  0
 84 83  2  0
 85 80  2  0
 85 84  1  0
 86 85  1  0
 88 89  1  0
 89 92  1  0
 89 91  1  0
 90 88  2  0
 93 94  1  0
 93 68  1  0
 95 93  1  0
M  ISO  4  13 101  14 101  58 100  66 100
M  END
>  <TORSDO>  (94) 
F 23

>  <SCORE>  (94) 
-12.004

>  <name>  (94) 
94

>  <ligand_id>  (94) 
94

>  <original_smiles>  (94) 
[H]c1nc(C(F)(F)F)c(C([H])([H])C([H])([H])C([H])([H])N([H])C(=O)N2C([H])([H])C([H])([H])C([H])([H])C([H])(n3nc(-c4c([H])c([H])c(Oc5c([H])c([H])c(F)c([H])c5F)c([H])c4[H])c(C(=O)N([H])[H])c3N([H])[H])C2([H])[H])nc1C([H])([H])C([H])([H])C([H])([H])Oc1c([H])c([H])c2c(c1[H])C([H])([H])N(C(=O)C([H])(N([H])C(=O)C([H])(N([H])C([H])([H])[H])C([H])([H])[H])C(C([H])([H])[H])(C([H])([H])[H])C([H])([H])[H])C([H])(C(=O)N([H])C1([H])c3c([H])c([H])c([H])c([H])c3C([H])([H])C([H])([H])C1([H])[H])C2([H])[H]

>  <smiles>  (94) 
[H]c1nc(C(F)(F)F)c(C([H])([H])C([H])([H])C([H])([H])N([H])C(=O)N2C([H])([H])C([H])([H])C([H])([H])C([H])(n3nc(-c4c([H])c([H])c(Oc5c([H])c([H])c(F)c([H])c5F)c([H])c4[H])c(C(=O)N([H])[H])c3N([H])[H])C2([H])[H])nc1C([H])([H])C([H])([H])C([H])([H])Oc1c([H])c([H])c2c(c1[H])C([H])([H])N(C(=O)C([H])(N([H])C(=O)C([H])(N([H])C([H])([H])[H])C([H])([H])[H])C(C([H])([H])[H])(C([H])([H])[H])C([H])([H])[H])C([H])(C(=O)N([H])C1([H])c3c([H])c([H])c([H])c([H])c3C([H])([H])C([H])([H])C1([H])[H])C2([H])[H]

$$$$
95:0:0
     RDKit          3D

 98106  0  0  1  0  0  0  0  0999 V2000
  -29.6760  -19.3710   19.4590 C   0  0  0  0  0  3  0  0  0  0  0  0
  -30.5750  -20.0410   20.2450 C   0  0  0  0  0  0  0  0  0  0  0  0
  -30.9540  -17.7440   20.3720 C   0  0  0  0  0  3  0  0  0  0  0  0
  -29.8770  -18.0050   19.5880 N   0  0  0  0  0  0  0  0  0  0  0  0
  -31.3780  -18.9990   20.7290 N   0  0  0  0  0  0  0  0  0  0  0  0
  -32.2250  -19.1680   21.2610 H   0  0  0  0  0  0  0  0  0  0  0  0
  -32.9640  -16.7060   21.5130 C   0  0  0  0  0  1  0  0  0  0  0  0
  -31.5300  -16.3840   20.9900 C   0  0  2  0  0  0  0  0  0  0  0  0
  -31.7980  -15.1070   19.9960 C   0  0  0  0  0  0  0  0  0  0  0  0
  -31.3470  -12.9510   18.7830 C   0  0  0  0  0  2  0  0  0  0  0  0
  -30.1890  -13.1200   17.7690 C   0  0  0  0  0  2  0  0  0  0  0  0
  -28.8100  -12.9160   18.4310 C   0  0  0  0  0  2  0  0  0  0  0  0
  -28.6890  -13.6830   19.7690 C   0  0  0  0  0  3  0  0  0  0  0  0
  -29.9270  -13.3870   20.6390 C   0  0  0  0  0  2  0  0  0  0  0  0
  -31.1140  -13.8930   19.9170 N   0  0  0  0  0  0  0  0  0  0  0  0
  -32.7570  -15.2520   19.2340 O   0  0  0  0  0  0  0  0  0  0  0  0
  -26.5970  -14.2410   21.1460 C   0  0  0  0  0  0  0  0  0  0  0  0
  -25.5220  -13.4860   21.5290 C   0  0  0  0  0  0  0  0  0  0  0  0
  -25.7580  -12.1770   21.0150 C   0  0  0  0  0  0  0  0  0  0  0  0
  -27.4320  -13.3850   20.4470 N   0  0  0  0  0  0  0  0  0  0  0  0
  -26.9400  -12.1220   20.4110 N   0  0  0  0  0  0  0  0  0  0  0  0
  -24.9070  -10.9820   21.0140 C   0  0  0  0  0  0  0  0  0  0  0  0
  -25.3180   -9.7760   21.6220 C   0  0  0  0  0  3  0  0  0  0  0  0
  -24.4650   -8.6510   21.6300 C   0  0  0  0  0  3  0  0  0  0  0  0
  -23.1900   -8.7190   21.0230 C   0  0  0  0  0  0  0  0  0  0  0  0
  -22.7970   -9.9170   20.3960 C   0  0  0  0  0  3  0  0  0  0  0  0
  -23.6450  -11.0370   20.3910 C   0  0  0  0  0  3  0  0  0  0  0  0
  -22.3080   -7.6670   20.9550 O   0  0  0  0  0  0  0  0  0  0  0  0
  -22.2070   -6.7490   21.9690 C   0  0  0  0  0  0  0  0  0  0  0  0
  -21.8950   -7.1290   23.2940 C   0  0  0  0  0  3  0  0  0  0  0  0
  -21.7470   -6.1440   24.2930 C   0  0  0  0  0  3  0  0  0  0  0  0
  -21.8830   -4.7840   23.9660 C   0  0  0  0  0  0  0  0  0  0  0  0
  -22.1770   -4.4020   22.6460 C   0  0  0  0  0  3  0  0  0  0  0  0
  -22.3420   -5.3810   21.6500 C   0  0  0  0  0  0  0  0  0  0  0  0
  -22.6120   -5.0090   20.3760 F   0  0  0  0  0  0  0  0  0  0  0  0
  -21.7280   -3.8390   24.9240 F   0  0  0  0  0  0  0  0  0  0  0  0
  -24.2930  -13.9780   22.2420 C   0  0  0  0  0  0  0  0  0  0  0  0
  -23.6620  -13.1250   23.0450 N   0  0  0  0  0  0  0  0  0  0  0  0
  -23.9120  -15.1400   22.1210 O   0  0  0  0  0  0  0  0  0  0  0  0
  -23.9780  -12.1760   23.1580 H   0  0  0  0  0  0  0  0  0  0  0  0
  -22.8360  -13.4250   23.5490 H   0  0  0  0  0  0  0  0  0  0  0  0
  -26.9230  -15.5820   21.3140 N   0  0  0  0  0  0  0  0  0  0  0  0
  -27.5780  -16.0290   20.6910 H   0  0  0  0  0  0  0  0  0  0  0  0
  -26.1900  -16.2140   21.6240 H   0  0  0  0  0  0  0  0  0  0  0  0
  -30.6550  -16.0090   22.2340 C   0  0  0  0  0  2  0  0  0  0  0  0
  -30.3950  -17.0720   23.2350 N   0  0  0  0  0  4  0  0  0  0  0  0
  -31.2370  -17.3630   23.7050 H   0  0  0  0  0  0  0  0  0  0  0  0
  -29.7830  -16.6960   23.9410 H   0  0  0  0  0  0  0  0  0  0  0  0
  -29.9240  -17.8750   22.8530 H   0  0  0  0  0  0  0  0  0  0  0  0
  -30.7760  -21.5730   20.4980 C   0  0  0  0  0  3  0  0  0  0  0  0
  -29.5310  -22.5760   20.3210 C   0  0  0  0  0  3  0  0  0  0  0  0
  -29.7360  -24.1720   20.4550 C   0  0  0  0  0  3  0  0  0  0  0  0
  -28.5400  -25.1560   20.0370 C   0  0  0  0  0  3  0  0  0  0  0  0
  -28.6490  -26.6240   20.2570 O   0  0  0  0  0  0  0  0  0  0  0  0
  -24.6660  -31.8740   23.2290 C   0  0  0  0  0  0  0  0  0  0  0  0
  -27.4950  -27.4320   20.1760 C   0  0  0  0  0  0  0  0  0  0  0  0
  -23.5390  -30.4540   21.5520 C   0  0  0  0  0  3  0  0  0  0  0  0
  -25.0700  -28.9670   20.1400 C   0  0  0  0  0  0  0  0  0  0  0  0
  -26.0700  -30.8560   21.4210 C   0  0  0  0  0  2  0  0  0  0  0  0
  -26.2100  -29.4890   20.7630 C   0  0  0  0  0  0  0  0  0  0  0  0
  -27.4230  -28.7330   20.7720 C   0  0  0  0  0  3  0  0  0  0  0  0
  -26.3270  -26.9670   19.5270 C   0  0  0  0  0  3  0  0  0  0  0  0
  -25.1300  -27.7100   19.5160 C   0  0  0  0  0  3  0  0  0  0  0  0
  -23.8030  -29.7980   20.1710 C   0  0  0  0  0  2  0  0  0  0  0  0
  -24.7760  -31.0810   22.1230 N   0  0  0  0  0  0  0  0  0  0  0  0
  -23.5660  -32.1070   23.7500 O   0  0  0  0  0  0  0  0  0  0  0  0
  -22.8960  -29.4060   22.4910 C   0  0  0  0  0  0  0  0  0  0  0  0
  -21.5810  -29.1790   22.3340 N   0  0  0  0  0  0  0  0  0  0  0  0
  -23.5790  -28.8000   23.3200 O   0  0  0  0  0  0  0  0  0  0  0  0
  -21.0880  -29.7210   21.6390 H   0  0  0  0  0  0  0  0  0  0  0  0
  -18.2470  -27.8320   22.7430 C   0  0  0  0  0  0  0  0  0  0  0  0
  -20.7860  -28.2020   23.0790 C   0  0  0  0  0  3  0  0  0  0  0  0
  -20.9630  -26.7780   22.5020 C   0  0  0  0  0  2  0  0  0  0  0  0
  -19.9040  -26.4120   21.4570 C   0  0  0  0  0  2  0  0  0  0  0  0
  -18.5010  -26.4940   22.0660 C   0  0  0  0  0  2  0  0  0  0  0  0
  -19.3210  -28.6390   23.2050 C   0  0  0  0  0  0  0  0  0  0  0  0
  -19.0320  -29.8850   23.8010 C   0  0  0  0  0  3  0  0  0  0  0  0
  -17.7030  -30.3290   23.9330 C   0  0  0  0  0  3  0  0  0  0  0  0
  -16.6440  -29.5200   23.4880 C   0  0  0  0  0  3  0  0  0  0  0  0
  -16.9170  -28.2730   22.8990 C   0  0  0  0  0  3  0  0  0  0  0  0
  -25.9170  -32.5420   23.8830 C   0  0  0  0  0  3  0  0  0  0  0  0
  -26.4290  -31.7820   25.1690 C   0  0  1  0  0  0  0  0  0  0  0  0
  -25.3180  -31.5100   26.2100 C   0  0  0  0  0  1  0  0  0  0  0  0
  -27.0620  -30.4250   24.7880 C   0  0  0  0  0  1  0  0  0  0  0  0
  -27.5360  -32.6130   25.8620 C   0  0  0  0  0  1  0  0  0  0  0  0
  -25.5560  -33.9290   24.2130 N   0  0  0  0  0  0  0  0  0  0  0  0
  -25.8490  -34.9950   23.4550 C   0  0  0  0  0  0  0  0  0  0  0  0
  -26.5210  -34.9180   22.4230 O   0  0  0  0  0  0  0  0  0  0  0  0
  -24.9610  -34.0590   25.0180 H   0  0  0  0  0  0  0  0  0  0  0  0
  -24.0460  -36.7170   23.1200 C   0  0  0  0  0  1  0  0  0  0  0  0
  -25.3120  -36.3640   23.9170 C   0  0  0  0  0  3  0  0  0  0  0  0
  -27.4200  -37.3380   24.7170 C   0  0  0  0  0  1  0  0  0  0  0  0
  -26.3000  -37.4570   23.7870 N   0  0  0  0  0  0  0  0  0  0  0  0
  -25.8590  -38.3600   23.9360 H   0  0  0  0  0  0  0  0  0  0  0  0
  -29.0280  -17.0100   18.9190 C   0  0  0  0  0  2  0  0  0  0  0  0
  -27.5220  -17.2050   19.2010 C   0  0  0  0  0  2  0  0  0  0  0  0
  -25.2400  -16.0210   19.2840 C   0  0  0  0  0  1  0  0  0  0  0  0
  -26.7210  -15.9260   18.9150 C   0  0  0  0  0  2  0  0  0  0  0  0
  1  4  1  0
  1  2  2  0
  2 50  1  0
  2  5  1  0
  3  5  1  0
  3  8  1  0
  4  3  1  0
  5  6  1  0
  8  7  1  1
  8 45  1  0
  9  8  1  0
 10 15  1  0
 11 12  1  0
 11 10  1  0
 13 12  1  0
 13 20  1  0
 13 14  1  0
 15  9  1  0
 15 14  1  0
 16  9  2  0
 17 42  1  0
 17 18  2  0
 18 37  1  0
 19 18  1  0
 20 17  1  0
 21 20  1  0
 21 19  2  0
 22 19  1  0
 22 23  1  0
 23 24  2  0
 25 24  1  0
 26 25  2  0
 27 26  1  0
 27 22  2  0
 28 25  1  0
 28 29  1  0
 29 30  1  0
 30 31  2  0
 32 31  1  0
 32 36  1  0
 33 32  2  0
 34 29  2  0
 34 33  1  0
 35 34  1  0
 37 38  1  0
 38 40  1  0
 38 41  1  0
 39 37  2  0
 42 44  1  0
 43 42  1  0
 45 46  1  0
 46 47  1  0
 46 48  1  0
 49 46  1  0
 51 52  1  0
 51 50  2  0
 53 54  1  0
 53 52  2  0
 55 66  2  0
 56 54  1  0
 56 61  1  0
 57 65  1  0
 57 67  1  0
 58 64  1  0
 58 60  1  0
 59 65  1  0
 60 61  2  0
 60 59  1  0
 62 56  2  0
 63 62  1  0
 63 58  2  0
 64 57  1  0
 65 55  1  0
 67 69  2  0
 68 67  1  0
 70 68  1  0
 71 80  2  0
 71 76  1  0
 72 68  1  0
 72 76  1  0
 73 72  1  0
 74 75  1  0
 74 73  1  0
 75 71  1  0
 76 77  2  0
 77 78  1  0
 79 78  2  0
 80 79  1  0
 81 55  1  0
 81 86  1  0
 81 82  1  0
 82 85  1  1
 82 83  1  0
 84 82  1  0
 86 89  1  0
 87 91  1  0
 87 86  1  0
 88 87  2  0
 91 90  1  0
 93 91  1  0
 93 94  1  0
 93 92  1  0
 95 96  1  0
 95  4  1  0
 98 96  1  0
 98 97  1  0
M  ISO  4   8 100   9 100  53 101  54 101
M  END
>  <TORSDO>  (95) 
F 26

>  <SCORE>  (95) 
-4.367

>  <name>  (95) 
95

>  <ligand_id>  (95) 
95

>  <original_smiles>  (95) 
[H]c1c([H])c([H])c2c(c1[H])C([H])([H])C([H])([H])C([H])([H])C2([H])N([H])C(=O)C1([H])N(C(=O)C([H])(N([H])C(=O)C([H])(N([H])C([H])([H])[H])C([H])([H])[H])C(C([H])([H])[H])(C([H])([H])[H])C([H])([H])[H])C([H])([H])c2c([H])c(OC([H])([H])C([H])([H])C([H])([H])C([H])([H])c3c([H])n(C([H])([H])C([H])([H])C([H])([H])C([H])([H])[H])c(C(C(=O)N4C([H])([H])C([H])([H])C([H])([H])C([H])(n5nc(-c6c([H])c([H])c(Oc7c([H])c([H])c(F)c([H])c7F)c([H])c6[H])c(C(=O)N([H])[H])c5N([H])[H])C4([H])[H])(C([H])([H])[H])C([H])([H])[N+]([H])([H])[H])[n+]3[H])c([H])c([H])c2C1([H])[H]

>  <smiles>  (95) 
[H]c1c([H])c([H])c2c(c1[H])C([H])([H])C([H])([H])C([H])([H])C2([H])N([H])C(=O)C1([H])N(C(=O)C([H])(N([H])C(=O)C([H])(N([H])C([H])([H])[H])C([H])([H])[H])C(C([H])([H])[H])(C([H])([H])[H])C([H])([H])[H])C([H])([H])c2c([H])c(OC([H])([H])C([H])([H])C([H])([H])C([H])([H])c3c([H])n(C([H])([H])C([H])([H])C([H])([H])C([H])([H])[H])c(C(C(=O)N4C([H])([H])C([H])([H])C([H])([H])C([H])(n5nc(-c6c([H])c([H])c(Oc7c([H])c([H])c(F)c([H])c7F)c([H])c6[H])c(C(=O)N([H])[H])c5N([H])[H])C4([H])[H])(C([H])([H])[H])C([H])([H])[N+]([H])([H])[H])[n+]3[H])c([H])c([H])c2C1([H])[H]

$$$$
96:0:0
     RDKit          3D

 96100  0  0  1  0  0  0  0  0999 V2000
  -24.7340  -13.3200   22.8730 C   0  0  0  0  0  1  0  0  0  0  0  0
  -26.9160  -13.4700   22.4900 C   0  0  0  0  0  1  0  0  0  0  0  0
  -24.3320  -11.6380   19.5390 C   0  0  0  0  0  2  0  0  0  0  0  0
  -26.5620  -11.6580   19.4890 C   0  0  0  0  0  2  0  0  0  0  0  0
  -24.1570  -14.0710   24.0520 C   0  0  0  0  0  1  0  0  0  0  0  0
  -23.2070  -12.4950   21.4710 N   0  0  0  0  0  0  0  0  0  0  0  0
  -27.7520  -12.5800   20.9150 N   0  0  0  0  0 15  0  0  0  0  0  0
  -22.3020  -12.2780   18.0580 C   0  0  0  0  0  1  0  0  0  0  0  0
  -23.6060  -11.4720   18.1960 C   0  0  0  0  0  2  0  0  0  0  0  0
  -28.0640  -14.9140   22.6120 C   0  0  0  0  0  3  0  0  0  0  0  0
  -29.4110  -15.7880   21.5300 C   0  0  0  0  0  3  0  0  0  0  0  0
  -30.3970  -17.4500   21.3810 C   0  0  0  0  0  2  0  0  0  0  0  0
  -31.9120  -18.2490   20.4800 C   0  0  0  0  0  2  0  0  0  0  0  0
  -32.5510  -19.9390   19.8120 C   0  0  0  0  0  2  0  0  0  0  0  0
  -33.9750  -20.8330   19.3310 O   0  0  0  0  0  0  0  0  0  0  0  0
  -33.4460  -26.3740   14.1870 C   0  0  0  0  0  0  0  0  0  0  0  0
  -34.3450  -21.4810   18.0050 C   0  0  0  0  0  0  0  0  0  0  0  0
  -33.4830  -24.0170   13.5020 C   0  0  0  0  0  3  0  0  0  0  0  0
  -34.5100  -22.3240   15.1600 C   0  0  0  0  0  0  0  0  0  0  0  0
  -34.8570  -24.7430   15.5570 C   0  0  0  0  0  2  0  0  0  0  0  0
  -34.7010  -23.3020   16.1440 C   0  0  0  0  0  0  0  0  0  0  0  0
  -34.6650  -22.8780   17.5600 C   0  0  0  0  0  3  0  0  0  0  0  0
  -34.3870  -20.5960   16.9160 C   0  0  0  0  0  3  0  0  0  0  0  0
  -34.4360  -20.9820   15.5560 C   0  0  0  0  0  3  0  0  0  0  0  0
  -34.3450  -22.7410   13.6990 C   0  0  0  0  0  2  0  0  0  0  0  0
  -33.9190  -25.1080   14.4300 N   0  0  0  0  0  0  0  0  0  0  0  0
  -32.6710  -26.6120   13.2460 O   0  0  0  0  0  0  0  0  0  0  0  0
  -31.9760  -23.6730   13.6450 C   0  0  0  0  0  0  0  0  0  0  0  0
  -31.4060  -22.9450   12.6680 N   0  0  0  0  0  0  0  0  0  0  0  0
  -31.3410  -24.0560   14.6320 O   0  0  0  0  0  0  0  0  0  0  0  0
  -31.9810  -22.6760   11.8800 H   0  0  0  0  0  0  0  0  0  0  0  0
  -29.0150  -20.8900   10.8670 C   0  0  0  0  0  0  0  0  0  0  0  0
  -30.0170  -22.4760   12.6500 C   0  0  0  0  0  3  0  0  0  0  0  0
  -29.8100  -21.3130   13.6480 C   0  0  0  0  0  2  0  0  0  0  0  0
  -29.9730  -19.9320   13.0050 C   0  0  0  0  0  2  0  0  0  0  0  0
  -28.9660  -19.7470   11.8660 C   0  0  0  0  0  2  0  0  0  0  0  0
  -29.5220  -22.1670   11.2320 C   0  0  0  0  0  0  0  0  0  0  0  0
  -29.5700  -23.1870   10.2580 C   0  0  0  0  0  3  0  0  0  0  0  0
  -29.1250  -22.9500    8.9420 C   0  0  0  0  0  3  0  0  0  0  0  0
  -28.6120  -21.6880    8.5910 C   0  0  0  0  0  3  0  0  0  0  0  0
  -28.5540  -20.6630    9.5530 C   0  0  0  0  0  3  0  0  0  0  0  0
  -33.8630  -27.5890   15.0670 C   0  0  0  0  0  3  0  0  0  0  0  0
  -34.1980  -28.7070   14.1640 N   0  0  0  0  0  0  0  0  0  0  0  0
  -35.4290  -29.0150   13.7350 C   0  0  0  0  0  0  0  0  0  0  0  0
  -36.4320  -28.4020   14.1100 O   0  0  0  0  0  0  0  0  0  0  0  0
  -33.4180  -29.2150   13.7720 H   0  0  0  0  0  0  0  0  0  0  0  0
  -35.6980  -29.6310   11.3050 C   0  0  0  0  0  1  0  0  0  0  0  0
  -35.5750  -30.1820   12.7350 C   0  0  0  0  0  3  0  0  0  0  0  0
  -36.5790  -31.8240   14.2630 C   0  0  0  0  0  1  0  0  0  0  0  0
  -36.7270  -31.0660   13.0230 N   0  0  0  0  0  0  0  0  0  0  0  0
  -36.8760  -31.7260   12.2640 H   0  0  0  0  0  0  0  0  0  0  0  0
  -32.7370  -28.0370   16.0790 C   0  0  1  0  0  0  0  0  0  0  0  0
  -31.3640  -28.2910   15.4130 C   0  0  0  0  0  1  0  0  0  0  0  0
  -32.5290  -26.9760   17.1830 C   0  0  0  0  0  1  0  0  0  0  0  0
  -33.1660  -29.3370   16.7980 C   0  0  0  0  0  1  0  0  0  0  0  0
  -27.7760  -10.9350   18.7600 C   0  0  0  0  0  2  0  0  0  0  0  0
  -30.3260  -10.1630   18.4430 C   0  0  0  0  0  1  0  0  0  0  0  0
  -29.3990  -10.9940   19.3650 C   0  0  0  0  0  0  0  0  0  0  0  0
  -30.5770  -10.5160   21.9760 C   0  0  0  0  0  0  0  0  0  0  0  0
  -30.0860   -8.1950   22.0860 C   0  0  0  0  0  2  0  0  0  0  0  0
  -29.3210   -7.9880   20.7670 C   0  0  0  0  0  2  0  0  0  0  0  0
  -27.7930   -8.2970   20.9720 C   0  0  0  0  0  2  0  0  0  0  0  0
  -27.5310   -9.6090   21.7520 C   0  0  0  0  0  3  0  0  0  0  0  0
  -28.4460   -9.7860   22.9760 C   0  0  0  0  0  2  0  0  0  0  0  0
  -29.8070   -9.5550   22.5070 N   0  0  0  0  0  0  0  0  0  0  0  0
  -31.7040  -10.6930   22.4780 O   0  0  0  0  0  0  0  0  0  0  0  0
  -30.0900  -11.1820   20.8160 N   0  0  0  0  0  4  0  0  0  0  0  0
  -30.5410  -12.0850   20.8110 H   0  0  0  0  0  0  0  0  0  0  0  0
  -25.2690  -12.1930   20.8170 C   0  0  0  0  0  3  0  0  0  0  0  0
  -24.5390  -12.0010   20.9530 C   0  0  0  0  0  3  0  0  0  0  0  0
  -25.1630   -9.9560   21.8220 C   0  0  0  0  0  3  0  0  0  0  0  0
  -26.0220  -10.4160   21.7780 N   0  0  0  0  0  0  0  0  0  0  0  0
  -25.7940   -9.7050   22.7990 N   0  0  0  0  0  2  0  0  0  0  0  0
  -24.0230   -8.4900   21.9740 C   0  0  0  0  0  0  0  0  0  0  0  0
  -23.4060   -8.0550   23.2190 C   0  0  0  0  0  3  0  0  0  0  0  0
  -22.1560   -7.3220   23.3970 C   0  0  0  0  0  3  0  0  0  0  0  0
  -21.2390   -7.0560   22.3420 C   0  0  0  0  0  0  0  0  0  0  0  0
  -21.6860   -7.5240   21.1080 C   0  0  0  0  0  3  0  0  0  0  0  0
  -23.0160   -8.0520   20.9720 C   0  0  0  0  0  3  0  0  0  0  0  0
  -20.0490   -6.3150   22.3760 O   0  0  0  0  0  0  0  0  0  0  0  0
  -19.4940   -5.7830   23.5270 C   0  0  0  0  0  0  0  0  0  0  0  0
  -18.9870   -6.6370   24.5280 C   0  0  0  0  0  3  0  0  0  0  0  0
  -18.3860   -6.1070   25.6900 C   0  0  0  0  0  3  0  0  0  0  0  0
  -18.2640   -4.7170   25.8540 C   0  0  0  0  0  0  0  0  0  0  0  0
  -18.7270   -3.8540   24.8430 C   0  0  0  0  0  3  0  0  0  0  0  0
  -19.3290   -4.3810   23.6820 C   0  0  0  0  0  0  0  0  0  0  0  0
  -19.7440   -3.5250   22.7160 F   0  0  0  0  0  0  0  0  0  0  0  0
  -17.6970   -4.2130   26.9780 F   0  0  0  0  0  0  0  0  0  0  0  0
  -23.1700  -12.7910   20.5320 C   0  0  0  0  0  2  0  0  0  0  0  0
  -22.0520  -12.7940   21.2990 N   0  0  0  0  0  0  0  0  0  0  0  0
  -23.0930  -13.3450   19.4690 O   0  0  0  0  0  1  0  0  0  0  0  0
  -22.0680  -12.0840   22.0270 H   0  0  0  0  0  0  0  0  0  0  0  0
  -21.1880  -13.2030   20.9760 H   0  0  0  0  0  0  0  0  0  0  0  0
  -25.7230  -13.3790   20.1050 N   0  0  0  0  0  0  0  0  0  0  0  0
  -25.1700  -13.7590   19.3450 H   0  0  0  0  0  0  0  0  0  0  0  0
  -26.7240  -13.2760   19.9470 H   0  0  0  0  0  0  0  0  0  0  0  0
  1  5  1  0
  2 10  1  0
  8  9  1  0
  9  3  1  0
 11 10  2  0
 12 11  1  0
 13 12  1  0
 14 13  1  0
 15 14  1  0
 16 26  1  0
 17 15  1  0
 18 28  1  0
 18 25  1  0
 18 26  1  0
 19 24  2  0
 19 21  1  0
 20 21  1  0
 21 22  2  0
 22 17  1  0
 23 17  2  0
 24 23  1  0
 25 19  1  0
 26 20  1  0
 27 16  2  0
 28 30  2  0
 29 28  1  0
 31 29  1  0
 32 37  1  0
 32 36  1  0
 33 29  1  0
 33 34  1  0
 35 34  1  0
 36 35  1  0
 37 33  1  0
 38 37  2  0
 39 38  1  0
 40 39  2  0
 40 41  1  0
 41 32  2  0
 42 16  1  0
 42 52  1  0
 43 42  1  0
 44 45  2  0
 44 43  1  0
 46 43  1  0
 48 47  1  0
 48 50  1  0
 48 44  1  0
 50 49  1  0
 51 50  1  0
 52 55  1  1
 52 54  1  0
 53 52  1  0
 56 58  1  0
 56  4  1  0
 57 58  1  0
 58 67  2  3
 59 66  2  0
 59 65  1  0
 60 65  1  0
 61 62  1  0
 61 60  1  0
 63 62  1  0
 63 72  1  0
 63 64  1  0
 65 64  1  0
 67 59  1  0
 68 67  1  0
 69  4  1  0
 69 70  1  0
 70  3  1  0
 70  6  1  0
 71 74  1  0
 71 73  1  0
 72 71  1  0
 72 73  1  0
 74 75  1  0
 75 76  2  0
 77 80  1  0
 77 76  1  0
 78 77  2  0
 79 78  1  0
 79 74  2  0
 80 81  1  0
 81 86  2  0
 81 82  1  0
 82 83  2  0
 83 84  1  0
 84 88  1  0
 85 84  2  0
 86 85  1  0
 87 86  1  0
 89  6  1  0
 90  6  1  0
 90 92  1  0
 91 89  1  0
 93 90  1  0
 94 69  1  0
 95 94  1  0
 96 94  1  0
M  ISO  4  14 101  15 101  59 100  67 100
M  END
>  <TORSDO>  (96) 
F 24

>  <SCORE>  (96) 
17.325

>  <name>  (96) 
96

>  <ligand_id>  (96) 
96

>  <original_smiles>  (96) 
[H]c1c([H])c([H])c2c(c1[H])C([H])([H])C([H])([H])C([H])([H])C2([H])N([H])C(=O)C1([H])N(C(=O)C([H])(N([H])C(=O)C([H])(N([H])C([H])([H])[H])C([H])([H])[H])C(C([H])([H])[H])(C([H])([H])[H])C([H])([H])[H])C([H])([H])c2c([H])c(OC([H])([H])C([H])([H])C([H])([H])C([H])([H])C([H])([H])c3nc(C([H])([H])C([H])(N([H])C(=O)N4C([H])([H])C([H])([H])C([H])([H])C([H])(n5nc(-c6c([H])c([H])c(Oc7c([H])c([H])c(F)c([H])c7F)c([H])c6[H])c(C(=O)N([H])[H])c5N([H])[H])C4([H])[H])C([H])([H])[H])c(C([H])([H])C([H])([H])[H])nc3C([H])([H])[H])c([H])c([H])c2C1([H])[H]

>  <smiles>  (96) 
[H]c1c([H])c([H])c2c(c1[H])C([H])([H])C([H])([H])C([H])([H])C2([H])N([H])C(=O)C1([H])N(C(=O)C([H])(N([H])C(=O)C([H])(N([H])C([H])([H])[H])C([H])([H])[H])C(C([H])([H])[H])(C([H])([H])[H])C([H])([H])[H])C([H])([H])c2c([H])c(OC([H])([H])C([H])([H])C([H])([H])C([H])([H])C([H])([H])c3nc(C([H])([H])C([H])(N([H])C(=O)N4C([H])([H])C([H])([H])C([H])([H])C([H])(n5nc(-c6c([H])c([H])c(Oc7c([H])c([H])c(F)c([H])c7F)c([H])c6[H])c(C(=O)N([H])[H])c5N([H])[H])C4([H])[H])C([H])([H])[H])c(C([H])([H])C([H])([H])[H])nc3C([H])([H])[H])c([H])c([H])c2C1([H])[H]

$$$$
