0:0:0
     RDKit          3D

 92100  0  0  1  0  0  0  0  0999 V2000
  -29.7680  -21.1180   21.8630 C   0  0  0  0  0  3  0  0  0  0  0  0
  -30.5140  -20.1890   22.5340 C   0  0  0  0  0  0  0  0  0  0  0  0
  -30.0430  -19.3190   20.5040 C   0  0  0  0  0  3  0  0  0  0  0  0
  -31.1030  -20.2080   23.9070 C   0  0  0  0  0  1  0  0  0  0  0  0
  -29.4740  -20.6450   20.6050 N   0  0  0  0  0  0  0  0  0  0  0  0
  -30.6640  -19.1370   21.6760 N   0  0  0  0  0  0  0  0  0  0  0  0
  -31.1980  -18.3020   21.8830 H   0  0  0  0  0  0  0  0  0  0  0  0
  -31.5260  -18.2670   18.6820 C   0  0  0  0  0  1  0  0  0  0  0  0
  -30.2290  -18.0600   19.4790 C   0  0  0  0  0  3  0  0  0  0  0  0
  -30.8690  -15.3460   19.8940 C   0  0  0  0  0  0  0  0  0  0  0  0
  -30.7780  -12.9190   19.1510 C   0  0  0  0  0  2  0  0  0  0  0  0
  -29.8270  -12.7480   17.9430 C   0  0  0  0  0  2  0  0  0  0  0  0
  -28.3790  -12.5320   18.4210 C   0  0  0  0  0  2  0  0  0  0  0  0
  -27.9680  -13.5340   19.5310 C   0  0  0  0  0  3  0  0  0  0  0  0
  -29.0450  -13.6760   20.6300 C   0  0  0  0  0  2  0  0  0  0  0  0
  -30.2930  -14.0740   19.9640 N   0  0  0  0  0  0  0  0  0  0  0  0
  -32.0560  -15.3840   19.5570 O   0  0  0  0  0  0  0  0  0  0  0  0
  -30.0850  -16.5430   19.9930 N   0  0  0  0  0  0  0  0  0  0  0  0
  -29.1380  -16.3260   20.2650 H   0  0  0  0  0  0  0  0  0  0  0  0
  -25.6330  -14.1160   20.3960 C   0  0  0  0  0  0  0  0  0  0  0  0
  -24.5760  -13.3440   20.7910 C   0  0  0  0  0  0  0  0  0  0  0  0
  -25.0200  -11.9890   20.6990 C   0  0  0  0  0  0  0  0  0  0  0  0
  -26.6510  -13.2330   20.0820 N   0  0  0  0  0  0  0  0  0  0  0  0
  -26.2960  -11.9460   20.3290 N   0  0  0  0  0  0  0  0  0  0  0  0
  -24.2840  -10.7310   20.8830 C   0  0  0  0  0  0  0  0  0  0  0  0
  -24.6410   -9.8050   21.8870 C   0  0  0  0  0  3  0  0  0  0  0  0
  -23.9030   -8.6130   22.0580 C   0  0  0  0  0  3  0  0  0  0  0  0
  -22.7940   -8.3390   21.2230 C   0  0  0  0  0  0  0  0  0  0  0  0
  -22.4560   -9.2530   20.2090 C   0  0  0  0  0  3  0  0  0  0  0  0
  -23.1950  -10.4360   20.0380 C   0  0  0  0  0  3  0  0  0  0  0  0
  -22.0350   -7.1950   21.2980 O   0  0  0  0  0  0  0  0  0  0  0  0
  -21.7580   -6.5940   22.4990 C   0  0  0  0  0  0  0  0  0  0  0  0
  -21.0650   -7.2680   23.5280 C   0  0  0  0  0  3  0  0  0  0  0  0
  -20.7390   -6.5900   24.7190 C   0  0  0  0  0  3  0  0  0  0  0  0
  -21.0960   -5.2390   24.8810 C   0  0  0  0  0  0  0  0  0  0  0  0
  -21.7820   -4.5640   23.8560 C   0  0  0  0  0  3  0  0  0  0  0  0
  -22.1090   -5.2390   22.6670 C   0  0  0  0  0  0  0  0  0  0  0  0
  -22.7510   -4.5780   21.6740 F   0  0  0  0  0  0  0  0  0  0  0  0
  -20.7770   -4.5840   26.0220 F   0  0  0  0  0  0  0  0  0  0  0  0
  -23.1990  -13.8310   21.1360 C   0  0  0  0  0  0  0  0  0  0  0  0
  -22.5040  -13.1280   22.0230 N   0  0  0  0  0  0  0  0  0  0  0  0
  -22.7520  -14.8720   20.6560 O   0  0  0  0  0  0  0  0  0  0  0  0
  -22.8810  -12.2850   22.4330 H   0  0  0  0  0  0  0  0  0  0  0  0
  -21.5830  -13.4370   22.2970 H   0  0  0  0  0  0  0  0  0  0  0  0
  -25.8050  -15.4900   20.2480 N   0  0  0  0  0  0  0  0  0  0  0  0
  -25.0410  -16.1400   20.3940 H   0  0  0  0  0  0  0  0  0  0  0  0
  -26.6150  -15.9230   19.8250 H   0  0  0  0  0  0  0  0  0  0  0  0
  -28.5830  -21.6240   19.7170 C   0  0  0  0  0  2  0  0  0  0  0  0
  -28.7190  -23.3440   19.6320 C   0  0  0  0  0  2  0  0  0  0  0  0
  -26.2270  -23.9720   19.4850 C   0  0  0  0  0  1  0  0  0  0  0  0
  -27.5850  -24.5980   19.8480 C   0  0  0  0  0  3  0  0  0  0  0  0
  -27.7490  -26.1340   19.4330 O   0  0  0  0  0  0  0  0  0  0  0  0
  -24.5740  -31.7660   23.1220 C   0  0  0  0  0  0  0  0  0  0  0  0
  -26.7320  -27.1750   19.5610 C   0  0  0  0  0  0  0  0  0  0  0  0
  -23.1920  -30.4850   21.5370 C   0  0  0  0  0  3  0  0  0  0  0  0
  -24.4610  -28.9950   19.8750 C   0  0  0  0  0  0  0  0  0  0  0  0
  -25.7260  -30.7140   21.1370 C   0  0  0  0  0  2  0  0  0  0  0  0
  -25.7050  -29.3600   20.4030 C   0  0  0  0  0  0  0  0  0  0  0  0
  -26.8370  -28.4620   20.2430 C   0  0  0  0  0  3  0  0  0  0  0  0
  -25.4790  -26.9890   18.9350 C   0  0  0  0  0  3  0  0  0  0  0  0
  -24.3610  -27.8230   19.1220 C   0  0  0  0  0  3  0  0  0  0  0  0
  -23.2620  -29.9020   20.1030 C   0  0  0  0  0  2  0  0  0  0  0  0
  -24.5230  -31.0080   21.9840 N   0  0  0  0  0  0  0  0  0  0  0  0
  -23.5510  -32.0290   23.7730 O   0  0  0  0  0  0  0  0  0  0  0  0
  -22.6000  -29.4220   22.4990 C   0  0  0  0  0  0  0  0  0  0  0  0
  -21.2880  -29.1480   22.3820 N   0  0  0  0  0  0  0  0  0  0  0  0
  -23.3250  -28.8480   23.3160 O   0  0  0  0  0  0  0  0  0  0  0  0
  -20.7550  -29.6680   21.6970 H   0  0  0  0  0  0  0  0  0  0  0  0
  -18.0550  -27.5670   22.7950 C   0  0  0  0  0  0  0  0  0  0  0  0
  -20.5480  -28.1500   23.1580 C   0  0  0  0  0  3  0  0  0  0  0  0
  -20.8480  -26.7190   22.6550 C   0  0  0  0  0  2  0  0  0  0  0  0
  -19.8420  -26.2230   21.6100 C   0  0  0  0  0  2  0  0  0  0  0  0
  -18.4230  -26.2240   22.1880 C   0  0  0  0  0  2  0  0  0  0  0  0
  -19.0520  -28.4770   23.2360 C   0  0  0  0  0  0  0  0  0  0  0  0
  -18.6520  -29.7250   23.7630 C   0  0  0  0  0  3  0  0  0  0  0  0
  -17.2900  -30.0670   23.8540 C   0  0  0  0  0  3  0  0  0  0  0  0
  -16.3080  -29.1570   23.4280 C   0  0  0  0  0  3  0  0  0  0  0  0
  -16.6900  -27.9090   22.9040 C   0  0  0  0  0  3  0  0  0  0  0  0
  -25.9190  -32.3530   23.6470 C   0  0  0  0  0  3  0  0  0  0  0  0
  -26.5390  -31.5130   24.8320 C   0  0  1  0  0  0  0  0  0  0  0  0
  -25.5460  -31.2340   25.9830 C   0  0  0  0  0  1  0  0  0  0  0  0
  -27.0670  -30.1500   24.3270 C   0  0  0  0  0  1  0  0  0  0  0  0
  -27.7570  -32.2630   25.4220 C   0  0  0  0  0  1  0  0  0  0  0  0
  -25.6640  -33.7360   24.0790 N   0  0  0  0  0  0  0  0  0  0  0  0
  -25.9920  -34.8300   23.3780 C   0  0  0  0  0  0  0  0  0  0  0  0
  -26.6090  -34.7780   22.3120 O   0  0  0  0  0  0  0  0  0  0  0  0
  -25.1110  -33.8530   24.9160 H   0  0  0  0  0  0  0  0  0  0  0  0
  -24.3190  -36.7040   23.2170 C   0  0  0  0  0  1  0  0  0  0  0  0
  -25.5710  -36.1980   23.9510 C   0  0  0  0  0  3  0  0  0  0  0  0
  -27.7600  -36.9520   24.7710 C   0  0  0  0  0  1  0  0  0  0  0  0
  -26.6370  -37.2210   23.8770 N   0  0  0  0  0  0  0  0  0  0  0  0
  -26.2700  -38.1430   24.0990 H   0  0  0  0  0  0  0  0  0  0  0  0
  1  2  2  0
  2  4  1  0
  3  9  1  0
  3  5  1  0
  3  6  1  0
  5  1  1  0
  6  7  1  0
  6  2  1  0
  9  8  1  0
  9 18  1  0
 10 16  1  0
 10 18  1  0
 11 16  1  0
 12 13  1  0
 12 11  1  0
 14 13  1  0
 14 23  1  0
 14 15  1  0
 16 15  1  0
 17 10  2  0
 18 19  1  0
 20 21  2  0
 21 40  1  0
 22 21  1  0
 22 25  1  0
 23 24  1  0
 23 20  1  0
 24 22  2  0
 25 26  1  0
 26 27  2  0
 28 31  1  0
 28 27  1  0
 29 28  2  0
 30 29  1  0
 30 25  2  0
 31 32  1  0
 32 37  2  0
 32 33  1  0
 33 34  2  0
 34 35  1  0
 35 39  1  0
 36 35  2  0
 37 36  1  0
 38 37  1  0
 40 41  1  0
 41 44  1  0
 41 43  1  0
 42 40  2  0
 45 46  1  0
 45 20  1  0
 47 45  1  0
 48  5  1  0
 49 48  1  0
 49 51  1  0
 51 50  1  0
 52 54  1  0
 52 51  1  0
 53 64  2  0
 54 59  1  0
 55 63  1  0
 55 65  1  0
 56 62  1  0
 56 58  1  0
 57 63  1  0
 58 57  1  0
 59 58  2  0
 60 61  1  0
 60 54  2  0
 61 56  2  0
 62 55  1  0
 63 53  1  0
 65 67  2  0
 66 65  1  0
 68 66  1  0
 69 78  2  0
 69 74  1  0
 70 66  1  0
 70 74  1  0
 71 70  1  0
 72 73  1  0
 72 71  1  0
 73 69  1  0
 74 75  2  0
 75 76  1  0
 77 76  2  0
 78 77  1  0
 79 53  1  0
 79 84  1  0
 79 80  1  0
 80 83  1  1
 80 81  1  0
 82 80  1  0
 84 87  1  0
 85 89  1  0
 85 84  1  0
 86 85  2  0
 89 88  1  0
 91 89  1  0
 91 92  1  0
 91 90  1  0
M  ISO  4  10 100  18 100  51 101  52 101
M  END
>  <TORSDO>  (1) 
F 20

>  <SCORE>  (1) 
-13.985

>  <name>  (1) 
0

>  <ligand_id>  (1) 
0

>  <original_smiles>  (1) 
[H]c1c([H])c([H])c2c(c1[H])C([H])([H])C([H])([H])C([H])([H])C2([H])N([H])C(=O)C1([H])N(C(=O)C([H])(N([H])C(=O)C([H])(N([H])C([H])([H])[H])C([H])([H])[H])C(C([H])([H])[H])(C([H])([H])[H])C([H])([H])[H])C([H])([H])c2c([H])c(OC([H])(C([H])([H])[H])C([H])([H])C([H])([H])n3c([H])c(C([H])([H])[H])[n+]([H])c3C([H])(N([H])C(=O)N3C([H])([H])C([H])([H])C([H])([H])C([H])(n4nc(-c5c([H])c([H])c(Oc6c([H])c([H])c(F)c([H])c6F)c([H])c5[H])c(C(=O)N([H])[H])c4N([H])[H])C3([H])[H])C([H])([H])[H])c([H])c([H])c2C1([H])[H]

>  <smiles>  (1) 
[H]c1c([H])c([H])c2c(c1[H])C([H])([H])C([H])([H])C([H])([H])C2([H])N([H])C(=O)C1([H])N(C(=O)C([H])(N([H])C(=O)C([H])(N([H])C([H])([H])[H])C([H])([H])[H])C(C([H])([H])[H])(C([H])([H])[H])C([H])([H])[H])C([H])([H])c2c([H])c(OC([H])(C([H])([H])[H])C([H])([H])C([H])([H])n3c([H])c(C([H])([H])[H])[n+]([H])c3C([H])(N([H])C(=O)N3C([H])([H])C([H])([H])C([H])([H])C([H])(n4nc(-c5c([H])c([H])c(Oc6c([H])c([H])c(F)c([H])c6F)c([H])c5[H])c(C(=O)N([H])[H])c4N([H])[H])C3([H])[H])C([H])([H])[H])c([H])c([H])c2C1([H])[H]

$$$$
1:0:0
     RDKit          3D

 91 99  0  0  1  0  0  0  0  0999 V2000
  -27.0450  -21.2890   18.2990 C   0  0  0  0  0  0  0  0  0  0  0  0
  -27.4730  -22.5480   18.6330 C   0  0  0  0  0  0  0  0  0  0  0  0
  -28.5240  -21.0430   19.8900 C   0  0  0  0  0  0  0  0  0  0  0  0
  -26.1360  -20.8420   17.1930 C   0  0  0  0  0  1  0  0  0  0  0  0
  -27.1200  -23.8070   17.8900 C   0  0  0  0  0  1  0  0  0  0  0  0
  -27.6830  -20.3760   19.1020 N   0  0  0  0  0  0  0  0  0  0  0  0
  -28.3570  -22.4400   19.7320 N   0  0  0  0  0  0  0  0  0  0  0  0
  -29.5310  -20.1250   20.6780 C   0  0  0  0  0  2  0  0  0  0  0  0
  -29.2550  -18.5090   20.6190 C   0  0  0  0  0  3  0  0  0  0  0  0
  -30.3650  -17.3800   20.9330 C   0  0  0  0  0  3  0  0  0  0  0  0
  -30.7090  -14.7950   20.4750 C   0  0  0  0  0  0  0  0  0  0  0  0
  -30.5100  -12.5480   19.3850 C   0  0  0  0  0  2  0  0  0  0  0  0
  -29.5900  -12.6520   18.1500 C   0  0  0  0  0  2  0  0  0  0  0  0
  -28.1100  -12.4700   18.5570 C   0  0  0  0  0  2  0  0  0  0  0  0
  -27.7260  -13.3200   19.8020 C   0  0  0  0  0  3  0  0  0  0  0  0
  -28.7780  -13.2040   20.9300 C   0  0  0  0  0  2  0  0  0  0  0  0
  -30.0760  -13.5790   20.3550 N   0  0  0  0  0  0  0  0  0  0  0  0
  -31.8860  -14.9170   20.1210 O   0  0  0  0  0  0  0  0  0  0  0  0
  -29.9630  -15.9070   20.8210 N   0  0  0  0  0  0  0  0  0  0  0  0
  -29.0000  -15.7040   21.0500 H   0  0  0  0  0  0  0  0  0  0  0  0
  -25.3210  -13.8910   20.5080 C   0  0  0  0  0  0  0  0  0  0  0  0
  -24.2600  -13.1020   20.8700 C   0  0  0  0  0  0  0  0  0  0  0  0
  -24.7350  -11.7540   20.8320 C   0  0  0  0  0  0  0  0  0  0  0  0
  -26.3760  -13.0210   20.2780 N   0  0  0  0  0  0  0  0  0  0  0  0
  -26.0270  -11.7320   20.5280 N   0  0  0  0  0  0  0  0  0  0  0  0
  -24.0200  -10.4820   21.0140 C   0  0  0  0  0  0  0  0  0  0  0  0
  -24.4330   -9.5310   21.9750 C   0  0  0  0  0  3  0  0  0  0  0  0
  -23.7140   -8.3270   22.1480 C   0  0  0  0  0  3  0  0  0  0  0  0
  -22.5740   -8.0610   21.3510 C   0  0  0  0  0  0  0  0  0  0  0  0
  -22.1810   -8.9990   20.3810 C   0  0  0  0  0  3  0  0  0  0  0  0
  -22.8960  -10.1960   20.2100 C   0  0  0  0  0  3  0  0  0  0  0  0
  -21.8330   -6.9040   21.4230 O   0  0  0  0  0  0  0  0  0  0  0  0
  -21.7220   -6.1960   22.5920 C   0  0  0  0  0  0  0  0  0  0  0  0
  -21.1550   -6.7610   23.7540 C   0  0  0  0  0  3  0  0  0  0  0  0
  -20.9920   -5.9760   24.9120 C   0  0  0  0  0  3  0  0  0  0  0  0
  -21.3890   -4.6240   24.9080 C   0  0  0  0  0  0  0  0  0  0  0  0
  -21.9520   -4.0590   23.7510 C   0  0  0  0  0  3  0  0  0  0  0  0
  -22.1140   -4.8420   22.5960 C   0  0  0  0  0  0  0  0  0  0  0  0
  -22.6330   -4.2850   21.4750 F   0  0  0  0  0  0  0  0  0  0  0  0
  -21.2270   -3.8680   26.0190 F   0  0  0  0  0  0  0  0  0  0  0  0
  -22.8560  -13.5650   21.1320 C   0  0  0  0  0  0  0  0  0  0  0  0
  -22.1250  -12.8520   21.9820 N   0  0  0  0  0  0  0  0  0  0  0  0
  -22.4140  -14.5880   20.6150 O   0  0  0  0  0  0  0  0  0  0  0  0
  -22.4990  -12.0270   22.4290 H   0  0  0  0  0  0  0  0  0  0  0  0
  -21.1790  -13.1370   22.1830 H   0  0  0  0  0  0  0  0  0  0  0  0
  -25.4790  -15.2650   20.3440 N   0  0  0  0  0  0  0  0  0  0  0  0
  -24.7020  -15.9150   20.4030 H   0  0  0  0  0  0  0  0  0  0  0  0
  -26.3410  -15.7170   20.0710 H   0  0  0  0  0  0  0  0  0  0  0  0
  -28.9950  -23.6890   20.3290 C   0  0  0  0  0  2  0  0  0  0  0  0
  -28.0570  -24.9660   20.7250 C   0  0  0  0  0  2  0  0  0  0  0  0
  -28.3610  -26.3980   20.3430 O   0  0  0  0  0  0  0  0  0  0  0  0
  -24.5560  -31.8900   23.2090 C   0  0  0  0  0  0  0  0  0  0  0  0
  -27.2800  -27.3090   20.2580 C   0  0  0  0  0  0  0  0  0  0  0  0
  -23.4220  -30.4850   21.5260 C   0  0  0  0  0  3  0  0  0  0  0  0
  -24.9340  -28.9550   20.1360 C   0  0  0  0  0  0  0  0  0  0  0  0
  -25.9640  -30.8130   21.4300 C   0  0  0  0  0  2  0  0  0  0  0  0
  -26.0770  -29.4320   20.7910 C   0  0  0  0  0  0  0  0  0  0  0  0
  -27.2560  -28.6200   20.8450 C   0  0  0  0  0  3  0  0  0  0  0  0
  -26.1260  -26.9180   19.5470 C   0  0  0  0  0  3  0  0  0  0  0  0
  -24.9670  -27.7110   19.4930 C   0  0  0  0  0  3  0  0  0  0  0  0
  -23.6930  -29.8270   20.1480 C   0  0  0  0  0  2  0  0  0  0  0  0
  -24.6650  -31.0820   22.1130 N   0  0  0  0  0  0  0  0  0  0  0  0
  -23.4510  -32.1580   23.7050 O   0  0  0  0  0  0  0  0  0  0  0  0
  -22.7390  -29.4570   22.4620 C   0  0  0  0  0  0  0  0  0  0  0  0
  -21.4110  -29.2930   22.3170 N   0  0  0  0  0  0  0  0  0  0  0  0
  -23.3990  -28.8130   23.2830 O   0  0  0  0  0  0  0  0  0  0  0  0
  -20.9390  -29.8690   21.6360 H   0  0  0  0  0  0  0  0  0  0  0  0
  -18.0080  -28.1540   22.8090 C   0  0  0  0  0  0  0  0  0  0  0  0
  -20.5750  -28.3510   23.0640 C   0  0  0  0  0  3  0  0  0  0  0  0
  -20.6410  -26.9360   22.4450 C   0  0  0  0  0  2  0  0  0  0  0  0
  -19.5240  -26.6670   21.4330 C   0  0  0  0  0  2  0  0  0  0  0  0
  -18.1510  -26.8220   22.0930 C   0  0  0  0  0  2  0  0  0  0  0  0
  -19.1470  -28.8790   23.2530 C   0  0  0  0  0  0  0  0  0  0  0  0
  -18.9610  -30.1250   23.8890 C   0  0  0  0  0  3  0  0  0  0  0  0
  -17.6680  -30.6490   24.0830 C   0  0  0  0  0  3  0  0  0  0  0  0
  -16.5450  -29.9220   23.6500 C   0  0  0  0  0  3  0  0  0  0  0  0
  -16.7160  -28.6750   23.0210 C   0  0  0  0  0  3  0  0  0  0  0  0
  -25.8120  -32.5380   23.8730 C   0  0  0  0  0  3  0  0  0  0  0  0
  -25.4830  -33.9390   24.1790 N   0  0  0  0  0  0  0  0  0  0  0  0
  -25.8310  -34.9850   23.4190 C   0  0  0  0  0  0  0  0  0  0  0  0
  -26.5320  -34.8730   22.4090 O   0  0  0  0  0  0  0  0  0  0  0  0
  -24.8750  -34.1000   24.9690 H   0  0  0  0  0  0  0  0  0  0  0  0
  -24.1200  -36.7760   22.9750 C   0  0  0  0  0  1  0  0  0  0  0  0
  -25.3230  -36.3770   23.8450 C   0  0  0  0  0  3  0  0  0  0  0  0
  -27.4100  -37.2730   24.7780 C   0  0  0  0  0  1  0  0  0  0  0  0
  -26.3600  -37.4290   23.7740 N   0  0  0  0  0  0  0  0  0  0  0  0
  -25.9470  -38.3510   23.8840 H   0  0  0  0  0  0  0  0  0  0  0  0
  -26.2850  -31.7800   25.1740 C   0  0  1  0  0  0  0  0  0  0  0  0
  -25.1530  -31.5410   26.1990 C   0  0  0  0  0  1  0  0  0  0  0  0
  -26.8960  -30.4050   24.8130 C   0  0  0  0  0  1  0  0  0  0  0  0
  -27.4030  -32.5900   25.8740 C   0  0  0  0  0  1  0  0  0  0  0  0
  1  2  2  0
  1  6  1  0
  2  7  1  0
  3  8  1  0
  4  1  1  0
  5  2  1  0
  6  3  2  0
  7  3  1  0
  7 49  1  0
  9  8  1  0
  9 10  2  0
 11 19  1  0
 12 17  1  0
 13 14  1  0
 13 12  1  0
 15 14  1  0
 15 24  1  0
 15 16  1  0
 17 11  1  0
 17 16  1  0
 18 11  2  0
 19 10  1  0
 19 20  1  0
 21 22  2  0
 22 41  1  0
 23 22  1  0
 23 26  1  0
 24 21  1  0
 24 25  1  0
 25 23  2  0
 26 27  1  0
 27 28  2  0
 29 32  1  0
 29 28  1  0
 30 29  2  0
 31 30  1  0
 31 26  2  0
 32 33  1  0
 33 38  2  0
 33 34  1  0
 34 35  2  0
 36 35  1  0
 36 40  1  0
 37 36  2  0
 38 37  1  0
 39 38  1  0
 41 42  1  0
 42 45  1  0
 42 44  1  0
 43 41  2  0
 46 47  1  0
 46 21  1  0
 48 46  1  0
 49 50  1  0
 51 50  1  0
 52 63  2  0
 53 51  1  0
 53 58  1  0
 54 62  1  0
 54 64  1  0
 55 61  1  0
 55 57  1  0
 56 62  1  0
 57 58  2  0
 57 56  1  0
 59 53  2  0
 60 59  1  0
 60 55  2  0
 61 54  1  0
 62 52  1  0
 64 66  2  0
 65 64  1  0
 67 65  1  0
 68 77  2  0
 68 73  1  0
 69 65  1  0
 69 73  1  0
 70 69  1  0
 71 72  1  0
 71 70  1  0
 72 68  1  0
 73 74  2  0
 74 75  1  0
 76 75  2  0
 77 76  1  0
 78 52  1  0
 78 79  1  0
 78 88  1  0
 79 82  1  0
 80 84  1  0
 80 79  1  0
 81 80  2  0
 84 83  1  0
 86 84  1  0
 86 87  1  0
 86 85  1  0
 88 91  1  1
 88 89  1  0
 90 88  1  0
M  ISO  4  11 100  19 100  50 101  51 101
M  END
>  <TORSDO>  (2) 
F 21

>  <SCORE>  (2) 
-13.505

>  <name>  (2) 
1

>  <ligand_id>  (2) 
1

>  <original_smiles>  (2) 
[H]c1c([H])c([H])c2c(c1[H])C([H])([H])C([H])([H])C([H])([H])C2([H])N([H])C(=O)C1([H])N(C(=O)C([H])(N([H])C(=O)C([H])(N([H])C([H])([H])[H])C([H])([H])[H])C(C([H])([H])[H])(C([H])([H])[H])C([H])([H])[H])C([H])([H])c2c([H])c(OC([H])([H])C([H])([H])n3c(C([H])([H])C([H])([H])C([H])([H])N([H])C(=O)N4C([H])([H])C([H])([H])C([H])([H])C([H])(n5nc(-c6c([H])c([H])c(Oc7c([H])c([H])c(F)c([H])c7F)c([H])c6[H])c(C(=O)N([H])[H])c5N([H])[H])C4([H])[H])nc(C([H])([H])[H])c3C([H])([H])[H])c([H])c([H])c2C1([H])[H]

>  <smiles>  (2) 
[H]c1c([H])c([H])c2c(c1[H])C([H])([H])C([H])([H])C([H])([H])C2([H])N([H])C(=O)C1([H])N(C(=O)C([H])(N([H])C(=O)C([H])(N([H])C([H])([H])[H])C([H])([H])[H])C(C([H])([H])[H])(C([H])([H])[H])C([H])([H])[H])C([H])([H])c2c([H])c(OC([H])([H])C([H])([H])n3c(C([H])([H])C([H])([H])C([H])([H])N([H])C(=O)N4C([H])([H])C([H])([H])C([H])([H])C([H])(n5nc(-c6c([H])c([H])c(Oc7c([H])c([H])c(F)c([H])c7F)c([H])c6[H])c(C(=O)N([H])[H])c5N([H])[H])C4([H])[H])nc(C([H])([H])[H])c3C([H])([H])[H])c([H])c([H])c2C1([H])[H]

$$$$
2:0:0
     RDKit          3D

 94102  0  0  1  0  0  0  0  0999 V2000
  -31.0790  -20.4940   19.2620 C   0  0  0  0  0  3  0  0  0  0  0  0
  -31.3170  -19.6570   20.3300 C   0  0  0  0  0  0  0  0  0  0  0  0
  -32.9790  -21.1510   20.1970 C   0  0  0  0  0  3  0  0  0  0  0  0
  -34.2510  -21.8740   20.5070 C   0  0  0  0  0  1  0  0  0  0  0  0
  -32.0970  -21.4210   19.2220 N   0  0  0  0  0  0  0  0  0  0  0  0
  -32.5080  -20.0870   20.8610 N   0  0  0  0  0  0  0  0  0  0  0  0
  -32.9660  -19.6640   21.6580 H   0  0  0  0  0  0  0  0  0  0  0  0
  -30.5260  -18.5140   20.9130 C   0  0  0  0  0  2  0  0  0  0  0  0
  -31.0240  -17.1030   20.4710 C   0  0  0  0  0  2  0  0  0  0  0  0
  -29.0610  -16.4240   19.0900 C   0  0  0  0  0  1  0  0  0  0  0  0
  -29.1010  -15.9780   21.6150 C   0  0  0  0  0  1  0  0  0  0  0  0
  -29.9330  -15.9730   20.3050 C   0  0  2  0  0  0  0  0  0  0  0  0
  -30.6370  -14.5660   20.0120 C   0  0  0  0  0  0  0  0  0  0  0  0
  -30.3200  -12.3540   18.9540 C   0  0  0  0  0  2  0  0  0  0  0  0
  -29.3430  -12.5890   17.7770 C   0  0  0  0  0  2  0  0  0  0  0  0
  -27.8970  -12.3610   18.2650 C   0  0  0  0  0  2  0  0  0  0  0  0
  -27.5980  -13.2010   19.5380 C   0  0  0  0  0  3  0  0  0  0  0  0
  -28.7050  -12.9960   20.6020 C   0  0  0  0  0  2  0  0  0  0  0  0
  -29.9890  -13.3550   19.9910 N   0  0  0  0  0  0  0  0  0  0  0  0
  -31.7940  -14.6220   19.5850 O   0  0  0  0  0  0  0  0  0  0  0  0
  -25.2520  -13.8460   20.3430 C   0  0  0  0  0  0  0  0  0  0  0  0
  -24.1880  -13.0850   20.7520 C   0  0  0  0  0  0  0  0  0  0  0  0
  -24.6330  -11.7290   20.7040 C   0  0  0  0  0  0  0  0  0  0  0  0
  -26.2690  -12.9460   20.0680 N   0  0  0  0  0  0  0  0  0  0  0  0
  -25.9060  -11.6700   20.3410 N   0  0  0  0  0  0  0  0  0  0  0  0
  -23.9070  -10.4750   20.9260 C   0  0  0  0  0  0  0  0  0  0  0  0
  -24.3590   -9.5120   21.8560 C   0  0  0  0  0  3  0  0  0  0  0  0
  -23.6310   -8.3200   22.0560 C   0  0  0  0  0  3  0  0  0  0  0  0
  -22.4420   -8.0850   21.3260 C   0  0  0  0  0  0  0  0  0  0  0  0
  -22.0130   -9.0350   20.3850 C   0  0  0  0  0  3  0  0  0  0  0  0
  -22.7430  -10.2180   20.1820 C   0  0  0  0  0  3  0  0  0  0  0  0
  -21.6840   -6.9450   21.4310 O   0  0  0  0  0  0  0  0  0  0  0  0
  -21.6380   -6.2230   22.5960 C   0  0  0  0  0  0  0  0  0  0  0  0
  -21.2220   -6.8000   23.8140 C   0  0  0  0  0  3  0  0  0  0  0  0
  -21.1270   -6.0060   24.9740 C   0  0  0  0  0  3  0  0  0  0  0  0
  -21.4300   -4.6310   24.9120 C   0  0  0  0  0  0  0  0  0  0  0  0
  -21.8380   -4.0530   23.6970 C   0  0  0  0  0  3  0  0  0  0  0  0
  -21.9380   -4.8470   22.5420 C   0  0  0  0  0  0  0  0  0  0  0  0
  -22.3080   -4.2840   21.3680 F   0  0  0  0  0  0  0  0  0  0  0  0
  -21.3320   -3.8630   26.0230 F   0  0  0  0  0  0  0  0  0  0  0  0
  -22.8100  -13.5820   21.0720 C   0  0  0  0  0  0  0  0  0  0  0  0
  -22.1030  -12.8990   21.9670 N   0  0  0  0  0  0  0  0  0  0  0  0
  -22.3660  -14.6100   20.5640 O   0  0  0  0  0  0  0  0  0  0  0  0
  -22.4670  -12.0590   22.3870 H   0  0  0  0  0  0  0  0  0  0  0  0
  -21.1860  -13.2280   22.2340 H   0  0  0  0  0  0  0  0  0  0  0  0
  -25.4370  -15.2130   20.1680 N   0  0  0  0  0  0  0  0  0  0  0  0
  -24.7160  -15.8850   20.4030 H   0  0  0  0  0  0  0  0  0  0  0  0
  -26.2960  -15.6580   19.8630 H   0  0  0  0  0  0  0  0  0  0  0  0
  -32.2690  -22.5140   18.2370 C   0  0  0  0  0  2  0  0  0  0  0  0
  -30.9970  -23.3670   18.0190 C   0  0  0  0  0  2  0  0  0  0  0  0
  -30.4980  -24.1410   19.2580 C   0  0  0  0  0  2  0  0  0  0  0  0
  -29.1190  -24.8000   19.0280 C   0  0  0  0  0  2  0  0  0  0  0  0
  -28.4820  -25.3670   20.3080 C   0  0  0  0  0  2  0  0  0  0  0  0
  -28.4810  -26.7930   20.2710 O   0  0  0  0  0  0  0  0  0  0  0  0
  -24.5720  -31.8930   23.2480 C   0  0  0  0  0  0  0  0  0  0  0  0
  -27.2740  -27.4570   20.2450 C   0  0  0  0  0  0  0  0  0  0  0  0
  -23.3840  -30.4720   21.6040 C   0  0  0  0  0  3  0  0  0  0  0  0
  -24.8600  -28.9300   20.2090 C   0  0  0  0  0  0  0  0  0  0  0  0
  -25.9070  -30.8470   21.4280 C   0  0  0  0  0  2  0  0  0  0  0  0
  -26.0050  -29.4730   20.8030 C   0  0  0  0  0  0  0  0  0  0  0  0
  -27.2120  -28.7450   20.8150 C   0  0  0  0  0  3  0  0  0  0  0  0
  -26.1090  -26.9220   19.6410 C   0  0  0  0  0  3  0  0  0  0  0  0
  -24.9060  -27.6530   19.6240 C   0  0  0  0  0  3  0  0  0  0  0  0
  -23.6090  -29.7790   20.2330 C   0  0  0  0  0  2  0  0  0  0  0  0
  -24.6370  -31.0860   22.1520 N   0  0  0  0  0  0  0  0  0  0  0  0
  -23.4860  -32.1670   23.7750 O   0  0  0  0  0  0  0  0  0  0  0  0
  -22.7280  -29.4570   22.5660 C   0  0  0  0  0  0  0  0  0  0  0  0
  -21.4070  -29.2660   22.4240 N   0  0  0  0  0  0  0  0  0  0  0  0
  -23.4040  -28.8440   23.3980 O   0  0  0  0  0  0  0  0  0  0  0  0
  -20.9240  -29.8130   21.7250 H   0  0  0  0  0  0  0  0  0  0  0  0
  -18.0310  -28.0670   22.8730 C   0  0  0  0  0  0  0  0  0  0  0  0
  -20.5820  -28.3350   23.1920 C   0  0  0  0  0  3  0  0  0  0  0  0
  -20.6990  -26.8970   22.6340 C   0  0  0  0  0  2  0  0  0  0  0  0
  -19.6170  -26.5580   21.6050 C   0  0  0  0  0  2  0  0  0  0  0  0
  -18.2240  -26.7080   22.2200 C   0  0  0  0  0  2  0  0  0  0  0  0
  -19.1380  -28.8380   23.3150 C   0  0  0  0  0  0  0  0  0  0  0  0
  -18.9030  -30.1110   23.8800 C   0  0  0  0  0  3  0  0  0  0  0  0
  -17.5930  -30.6100   24.0100 C   0  0  0  0  0  3  0  0  0  0  0  0
  -16.5010  -29.8350   23.5870 C   0  0  0  0  0  3  0  0  0  0  0  0
  -16.7200  -28.5650   23.0250 C   0  0  0  0  0  3  0  0  0  0  0  0
  -25.8530  -32.5280   23.8760 C   0  0  0  0  0  3  0  0  0  0  0  0
  -25.5410  -33.9270   24.1880 N   0  0  0  0  0  0  0  0  0  0  0  0
  -25.8880  -34.9730   23.4250 C   0  0  0  0  0  0  0  0  0  0  0  0
  -26.5740  -34.8600   22.4040 O   0  0  0  0  0  0  0  0  0  0  0  0
  -24.9350  -34.0910   24.9780 H   0  0  0  0  0  0  0  0  0  0  0  0
  -24.1660  -36.7610   23.0220 C   0  0  0  0  0  1  0  0  0  0  0  0
  -25.3920  -36.3630   23.8610 C   0  0  0  0  0  3  0  0  0  0  0  0
  -27.5100  -37.2510   24.7270 C   0  0  0  0  0  1  0  0  0  0  0  0
  -26.4260  -37.4160   23.7630 N   0  0  0  0  0  0  0  0  0  0  0  0
  -26.0170  -38.3350   23.8990 H   0  0  0  0  0  0  0  0  0  0  0  0
  -26.3620  -31.7670   25.1600 C   0  0  1  0  0  0  0  0  0  0  0  0
  -25.2620  -31.5340   26.2210 C   0  0  0  0  0  1  0  0  0  0  0  0
  -26.9480  -30.3880   24.7780 C   0  0  0  0  0  1  0  0  0  0  0  0
  -27.5050  -32.5680   25.8260 C   0  0  0  0  0  1  0  0  0  0  0  0
  1  2  2  0
  2  6  1  0
  2  8  1  0
  3  4  1  0
  3  6  1  0
  5  1  1  0
  5  3  1  0
  6  7  1  0
  9  8  1  0
 12 10  1  6
 12  9  1  0
 12 11  1  0
 13 12  1  0
 14 19  1  0
 15 16  1  0
 15 14  1  0
 17 16  1  0
 17 24  1  0
 17 18  1  0
 19 13  1  0
 19 18  1  0
 20 13  2  0
 21 22  2  0
 22 41  1  0
 23 22  1  0
 23 26  1  0
 24 25  1  0
 24 21  1  0
 25 23  2  0
 26 27  1  0
 27 28  2  0
 29 32  1  0
 29 28  1  0
 30 29  2  0
 31 30  1  0
 31 26  2  0
 32 33  1  0
 33 34  1  0
 34 35  2  0
 36 35  1  0
 36 40  1  0
 37 36  2  0
 38 33  2  0
 38 37  1  0
 39 38  1  0
 41 42  1  0
 42 45  1  0
 42 44  1  0
 43 41  2  0
 46 21  1  0
 46 47  1  0
 48 46  1  0
 49  5  1  0
 50 49  1  0
 50 51  1  0
 52 51  1  0
 52 53  1  0
 54 53  1  0
 55 66  2  0
 56 54  1  0
 56 61  1  0
 57 65  1  0
 57 67  1  0
 58 64  1  0
 58 60  1  0
 59 65  1  0
 60 61  2  0
 60 59  1  0
 62 56  2  0
 63 62  1  0
 63 58  2  0
 64 57  1  0
 65 55  1  0
 67 69  2  0
 68 67  1  0
 70 68  1  0
 71 80  2  0
 71 76  1  0
 72 68  1  0
 72 76  1  0
 73 72  1  0
 74 75  1  0
 74 73  1  0
 75 71  1  0
 76 77  2  0
 77 78  1  0
 79 78  2  0
 80 79  1  0
 81 55  1  0
 81 82  1  0
 81 91  1  0
 82 85  1  0
 83 87  1  0
 83 82  1  0
 84 83  2  0
 87 86  1  0
 89 87  1  0
 89 90  1  0
 89 88  1  0
 91 94  1  1
 91 92  1  0
 93 91  1  0
M  ISO  4  12 100  13 100  53 101  54 101
M  END
>  <TORSDO>  (3) 
F 24

>  <SCORE>  (3) 
-11.909

>  <name>  (3) 
2

>  <ligand_id>  (3) 
2

>  <original_smiles>  (3) 
[H]c1c([H])c([H])c2c(c1[H])C([H])([H])C([H])([H])C([H])([H])C2([H])N([H])C(=O)C1([H])N(C(=O)C([H])(N([H])C(=O)C([H])(N([H])C([H])([H])[H])C([H])([H])[H])C(C([H])([H])[H])(C([H])([H])[H])C([H])([H])[H])C([H])([H])c2c([H])c(OC([H])([H])C([H])([H])C([H])([H])C([H])([H])C([H])([H])n3c([H])c(C([H])([H])C([H])([H])C(C(=O)N4C([H])([H])C([H])([H])C([H])([H])C([H])(n5nc(-c6c([H])c([H])c(Oc7c([H])c([H])c(F)c([H])c7F)c([H])c6[H])c(C(=O)N([H])[H])c5N([H])[H])C4([H])[H])(C([H])([H])[H])C([H])([H])[H])[n+]([H])c3C([H])([H])[H])c([H])c([H])c2C1([H])[H]

>  <smiles>  (3) 
[H]c1c([H])c([H])c2c(c1[H])C([H])([H])C([H])([H])C([H])([H])C2([H])N([H])C(=O)C1([H])N(C(=O)C([H])(N([H])C(=O)C([H])(N([H])C([H])([H])[H])C([H])([H])[H])C(C([H])([H])[H])(C([H])([H])[H])C([H])([H])[H])C([H])([H])c2c([H])c(OC([H])([H])C([H])([H])C([H])([H])C([H])([H])C([H])([H])n3c([H])c(C([H])([H])C([H])([H])C(C(=O)N4C([H])([H])C([H])([H])C([H])([H])C([H])(n5nc(-c6c([H])c([H])c(Oc7c([H])c([H])c(F)c([H])c7F)c([H])c6[H])c(C(=O)N([H])[H])c5N([H])[H])C4([H])[H])(C([H])([H])[H])C([H])([H])[H])[n+]([H])c3C([H])([H])[H])c([H])c([H])c2C1([H])[H]

$$$$
3:0:0
     RDKit          3D

 92100  0  0  1  0  0  0  0  0999 V2000
  -31.0970  -21.1830   19.5560 C   0  0  0  0  0  3  0  0  0  0  0  0
  -28.5850  -20.2530   19.7880 C   0  0  0  0  0  3  0  0  0  0  0  0
  -29.9850  -22.0600   19.4630 C   0  0  0  0  0  0  0  0  0  0  0  0
  -29.6890  -19.3500   19.7950 C   0  0  0  0  0  0  0  0  0  0  0  0
  -28.7230  -21.5940   19.6130 N   0  0  0  0  0  0  0  0  0  0  0  0
  -30.9550  -19.8410   19.7210 N   0  0  0  0  0  0  0  0  0  0  0  0
  -30.1330  -17.3150   18.3790 C   0  0  0  0  0  1  0  0  0  0  0  0
  -28.0240  -17.4250   19.6690 C   0  0  0  0  0  1  0  0  0  0  0  0
  -29.5220  -17.8000   19.7140 C   0  0  2  0  0  0  0  0  0  0  0  0
  -30.2040  -17.0340   20.9050 C   0  0  0  0  0  2  0  0  0  0  0  0
  -30.6510  -14.5470   20.5410 C   0  0  0  0  0  0  0  0  0  0  0  0
  -30.3880  -12.3660   19.4150 C   0  0  0  0  0  2  0  0  0  0  0  0
  -29.4510  -12.5560   18.2030 C   0  0  0  0  0  2  0  0  0  0  0  0
  -27.9750  -12.3960   18.6220 C   0  0  0  0  0  2  0  0  0  0  0  0
  -27.6200  -13.2320   19.8790 C   0  0  0  0  0  3  0  0  0  0  0  0
  -28.6730  -13.0430   20.9960 C   0  0  0  0  0  2  0  0  0  0  0  0
  -29.9980  -13.3560   20.4320 N   0  0  0  0  0  0  0  0  0  0  0  0
  -31.7940  -14.7240   20.1130 O   0  0  0  0  0  0  0  0  0  0  0  0
  -29.8970  -15.5800   20.9650 N   0  0  0  0  0  0  0  0  0  0  0  0
  -28.9720  -15.3360   21.2860 H   0  0  0  0  0  0  0  0  0  0  0  0
  -25.2140  -13.8380   20.5650 C   0  0  0  0  0  0  0  0  0  0  0  0
  -24.1460  -13.0630   20.9340 C   0  0  0  0  0  0  0  0  0  0  0  0
  -24.6150  -11.7150   20.9160 C   0  0  0  0  0  0  0  0  0  0  0  0
  -26.2650  -12.9600   20.3500 N   0  0  0  0  0  0  0  0  0  0  0  0
  -25.9080  -11.6790   20.6200 N   0  0  0  0  0  0  0  0  0  0  0  0
  -23.8960  -10.4520   21.1090 C   0  0  0  0  0  0  0  0  0  0  0  0
  -24.3340   -9.4890   22.0450 C   0  0  0  0  0  3  0  0  0  0  0  0
  -23.6160   -8.2870   22.2240 C   0  0  0  0  0  3  0  0  0  0  0  0
  -22.4450   -8.0410   21.4690 C   0  0  0  0  0  0  0  0  0  0  0  0
  -22.0260   -8.9920   20.5220 C   0  0  0  0  0  3  0  0  0  0  0  0
  -22.7450  -10.1850   20.3410 C   0  0  0  0  0  3  0  0  0  0  0  0
  -21.6980   -6.8910   21.5590 O   0  0  0  0  0  0  0  0  0  0  0  0
  -21.6610   -6.1450   22.7090 C   0  0  0  0  0  0  0  0  0  0  0  0
  -21.2440   -6.6960   23.9410 C   0  0  0  0  0  3  0  0  0  0  0  0
  -21.1550   -5.8750   25.0840 C   0  0  0  0  0  3  0  0  0  0  0  0
  -21.4720   -4.5060   24.9960 C   0  0  0  0  0  0  0  0  0  0  0  0
  -21.8810   -3.9570   23.7680 C   0  0  0  0  0  3  0  0  0  0  0  0
  -21.9730   -4.7740   22.6270 C   0  0  0  0  0  0  0  0  0  0  0  0
  -22.3480   -4.2340   21.4430 F   0  0  0  0  0  0  0  0  0  0  0  0
  -21.3780   -3.7150   26.0890 F   0  0  0  0  0  0  0  0  0  0  0  0
  -22.7450  -13.5360   21.1890 C   0  0  0  0  0  0  0  0  0  0  0  0
  -22.0110  -12.8410   22.0530 N   0  0  0  0  0  0  0  0  0  0  0  0
  -22.3050  -14.5550   20.6580 O   0  0  0  0  0  0  0  0  0  0  0  0
  -22.3780  -12.0170   22.5050 H   0  0  0  0  0  0  0  0  0  0  0  0
  -21.0700  -13.1390   22.2650 H   0  0  0  0  0  0  0  0  0  0  0  0
  -25.3690  -15.2080   20.3770 N   0  0  0  0  0  0  0  0  0  0  0  0
  -24.5880  -15.8490   20.4640 H   0  0  0  0  0  0  0  0  0  0  0  0
  -26.2070  -15.6500   20.0280 H   0  0  0  0  0  0  0  0  0  0  0  0
  -30.1480  -23.5050   18.9750 C   0  0  0  0  0  2  0  0  0  0  0  0
  -29.7660  -24.6610   19.9430 C   0  0  0  0  0  2  0  0  0  0  0  0
  -28.4380  -25.3900   19.6140 C   0  0  0  0  0  2  0  0  0  0  0  0
  -28.4060  -26.7170   20.1760 O   0  0  0  0  0  0  0  0  0  0  0  0
  -24.5870  -31.8910   23.2590 C   0  0  0  0  0  0  0  0  0  0  0  0
  -27.2190  -27.4350   20.1560 C   0  0  0  0  0  0  0  0  0  0  0  0
  -23.3730  -30.4900   21.6220 C   0  0  0  0  0  3  0  0  0  0  0  0
  -24.8180  -28.9520   20.1890 C   0  0  0  0  0  0  0  0  0  0  0  0
  -25.9000  -30.8420   21.4160 C   0  0  0  0  0  2  0  0  0  0  0  0
  -25.9800  -29.4690   20.7740 C   0  0  0  0  0  0  0  0  0  0  0  0
  -27.1790  -28.7170   20.7560 C   0  0  0  0  0  3  0  0  0  0  0  0
  -26.0330  -26.9370   19.5650 C   0  0  0  0  0  3  0  0  0  0  0  0
  -24.8400  -27.6840   19.5860 C   0  0  0  0  0  3  0  0  0  0  0  0
  -23.5750  -29.8110   20.2420 C   0  0  0  0  0  2  0  0  0  0  0  0
  -24.6380  -31.0900   22.1570 N   0  0  0  0  0  0  0  0  0  0  0  0
  -23.5090  -32.1640   23.8030 O   0  0  0  0  0  0  0  0  0  0  0  0
  -22.7240  -29.4700   22.5850 C   0  0  0  0  0  0  0  0  0  0  0  0
  -21.4000  -29.2820   22.4580 N   0  0  0  0  0  0  0  0  0  0  0  0
  -23.4090  -28.8490   23.4020 O   0  0  0  0  0  0  0  0  0  0  0  0
  -20.9080  -29.8360   21.7700 H   0  0  0  0  0  0  0  0  0  0  0  0
  -18.0320  -28.0700   22.9470 C   0  0  0  0  0  0  0  0  0  0  0  0
  -20.5860  -28.3440   23.2300 C   0  0  0  0  0  3  0  0  0  0  0  0
  -20.7000  -26.9110   22.6640 C   0  0  0  0  0  2  0  0  0  0  0  0
  -19.6050  -26.5750   21.6460 C   0  0  0  0  0  2  0  0  0  0  0  0
  -18.2200  -26.7170   22.2820 C   0  0  0  0  0  2  0  0  0  0  0  0
  -19.1440  -28.8410   23.3780 C   0  0  0  0  0  0  0  0  0  0  0  0
  -18.9150  -30.1070   23.9590 C   0  0  0  0  0  3  0  0  0  0  0  0
  -17.6070  -30.6040   24.1140 C   0  0  0  0  0  3  0  0  0  0  0  0
  -16.5090  -29.8290   23.7010 C   0  0  0  0  0  3  0  0  0  0  0  0
  -16.7220  -28.5640   23.1230 C   0  0  0  0  0  3  0  0  0  0  0  0
  -25.8760  -32.5210   23.8730 C   0  0  0  0  0  3  0  0  0  0  0  0
  -25.5720  -33.9210   24.1970 N   0  0  0  0  0  0  0  0  0  0  0  0
  -25.9080  -34.9680   23.4340 C   0  0  0  0  0  0  0  0  0  0  0  0
  -26.5760  -34.8590   22.4030 O   0  0  0  0  0  0  0  0  0  0  0  0
  -24.9770  -34.0800   24.9980 H   0  0  0  0  0  0  0  0  0  0  0  0
  -24.1860  -36.7670   23.0710 C   0  0  0  0  0  1  0  0  0  0  0  0
  -25.4250  -36.3600   23.8860 C   0  0  0  0  0  3  0  0  0  0  0  0
  -27.5610  -37.2380   24.7190 C   0  0  0  0  0  1  0  0  0  0  0  0
  -26.4620  -37.4090   23.7730 N   0  0  0  0  0  0  0  0  0  0  0  0
  -26.0580  -38.3310   23.9180 H   0  0  0  0  0  0  0  0  0  0  0  0
  -26.3980  -31.7510   25.1490 C   0  0  1  0  0  0  0  0  0  0  0  0
  -25.3080  -31.5200   26.2220 C   0  0  0  0  0  1  0  0  0  0  0  0
  -26.9740  -30.3710   24.7560 C   0  0  0  0  0  1  0  0  0  0  0  0
  -27.5530  -32.5440   25.8030 C   0  0  0  0  0  1  0  0  0  0  0  0
  1  6  1  0
  2  4  1  0
  3  1  2  0
  3  5  1  0
  5  2  2  0
  6  4  2  0
  9  7  1  6
  8  9  1  0
  9  4  1  0
  9 10  1  0
 10 19  1  0
 11 19  1  0
 12 17  1  0
 13 14  1  0
 13 12  1  0
 15 14  1  0
 15 24  1  0
 15 16  1  0
 17 11  1  0
 17 16  1  0
 18 11  2  0
 19 20  1  0
 21 22  2  0
 22 41  1  0
 23 22  1  0
 23 26  1  0
 24 21  1  0
 24 25  1  0
 25 23  2  0
 26 27  1  0
 27 28  2  0
 29 32  1  0
 29 28  1  0
 30 29  2  0
 31 30  1  0
 31 26  2  0
 32 33  1  0
 33 34  1  0
 34 35  2  0
 36 35  1  0
 36 40  1  0
 37 36  2  0
 38 33  2  0
 38 37  1  0
 39 38  1  0
 41 42  1  0
 42 45  1  0
 42 44  1  0
 43 41  2  0
 46 47  1  0
 46 21  1  0
 48 46  1  0
 49  3  1  0
 49 50  1  0
 51 50  1  0
 51 52  1  0
 53 64  2  0
 54 52  1  0
 54 59  1  0
 55 63  1  0
 55 65  1  0
 56 62  1  0
 56 58  1  0
 57 63  1  0
 58 57  1  0
 59 58  2  0
 60 61  1  0
 60 54  2  0
 61 56  2  0
 62 55  1  0
 63 53  1  0
 65 67  2  0
 66 65  1  0
 68 66  1  0
 69 78  2  0
 69 74  1  0
 70 66  1  0
 70 74  1  0
 71 70  1  0
 72 73  1  0
 72 71  1  0
 73 69  1  0
 74 75  2  0
 75 76  1  0
 77 76  2  0
 78 77  1  0
 79 53  1  0
 79 80  1  0
 79 89  1  0
 80 83  1  0
 81 85  1  0
 81 80  1  0
 82 81  2  0
 85 84  1  0
 87 85  1  0
 87 88  1  0
 87 86  1  0
 89 92  1  1
 89 90  1  0
 91 89  1  0
M  ISO  4  11 100  19 100  51 101  52 101
M  END
>  <TORSDO>  (4) 
F 21

>  <SCORE>  (4) 
-13.563

>  <name>  (4) 
3

>  <ligand_id>  (4) 
3

>  <original_smiles>  (4) 
[H]c1nc(C(C([H])([H])[H])(C([H])([H])[H])C([H])([H])N([H])C(=O)N2C([H])([H])C([H])([H])C([H])([H])C([H])(n3nc(-c4c([H])c([H])c(Oc5c([H])c([H])c(F)c([H])c5F)c([H])c4[H])c(C(=O)N([H])[H])c3N([H])[H])C2([H])[H])c([H])nc1C([H])([H])C([H])([H])C([H])([H])Oc1c([H])c([H])c2c(c1[H])C([H])([H])N(C(=O)C([H])(N([H])C(=O)C([H])(N([H])C([H])([H])[H])C([H])([H])[H])C(C([H])([H])[H])(C([H])([H])[H])C([H])([H])[H])C([H])(C(=O)N([H])C1([H])c3c([H])c([H])c([H])c([H])c3C([H])([H])C([H])([H])C1([H])[H])C2([H])[H]

>  <smiles>  (4) 
[H]c1nc(C(C([H])([H])[H])(C([H])([H])[H])C([H])([H])N([H])C(=O)N2C([H])([H])C([H])([H])C([H])([H])C([H])(n3nc(-c4c([H])c([H])c(Oc5c([H])c([H])c(F)c([H])c5F)c([H])c4[H])c(C(=O)N([H])[H])c3N([H])[H])C2([H])[H])c([H])nc1C([H])([H])C([H])([H])C([H])([H])Oc1c([H])c([H])c2c(c1[H])C([H])([H])N(C(=O)C([H])(N([H])C(=O)C([H])(N([H])C([H])([H])[H])C([H])([H])[H])C(C([H])([H])[H])(C([H])([H])[H])C([H])([H])[H])C([H])(C(=O)N([H])C1([H])c3c([H])c([H])c([H])c([H])c3C([H])([H])C([H])([H])C1([H])[H])C2([H])[H]

$$$$
4:0:0
     RDKit          3D

 92100  0  0  1  0  0  0  0  0999 V2000
  -30.9590  -14.5480   20.3730 C   0  0  0  0  0  0  0  0  0  0  0  0
  -30.5100  -12.4890   19.0800 C   0  0  0  0  0  2  0  0  0  0  0  0
  -29.5500  -12.7770   17.9110 C   0  0  0  0  0  2  0  0  0  0  0  0
  -28.0860  -12.6570   18.3700 C   0  0  0  0  0  2  0  0  0  0  0  0
  -27.8050  -13.4550   19.6690 C   0  0  0  0  0  3  0  0  0  0  0  0
  -28.8720  -13.1580   20.7440 C   0  0  0  0  0  2  0  0  0  0  0  0
  -30.2000  -13.4330   20.1670 N   0  0  0  0  0  0  0  0  0  0  0  0
  -32.0280  -14.7330   19.7770 O   0  0  0  0  0  0  0  0  0  0  0  0
  -30.9470  -18.9620   20.8100 C   0  0  0  0  0  3  0  0  0  0  0  0
  -29.9710  -19.2910   19.8550 C   0  0  0  0  0  0  0  0  0  0  0  0
  -29.1150  -18.2320   19.4780 C   0  0  0  0  0  0  0  0  0  0  0  0
  -30.2680  -16.7710   20.8160 C   0  0  0  0  0  0  0  0  0  0  0  0
  -30.7300  -15.2470   22.6640 C   0  0  0  0  0  1  0  0  0  0  0  0
  -31.0800  -17.7140   21.2950 N   0  0  0  0  0  0  0  0  0  0  0  0
  -29.2630  -16.9910   19.9770 N   0  0  0  0  0  0  0  0  0  0  0  0
  -30.4760  -15.4700   21.2390 N   0  0  0  0  0  0  0  0  0  0  0  0
  -25.4300  -14.1020   20.4220 C   0  0  0  0  0  0  0  0  0  0  0  0
  -24.3530  -13.3470   20.8050 C   0  0  0  0  0  0  0  0  0  0  0  0
  -24.7890  -11.9860   20.7620 C   0  0  0  0  0  0  0  0  0  0  0  0
  -26.4550  -13.2030   20.1700 N   0  0  0  0  0  0  0  0  0  0  0  0
  -26.0730  -11.9260   20.4300 N   0  0  0  0  0  0  0  0  0  0  0  0
  -24.0470  -10.7350   20.9610 C   0  0  0  0  0  0  0  0  0  0  0  0
  -24.4630   -9.7690   21.9050 C   0  0  0  0  0  3  0  0  0  0  0  0
  -23.7210   -8.5820   22.0890 C   0  0  0  0  0  3  0  0  0  0  0  0
  -22.5500   -8.3520   21.3310 C   0  0  0  0  0  0  0  0  0  0  0  0
  -22.1520   -9.3050   20.3770 C   0  0  0  0  0  3  0  0  0  0  0  0
  -22.8950  -10.4830   20.1900 C   0  0  0  0  0  3  0  0  0  0  0  0
  -21.7820   -7.2150   21.4220 O   0  0  0  0  0  0  0  0  0  0  0  0
  -21.6890   -6.5030   22.5890 C   0  0  0  0  0  0  0  0  0  0  0  0
  -21.2020   -7.0830   23.7820 C   0  0  0  0  0  3  0  0  0  0  0  0
  -21.0600   -6.2940   24.9410 C   0  0  0  0  0  3  0  0  0  0  0  0
  -21.3930   -4.9280   24.9090 C   0  0  0  0  0  0  0  0  0  0  0  0
  -21.8760   -4.3470   23.7220 C   0  0  0  0  0  3  0  0  0  0  0  0
  -22.0190   -5.1330   22.5650 C   0  0  0  0  0  0  0  0  0  0  0  0
  -22.4630   -4.5640   21.4180 F   0  0  0  0  0  0  0  0  0  0  0  0
  -21.2490   -4.1680   26.0200 F   0  0  0  0  0  0  0  0  0  0  0  0
  -22.9680  -13.8460   21.1030 C   0  0  0  0  0  0  0  0  0  0  0  0
  -22.2460  -13.1620   21.9830 N   0  0  0  0  0  0  0  0  0  0  0  0
  -22.5360  -14.8770   20.5890 O   0  0  0  0  0  0  0  0  0  0  0  0
  -22.6060  -12.3270   22.4220 H   0  0  0  0  0  0  0  0  0  0  0  0
  -21.3180  -13.4810   22.2260 H   0  0  0  0  0  0  0  0  0  0  0  0
  -25.6250  -15.4680   20.2510 N   0  0  0  0  0  0  0  0  0  0  0  0
  -24.8890  -16.1490   20.3980 H   0  0  0  0  0  0  0  0  0  0  0  0
  -26.5060  -15.8870   19.9740 H   0  0  0  0  0  0  0  0  0  0  0  0
  -26.7140  -18.9620   19.2740 C   0  0  0  0  0  1  0  0  0  0  0  0
  -27.9380  -18.4040   18.5340 C   0  0  0  0  0  2  0  0  0  0  0  0
  -29.9040  -20.6870   19.2160 C   0  0  0  0  0  2  0  0  0  0  0  0
  -30.0290  -21.9090   20.1590 C   0  0  0  0  0  2  0  0  0  0  0  0
  -29.6500  -23.2110   19.4120 C   0  0  0  0  0  2  0  0  0  0  0  0
  -29.6350  -24.5260   20.2380 C   0  0  0  0  0  2  0  0  0  0  0  0
  -28.5030  -25.4660   19.7680 C   0  0  0  0  0  2  0  0  0  0  0  0
  -28.4860  -26.7770   20.3660 O   0  0  0  0  0  0  0  0  0  0  0  0
  -24.5340  -31.9750   23.2640 C   0  0  0  0  0  0  0  0  0  0  0  0
  -27.3050  -27.5060   20.2980 C   0  0  0  0  0  0  0  0  0  0  0  0
  -23.3890  -30.5470   21.6030 C   0  0  0  0  0  3  0  0  0  0  0  0
  -24.8960  -29.0110   20.2390 C   0  0  0  0  0  0  0  0  0  0  0  0
  -25.9220  -30.9140   21.4830 C   0  0  0  0  0  2  0  0  0  0  0  0
  -26.0360  -29.5380   20.8590 C   0  0  0  0  0  0  0  0  0  0  0  0
  -27.2380  -28.7900   20.8930 C   0  0  0  0  0  3  0  0  0  0  0  0
  -26.1390  -27.0090   19.6600 C   0  0  0  0  0  3  0  0  0  0  0  0
  -24.9430  -27.7430   19.6430 C   0  0  0  0  0  3  0  0  0  0  0  0
  -23.6460  -29.8600   20.2380 C   0  0  0  0  0  2  0  0  0  0  0  0
  -24.6320  -31.1620   22.1740 N   0  0  0  0  0  0  0  0  0  0  0  0
  -23.4340  -32.2430   23.7680 O   0  0  0  0  0  0  0  0  0  0  0  0
  -22.7180  -29.5280   22.5520 C   0  0  0  0  0  0  0  0  0  0  0  0
  -21.3930  -29.3630   22.4160 N   0  0  0  0  0  0  0  0  0  0  0  0
  -23.3890  -28.8900   23.3680 O   0  0  0  0  0  0  0  0  0  0  0  0
  -20.9130  -29.9320   21.7320 H   0  0  0  0  0  0  0  0  0  0  0  0
  -17.9940  -28.2440   22.9210 C   0  0  0  0  0  0  0  0  0  0  0  0
  -20.5590  -28.4330   23.1760 C   0  0  0  0  0  3  0  0  0  0  0  0
  -20.6210  -27.0090   22.5750 C   0  0  0  0  0  2  0  0  0  0  0  0
  -19.5030  -26.7320   21.5640 C   0  0  0  0  0  2  0  0  0  0  0  0
  -18.1310  -26.9010   22.2220 C   0  0  0  0  0  2  0  0  0  0  0  0
  -19.1350  -28.9700   23.3550 C   0  0  0  0  0  0  0  0  0  0  0  0
  -18.9540  -30.2280   23.9680 C   0  0  0  0  0  3  0  0  0  0  0  0
  -17.6650  -30.7610   24.1520 C   0  0  0  0  0  3  0  0  0  0  0  0
  -16.5370  -30.0320   23.7350 C   0  0  0  0  0  3  0  0  0  0  0  0
  -16.7030  -28.7750   23.1250 C   0  0  0  0  0  3  0  0  0  0  0  0
  -25.7960  -32.6250   23.9140 C   0  0  0  0  0  3  0  0  0  0  0  0
  -25.4750  -34.0310   24.1870 N   0  0  0  0  0  0  0  0  0  0  0  0
  -25.8270  -35.0590   23.4030 C   0  0  0  0  0  0  0  0  0  0  0  0
  -26.5270  -34.9240   22.3940 O   0  0  0  0  0  0  0  0  0  0  0  0
  -24.8560  -34.2100   24.9640 H   0  0  0  0  0  0  0  0  0  0  0  0
  -24.1110  -36.8370   22.9320 C   0  0  0  0  0  1  0  0  0  0  0  0
  -25.3230  -36.4590   23.7990 C   0  0  0  0  0  3  0  0  0  0  0  0
  -27.4200  -37.3800   24.6840 C   0  0  0  0  0  1  0  0  0  0  0  0
  -26.3570  -37.5110   23.6920 N   0  0  0  0  0  0  0  0  0  0  0  0
  -25.9420  -38.4340   23.7920 H   0  0  0  0  0  0  0  0  0  0  0  0
  -26.2640  -31.8940   25.2310 C   0  0  1  0  0  0  0  0  0  0  0  0
  -25.1320  -31.6880   26.2640 C   0  0  0  0  0  1  0  0  0  0  0  0
  -26.8630  -30.5060   24.9040 C   0  0  0  0  0  1  0  0  0  0  0  0
  -27.3850  -32.7100   25.9140 C   0  0  0  0  0  1  0  0  0  0  0  0
  1 16  1  0
  2  7  1  0
  3  4  1  0
  3  2  1  0
  5  4  1  0
  5 20  1  0
  5  6  1  0
  7  1  1  0
  7  6  1  0
  8  1  2  0
  9 14  1  0
 10  9  2  0
 11 10  1  0
 11 15  2  0
 12 16  1  0
 12 14  2  0
 15 12  1  0
 16 13  1  0
 17 18  2  0
 18 37  1  0
 19 18  1  0
 19 22  1  0
 20 17  1  0
 20 21  1  0
 21 19  2  0
 22 23  1  0
 23 24  2  0
 25 28  1  0
 25 24  1  0
 26 25  2  0
 27 26  1  0
 27 22  2  0
 28 29  1  0
 29 30  1  0
 30 31  2  0
 32 31  1  0
 32 36  1  0
 33 32  2  0
 34 29  2  0
 34 33  1  0
 35 34  1  0
 37 38  1  0
 38 41  1  0
 38 40  1  0
 39 37  2  0
 42 43  1  0
 42 17  1  0
 44 42  1  0
 46 45  1  0
 46 11  1  0
 47 10  1  0
 47 48  1  0
 49 48  1  0
 49 50  1  0
 51 50  1  0
 51 52  1  0
 53 64  2  0
 54 52  1  0
 54 59  1  0
 55 63  1  0
 55 65  1  0
 56 58  1  0
 57 63  1  0
 58 59  2  0
 58 57  1  0
 60 54  2  0
 61 60  1  0
 61 56  2  0
 62 56  1  0
 62 55  1  0
 63 53  1  0
 65 67  2  0
 66 65  1  0
 68 66  1  0
 69 78  2  0
 69 74  1  0
 70 66  1  0
 70 74  1  0
 71 70  1  0
 72 73  1  0
 72 71  1  0
 73 69  1  0
 74 75  2  0
 75 76  1  0
 77 76  2  0
 78 77  1  0
 79 53  1  0
 79 80  1  0
 79 89  1  0
 80 83  1  0
 81 85  1  0
 81 80  1  0
 82 81  2  0
 85 84  1  0
 87 88  1  0
 87 85  1  0
 87 86  1  0
 89 92  1  1
 89 90  1  0
 91 89  1  0
M  ISO  4   1 100  16 100  51 101  52 101
M  END
>  <TORSDO>  (5) 
F 21

>  <SCORE>  (5) 
-12.353

>  <name>  (5) 
4

>  <ligand_id>  (5) 
4

>  <original_smiles>  (5) 
[H]c1nc(N(C(=O)N2C([H])([H])C([H])([H])C([H])([H])C([H])(n3nc(-c4c([H])c([H])c(Oc5c([H])c([H])c(F)c([H])c5F)c([H])c4[H])c(C(=O)N([H])[H])c3N([H])[H])C2([H])[H])C([H])([H])[H])nc(C([H])([H])C([H])([H])[H])c1C([H])([H])C([H])([H])C([H])([H])C([H])([H])C([H])([H])Oc1c([H])c([H])c2c(c1[H])C([H])([H])N(C(=O)C([H])(N([H])C(=O)C([H])(N([H])C([H])([H])[H])C([H])([H])[H])C(C([H])([H])[H])(C([H])([H])[H])C([H])([H])[H])C([H])(C(=O)N([H])C1([H])c3c([H])c([H])c([H])c([H])c3C([H])([H])C([H])([H])C1([H])[H])C2([H])[H]

>  <smiles>  (5) 
[H]c1nc(N(C(=O)N2C([H])([H])C([H])([H])C([H])([H])C([H])(n3nc(-c4c([H])c([H])c(Oc5c([H])c([H])c(F)c([H])c5F)c([H])c4[H])c(C(=O)N([H])[H])c3N([H])[H])C2([H])[H])C([H])([H])[H])nc(C([H])([H])C([H])([H])[H])c1C([H])([H])C([H])([H])C([H])([H])C([H])([H])C([H])([H])Oc1c([H])c([H])c2c(c1[H])C([H])([H])N(C(=O)C([H])(N([H])C(=O)C([H])(N([H])C([H])([H])[H])C([H])([H])[H])C(C([H])([H])[H])(C([H])([H])[H])C([H])([H])[H])C([H])(C(=O)N([H])C1([H])c3c([H])c([H])c([H])c([H])c3C([H])([H])C([H])([H])C1([H])[H])C2([H])[H]

$$$$
5:0:0
     RDKit          3D

 99107  0  0  1  0  0  0  0  0999 V2000
  -27.1640  -20.5450   18.9220 C   0  0  0  0  0  3  0  0  0  0  0  0
  -27.1110  -21.8930   18.6560 C   0  0  0  0  0  0  0  0  0  0  0  0
  -28.4330  -22.2370   18.1930 C   0  0  0  0  0  0  0  0  0  0  0  0
  -29.1830  -21.0800   18.1330 C   0  0  0  0  0  0  0  0  0  0  0  0
  -28.4170  -20.0300   18.6580 N   0  0  0  0  0  0  0  0  0  0  0  0
  -25.9670  -24.2500   18.5420 C   0  0  0  0  0  1  0  0  0  0  0  0
  -25.3210  -22.6170   20.2840 C   0  0  0  0  0  1  0  0  0  0  0  0
  -24.7250  -22.1820   17.8960 C   0  0  0  0  0  1  0  0  0  0  0  0
  -25.8210  -22.7370   18.8300 C   0  0  2  0  0  0  0  0  0  0  0  0
  -31.6710  -20.3750   18.4160 C   0  0  0  0  0  1  0  0  0  0  0  0
  -30.4940  -20.1960   16.1530 C   0  0  0  0  0  1  0  0  0  0  0  0
  -30.5580  -20.9120   17.5120 C   0  0  0  0  0  3  0  0  0  0  0  0
  -28.9600  -23.6020   17.7680 C   0  0  0  0  0  2  0  0  0  0  0  0
  -29.3540  -24.5120   18.9580 C   0  0  0  0  0  2  0  0  0  0  0  0
  -29.9540  -25.8690   18.5080 C   0  0  0  0  0  2  0  0  0  0  0  0
  -29.7010  -26.9730   19.3990 O   0  0  0  0  0  0  0  0  0  0  0  0
  -24.9640  -30.7760   23.1740 C   0  0  0  0  0  0  0  0  0  0  0  0
  -28.4060  -27.4580   19.4870 C   0  0  0  0  0  0  0  0  0  0  0  0
  -24.0570  -29.4770   21.2770 C   0  0  0  0  0  3  0  0  0  0  0  0
  -25.7780  -28.4980   19.6830 C   0  0  0  0  0  0  0  0  0  0  0  0
  -26.4820  -30.3100   21.2490 C   0  0  0  0  0  2  0  0  0  0  0  0
  -26.8230  -29.1080   20.3880 C   0  0  0  0  0  0  0  0  0  0  0  0
  -28.1390  -28.5980   20.2870 C   0  0  0  0  0  3  0  0  0  0  0  0
  -27.3250  -26.8510   18.8090 C   0  0  0  0  0  3  0  0  0  0  0  0
  -26.0210  -27.3640   18.9000 C   0  0  0  0  0  3  0  0  0  0  0  0
  -24.4040  -29.1060   19.8160 C   0  0  0  0  0  2  0  0  0  0  0  0
  -25.1830  -30.1940   21.9610 N   0  0  0  0  0  0  0  0  0  0  0  0
  -23.8480  -30.7470   23.7070 O   0  0  0  0  0  0  0  0  0  0  0  0
  -23.6070  -28.1950   22.0220 C   0  0  0  0  0  0  0  0  0  0  0  0
  -22.3690  -27.7490   21.7500 N   0  0  0  0  0  0  0  0  0  0  0  0
  -24.3680  -27.6150   22.7980 O   0  0  0  0  0  0  0  0  0  0  0  0
  -21.7980  -28.2990   21.1190 H   0  0  0  0  0  0  0  0  0  0  0  0
  -19.3750  -25.7180   21.6950 C   0  0  0  0  0  0  0  0  0  0  0  0
  -21.7480  -26.5430   22.3010 C   0  0  0  0  0  3  0  0  0  0  0  0
  -22.2670  -25.2670   21.5910 C   0  0  0  0  0  2  0  0  0  0  0  0
  -21.3760  -24.8130   20.4300 C   0  0  0  0  0  2  0  0  0  0  0  0
  -19.9500  -24.5460   20.9160 C   0  0  0  0  0  2  0  0  0  0  0  0
  -20.2210  -26.6600   22.3350 C   0  0  0  0  0  0  0  0  0  0  0  0
  -19.6400  -27.7460   23.0240 C   0  0  0  0  0  3  0  0  0  0  0  0
  -18.2410  -27.9020   23.0760 C   0  0  0  0  0  3  0  0  0  0  0  0
  -17.4070  -26.9610   22.4490 C   0  0  0  0  0  3  0  0  0  0  0  0
  -17.9740  -25.8660   21.7710 C   0  0  0  0  0  3  0  0  0  0  0  0
  -26.1020  -31.5220   23.9380 C   0  0  0  0  0  3  0  0  0  0  0  0
  -25.6090  -32.8660   24.2610 N   0  0  0  0  0  0  0  0  0  0  0  0
  -25.9300  -33.9790   23.5860 C   0  0  0  0  0  0  0  0  0  0  0  0
  -26.7440  -33.9840   22.6570 O   0  0  0  0  0  0  0  0  0  0  0  0
  -24.8960  -32.9270   24.9730 H   0  0  0  0  0  0  0  0  0  0  0  0
  -24.1020  -35.6120   23.0280 C   0  0  0  0  0  1  0  0  0  0  0  0
  -25.2420  -35.2910   24.0060 C   0  0  0  0  0  3  0  0  0  0  0  0
  -27.1330  -36.3280   25.1800 C   0  0  0  0  0  1  0  0  0  0  0  0
  -26.1680  -36.4410   24.0900 N   0  0  0  0  0  0  0  0  0  0  0  0
  -25.6550  -37.3100   24.2040 H   0  0  0  0  0  0  0  0  0  0  0  0
  -26.5670  -30.7730   25.2470 C   0  0  1  0  0  0  0  0  0  0  0  0
  -25.4060  -30.3950   26.1970 C   0  0  0  0  0  1  0  0  0  0  0  0
  -27.3260  -29.4740   24.8950 C   0  0  0  0  0  1  0  0  0  0  0  0
  -27.5580  -31.6620   26.0370 C   0  0  0  0  0  1  0  0  0  0  0  0
  -28.7810  -18.6050   18.8370 C   0  0  0  0  0  2  0  0  0  0  0  0
  -28.2260  -17.6950   21.1650 C   0  0  0  0  0  1  0  0  0  0  0  0
  -30.0120  -19.4040   20.9490 C   0  0  0  0  0  1  0  0  0  0  0  0
  -29.3590  -18.1900   20.2400 C   0  0  2  0  0  0  0  0  0  0  0  0
  -30.4650  -17.0880   20.0870 C   0  0  0  0  0  2  0  0  0  0  0  0
  -30.7920  -14.6230   19.9320 C   0  0  0  0  0  0  0  0  0  0  0  0
  -30.4670  -12.4040   18.9360 C   0  0  0  0  0  2  0  0  0  0  0  0
  -29.4450  -12.5430   17.7870 C   0  0  0  0  0  2  0  0  0  0  0  0
  -28.0110  -12.3800   18.3310 C   0  0  0  0  0  2  0  0  0  0  0  0
  -27.7330  -13.2860   19.5620 C   0  0  0  0  0  3  0  0  0  0  0  0
  -28.8620  -13.1400   20.6060 C   0  0  0  0  0  2  0  0  0  0  0  0
  -30.1390  -13.4330   19.9320 N   0  0  0  0  0  0  0  0  0  0  0  0
  -31.9210  -14.7760   19.4660 O   0  0  0  0  0  0  0  0  0  0  0  0
  -30.0350  -15.6870   20.2540 N   0  0  0  0  0  0  0  0  0  0  0  0
  -29.0960  -15.4990   20.5700 H   0  0  0  0  0  0  0  0  0  0  0  0
  -25.4360  -13.9080   20.5440 C   0  0  0  0  0  0  0  0  0  0  0  0
  -24.3710  -13.1440   20.9380 C   0  0  0  0  0  0  0  0  0  0  0  0
  -24.7690  -11.7850   20.7360 C   0  0  0  0  0  0  0  0  0  0  0  0
  -26.4160  -13.0170   20.1370 N   0  0  0  0  0  0  0  0  0  0  0  0
  -26.0250  -11.7310   20.3100 N   0  0  0  0  0  0  0  0  0  0  0  0
  -24.0150  -10.5370   20.8680 C   0  0  0  0  0  0  0  0  0  0  0  0
  -24.4650   -9.4840   21.6960 C   0  0  0  0  0  3  0  0  0  0  0  0
  -23.7100   -8.2980   21.8250 C   0  0  0  0  0  3  0  0  0  0  0  0
  -22.4930   -8.1530   21.1220 C   0  0  0  0  0  0  0  0  0  0  0  0
  -22.0600   -9.1930   20.2790 C   0  0  0  0  0  3  0  0  0  0  0  0
  -22.8150  -10.3720   20.1480 C   0  0  0  0  0  3  0  0  0  0  0  0
  -21.7090   -7.0250   21.1610 O   0  0  0  0  0  0  0  0  0  0  0  0
  -21.6710   -6.2100   22.2640 C   0  0  0  0  0  0  0  0  0  0  0  0
  -21.2670   -6.6870   23.5290 C   0  0  0  0  0  3  0  0  0  0  0  0
  -21.1790   -5.8010   24.6200 C   0  0  0  0  0  3  0  0  0  0  0  0
  -21.4910   -4.4380   24.4490 C   0  0  0  0  0  0  0  0  0  0  0  0
  -21.8900   -3.9610   23.1880 C   0  0  0  0  0  3  0  0  0  0  0  0
  -21.9790   -4.8450   22.0980 C   0  0  0  0  0  0  0  0  0  0  0  0
  -22.3420   -4.3730   20.8810 F   0  0  0  0  0  0  0  0  0  0  0  0
  -21.4020   -3.5870   25.4960 F   0  0  0  0  0  0  0  0  0  0  0  0
  -23.0210  -13.6380   21.3780 C   0  0  0  0  0  0  0  0  0  0  0  0
  -22.3450  -12.8870   22.2400 N   0  0  0  0  0  0  0  0  0  0  0  0
  -22.5780  -14.7170   20.9850 O   0  0  0  0  0  0  0  0  0  0  0  0
  -22.7210  -12.0130   22.5710 H   0  0  0  0  0  0  0  0  0  0  0  0
  -21.4390  -13.1880   22.5790 H   0  0  0  0  0  0  0  0  0  0  0  0
  -25.6480  -15.2830   20.4760 N   0  0  0  0  0  0  0  0  0  0  0  0
  -24.9110  -15.9420   20.6960 H   0  0  0  0  0  0  0  0  0  0  0  0
  -26.4520  -15.7180   20.0450 H   0  0  0  0  0  0  0  0  0  0  0  0
  2  9  1  0
  2  1  2  0
  3  2  1  0
  4  3  2  0
  4  5  1  0
  5 57  1  0
  5  1  1  0
  9  6  1  6
  8  9  1  0
  9  7  1  0
 11 12  1  0
 12  4  1  0
 12 10  1  0
 13  3  1  0
 13 14  1  0
 15 14  1  0
 15 16  1  0
 16 18  1  0
 17 28  2  0
 18 23  1  0
 19 27  1  0
 19 29  1  0
 20 26  1  0
 20 22  1  0
 21 27  1  0
 22 21  1  0
 23 22  2  0
 24 25  1  0
 24 18  2  0
 25 20  2  0
 26 19  1  0
 27 17  1  0
 29 31  2  0
 30 29  1  0
 32 30  1  0
 33 42  2  0
 33 38  1  0
 34 30  1  0
 34 38  1  0
 35 34  1  0
 36 37  1  0
 36 35  1  0
 37 33  1  0
 38 39  2  0
 39 40  1  0
 41 40  2  0
 42 41  1  0
 43 17  1  0
 43 44  1  0
 43 53  1  0
 44 47  1  0
 45 49  1  0
 45 44  1  0
 46 45  2  0
 49 48  1  0
 49 51  1  0
 51 52  1  0
 51 50  1  0
 53 56  1  1
 53 54  1  0
 55 53  1  0
 57 60  1  0
 60 59  1  1
 60 58  1  0
 61 60  1  0
 61 70  1  0
 62 70  1  0
 63 68  1  0
 64 65  1  0
 64 63  1  0
 66 65  1  0
 66 75  1  0
 66 67  1  0
 68 62  1  0
 68 67  1  0
 69 62  2  0
 70 71  1  0
 72 73  2  0
 73 92  1  0
 74 77  1  0
 74 73  1  0
 75 76  1  0
 75 72  1  0
 76 74  2  0
 77 78  1  0
 78 79  2  0
 80 83  1  0
 80 79  1  0
 81 80  2  0
 82 81  1  0
 82 77  2  0
 83 84  1  0
 84 85  1  0
 85 86  2  0
 87 86  1  0
 87 91  1  0
 88 87  2  0
 89 84  2  0
 89 88  1  0
 90 89  1  0
 92 93  1  0
 93 95  1  0
 93 96  1  0
 94 92  2  0
 97 72  1  0
 97 98  1  0
 99 97  1  0
M  ISO  4  15 101  16 101  62 100  70 100
M  END
>  <TORSDO>  (6) 
F 24

>  <SCORE>  (6) 
-8.897

>  <name>  (6) 
5

>  <ligand_id>  (6) 
5

>  <original_smiles>  (6) 
[H]c1c([H])c([H])c2c(c1[H])C([H])([H])C([H])([H])C([H])([H])C2([H])N([H])C(=O)C1([H])N(C(=O)C([H])(N([H])C(=O)C([H])(N([H])C([H])([H])[H])C([H])([H])[H])C(C([H])([H])[H])(C([H])([H])[H])C([H])([H])[H])C([H])([H])c2c([H])c(OC([H])([H])C([H])([H])C([H])([H])c3c(C(C([H])([H])[H])(C([H])([H])[H])C([H])([H])[H])c([H])n(C([H])([H])C(C([H])([H])[H])(C([H])([H])[H])C([H])([H])N([H])C(=O)N4C([H])([H])C([H])([H])C([H])([H])C([H])(n5nc(-c6c([H])c([H])c(Oc7c([H])c([H])c(F)c([H])c7F)c([H])c6[H])c(C(=O)N([H])[H])c5N([H])[H])C4([H])[H])c3C([H])(C([H])([H])[H])C([H])([H])[H])c([H])c([H])c2C1([H])[H]

>  <smiles>  (6) 
[H]c1c([H])c([H])c2c(c1[H])C([H])([H])C([H])([H])C([H])([H])C2([H])N([H])C(=O)C1([H])N(C(=O)C([H])(N([H])C(=O)C([H])(N([H])C([H])([H])[H])C([H])([H])[H])C(C([H])([H])[H])(C([H])([H])[H])C([H])([H])[H])C([H])([H])c2c([H])c(OC([H])([H])C([H])([H])C([H])([H])c3c(C(C([H])([H])[H])(C([H])([H])[H])C([H])([H])[H])c([H])n(C([H])([H])C(C([H])([H])[H])(C([H])([H])[H])C([H])([H])N([H])C(=O)N4C([H])([H])C([H])([H])C([H])([H])C([H])(n5nc(-c6c([H])c([H])c(Oc7c([H])c([H])c(F)c([H])c7F)c([H])c6[H])c(C(=O)N([H])[H])c5N([H])[H])C4([H])[H])c3C([H])(C([H])([H])[H])C([H])([H])[H])c([H])c([H])c2C1([H])[H]

$$$$
6:0:0
     RDKit          3D

 93101  0  0  1  0  0  0  0  0999 V2000
  -29.8860  -20.0400   20.4360 C   0  0  0  0  0  3  0  0  0  0  0  0
  -27.9400  -19.1840   18.7570 C   0  0  0  0  0  3  0  0  0  0  0  0
  -28.9730  -21.0540   19.9590 C   0  0  0  0  0  0  0  0  0  0  0  0
  -27.9490  -20.5610   19.1030 C   0  0  0  0  0  0  0  0  0  0  0  0
  -29.7740  -18.6470   20.0670 C   0  0  0  0  0  0  0  0  0  0  0  0
  -28.8100  -18.2550   19.2120 N   0  0  0  0  0  0  0  0  0  0  0  0
  -25.4300  -20.9130   18.9060 C   0  0  0  0  0  1  0  0  0  0  0  0
  -26.9910  -21.7040   17.0580 C   0  0  0  0  0  1  0  0  0  0  0  0
  -26.8280  -21.4550   18.5650 C   0  0  0  0  0  3  0  0  0  0  0  0
  -31.9240  -17.5580   19.4020 C   0  0  0  0  0  1  0  0  0  0  0  0
  -30.8130  -17.5270   20.4740 C   0  0  0  0  0  3  0  0  0  0  0  0
  -31.0450  -14.9260   20.7400 C   0  0  0  0  0  0  0  0  0  0  0  0
  -30.8800  -12.6020   19.8720 C   0  0  0  0  0  2  0  0  0  0  0  0
  -30.0750  -12.6050   18.5550 C   0  0  0  0  0  2  0  0  0  0  0  0
  -28.5670  -12.4780   18.8450 C   0  0  0  0  0  2  0  0  0  0  0  0
  -28.0870  -13.4560   19.9530 C   0  0  0  0  0  3  0  0  0  0  0  0
  -29.0260  -13.4490   21.1770 C   0  0  0  0  0  2  0  0  0  0  0  0
  -30.3790  -13.7270   20.6890 N   0  0  0  0  0  0  0  0  0  0  0  0
  -32.2700  -14.9470   20.6080 O   0  0  0  0  0  0  0  0  0  0  0  0
  -30.3160  -16.0990   20.6910 N   0  0  0  0  0  0  0  0  0  0  0  0
  -29.3110  -16.0190   20.7340 H   0  0  0  0  0  0  0  0  0  0  0  0
  -25.6650  -14.1210   20.4720 C   0  0  0  0  0  0  0  0  0  0  0  0
  -24.5470  -13.3790   20.7420 C   0  0  0  0  0  0  0  0  0  0  0  0
  -24.9700  -12.0140   20.7520 C   0  0  0  0  0  0  0  0  0  0  0  0
  -26.6980  -13.2090   20.3270 N   0  0  0  0  0  0  0  0  0  0  0  0
  -26.2820  -11.9380   20.5620 N   0  0  0  0  0  0  0  0  0  0  0  0
  -24.1910  -10.7750   20.8730 C   0  0  0  0  0  0  0  0  0  0  0  0
  -24.5440   -9.7670   21.7980 C   0  0  0  0  0  3  0  0  0  0  0  0
  -23.7680   -8.5940   21.9100 C   0  0  0  0  0  3  0  0  0  0  0  0
  -22.6230   -8.4200   21.0960 C   0  0  0  0  0  0  0  0  0  0  0  0
  -22.2890   -9.4150   20.1610 C   0  0  0  0  0  3  0  0  0  0  0  0
  -23.0660  -10.5800   20.0470 C   0  0  0  0  0  3  0  0  0  0  0  0
  -21.8250   -7.3010   21.1170 O   0  0  0  0  0  0  0  0  0  0  0  0
  -21.7530   -6.4890   22.2190 C   0  0  0  0  0  0  0  0  0  0  0  0
  -21.3790   -6.9830   23.4880 C   0  0  0  0  0  3  0  0  0  0  0  0
  -21.2500   -6.1010   24.5790 C   0  0  0  0  0  3  0  0  0  0  0  0
  -21.4870   -4.7240   24.4020 C   0  0  0  0  0  0  0  0  0  0  0  0
  -21.8520   -4.2280   23.1390 C   0  0  0  0  0  3  0  0  0  0  0  0
  -21.9830   -5.1090   22.0500 C   0  0  0  0  0  0  0  0  0  0  0  0
  -22.3160   -4.6220   20.8290 F   0  0  0  0  0  0  0  0  0  0  0  0
  -21.3560   -3.8740   25.4470 F   0  0  0  0  0  0  0  0  0  0  0  0
  -23.1470  -13.8990   20.8870 C   0  0  0  0  0  0  0  0  0  0  0  0
  -22.3270  -13.2370   21.6980 N   0  0  0  0  0  0  0  0  0  0  0  0
  -22.7840  -14.9290   20.3190 O   0  0  0  0  0  0  0  0  0  0  0  0
  -22.6310  -12.4050   22.1800 H   0  0  0  0  0  0  0  0  0  0  0  0
  -21.3840  -13.5720   21.8380 H   0  0  0  0  0  0  0  0  0  0  0  0
  -25.8840  -15.4860   20.3150 N   0  0  0  0  0  0  0  0  0  0  0  0
  -25.1250  -16.1570   20.3520 H   0  0  0  0  0  0  0  0  0  0  0  0
  -26.7770  -15.9130   20.1020 H   0  0  0  0  0  0  0  0  0  0  0  0
  -28.9680  -22.5540   20.4930 C   0  0  0  0  0  2  0  0  0  0  0  0
  -28.7680  -23.8680   19.5710 C   0  0  0  0  0  3  0  0  0  0  0  0
  -28.2080  -25.1990   20.2880 C   0  0  0  0  0  3  0  0  0  0  0  0
  -28.3070  -26.5620   19.6910 O   0  0  0  0  0  0  0  0  0  0  0  0
  -24.6860  -31.7750   23.1960 C   0  0  0  0  0  0  0  0  0  0  0  0
  -27.2010  -27.4200   19.7810 C   0  0  0  0  0  0  0  0  0  0  0  0
  -23.4400  -30.5050   21.4820 C   0  0  0  0  0  3  0  0  0  0  0  0
  -24.8500  -29.0450   19.9240 C   0  0  0  0  0  0  0  0  0  0  0  0
  -25.9770  -30.8200   21.2710 C   0  0  0  0  0  2  0  0  0  0  0  0
  -26.0360  -29.4880   20.5270 C   0  0  0  0  0  0  0  0  0  0  0  0
  -27.2180  -28.6920   20.4390 C   0  0  0  0  0  3  0  0  0  0  0  0
  -25.9960  -27.0260   19.1660 C   0  0  0  0  0  3  0  0  0  0  0  0
  -24.8330  -27.8220   19.2320 C   0  0  0  0  0  3  0  0  0  0  0  0
  -23.6220  -29.9230   20.0560 C   0  0  0  0  0  2  0  0  0  0  0  0
  -24.7210  -31.0470   22.0410 N   0  0  0  0  0  0  0  0  0  0  0  0
  -23.6150  -32.0210   23.7710 O   0  0  0  0  0  0  0  0  0  0  0  0
  -22.7850  -29.4300   22.3820 C   0  0  0  0  0  0  0  0  0  0  0  0
  -21.4530  -29.2880   22.2850 N   0  0  0  0  0  0  0  0  0  0  0  0
  -23.4750  -28.7290   23.1280 O   0  0  0  0  0  0  0  0  0  0  0  0
  -20.9560  -29.9090   21.6620 H   0  0  0  0  0  0  0  0  0  0  0  0
  -18.0680  -28.1210   22.8000 C   0  0  0  0  0  0  0  0  0  0  0  0
  -20.6390  -28.3070   23.0030 C   0  0  0  0  0  3  0  0  0  0  0  0
  -20.6890  -26.9260   22.3090 C   0  0  0  0  0  2  0  0  0  0  0  0
  -19.5490  -26.7140   21.3080 C   0  0  0  0  0  2  0  0  0  0  0  0
  -18.1930  -26.8300   22.0090 C   0  0  0  0  0  2  0  0  0  0  0  0
  -19.2160  -28.8230   23.2540 C   0  0  0  0  0  0  0  0  0  0  0  0
  -19.0460  -30.0360   23.9550 C   0  0  0  0  0  3  0  0  0  0  0  0
  -17.7590  -30.5480   24.2070 C   0  0  0  0  0  3  0  0  0  0  0  0
  -16.6250  -29.8400   23.7690 C   0  0  0  0  0  3  0  0  0  0  0  0
  -16.7810  -28.6290   23.0720 C   0  0  0  0  0  3  0  0  0  0  0  0
  -25.9850  -32.3510   23.8390 C   0  0  0  0  0  3  0  0  0  0  0  0
  -25.7020  -33.7330   24.2510 N   0  0  0  0  0  0  0  0  0  0  0  0
  -26.0690  -34.8230   23.5630 C   0  0  0  0  0  0  0  0  0  0  0  0
  -26.7490  -34.7680   22.5350 O   0  0  0  0  0  0  0  0  0  0  0  0
  -25.1000  -33.8500   25.0530 H   0  0  0  0  0  0  0  0  0  0  0  0
  -24.3810  -36.6730   23.3060 C   0  0  0  0  0  1  0  0  0  0  0  0
  -25.6070  -36.1920   24.1000 C   0  0  0  0  0  3  0  0  0  0  0  0
  -27.7530  -36.9770   24.9970 C   0  0  0  0  0  1  0  0  0  0  0  0
  -26.6630  -37.2260   24.0590 N   0  0  0  0  0  0  0  0  0  0  0  0
  -26.2770  -38.1450   24.2590 H   0  0  0  0  0  0  0  0  0  0  0  0
  -26.5010  -31.5010   25.0660 C   0  0  1  0  0  0  0  0  0  0  0  0
  -25.4160  -31.2340   26.1360 C   0  0  0  0  0  1  0  0  0  0  0  0
  -27.0460  -30.1330   24.5960 C   0  0  0  0  0  1  0  0  0  0  0  0
  -27.6770  -32.2340   25.7540 C   0  0  0  0  0  1  0  0  0  0  0  0
  2  4  2  0
  2  6  1  0
  3  1  2  0
  3 50  1  0
  4  3  1  0
  5  1  1  0
  5 11  1  0
  6  5  2  0
  8  9  1  0
  9  7  1  0
  9  4  1  0
 11 10  1  0
 11 20  1  0
 13 18  1  0
 14 15  1  0
 14 13  1  0
 16 15  1  0
 16 25  1  0
 16 17  1  0
 18 12  1  0
 18 17  1  0
 19 12  2  0
 20 21  1  0
 20 12  1  0
 22 23  2  0
 23 24  1  0
 23 42  1  0
 24 27  1  0
 25 22  1  0
 25 26  1  0
 26 24  2  0
 27 28  1  0
 28 29  2  0
 30 33  1  0
 30 29  1  0
 31 30  2  0
 32 31  1  0
 32 27  2  0
 33 34  1  0
 34 35  1  0
 35 36  2  0
 37 36  1  0
 37 41  1  0
 38 37  2  0
 39 34  2  0
 39 38  1  0
 40 39  1  0
 42 43  1  0
 43 46  1  0
 43 45  1  0
 44 42  2  0
 47 48  1  0
 47 22  1  0
 49 47  1  0
 51 52  2  0
 51 50  1  0
 53 55  1  0
 53 52  1  0
 54 65  2  0
 55 60  1  0
 56 64  1  0
 56 66  1  0
 57 63  1  0
 57 59  1  0
 58 64  1  0
 59 58  1  0
 60 59  2  0
 61 62  1  0
 61 55  2  0
 62 57  2  0
 63 56  1  0
 64 54  1  0
 66 68  2  0
 67 66  1  0
 69 67  1  0
 70 79  2  0
 70 75  1  0
 71 67  1  0
 71 75  1  0
 72 71  1  0
 73 74  1  0
 73 72  1  0
 74 70  1  0
 75 76  2  0
 76 77  1  0
 78 77  2  0
 79 78  1  0
 80 54  1  0
 80 81  1  0
 80 90  1  0
 81 84  1  0
 82 86  1  0
 82 81  1  0
 83 82  2  0
 86 85  1  0
 88 86  1  0
 88 89  1  0
 88 87  1  0
 90 93  1  1
 90 91  1  0
 92 90  1  0
M  ISO  4  12 100  20 100  52 101  53 101
M  END
>  <TORSDO>  (7) 
F 21

>  <SCORE>  (7) 
-12.009

>  <name>  (7) 
6

>  <ligand_id>  (7) 
6

>  <original_smiles>  (7) 
[H]c1nc(C([H])(N([H])C(=O)N2C([H])([H])C([H])([H])C([H])([H])C([H])(n3nc(-c4c([H])c([H])c(Oc5c([H])c([H])c(F)c([H])c5F)c([H])c4[H])c(C(=O)N([H])[H])c3N([H])[H])C2([H])[H])C([H])([H])[H])c([H])c(C([H])([H])C([H])([H])C([H])([H])Oc2c([H])c([H])c3c(c2[H])C([H])([H])N(C(=O)C([H])(N([H])C(=O)C([H])(N([H])C([H])([H])[H])C([H])([H])[H])C(C([H])([H])[H])(C([H])([H])[H])C([H])([H])[H])C([H])(C(=O)N([H])C2([H])c4c([H])c([H])c([H])c([H])c4C([H])([H])C([H])([H])C2([H])[H])C3([H])[H])c1C([H])(C([H])([H])[H])C([H])([H])[H]

>  <smiles>  (7) 
[H]c1nc(C([H])(N([H])C(=O)N2C([H])([H])C([H])([H])C([H])([H])C([H])(n3nc(-c4c([H])c([H])c(Oc5c([H])c([H])c(F)c([H])c5F)c([H])c4[H])c(C(=O)N([H])[H])c3N([H])[H])C2([H])[H])C([H])([H])[H])c([H])c(C([H])([H])C([H])([H])C([H])([H])Oc2c([H])c([H])c3c(c2[H])C([H])([H])N(C(=O)C([H])(N([H])C(=O)C([H])(N([H])C([H])([H])[H])C([H])([H])[H])C(C([H])([H])[H])(C([H])([H])[H])C([H])([H])[H])C([H])(C(=O)N([H])C2([H])c4c([H])c([H])c([H])c([H])c4C([H])([H])C([H])([H])C2([H])[H])C3([H])[H])c1C([H])(C([H])([H])[H])C([H])([H])[H]

$$$$
7:0:0
     RDKit          3D

 90 98  0  0  1  0  0  0  0  0999 V2000
  -28.5550  -21.4950   20.6780 C   0  0  0  0  0  2  0  0  0  0  0  0
  -28.8170  -22.9440   21.2120 C   0  0  0  0  0  2  0  0  0  0  0  0
  -28.6150  -24.1580   20.2480 C   0  0  0  0  0  2  0  0  0  0  0  0
  -28.5050  -25.5240   20.9980 C   0  0  0  0  0  2  0  0  0  0  0  0
  -28.4380  -26.6930   20.1510 O   0  0  0  0  0  0  0  0  0  0  0  0
  -24.6020  -31.8930   23.2330 C   0  0  0  0  0  0  0  0  0  0  0  0
  -27.2660  -27.4250   20.1940 C   0  0  0  0  0  0  0  0  0  0  0  0
  -23.4000  -30.4740   21.6050 C   0  0  0  0  0  3  0  0  0  0  0  0
  -24.8620  -28.9250   20.1930 C   0  0  0  0  0  0  0  0  0  0  0  0
  -25.9250  -30.8390   21.4010 C   0  0  0  0  0  2  0  0  0  0  0  0
  -26.0200  -29.4600   20.7750 C   0  0  0  0  0  0  0  0  0  0  0  0
  -27.2260  -28.7190   20.7680 C   0  0  0  0  0  3  0  0  0  0  0  0
  -26.0930  -26.9010   19.6160 C   0  0  0  0  0  3  0  0  0  0  0  0
  -24.8930  -27.6430   19.6090 C   0  0  0  0  0  3  0  0  0  0  0  0
  -23.6120  -29.7820   20.2320 C   0  0  0  0  0  2  0  0  0  0  0  0
  -24.6600  -31.0850   22.1370 N   0  0  0  0  0  0  0  0  0  0  0  0
  -23.5210  -32.1630   23.7730 O   0  0  0  0  0  0  0  0  0  0  0  0
  -22.7550  -29.4560   22.5740 C   0  0  0  0  0  0  0  0  0  0  0  0
  -21.4290  -29.2710   22.4550 N   0  0  0  0  0  0  0  0  0  0  0  0
  -23.4440  -28.8360   23.3890 O   0  0  0  0  0  0  0  0  0  0  0  0
  -20.9330  -29.8280   21.7720 H   0  0  0  0  0  0  0  0  0  0  0  0
  -18.0600  -28.0670   22.9670 C   0  0  0  0  0  0  0  0  0  0  0  0
  -20.6170  -28.3360   23.2320 C   0  0  0  0  0  3  0  0  0  0  0  0
  -20.7230  -26.9010   22.6640 C   0  0  0  0  0  2  0  0  0  0  0  0
  -19.6190  -26.5680   21.6550 C   0  0  0  0  0  2  0  0  0  0  0  0
  -18.2390  -26.7140   22.3000 C   0  0  0  0  0  2  0  0  0  0  0  0
  -19.1770  -28.8370   23.3900 C   0  0  0  0  0  0  0  0  0  0  0  0
  -18.9550  -30.1040   23.9710 C   0  0  0  0  0  3  0  0  0  0  0  0
  -17.6490  -30.6020   24.1360 C   0  0  0  0  0  3  0  0  0  0  0  0
  -16.5460  -29.8290   23.7320 C   0  0  0  0  0  3  0  0  0  0  0  0
  -16.7530  -28.5650   23.1530 C   0  0  0  0  0  3  0  0  0  0  0  0
  -25.8880  -32.5330   23.8460 C   0  0  0  0  0  3  0  0  0  0  0  0
  -25.5680  -33.9280   24.1810 N   0  0  0  0  0  0  0  0  0  0  0  0
  -25.8900  -34.9830   23.4220 C   0  0  0  0  0  0  0  0  0  0  0  0
  -26.5540  -34.8860   22.3860 O   0  0  0  0  0  0  0  0  0  0  0  0
  -24.9760  -34.0770   24.9850 H   0  0  0  0  0  0  0  0  0  0  0  0
  -24.1390  -36.7580   23.0920 C   0  0  0  0  0  1  0  0  0  0  0  0
  -25.3950  -36.3660   23.8860 C   0  0  0  0  0  3  0  0  0  0  0  0
  -27.5360  -37.2640   24.6860 C   0  0  0  0  0  1  0  0  0  0  0  0
  -26.4170  -37.4280   23.7610 N   0  0  0  0  0  0  0  0  0  0  0  0
  -26.0040  -38.3420   23.9240 H   0  0  0  0  0  0  0  0  0  0  0  0
  -26.4230  -31.7650   25.1160 C   0  0  1  0  0  0  0  0  0  0  0  0
  -25.3400  -31.5160   26.1920 C   0  0  0  0  0  1  0  0  0  0  0  0
  -27.0180  -30.3940   24.7150 C   0  0  0  0  0  1  0  0  0  0  0  0
  -27.5750  -32.5680   25.7670 C   0  0  0  0  0  1  0  0  0  0  0  0
  -29.7800  -20.7170   20.1080 C   0  0  0  0  0  2  0  0  0  0  0  0
  -30.4070  -18.2860   20.6970 C   0  0  0  0  0  3  0  0  0  0  0  0
  -28.7230  -18.5250   19.3700 C   0  0  0  0  0  3  0  0  0  0  0  0
  -29.9250  -17.0210   20.3820 C   0  0  0  0  0  0  0  0  0  0  0  0
  -28.8280  -17.2000   19.5300 N   0  0  0  0  0  0  0  0  0  0  0  0
  -29.6190  -19.2480   20.0600 N   0  0  0  0  0  0  0  0  0  0  0  0
  -31.7280  -15.8410   21.6670 C   0  0  0  0  0  1  0  0  0  0  0  0
  -29.3850  -15.3240   22.1110 C   0  0  0  0  0  1  0  0  0  0  0  0
  -30.3550  -15.6530   20.9640 C   0  0  1  0  0  0  0  0  0  0  0  0
  -30.5720  -14.5160   19.8630 C   0  0  0  0  0  0  0  0  0  0  0  0
  -30.0650  -12.4840   18.5060 C   0  0  0  0  0  2  0  0  0  0  0  0
  -29.0010  -12.7840   17.4260 C   0  0  0  0  0  2  0  0  0  0  0  0
  -27.5750  -12.6250   17.9930 C   0  0  0  0  0  2  0  0  0  0  0  0
  -27.4030  -13.3310   19.3630 C   0  0  0  0  0  3  0  0  0  0  0  0
  -28.5630  -12.9430   20.3010 C   0  0  0  0  0  2  0  0  0  0  0  0
  -29.8210  -13.3750   19.6690 N   0  0  0  0  0  0  0  0  0  0  0  0
  -31.5480  -14.7000   19.1250 O   0  0  0  0  0  0  0  0  0  0  0  0
  -25.0950  -13.9150   20.3370 C   0  0  0  0  0  0  0  0  0  0  0  0
  -24.0570  -13.1330   20.7670 C   0  0  0  0  0  0  0  0  0  0  0  0
  -24.4930  -11.7810   20.6180 C   0  0  0  0  0  0  0  0  0  0  0  0
  -26.0990  -13.0390   19.9560 N   0  0  0  0  0  0  0  0  0  0  0  0
  -25.7440  -11.7470   20.1750 N   0  0  0  0  0  0  0  0  0  0  0  0
  -23.7710  -10.5160   20.8120 C   0  0  0  0  0  0  0  0  0  0  0  0
  -24.2890   -9.4870   21.6290 C   0  0  0  0  0  3  0  0  0  0  0  0
  -23.5690   -8.2870   21.8150 C   0  0  0  0  0  3  0  0  0  0  0  0
  -22.3160   -8.1060   21.1830 C   0  0  0  0  0  0  0  0  0  0  0  0
  -21.8140   -9.1240   20.3530 C   0  0  0  0  0  3  0  0  0  0  0  0
  -22.5330  -10.3160   20.1660 C   0  0  0  0  0  3  0  0  0  0  0  0
  -21.5590   -6.9640   21.2840 O   0  0  0  0  0  0  0  0  0  0  0  0
  -21.6380   -6.1420   22.3800 C   0  0  0  0  0  0  0  0  0  0  0  0
  -21.4110   -6.6200   23.6880 C   0  0  0  0  0  3  0  0  0  0  0  0
  -21.4350   -5.7290   24.7790 C   0  0  0  0  0  3  0  0  0  0  0  0
  -21.6780   -4.3590   24.5630 C   0  0  0  0  0  0  0  0  0  0  0  0
  -21.9020   -3.8800   23.2590 C   0  0  0  0  0  3  0  0  0  0  0  0
  -21.8780   -4.7690   22.1720 C   0  0  0  0  0  0  0  0  0  0  0  0
  -22.0720   -4.2980   20.9150 F   0  0  0  0  0  0  0  0  0  0  0  0
  -21.6950   -3.4990   25.6080 F   0  0  0  0  0  0  0  0  0  0  0  0
  -22.6990  -13.6040   21.2060 C   0  0  0  0  0  0  0  0  0  0  0  0
  -22.0600  -12.8730   22.1110 N   0  0  0  0  0  0  0  0  0  0  0  0
  -22.2190  -14.6550   20.7820 O   0  0  0  0  0  0  0  0  0  0  0  0
  -22.4640  -12.0230   22.4780 H   0  0  0  0  0  0  0  0  0  0  0  0
  -21.1490  -13.1610   22.4400 H   0  0  0  0  0  0  0  0  0  0  0  0
  -25.2670  -15.2920   20.2170 N   0  0  0  0  0  0  0  0  0  0  0  0
  -24.5440  -15.9630   20.4500 H   0  0  0  0  0  0  0  0  0  0  0  0
  -26.1140  -15.7270   19.8700 H   0  0  0  0  0  0  0  0  0  0  0  0
  1  2  1  0
  3  4  1  0
  3  2  1  0
  5  7  1  0
  5  4  1  0
  6 17  2  0
  7 12  1  0
  8 16  1  0
  8 18  1  0
  9 15  1  0
  9 11  1  0
 10 16  1  0
 11 10  1  0
 12 11  2  0
 13  7  2  0
 14 13  1  0
 14  9  2  0
 15  8  1  0
 16  6  1  0
 18 20  2  0
 19 18  1  0
 21 19  1  0
 22 31  2  0
 22 27  1  0
 23 19  1  0
 23 27  1  0
 24 23  1  0
 25 26  1  0
 25 24  1  0
 26 22  1  0
 27 28  2  0
 28 29  1  0
 30 29  2  0
 31 30  1  0
 32  6  1  0
 32 33  1  0
 32 42  1  0
 33 36  1  0
 34 38  1  0
 34 33  1  0
 35 34  2  0
 38 37  1  0
 40 38  1  0
 40 41  1  0
 40 39  1  0
 42 45  1  1
 42 43  1  0
 44 42  1  0
 46  1  1  0
 48 50  2  0
 48 51  1  0
 49 47  2  0
 49 54  1  0
 50 49  1  0
 51 46  1  0
 51 47  1  0
 54 52  1  1
 54 53  1  0
 55 54  1  0
 56 61  1  0
 57 58  1  0
 57 56  1  0
 59 58  1  0
 59 66  1  0
 59 60  1  0
 61 55  1  0
 61 60  1  0
 62 55  2  0
 63 64  2  0
 64 83  1  0
 65 64  1  0
 65 68  1  0
 66 67  1  0
 66 63  1  0
 67 65  2  0
 68 69  1  0
 69 70  2  0
 71 74  1  0
 71 70  1  0
 72 71  2  0
 73 72  1  0
 73 68  2  0
 74 75  1  0
 75 76  1  0
 76 77  2  0
 78 77  1  0
 78 82  1  0
 79 78  2  0
 80 75  2  0
 80 79  1  0
 81 80  1  0
 83 84  1  0
 84 87  1  0
 84 86  1  0
 85 83  2  0
 88 63  1  0
 88 89  1  0
 90 88  1  0
M  ISO  4   4 101   5 101  54 100  55 100
M  END
>  <TORSDO>  (8) 
F 22

>  <SCORE>  (8) 
-10.879

>  <name>  (8) 
7

>  <ligand_id>  (8) 
7

>  <original_smiles>  (8) 
[H]c1c([H])c([H])c2c(c1[H])C([H])([H])C([H])([H])C([H])([H])C2([H])N([H])C(=O)C1([H])N(C(=O)C([H])(N([H])C(=O)C([H])(N([H])C([H])([H])[H])C([H])([H])[H])C(C([H])([H])[H])(C([H])([H])[H])C([H])([H])[H])C([H])([H])c2c([H])c(OC([H])([H])C([H])([H])C([H])([H])C([H])([H])C([H])([H])n3c([H])nc(C(C(=O)N4C([H])([H])C([H])([H])C([H])([H])C([H])(n5nc(-c6c([H])c([H])c(Oc7c([H])c([H])c(F)c([H])c7F)c([H])c6[H])c(C(=O)N([H])[H])c5N([H])[H])C4([H])[H])(C([H])([H])[H])C([H])([H])[H])c3[H])c([H])c([H])c2C1([H])[H]

>  <smiles>  (8) 
[H]c1c([H])c([H])c2c(c1[H])C([H])([H])C([H])([H])C([H])([H])C2([H])N([H])C(=O)C1([H])N(C(=O)C([H])(N([H])C(=O)C([H])(N([H])C([H])([H])[H])C([H])([H])[H])C(C([H])([H])[H])(C([H])([H])[H])C([H])([H])[H])C([H])([H])c2c([H])c(OC([H])([H])C([H])([H])C([H])([H])C([H])([H])C([H])([H])n3c([H])nc(C(C(=O)N4C([H])([H])C([H])([H])C([H])([H])C([H])(n5nc(-c6c([H])c([H])c(Oc7c([H])c([H])c(F)c([H])c7F)c([H])c6[H])c(C(=O)N([H])[H])c5N([H])[H])C4([H])[H])(C([H])([H])[H])C([H])([H])[H])c3[H])c([H])c([H])c2C1([H])[H]

$$$$
8:0:0
     RDKit          3D

 93101  0  0  1  0  0  0  0  0999 V2000
  -30.5930  -20.1920   20.5530 C   0  0  0  0  0  3  0  0  0  0  0  0
  -29.0000  -19.0150   19.6200 C   0  0  0  0  0  3  0  0  0  0  0  0
  -29.2420  -20.2790   20.1040 C   0  0  0  0  0  0  0  0  0  0  0  0
  -31.1380  -19.0060   20.3230 N   0  0  0  0  0  0  0  0  0  0  0  0
  -30.1540  -18.2600   19.7700 N   0  0  0  0  0  0  0  0  0  0  0  0
  -28.3090  -21.4800   20.1840 C   0  0  0  0  0  2  0  0  0  0  0  0
  -28.9080  -22.7900   19.6040 C   0  0  0  0  0  2  0  0  0  0  0  0
  -28.1100  -24.0780   19.9480 C   0  0  0  0  0  2  0  0  0  0  0  0
  -28.6010  -25.3420   19.1930 C   0  0  0  0  0  2  0  0  0  0  0  0
  -28.4130  -26.5860   19.8910 O   0  0  0  0  0  0  0  0  0  0  0  0
  -24.5210  -31.6170   23.0710 C   0  0  0  0  0  0  0  0  0  0  0  0
  -27.2070  -27.2630   19.8760 C   0  0  0  0  0  0  0  0  0  0  0  0
  -23.3230  -30.2360   21.4010 C   0  0  0  0  0  3  0  0  0  0  0  0
  -24.7890  -28.7430   19.9370 C   0  0  0  0  0  0  0  0  0  0  0  0
  -25.8440  -30.6240   21.2030 C   0  0  0  0  0  2  0  0  0  0  0  0
  -25.9400  -29.2670   20.5330 C   0  0  0  0  0  0  0  0  0  0  0  0
  -27.1480  -28.5330   20.5040 C   0  0  0  0  0  3  0  0  0  0  0  0
  -26.0360  -26.7540   19.2730 C   0  0  0  0  0  3  0  0  0  0  0  0
  -24.8320  -27.4870   19.3040 C   0  0  0  0  0  3  0  0  0  0  0  0
  -23.5350  -29.5840   20.0070 C   0  0  0  0  0  2  0  0  0  0  0  0
  -24.5800  -30.8410   21.9500 N   0  0  0  0  0  0  0  0  0  0  0  0
  -23.4400  -31.8650   23.6210 O   0  0  0  0  0  0  0  0  0  0  0  0
  -22.6870  -29.1910   22.3440 C   0  0  0  0  0  0  0  0  0  0  0  0
  -21.3650  -28.9970   22.2160 N   0  0  0  0  0  0  0  0  0  0  0  0
  -23.3790  -28.5540   23.1430 O   0  0  0  0  0  0  0  0  0  0  0  0
  -20.8660  -29.5630   21.5430 H   0  0  0  0  0  0  0  0  0  0  0  0
  -18.0030  -27.7660   22.6990 C   0  0  0  0  0  0  0  0  0  0  0  0
  -20.5610  -28.0320   22.9640 C   0  0  0  0  0  3  0  0  0  0  0  0
  -20.6700  -26.6190   22.3480 C   0  0  0  0  0  2  0  0  0  0  0  0
  -19.5650  -26.3170   21.3320 C   0  0  0  0  0  2  0  0  0  0  0  0
  -18.1870  -26.4350   21.9870 C   0  0  0  0  0  2  0  0  0  0  0  0
  -19.1190  -28.5220   23.1430 C   0  0  0  0  0  0  0  0  0  0  0  0
  -18.8970  -29.7690   23.7670 C   0  0  0  0  0  3  0  0  0  0  0  0
  -17.5900  -30.2570   23.9530 C   0  0  0  0  0  3  0  0  0  0  0  0
  -16.4880  -29.4960   23.5260 C   0  0  0  0  0  3  0  0  0  0  0  0
  -16.6960  -28.2520   22.9040 C   0  0  0  0  0  3  0  0  0  0  0  0
  -25.8030  -32.2460   23.7010 C   0  0  0  0  0  3  0  0  0  0  0  0
  -26.3360  -31.4490   24.9540 C   0  0  1  0  0  0  0  0  0  0  0  0
  -25.2450  -31.1470   26.0070 C   0  0  0  0  0  1  0  0  0  0  0  0
  -26.9580  -30.1020   24.5190 C   0  0  0  0  0  1  0  0  0  0  0  0
  -27.4600  -32.2550   25.6490 C   0  0  0  0  0  1  0  0  0  0  0  0
  -25.4810  -33.6310   24.0650 N   0  0  0  0  0  0  0  0  0  0  0  0
  -25.8050  -34.7070   23.3320 C   0  0  0  0  0  0  0  0  0  0  0  0
  -26.4760  -34.6360   22.2990 O   0  0  0  0  0  0  0  0  0  0  0  0
  -24.8820  -33.7620   24.8670 H   0  0  0  0  0  0  0  0  0  0  0  0
  -24.0590  -36.4910   23.0190 C   0  0  0  0  0  1  0  0  0  0  0  0
  -25.3040  -36.0780   23.8220 C   0  0  0  0  0  3  0  0  0  0  0  0
  -27.4300  -36.9620   24.6770 C   0  0  0  0  0  1  0  0  0  0  0  0
  -26.3270  -37.1440   23.7370 N   0  0  0  0  0  0  0  0  0  0  0  0
  -25.9110  -38.0560   23.9070 H   0  0  0  0  0  0  0  0  0  0  0  0
  -30.4410  -16.8930   19.3100 C   0  0  0  0  0  2  0  0  0  0  0  0
  -32.0720  -16.1130   21.1410 C   0  0  0  0  0  1  0  0  0  0  0  0
  -30.7470  -15.7840   20.3890 C   0  0  2  0  0  0  0  0  0  0  0  0
  -31.0340  -14.4410   19.5870 C   0  0  0  0  0  0  0  0  0  0  0  0
  -30.4700  -12.3570   18.3660 C   0  0  0  0  0  2  0  0  0  0  0  0
  -29.3990  -12.6360   17.2910 C   0  0  0  0  0  2  0  0  0  0  0  0
  -27.9790  -12.5320   17.8820 C   0  0  0  0  0  2  0  0  0  0  0  0
  -27.8350  -13.3180   19.2100 C   0  0  0  0  0  3  0  0  0  0  0  0
  -29.0000  -12.9610   20.1560 C   0  0  0  0  0  2  0  0  0  0  0  0
  -30.2600  -13.3100   19.4840 N   0  0  0  0  0  0  0  0  0  0  0  0
  -32.0640  -14.4940   18.9020 O   0  0  0  0  0  0  0  0  0  0  0  0
  -25.5600  -13.9870   20.2070 C   0  0  0  0  0  0  0  0  0  0  0  0
  -24.5160  -13.2390   20.6820 C   0  0  0  0  0  0  0  0  0  0  0  0
  -24.9200  -11.8760   20.5560 C   0  0  0  0  0  0  0  0  0  0  0  0
  -26.5400  -13.0790   19.8370 N   0  0  0  0  0  0  0  0  0  0  0  0
  -26.1640  -11.8020   20.0990 N   0  0  0  0  0  0  0  0  0  0  0  0
  -24.1740  -10.6340   20.7900 C   0  0  0  0  0  0  0  0  0  0  0  0
  -24.6200   -9.6630   21.7130 C   0  0  0  0  0  3  0  0  0  0  0  0
  -23.8740   -8.4840   21.9300 C   0  0  0  0  0  3  0  0  0  0  0  0
  -22.6660   -8.2690   21.2240 C   0  0  0  0  0  0  0  0  0  0  0  0
  -22.2400   -9.2290   20.2880 C   0  0  0  0  0  3  0  0  0  0  0  0
  -22.9870  -10.3980   20.0700 C   0  0  0  0  0  3  0  0  0  0  0  0
  -21.8890   -7.1450   21.3530 O   0  0  0  0  0  0  0  0  0  0  0  0
  -21.8070   -6.4580   22.5380 C   0  0  0  0  0  0  0  0  0  0  0  0
  -21.3920   -7.0830   23.7340 C   0  0  0  0  0  3  0  0  0  0  0  0
  -21.2580   -6.3230   24.9130 C   0  0  0  0  0  3  0  0  0  0  0  0
  -21.5270   -4.9420   24.8970 C   0  0  0  0  0  0  0  0  0  0  0  0
  -21.9330   -4.3170   23.7040 C   0  0  0  0  0  3  0  0  0  0  0  0
  -22.0700   -5.0740   22.5270 C   0  0  0  0  0  0  0  0  0  0  0  0
  -22.4420   -4.4640   21.3760 F   0  0  0  0  0  0  0  0  0  0  0  0
  -21.3900   -4.2100   26.0270 F   0  0  0  0  0  0  0  0  0  0  0  0
  -23.1820  -13.7560   21.1370 C   0  0  0  0  0  0  0  0  0  0  0  0
  -22.5580  -13.0770   22.0950 N   0  0  0  0  0  0  0  0  0  0  0  0
  -22.7110  -14.7960   20.6830 O   0  0  0  0  0  0  0  0  0  0  0  0
  -22.9570  -12.2330   22.4770 H   0  0  0  0  0  0  0  0  0  0  0  0
  -21.6680  -13.4020   22.4460 H   0  0  0  0  0  0  0  0  0  0  0  0
  -25.7490  -15.3540   20.0460 N   0  0  0  0  0  0  0  0  0  0  0  0
  -25.0470  -16.0350   20.3130 H   0  0  0  0  0  0  0  0  0  0  0  0
  -26.6430  -15.7690   19.8180 H   0  0  0  0  0  0  0  0  0  0  0  0
  -29.6380  -15.8080   21.4810 C   0  0  1  0  0  0  0  0  0  0  0  0
  -28.4220  -15.8440   20.9460 F   0  0  0  0  0  0  0  0  0  0  0  0
  -29.7440  -14.7640   22.3070 F   0  0  0  0  0  0  0  0  0  0  0  0
  -29.7250  -16.9000   22.2440 F   0  0  0  0  0  0  0  0  0  0  0  0
  2  5  1  0
  2  3  2  0
  3  6  1  0
  3  1  1  0
  4  1  2  0
  5  4  1  0
  7  8  1  0
  7  6  1  0
  9 10  1  0
  9  8  1  0
 11 22  2  0
 12 10  1  0
 12 17  1  0
 13 21  1  0
 13 23  1  0
 14 20  1  0
 14 16  1  0
 15 21  1  0
 16 15  1  0
 17 16  2  0
 18 19  1  0
 18 12  2  0
 19 14  2  0
 20 13  1  0
 21 11  1  0
 23 25  2  0
 24 23  1  0
 26 24  1  0
 27 36  2  0
 27 32  1  0
 28 24  1  0
 28 32  1  0
 29 28  1  0
 30 31  1  0
 30 29  1  0
 31 27  1  0
 32 33  2  0
 33 34  1  0
 35 34  2  0
 36 35  1  0
 37 11  1  0
 37 42  1  0
 37 38  1  0
 38 41  1  1
 38 39  1  0
 40 38  1  0
 42 45  1  0
 43 47  1  0
 43 42  1  0
 44 43  2  0
 47 46  1  0
 49 47  1  0
 49 50  1  0
 49 48  1  0
 51  5  1  0
 51 53  1  0
 53 52  1  1
 53 90  1  0
 54 53  1  0
 55 60  1  0
 56 57  1  0
 56 55  1  0
 58 57  1  0
 58 65  1  0
 58 59  1  0
 60 54  1  0
 60 59  1  0
 61 54  2  0
 62 63  2  0
 63 82  1  0
 64 63  1  0
 64 67  1  0
 65 66  1  0
 65 62  1  0
 66 64  2  0
 67 68  1  0
 68 69  2  0
 70 73  1  0
 70 69  1  0
 71 70  2  0
 72 71  1  0
 72 67  2  0
 73 74  1  0
 74 75  1  0
 75 76  2  0
 77 76  1  0
 77 81  1  0
 78 77  2  0
 79 74  2  0
 79 78  1  0
 80 79  1  0
 82 83  1  0
 83 86  1  0
 83 85  1  0
 84 82  2  0
 87 62  1  0
 87 88  1  0
 89 87  1  0
 90 93  1  1
 90 92  1  0
 91 90  1  0
M  ISO  4   9 101  10 101  53 100  54 100
M  END
>  <TORSDO>  (9) 
F 23

>  <SCORE>  (9) 
-10.962

>  <name>  (9) 
8

>  <ligand_id>  (9) 
8

>  <original_smiles>  (9) 
[H]c1nn(C([H])([H])C(C(=O)N2C([H])([H])C([H])([H])C([H])([H])C([H])(n3nc(-c4c([H])c([H])c(Oc5c([H])c([H])c(F)c([H])c5F)c([H])c4[H])c(C(=O)N([H])[H])c3N([H])[H])C2([H])[H])(C([H])([H])[H])C(F)(F)F)c([H])c1C([H])([H])C([H])([H])C([H])([H])C([H])([H])Oc1c([H])c([H])c2c(c1[H])C([H])([H])N(C(=O)C([H])(N([H])C(=O)C([H])(N([H])C([H])([H])[H])C([H])([H])[H])C(C([H])([H])[H])(C([H])([H])[H])C([H])([H])[H])C([H])(C(=O)N([H])C1([H])c3c([H])c([H])c([H])c([H])c3C([H])([H])C([H])([H])C1([H])[H])C2([H])[H]

>  <smiles>  (9) 
[H]c1nn(C([H])([H])C(C(=O)N2C([H])([H])C([H])([H])C([H])([H])C([H])(n3nc(-c4c([H])c([H])c(Oc5c([H])c([H])c(F)c([H])c5F)c([H])c4[H])c(C(=O)N([H])[H])c3N([H])[H])C2([H])[H])(C([H])([H])[H])C(F)(F)F)c([H])c1C([H])([H])C([H])([H])C([H])([H])C([H])([H])Oc1c([H])c([H])c2c(c1[H])C([H])([H])N(C(=O)C([H])(N([H])C(=O)C([H])(N([H])C([H])([H])[H])C([H])([H])[H])C(C([H])([H])[H])(C([H])([H])[H])C([H])([H])[H])C([H])(C(=O)N([H])C1([H])c3c([H])c([H])c([H])c([H])c3C([H])([H])C([H])([H])C1([H])[H])C2([H])[H]

$$$$
9:0:0
     RDKit          3D

 95103  0  0  1  0  0  0  0  0999 V2000
  -28.3650  -20.4030   20.0900 C   0  0  0  0  0  3  0  0  0  0  0  0
  -29.5580  -20.9980   20.3890 C   0  0  0  0  0  0  0  0  0  0  0  0
  -29.8310  -18.6810   20.2350 C   0  0  0  0  0  3  0  0  0  0  0  0
  -28.5490  -19.0300   19.9300 N   0  0  0  0  0  0  0  0  0  0  0  0
  -30.4110  -19.8900   20.5180 N   0  0  0  0  0  0  0  0  0  0  0  0
  -31.3980  -19.9780   20.7340 H   0  0  0  0  0  0  0  0  0  0  0  0
  -26.1600  -18.8700   19.1390 C   0  0  0  0  0  1  0  0  0  0  0  0
  -27.1920  -17.0190   20.4390 C   0  0  0  0  0  1  0  0  0  0  0  0
  -27.9680  -17.6080   18.0090 C   0  0  0  0  0  1  0  0  0  0  0  0
  -27.4990  -18.1210   19.3950 C   0  0  2  0  0  0  0  0  0  0  0  0
  -31.3000  -17.2810   18.6990 C   0  0  0  0  0  1  0  0  0  0  0  0
  -30.6830  -17.3210   20.1160 C   0  0  0  0  0  3  0  0  0  0  0  0
  -30.8100  -14.7090   20.4020 C   0  0  0  0  0  0  0  0  0  0  0  0
  -30.5180  -12.4540   19.3770 C   0  0  0  0  0  2  0  0  0  0  0  0
  -29.6070  -12.5700   18.1400 C   0  0  0  0  0  2  0  0  0  0  0  0
  -28.1320  -12.4070   18.5510 C   0  0  0  0  0  2  0  0  0  0  0  0
  -27.7490  -13.2760   19.7820 C   0  0  0  0  0  3  0  0  0  0  0  0
  -28.8050  -13.1920   20.9090 C   0  0  0  0  0  2  0  0  0  0  0  0
  -30.1090  -13.5230   20.3190 N   0  0  0  0  0  0  0  0  0  0  0  0
  -32.0170  -14.7060   20.1530 O   0  0  0  0  0  0  0  0  0  0  0  0
  -30.1350  -15.9250   20.4790 N   0  0  0  0  0  0  0  0  0  0  0  0
  -29.1460  -15.8710   20.6640 H   0  0  0  0  0  0  0  0  0  0  0  0
  -25.3310  -13.8420   20.4330 C   0  0  0  0  0  0  0  0  0  0  0  0
  -24.2690  -13.0720   20.8070 C   0  0  0  0  0  0  0  0  0  0  0  0
  -24.7550  -11.7320   20.8250 C   0  0  0  0  0  0  0  0  0  0  0  0
  -26.4000  -12.9810   20.2580 N   0  0  0  0  0  0  0  0  0  0  0  0
  -26.0560  -11.7030   20.5580 N   0  0  0  0  0  0  0  0  0  0  0  0
  -24.0350  -10.4710   21.0300 C   0  0  0  0  0  0  0  0  0  0  0  0
  -24.4200   -9.5600   22.0360 C   0  0  0  0  0  3  0  0  0  0  0  0
  -23.6990   -8.3630   22.2300 C   0  0  0  0  0  3  0  0  0  0  0  0
  -22.5780   -8.0710   21.4160 C   0  0  0  0  0  0  0  0  0  0  0  0
  -22.2140   -8.9710   20.3990 C   0  0  0  0  0  3  0  0  0  0  0  0
  -22.9370  -10.1580   20.2040 C   0  0  0  0  0  3  0  0  0  0  0  0
  -21.8330   -6.9220   21.5140 O   0  0  0  0  0  0  0  0  0  0  0  0
  -21.6730   -6.2690   22.7080 C   0  0  0  0  0  0  0  0  0  0  0  0
  -21.0940   -6.8990   23.8310 C   0  0  0  0  0  3  0  0  0  0  0  0
  -20.8900   -6.1700   25.0200 C   0  0  0  0  0  3  0  0  0  0  0  0
  -21.2510   -4.8090   25.0800 C   0  0  0  0  0  0  0  0  0  0  0  0
  -21.8200   -4.1780   23.9600 C   0  0  0  0  0  3  0  0  0  0  0  0
  -22.0300   -4.9080   22.7770 C   0  0  0  0  0  0  0  0  0  0  0  0
  -22.5640   -4.2910   21.6940 F   0  0  0  0  0  0  0  0  0  0  0  0
  -21.0430   -4.1050   26.2170 F   0  0  0  0  0  0  0  0  0  0  0  0
  -22.8620  -13.5480   21.0260 C   0  0  0  0  0  0  0  0  0  0  0  0
  -22.1220  -12.8830   21.9080 N   0  0  0  0  0  0  0  0  0  0  0  0
  -22.4280  -14.5470   20.4550 O   0  0  0  0  0  0  0  0  0  0  0  0
  -22.4910  -12.0830   22.3970 H   0  0  0  0  0  0  0  0  0  0  0  0
  -21.1800  -13.1900   22.1050 H   0  0  0  0  0  0  0  0  0  0  0  0
  -25.4430  -15.1990   20.2080 N   0  0  0  0  0  0  0  0  0  0  0  0
  -24.6320  -15.8000   20.2840 H   0  0  0  0  0  0  0  0  0  0  0  0
  -26.2760  -15.6940   19.9270 H   0  0  0  0  0  0  0  0  0  0  0  0
  -29.9690  -22.5160   20.3610 C   0  0  0  0  0  2  0  0  0  0  0  0
  -29.0180  -23.7120   20.9050 C   0  0  0  0  0  2  0  0  0  0  0  0
  -29.8210  -25.3250   18.9700 C   0  0  0  0  0  1  0  0  0  0  0  0
  -28.7340  -25.0450   20.0210 C   0  0  0  0  0  3  0  0  0  0  0  0
  -28.5340  -26.3680   20.6990 O   0  0  0  0  0  0  0  0  0  0  0  0
  -24.6610  -31.9210   23.2880 C   0  0  0  0  0  0  0  0  0  0  0  0
  -27.4000  -27.2020   20.5330 C   0  0  0  0  0  0  0  0  0  0  0  0
  -23.5260  -30.4490   21.6670 C   0  0  0  0  0  3  0  0  0  0  0  0
  -25.0310  -28.8320   20.3740 C   0  0  0  0  0  0  0  0  0  0  0  0
  -26.0780  -30.7450   21.5850 C   0  0  0  0  0  2  0  0  0  0  0  0
  -26.1780  -29.3370   20.9960 C   0  0  0  0  0  0  0  0  0  0  0  0
  -27.3590  -28.5330   21.0690 C   0  0  0  0  0  3  0  0  0  0  0  0
  -26.2220  -26.7580   19.8850 C   0  0  0  0  0  3  0  0  0  0  0  0
  -25.0560  -27.5460   19.8150 C   0  0  0  0  0  3  0  0  0  0  0  0
  -23.7970  -29.7130   20.3300 C   0  0  0  0  0  2  0  0  0  0  0  0
  -24.7720  -31.0580   22.2350 N   0  0  0  0  0  0  0  0  0  0  0  0
  -23.5570  -32.2230   23.7620 O   0  0  0  0  0  0  0  0  0  0  0  0
  -22.8220  -29.4760   22.6440 C   0  0  0  0  0  0  0  0  0  0  0  0
  -21.4960  -29.3210   22.4950 N   0  0  0  0  0  0  0  0  0  0  0  0
  -23.4700  -28.8620   23.4960 O   0  0  0  0  0  0  0  0  0  0  0  0
  -21.0320  -29.8760   21.7910 H   0  0  0  0  0  0  0  0  0  0  0  0
  -18.0770  -28.2400   22.9880 C   0  0  0  0  0  0  0  0  0  0  0  0
  -20.6430  -28.4170   23.2690 C   0  0  0  0  0  3  0  0  0  0  0  0
  -20.7020  -26.9790   22.7070 C   0  0  0  0  0  2  0  0  0  0  0  0
  -19.5950  -26.6870   21.6880 C   0  0  0  0  0  2  0  0  0  0  0  0
  -18.2140  -26.8800   22.3230 C   0  0  0  0  0  2  0  0  0  0  0  0
  -19.2200  -28.9700   23.4140 C   0  0  0  0  0  0  0  0  0  0  0  0
  -19.0380  -30.2490   23.9880 C   0  0  0  0  0  3  0  0  0  0  0  0
  -17.7490  -30.7970   24.1340 C   0  0  0  0  0  3  0  0  0  0  0  0
  -16.6230  -30.0640   23.7210 C   0  0  0  0  0  3  0  0  0  0  0  0
  -16.7890  -28.7860   23.1580 C   0  0  0  0  0  3  0  0  0  0  0  0
  -25.9180  -32.5850   23.9320 C   0  0  0  0  0  3  0  0  0  0  0  0
  -25.5780  -33.9820   24.2340 N   0  0  0  0  0  0  0  0  0  0  0  0
  -25.8990  -35.0290   23.4610 C   0  0  0  0  0  0  0  0  0  0  0  0
  -26.5800  -34.9190   22.4380 O   0  0  0  0  0  0  0  0  0  0  0  0
  -24.9820  -34.1430   25.0330 H   0  0  0  0  0  0  0  0  0  0  0  0
  -24.1330  -36.7720   23.0670 C   0  0  0  0  0  1  0  0  0  0  0  0
  -25.3830  -36.4160   23.8870 C   0  0  0  0  0  3  0  0  0  0  0  0
  -27.4930  -37.3650   24.7050 C   0  0  0  0  0  1  0  0  0  0  0  0
  -26.3920  -37.4880   23.7530 N   0  0  0  0  0  0  0  0  0  0  0  0
  -25.9660  -38.4020   23.8790 H   0  0  0  0  0  0  0  0  0  0  0  0
  -26.4100  -31.8440   25.2360 C   0  0  1  0  0  0  0  0  0  0  0  0
  -25.2840  -31.5820   26.2630 C   0  0  0  0  0  1  0  0  0  0  0  0
  -27.0540  -30.4840   24.8850 C   0  0  0  0  0  1  0  0  0  0  0  0
  -27.5070  -32.6840   25.9310 C   0  0  0  0  0  1  0  0  0  0  0  0
  1  2  2  0
  2  5  1  0
  3 12  1  0
  3  5  1  0
  4  1  1  0
  4  3  1  0
  5  6  1  0
 10  7  1  6
  9 10  1  0
 10  4  1  0
 10  8  1  0
 12 11  1  0
 12 21  1  0
 13 21  1  0
 14 19  1  0
 15 16  1  0
 15 14  1  0
 17 16  1  0
 17 26  1  0
 17 18  1  0
 19 13  1  0
 19 18  1  0
 20 13  2  0
 21 22  1  0
 23 24  2  0
 24 25  1  0
 24 43  1  0
 25 28  1  0
 26 23  1  0
 26 27  1  0
 27 25  2  0
 28 29  1  0
 29 30  2  0
 31 34  1  0
 31 30  1  0
 32 31  2  0
 33 32  1  0
 33 28  2  0
 34 35  1  0
 35 40  2  0
 35 36  1  0
 36 37  2  0
 37 38  1  0
 38 42  1  0
 39 38  2  0
 40 39  1  0
 41 40  1  0
 43 44  1  0
 44 47  1  0
 44 46  1  0
 45 43  2  0
 48 49  1  0
 48 23  1  0
 50 48  1  0
 51  2  1  0
 51 52  1  0
 54 53  1  0
 54 55  1  0
 54 52  1  0
 56 67  2  0
 57 55  1  0
 57 62  1  0
 58 66  1  0
 58 68  1  0
 59 61  1  0
 60 66  1  0
 61 62  2  0
 61 60  1  0
 63 57  2  0
 64 63  1  0
 64 59  2  0
 65 59  1  0
 65 58  1  0
 66 56  1  0
 68 70  2  0
 69 68  1  0
 71 69  1  0
 72 81  2  0
 72 77  1  0
 73 69  1  0
 73 77  1  0
 74 73  1  0
 75 76  1  0
 75 74  1  0
 76 72  1  0
 77 78  2  0
 78 79  1  0
 80 79  2  0
 81 80  1  0
 82 56  1  0
 82 83  1  0
 82 92  1  0
 83 86  1  0
 84 88  1  0
 84 83  1  0
 85 84  2  0
 88 87  1  0
 90 91  1  0
 90 88  1  0
 90 89  1  0
 92 95  1  1
 92 93  1  0
 94 92  1  0
M  ISO  4  13 100  21 100  54 101  55 101
M  END
>  <TORSDO>  (10) 
F 21

>  <SCORE>  (10) 
-12.946

>  <name>  (10) 
9

>  <ligand_id>  (10) 
9

>  <original_smiles>  (10) 
[H]c1c([H])c([H])c2c(c1[H])C([H])([H])C([H])([H])C([H])([H])C2([H])N([H])C(=O)C1([H])N(C(=O)C([H])(N([H])C(=O)C([H])(N([H])C([H])([H])[H])C([H])([H])[H])C(C([H])([H])[H])(C([H])([H])[H])C([H])([H])[H])C([H])([H])c2c([H])c(OC([H])(C([H])([H])[H])C([H])([H])C([H])([H])c3c([H])n(C(C([H])([H])[H])(C([H])([H])[H])C([H])([H])[H])c(C([H])(N([H])C(=O)N4C([H])([H])C([H])([H])C([H])([H])C([H])(n5nc(-c6c([H])c([H])c(Oc7c([H])c([H])c(F)c([H])c7F)c([H])c6[H])c(C(=O)N([H])[H])c5N([H])[H])C4([H])[H])C([H])([H])[H])[n+]3[H])c([H])c([H])c2C1([H])[H]

>  <smiles>  (10) 
[H]c1c([H])c([H])c2c(c1[H])C([H])([H])C([H])([H])C([H])([H])C2([H])N([H])C(=O)C1([H])N(C(=O)C([H])(N([H])C(=O)C([H])(N([H])C([H])([H])[H])C([H])([H])[H])C(C([H])([H])[H])(C([H])([H])[H])C([H])([H])[H])C([H])([H])c2c([H])c(OC([H])(C([H])([H])[H])C([H])([H])C([H])([H])c3c([H])n(C(C([H])([H])[H])(C([H])([H])[H])C([H])([H])[H])c(C([H])(N([H])C(=O)N4C([H])([H])C([H])([H])C([H])([H])C([H])(n5nc(-c6c([H])c([H])c(Oc7c([H])c([H])c(F)c([H])c7F)c([H])c6[H])c(C(=O)N([H])[H])c5N([H])[H])C4([H])[H])C([H])([H])[H])[n+]3[H])c([H])c([H])c2C1([H])[H]

$$$$
10:0:0
     RDKit          3D

 87 95  0  0  1  0  0  0  0  0999 V2000
  -29.7810  -20.1010   19.4710 C   0  0  0  0  0  3  0  0  0  0  0  0
  -28.8260  -20.5000   21.2790 C   0  0  0  0  0  3  0  0  0  0  0  0
  -29.6990  -18.7450   20.0490 C   0  0  0  0  0  0  0  0  0  0  0  0
  -29.0350  -19.1360   21.2390 N   0  0  0  0  0  0  0  0  0  0  0  0
  -29.2190  -21.2740   20.2300 N   0  0  0  0  0  0  0  0  0  0  0  0
  -30.7100  -17.3960   18.1340 C   0  0  0  0  0  1  0  0  0  0  0  0
  -28.4670  -16.8210   18.9000 C   0  0  0  0  0  1  0  0  0  0  0  0
  -29.8780  -17.1060   19.4080 C   0  0  2  0  0  0  0  0  0  0  0  0
  -30.5680  -15.5060   19.8660 C   0  0  0  0  0  0  0  0  0  0  0  0
  -30.4730  -13.0400   19.0360 C   0  0  0  0  0  2  0  0  0  0  0  0
  -29.4920  -12.8030   17.8600 C   0  0  0  0  0  2  0  0  0  0  0  0
  -28.0740  -12.5080   18.3780 C   0  0  0  0  0  2  0  0  0  0  0  0
  -27.6620  -13.4800   19.5090 C   0  0  0  0  0  3  0  0  0  0  0  0
  -28.7700  -13.7050   20.5610 C   0  0  0  0  0  2  0  0  0  0  0  0
  -29.9710  -14.2030   19.8580 N   0  0  0  0  0  0  0  0  0  0  0  0
  -31.8040  -15.4000   19.8050 O   0  0  0  0  0  0  0  0  0  0  0  0
  -25.3530  -14.0710   20.4070 C   0  0  0  0  0  0  0  0  0  0  0  0
  -24.2960  -13.3070   20.8070 C   0  0  0  0  0  0  0  0  0  0  0  0
  -24.7370  -11.9510   20.7190 C   0  0  0  0  0  0  0  0  0  0  0  0
  -26.3660  -13.1810   20.0920 N   0  0  0  0  0  0  0  0  0  0  0  0
  -26.0110  -11.8990   20.3480 N   0  0  0  0  0  0  0  0  0  0  0  0
  -23.9970  -10.7000   20.9080 C   0  0  0  0  0  0  0  0  0  0  0  0
  -24.4390   -9.7130   21.8170 C   0  0  0  0  0  3  0  0  0  0  0  0
  -23.6980   -8.5260   21.9970 C   0  0  0  0  0  3  0  0  0  0  0  0
  -22.5020   -8.3180   21.2690 C   0  0  0  0  0  0  0  0  0  0  0  0
  -22.0800   -9.2930   20.3480 C   0  0  0  0  0  3  0  0  0  0  0  0
  -22.8210  -10.4730   20.1650 C   0  0  0  0  0  3  0  0  0  0  0  0
  -21.7310   -7.1860   21.3620 O   0  0  0  0  0  0  0  0  0  0  0  0
  -21.6810   -6.4420   22.5140 C   0  0  0  0  0  0  0  0  0  0  0  0
  -21.2160   -6.9850   23.7310 C   0  0  0  0  0  3  0  0  0  0  0  0
  -21.1160   -6.1670   24.8740 C   0  0  0  0  0  3  0  0  0  0  0  0
  -21.4710   -4.8060   24.7990 C   0  0  0  0  0  0  0  0  0  0  0  0
  -21.9310   -4.2630   23.5860 C   0  0  0  0  0  3  0  0  0  0  0  0
  -22.0330   -5.0790   22.4460 C   0  0  0  0  0  0  0  0  0  0  0  0
  -22.4560   -4.5460   21.2740 F   0  0  0  0  0  0  0  0  0  0  0  0
  -21.3670   -4.0170   25.8940 F   0  0  0  0  0  0  0  0  0  0  0  0
  -22.9220  -13.8040   21.1490 C   0  0  0  0  0  0  0  0  0  0  0  0
  -22.2260  -13.1100   22.0410 N   0  0  0  0  0  0  0  0  0  0  0  0
  -22.4780  -14.8420   20.6600 O   0  0  0  0  0  0  0  0  0  0  0  0
  -22.6010  -12.2710   22.4570 H   0  0  0  0  0  0  0  0  0  0  0  0
  -21.3050  -13.4230   22.3130 H   0  0  0  0  0  0  0  0  0  0  0  0
  -25.5170  -15.4430   20.2530 N   0  0  0  0  0  0  0  0  0  0  0  0
  -24.7590  -16.0960   20.4200 H   0  0  0  0  0  0  0  0  0  0  0  0
  -26.3450  -15.8860   19.8790 H   0  0  0  0  0  0  0  0  0  0  0  0
  -29.2580  -22.9530   20.0290 C   0  0  0  0  0  3  0  0  0  0  0  0
  -28.1340  -24.3470   20.2640 C   0  0  0  0  0  3  0  0  0  0  0  0
  -28.3190  -25.9950   20.2250 O   0  0  0  0  0  0  0  0  0  0  0  0
  -24.6510  -31.8810   23.2540 C   0  0  0  0  0  0  0  0  0  0  0  0
  -27.2740  -27.0640   20.2000 C   0  0  0  0  0  0  0  0  0  0  0  0
  -23.4750  -30.4900   21.5980 C   0  0  0  0  0  3  0  0  0  0  0  0
  -24.9460  -28.9130   20.1660 C   0  0  0  0  0  0  0  0  0  0  0  0
  -26.0400  -30.7330   21.4580 C   0  0  0  0  0  2  0  0  0  0  0  0
  -26.1280  -29.3300   20.7890 C   0  0  0  0  0  0  0  0  0  0  0  0
  -27.2860  -28.4280   20.7770 C   0  0  0  0  0  3  0  0  0  0  0  0
  -26.0550  -26.7960   19.5340 C   0  0  0  0  0  3  0  0  0  0  0  0
  -24.9340  -27.6680   19.5180 C   0  0  0  0  0  3  0  0  0  0  0  0
  -23.7150  -29.8200   20.2170 C   0  0  0  0  0  2  0  0  0  0  0  0
  -24.7440  -31.0610   22.1580 N   0  0  0  0  0  0  0  0  0  0  0  0
  -23.5570  -32.1540   23.7760 O   0  0  0  0  0  0  0  0  0  0  0  0
  -22.7890  -29.4780   22.5540 C   0  0  0  0  0  0  0  0  0  0  0  0
  -21.4620  -29.2950   22.4180 N   0  0  0  0  0  0  0  0  0  0  0  0
  -23.4580  -28.8580   23.3840 O   0  0  0  0  0  0  0  0  0  0  0  0
  -20.9760  -29.8480   21.7260 H   0  0  0  0  0  0  0  0  0  0  0  0
  -18.0920  -28.0440   22.9070 C   0  0  0  0  0  0  0  0  0  0  0  0
  -20.6480  -28.3390   23.1760 C   0  0  0  0  0  3  0  0  0  0  0  0
  -20.7680  -26.9160   22.5860 C   0  0  0  0  0  2  0  0  0  0  0  0
  -19.6710  -26.5910   21.5670 C   0  0  0  0  0  2  0  0  0  0  0  0
  -18.2870  -26.7070   22.2100 C   0  0  0  0  0  2  0  0  0  0  0  0
  -19.2000  -28.8170   23.3460 C   0  0  0  0  0  0  0  0  0  0  0  0
  -18.9610  -30.0660   23.9600 C   0  0  0  0  0  3  0  0  0  0  0  0
  -17.6480  -30.5430   24.1370 C   0  0  0  0  0  3  0  0  0  0  0  0
  -16.5560  -29.7670   23.7110 C   0  0  0  0  0  3  0  0  0  0  0  0
  -16.7780  -28.5190   23.1030 C   0  0  0  0  0  3  0  0  0  0  0  0
  -25.9130  -32.5320   23.8970 C   0  0  0  0  0  3  0  0  0  0  0  0
  -26.3850  -31.7940   25.2120 C   0  0  1  0  0  0  0  0  0  0  0  0
  -25.2600  -31.5940   26.2550 C   0  0  0  0  0  1  0  0  0  0  0  0
  -26.9720  -30.4020   24.8850 C   0  0  0  0  0  1  0  0  0  0  0  0
  -27.5210  -32.6020   25.8850 C   0  0  0  0  0  1  0  0  0  0  0  0
  -25.5980  -33.9400   24.1920 N   0  0  0  0  0  0  0  0  0  0  0  0
  -25.9490  -34.9830   23.4280 C   0  0  0  0  0  0  0  0  0  0  0  0
  -26.6350  -34.8600   22.4110 O   0  0  0  0  0  0  0  0  0  0  0  0
  -24.9890  -34.1080   24.9800 H   0  0  0  0  0  0  0  0  0  0  0  0
  -24.2490  -36.7960   23.0180 C   0  0  0  0  0  1  0  0  0  0  0  0
  -25.4680  -36.3840   23.8600 C   0  0  0  0  0  3  0  0  0  0  0  0
  -27.5830  -37.2710   24.7380 C   0  0  0  0  0  1  0  0  0  0  0  0
  -26.5130  -37.4270   23.7570 N   0  0  0  0  0  0  0  0  0  0  0  0
  -26.1110  -38.3520   23.8690 H   0  0  0  0  0  0  0  0  0  0  0  0
  1  3  2  0
  1  5  1  0
  3  4  1  0
  4  2  2  0
  5  2  1  0
  8  6  1  6
  7  8  1  0
  8  9  1  0
  8  3  1  0
 10 15  1  0
 11 12  1  0
 11 10  1  0
 13 12  1  0
 13 20  1  0
 13 14  1  0
 15  9  1  0
 15 14  1  0
 16  9  2  0
 17 18  2  0
 18 37  1  0
 19 18  1  0
 19 22  1  0
 20 21  1  0
 20 17  1  0
 21 19  2  0
 22 23  1  0
 23 24  2  0
 25 28  1  0
 25 24  1  0
 26 25  2  0
 27 26  1  0
 27 22  2  0
 28 29  1  0
 29 30  1  0
 30 31  2  0
 32 31  1  0
 32 36  1  0
 33 32  2  0
 34 29  2  0
 34 33  1  0
 35 34  1  0
 37 38  1  0
 38 41  1  0
 38 40  1  0
 39 37  2  0
 42 17  1  0
 42 43  1  0
 44 42  1  0
 45  5  1  0
 45 46  2  0
 47 46  1  0
 48 59  2  0
 49 47  1  0
 49 54  1  0
 50 58  1  0
 50 60  1  0
 51 57  1  0
 51 53  1  0
 52 58  1  0
 53 52  1  0
 54 53  2  0
 55 49  2  0
 56 55  1  0
 56 51  2  0
 57 50  1  0
 58 48  1  0
 60 62  2  0
 61 60  1  0
 63 61  1  0
 64 73  2  0
 64 69  1  0
 65 61  1  0
 65 69  1  0
 66 65  1  0
 67 68  1  0
 67 66  1  0
 68 64  1  0
 69 70  2  0
 70 71  1  0
 72 71  2  0
 73 72  1  0
 74 48  1  0
 74 79  1  0
 74 75  1  0
 75 78  1  1
 75 76  1  0
 77 75  1  0
 79 82  1  0
 80 84  1  0
 80 79  1  0
 81 80  2  0
 84 83  1  0
 86 84  1  0
 86 87  1  0
 86 85  1  0
M  ISO  4   8 100   9 100  46 101  47 101
M  END
>  <TORSDO>  (11) 
F 19

>  <SCORE>  (11) 
-15.894

>  <name>  (11) 
10

>  <ligand_id>  (11) 
10

>  <original_smiles>  (11) 
[H]c1c([H])c([H])c2c(c1[H])C([H])([H])C([H])([H])C([H])([H])C2([H])N([H])C(=O)C1([H])N(C(=O)C([H])(N([H])C(=O)C([H])(N([H])C([H])([H])[H])C([H])([H])[H])C(C([H])([H])[H])(C([H])([H])[H])C([H])([H])[H])C([H])([H])c2c([H])c(OC([H])([H])C([H])([H])n3c([H])nc(C(C(=O)N4C([H])([H])C([H])([H])C([H])([H])C([H])(n5nc(-c6c([H])c([H])c(Oc7c([H])c([H])c(F)c([H])c7F)c([H])c6[H])c(C(=O)N([H])[H])c5N([H])[H])C4([H])[H])(C([H])([H])[H])C([H])([H])[H])c3[H])c([H])c([H])c2C1([H])[H]

>  <smiles>  (11) 
[H]c1c([H])c([H])c2c(c1[H])C([H])([H])C([H])([H])C([H])([H])C2([H])N([H])C(=O)C1([H])N(C(=O)C([H])(N([H])C(=O)C([H])(N([H])C([H])([H])[H])C([H])([H])[H])C(C([H])([H])[H])(C([H])([H])[H])C([H])([H])[H])C([H])([H])c2c([H])c(OC([H])([H])C([H])([H])n3c([H])nc(C(C(=O)N4C([H])([H])C([H])([H])C([H])([H])C([H])(n5nc(-c6c([H])c([H])c(Oc7c([H])c([H])c(F)c([H])c7F)c([H])c6[H])c(C(=O)N([H])[H])c5N([H])[H])C4([H])[H])(C([H])([H])[H])C([H])([H])[H])c3[H])c([H])c([H])c2C1([H])[H]

$$$$
11:0:0
     RDKit          3D

 91 99  0  0  1  0  0  0  0  0999 V2000
  -28.4860  -19.9850   20.7300 C   0  0  0  0  0  3  0  0  0  0  0  0
  -30.8400  -20.1480   20.9990 C   0  0  0  0  0  3  0  0  0  0  0  0
  -29.7380  -19.3560   20.6290 C   0  0  0  0  0  0  0  0  0  0  0  0
  -29.4550  -21.9170   21.4780 C   0  0  0  0  0  0  0  0  0  0  0  0
  -28.3530  -21.2570   21.1530 N   0  0  0  0  0  0  0  0  0  0  0  0
  -30.6920  -21.4280   21.4120 N   0  0  0  0  0  0  0  0  0  0  0  0
  -30.6680  -17.8390   18.8210 C   0  0  0  0  0  1  0  0  0  0  0  0
  -29.8460  -17.9110   20.1190 C   0  0  0  0  0  3  0  0  0  0  0  0
  -30.3390  -16.9130   21.2030 C   0  0  0  0  0  2  0  0  0  0  0  0
  -30.6670  -14.5060   20.4560 C   0  0  0  0  0  0  0  0  0  0  0  0
  -30.3620  -12.3510   19.2870 C   0  0  0  0  0  2  0  0  0  0  0  0
  -29.4030  -12.5550   18.0950 C   0  0  0  0  0  2  0  0  0  0  0  0
  -27.9350  -12.4200   18.5450 C   0  0  0  0  0  2  0  0  0  0  0  0
  -27.6100  -13.2550   19.8150 C   0  0  0  0  0  3  0  0  0  0  0  0
  -28.6780  -13.0260   20.9080 C   0  0  0  0  0  2  0  0  0  0  0  0
  -29.9960  -13.3310   20.3210 N   0  0  0  0  0  0  0  0  0  0  0  0
  -31.8090  -14.6850   20.0290 O   0  0  0  0  0  0  0  0  0  0  0  0
  -29.9350  -15.5210   20.9520 N   0  0  0  0  0  0  0  0  0  0  0  0
  -28.9870  -15.2790   21.2000 H   0  0  0  0  0  0  0  0  0  0  0  0
  -25.2130  -13.8640   20.5370 C   0  0  0  0  0  0  0  0  0  0  0  0
  -24.1450  -13.0920   20.9100 C   0  0  0  0  0  0  0  0  0  0  0  0
  -24.6060  -11.7410   20.8780 C   0  0  0  0  0  0  0  0  0  0  0  0
  -26.2570  -12.9820   20.3030 N   0  0  0  0  0  0  0  0  0  0  0  0
  -25.8950  -11.7000   20.5670 N   0  0  0  0  0  0  0  0  0  0  0  0
  -23.8790  -10.4790   21.0680 C   0  0  0  0  0  0  0  0  0  0  0  0
  -24.3210   -9.5040   21.9910 C   0  0  0  0  0  3  0  0  0  0  0  0
  -23.5930   -8.3070   22.1700 C   0  0  0  0  0  3  0  0  0  0  0  0
  -22.4100   -8.0770   21.4260 C   0  0  0  0  0  0  0  0  0  0  0  0
  -21.9880   -9.0430   20.4950 C   0  0  0  0  0  3  0  0  0  0  0  0
  -22.7170  -10.2290   20.3140 C   0  0  0  0  0  3  0  0  0  0  0  0
  -21.6530   -6.9340   21.5180 O   0  0  0  0  0  0  0  0  0  0  0  0
  -21.6260   -6.1760   22.6620 C   0  0  0  0  0  0  0  0  0  0  0  0
  -21.2380   -6.7200   23.9070 C   0  0  0  0  0  3  0  0  0  0  0  0
  -21.1570   -5.8890   25.0430 C   0  0  0  0  0  3  0  0  0  0  0  0
  -21.4580   -4.5180   24.9360 C   0  0  0  0  0  0  0  0  0  0  0  0
  -21.8390   -3.9740   23.6970 C   0  0  0  0  0  3  0  0  0  0  0  0
  -21.9200   -4.8020   22.5630 C   0  0  0  0  0  0  0  0  0  0  0  0
  -22.2680   -4.2700   21.3660 F   0  0  0  0  0  0  0  0  0  0  0  0
  -21.3710   -3.7170   26.0240 F   0  0  0  0  0  0  0  0  0  0  0  0
  -22.7490  -13.5700   21.1880 C   0  0  0  0  0  0  0  0  0  0  0  0
  -22.0220  -12.8710   22.0540 N   0  0  0  0  0  0  0  0  0  0  0  0
  -22.3090  -14.5940   20.6700 O   0  0  0  0  0  0  0  0  0  0  0  0
  -22.3900  -12.0400   22.4930 H   0  0  0  0  0  0  0  0  0  0  0  0
  -21.0860  -13.1720   22.2820 H   0  0  0  0  0  0  0  0  0  0  0  0
  -25.3710  -15.2340   20.3590 N   0  0  0  0  0  0  0  0  0  0  0  0
  -24.6000  -15.8800   20.4720 H   0  0  0  0  0  0  0  0  0  0  0  0
  -26.2090  -15.6790   20.0040 H   0  0  0  0  0  0  0  0  0  0  0  0
  -29.2550  -23.3580   21.9540 C   0  0  0  0  0  2  0  0  0  0  0  0
  -29.0500  -24.3800   20.8060 C   0  0  0  0  0  2  0  0  0  0  0  0
  -28.5500  -25.7630   21.2870 C   0  0  0  0  0  2  0  0  0  0  0  0
  -28.4390  -26.7000   20.2010 O   0  0  0  0  0  0  0  0  0  0  0  0
  -24.6010  -31.8830   23.2390 C   0  0  0  0  0  0  0  0  0  0  0  0
  -27.2810  -27.4440   20.2010 C   0  0  0  0  0  0  0  0  0  0  0  0
  -23.4080  -30.4720   21.5940 C   0  0  0  0  0  3  0  0  0  0  0  0
  -24.8790  -28.9340   20.1840 C   0  0  0  0  0  0  0  0  0  0  0  0
  -25.9340  -30.8420   21.4080 C   0  0  0  0  0  2  0  0  0  0  0  0
  -26.0310  -29.4690   20.7760 C   0  0  0  0  0  0  0  0  0  0  0  0
  -27.2360  -28.7290   20.7870 C   0  0  0  0  0  3  0  0  0  0  0  0
  -26.1180  -26.9190   19.6010 C   0  0  0  0  0  3  0  0  0  0  0  0
  -24.9150  -27.6550   19.5970 C   0  0  0  0  0  3  0  0  0  0  0  0
  -23.6290  -29.7870   20.2180 C   0  0  0  0  0  2  0  0  0  0  0  0
  -24.6650  -31.0820   22.1380 N   0  0  0  0  0  0  0  0  0  0  0  0
  -23.5180  -32.1570   23.7710 O   0  0  0  0  0  0  0  0  0  0  0  0
  -22.7570  -29.4550   22.5600 C   0  0  0  0  0  0  0  0  0  0  0  0
  -21.4330  -29.2740   22.4300 N   0  0  0  0  0  0  0  0  0  0  0  0
  -23.4390  -28.8270   23.3750 O   0  0  0  0  0  0  0  0  0  0  0  0
  -20.9440  -29.8270   21.7400 H   0  0  0  0  0  0  0  0  0  0  0  0
  -18.0540  -28.0910   22.9380 C   0  0  0  0  0  0  0  0  0  0  0  0
  -20.6160  -28.3380   23.2010 C   0  0  0  0  0  3  0  0  0  0  0  0
  -20.7110  -26.9090   22.6190 C   0  0  0  0  0  2  0  0  0  0  0  0
  -19.6040  -26.5970   21.6070 C   0  0  0  0  0  2  0  0  0  0  0  0
  -18.2230  -26.7440   22.2550 C   0  0  0  0  0  2  0  0  0  0  0  0
  -19.1780  -28.8460   23.3670 C   0  0  0  0  0  0  0  0  0  0  0  0
  -18.9670  -30.1080   23.9630 C   0  0  0  0  0  3  0  0  0  0  0  0
  -17.6650  -30.6140   24.1360 C   0  0  0  0  0  3  0  0  0  0  0  0
  -16.5560  -29.8560   23.7220 C   0  0  0  0  0  3  0  0  0  0  0  0
  -16.7520  -28.5960   23.1290 C   0  0  0  0  0  3  0  0  0  0  0  0
  -25.8820  -32.5170   23.8650 C   0  0  0  0  0  3  0  0  0  0  0  0
  -25.5680  -33.9150   24.1850 N   0  0  0  0  0  0  0  0  0  0  0  0
  -25.9080  -34.9650   23.4250 C   0  0  0  0  0  0  0  0  0  0  0  0
  -26.5930  -34.8600   22.4030 O   0  0  0  0  0  0  0  0  0  0  0  0
  -24.9570  -34.0720   24.9720 H   0  0  0  0  0  0  0  0  0  0  0  0
  -24.1820  -36.7580   23.0520 C   0  0  0  0  0  1  0  0  0  0  0  0
  -25.4150  -36.3540   23.8750 C   0  0  0  0  0  3  0  0  0  0  0  0
  -27.5440  -37.2410   24.7190 C   0  0  0  0  0  1  0  0  0  0  0  0
  -26.4440  -37.4110   23.7710 N   0  0  0  0  0  0  0  0  0  0  0  0
  -26.0340  -38.3260   23.9270 H   0  0  0  0  0  0  0  0  0  0  0  0
  -26.3970  -31.7480   25.1420 C   0  0  1  0  0  0  0  0  0  0  0  0
  -25.2990  -31.5070   26.2040 C   0  0  0  0  0  1  0  0  0  0  0  0
  -26.9860  -30.3720   24.7510 C   0  0  0  0  0  1  0  0  0  0  0  0
  -27.5490  -32.5460   25.8010 C   0  0  0  0  0  1  0  0  0  0  0  0
  1  5  1  0
  2  6  2  0
  3  1  2  0
  3  2  1  0
  4 48  1  0
  5  4  2  0
  6  4  1  0
  8  7  1  0
  8  3  1  0
  8  9  1  0
 10 18  1  0
 11 16  1  0
 12 13  1  0
 12 11  1  0
 14 13  1  0
 14 23  1  0
 14 15  1  0
 16 10  1  0
 16 15  1  0
 17 10  2  0
 18 19  1  0
 18  9  1  0
 20 21  2  0
 21 40  1  0
 22 21  1  0
 22 25  1  0
 23 20  1  0
 23 24  1  0
 24 22  2  0
 25 26  1  0
 26 27  2  0
 28 31  1  0
 28 27  1  0
 29 28  2  0
 30 29  1  0
 30 25  2  0
 31 32  1  0
 32 33  1  0
 33 34  2  0
 35 34  1  0
 35 39  1  0
 36 35  2  0
 37 32  2  0
 37 36  1  0
 38 37  1  0
 40 41  1  0
 41 44  1  0
 41 43  1  0
 42 40  2  0
 45 46  1  0
 45 20  1  0
 47 45  1  0
 49 50  1  0
 49 48  1  0
 51 50  1  0
 52 63  2  0
 53 51  1  0
 53 58  1  0
 54 62  1  0
 54 64  1  0
 55 61  1  0
 55 57  1  0
 56 62  1  0
 57 58  2  0
 57 56  1  0
 59 53  2  0
 60 59  1  0
 60 55  2  0
 61 54  1  0
 62 52  1  0
 64 66  2  0
 65 64  1  0
 67 65  1  0
 68 77  2  0
 68 73  1  0
 69 65  1  0
 69 73  1  0
 70 69  1  0
 71 72  1  0
 71 70  1  0
 72 68  1  0
 73 74  2  0
 74 75  1  0
 76 75  2  0
 77 76  1  0
 78 52  1  0
 78 79  1  0
 78 88  1  0
 79 82  1  0
 80 84  1  0
 80 79  1  0
 81 80  2  0
 84 83  1  0
 86 84  1  0
 86 87  1  0
 86 85  1  0
 88 91  1  1
 88 89  1  0
 90 88  1  0
M  ISO  4  10 100  18 100  50 101  51 101
M  END
>  <TORSDO>  (12) 
F 21

>  <SCORE>  (12) 
-13.787

>  <name>  (12) 
11

>  <ligand_id>  (12) 
11

>  <original_smiles>  (12) 
[H]c1nc(C([H])([H])C([H])([H])C([H])([H])Oc2c([H])c([H])c3c(c2[H])C([H])([H])N(C(=O)C([H])(N([H])C(=O)C([H])(N([H])C([H])([H])[H])C([H])([H])[H])C(C([H])([H])[H])(C([H])([H])[H])C([H])([H])[H])C([H])(C(=O)N([H])C2([H])c4c([H])c([H])c([H])c([H])c4C([H])([H])C([H])([H])C2([H])[H])C3([H])[H])nc([H])c1C([H])(C([H])([H])[H])C([H])([H])N([H])C(=O)N1C([H])([H])C([H])([H])C([H])([H])C([H])(n2nc(-c3c([H])c([H])c(Oc4c([H])c([H])c(F)c([H])c4F)c([H])c3[H])c(C(=O)N([H])[H])c2N([H])[H])C1([H])[H]

>  <smiles>  (12) 
[H]c1nc(C([H])([H])C([H])([H])C([H])([H])Oc2c([H])c([H])c3c(c2[H])C([H])([H])N(C(=O)C([H])(N([H])C(=O)C([H])(N([H])C([H])([H])[H])C([H])([H])[H])C(C([H])([H])[H])(C([H])([H])[H])C([H])([H])[H])C([H])(C(=O)N([H])C2([H])c4c([H])c([H])c([H])c([H])c4C([H])([H])C([H])([H])C2([H])[H])C3([H])[H])nc([H])c1C([H])(C([H])([H])[H])C([H])([H])N([H])C(=O)N1C([H])([H])C([H])([H])C([H])([H])C([H])(n2nc(-c3c([H])c([H])c(Oc4c([H])c([H])c(F)c([H])c4F)c([H])c3[H])c(C(=O)N([H])[H])c2N([H])[H])C1([H])[H]

$$$$
12:0:0
     RDKit          3D

 92101  0  0  1  0  0  0  0  0999 V2000
  -29.4540  -22.5820   19.1960 C   0  0  0  0  0  2  0  0  0  0  0  0
  -27.5040  -22.4180   20.6970 C   0  0  0  0  0  2  0  0  0  0  0  0
  -29.6090  -24.1030   19.6390 C   0  0  0  0  0  2  0  0  0  0  0  0
  -27.6900  -23.9260   21.1160 C   0  0  0  0  0  2  0  0  0  0  0  0
  -28.7540  -21.5850   20.1940 C   0  0  0  0  0  3  0  0  0  0  0  0
  -28.2740  -24.8350   19.9990 C   0  0  0  0  0  3  0  0  0  0  0  0
  -26.9080  -19.7030   19.9140 C   0  0  0  0  0  1  0  0  0  0  0  0
  -28.3630  -20.1110   19.5780 C   0  0  0  0  0  3  0  0  0  0  0  0
  -29.7250  -16.7710   20.9170 C   0  0  0  0  0  3  0  0  0  0  0  0
  -30.1320  -16.0390   19.7570 C   0  0  0  0  0  0  0  0  0  0  0  0
  -29.6840  -18.0380   18.5390 C   0  0  0  0  0  0  0  0  0  0  0  0
  -29.2280  -18.7590   19.6900 C   0  0  0  0  0  0  0  0  0  0  0  0
  -29.6760  -18.6600   17.1560 C   0  0  0  0  0  1  0  0  0  0  0  0
  -29.2870  -18.0860   20.8860 N   0  0  0  0  0  0  0  0  0  0  0  0
  -30.1260  -16.7370   18.5790 N   0  0  0  0  0  0  0  0  0  0  0  0
  -30.8320  -14.6380   19.7670 C   0  0  0  0  0  0  0  0  0  0  0  0
  -30.5120  -12.3050   18.9630 C   0  0  0  0  0  2  0  0  0  0  0  0
  -29.5240  -12.3240   17.7770 C   0  0  0  0  0  2  0  0  0  0  0  0
  -28.0760  -12.2010   18.2880 C   0  0  0  0  0  2  0  0  0  0  0  0
  -27.7720  -13.1790   19.4560 C   0  0  0  0  0  3  0  0  0  0  0  0
  -28.8840  -13.1780   20.5240 C   0  0  0  0  0  2  0  0  0  0  0  0
  -30.1590  -13.4390   19.8510 N   0  0  0  0  0  0  0  0  0  0  0  0
  -32.0120  -14.6310   19.3990 O   0  0  0  0  0  0  0  0  0  0  0  0
  -25.4840  -13.8440   20.4000 C   0  0  0  0  0  0  0  0  0  0  0  0
  -24.4140  -13.1080   20.8240 C   0  0  0  0  0  0  0  0  0  0  0  0
  -24.8050  -11.7380   20.7090 C   0  0  0  0  0  0  0  0  0  0  0  0
  -26.4600  -12.9290   20.0450 N   0  0  0  0  0  0  0  0  0  0  0  0
  -26.0650  -11.6530   20.2960 N   0  0  0  0  0  0  0  0  0  0  0  0
  -24.0330  -10.5050   20.9130 C   0  0  0  0  0  0  0  0  0  0  0  0
  -24.4400   -9.5210   21.8410 C   0  0  0  0  0  3  0  0  0  0  0  0
  -23.6690   -8.3530   22.0320 C   0  0  0  0  0  3  0  0  0  0  0  0
  -22.4770   -8.1600   21.2930 C   0  0  0  0  0  0  0  0  0  0  0  0
  -22.0890   -9.1310   20.3520 C   0  0  0  0  0  3  0  0  0  0  0  0
  -22.8600  -10.2910   20.1600 C   0  0  0  0  0  3  0  0  0  0  0  0
  -21.6800   -7.0460   21.3910 O   0  0  0  0  0  0  0  0  0  0  0  0
  -21.5520   -6.3550   22.5700 C   0  0  0  0  0  0  0  0  0  0  0  0
  -21.0620   -6.9680   23.7430 C   0  0  0  0  0  3  0  0  0  0  0  0
  -20.8810   -6.2030   24.9130 C   0  0  0  0  0  3  0  0  0  0  0  0
  -21.1780   -4.8280   24.9090 C   0  0  0  0  0  0  0  0  0  0  0  0
  -21.6610   -4.2150   23.7390 C   0  0  0  0  0  3  0  0  0  0  0  0
  -21.8430   -4.9770   22.5720 C   0  0  0  0  0  0  0  0  0  0  0  0
  -22.2880   -4.3760   21.4420 F   0  0  0  0  0  0  0  0  0  0  0  0
  -20.9970   -4.0910   26.0310 F   0  0  0  0  0  0  0  0  0  0  0  0
  -23.0680  -13.6390   21.2230 C   0  0  0  0  0  0  0  0  0  0  0  0
  -22.3780  -12.9480   22.1230 N   0  0  0  0  0  0  0  0  0  0  0  0
  -22.6420  -14.7000   20.7700 O   0  0  0  0  0  0  0  0  0  0  0  0
  -22.7370  -12.0860   22.5090 H   0  0  0  0  0  0  0  0  0  0  0  0
  -21.4770  -13.2860   22.4330 H   0  0  0  0  0  0  0  0  0  0  0  0
  -25.7060  -15.2120   20.2610 N   0  0  0  0  0  0  0  0  0  0  0  0
  -24.9880  -15.9000   20.4630 H   0  0  0  0  0  0  0  0  0  0  0  0
  -26.5550  -15.6220   19.8940 H   0  0  0  0  0  0  0  0  0  0  0  0
  -28.3690  -26.2990   20.3430 O   0  0  0  0  0  0  0  0  0  0  0  0
  -24.4930  -31.7150   23.2300 C   0  0  0  0  0  0  0  0  0  0  0  0
  -27.2450  -27.1550   20.2590 C   0  0  0  0  0  0  0  0  0  0  0  0
  -23.3650  -30.3170   21.5390 C   0  0  0  0  0  3  0  0  0  0  0  0
  -24.8800  -28.7870   20.1600 C   0  0  0  0  0  0  0  0  0  0  0  0
  -25.9110  -30.6470   21.4560 C   0  0  0  0  0  2  0  0  0  0  0  0
  -26.0250  -29.2700   20.8040 C   0  0  0  0  0  0  0  0  0  0  0  0
  -27.2110  -28.4680   20.8400 C   0  0  0  0  0  3  0  0  0  0  0  0
  -26.0710  -26.7400   19.5880 C   0  0  0  0  0  3  0  0  0  0  0  0
  -24.9090  -27.5290   19.5410 C   0  0  0  0  0  3  0  0  0  0  0  0
  -23.6390  -29.6570   20.1630 C   0  0  0  0  0  2  0  0  0  0  0  0
  -24.6080  -30.9110   22.1320 N   0  0  0  0  0  0  0  0  0  0  0  0
  -23.3890  -31.9800   23.7240 O   0  0  0  0  0  0  0  0  0  0  0  0
  -22.6760  -29.2870   22.4670 C   0  0  0  0  0  0  0  0  0  0  0  0
  -21.3520  -29.1200   22.3090 N   0  0  0  0  0  0  0  0  0  0  0  0
  -23.3330  -28.6440   23.2890 O   0  0  0  0  0  0  0  0  0  0  0  0
  -20.8820  -29.6910   21.6220 H   0  0  0  0  0  0  0  0  0  0  0  0
  -17.9480  -27.9750   22.7580 C   0  0  0  0  0  0  0  0  0  0  0  0
  -20.5110  -28.1760   23.0470 C   0  0  0  0  0  3  0  0  0  0  0  0
  -20.5870  -26.7600   22.4280 C   0  0  0  0  0  2  0  0  0  0  0  0
  -19.4840  -26.4910   21.4010 C   0  0  0  0  0  2  0  0  0  0  0  0
  -18.1020  -26.6440   22.0420 C   0  0  0  0  0  2  0  0  0  0  0  0
  -19.0800  -28.7010   23.2160 C   0  0  0  0  0  0  0  0  0  0  0  0
  -18.8830  -29.9490   23.8460 C   0  0  0  0  0  3  0  0  0  0  0  0
  -17.5870  -30.4700   24.0230 C   0  0  0  0  0  3  0  0  0  0  0  0
  -16.4700  -29.7410   23.5810 C   0  0  0  0  0  3  0  0  0  0  0  0
  -16.6520  -28.4950   22.9540 C   0  0  0  0  0  3  0  0  0  0  0  0
  -25.7450  -32.3560   23.9030 C   0  0  0  0  0  3  0  0  0  0  0  0
  -25.4160  -33.7560   24.2100 N   0  0  0  0  0  0  0  0  0  0  0  0
  -25.7650  -34.8050   23.4540 C   0  0  0  0  0  0  0  0  0  0  0  0
  -26.4680  -34.6980   22.4450 O   0  0  0  0  0  0  0  0  0  0  0  0
  -24.7970  -33.9120   24.9920 H   0  0  0  0  0  0  0  0  0  0  0  0
  -24.0410  -36.5870   23.0280 C   0  0  0  0  0  1  0  0  0  0  0  0
  -25.2540  -36.1940   23.8850 C   0  0  0  0  0  3  0  0  0  0  0  0
  -27.3500  -37.1010   24.7900 C   0  0  0  0  0  1  0  0  0  0  0  0
  -26.2850  -37.2520   23.8010 N   0  0  0  0  0  0  0  0  0  0  0  0
  -25.8680  -38.1710   23.9210 H   0  0  0  0  0  0  0  0  0  0  0  0
  -26.2050  -31.5980   25.2080 C   0  0  1  0  0  0  0  0  0  0  0  0
  -25.0630  -31.3540   26.2220 C   0  0  0  0  0  1  0  0  0  0  0  0
  -26.8200  -30.2240   24.8550 C   0  0  0  0  0  1  0  0  0  0  0  0
  -27.3130  -32.4070   25.9230 C   0  0  0  0  0  1  0  0  0  0  0  0
  1  3  1  0
  1  5  1  0
  2  4  1  0
  3  6  1  0
  5  8  1  0
  5  2  1  0
  6 52  1  0
  6  4  1  0
  8 12  1  0
  8  7  1  0
 10 16  1  0
 10  9  2  0
 11 15  2  0
 11 12  1  0
 12 14  2  0
 13 11  1  0
 14  9  1  0
 15 10  1  0
 16 22  1  0
 17 22  1  0
 18 19  1  0
 18 17  1  0
 20 19  1  0
 20 27  1  0
 20 21  1  0
 22 21  1  0
 23 16  2  0
 24 25  2  0
 25 44  1  0
 26 25  1  0
 26 29  1  0
 27 28  1  0
 27 24  1  0
 28 26  2  0
 29 30  1  0
 30 31  2  0
 32 35  1  0
 32 31  1  0
 33 32  2  0
 34 33  1  0
 34 29  2  0
 35 36  1  0
 36 41  2  0
 36 37  1  0
 37 38  2  0
 39 38  1  0
 39 43  1  0
 40 39  2  0
 41 40  1  0
 42 41  1  0
 44 45  1  0
 45 48  1  0
 45 47  1  0
 46 44  2  0
 49 24  1  0
 49 50  1  0
 51 49  1  0
 53 64  2  0
 54 52  1  0
 54 59  1  0
 55 63  1  0
 55 65  1  0
 56 62  1  0
 56 58  1  0
 57 63  1  0
 58 59  2  0
 58 57  1  0
 60 54  2  0
 61 60  1  0
 61 56  2  0
 62 55  1  0
 63 53  1  0
 65 67  2  0
 66 65  1  0
 68 66  1  0
 69 78  2  0
 69 74  1  0
 70 66  1  0
 70 74  1  0
 71 70  1  0
 72 73  1  0
 72 71  1  0
 73 69  1  0
 74 75  2  0
 75 76  1  0
 77 76  2  0
 78 77  1  0
 79 53  1  0
 79 80  1  0
 79 89  1  0
 80 83  1  0
 81 85  1  0
 81 80  1  0
 82 81  2  0
 85 84  1  0
 87 85  1  0
 87 88  1  0
 87 86  1  0
 89 92  1  1
 89 90  1  0
 91 89  1  0
M  ISO  4   6 101  10 100  16 100  52 101
M  END
>  <TORSDO>  (13) 
F 18

>  <SCORE>  (13) 
-13.774

>  <name>  (13) 
12

>  <ligand_id>  (13) 
12

>  <original_smiles>  (13) 
[H]c1nc(C([H])(C([H])([H])[H])C2([H])C([H])([H])C([H])([H])C([H])(Oc3c([H])c([H])c4c(c3[H])C([H])([H])N(C(=O)C([H])(N([H])C(=O)C([H])(N([H])C([H])([H])[H])C([H])([H])[H])C(C([H])([H])[H])(C([H])([H])[H])C([H])([H])[H])C([H])(C(=O)N([H])C3([H])c5c([H])c([H])c([H])c([H])c5C([H])([H])C([H])([H])C3([H])[H])C4([H])[H])C([H])([H])C2([H])[H])c(C([H])([H])[H])nc1C(=O)N1C([H])([H])C([H])([H])C([H])([H])C([H])(n2nc(-c3c([H])c([H])c(Oc4c([H])c([H])c(F)c([H])c4F)c([H])c3[H])c(C(=O)N([H])[H])c2N([H])[H])C1([H])[H]

>  <smiles>  (13) 
[H]c1nc(C([H])(C([H])([H])[H])C2([H])C([H])([H])C([H])([H])C([H])(Oc3c([H])c([H])c4c(c3[H])C([H])([H])N(C(=O)C([H])(N([H])C(=O)C([H])(N([H])C([H])([H])[H])C([H])([H])[H])C(C([H])([H])[H])(C([H])([H])[H])C([H])([H])[H])C([H])(C(=O)N([H])C3([H])c5c([H])c([H])c([H])c([H])c5C([H])([H])C([H])([H])C3([H])[H])C4([H])[H])C([H])([H])C2([H])[H])c(C([H])([H])[H])nc1C(=O)N1C([H])([H])C([H])([H])C([H])([H])C([H])(n2nc(-c3c([H])c([H])c(Oc4c([H])c([H])c(F)c([H])c4F)c([H])c3[H])c(C(=O)N([H])[H])c2N([H])[H])C1([H])[H]

$$$$
13:0:0
     RDKit          3D

 94102  0  0  1  0  0  0  0  0999 V2000
  -28.5510  -22.3430   18.4520 C   0  0  0  0  0  2  0  0  0  0  0  0
  -29.8930  -20.5730   19.8740 C   0  0  0  0  0  3  0  0  0  0  0  0
  -29.6970  -19.2070   19.9330 C   0  0  0  0  0  0  0  0  0  0  0  0
  -28.5960  -18.9110   19.1250 N   0  0  0  0  0  0  0  0  0  0  0  0
  -28.1410  -19.9920   18.5830 N   0  0  0  0  0  0  0  0  0  0  0  0
  -28.8860  -21.0310   19.0280 N   0  0  0  0  0  0  0  0  0  0  0  0
  -31.6800  -18.5880   21.3700 C   0  0  0  0  0  1  0  0  0  0  0  0
  -29.4110  -17.6560   21.8670 C   0  0  0  0  0  1  0  0  0  0  0  0
  -30.3710  -18.0820   20.7300 C   0  0  1  0  0  0  0  0  0  0  0  0
  -30.7330  -16.8710   19.7990 C   0  0  0  0  0  2  0  0  0  0  0  0
  -31.2330  -14.4410   19.9260 C   0  0  0  0  0  0  0  0  0  0  0  0
  -30.7360  -12.3090   18.8130 C   0  0  0  0  0  2  0  0  0  0  0  0
  -29.7350  -12.5750   17.6650 C   0  0  0  0  0  2  0  0  0  0  0  0
  -28.2810  -12.5380   18.1750 C   0  0  0  0  0  2  0  0  0  0  0  0
  -28.0730  -13.3580   19.4800 C   0  0  0  0  0  3  0  0  0  0  0  0
  -29.1920  -13.0650   20.5120 C   0  0  0  0  0  2  0  0  0  0  0  0
  -30.4940  -13.3000   19.8690 N   0  0  0  0  0  0  0  0  0  0  0  0
  -32.3280  -14.5600   19.3740 O   0  0  0  0  0  0  0  0  0  0  0  0
  -30.5940  -15.5250   20.3980 N   0  0  0  0  0  0  0  0  0  0  0  0
  -29.7340  -15.3410   20.8850 H   0  0  0  0  0  0  0  0  0  0  0  0
  -25.7640  -14.0640   20.3640 C   0  0  0  0  0  0  0  0  0  0  0  0
  -24.6730  -13.3380   20.7720 C   0  0  0  0  0  0  0  0  0  0  0  0
  -25.0520  -11.9670   20.6620 C   0  0  0  0  0  0  0  0  0  0  0  0
  -26.7380  -13.1360   20.0340 N   0  0  0  0  0  0  0  0  0  0  0  0
  -26.3160  -11.8650   20.2680 N   0  0  0  0  0  0  0  0  0  0  0  0
  -24.2660  -10.7390   20.8560 C   0  0  0  0  0  0  0  0  0  0  0  0
  -24.6550   -9.7530   21.7900 C   0  0  0  0  0  3  0  0  0  0  0  0
  -23.8720   -8.5900   21.9670 C   0  0  0  0  0  3  0  0  0  0  0  0
  -22.6890   -8.4070   21.2130 C   0  0  0  0  0  0  0  0  0  0  0  0
  -22.3220   -9.3800   20.2680 C   0  0  0  0  0  3  0  0  0  0  0  0
  -23.1030  -10.5340   20.0880 C   0  0  0  0  0  3  0  0  0  0  0  0
  -21.8820   -7.3000   21.3000 O   0  0  0  0  0  0  0  0  0  0  0  0
  -21.7440   -6.6020   22.4720 C   0  0  0  0  0  0  0  0  0  0  0  0
  -21.2810   -7.2130   23.6580 C   0  0  0  0  0  3  0  0  0  0  0  0
  -21.0890   -6.4380   24.8200 C   0  0  0  0  0  3  0  0  0  0  0  0
  -21.3550   -5.0560   24.7990 C   0  0  0  0  0  0  0  0  0  0  0  0
  -21.8110   -4.4450   23.6170 C   0  0  0  0  0  3  0  0  0  0  0  0
  -22.0010   -5.2160   22.4590 C   0  0  0  0  0  0  0  0  0  0  0  0
  -22.4220   -4.6180   21.3190 F   0  0  0  0  0  0  0  0  0  0  0  0
  -21.1670   -4.3130   25.9130 F   0  0  0  0  0  0  0  0  0  0  0  0
  -23.3240  -13.8840   21.1510 C   0  0  0  0  0  0  0  0  0  0  0  0
  -22.6200  -13.2120   22.0570 N   0  0  0  0  0  0  0  0  0  0  0  0
  -22.9050  -14.9400   20.6760 O   0  0  0  0  0  0  0  0  0  0  0  0
  -22.9590  -12.3560   22.4740 H   0  0  0  0  0  0  0  0  0  0  0  0
  -21.7210  -13.5640   22.3520 H   0  0  0  0  0  0  0  0  0  0  0  0
  -26.0050  -15.4240   20.2340 N   0  0  0  0  0  0  0  0  0  0  0  0
  -25.2960  -16.1200   20.4340 H   0  0  0  0  0  0  0  0  0  0  0  0
  -26.8650  -15.8340   19.8890 H   0  0  0  0  0  0  0  0  0  0  0  0
  -29.0210  -23.6680   19.1460 C   0  0  0  0  0  2  0  0  0  0  0  0
  -30.2040  -24.8860   17.2730 C   0  0  0  0  0  1  0  0  0  0  0  0
  -27.7150  -24.9070   17.2990 C   0  0  0  0  0  1  0  0  0  0  0  0
  -28.9660  -24.9350   18.2040 C   0  0  1  0  0  0  0  0  0  0  0  0
  -29.0450  -26.3260   18.9450 C   0  0  0  0  0  2  0  0  0  0  0  0
  -28.2020  -26.5690   20.0770 O   0  0  0  0  0  0  0  0  0  0  0  0
  -24.4570  -31.8190   23.0870 C   0  0  0  0  0  0  0  0  0  0  0  0
  -27.0860  -27.3790   19.9670 C   0  0  0  0  0  0  0  0  0  0  0  0
  -23.2370  -30.4130   21.4600 C   0  0  0  0  0  3  0  0  0  0  0  0
  -24.6840  -28.8850   20.0120 C   0  0  0  0  0  0  0  0  0  0  0  0
  -25.7600  -30.7810   21.2310 C   0  0  0  0  0  2  0  0  0  0  0  0
  -25.8480  -29.4120   20.5810 C   0  0  0  0  0  0  0  0  0  0  0  0
  -27.0540  -28.6650   20.5610 C   0  0  0  0  0  3  0  0  0  0  0  0
  -25.8930  -26.8620   19.4250 C   0  0  0  0  0  3  0  0  0  0  0  0
  -24.7000  -27.6070   19.4290 C   0  0  0  0  0  3  0  0  0  0  0  0
  -23.4350  -29.7360   20.0780 C   0  0  0  0  0  2  0  0  0  0  0  0
  -24.5050  -31.0160   21.9870 N   0  0  0  0  0  0  0  0  0  0  0  0
  -23.3830  -32.0890   23.6400 O   0  0  0  0  0  0  0  0  0  0  0  0
  -22.5950  -29.3900   22.4280 C   0  0  0  0  0  0  0  0  0  0  0  0
  -21.2660  -29.2210   22.3270 N   0  0  0  0  0  0  0  0  0  0  0  0
  -23.2900  -28.7520   23.2240 O   0  0  0  0  0  0  0  0  0  0  0  0
  -20.7710  -29.7840   21.6510 H   0  0  0  0  0  0  0  0  0  0  0  0
  -17.8910  -28.0710   22.9080 C   0  0  0  0  0  0  0  0  0  0  0  0
  -20.4590  -28.2860   23.1080 C   0  0  0  0  0  3  0  0  0  0  0  0
  -20.5240  -26.8620   22.5090 C   0  0  0  0  0  2  0  0  0  0  0  0
  -19.3880  -26.5720   21.5230 C   0  0  0  0  0  2  0  0  0  0  0  0
  -18.0280  -26.7280   22.2080 C   0  0  0  0  0  2  0  0  0  0  0  0
  -19.0340  -28.8110   23.3140 C   0  0  0  0  0  0  0  0  0  0  0  0
  -18.8530  -30.0690   23.9280 C   0  0  0  0  0  3  0  0  0  0  0  0
  -17.5620  -30.5900   24.1360 C   0  0  0  0  0  3  0  0  0  0  0  0
  -16.4350  -29.8470   23.7440 C   0  0  0  0  0  3  0  0  0  0  0  0
  -16.5980  -28.5900   23.1350 C   0  0  0  0  0  3  0  0  0  0  0  0
  -25.7480  -32.4540   23.6940 C   0  0  0  0  0  3  0  0  0  0  0  0
  -25.4280  -33.8380   24.0670 N   0  0  0  0  0  0  0  0  0  0  0  0
  -25.7220  -34.9140   23.3270 C   0  0  0  0  0  0  0  0  0  0  0  0
  -26.3690  -34.8490   22.2790 O   0  0  0  0  0  0  0  0  0  0  0  0
  -24.8580  -33.9620   24.8920 H   0  0  0  0  0  0  0  0  0  0  0  0
  -23.9660  -36.6920   23.0400 C   0  0  0  0  0  1  0  0  0  0  0  0
  -25.2200  -36.2820   23.8310 C   0  0  0  0  0  3  0  0  0  0  0  0
  -27.3460  -37.1710   24.6700 C   0  0  0  0  0  1  0  0  0  0  0  0
  -26.2350  -37.3530   23.7410 N   0  0  0  0  0  0  0  0  0  0  0  0
  -25.8160  -38.2620   23.9220 H   0  0  0  0  0  0  0  0  0  0  0  0
  -26.3040  -31.6550   24.9360 C   0  0  1  0  0  0  0  0  0  0  0  0
  -25.2410  -31.3720   26.0230 C   0  0  0  0  0  1  0  0  0  0  0  0
  -26.8970  -30.2980   24.4900 C   0  0  0  0  0  1  0  0  0  0  0  0
  -27.4530  -32.4510   25.5990 C   0  0  0  0  0  1  0  0  0  0  0  0
  1  6  1  0
  1 49  1  0
  2  3  2  0
  3  9  1  0
  4  3  1  0
  5  6  1  0
  5  4  2  0
  6  2  1  0
  9  7  1  1
  9  8  1  0
 10 19  1  0
 10  9  1  0
 11 19  1  0
 12 17  1  0
 13 14  1  0
 13 12  1  0
 15 14  1  0
 15 24  1  0
 15 16  1  0
 17 11  1  0
 17 16  1  0
 18 11  2  0
 19 20  1  0
 21 22  2  0
 22 41  1  0
 23 22  1  0
 23 26  1  0
 24 25  1  0
 24 21  1  0
 25 23  2  0
 26 27  1  0
 27 28  2  0
 29 32  1  0
 29 28  1  0
 30 29  2  0
 31 30  1  0
 31 26  2  0
 32 33  1  0
 33 34  1  0
 34 35  2  0
 36 35  1  0
 36 40  1  0
 37 36  2  0
 38 33  2  0
 38 37  1  0
 39 38  1  0
 41 42  1  0
 42 45  1  0
 42 44  1  0
 43 41  2  0
 46 21  1  0
 46 47  1  0
 48 46  1  0
 52 50  1  6
 51 52  1  0
 52 53  1  0
 52 49  1  0
 53 54  1  0
 55 66  2  0
 56 54  1  0
 56 61  1  0
 57 65  1  0
 57 67  1  0
 58 64  1  0
 58 60  1  0
 59 65  1  0
 60 59  1  0
 61 60  2  0
 62 63  1  0
 62 56  2  0
 63 58  2  0
 64 57  1  0
 65 55  1  0
 67 69  2  0
 68 67  1  0
 70 68  1  0
 71 80  2  0
 71 76  1  0
 72 68  1  0
 72 76  1  0
 73 72  1  0
 74 75  1  0
 74 73  1  0
 75 71  1  0
 76 77  2  0
 77 78  1  0
 79 78  2  0
 80 79  1  0
 81 55  1  0
 81 82  1  0
 81 91  1  0
 82 85  1  0
 83 87  1  0
 83 82  1  0
 84 83  2  0
 87 86  1  0
 89 87  1  0
 89 90  1  0
 89 88  1  0
 91 94  1  1
 91 92  1  0
 93 91  1  0
M  ISO  4  11 100  19 100  53 101  54 101
M  END
>  <TORSDO>  (14) 
F 22

>  <SCORE>  (14) 
-12.236

>  <name>  (14) 
13

>  <ligand_id>  (14) 
13

>  <original_smiles>  (14) 
[H]c1c([H])c([H])c2c(c1[H])C([H])([H])C([H])([H])C([H])([H])C2([H])N([H])C(=O)C1([H])N(C(=O)C([H])(N([H])C(=O)C([H])(N([H])C([H])([H])[H])C([H])([H])[H])C(C([H])([H])[H])(C([H])([H])[H])C([H])([H])[H])C([H])([H])c2c([H])c(OC([H])([H])C(C([H])([H])[H])(C([H])([H])[H])C([H])([H])C([H])([H])n3nnc(C(C([H])([H])[H])(C([H])([H])[H])C([H])([H])N([H])C(=O)N4C([H])([H])C([H])([H])C([H])([H])C([H])(n5nc(-c6c([H])c([H])c(Oc7c([H])c([H])c(F)c([H])c7F)c([H])c6[H])c(C(=O)N([H])[H])c5N([H])[H])C4([H])[H])c3[H])c([H])c([H])c2C1([H])[H]

>  <smiles>  (14) 
[H]c1c([H])c([H])c2c(c1[H])C([H])([H])C([H])([H])C([H])([H])C2([H])N([H])C(=O)C1([H])N(C(=O)C([H])(N([H])C(=O)C([H])(N([H])C([H])([H])[H])C([H])([H])[H])C(C([H])([H])[H])(C([H])([H])[H])C([H])([H])[H])C([H])([H])c2c([H])c(OC([H])([H])C(C([H])([H])[H])(C([H])([H])[H])C([H])([H])C([H])([H])n3nnc(C(C([H])([H])[H])(C([H])([H])[H])C([H])([H])N([H])C(=O)N4C([H])([H])C([H])([H])C([H])([H])C([H])(n5nc(-c6c([H])c([H])c(Oc7c([H])c([H])c(F)c([H])c7F)c([H])c6[H])c(C(=O)N([H])[H])c5N([H])[H])C4([H])[H])c3[H])c([H])c([H])c2C1([H])[H]

$$$$
14:0:0
     RDKit          3D

 92100  0  0  1  0  0  0  0  0999 V2000
  -29.3180  -23.4500   18.8020 C   0  0  0  0  0  3  0  0  0  0  0  0
  -28.7830  -23.6230   20.1100 C   0  0  0  0  0  0  0  0  0  0  0  0
  -29.7740  -22.1460   18.7180 C   0  0  0  0  0  0  0  0  0  0  0  0
  -30.5220  -21.5210   17.5840 C   0  0  0  0  0  1  0  0  0  0  0  0
  -28.9110  -22.4170   20.7520 N   0  0  0  0  0  0  0  0  0  0  0  0
  -29.4970  -21.4710   19.9100 N   0  0  0  0  0  0  0  0  0  0  0  0
  -26.7320  -24.5730   21.2820 C   0  0  0  0  0  1  0  0  0  0  0  0
  -28.1590  -24.9240   20.8060 C   0  0  0  0  0  3  0  0  0  0  0  0
  -28.3050  -26.3140   20.1970 O   0  0  0  0  0  0  0  0  0  0  0  0
  -24.5940  -31.8260   23.2230 C   0  0  0  0  0  0  0  0  0  0  0  0
  -27.2240  -27.2340   20.1790 C   0  0  0  0  0  0  0  0  0  0  0  0
  -23.4140  -30.4470   21.5540 C   0  0  0  0  0  3  0  0  0  0  0  0
  -24.8810  -28.9000   20.1360 C   0  0  0  0  0  0  0  0  0  0  0  0
  -25.9630  -30.7440   21.4150 C   0  0  0  0  0  2  0  0  0  0  0  0
  -26.0460  -29.3660   20.7580 C   0  0  0  0  0  0  0  0  0  0  0  0
  -27.2240  -28.5450   20.7710 C   0  0  0  0  0  3  0  0  0  0  0  0
  -26.0490  -26.8540   19.5010 C   0  0  0  0  0  3  0  0  0  0  0  0
  -24.8860  -27.6500   19.4970 C   0  0  0  0  0  3  0  0  0  0  0  0
  -23.6470  -29.7810   20.1720 C   0  0  0  0  0  2  0  0  0  0  0  0
  -24.6760  -31.0260   22.1180 N   0  0  0  0  0  0  0  0  0  0  0  0
  -23.5020  -32.1000   23.7440 O   0  0  0  0  0  0  0  0  0  0  0  0
  -22.7320  -29.4240   22.4950 C   0  0  0  0  0  0  0  0  0  0  0  0
  -21.4040  -29.2660   22.3650 N   0  0  0  0  0  0  0  0  0  0  0  0
  -23.4010  -28.7750   23.3040 O   0  0  0  0  0  0  0  0  0  0  0  0
  -20.9210  -29.8410   21.6880 H   0  0  0  0  0  0  0  0  0  0  0  0
  -18.0090  -28.1090   22.8540 C   0  0  0  0  0  0  0  0  0  0  0  0
  -20.5720  -28.3240   23.1190 C   0  0  0  0  0  3  0  0  0  0  0  0
  -20.6500  -26.9020   22.5150 C   0  0  0  0  0  2  0  0  0  0  0  0
  -19.5410  -26.6170   21.4980 C   0  0  0  0  0  2  0  0  0  0  0  0
  -18.1630  -26.7720   22.1490 C   0  0  0  0  0  2  0  0  0  0  0  0
  -19.1410  -28.8450   23.2960 C   0  0  0  0  0  0  0  0  0  0  0  0
  -18.9450  -30.0970   23.9150 C   0  0  0  0  0  3  0  0  0  0  0  0
  -17.6480  -30.6150   24.0970 C   0  0  0  0  0  3  0  0  0  0  0  0
  -16.5300  -29.8780   23.6720 C   0  0  0  0  0  3  0  0  0  0  0  0
  -16.7120  -28.6260   23.0580 C   0  0  0  0  0  3  0  0  0  0  0  0
  -25.8660  -32.4550   23.8710 C   0  0  0  0  0  3  0  0  0  0  0  0
  -26.3450  -31.6900   25.1640 C   0  0  1  0  0  0  0  0  0  0  0  0
  -25.2260  -31.4750   26.2090 C   0  0  0  0  0  1  0  0  0  0  0  0
  -26.9250  -30.3040   24.7990 C   0  0  0  0  0  1  0  0  0  0  0  0
  -27.4850  -32.4810   25.8490 C   0  0  0  0  0  1  0  0  0  0  0  0
  -25.5560  -33.8570   24.1870 N   0  0  0  0  0  0  0  0  0  0  0  0
  -25.9020  -34.9050   23.4280 C   0  0  0  0  0  0  0  0  0  0  0  0
  -26.5810  -34.7930   22.4030 O   0  0  0  0  0  0  0  0  0  0  0  0
  -24.9510  -34.0180   24.9780 H   0  0  0  0  0  0  0  0  0  0  0  0
  -24.1820  -36.7040   23.0540 C   0  0  0  0  0  1  0  0  0  0  0  0
  -25.4180  -36.2980   23.8740 C   0  0  0  0  0  3  0  0  0  0  0  0
  -27.5510  -37.1840   24.7100 C   0  0  0  0  0  1  0  0  0  0  0  0
  -26.4540  -37.3470   23.7590 N   0  0  0  0  0  0  0  0  0  0  0  0
  -26.0490  -38.2690   23.8990 H   0  0  0  0  0  0  0  0  0  0  0  0
  -30.0220  -20.1060   20.4050 C   0  0  0  0  0  2  0  0  0  0  0  0
  -29.4960  -18.5290   18.3950 C   0  0  0  0  0  1  0  0  0  0  0  0
  -28.0280  -18.5000   20.4000 C   0  0  0  0  0  1  0  0  0  0  0  0
  -29.4870  -18.6310   19.9300 C   0  0  2  0  0  0  0  0  0  0  0  0
  -30.3420  -17.3630   20.5200 C   0  0  0  0  0  2  0  0  0  0  0  0
  -30.6320  -14.7510   20.1830 C   0  0  0  0  0  0  0  0  0  0  0  0
  -30.4030  -12.4650   19.1950 C   0  0  0  0  0  2  0  0  0  0  0  0
  -29.4420  -12.5340   17.9890 C   0  0  0  0  0  2  0  0  0  0  0  0
  -27.9760  -12.3790   18.4390 C   0  0  0  0  0  2  0  0  0  0  0  0
  -27.6310  -13.2750   19.6590 C   0  0  0  0  0  3  0  0  0  0  0  0
  -28.7090  -13.1870   20.7610 C   0  0  0  0  0  2  0  0  0  0  0  0
  -29.9930  -13.5300   20.1380 N   0  0  0  0  0  0  0  0  0  0  0  0
  -31.8210  -14.8310   19.8620 O   0  0  0  0  0  0  0  0  0  0  0  0
  -29.8790  -15.8990   20.3960 N   0  0  0  0  0  0  0  0  0  0  0  0
  -28.8990  -15.7300   20.5710 H   0  0  0  0  0  0  0  0  0  0  0  0
  -25.2720  -13.8950   20.4490 C   0  0  0  0  0  0  0  0  0  0  0  0
  -24.2030  -13.1360   20.8400 C   0  0  0  0  0  0  0  0  0  0  0  0
  -24.6450  -11.7770   20.7900 C   0  0  0  0  0  0  0  0  0  0  0  0
  -26.2950  -13.0020   20.1810 N   0  0  0  0  0  0  0  0  0  0  0  0
  -25.9270  -11.7220   20.4500 N   0  0  0  0  0  0  0  0  0  0  0  0
  -23.9030  -10.5250   20.9860 C   0  0  0  0  0  0  0  0  0  0  0  0
  -24.3340   -9.5510   21.9120 C   0  0  0  0  0  3  0  0  0  0  0  0
  -23.5940   -8.3620   22.0990 C   0  0  0  0  0  3  0  0  0  0  0  0
  -22.4080   -8.1420   21.3590 C   0  0  0  0  0  0  0  0  0  0  0  0
  -21.9960   -9.1050   20.4210 C   0  0  0  0  0  3  0  0  0  0  0  0
  -22.7370  -10.2840   20.2320 C   0  0  0  0  0  3  0  0  0  0  0  0
  -21.6380   -7.0090   21.4570 O   0  0  0  0  0  0  0  0  0  0  0  0
  -21.5920   -6.2650   22.6100 C   0  0  0  0  0  0  0  0  0  0  0  0
  -21.1760   -6.8230   23.8390 C   0  0  0  0  0  3  0  0  0  0  0  0
  -21.0730   -6.0060   24.9830 C   0  0  0  0  0  3  0  0  0  0  0  0
  -21.3790   -4.6340   24.8990 C   0  0  0  0  0  0  0  0  0  0  0  0
  -21.7890   -4.0780   23.6760 C   0  0  0  0  0  3  0  0  0  0  0  0
  -21.8930   -4.8900   22.5340 C   0  0  0  0  0  0  0  0  0  0  0  0
  -22.2670   -4.3460   21.3520 F   0  0  0  0  0  0  0  0  0  0  0  0
  -21.2740   -3.8480   25.9960 F   0  0  0  0  0  0  0  0  0  0  0  0
  -22.8180  -13.6330   21.1410 C   0  0  0  0  0  0  0  0  0  0  0  0
  -22.0930  -12.9440   22.0160 N   0  0  0  0  0  0  0  0  0  0  0  0
  -22.3870  -14.6660   20.6320 O   0  0  0  0  0  0  0  0  0  0  0  0
  -22.4540  -12.1110   22.4550 H   0  0  0  0  0  0  0  0  0  0  0  0
  -21.1630  -13.2590   22.2510 H   0  0  0  0  0  0  0  0  0  0  0  0
  -25.4500  -15.2640   20.2730 N   0  0  0  0  0  0  0  0  0  0  0  0
  -24.6890  -15.9210   20.4020 H   0  0  0  0  0  0  0  0  0  0  0  0
  -26.2730  -15.6900   19.8690 H   0  0  0  0  0  0  0  0  0  0  0  0
  1  2  1  0
  2  5  2  0
  2  8  1  0
  3  1  2  0
  3  6  1  0
  4  3  1  0
  6 50  1  0
  6  5  1  0
  8  7  1  0
  9  8  1  0
 10 21  2  0
 11  9  1  0
 11 16  1  0
 12 20  1  0
 12 22  1  0
 13 19  1  0
 13 15  1  0
 14 20  1  0
 15 16  2  0
 15 14  1  0
 17 11  2  0
 18 17  1  0
 18 13  2  0
 19 12  1  0
 20 10  1  0
 22 24  2  0
 23 22  1  0
 25 23  1  0
 26 35  2  0
 26 31  1  0
 27 23  1  0
 27 31  1  0
 28 27  1  0
 29 30  1  0
 29 28  1  0
 30 26  1  0
 31 32  2  0
 32 33  1  0
 34 33  2  0
 35 34  1  0
 36 10  1  0
 36 41  1  0
 36 37  1  0
 37 40  1  1
 37 38  1  0
 39 37  1  0
 41 44  1  0
 42 46  1  0
 42 41  1  0
 43 42  2  0
 46 45  1  0
 48 46  1  0
 48 49  1  0
 48 47  1  0
 53 51  1  6
 53 52  1  0
 53 50  1  0
 53 54  1  0
 55 63  1  0
 56 61  1  0
 57 58  1  0
 57 56  1  0
 59 58  1  0
 59 68  1  0
 59 60  1  0
 61 55  1  0
 61 60  1  0
 62 55  2  0
 63 54  1  0
 63 64  1  0
 65 66  2  0
 66 85  1  0
 67 66  1  0
 67 70  1  0
 68 65  1  0
 68 69  1  0
 69 67  2  0
 70 71  1  0
 71 72  2  0
 73 76  1  0
 73 72  1  0
 74 73  2  0
 75 74  1  0
 75 70  2  0
 76 77  1  0
 77 78  1  0
 78 79  2  0
 80 79  1  0
 80 84  1  0
 81 80  2  0
 82 77  2  0
 82 81  1  0
 83 82  1  0
 85 86  1  0
 86 89  1  0
 86 88  1  0
 87 85  2  0
 90 91  1  0
 90 65  1  0
 92 90  1  0
M  ISO  4   8 101   9 101  55 100  63 100
M  END
>  <TORSDO>  (15) 
F 20

>  <SCORE>  (15) 
-13.951

>  <name>  (15) 
14

>  <ligand_id>  (15) 
14

>  <original_smiles>  (15) 
[H]c1c([H])c([H])c2c(c1[H])C([H])([H])C([H])([H])C([H])([H])C2([H])N([H])C(=O)C1([H])N(C(=O)C([H])(N([H])C(=O)C([H])(N([H])C([H])([H])[H])C([H])([H])[H])C(C([H])([H])[H])(C([H])([H])[H])C([H])([H])[H])C([H])([H])c2c([H])c(OC([H])(c3nn(C([H])([H])C(C([H])([H])[H])(C([H])([H])[H])C([H])([H])N([H])C(=O)N4C([H])([H])C([H])([H])C([H])([H])C([H])(n5nc(-c6c([H])c([H])c(Oc7c([H])c([H])c(F)c([H])c7F)c([H])c6[H])c(C(=O)N([H])[H])c5N([H])[H])C4([H])[H])c(C([H])([H])[H])c3[H])C([H])([H])[H])c([H])c([H])c2C1([H])[H]

>  <smiles>  (15) 
[H]c1c([H])c([H])c2c(c1[H])C([H])([H])C([H])([H])C([H])([H])C2([H])N([H])C(=O)C1([H])N(C(=O)C([H])(N([H])C(=O)C([H])(N([H])C([H])([H])[H])C([H])([H])[H])C(C([H])([H])[H])(C([H])([H])[H])C([H])([H])[H])C([H])([H])c2c([H])c(OC([H])(c3nn(C([H])([H])C(C([H])([H])[H])(C([H])([H])[H])C([H])([H])N([H])C(=O)N4C([H])([H])C([H])([H])C([H])([H])C([H])(n5nc(-c6c([H])c([H])c(Oc7c([H])c([H])c(F)c([H])c7F)c([H])c6[H])c(C(=O)N([H])[H])c5N([H])[H])C4([H])[H])c(C([H])([H])[H])c3[H])C([H])([H])[H])c([H])c([H])c2C1([H])[H]

$$$$
15:0:0
     RDKit          3D

 96104  0  0  1  0  0  0  0  0999 V2000
  -28.9190  -21.2620   21.4610 C   0  0  0  0  0  3  0  0  0  0  0  0
  -28.2930  -22.4000   21.0150 C   0  0  0  0  0  0  0  0  0  0  0  0
  -27.4400  -21.9260   19.9550 C   0  0  0  0  0  0  0  0  0  0  0  0
  -27.5630  -20.6080   19.8090 N   0  0  0  0  0  0  0  0  0  0  0  0
  -28.4380  -20.1890   20.7430 N   0  0  0  0  0  0  0  0  0  0  0  0
  -25.5070  -23.5700   19.7030 C   0  0  0  0  0  1  0  0  0  0  0  0
  -25.6740  -21.6790   18.1210 C   0  0  0  0  0  1  0  0  0  0  0  0
  -27.3800  -23.4930   18.0130 C   0  0  0  0  0  1  0  0  0  0  0  0
  -26.5160  -22.6620   18.9730 C   0  0  2  0  0  0  0  0  0  0  0  0
  -28.4640  -23.7910   21.6160 C   0  0  0  0  0  2  0  0  0  0  0  0
  -29.2950  -24.8040   20.7870 C   0  0  0  0  0  2  0  0  0  0  0  0
  -29.3880  -26.1880   21.4780 C   0  0  0  0  0  2  0  0  0  0  0  0
  -29.4220  -27.2980   20.5650 O   0  0  0  0  0  0  0  0  0  0  0  0
  -24.8800  -31.9580   23.4470 C   0  0  0  0  0  0  0  0  0  0  0  0
  -28.2180  -27.9540   20.4590 C   0  0  0  0  0  0  0  0  0  0  0  0
  -23.9800  -30.5350   21.6370 C   0  0  0  0  0  3  0  0  0  0  0  0
  -25.7010  -29.2180   20.2930 C   0  0  0  0  0  0  0  0  0  0  0  0
  -26.4610  -31.1430   21.6980 C   0  0  0  0  0  2  0  0  0  0  0  0
  -26.7390  -29.8220   21.0150 C   0  0  0  0  0  0  0  0  0  0  0  0
  -28.0050  -29.1950   21.1000 C   0  0  0  0  0  3  0  0  0  0  0  0
  -27.1730  -27.3650   19.7220 C   0  0  0  0  0  3  0  0  0  0  0  0
  -25.9130  -27.9900   19.6410 C   0  0  0  0  0  3  0  0  0  0  0  0
  -24.3780  -29.9470   20.2560 C   0  0  0  0  0  2  0  0  0  0  0  0
  -25.1190  -31.2280   22.3210 N   0  0  0  0  0  0  0  0  0  0  0  0
  -23.7310  -32.0950   23.8890 O   0  0  0  0  0  0  0  0  0  0  0  0
  -23.3470  -29.4100   22.4890 C   0  0  0  0  0  0  0  0  0  0  0  0
  -22.0460  -29.1550   22.2710 N   0  0  0  0  0  0  0  0  0  0  0  0
  -24.0260  -28.7730   23.2970 O   0  0  0  0  0  0  0  0  0  0  0  0
  -21.5560  -29.7260   21.5960 H   0  0  0  0  0  0  0  0  0  0  0  0
  -18.7230  -27.7600   22.5360 C   0  0  0  0  0  0  0  0  0  0  0  0
  -21.2550  -28.1060   22.9170 C   0  0  0  0  0  3  0  0  0  0  0  0
  -21.4470  -26.7460   22.2050 C   0  0  0  0  0  2  0  0  0  0  0  0
  -20.3880  -26.4810   21.1300 C   0  0  0  0  0  2  0  0  0  0  0  0
  -18.9850  -26.4940   21.7360 C   0  0  0  0  0  2  0  0  0  0  0  0
  -19.7900  -28.5260   23.0730 C   0  0  0  0  0  0  0  0  0  0  0  0
  -19.4900  -29.7190   23.7700 C   0  0  0  0  0  3  0  0  0  0  0  0
  -18.1590  -30.1400   23.9340 C   0  0  0  0  0  3  0  0  0  0  0  0
  -17.1060  -29.3680   23.4130 C   0  0  0  0  0  3  0  0  0  0  0  0
  -17.3890  -28.1790   22.7200 C   0  0  0  0  0  3  0  0  0  0  0  0
  -26.0330  -32.6750   24.2160 C   0  0  0  0  0  3  0  0  0  0  0  0
  -25.6050  -34.0560   24.4660 N   0  0  0  0  0  0  0  0  0  0  0  0
  -25.9600  -35.1120   23.7190 C   0  0  0  0  0  0  0  0  0  0  0  0
  -26.7490  -35.0280   22.7730 O   0  0  0  0  0  0  0  0  0  0  0  0
  -24.9160  -34.1920   25.1920 H   0  0  0  0  0  0  0  0  0  0  0  0
  -24.1640  -36.7700   23.1270 C   0  0  0  0  0  1  0  0  0  0  0  0
  -25.3380  -36.4750   24.0750 C   0  0  0  0  0  3  0  0  0  0  0  0
  -27.3200  -37.5170   25.0820 C   0  0  0  0  0  1  0  0  0  0  0  0
  -26.3060  -37.5910   24.0330 N   0  0  0  0  0  0  0  0  0  0  0  0
  -25.8300  -38.4850   24.1150 H   0  0  0  0  0  0  0  0  0  0  0  0
  -26.4240  -31.9560   25.5650 C   0  0  1  0  0  0  0  0  0  0  0  0
  -25.2160  -31.6570   26.4840 C   0  0  0  0  0  1  0  0  0  0  0  0
  -27.1400  -30.6170   25.2780 C   0  0  0  0  0  1  0  0  0  0  0  0
  -27.4230  -32.8340   26.3550 C   0  0  0  0  0  1  0  0  0  0  0  0
  -28.7060  -18.7520   20.8880 C   0  0  0  0  0  2  0  0  0  0  0  0
  -31.1040  -18.5730   20.0520 C   0  0  0  0  0  1  0  0  0  0  0  0
  -29.2490  -18.5530   18.3850 C   0  0  0  0  0  1  0  0  0  0  0  0
  -29.6510  -18.1150   19.8110 C   0  0  2  0  0  0  0  0  0  0  0  0
  -29.5570  -16.5580   19.8430 C   0  0  0  0  0  2  0  0  0  0  0  0
  -31.1470  -14.7630   20.3040 C   0  0  0  0  0  0  0  0  0  0  0  0
  -30.8410  -12.4900   19.4060 C   0  0  0  0  0  2  0  0  0  0  0  0
  -29.9370  -12.5230   18.1560 C   0  0  0  0  0  2  0  0  0  0  0  0
  -28.4540  -12.4200   18.5590 C   0  0  0  0  0  2  0  0  0  0  0  0
  -28.0730  -13.4150   19.6880 C   0  0  0  0  0  3  0  0  0  0  0  0
  -29.0980  -13.3870   20.8450 C   0  0  0  0  0  2  0  0  0  0  0  0
  -30.4380  -13.6040   20.2750 N   0  0  0  0  0  0  0  0  0  0  0  0
  -32.2980  -14.8620   19.8860 O   0  0  0  0  0  0  0  0  0  0  0  0
  -30.5090  -15.8680   20.7280 N   0  0  0  0  0  0  0  0  0  0  0  0
  -31.1600  -16.5300   21.1250 H   0  0  0  0  0  0  0  0  0  0  0  0
  -25.7180  -14.1220   20.4370 C   0  0  0  0  0  0  0  0  0  0  0  0
  -24.6150  -13.3930   20.7880 C   0  0  0  0  0  0  0  0  0  0  0  0
  -25.0090  -12.0220   20.7150 C   0  0  0  0  0  0  0  0  0  0  0  0
  -26.7150  -13.1960   20.1710 N   0  0  0  0  0  0  0  0  0  0  0  0
  -26.2940  -11.9260   20.3990 N   0  0  0  0  0  0  0  0  0  0  0  0
  -24.2220  -10.7930   20.8650 C   0  0  0  0  0  0  0  0  0  0  0  0
  -24.6310   -9.7590   21.7370 C   0  0  0  0  0  3  0  0  0  0  0  0
  -23.8490   -8.5920   21.8760 C   0  0  0  0  0  3  0  0  0  0  0  0
  -22.6450   -8.4520   21.1440 C   0  0  0  0  0  0  0  0  0  0  0  0
  -22.2570   -9.4730   20.2600 C   0  0  0  0  0  3  0  0  0  0  0  0
  -23.0380  -10.6320   20.1200 C   0  0  0  0  0  3  0  0  0  0  0  0
  -21.8320   -7.3460   21.2020 O   0  0  0  0  0  0  0  0  0  0  0  0
  -21.7940   -6.5390   22.3100 C   0  0  0  0  0  0  0  0  0  0  0  0
  -21.4670   -7.0440   23.5880 C   0  0  0  0  0  3  0  0  0  0  0  0
  -21.3720   -6.1680   24.6870 C   0  0  0  0  0  3  0  0  0  0  0  0
  -21.5880   -4.7890   24.5100 C   0  0  0  0  0  0  0  0  0  0  0  0
  -21.9040   -4.2820   23.2370 C   0  0  0  0  0  3  0  0  0  0  0  0
  -22.0040   -5.1560   22.1390 C   0  0  0  0  0  0  0  0  0  0  0  0
  -22.2920   -4.6620   20.9110 F   0  0  0  0  0  0  0  0  0  0  0  0
  -21.4850   -3.9440   25.5630 F   0  0  0  0  0  0  0  0  0  0  0  0
  -23.2440  -13.9310   21.0800 C   0  0  0  0  0  0  0  0  0  0  0  0
  -22.4940  -13.2510   21.9410 N   0  0  0  0  0  0  0  0  0  0  0  0
  -22.8500  -14.9830   20.5800 O   0  0  0  0  0  0  0  0  0  0  0  0
  -22.8240  -12.3910   22.3520 H   0  0  0  0  0  0  0  0  0  0  0  0
  -21.5740  -13.5860   22.1850 H   0  0  0  0  0  0  0  0  0  0  0  0
  -25.9490  -15.4850   20.2970 N   0  0  0  0  0  0  0  0  0  0  0  0
  -25.2210  -16.1780   20.4250 H   0  0  0  0  0  0  0  0  0  0  0  0
  -26.8200  -15.8860   19.9740 H   0  0  0  0  0  0  0  0  0  0  0  0
  2  1  2  0
  2 10  1  0
  3  2  1  0
  4  3  2  0
  4  5  1  0
  5 54  1  0
  5  1  1  0
  9  7  1  6
  8  9  1  0
  9  6  1  0
  9  3  1  0
 11 12  1  0
 11 10  1  0
 13 12  1  0
 14 25  2  0
 15 13  1  0
 15 20  1  0
 16 24  1  0
 16 26  1  0
 17 19  1  0
 18 24  1  0
 19 20  2  0
 19 18  1  0
 21 15  2  0
 22 21  1  0
 22 17  2  0
 23 17  1  0
 23 16  1  0
 24 14  1  0
 26 28  2  0
 27 26  1  0
 29 27  1  0
 30 39  2  0
 30 35  1  0
 31 27  1  0
 31 35  1  0
 32 31  1  0
 33 34  1  0
 33 32  1  0
 34 30  1  0
 35 36  2  0
 36 37  1  0
 38 37  2  0
 39 38  1  0
 40 14  1  0
 40 41  1  0
 40 50  1  0
 41 44  1  0
 42 46  1  0
 42 41  1  0
 43 42  2  0
 46 45  1  0
 48 46  1  0
 48 49  1  0
 48 47  1  0
 50 53  1  1
 50 51  1  0
 52 50  1  0
 57 56  1  6
 57 58  1  0
 57 55  1  0
 57 54  1  0
 58 67  1  0
 59 67  1  0
 60 65  1  0
 61 62  1  0
 61 60  1  0
 63 62  1  0
 63 72  1  0
 63 64  1  0
 65 59  1  0
 65 64  1  0
 66 59  2  0
 67 68  1  0
 69 70  2  0
 70 89  1  0
 71 70  1  0
 71 74  1  0
 72 73  1  0
 72 69  1  0
 73 71  2  0
 74 75  1  0
 75 76  2  0
 77 80  1  0
 77 76  1  0
 78 77  2  0
 79 78  1  0
 79 74  2  0
 80 81  1  0
 81 82  1  0
 82 83  2  0
 84 83  1  0
 84 88  1  0
 85 84  2  0
 86 81  2  0
 86 85  1  0
 87 86  1  0
 89 90  1  0
 90 93  1  0
 90 92  1  0
 91 89  2  0
 94 95  1  0
 94 69  1  0
 96 94  1  0
M  ISO  4  12 101  13 101  59 100  67 100
M  END
>  <TORSDO>  (16) 
F 23

>  <SCORE>  (16) 
-11.780

>  <name>  (16) 
15

>  <ligand_id>  (16) 
15

>  <original_smiles>  (16) 
[H]c1c([H])c([H])c2c(c1[H])C([H])([H])C([H])([H])C([H])([H])C2([H])N([H])C(=O)C1([H])N(C(=O)C([H])(N([H])C(=O)C([H])(N([H])C([H])([H])[H])C([H])([H])[H])C(C([H])([H])[H])(C([H])([H])[H])C([H])([H])[H])C([H])([H])c2c([H])c(OC([H])([H])C([H])([H])C([H])([H])c3c(C(C([H])([H])[H])(C([H])([H])[H])C([H])([H])[H])nn(C([H])([H])C(C([H])([H])[H])(C([H])([H])[H])C([H])([H])N([H])C(=O)N4C([H])([H])C([H])([H])C([H])([H])C([H])(n5nc(-c6c([H])c([H])c(Oc7c([H])c([H])c(F)c([H])c7F)c([H])c6[H])c(C(=O)N([H])[H])c5N([H])[H])C4([H])[H])c3[H])c([H])c([H])c2C1([H])[H]

>  <smiles>  (16) 
[H]c1c([H])c([H])c2c(c1[H])C([H])([H])C([H])([H])C([H])([H])C2([H])N([H])C(=O)C1([H])N(C(=O)C([H])(N([H])C(=O)C([H])(N([H])C([H])([H])[H])C([H])([H])[H])C(C([H])([H])[H])(C([H])([H])[H])C([H])([H])[H])C([H])([H])c2c([H])c(OC([H])([H])C([H])([H])C([H])([H])c3c(C(C([H])([H])[H])(C([H])([H])[H])C([H])([H])[H])nn(C([H])([H])C(C([H])([H])[H])(C([H])([H])[H])C([H])([H])N([H])C(=O)N4C([H])([H])C([H])([H])C([H])([H])C([H])(n5nc(-c6c([H])c([H])c(Oc7c([H])c([H])c(F)c([H])c7F)c([H])c6[H])c(C(=O)N([H])[H])c5N([H])[H])C4([H])[H])c3[H])c([H])c([H])c2C1([H])[H]

$$$$
16:0:0
     RDKit          3D

 93101  0  0  1  0  0  0  0  0999 V2000
  -30.3810  -19.0930   22.1010 C   0  0  0  0  0  0  0  0  0  0  0  0
  -30.8770  -21.1370   22.0300 C   0  0  0  0  0  0  0  0  0  0  0  0
  -30.7470  -19.4250   23.3480 N   0  0  0  0  0  0  0  0  0  0  0  0
  -31.0760  -20.7620   23.3000 N   0  0  0  0  0  0  0  0  0  0  0  0
  -30.4750  -20.1220   21.2260 N   0  0  0  0  0  0  0  0  0  0  0  0
  -31.3460  -19.5520   18.9750 C   0  0  0  0  0  1  0  0  0  0  0  0
  -30.1900  -20.1460   19.7950 C   0  0  0  0  0  2  0  0  0  0  0  0
  -29.8750  -17.7200   21.7280 C   0  0  0  0  0  2  0  0  0  0  0  0
  -30.9770  -16.6540   21.5630 C   0  0  0  0  0  2  0  0  0  0  0  0
  -30.9460  -14.4780   20.3220 C   0  0  0  0  0  0  0  0  0  0  0  0
  -30.5600  -12.4010   19.0440 C   0  0  0  0  0  2  0  0  0  0  0  0
  -29.6000  -12.6780   17.8710 C   0  0  0  0  0  2  0  0  0  0  0  0
  -28.1320  -12.5490   18.3220 C   0  0  0  0  0  2  0  0  0  0  0  0
  -27.8370  -13.3310   19.6310 C   0  0  0  0  0  3  0  0  0  0  0  0
  -28.9090  -13.0340   20.7040 C   0  0  0  0  0  2  0  0  0  0  0  0
  -30.2330  -13.3360   20.1300 N   0  0  0  0  0  0  0  0  0  0  0  0
  -31.9830  -14.7380   19.7060 O   0  0  0  0  0  0  0  0  0  0  0  0
  -30.4280  -15.3350   21.2150 N   0  0  0  0  0  0  0  0  0  0  0  0
  -29.5830  -15.0350   21.6830 H   0  0  0  0  0  0  0  0  0  0  0  0
  -25.4500  -13.9390   20.3850 C   0  0  0  0  0  0  0  0  0  0  0  0
  -24.3880  -13.1670   20.7730 C   0  0  0  0  0  0  0  0  0  0  0  0
  -24.8450  -11.8150   20.7270 C   0  0  0  0  0  0  0  0  0  0  0  0
  -26.4890  -13.0570   20.1290 N   0  0  0  0  0  0  0  0  0  0  0  0
  -26.1280  -11.7750   20.3880 N   0  0  0  0  0  0  0  0  0  0  0  0
  -24.1210  -10.5530   20.9250 C   0  0  0  0  0  0  0  0  0  0  0  0
  -24.5390   -9.6060   21.8870 C   0  0  0  0  0  3  0  0  0  0  0  0
  -23.8160   -8.4080   22.0720 C   0  0  0  0  0  3  0  0  0  0  0  0
  -22.6600   -8.1480   21.2970 C   0  0  0  0  0  0  0  0  0  0  0  0
  -22.2630   -9.0820   20.3260 C   0  0  0  0  0  3  0  0  0  0  0  0
  -22.9870  -10.2720   20.1380 C   0  0  0  0  0  3  0  0  0  0  0  0
  -21.9120   -6.9990   21.3910 O   0  0  0  0  0  0  0  0  0  0  0  0
  -21.8020   -6.3040   22.5690 C   0  0  0  0  0  0  0  0  0  0  0  0
  -21.2700   -6.8950   23.7370 C   0  0  0  0  0  3  0  0  0  0  0  0
  -21.1100   -6.1250   24.9060 C   0  0  0  0  0  3  0  0  0  0  0  0
  -21.4710   -4.7650   24.9090 C   0  0  0  0  0  0  0  0  0  0  0  0
  -21.9960   -4.1730   23.7470 C   0  0  0  0  0  3  0  0  0  0  0  0
  -22.1580   -4.9410   22.5800 C   0  0  0  0  0  0  0  0  0  0  0  0
  -22.6450   -4.3600   21.4570 F   0  0  0  0  0  0  0  0  0  0  0  0
  -21.3110   -4.0230   26.0300 F   0  0  0  0  0  0  0  0  0  0  0  0
  -22.9970  -13.6450   21.0770 C   0  0  0  0  0  0  0  0  0  0  0  0
  -22.2820  -12.9450   21.9510 N   0  0  0  0  0  0  0  0  0  0  0  0
  -22.5520  -14.6750   20.5720 O   0  0  0  0  0  0  0  0  0  0  0  0
  -22.6510  -12.1120   22.3840 H   0  0  0  0  0  0  0  0  0  0  0  0
  -21.3500  -13.2500   22.1920 H   0  0  0  0  0  0  0  0  0  0  0  0
  -25.6170  -15.3120   20.2150 N   0  0  0  0  0  0  0  0  0  0  0  0
  -24.8610  -15.9740   20.3510 H   0  0  0  0  0  0  0  0  0  0  0  0
  -26.4620  -15.7470   19.8720 H   0  0  0  0  0  0  0  0  0  0  0  0
  -31.0220  -22.5680   21.5610 C   0  0  0  0  0  2  0  0  0  0  0  0
  -28.4300  -22.6860   21.5520 C   0  0  0  0  0  1  0  0  0  0  0  0
  -29.7540  -23.4630   21.7290 C   0  0  0  0  0  3  0  0  0  0  0  0
  -29.7900  -24.7150   20.8090 C   0  0  0  0  0  2  0  0  0  0  0  0
  -28.7910  -25.8320   21.1960 C   0  0  0  0  0  2  0  0  0  0  0  0
  -28.6980  -26.8140   20.1630 O   0  0  0  0  0  0  0  0  0  0  0  0
  -24.6040  -31.7660   23.2270 C   0  0  0  0  0  0  0  0  0  0  0  0
  -27.5090  -27.5030   20.1590 C   0  0  0  0  0  0  0  0  0  0  0  0
  -23.5020  -30.3680   21.5050 C   0  0  0  0  0  3  0  0  0  0  0  0
  -25.0610  -28.9070   20.1080 C   0  0  0  0  0  0  0  0  0  0  0  0
  -26.0140  -30.8220   21.4000 C   0  0  0  0  0  2  0  0  0  0  0  0
  -26.1730  -29.4640   20.7490 C   0  0  0  0  0  0  0  0  0  0  0  0
  -27.4030  -28.7690   20.7750 C   0  0  0  0  0  3  0  0  0  0  0  0
  -26.3840  -26.9500   19.5150 C   0  0  0  0  0  3  0  0  0  0  0  0
  -25.1580  -27.6460   19.4910 C   0  0  0  0  0  3  0  0  0  0  0  0
  -23.7850  -29.7200   20.1200 C   0  0  0  0  0  2  0  0  0  0  0  0
  -24.7230  -30.9990   22.1060 N   0  0  0  0  0  0  0  0  0  0  0  0
  -23.4970  -31.9890   23.7350 O   0  0  0  0  0  0  0  0  0  0  0  0
  -22.8480  -29.3060   22.4190 C   0  0  0  0  0  0  0  0  0  0  0  0
  -21.5310  -29.1020   22.2510 N   0  0  0  0  0  0  0  0  0  0  0  0
  -23.5250  -28.6690   23.2300 O   0  0  0  0  0  0  0  0  0  0  0  0
  -21.0480  -29.6680   21.5680 H   0  0  0  0  0  0  0  0  0  0  0  0
  -18.1660  -27.8500   22.6430 C   0  0  0  0  0  0  0  0  0  0  0  0
  -20.7160  -28.1270   22.9720 C   0  0  0  0  0  3  0  0  0  0  0  0
  -20.8460  -26.7200   22.3420 C   0  0  0  0  0  2  0  0  0  0  0  0
  -19.7660  -26.4260   21.2970 C   0  0  0  0  0  2  0  0  0  0  0  0
  -18.3710  -26.5310   21.9190 C   0  0  0  0  0  2  0  0  0  0  0  0
  -19.2680  -28.6070   23.1240 C   0  0  0  0  0  0  0  0  0  0  0  0
  -19.0230  -29.8460   23.7570 C   0  0  0  0  0  3  0  0  0  0  0  0
  -17.7080  -30.3250   23.9170 C   0  0  0  0  0  3  0  0  0  0  0  0
  -16.6220  -29.5630   23.4550 C   0  0  0  0  0  3  0  0  0  0  0  0
  -16.8510  -28.3280   22.8220 C   0  0  0  0  0  3  0  0  0  0  0  0
  -25.8480  -32.4190   23.9080 C   0  0  0  0  0  3  0  0  0  0  0  0
  -25.4990  -33.8080   24.2320 N   0  0  0  0  0  0  0  0  0  0  0  0
  -25.8410  -34.8690   23.4890 C   0  0  0  0  0  0  0  0  0  0  0  0
  -26.5550  -34.7840   22.4860 O   0  0  0  0  0  0  0  0  0  0  0  0
  -24.8710  -33.9480   25.0100 H   0  0  0  0  0  0  0  0  0  0  0  0
  -24.0970  -36.6280   23.0590 C   0  0  0  0  0  1  0  0  0  0  0  0
  -25.3050  -36.2440   23.9270 C   0  0  0  0  0  3  0  0  0  0  0  0
  -27.3750  -37.1680   24.8680 C   0  0  0  0  0  1  0  0  0  0  0  0
  -26.3200  -37.3180   23.8700 N   0  0  0  0  0  0  0  0  0  0  0  0
  -25.8880  -38.2290   24.0030 H   0  0  0  0  0  0  0  0  0  0  0  0
  -26.3280  -31.6480   25.1990 C   0  0  1  0  0  0  0  0  0  0  0  0
  -25.1960  -31.3770   26.2170 C   0  0  0  0  0  1  0  0  0  0  0  0
  -26.9560  -30.2880   24.8140 C   0  0  0  0  0  1  0  0  0  0  0  0
  -27.4320  -32.4590   25.9150 C   0  0  0  0  0  1  0  0  0  0  0  0
  1  3  2  0
  2  4  2  0
  4  3  1  0
  5  2  1  0
  5  1  1  0
  6  7  1  0
  7  5  1  0
  8  1  1  0
  9  8  1  0
 10 18  1  0
 11 16  1  0
 12 13  1  0
 12 11  1  0
 14 13  1  0
 14 23  1  0
 14 15  1  0
 16 10  1  0
 16 15  1  0
 17 10  2  0
 18  9  1  0
 18 19  1  0
 20 21  2  0
 21 40  1  0
 22 21  1  0
 22 25  1  0
 23 20  1  0
 23 24  1  0
 24 22  2  0
 25 26  1  0
 26 27  2  0
 28 31  1  0
 28 27  1  0
 29 28  2  0
 30 29  1  0
 30 25  2  0
 31 32  1  0
 32 37  2  0
 32 33  1  0
 33 34  2  0
 34 35  1  0
 35 39  1  0
 36 35  2  0
 37 36  1  0
 38 37  1  0
 40 41  1  0
 41 44  1  0
 41 43  1  0
 42 40  2  0
 45 46  1  0
 45 20  1  0
 47 45  1  0
 48 50  1  0
 48  2  1  0
 50 49  1  0
 51 52  1  0
 51 50  1  0
 53 52  1  0
 54 65  2  0
 55 53  1  0
 55 60  1  0
 56 64  1  0
 56 66  1  0
 57 63  1  0
 57 59  1  0
 58 64  1  0
 59 60  2  0
 59 58  1  0
 61 55  2  0
 62 61  1  0
 62 57  2  0
 63 56  1  0
 64 54  1  0
 66 68  2  0
 67 66  1  0
 69 67  1  0
 70 79  2  0
 70 75  1  0
 71 67  1  0
 71 75  1  0
 72 71  1  0
 73 74  1  0
 73 72  1  0
 74 70  1  0
 75 76  2  0
 76 77  1  0
 78 77  2  0
 79 78  1  0
 80 54  1  0
 80 81  1  0
 80 90  1  0
 81 84  1  0
 82 86  1  0
 82 81  1  0
 83 82  2  0
 86 85  1  0
 88 86  1  0
 88 89  1  0
 88 87  1  0
 90 93  1  1
 90 91  1  0
 92 90  1  0
M  ISO  4  10 100  18 100  52 101  53 101
M  END
>  <TORSDO>  (17) 
F 23

>  <SCORE>  (17) 
-12.385

>  <name>  (17) 
16

>  <ligand_id>  (17) 
16

>  <original_smiles>  (17) 
[H]c1c([H])c([H])c2c(c1[H])C([H])([H])C([H])([H])C([H])([H])C2([H])N([H])C(=O)C1([H])N(C(=O)C([H])(N([H])C(=O)C([H])(N([H])C([H])([H])[H])C([H])([H])[H])C(C([H])([H])[H])(C([H])([H])[H])C([H])([H])[H])C([H])([H])c2c([H])c(OC([H])([H])C([H])([H])C([H])(C([H])([H])[H])C([H])([H])c3nnc(C([H])([H])C([H])([H])N([H])C(=O)N4C([H])([H])C([H])([H])C([H])([H])C([H])(n5nc(-c6c([H])c([H])c(Oc7c([H])c([H])c(F)c([H])c7F)c([H])c6[H])c(C(=O)N([H])[H])c5N([H])[H])C4([H])[H])n3C([H])([H])C([H])([H])[H])c([H])c([H])c2C1([H])[H]

>  <smiles>  (17) 
[H]c1c([H])c([H])c2c(c1[H])C([H])([H])C([H])([H])C([H])([H])C2([H])N([H])C(=O)C1([H])N(C(=O)C([H])(N([H])C(=O)C([H])(N([H])C([H])([H])[H])C([H])([H])[H])C(C([H])([H])[H])(C([H])([H])[H])C([H])([H])[H])C([H])([H])c2c([H])c(OC([H])([H])C([H])([H])C([H])(C([H])([H])[H])C([H])([H])c3nnc(C([H])([H])C([H])([H])N([H])C(=O)N4C([H])([H])C([H])([H])C([H])([H])C([H])(n5nc(-c6c([H])c([H])c(Oc7c([H])c([H])c(F)c([H])c7F)c([H])c6[H])c(C(=O)N([H])[H])c5N([H])[H])C4([H])[H])n3C([H])([H])C([H])([H])[H])c([H])c([H])c2C1([H])[H]

$$$$
17:0:0
     RDKit          3D

 93101  0  0  1  0  0  0  0  0999 V2000
  -29.5380  -22.0400   21.7610 C   0  0  0  0  0  3  0  0  0  0  0  0
  -29.4330  -20.7490   19.7480 C   0  0  0  0  0  3  0  0  0  0  0  0
  -29.2500  -22.0790   20.3800 C   0  0  0  0  0  0  0  0  0  0  0  0
  -29.9330  -20.8410   22.3990 C   0  0  0  0  0  0  0  0  0  0  0  0
  -29.8380  -19.5130   20.4590 C   0  0  0  0  0  0  0  0  0  0  0  0
  -30.3590  -20.8620   23.8520 C   0  0  0  0  0  1  0  0  0  0  0  0
  -30.0370  -19.6380   21.7880 N   0  0  0  0  0  0  0  0  0  0  0  0
  -28.1200  -23.3040   18.4010 C   0  0  0  0  0  1  0  0  0  0  0  0
  -30.3350  -24.0660   19.2230 C   0  0  0  0  0  1  0  0  0  0  0  0
  -28.9550  -23.5460   19.6710 C   0  0  2  0  0  0  0  0  0  0  0  0
  -28.2240  -24.8380   20.4680 C   0  0  0  0  0  2  0  0  0  0  0  0
  -28.3670  -26.3550   20.1410 O   0  0  0  0  0  0  0  0  0  0  0  0
  -24.6130  -31.9210   23.1870 C   0  0  0  0  0  0  0  0  0  0  0  0
  -27.2640  -27.2740   20.1510 C   0  0  0  0  0  0  0  0  0  0  0  0
  -23.4250  -30.4990   21.5570 C   0  0  0  0  0  3  0  0  0  0  0  0
  -24.8950  -28.9500   20.1280 C   0  0  0  0  0  0  0  0  0  0  0  0
  -25.9690  -30.8280   21.3640 C   0  0  0  0  0  2  0  0  0  0  0  0
  -26.0700  -29.4340   20.7210 C   0  0  0  0  0  0  0  0  0  0  0  0
  -27.2570  -28.6130   20.7100 C   0  0  0  0  0  3  0  0  0  0  0  0
  -26.0590  -26.8770   19.5320 C   0  0  0  0  0  3  0  0  0  0  0  0
  -24.8990  -27.6850   19.5180 C   0  0  0  0  0  3  0  0  0  0  0  0
  -23.6480  -29.8200   20.1790 C   0  0  0  0  0  2  0  0  0  0  0  0
  -24.6890  -31.1050   22.0910 N   0  0  0  0  0  0  0  0  0  0  0  0
  -23.5250  -32.1880   23.7250 O   0  0  0  0  0  0  0  0  0  0  0  0
  -22.7750  -29.4830   22.5270 C   0  0  0  0  0  0  0  0  0  0  0  0
  -21.4550  -29.2670   22.3930 N   0  0  0  0  0  0  0  0  0  0  0  0
  -23.4620  -28.8880   23.3620 O   0  0  0  0  0  0  0  0  0  0  0  0
  -20.9570  -29.8020   21.6970 H   0  0  0  0  0  0  0  0  0  0  0  0
  -18.1220  -27.9130   22.8310 C   0  0  0  0  0  0  0  0  0  0  0  0
  -20.6550  -28.3130   23.1650 C   0  0  0  0  0  3  0  0  0  0  0  0
  -20.8450  -26.8710   22.6390 C   0  0  0  0  0  2  0  0  0  0  0  0
  -19.7920  -26.4640   21.6020 C   0  0  0  0  0  2  0  0  0  0  0  0
  -18.3870  -26.5550   22.2030 C   0  0  0  0  0  2  0  0  0  0  0  0
  -19.1880  -28.7450   23.2690 C   0  0  0  0  0  0  0  0  0  0  0  0
  -18.8880  -30.0090   23.8180 C   0  0  0  0  0  3  0  0  0  0  0  0
  -17.5560  -30.4500   23.9330 C   0  0  0  0  0  3  0  0  0  0  0  0
  -16.5050  -29.6170   23.5140 C   0  0  0  0  0  3  0  0  0  0  0  0
  -16.7880  -28.3520   22.9680 C   0  0  0  0  0  3  0  0  0  0  0  0
  -25.8840  -32.5790   23.8060 C   0  0  0  0  0  3  0  0  0  0  0  0
  -26.4160  -31.8150   25.0810 C   0  0  1  0  0  0  0  0  0  0  0  0
  -25.3200  -31.5420   26.1380 C   0  0  0  0  0  1  0  0  0  0  0  0
  -27.0430  -30.4590   24.6860 C   0  0  0  0  0  1  0  0  0  0  0  0
  -27.5370  -32.6390   25.7520 C   0  0  0  0  0  1  0  0  0  0  0  0
  -25.5500  -33.9710   24.1410 N   0  0  0  0  0  0  0  0  0  0  0  0
  -25.8740  -35.0360   23.3950 C   0  0  0  0  0  0  0  0  0  0  0  0
  -26.5520  -34.9480   22.3670 O   0  0  0  0  0  0  0  0  0  0  0  0
  -24.9470  -34.1110   24.9380 H   0  0  0  0  0  0  0  0  0  0  0  0
  -24.1280  -36.8130   23.0390 C   0  0  0  0  0  1  0  0  0  0  0  0
  -25.3670  -36.4150   23.8600 C   0  0  0  0  0  3  0  0  0  0  0  0
  -27.4820  -37.3160   24.7240 C   0  0  0  0  0  1  0  0  0  0  0  0
  -26.3890  -37.4810   23.7700 N   0  0  0  0  0  0  0  0  0  0  0  0
  -25.9720  -38.3930   23.9220 H   0  0  0  0  0  0  0  0  0  0  0  0
  -28.7490  -17.6190   19.0840 C   0  0  0  0  0  1  0  0  0  0  0  0
  -30.0380  -17.9810   19.8430 C   0  0  0  0  0  3  0  0  0  0  0  0
  -29.5490  -16.3480   21.8400 C   0  0  0  0  0  1  0  0  0  0  0  0
  -31.8820  -17.0210   21.4050 C   0  0  0  0  0  1  0  0  0  0  0  0
  -30.5620  -16.6020   20.7010 C   0  0  2  0  0  0  0  0  0  0  0  0
  -30.9940  -15.1400   19.9740 C   0  0  0  0  0  0  0  0  0  0  0  0
  -30.7420  -12.8200   18.9520 C   0  0  0  0  0  2  0  0  0  0  0  0
  -29.7400  -12.8550   17.7730 C   0  0  0  0  0  2  0  0  0  0  0  0
  -28.2930  -12.6700   18.2630 C   0  0  0  0  0  2  0  0  0  0  0  0
  -27.9920  -13.5310   19.5190 C   0  0  0  0  0  3  0  0  0  0  0  0
  -29.1140  -13.4150   20.5740 C   0  0  0  0  0  2  0  0  0  0  0  0
  -30.3600  -13.8850   19.9390 N   0  0  0  0  0  0  0  0  0  0  0  0
  -32.0850  -15.1630   19.3940 O   0  0  0  0  0  0  0  0  0  0  0  0
  -25.6700  -14.1480   20.4050 C   0  0  0  0  0  0  0  0  0  0  0  0
  -24.6080  -13.3920   20.8110 C   0  0  0  0  0  0  0  0  0  0  0  0
  -25.0280  -12.0310   20.7030 C   0  0  0  0  0  0  0  0  0  0  0  0
  -26.6730  -13.2540   20.0720 N   0  0  0  0  0  0  0  0  0  0  0  0
  -26.2960  -11.9710   20.3080 N   0  0  0  0  0  0  0  0  0  0  0  0
  -24.2770  -10.7860   20.8950 C   0  0  0  0  0  0  0  0  0  0  0  0
  -24.6840   -9.8150   21.8370 C   0  0  0  0  0  3  0  0  0  0  0  0
  -23.9310   -8.6350   22.0180 C   0  0  0  0  0  3  0  0  0  0  0  0
  -22.7600   -8.4130   21.2530 C   0  0  0  0  0  0  0  0  0  0  0  0
  -22.3730   -9.3720   20.2990 C   0  0  0  0  0  3  0  0  0  0  0  0
  -23.1250  -10.5450   20.1170 C   0  0  0  0  0  3  0  0  0  0  0  0
  -21.9830   -7.2820   21.3420 O   0  0  0  0  0  0  0  0  0  0  0  0
  -21.8290   -6.6050   22.5250 C   0  0  0  0  0  0  0  0  0  0  0  0
  -21.3050   -7.2320   23.6770 C   0  0  0  0  0  3  0  0  0  0  0  0
  -21.0970   -6.4840   24.8520 C   0  0  0  0  0  3  0  0  0  0  0  0
  -21.4010   -5.1090   24.8760 C   0  0  0  0  0  0  0  0  0  0  0  0
  -21.9190   -4.4820   23.7290 C   0  0  0  0  0  3  0  0  0  0  0  0
  -22.1280   -5.2280   22.5550 C   0  0  0  0  0  0  0  0  0  0  0  0
  -22.6060   -4.6140   21.4450 F   0  0  0  0  0  0  0  0  0  0  0  0
  -21.1960   -4.3880   26.0030 F   0  0  0  0  0  0  0  0  0  0  0  0
  -23.2460  -13.8990   21.1890 C   0  0  0  0  0  0  0  0  0  0  0  0
  -22.5610  -13.2040   22.0870 N   0  0  0  0  0  0  0  0  0  0  0  0
  -22.8020  -14.9500   20.7240 O   0  0  0  0  0  0  0  0  0  0  0  0
  -22.9320  -12.3540   22.4850 H   0  0  0  0  0  0  0  0  0  0  0  0
  -21.6540  -13.5340   22.3880 H   0  0  0  0  0  0  0  0  0  0  0  0
  -25.8620  -15.5200   20.2680 N   0  0  0  0  0  0  0  0  0  0  0  0
  -25.1370  -16.1920   20.4930 H   0  0  0  0  0  0  0  0  0  0  0  0
  -26.6910  -15.9410   19.8740 H   0  0  0  0  0  0  0  0  0  0  0  0
  1  4  1  0
  2  3  1  0
  2  5  2  0
  3  1  2  0
  4  6  1  0
  5  7  1  0
  7  4  2  0
 10  8  1  6
  9 10  1  0
 10  3  1  0
 10 11  1  0
 12 14  1  0
 12 11  1  0
 13 24  2  0
 14 19  1  0
 15 23  1  0
 15 25  1  0
 16 22  1  0
 16 18  1  0
 17 23  1  0
 18 17  1  0
 19 18  2  0
 20 14  2  0
 21 20  1  0
 21 16  2  0
 22 15  1  0
 23 13  1  0
 25 27  2  0
 26 25  1  0
 28 26  1  0
 29 38  2  0
 29 34  1  0
 30 26  1  0
 30 34  1  0
 31 30  1  0
 32 33  1  0
 32 31  1  0
 33 29  1  0
 34 35  2  0
 35 36  1  0
 37 36  2  0
 38 37  1  0
 39 13  1  0
 39 44  1  0
 39 40  1  0
 40 43  1  1
 40 41  1  0
 42 40  1  0
 44 47  1  0
 45 49  1  0
 45 44  1  0
 46 45  2  0
 49 48  1  0
 51 49  1  0
 51 52  1  0
 51 50  1  0
 54 53  1  0
 54  5  1  0
 54 57  1  0
 57 56  1  1
 57 55  1  0
 58 57  1  0
 59 64  1  0
 60 61  1  0
 60 59  1  0
 62 61  1  0
 62 69  1  0
 62 63  1  0
 64 58  1  0
 64 63  1  0
 65 58  2  0
 66 67  2  0
 67 86  1  0
 68 67  1  0
 68 71  1  0
 69 70  1  0
 69 66  1  0
 70 68  2  0
 71 72  1  0
 72 73  2  0
 74 77  1  0
 74 73  1  0
 75 74  2  0
 76 75  1  0
 76 71  2  0
 77 78  1  0
 78 83  2  0
 78 79  1  0
 79 80  2  0
 80 81  1  0
 81 85  1  0
 82 81  2  0
 83 82  1  0
 84 83  1  0
 86 87  1  0
 87 90  1  0
 87 89  1  0
 88 86  2  0
 91 66  1  0
 91 92  1  0
 93 91  1  0
M  ISO  4  11 101  12 101  57 100  58 100
M  END
>  <TORSDO>  (18) 
F 20

>  <SCORE>  (18) 
-13.134

>  <name>  (18) 
17

>  <ligand_id>  (18) 
17

>  <original_smiles>  (18) 
[H]c1c([H])c([H])c2c(c1[H])C([H])([H])C([H])([H])C([H])([H])C2([H])N([H])C(=O)C1([H])N(C(=O)C([H])(N([H])C(=O)C([H])(N([H])C([H])([H])[H])C([H])([H])[H])C(C([H])([H])[H])(C([H])([H])[H])C([H])([H])[H])C([H])([H])c2c([H])c(OC([H])([H])C(c3c([H])c(C([H])([H])[H])nc(C([H])(C([H])([H])[H])C(C(=O)N4C([H])([H])C([H])([H])C([H])([H])C([H])(n5nc(-c6c([H])c([H])c(Oc7c([H])c([H])c(F)c([H])c7F)c([H])c6[H])c(C(=O)N([H])[H])c5N([H])[H])C4([H])[H])(C([H])([H])[H])C([H])([H])[H])c3[H])(C([H])([H])[H])C([H])([H])[H])c([H])c([H])c2C1([H])[H]

>  <smiles>  (18) 
[H]c1c([H])c([H])c2c(c1[H])C([H])([H])C([H])([H])C([H])([H])C2([H])N([H])C(=O)C1([H])N(C(=O)C([H])(N([H])C(=O)C([H])(N([H])C([H])([H])[H])C([H])([H])[H])C(C([H])([H])[H])(C([H])([H])[H])C([H])([H])[H])C([H])([H])c2c([H])c(OC([H])([H])C(c3c([H])c(C([H])([H])[H])nc(C([H])(C([H])([H])[H])C(C(=O)N4C([H])([H])C([H])([H])C([H])([H])C([H])(n5nc(-c6c([H])c([H])c(Oc7c([H])c([H])c(F)c([H])c7F)c([H])c6[H])c(C(=O)N([H])[H])c5N([H])[H])C4([H])[H])(C([H])([H])[H])C([H])([H])[H])c3[H])(C([H])([H])[H])C([H])([H])[H])c([H])c([H])c2C1([H])[H]

$$$$
18:0:0
     RDKit          3D

 93101  0  0  1  0  0  0  0  0999 V2000
  -29.8110  -20.1200   19.4240 C   0  0  0  0  0  0  0  0  0  0  0  0
  -29.7950  -21.1040   20.4610 C   0  0  0  0  0  0  0  0  0  0  0  0
  -30.9610  -19.5560   21.7950 C   0  0  0  0  0  0  0  0  0  0  0  0
  -30.9590  -18.5550   20.7580 C   0  0  0  0  0  0  0  0  0  0  0  0
  -29.1750  -20.3850   18.0750 C   0  0  0  0  0  1  0  0  0  0  0  0
  -30.3720  -18.8770   19.5710 N   0  0  0  0  0  0  0  0  0  0  0  0
  -30.3730  -20.7860   21.6440 N   0  0  0  0  0  0  0  0  0  0  0  0
  -30.5710  -19.0610   24.2560 C   0  0  0  0  0  1  0  0  0  0  0  0
  -31.6060  -19.3930   23.1680 C   0  0  0  0  0  2  0  0  0  0  0  0
  -33.2390  -17.5330   20.3200 C   0  0  0  0  0  1  0  0  0  0  0  0
  -31.8060  -17.2190   20.8040 C   0  0  0  0  0  3  0  0  0  0  0  0
  -31.8690  -14.7400   19.9250 C   0  0  0  0  0  0  0  0  0  0  0  0
  -31.4270  -12.4620   19.0260 C   0  0  0  0  0  2  0  0  0  0  0  0
  -30.4750  -12.5510   17.8160 C   0  0  0  0  0  2  0  0  0  0  0  0
  -29.0030  -12.5560   18.2730 C   0  0  0  0  0  2  0  0  0  0  0  0
  -28.7360  -13.5430   19.4370 C   0  0  0  0  0  3  0  0  0  0  0  0
  -29.8020  -13.4100   20.5480 C   0  0  0  0  0  2  0  0  0  0  0  0
  -31.1160  -13.5970   19.9190 N   0  0  0  0  0  0  0  0  0  0  0  0
  -33.0250  -14.7230   19.5000 O   0  0  0  0  0  0  0  0  0  0  0  0
  -31.2500  -15.9040   20.3020 N   0  0  0  0  0  0  0  0  0  0  0  0
  -30.2580  -15.7970   20.4540 H   0  0  0  0  0  0  0  0  0  0  0  0
  -26.4470  -14.3930   20.2370 C   0  0  0  0  0  0  0  0  0  0  0  0
  -25.3110  -13.7390   20.6230 C   0  0  0  0  0  0  0  0  0  0  0  0
  -25.6150  -12.3450   20.5570 C   0  0  0  0  0  0  0  0  0  0  0  0
  -27.3780  -13.4070   19.9560 N   0  0  0  0  0  0  0  0  0  0  0  0
  -26.8850  -12.1670   20.2110 N   0  0  0  0  0  0  0  0  0  0  0  0
  -24.7530  -11.1700   20.7460 C   0  0  0  0  0  0  0  0  0  0  0  0
  -25.0670  -10.1630   21.6860 C   0  0  0  0  0  3  0  0  0  0  0  0
  -24.2120   -9.0540   21.8600 C   0  0  0  0  0  3  0  0  0  0  0  0
  -23.0240   -8.9440   21.0970 C   0  0  0  0  0  0  0  0  0  0  0  0
  -22.7280   -9.9380   20.1470 C   0  0  0  0  0  3  0  0  0  0  0  0
  -23.5830  -11.0380   19.9700 C   0  0  0  0  0  3  0  0  0  0  0  0
  -22.1480   -7.8890   21.1790 O   0  0  0  0  0  0  0  0  0  0  0  0
  -21.9520   -7.2060   22.3540 C   0  0  0  0  0  0  0  0  0  0  0  0
  -21.5290   -7.8590   23.5330 C   0  0  0  0  0  3  0  0  0  0  0  0
  -21.2730   -7.1100   24.6980 C   0  0  0  0  0  3  0  0  0  0  0  0
  -21.4300   -5.7100   24.6860 C   0  0  0  0  0  0  0  0  0  0  0  0
  -21.8490   -5.0600   23.5130 C   0  0  0  0  0  3  0  0  0  0  0  0
  -22.1080   -5.8050   22.3500 C   0  0  0  0  0  0  0  0  0  0  0  0
  -22.4880   -5.1690   21.2150 F   0  0  0  0  0  0  0  0  0  0  0  0
  -21.1810   -4.9910   25.8050 F   0  0  0  0  0  0  0  0  0  0  0  0
  -23.9860  -14.3670   20.9450 C   0  0  0  0  0  0  0  0  0  0  0  0
  -23.2180  -13.7550   21.8380 N   0  0  0  0  0  0  0  0  0  0  0  0
  -23.6460  -15.4360   20.4390 O   0  0  0  0  0  0  0  0  0  0  0  0
  -23.5110  -12.8890   22.2670 H   0  0  0  0  0  0  0  0  0  0  0  0
  -22.3280  -14.1570   22.0980 H   0  0  0  0  0  0  0  0  0  0  0  0
  -26.7600  -15.7410   20.0760 N   0  0  0  0  0  0  0  0  0  0  0  0
  -26.0670  -16.4680   20.2150 H   0  0  0  0  0  0  0  0  0  0  0  0
  -27.6220  -16.0880   19.6790 H   0  0  0  0  0  0  0  0  0  0  0  0
  -28.9370  -22.4220   20.4170 C   0  0  0  0  0  2  0  0  0  0  0  0
  -29.5580  -23.8840   20.5270 C   0  0  0  0  0  2  0  0  0  0  0  0
  -28.4820  -25.0200   20.2460 C   0  0  0  0  0  2  0  0  0  0  0  0
  -28.7250  -26.4780   20.3880 O   0  0  0  0  0  0  0  0  0  0  0  0
  -24.7610  -31.7550   23.3080 C   0  0  0  0  0  0  0  0  0  0  0  0
  -27.6030  -27.3190   20.2790 C   0  0  0  0  0  0  0  0  0  0  0  0
  -23.6500  -30.3410   21.6170 C   0  0  0  0  0  3  0  0  0  0  0  0
  -25.1890  -28.8580   20.2180 C   0  0  0  0  0  0  0  0  0  0  0  0
  -26.1830  -30.7390   21.5140 C   0  0  0  0  0  2  0  0  0  0  0  0
  -26.3250  -29.3720   20.8570 C   0  0  0  0  0  0  0  0  0  0  0  0
  -27.5350  -28.6140   20.8860 C   0  0  0  0  0  3  0  0  0  0  0  0
  -26.4470  -26.8770   19.5910 C   0  0  0  0  0  3  0  0  0  0  0  0
  -25.2540  -27.6160   19.5750 C   0  0  0  0  0  3  0  0  0  0  0  0
  -23.9230  -29.6900   20.2370 C   0  0  0  0  0  2  0  0  0  0  0  0
  -24.8810  -30.9620   22.2020 N   0  0  0  0  0  0  0  0  0  0  0  0
  -23.6540  -31.9930   23.8120 O   0  0  0  0  0  0  0  0  0  0  0  0
  -22.9940  -29.2890   22.5430 C   0  0  0  0  0  0  0  0  0  0  0  0
  -21.6840  -29.0530   22.3550 N   0  0  0  0  0  0  0  0  0  0  0  0
  -23.6620  -28.6920   23.3900 O   0  0  0  0  0  0  0  0  0  0  0  0
  -21.2010  -29.5910   21.6480 H   0  0  0  0  0  0  0  0  0  0  0  0
  -18.3520  -27.6810   22.6750 C   0  0  0  0  0  0  0  0  0  0  0  0
  -20.8740  -28.0780   23.0880 C   0  0  0  0  0  3  0  0  0  0  0  0
  -21.0830  -26.6490   22.5360 C   0  0  0  0  0  2  0  0  0  0  0  0
  -20.0610  -26.2590   21.4630 C   0  0  0  0  0  2  0  0  0  0  0  0
  -18.6380  -26.3370   22.0250 C   0  0  0  0  0  2  0  0  0  0  0  0
  -19.4030  -28.5050   23.1620 C   0  0  0  0  0  0  0  0  0  0  0  0
  -19.0840  -29.7580   23.7280 C   0  0  0  0  0  3  0  0  0  0  0  0
  -17.7470  -30.1890   23.8150 C   0  0  0  0  0  3  0  0  0  0  0  0
  -16.7100  -29.3630   23.3480 C   0  0  0  0  0  3  0  0  0  0  0  0
  -17.0140  -28.1130   22.7810 C   0  0  0  0  0  3  0  0  0  0  0  0
  -26.0040  -32.4180   23.9760 C   0  0  0  0  0  3  0  0  0  0  0  0
  -25.6400  -33.8020   24.3110 N   0  0  0  0  0  0  0  0  0  0  0  0
  -25.9530  -34.8730   23.5710 C   0  0  0  0  0  0  0  0  0  0  0  0
  -26.6480  -34.8050   22.5540 O   0  0  0  0  0  0  0  0  0  0  0  0
  -25.0150  -33.9260   25.0930 H   0  0  0  0  0  0  0  0  0  0  0  0
  -24.1660  -36.6120   23.2080 C   0  0  0  0  0  1  0  0  0  0  0  0
  -25.4100  -36.2410   24.0330 C   0  0  0  0  0  3  0  0  0  0  0  0
  -27.4990  -37.1930   24.9030 C   0  0  0  0  0  1  0  0  0  0  0  0
  -26.4040  -37.3300   23.9470 N   0  0  0  0  0  0  0  0  0  0  0  0
  -25.9620  -38.2330   24.0960 H   0  0  0  0  0  0  0  0  0  0  0  0
  -26.5100  -31.6480   25.2580 C   0  0  1  0  0  0  0  0  0  0  0  0
  -25.3930  -31.3580   26.2900 C   0  0  0  0  0  1  0  0  0  0  0  0
  -27.1500  -30.2940   24.8700 C   0  0  0  0  0  1  0  0  0  0  0  0
  -27.6130  -32.4720   25.9650 C   0  0  0  0  0  1  0  0  0  0  0  0
  1  6  2  0
  1  2  1  0
  2  7  2  0
  3  9  1  0
  4 11  1  0
  4  3  2  0
  5  1  1  0
  6  4  1  0
  7  3  1  0
  9  8  1  0
 11 10  1  0
 12 20  1  0
 13 18  1  0
 14 15  1  0
 14 13  1  0
 16 15  1  0
 16 25  1  0
 16 17  1  0
 18 12  1  0
 18 17  1  0
 19 12  2  0
 20 21  1  0
 20 11  1  0
 22 23  2  0
 23 42  1  0
 24 23  1  0
 24 27  1  0
 25 26  1  0
 25 22  1  0
 26 24  2  0
 27 28  1  0
 28 29  2  0
 30 33  1  0
 30 29  1  0
 31 30  2  0
 32 31  1  0
 32 27  2  0
 33 34  1  0
 34 35  1  0
 35 36  2  0
 37 36  1  0
 37 41  1  0
 38 37  2  0
 39 34  2  0
 39 38  1  0
 40 39  1  0
 42 43  1  0
 43 46  1  0
 43 45  1  0
 44 42  2  0
 47 48  1  0
 47 22  1  0
 49 47  1  0
 50  2  1  0
 50 51  1  0
 52 53  1  0
 52 51  1  0
 54 65  2  0
 55 53  1  0
 55 60  1  0
 56 64  1  0
 56 66  1  0
 57 63  1  0
 57 59  1  0
 58 64  1  0
 59 60  2  0
 59 58  1  0
 61 55  2  0
 62 61  1  0
 62 57  2  0
 63 56  1  0
 64 54  1  0
 66 68  2  0
 67 66  1  0
 69 67  1  0
 70 79  2  0
 70 75  1  0
 71 67  1  0
 71 75  1  0
 72 71  1  0
 73 74  1  0
 73 72  1  0
 74 70  1  0
 75 76  2  0
 76 77  1  0
 78 77  2  0
 79 78  1  0
 80 54  1  0
 80 81  1  0
 80 90  1  0
 81 84  1  0
 82 86  1  0
 82 81  1  0
 83 82  2  0
 86 85  1  0
 88 86  1  0
 88 89  1  0
 88 87  1  0
 90 93  1  1
 90 91  1  0
 92 90  1  0
M  ISO  4  12 100  20 100  52 101  53 101
M  END
>  <TORSDO>  (19) 
F 21

>  <SCORE>  (19) 
-11.417

>  <name>  (19) 
18

>  <ligand_id>  (19) 
18

>  <original_smiles>  (19) 
[H]c1c([H])c([H])c2c(c1[H])C([H])([H])C([H])([H])C([H])([H])C2([H])N([H])C(=O)C1([H])N(C(=O)C([H])(N([H])C(=O)C([H])(N([H])C([H])([H])[H])C([H])([H])[H])C(C([H])([H])[H])(C([H])([H])[H])C([H])([H])[H])C([H])([H])c2c([H])c(OC([H])([H])C([H])([H])C([H])([H])c3nc(C([H])([H])C([H])([H])[H])c(C([H])(N([H])C(=O)N4C([H])([H])C([H])([H])C([H])([H])C([H])(n5nc(-c6c([H])c([H])c(Oc7c([H])c([H])c(F)c([H])c7F)c([H])c6[H])c(C(=O)N([H])[H])c5N([H])[H])C4([H])[H])C([H])([H])[H])nc3C([H])([H])[H])c([H])c([H])c2C1([H])[H]

>  <smiles>  (19) 
[H]c1c([H])c([H])c2c(c1[H])C([H])([H])C([H])([H])C([H])([H])C2([H])N([H])C(=O)C1([H])N(C(=O)C([H])(N([H])C(=O)C([H])(N([H])C([H])([H])[H])C([H])([H])[H])C(C([H])([H])[H])(C([H])([H])[H])C([H])([H])[H])C([H])([H])c2c([H])c(OC([H])([H])C([H])([H])C([H])([H])c3nc(C([H])([H])C([H])([H])[H])c(C([H])(N([H])C(=O)N4C([H])([H])C([H])([H])C([H])([H])C([H])(n5nc(-c6c([H])c([H])c(Oc7c([H])c([H])c(F)c([H])c7F)c([H])c6[H])c(C(=O)N([H])[H])c5N([H])[H])C4([H])[H])C([H])([H])[H])nc3C([H])([H])[H])c([H])c([H])c2C1([H])[H]

$$$$
20:0:0
     RDKit          3D

 91 99  0  0  1  0  0  0  0  0999 V2000
  -29.9980  -21.7550   20.5690 C   0  0  0  0  0  2  0  0  0  0  0  0
  -29.2630  -22.9130   19.8310 C   0  0  0  0  0  2  0  0  0  0  0  0
  -30.8080  -24.9360   20.0670 C   0  0  0  0  0  1  0  0  0  0  0  0
  -29.4180  -24.3620   20.3880 C   0  0  0  0  0  3  0  0  0  0  0  0
  -28.2860  -25.2760   19.8330 C   0  0  0  0  0  2  0  0  0  0  0  0
  -28.3710  -26.6700   20.2000 O   0  0  0  0  0  0  0  0  0  0  0  0
  -24.6000  -31.8990   23.2450 C   0  0  0  0  0  0  0  0  0  0  0  0
  -27.2050  -27.4230   20.1540 C   0  0  0  0  0  0  0  0  0  0  0  0
  -23.3800  -30.5060   21.6080 C   0  0  0  0  0  3  0  0  0  0  0  0
  -24.8190  -28.9640   20.1740 C   0  0  0  0  0  0  0  0  0  0  0  0
  -25.9110  -30.8430   21.4050 C   0  0  0  0  0  2  0  0  0  0  0  0
  -25.9840  -29.4720   20.7600 C   0  0  0  0  0  0  0  0  0  0  0  0
  -27.1770  -28.7080   20.7490 C   0  0  0  0  0  3  0  0  0  0  0  0
  -26.0170  -26.9460   19.5440 C   0  0  0  0  0  3  0  0  0  0  0  0
  -24.8320  -27.7010   19.5620 C   0  0  0  0  0  3  0  0  0  0  0  0
  -23.5800  -29.8290   20.2270 C   0  0  0  0  0  2  0  0  0  0  0  0
  -24.6490  -31.0980   22.1430 N   0  0  0  0  0  0  0  0  0  0  0  0
  -23.5230  -32.1770   23.7890 O   0  0  0  0  0  0  0  0  0  0  0  0
  -22.7280  -29.4860   22.5700 C   0  0  0  0  0  0  0  0  0  0  0  0
  -21.4020  -29.3090   22.4460 N   0  0  0  0  0  0  0  0  0  0  0  0
  -23.4110  -28.8570   23.3830 O   0  0  0  0  0  0  0  0  0  0  0  0
  -20.9120  -29.8670   21.7600 H   0  0  0  0  0  0  0  0  0  0  0  0
  -18.0240  -28.1250   22.9480 C   0  0  0  0  0  0  0  0  0  0  0  0
  -20.5830  -28.3760   23.2190 C   0  0  0  0  0  3  0  0  0  0  0  0
  -20.6810  -26.9430   22.6460 C   0  0  0  0  0  2  0  0  0  0  0  0
  -19.5780  -26.6210   21.6330 C   0  0  0  0  0  2  0  0  0  0  0  0
  -18.1970  -26.7720   22.2770 C   0  0  0  0  0  2  0  0  0  0  0  0
  -19.1460  -28.8850   23.3750 C   0  0  0  0  0  0  0  0  0  0  0  0
  -18.9300  -30.1510   23.9620 C   0  0  0  0  0  3  0  0  0  0  0  0
  -17.6280  -30.6580   24.1250 C   0  0  0  0  0  3  0  0  0  0  0  0
  -16.5210  -29.8950   23.7130 C   0  0  0  0  0  3  0  0  0  0  0  0
  -16.7200  -28.6310   23.1300 C   0  0  0  0  0  3  0  0  0  0  0  0
  -25.8920  -32.5230   23.8590 C   0  0  0  0  0  3  0  0  0  0  0  0
  -25.5900  -33.9210   24.1950 N   0  0  0  0  0  0  0  0  0  0  0  0
  -25.9190  -34.9740   23.4350 C   0  0  0  0  0  0  0  0  0  0  0  0
  -26.5810  -34.8700   22.3980 O   0  0  0  0  0  0  0  0  0  0  0  0
  -24.9980  -34.0750   24.9990 H   0  0  0  0  0  0  0  0  0  0  0  0
  -24.1880  -36.7680   23.1040 C   0  0  0  0  0  1  0  0  0  0  0  0
  -25.4390  -36.3620   23.8990 C   0  0  0  0  0  3  0  0  0  0  0  0
  -27.5880  -37.2400   24.7000 C   0  0  0  0  0  1  0  0  0  0  0  0
  -26.4720  -37.4140   23.7730 N   0  0  0  0  0  0  0  0  0  0  0  0
  -26.0700  -38.3340   23.9290 H   0  0  0  0  0  0  0  0  0  0  0  0
  -26.4170  -31.7450   25.1280 C   0  0  1  0  0  0  0  0  0  0  0  0
  -25.3300  -31.5080   26.2040 C   0  0  0  0  0  1  0  0  0  0  0  0
  -26.9890  -30.3660   24.7240 C   0  0  0  0  0  1  0  0  0  0  0  0
  -27.5760  -32.5310   25.7830 C   0  0  0  0  0  1  0  0  0  0  0  0
  -29.9780  -20.4430   19.7300 C   0  0  0  0  0  2  0  0  0  0  0  0
  -29.6290  -18.0200   20.4530 C   0  0  0  0  0  3  0  0  0  0  0  0
  -30.3860  -17.0370   21.0560 C   0  0  0  0  0  0  0  0  0  0  0  0
  -31.5870  -18.9320   20.9400 C   0  0  0  0  0  3  0  0  0  0  0  0
  -32.7400  -19.8740   21.0700 C   0  0  0  0  0  1  0  0  0  0  0  0
  -30.3820  -19.1740   20.3950 N   0  0  0  0  0  0  0  0  0  0  0  0
  -31.5800  -17.6540   21.3520 N   0  0  0  0  0  0  0  0  0  0  0  0
  -32.3660  -17.2070   21.8110 H   0  0  0  0  0  0  0  0  0  0  0  0
  -30.0460  -15.6040   21.4370 C   0  0  0  0  0  2  0  0  0  0  0  0
  -30.6600  -14.4890   20.5380 C   0  0  0  0  0  0  0  0  0  0  0  0
  -30.3550  -12.3640   19.2890 C   0  0  0  0  0  2  0  0  0  0  0  0
  -29.3930  -12.5860   18.1030 C   0  0  0  0  0  2  0  0  0  0  0  0
  -27.9230  -12.4440   18.5460 C   0  0  0  0  0  2  0  0  0  0  0  0
  -27.6050  -13.2590   19.8280 C   0  0  0  0  0  3  0  0  0  0  0  0
  -28.6690  -12.9840   20.9150 C   0  0  0  0  0  2  0  0  0  0  0  0
  -29.9870  -13.3160   20.3490 N   0  0  0  0  0  0  0  0  0  0  0  0
  -31.7410  -14.7060   19.9770 O   0  0  0  0  0  0  0  0  0  0  0  0
  -25.2100  -13.8840   20.5380 C   0  0  0  0  0  0  0  0  0  0  0  0
  -24.1380  -13.1200   20.9140 C   0  0  0  0  0  0  0  0  0  0  0  0
  -24.5900  -11.7650   20.8820 C   0  0  0  0  0  0  0  0  0  0  0  0
  -26.2510  -12.9960   20.3090 N   0  0  0  0  0  0  0  0  0  0  0  0
  -25.8790  -11.7170   20.5700 N   0  0  0  0  0  0  0  0  0  0  0  0
  -23.8560  -10.5080   21.0780 C   0  0  0  0  0  0  0  0  0  0  0  0
  -24.3030   -9.5270   21.9900 C   0  0  0  0  0  3  0  0  0  0  0  0
  -23.5720   -8.3340   22.1740 C   0  0  0  0  0  3  0  0  0  0  0  0
  -22.3790   -8.1140   21.4450 C   0  0  0  0  0  0  0  0  0  0  0  0
  -21.9510   -9.0830   20.5220 C   0  0  0  0  0  3  0  0  0  0  0  0
  -22.6820  -10.2680   20.3360 C   0  0  0  0  0  3  0  0  0  0  0  0
  -21.6180   -6.9740   21.5400 O   0  0  0  0  0  0  0  0  0  0  0  0
  -21.6070   -6.2070   22.6780 C   0  0  0  0  0  0  0  0  0  0  0  0
  -21.2560   -6.7450   23.9350 C   0  0  0  0  0  3  0  0  0  0  0  0
  -21.1900   -5.9060   25.0650 C   0  0  0  0  0  3  0  0  0  0  0  0
  -21.4670   -4.5310   24.9400 C   0  0  0  0  0  0  0  0  0  0  0  0
  -21.8110   -3.9930   23.6870 C   0  0  0  0  0  3  0  0  0  0  0  0
  -21.8780   -4.8290   22.5590 C   0  0  0  0  0  0  0  0  0  0  0  0
  -22.1900   -4.3030   21.3510 F   0  0  0  0  0  0  0  0  0  0  0  0
  -21.3960   -3.7240   26.0230 F   0  0  0  0  0  0  0  0  0  0  0  0
  -22.7440  -13.6060   21.1910 C   0  0  0  0  0  0  0  0  0  0  0  0
  -22.0180  -12.9190   22.0650 N   0  0  0  0  0  0  0  0  0  0  0  0
  -22.3090  -14.6320   20.6690 O   0  0  0  0  0  0  0  0  0  0  0  0
  -22.3820  -12.0890   22.5120 H   0  0  0  0  0  0  0  0  0  0  0  0
  -21.0830  -13.2250   22.2930 H   0  0  0  0  0  0  0  0  0  0  0  0
  -25.3820  -15.2520   20.3540 N   0  0  0  0  0  0  0  0  0  0  0  0
  -24.6140  -15.9070   20.4520 H   0  0  0  0  0  0  0  0  0  0  0  0
  -26.2240  -15.6840   19.9970 H   0  0  0  0  0  0  0  0  0  0  0  0
  2  4  1  0
  2  1  1  0
  4  3  1  0
  5  6  1  0
  5  4  1  0
  7 18  2  0
  8  6  1  0
  8 13  1  0
  9 17  1  0
  9 19  1  0
 10 16  1  0
 10 12  1  0
 11 17  1  0
 12 11  1  0
 13 12  2  0
 14 15  1  0
 14  8  2  0
 15 10  2  0
 16  9  1  0
 17  7  1  0
 19 21  2  0
 20 19  1  0
 22 20  1  0
 23 32  2  0
 23 28  1  0
 24 20  1  0
 24 28  1  0
 25 24  1  0
 26 27  1  0
 26 25  1  0
 27 23  1  0
 28 29  2  0
 29 30  1  0
 31 30  2  0
 32 31  1  0
 33  7  1  0
 33 34  1  0
 33 43  1  0
 34 37  1  0
 35 39  1  0
 35 34  1  0
 36 35  2  0
 39 38  1  0
 41 39  1  0
 41 42  1  0
 41 40  1  0
 43 46  1  1
 43 44  1  0
 45 43  1  0
 47 52  1  0
 47  1  1  0
 48 49  2  0
 49 53  1  0
 49 55  1  0
 50 51  1  0
 50 53  1  0
 52 48  1  0
 52 50  1  0
 53 54  1  0
 56 55  1  0
 57 62  1  0
 58 59  1  0
 58 57  1  0
 60 59  1  0
 60 67  1  0
 60 61  1  0
 62 56  1  0
 62 61  1  0
 63 56  2  0
 64 65  2  0
 65 84  1  0
 66 65  1  0
 66 69  1  0
 67 64  1  0
 67 68  1  0
 68 66  2  0
 69 70  1  0
 70 71  2  0
 72 75  1  0
 72 71  1  0
 73 72  2  0
 74 73  1  0
 74 69  2  0
 75 76  1  0
 76 77  1  0
 77 78  2  0
 79 78  1  0
 79 83  1  0
 80 79  2  0
 81 76  2  0
 81 80  1  0
 82 81  1  0
 84 85  1  0
 85 88  1  0
 85 87  1  0
 86 84  2  0
 89 90  1  0
 89 64  1  0
 91 89  1  0
M  ISO  4   5 101   6 101  55 100  56 100
M  END
>  <TORSDO>  (20) 
F 22

>  <SCORE>  (20) 
-13.256

>  <name>  (20) 
20

>  <ligand_id>  (20) 
20

>  <original_smiles>  (20) 
[H]c1c([H])c([H])c2c(c1[H])C([H])([H])C([H])([H])C([H])([H])C2([H])N([H])C(=O)C1([H])N(C(=O)C([H])(N([H])C(=O)C([H])(N([H])C([H])([H])[H])C([H])([H])[H])C(C([H])([H])[H])(C([H])([H])[H])C([H])([H])[H])C([H])([H])c2c([H])c(OC([H])([H])C([H])(C([H])([H])[H])C([H])([H])C([H])([H])C([H])([H])n3c([H])c(C([H])([H])C(=O)N4C([H])([H])C([H])([H])C([H])([H])C([H])(n5nc(-c6c([H])c([H])c(Oc7c([H])c([H])c(F)c([H])c7F)c([H])c6[H])c(C(=O)N([H])[H])c5N([H])[H])C4([H])[H])[n+]([H])c3C([H])([H])[H])c([H])c([H])c2C1([H])[H]

>  <smiles>  (20) 
[H]c1c([H])c([H])c2c(c1[H])C([H])([H])C([H])([H])C([H])([H])C2([H])N([H])C(=O)C1([H])N(C(=O)C([H])(N([H])C(=O)C([H])(N([H])C([H])([H])[H])C([H])([H])[H])C(C([H])([H])[H])(C([H])([H])[H])C([H])([H])[H])C([H])([H])c2c([H])c(OC([H])([H])C([H])(C([H])([H])[H])C([H])([H])C([H])([H])C([H])([H])n3c([H])c(C([H])([H])C(=O)N4C([H])([H])C([H])([H])C([H])([H])C([H])(n5nc(-c6c([H])c([H])c(Oc7c([H])c([H])c(F)c([H])c7F)c([H])c6[H])c(C(=O)N([H])[H])c5N([H])[H])C4([H])[H])[n+]([H])c3C([H])([H])[H])c([H])c([H])c2C1([H])[H]

$$$$
21:0:0
     RDKit          3D

 94 93  0  0  1  0  0  0  0  0999 V2000
  -29.8060  -27.4560   16.6530 C   0  0  0  0  0 15  0  0  0  0  0  0
  -33.1600  -27.6000   15.7700 C   0  0  0  0  0  3  0  0  0  0  0  0
  -34.3030  -26.9710   14.8730 C   0  0  0  0  0  3  0  0  0  0  0  0
  -31.9360  -26.0780   14.9820 C   0  0  0  0  0  0  0  0  0  0  0  0
  -30.9080  -25.1140   14.5100 C   0  0  0  0  0  1  0  0  0  0  0  0
  -31.6340  -27.0650   15.8850 N   0  0  0  0  0  0  0  0  0  0  0  0
  -33.2760  -26.0470   14.4930 N   0  0  0  0  0  0  0  0  0  0  0  0
  -33.5140  -25.3330   13.8170 H   0  0  0  0  0  0  0  0  0  0  0  0
  -36.2160  -28.2690   13.6430 C   0  0  0  0  0  1  0  0  0  0  0  0
  -36.1720  -26.7510   13.9900 C   0  0  0  0  0  2  0  0  0  0  0  0
  -37.5930  -26.2600   12.5600 C   0  0  0  0  0  2  0  0  0  0  0  0
  -39.3220  -26.1230   10.3360 C   0  0  0  0  0  2  0  0  0  0  0  0
  -40.5920  -27.0520   10.2330 C   0  0  0  0  0  2  0  0  0  0  0  0
  -40.2020  -28.4760    9.8280 C   0  0  0  0  0  2  0  0  0  0  0  0
  -38.8920  -28.8440   10.5510 C   0  0  0  0  0  3  0  0  0  0  0  0
  -37.7520  -27.8220   10.4090 C   0  0  0  0  0  2  0  0  0  0  0  0
  -38.1400  -26.6890   11.2280 N   0  0  0  0  0  0  0  0  0  0  0  0
  -38.2020  -25.1420   12.6040 O   0  0  0  0  0  1  0  0  0  0  0  0
  -38.2750  -31.2030   11.1110 C   0  0  0  0  0  0  0  0  0  0  0  0
  -37.7570  -32.2220   10.3700 C   0  0  0  0  0  0  0  0  0  0  0  0
  -37.5560  -31.6970    9.0560 C   0  0  0  0  0  0  0  0  0  0  0  0
  -38.3850  -30.1450   10.2380 N   0  0  0  0  0  0  0  0  0  0  0  0
  -37.8800  -30.4120    9.0120 N   0  0  0  0  0  0  0  0  0  0  0  0
  -37.1350  -32.3630    7.8230 C   0  0  0  0  0  0  0  0  0  0  0  0
  -35.7770  -32.6540    7.5620 C   0  0  0  0  0  3  0  0  0  0  0  0
  -35.4080  -33.3180    6.3720 C   0  0  0  0  0  3  0  0  0  0  0  0
  -36.3990  -33.6960    5.4350 C   0  0  0  0  0  0  0  0  0  0  0  0
  -37.7450  -33.3820    5.6900 C   0  0  0  0  0  3  0  0  0  0  0  0
  -38.1100  -32.7170    6.8710 C   0  0  0  0  0  3  0  0  0  0  0  0
  -36.1330  -34.3230    4.2430 O   0  0  0  0  0  0  0  0  0  0  0  0
  -35.4980  -35.5380    4.1980 C   0  0  0  0  0  0  0  0  0  0  0  0
  -36.0690  -36.7000    4.7610 C   0  0  0  0  0  3  0  0  0  0  0  0
  -35.4150  -37.9410    4.6290 C   0  0  0  0  0  3  0  0  0  0  0  0
  -34.1970  -38.0230    3.9290 C   0  0  0  0  0  0  0  0  0  0  0  0
  -33.6300  -36.8700    3.3600 C   0  0  0  0  0  3  0  0  0  0  0  0
  -34.2810  -35.6300    3.4930 C   0  0  0  0  0  0  0  0  0  0  0  0
  -33.7410  -34.5230    2.9280 F   0  0  0  0  0  0  0  0  0  0  0  0
  -33.5720  -39.2170    3.7940 F   0  0  0  0  0  0  0  0  0  0  0  0
  -37.5640  -33.6290   10.8380 C   0  0  0  0  0  0  0  0  0  0  0  0
  -36.4060  -34.2130   10.5540 N   0  0  0  0  0  0  0  0  0  0  0  0
  -38.4240  -34.2000   11.5080 O   0  0  0  0  0  0  0  0  0  0  0  0
  -35.6940  -33.7320   10.0250 H   0  0  0  0  0  0  0  0  0  0  0  0
  -36.2280  -35.1550   10.8720 H   0  0  0  0  0  0  0  0  0  0  0  0
  -38.6820  -31.0880   12.4390 N   0  0  0  0  0  0  0  0  0  0  0  0
  -38.6820  -31.8850   13.0670 H   0  0  0  0  0  0  0  0  0  0  0  0
  -39.1480  -30.2780   12.8290 H   0  0  0  0  0  0  0  0  0  0  0  0
  -36.8830  -25.2480   16.0370 C   0  0  0  0  0  1  0  0  0  0  0  0
  -37.0890  -26.5420   15.2360 C   0  0  0  0  0  2  0  0  0  0  0  0
  -28.5370  -27.9510   18.3070 C   0  0  0  0  0 15  0  0  0  0  0  0
  -27.6900  -27.6030   20.2750 C   0  0  0  0  0 15  0  0  0  0  0  0
  -27.3690  -26.0500   21.9270 C   0  0  0  0  0 15  0  0  0  0  0  0
  -29.2190  -24.6520   22.6610 C   0  0  0  0  0 15  0  0  0  0  0  0
  -30.0310  -23.1540   21.2300 C   0  0  0  0  0 15  0  0  0  0  0  0
  -29.1980  -22.4080   19.6570 O   0  0  0  0  0  1  0  0  0  0  0  0
  -25.7150  -25.5300   16.7530 C   0  0  0  0  0  0  0  0  0  0  0  0
  -28.4190  -21.2540   19.1490 C   0  0  0  0  0  3  0  0  0  0  0  0
  -27.3030  -24.7530   18.4810 C   0  0  0  0  0  3  0  0  0  0  0  0
  -26.6170  -22.8310   19.9080 C   0  0  0  0  0  3  0  0  0  0  0  0
  -25.6440  -23.1950   17.6530 C   0  0  0  0  0  2  0  0  0  0  0  0
  -26.4230  -22.3420   18.6200 C   0  0  0  0  0  3  0  0  0  0  0  0
  -27.3440  -21.3820   18.2180 C   0  0  0  0  0  2  0  0  0  0  0  0
  -27.9710  -20.8450   20.3650 C   0  0  0  0  0  2  0  0  0  0  0  0
  -27.2450  -21.9590   20.8630 C   0  0  0  0  0  2  0  0  0  0  0  0
  -26.5770  -24.3440   19.8770 C   0  0  0  0  0  2  0  0  0  0  0  0
  -26.2390  -24.5340   17.5250 N   0  0  0  0  0  0  0  0  0  0  0  0
  -26.0170  -26.7390   16.8380 O   0  0  0  0  0  0  0  0  0  0  0  0
  -28.9190  -24.2410   17.9840 C   0  0  0  0  0  0  0  0  0  0  0  0
  -30.3970  -24.5290   18.6840 N   0  0  0  0  0  0  0  0  0  0  0  0
  -28.9060  -23.9860   16.8160 O   0  0  0  0  0  0  0  0  0  0  0  0
  -31.0540  -23.8880   18.2590 H   0  0  0  0  0  0  0  0  0  0  0  0
  -32.5660  -27.9130   21.0490 C   0  0  0  0  0  0  0  0  0  0  0  0
  -31.3700  -26.0530   19.2530 C   0  0  0  0  0  3  0  0  0  0  0  0
  -32.7270  -25.7090   18.9290 C   0  0  0  0  0  2  0  0  0  0  0  0
  -33.6830  -25.9560   20.0570 C   0  0  0  0  0  2  0  0  0  0  0  0
  -33.8000  -27.4390   20.3700 C   0  0  0  0  0  2  0  0  0  0  0  0
  -31.3370  -27.2780   20.6520 C   0  0  0  0  0  0  0  0  0  0  0  0
  -30.3090  -27.7820   21.6030 C   0  0  0  0  0  3  0  0  0  0  0  0
  -30.4830  -28.7870   22.6310 C   0  0  0  0  0  3  0  0  0  0  0  0
  -31.7320  -29.3840   22.8540 C   0  0  0  0  0  3  0  0  0  0  0  0
  -32.7740  -28.9140   22.0530 C   0  0  0  0  0  3  0  0  0  0  0  0
  -24.7740  -25.1060   15.6290 C   0  0  0  0  0  3  0  0  0  0  0  0
  -23.4250  -25.5550   15.9860 N   0  0  0  0  0  0  0  0  0  0  0  0
  -22.4420  -24.7320   16.3700 C   0  0  0  0  0  0  0  0  0  0  0  0
  -22.5710  -23.5050   16.4010 O   0  0  0  0  0  0  0  0  0  0  0  0
  -23.2750  -26.5510   16.0530 H   0  0  0  0  0  0  0  0  0  0  0  0
  -21.0740  -25.6710   18.2600 C   0  0  0  0  0  1  0  0  0  0  0  0
  -21.0990  -25.3730   16.7540 C   0  0  0  0  0  3  0  0  0  0  0  0
  -19.5580  -24.6580   14.9830 C   0  0  0  0  0  1  0  0  0  0  0  0
  -19.9330  -24.5390   16.3910 N   0  0  0  0  0  0  0  0  0  0  0  0
  -19.1260  -24.7810   16.9570 H   0  0  0  0  0  0  0  0  0  0  0  0
  -25.2560  -25.7290   14.2660 C   0  0  1  0  0  0  0  0  0  0  0  0
  -24.7690  -27.1790   14.0250 C   0  0  0  0  0  1  0  0  0  0  0  0
  -26.7970  -25.7310   14.1360 C   0  0  0  0  0  1  0  0  0  0  0  0
  -24.7440  -24.8320   13.1250 C   0  0  0  0  0  1  0  0  0  0  0  0
  2  6  1  0
  3  2  2  0
  4  6  2  0
  5  4  1  0
  7  3  1  0
  7  4  1  0
  8  7  1  0
  9 10  1  0
 10 48  1  0
 11 18  1  0
 12 17  1  0
 13 12  1  0
 14 13  1  0
 15 14  1  0
 16 15  1  0
 16 17  1  0
 17 11  1  0
 19 44  1  0
 20 39  1  0
 20 19  2  0
 21 20  1  0
 22 15  1  0
 22 19  1  0
 23 21  2  0
 23 22  1  0
 24 21  1  0
 25 24  1  0
 26 25  2  0
 27 28  2  0
 27 26  1  0
 28 29  1  0
 29 24  2  0
 30 27  1  0
 31 30  1  0
 31 32  1  0
 33 32  2  0
 34 33  1  0
 35 36  1  0
 35 34  2  0
 36 31  2  0
 37 36  1  0
 38 34  1  0
 39 41  2  0
 40 39  1  0
 40 43  1  0
 42 40  1  0
 44 46  1  0
 44 45  1  0
 48 47  1  0
 55 66  2  0
 55 65  1  0
 56 54  1  0
 56 62  1  0
 57 67  1  0
 57 64  1  0
 58 64  1  0
 58 63  1  0
 60 59  1  0
 60 58  1  0
 61 60  1  0
 61 56  1  0
 62 63  1  0
 65 59  1  0
 65 57  1  0
 67 68  1  0
 69 67  2  0
 70 68  1  0
 71 80  1  0
 72 68  1  0
 72 76  1  0
 73 72  1  0
 73 74  1  0
 74 75  1  0
 75 71  1  0
 76 71  2  0
 76 77  1  0
 77 78  2  0
 78 79  1  0
 80 79  2  0
 81 82  1  0
 81 55  1  0
 82 85  1  0
 82 83  1  0
 83 84  2  0
 83 87  1  0
 87 86  1  0
 88 89  1  0
 89 87  1  0
 89 90  1  0
 91 81  1  0
 91 92  1  6
 93 91  1  0
 94 91  1  0
M  ISO  4  10 100  11 100  53 101  54 101
M  END
>  <TORSDO>  (21) 
F 24

>  <SCORE>  (21) 
-4.717

>  <name>  (21) 
21

>  <ligand_id>  (21) 
21

>  <original_smiles>  (21) 
[H]c1c([H])c([H])c2c(c1[H])C([H])([H])C([H])([H])C([H])([H])C2([H])N([H])C(=O)C1([H])N(C(=O)C([H])(N([H])C(=O)C([H])(N([H])C([H])([H])[H])C([H])([H])[H])C(C([H])([H])[H])(C([H])([H])[H])C([H])([H])[H])C([H])([H])c2c([H])c(OC([H])([H])C([H])([H])C([H])([H])C([H])([H])C([H])([H])C([H])([H])n3c([H])c(C(C(=O)N4C([H])([H])C([H])([H])C([H])([H])C([H])(n5nc(-c6c([H])c([H])c(Oc7c([H])c([H])c(F)c([H])c7F)c([H])c6[H])c(C(=O)N([H])[H])c5N([H])[H])C4([H])[H])(C([H])([H])[H])C([H])([H])C([H])([H])[H])[n+]([H])c3C([H])([H])[H])c([H])c([H])c2C1([H])[H]

>  <smiles>  (21) 
[H]c1c([H])c([H])c2c(c1[H])C([H])([H])C([H])([H])C([H])([H])C2([H])N([H])C(=O)C1([H])N(C(=O)C([H])(N([H])C(=O)C([H])(N([H])C([H])([H])[H])C([H])([H])[H])C(C([H])([H])[H])(C([H])([H])[H])C([H])([H])[H])C([H])([H])c2c([H])c(OC([H])([H])C([H])([H])C([H])([H])C([H])([H])C([H])([H])C([H])([H])n3c([H])c(C(C(=O)N4C([H])([H])C([H])([H])C([H])([H])C([H])(n5nc(-c6c([H])c([H])c(Oc7c([H])c([H])c(F)c([H])c7F)c([H])c6[H])c(C(=O)N([H])[H])c5N([H])[H])C4([H])[H])(C([H])([H])[H])C([H])([H])C([H])([H])[H])[n+]([H])c3C([H])([H])[H])c([H])c([H])c2C1([H])[H]

$$$$
22:0:0
     RDKit          3D

 86 94  0  0  1  0  0  0  0  0999 V2000
  -28.5750  -21.7980   19.2070 C   0  0  0  0  0  2  0  0  0  0  0  0
  -28.9820  -21.8730   21.3610 C   0  0  0  0  0  3  0  0  0  0  0  0
  -29.0090  -20.8600   20.2760 C   0  0  0  0  0  0  0  0  0  0  0  0
  -28.1960  -24.0770   20.3080 C   0  0  0  0  0  0  0  0  0  0  0  0
  -28.2390  -23.2190   19.2130 N   0  0  0  0  0  0  0  0  0  0  0  0
  -28.6470  -23.2920   21.3680 N   0  0  0  0  0  0  0  0  0  0  0  0
  -28.2070  -25.6430   20.2870 O   0  0  0  0  0  0  0  0  0  0  0  0
  -24.6370  -31.8670   23.1840 C   0  0  0  0  0  0  0  0  0  0  0  0
  -27.1700  -26.7860   20.2560 C   0  0  0  0  0  0  0  0  0  0  0  0
  -23.4480  -30.4570   21.5560 C   0  0  0  0  0  3  0  0  0  0  0  0
  -24.8940  -28.7920   20.1670 C   0  0  0  0  0  0  0  0  0  0  0  0
  -26.0240  -30.6010   21.4390 C   0  0  0  0  0  2  0  0  0  0  0  0
  -26.0850  -29.1640   20.8030 C   0  0  0  0  0  0  0  0  0  0  0  0
  -27.2050  -28.1870   20.8170 C   0  0  0  0  0  3  0  0  0  0  0  0
  -25.9470  -26.6140   19.5580 C   0  0  0  0  0  3  0  0  0  0  0  0
  -24.8620  -27.5430   19.5220 C   0  0  0  0  0  3  0  0  0  0  0  0
  -23.6890  -29.7440   20.1930 C   0  0  0  0  0  2  0  0  0  0  0  0
  -24.7270  -31.0080   22.1120 N   0  0  0  0  0  0  0  0  0  0  0  0
  -23.5440  -32.1750   23.6900 O   0  0  0  0  0  0  0  0  0  0  0  0
  -22.7290  -29.4900   22.5340 C   0  0  0  0  0  0  0  0  0  0  0  0
  -21.3940  -29.3500   22.4140 N   0  0  0  0  0  0  0  0  0  0  0  0
  -23.3820  -28.8630   23.3710 O   0  0  0  0  0  0  0  0  0  0  0  0
  -20.9190  -29.9040   21.7160 H   0  0  0  0  0  0  0  0  0  0  0  0
  -17.9950  -28.1840   22.9470 C   0  0  0  0  0  0  0  0  0  0  0  0
  -20.5600  -28.4260   23.1940 C   0  0  0  0  0  3  0  0  0  0  0  0
  -20.6420  -26.9900   22.6250 C   0  0  0  0  0  2  0  0  0  0  0  0
  -19.5320  -26.6760   21.6180 C   0  0  0  0  0  2  0  0  0  0  0  0
  -18.1550  -26.8340   22.2690 C   0  0  0  0  0  2  0  0  0  0  0  0
  -19.1250  -28.9390   23.3670 C   0  0  0  0  0  0  0  0  0  0  0  0
  -18.9180  -30.1990   23.9660 C   0  0  0  0  0  3  0  0  0  0  0  0
  -17.6180  -30.7070   24.1470 C   0  0  0  0  0  3  0  0  0  0  0  0
  -16.5040  -29.9520   23.7410 C   0  0  0  0  0  3  0  0  0  0  0  0
  -16.6940  -28.6910   23.1470 C   0  0  0  0  0  3  0  0  0  0  0  0
  -25.9020  -32.5170   23.8220 C   0  0  0  0  0  3  0  0  0  0  0  0
  -25.5790  -33.9170   24.1610 N   0  0  0  0  0  0  0  0  0  0  0  0
  -25.8980  -34.9850   23.4170 C   0  0  0  0  0  0  0  0  0  0  0  0
  -26.5540  -34.8960   22.3780 O   0  0  0  0  0  0  0  0  0  0  0  0
  -24.9910  -34.0570   24.9690 H   0  0  0  0  0  0  0  0  0  0  0  0
  -24.1530  -36.7810   23.1280 C   0  0  0  0  0  1  0  0  0  0  0  0
  -25.4190  -36.3700   23.9000 C   0  0  0  0  0  3  0  0  0  0  0  0
  -27.5680  -37.2670   24.6850 C   0  0  0  0  0  1  0  0  0  0  0  0
  -26.4420  -37.4310   23.7690 N   0  0  0  0  0  0  0  0  0  0  0  0
  -26.0350  -38.3480   23.9290 H   0  0  0  0  0  0  0  0  0  0  0  0
  -26.4030  -31.7570   25.1120 C   0  0  1  0  0  0  0  0  0  0  0  0
  -25.2990  -31.5330   26.1740 C   0  0  0  0  0  1  0  0  0  0  0  0
  -26.9860  -30.3730   24.7510 C   0  0  0  0  0  1  0  0  0  0  0  0
  -27.5490  -32.5540   25.7790 C   0  0  0  0  0  1  0  0  0  0  0  0
  -29.7480  -19.1540   20.1770 C   0  0  0  0  0  2  0  0  0  0  0  0
  -27.9610  -17.1270   20.0300 C   0  0  0  0  0  1  0  0  0  0  0  0
  -29.4140  -17.2890   20.4550 C   0  0  0  0  0  3  0  0  0  0  0  0
  -30.2310  -15.6230   20.1930 C   0  0  0  0  0  0  0  0  0  0  0  0
  -30.3150  -13.0910   19.3420 C   0  0  0  0  0  2  0  0  0  0  0  0
  -29.3910  -12.7630   18.1320 C   0  0  0  0  0  2  0  0  0  0  0  0
  -27.9670  -12.4150   18.5940 C   0  0  0  0  0  2  0  0  0  0  0  0
  -27.4890  -13.3850   19.6990 C   0  0  0  0  0  3  0  0  0  0  0  0
  -28.5470  -13.6310   20.8010 C   0  0  0  0  0  2  0  0  0  0  0  0
  -29.7350  -14.2460   20.1610 N   0  0  0  0  0  0  0  0  0  0  0  0
  -31.4450  -15.5780   19.9230 O   0  0  0  0  0  0  0  0  0  0  0  0
  -25.1230  -13.8900   20.4940 C   0  0  0  0  0  0  0  0  0  0  0  0
  -24.0800  -13.1020   20.8820 C   0  0  0  0  0  0  0  0  0  0  0  0
  -24.5640  -11.7600   20.8360 C   0  0  0  0  0  0  0  0  0  0  0  0
  -26.1780  -13.0360   20.2350 N   0  0  0  0  0  0  0  0  0  0  0  0
  -25.8540  -11.7440   20.5050 N   0  0  0  0  0  0  0  0  0  0  0  0
  -23.8480  -10.4910   21.0270 C   0  0  0  0  0  0  0  0  0  0  0  0
  -24.2930   -9.5210   21.9510 C   0  0  0  0  0  3  0  0  0  0  0  0
  -23.5710   -8.3220   22.1330 C   0  0  0  0  0  3  0  0  0  0  0  0
  -22.3890   -8.0860   21.3910 C   0  0  0  0  0  0  0  0  0  0  0  0
  -21.9620   -9.0450   20.4560 C   0  0  0  0  0  3  0  0  0  0  0  0
  -22.6850  -10.2360   20.2720 C   0  0  0  0  0  3  0  0  0  0  0  0
  -21.6360   -6.9400   21.4840 O   0  0  0  0  0  0  0  0  0  0  0  0
  -21.5990   -6.1940   22.6350 C   0  0  0  0  0  0  0  0  0  0  0  0
  -21.1720   -6.7440   23.8640 C   0  0  0  0  0  3  0  0  0  0  0  0
  -21.0830   -5.9250   25.0070 C   0  0  0  0  0  3  0  0  0  0  0  0
  -21.4100   -4.5590   24.9230 C   0  0  0  0  0  0  0  0  0  0  0  0
  -21.8300   -4.0090   23.6990 C   0  0  0  0  0  3  0  0  0  0  0  0
  -21.9210   -4.8240   22.5570 C   0  0  0  0  0  0  0  0  0  0  0  0
  -22.3060   -4.2860   21.3750 F   0  0  0  0  0  0  0  0  0  0  0  0
  -21.3170   -3.7700   26.0190 F   0  0  0  0  0  0  0  0  0  0  0  0
  -22.6840  -13.5680   21.1720 C   0  0  0  0  0  0  0  0  0  0  0  0
  -21.9770  -12.8700   22.0530 N   0  0  0  0  0  0  0  0  0  0  0  0
  -22.2330  -14.5900   20.6560 O   0  0  0  0  0  0  0  0  0  0  0  0
  -22.3580  -12.0470   22.4930 H   0  0  0  0  0  0  0  0  0  0  0  0
  -21.0420  -13.1660   22.2930 H   0  0  0  0  0  0  0  0  0  0  0  0
  -25.2360  -15.2620   20.3070 N   0  0  0  0  0  0  0  0  0  0  0  0
  -24.4430  -15.8830   20.4240 H   0  0  0  0  0  0  0  0  0  0  0  0
  -26.0500  -15.7280   19.9290 H   0  0  0  0  0  0  0  0  0  0  0  0
  1  5  1  0
  1  3  1  0
  2  6  1  0
  3  2  2  0
  4  6  2  0
  5  4  2  0
  7  4  1  0
  8 19  2  0
  9  7  1  0
  9 14  1  0
 10 18  1  0
 10 20  1  0
 11 17  1  0
 11 13  1  0
 12 18  1  0
 13 14  2  0
 13 12  1  0
 15  9  2  0
 16 15  1  0
 16 11  2  0
 17 10  1  0
 18  8  1  0
 20 22  2  0
 21 20  1  0
 23 21  1  0
 24 33  2  0
 24 29  1  0
 25 21  1  0
 25 29  1  0
 26 25  1  0
 27 28  1  0
 27 26  1  0
 28 24  1  0
 29 30  2  0
 30 31  1  0
 32 31  2  0
 33 32  1  0
 34  8  1  0
 34 35  1  0
 34 44  1  0
 35 38  1  0
 36 40  1  0
 36 35  1  0
 37 36  2  0
 40 39  1  0
 42 40  1  0
 42 43  1  0
 42 41  1  0
 44 47  1  1
 44 45  1  0
 46 44  1  0
 48  3  1  0
 48 50  1  0
 50 49  1  0
 51 50  1  0
 52 57  1  0
 53 54  1  0
 53 52  1  0
 55 54  1  0
 55 62  1  0
 55 56  1  0
 57 51  1  0
 57 56  1  0
 58 51  2  0
 59 60  2  0
 60 79  1  0
 61 60  1  0
 61 64  1  0
 62 59  1  0
 62 63  1  0
 63 61  2  0
 64 65  1  0
 65 66  2  0
 67 70  1  0
 67 66  1  0
 68 67  2  0
 69 68  1  0
 69 64  2  0
 70 71  1  0
 71 72  1  0
 72 73  2  0
 74 73  1  0
 74 78  1  0
 75 74  2  0
 76 71  2  0
 76 75  1  0
 77 76  1  0
 79 80  1  0
 80 83  1  0
 80 82  1  0
 81 79  2  0
 84 85  1  0
 84 59  1  0
 86 84  1  0
M  ISO  4   4 101   7 101  50 100  51 100
M  END
>  <TORSDO>  (22) 
F 18

>  <SCORE>  (22) 
-15.940

>  <name>  (22) 
22

>  <ligand_id>  (22) 
22

>  <original_smiles>  (22) 
[H]c1nc(Oc2c([H])c([H])c3c(c2[H])C([H])([H])N(C(=O)C([H])(N([H])C(=O)C([H])(N([H])C([H])([H])[H])C([H])([H])[H])C(C([H])([H])[H])(C([H])([H])[H])C([H])([H])[H])C([H])(C(=O)N([H])C2([H])c4c([H])c([H])c([H])c([H])c4C([H])([H])C([H])([H])C2([H])[H])C3([H])[H])nc([H])c1C([H])([H])C([H])(C(=O)N1C([H])([H])C([H])([H])C([H])([H])C([H])(n2nc(-c3c([H])c([H])c(Oc4c([H])c([H])c(F)c([H])c4F)c([H])c3[H])c(C(=O)N([H])[H])c2N([H])[H])C1([H])[H])C([H])([H])[H]

>  <smiles>  (22) 
[H]c1nc(Oc2c([H])c([H])c3c(c2[H])C([H])([H])N(C(=O)C([H])(N([H])C(=O)C([H])(N([H])C([H])([H])[H])C([H])([H])[H])C(C([H])([H])[H])(C([H])([H])[H])C([H])([H])[H])C([H])(C(=O)N([H])C2([H])c4c([H])c([H])c([H])c([H])c4C([H])([H])C([H])([H])C2([H])[H])C3([H])[H])nc([H])c1C([H])([H])C([H])(C(=O)N1C([H])([H])C([H])([H])C([H])([H])C([H])(n2nc(-c3c([H])c([H])c(Oc4c([H])c([H])c(F)c([H])c4F)c([H])c3[H])c(C(=O)N([H])[H])c2N([H])[H])C1([H])[H])C([H])([H])[H]

$$$$
23:0:0
     RDKit          3D

 94102  0  0  1  0  0  0  0  0999 V2000
  -30.6650  -22.2350   17.9760 C   0  0  0  0  0  3  0  0  0  0  0  0
  -30.9560  -20.1180   16.8520 C   0  0  0  0  0  3  0  0  0  0  0  0
  -31.1900  -21.4920   16.8960 C   0  0  0  0  0  0  0  0  0  0  0  0
  -29.8740  -21.5860   18.9620 C   0  0  0  0  0  0  0  0  0  0  0  0
  -29.8520  -20.1490   18.8960 C   0  0  0  0  0  0  0  0  0  0  0  0
  -31.9450  -22.1150   15.7380 C   0  0  0  0  0  1  0  0  0  0  0  0
  -30.3350  -19.4710   17.8350 N   0  0  0  0  0  0  0  0  0  0  0  0
  -28.9780  -22.4400   19.9150 C   0  0  0  0  0  2  0  0  0  0  0  0
  -29.3940  -23.9220   20.2940 C   0  0  0  0  0  2  0  0  0  0  0  0
  -28.2320  -24.9060   20.6660 C   0  0  0  0  0  2  0  0  0  0  0  0
  -28.5280  -26.3190   20.4190 O   0  0  0  0  0  0  0  0  0  0  0  0
  -24.6290  -31.6440   23.2060 C   0  0  0  0  0  0  0  0  0  0  0  0
  -27.4140  -27.1420   20.3050 C   0  0  0  0  0  0  0  0  0  0  0  0
  -23.5120  -30.2150   21.5260 C   0  0  0  0  0  3  0  0  0  0  0  0
  -25.0450  -28.6920   20.1730 C   0  0  0  0  0  0  0  0  0  0  0  0
  -26.0490  -30.5830   21.4510 C   0  0  0  0  0  2  0  0  0  0  0  0
  -26.1720  -29.2040   20.8260 C   0  0  0  0  0  0  0  0  0  0  0  0
  -27.3650  -28.4350   20.8910 C   0  0  0  0  0  3  0  0  0  0  0  0
  -26.2820  -26.6970   19.5850 C   0  0  0  0  0  3  0  0  0  0  0  0
  -25.0960  -27.4420   19.5460 C   0  0  0  0  0  3  0  0  0  0  0  0
  -23.7940  -29.5440   20.1570 C   0  0  0  0  0  2  0  0  0  0  0  0
  -24.7450  -30.8280   22.1200 N   0  0  0  0  0  0  0  0  0  0  0  0
  -23.5230  -31.9100   23.6960 O   0  0  0  0  0  0  0  0  0  0  0  0
  -22.8330  -29.1870   22.4610 C   0  0  0  0  0  0  0  0  0  0  0  0
  -21.5110  -29.0130   22.3010 N   0  0  0  0  0  0  0  0  0  0  0  0
  -23.4910  -28.5520   23.2890 O   0  0  0  0  0  0  0  0  0  0  0  0
  -21.0400  -29.5760   21.6080 H   0  0  0  0  0  0  0  0  0  0  0  0
  -18.1140  -27.8510   22.7240 C   0  0  0  0  0  0  0  0  0  0  0  0
  -20.6690  -28.0780   23.0480 C   0  0  0  0  0  3  0  0  0  0  0  0
  -20.7670  -26.6490   22.4650 C   0  0  0  0  0  2  0  0  0  0  0  0
  -19.6840  -26.3420   21.4280 C   0  0  0  0  0  2  0  0  0  0  0  0
  -18.2900  -26.5000   22.0480 C   0  0  0  0  0  2  0  0  0  0  0  0
  -19.2320  -28.5960   23.1830 C   0  0  0  0  0  0  0  0  0  0  0  0
  -19.0210  -29.8570   23.7800 C   0  0  0  0  0  3  0  0  0  0  0  0
  -17.7220  -30.3770   23.9230 C   0  0  0  0  0  3  0  0  0  0  0  0
  -16.6150  -29.6270   23.4870 C   0  0  0  0  0  3  0  0  0  0  0  0
  -16.8120  -28.3670   22.8940 C   0  0  0  0  0  3  0  0  0  0  0  0
  -25.8800  -32.2980   23.8690 C   0  0  0  0  0  3  0  0  0  0  0  0
  -25.5380  -33.6950   24.1800 N   0  0  0  0  0  0  0  0  0  0  0  0
  -25.8750  -34.7470   23.4220 C   0  0  0  0  0  0  0  0  0  0  0  0
  -26.5850  -34.6510   22.4160 O   0  0  0  0  0  0  0  0  0  0  0  0
  -24.9210  -33.8440   24.9620 H   0  0  0  0  0  0  0  0  0  0  0  0
  -24.1330  -36.5050   22.9870 C   0  0  0  0  0  1  0  0  0  0  0  0
  -25.3460  -36.1270   23.8520 C   0  0  0  0  0  3  0  0  0  0  0  0
  -27.4250  -37.0580   24.7670 C   0  0  0  0  0  1  0  0  0  0  0  0
  -26.3620  -37.1990   23.7740 N   0  0  0  0  0  0  0  0  0  0  0  0
  -25.9330  -38.1110   23.9010 H   0  0  0  0  0  0  0  0  0  0  0  0
  -26.3630  -31.5390   25.1640 C   0  0  1  0  0  0  0  0  0  0  0  0
  -25.2340  -31.2820   26.1890 C   0  0  0  0  0  1  0  0  0  0  0  0
  -26.9850  -30.1700   24.7970 C   0  0  0  0  0  1  0  0  0  0  0  0
  -27.4720  -32.3540   25.8680 C   0  0  0  0  0  1  0  0  0  0  0  0
  -29.2640  -19.1570   19.9130 C   0  0  0  0  0  2  0  0  0  0  0  0
  -31.6610  -18.7270   20.7720 C   0  0  0  0  0  1  0  0  0  0  0  0
  -29.7290  -17.6360   21.9200 C   0  0  0  0  0  1  0  0  0  0  0  0
  -30.2740  -18.0860   20.5380 C   0  0  1  0  0  0  0  0  0  0  0  0
  -30.5460  -16.8320   19.6090 C   0  0  0  0  0  2  0  0  0  0  0  0
  -31.1320  -14.3790   19.9740 C   0  0  0  0  0  0  0  0  0  0  0  0
  -30.7430  -12.1770   18.9430 C   0  0  0  0  0  2  0  0  0  0  0  0
  -29.7740  -12.3970   17.7600 C   0  0  0  0  0  2  0  0  0  0  0  0
  -28.3130  -12.3180   18.2430 C   0  0  0  0  0  2  0  0  0  0  0  0
  -28.0470  -13.1880   19.5020 C   0  0  0  0  0  3  0  0  0  0  0  0
  -29.1350  -12.9710   20.5780 C   0  0  0  0  0  2  0  0  0  0  0  0
  -30.4440  -13.2060   19.9530 N   0  0  0  0  0  0  0  0  0  0  0  0
  -32.2810  -14.4790   19.5450 O   0  0  0  0  0  0  0  0  0  0  0  0
  -30.3760  -15.4810   20.2100 N   0  0  0  0  0  0  0  0  0  0  0  0
  -29.4590  -15.3080   20.5860 H   0  0  0  0  0  0  0  0  0  0  0  0
  -25.7020  -13.8990   20.2940 C   0  0  0  0  0  0  0  0  0  0  0  0
  -24.6120  -13.1710   20.7040 C   0  0  0  0  0  0  0  0  0  0  0  0
  -25.0160  -11.8030   20.6580 C   0  0  0  0  0  0  0  0  0  0  0  0
  -26.7000  -12.9720   20.0330 N   0  0  0  0  0  0  0  0  0  0  0  0
  -26.2940  -11.7060   20.3100 N   0  0  0  0  0  0  0  0  0  0  0  0
  -24.2400  -10.5710   20.8710 C   0  0  0  0  0  0  0  0  0  0  0  0
  -24.6130   -9.6260   21.8510 C   0  0  0  0  0  3  0  0  0  0  0  0
  -23.8420   -8.4610   22.0520 C   0  0  0  0  0  3  0  0  0  0  0  0
  -22.6800   -8.2360   21.2760 C   0  0  0  0  0  0  0  0  0  0  0  0
  -22.3250   -9.1700   20.2880 C   0  0  0  0  0  3  0  0  0  0  0  0
  -23.0960  -10.3270   20.0820 C   0  0  0  0  0  3  0  0  0  0  0  0
  -21.8880   -7.1170   21.3830 O   0  0  0  0  0  0  0  0  0  0  0  0
  -21.7320   -6.4570   22.5770 C   0  0  0  0  0  0  0  0  0  0  0  0
  -21.2240   -7.1000   23.7260 C   0  0  0  0  0  3  0  0  0  0  0  0
  -21.0100   -6.3640   24.9090 C   0  0  0  0  0  3  0  0  0  0  0  0
  -21.2990   -4.9870   24.9450 C   0  0  0  0  0  0  0  0  0  0  0  0
  -21.8000   -4.3450   23.7990 C   0  0  0  0  0  3  0  0  0  0  0  0
  -22.0130   -5.0760   22.6190 C   0  0  0  0  0  0  0  0  0  0  0  0
  -22.4750   -4.4440   21.5120 F   0  0  0  0  0  0  0  0  0  0  0  0
  -21.0870   -4.2800   26.0800 F   0  0  0  0  0  0  0  0  0  0  0  0
  -23.2470  -13.7100   21.0180 C   0  0  0  0  0  0  0  0  0  0  0  0
  -22.5200  -13.0480   21.9130 N   0  0  0  0  0  0  0  0  0  0  0  0
  -22.8320  -14.7440   20.4980 O   0  0  0  0  0  0  0  0  0  0  0  0
  -22.8720  -12.2120   22.3510 H   0  0  0  0  0  0  0  0  0  0  0  0
  -21.6040  -13.3940   22.1650 H   0  0  0  0  0  0  0  0  0  0  0  0
  -25.9120  -15.2600   20.1010 N   0  0  0  0  0  0  0  0  0  0  0  0
  -25.1550  -15.9250   20.2190 H   0  0  0  0  0  0  0  0  0  0  0  0
  -26.7120  -15.6640   19.6340 H   0  0  0  0  0  0  0  0  0  0  0  0
  1  4  1  0
  2  3  1  0
  2  7  2  0
  3  1  2  0
  4  8  1  0
  5  4  2  0
  5 52  1  0
  6  3  1  0
  7  5  1  0
  8  9  1  0
  9 10  1  0
 11 10  1  0
 12 23  2  0
 13 11  1  0
 13 18  1  0
 14 22  1  0
 14 24  1  0
 15 17  1  0
 16 22  1  0
 17 18  2  0
 17 16  1  0
 19 13  2  0
 20 19  1  0
 20 15  2  0
 21 15  1  0
 21 14  1  0
 22 12  1  0
 24 26  2  0
 25 24  1  0
 27 25  1  0
 28 37  2  0
 28 33  1  0
 29 25  1  0
 29 33  1  0
 30 29  1  0
 31 32  1  0
 31 30  1  0
 32 28  1  0
 33 34  2  0
 34 35  1  0
 36 35  2  0
 37 36  1  0
 38 12  1  0
 38 39  1  0
 38 48  1  0
 39 42  1  0
 40 44  1  0
 40 39  1  0
 41 40  2  0
 44 43  1  0
 46 44  1  0
 46 47  1  0
 46 45  1  0
 48 51  1  1
 48 49  1  0
 50 48  1  0
 52 55  1  0
 55 53  1  1
 55 54  1  0
 56 65  1  0
 56 55  1  0
 57 65  1  0
 58 63  1  0
 59 60  1  0
 59 58  1  0
 61 60  1  0
 61 70  1  0
 61 62  1  0
 63 57  1  0
 63 62  1  0
 64 57  2  0
 65 66  1  0
 67 68  2  0
 68 87  1  0
 69 68  1  0
 69 72  1  0
 70 67  1  0
 70 71  1  0
 71 69  2  0
 72 73  1  0
 73 74  2  0
 75 78  1  0
 75 74  1  0
 76 75  2  0
 77 76  1  0
 77 72  2  0
 78 79  1  0
 79 84  2  0
 79 80  1  0
 80 81  2  0
 81 82  1  0
 82 86  1  0
 83 82  2  0
 84 83  1  0
 85 84  1  0
 87 88  1  0
 88 91  1  0
 88 90  1  0
 89 87  2  0
 92 93  1  0
 92 67  1  0
 94 92  1  0
M  ISO  4  10 101  11 101  57 100  65 100
M  END
>  <TORSDO>  (23) 
F 22

>  <SCORE>  (23) 
-12.429

>  <name>  (23) 
23

>  <ligand_id>  (23) 
23

>  <original_smiles>  (23) 
[H]c1nc(C([H])([H])C(C([H])([H])[H])(C([H])([H])[H])C([H])([H])N([H])C(=O)N2C([H])([H])C([H])([H])C([H])([H])C([H])(n3nc(-c4c([H])c([H])c(Oc5c([H])c([H])c(F)c([H])c5F)c([H])c4[H])c(C(=O)N([H])[H])c3N([H])[H])C2([H])[H])c(C([H])([H])C([H])([H])C([H])([H])Oc2c([H])c([H])c3c(c2[H])C([H])([H])N(C(=O)C([H])(N([H])C(=O)C([H])(N([H])C([H])([H])[H])C([H])([H])[H])C(C([H])([H])[H])(C([H])([H])[H])C([H])([H])[H])C([H])(C(=O)N([H])C2([H])c4c([H])c([H])c([H])c([H])c4C([H])([H])C([H])([H])C2([H])[H])C3([H])[H])c([H])c1C([H])([H])[H]

>  <smiles>  (23) 
[H]c1nc(C([H])([H])C(C([H])([H])[H])(C([H])([H])[H])C([H])([H])N([H])C(=O)N2C([H])([H])C([H])([H])C([H])([H])C([H])(n3nc(-c4c([H])c([H])c(Oc5c([H])c([H])c(F)c([H])c5F)c([H])c4[H])c(C(=O)N([H])[H])c3N([H])[H])C2([H])[H])c(C([H])([H])C([H])([H])C([H])([H])Oc2c([H])c([H])c3c(c2[H])C([H])([H])N(C(=O)C([H])(N([H])C(=O)C([H])(N([H])C([H])([H])[H])C([H])([H])[H])C(C([H])([H])[H])(C([H])([H])[H])C([H])([H])[H])C([H])(C(=O)N([H])C2([H])c4c([H])c([H])c([H])c([H])c4C([H])([H])C([H])([H])C2([H])[H])C3([H])[H])c([H])c1C([H])([H])[H]

$$$$
24:0:0
     RDKit          3D

 93101  0  0  1  0  0  0  0  0999 V2000
  -29.4400  -19.2370   20.3330 C   0  0  0  0  0  3  0  0  0  0  0  0
  -29.4420  -20.4860   20.9960 C   0  0  0  0  0  0  0  0  0  0  0  0
  -30.1890  -18.1760   20.8970 C   0  0  0  0  0  0  0  0  0  0  0  0
  -30.8900  -19.6240   22.5440 C   0  0  0  0  0  0  0  0  0  0  0  0
  -31.7200  -19.8250   23.7920 C   0  0  0  0  0  1  0  0  0  0  0  0
  -30.2120  -20.6700   22.0840 N   0  0  0  0  0  0  0  0  0  0  0  0
  -30.8640  -18.3960   22.0430 N   0  0  0  0  0  0  0  0  0  0  0  0
  -28.5230  -16.3680   20.9880 C   0  0  0  0  0  1  0  0  0  0  0  0
  -29.9370  -16.7010   20.4810 C   0  0  0  0  0  3  0  0  0  0  0  0
  -30.9010  -14.9040   22.1720 C   0  0  0  0  0  1  0  0  0  0  0  0
  -32.4780  -16.1800   20.8040 C   0  0  0  0  0  1  0  0  0  0  0  0
  -31.0410  -15.5600   20.7630 C   0  0  2  0  0  0  0  0  0  0  0  0
  -31.1070  -14.4580   19.6150 C   0  0  0  0  0  0  0  0  0  0  0  0
  -30.5720  -12.3320   18.4400 C   0  0  0  0  0  2  0  0  0  0  0  0
  -29.5320  -12.5560   17.3220 C   0  0  0  0  0  2  0  0  0  0  0  0
  -28.1030  -12.4350   17.8820 C   0  0  0  0  0  2  0  0  0  0  0  0
  -27.9100  -13.2760   19.1710 C   0  0  0  0  0  3  0  0  0  0  0  0
  -29.0590  -13.0140   20.1740 C   0  0  0  0  0  2  0  0  0  0  0  0
  -30.3380  -13.3220   19.5160 N   0  0  0  0  0  0  0  0  0  0  0  0
  -31.9940  -14.6300   18.7710 O   0  0  0  0  0  0  0  0  0  0  0  0
  -25.6000  -13.9440   20.0980 C   0  0  0  0  0  0  0  0  0  0  0  0
  -24.5590  -13.2010   20.5840 C   0  0  0  0  0  0  0  0  0  0  0  0
  -24.9790  -11.8390   20.5070 C   0  0  0  0  0  0  0  0  0  0  0  0
  -26.6000  -13.0390   19.7740 N   0  0  0  0  0  0  0  0  0  0  0  0
  -26.2320  -11.7650   20.0710 N   0  0  0  0  0  0  0  0  0  0  0  0
  -24.2390  -10.5990   20.7680 C   0  0  0  0  0  0  0  0  0  0  0  0
  -24.6600   -9.6830   21.7570 C   0  0  0  0  0  3  0  0  0  0  0  0
  -23.9210   -8.5050   22.0010 C   0  0  0  0  0  3  0  0  0  0  0  0
  -22.7480   -8.2350   21.2560 C   0  0  0  0  0  0  0  0  0  0  0  0
  -22.3470   -9.1400   20.2570 C   0  0  0  0  0  3  0  0  0  0  0  0
  -23.0870  -10.3090   20.0120 C   0  0  0  0  0  3  0  0  0  0  0  0
  -21.9820   -7.1050   21.4070 O   0  0  0  0  0  0  0  0  0  0  0  0
  -21.8280   -6.4970   22.6270 C   0  0  0  0  0  0  0  0  0  0  0  0
  -21.3020   -7.1850   23.7420 C   0  0  0  0  0  3  0  0  0  0  0  0
  -21.0960   -6.5040   24.9570 C   0  0  0  0  0  3  0  0  0  0  0  0
  -21.4060   -5.1340   25.0580 C   0  0  0  0  0  0  0  0  0  0  0  0
  -21.9250   -4.4450   23.9470 C   0  0  0  0  0  3  0  0  0  0  0  0
  -22.1330   -5.1260   22.7350 C   0  0  0  0  0  0  0  0  0  0  0  0
  -22.6140   -4.4530   21.6620 F   0  0  0  0  0  0  0  0  0  0  0  0
  -21.2020   -4.4760   26.2230 F   0  0  0  0  0  0  0  0  0  0  0  0
  -23.2110  -13.7180   20.9970 C   0  0  0  0  0  0  0  0  0  0  0  0
  -22.5750  -13.0660   21.9640 N   0  0  0  0  0  0  0  0  0  0  0  0
  -22.7350  -14.7370   20.4990 O   0  0  0  0  0  0  0  0  0  0  0  0
  -22.9760  -12.2440   22.3900 H   0  0  0  0  0  0  0  0  0  0  0  0
  -21.6740  -13.3930   22.2820 H   0  0  0  0  0  0  0  0  0  0  0  0
  -25.7570  -15.3090   19.8840 N   0  0  0  0  0  0  0  0  0  0  0  0
  -25.0100  -15.9670   20.0760 H   0  0  0  0  0  0  0  0  0  0  0  0
  -26.5660  -15.7410   19.4600 H   0  0  0  0  0  0  0  0  0  0  0  0
  -28.4250  -21.6040   20.7040 C   0  0  0  0  0  2  0  0  0  0  0  0
  -28.9350  -22.8770   19.9680 C   0  0  0  0  0  2  0  0  0  0  0  0
  -28.0360  -24.1390   20.1820 C   0  0  0  0  0  2  0  0  0  0  0  0
  -28.2770  -25.3160   19.1910 C   0  0  0  0  0  2  0  0  0  0  0  0
  -28.1800  -26.6320   19.7710 O   0  0  0  0  0  0  0  0  0  0  0  0
  -24.5580  -31.7620   23.1150 C   0  0  0  0  0  0  0  0  0  0  0  0
  -26.9890  -27.3360   19.8170 C   0  0  0  0  0  0  0  0  0  0  0  0
  -23.2500  -30.4050   21.5120 C   0  0  0  0  0  3  0  0  0  0  0  0
  -24.6090  -28.8770   19.9810 C   0  0  0  0  0  0  0  0  0  0  0  0
  -25.7670  -30.7350   21.1890 C   0  0  0  0  0  2  0  0  0  0  0  0
  -25.8010  -29.3740   20.5190 C   0  0  0  0  0  0  0  0  0  0  0  0
  -26.9880  -28.6110   20.4350 C   0  0  0  0  0  3  0  0  0  0  0  0
  -25.7730  -26.8490   19.2840 C   0  0  0  0  0  3  0  0  0  0  0  0
  -24.5910  -27.6130   19.3620 C   0  0  0  0  0  3  0  0  0  0  0  0
  -23.3790  -29.7470   20.1100 C   0  0  0  0  0  2  0  0  0  0  0  0
  -24.5460  -30.9830   21.9960 N   0  0  0  0  0  0  0  0  0  0  0  0
  -23.5100  -32.0360   23.7150 O   0  0  0  0  0  0  0  0  0  0  0  0
  -22.6380  -29.3740   22.4870 C   0  0  0  0  0  0  0  0  0  0  0  0
  -21.3140  -29.1770   22.3970 N   0  0  0  0  0  0  0  0  0  0  0  0
  -23.3510  -28.7530   23.2800 O   0  0  0  0  0  0  0  0  0  0  0  0
  -20.7970  -29.7330   21.7280 H   0  0  0  0  0  0  0  0  0  0  0  0
  -17.9750  -27.9070   22.9450 C   0  0  0  0  0  0  0  0  0  0  0  0
  -20.5280  -28.2270   23.1840 C   0  0  0  0  0  3  0  0  0  0  0  0
  -20.6580  -26.7930   22.6180 C   0  0  0  0  0  2  0  0  0  0  0  0
  -19.5520  -26.4370   21.6190 C   0  0  0  0  0  2  0  0  0  0  0  0
  -18.1750  -26.5550   22.2780 C   0  0  0  0  0  2  0  0  0  0  0  0
  -19.0800  -28.6980   23.3550 C   0  0  0  0  0  0  0  0  0  0  0  0
  -18.8400  -29.9610   23.9380 C   0  0  0  0  0  3  0  0  0  0  0  0
  -17.5260  -30.4350   24.1150 C   0  0  0  0  0  3  0  0  0  0  0  0
  -16.4360  -29.6390   23.7230 C   0  0  0  0  0  3  0  0  0  0  0  0
  -16.6600  -28.3780   23.1440 C   0  0  0  0  0  3  0  0  0  0  0  0
  -25.8820  -32.3670   23.6790 C   0  0  0  0  0  3  0  0  0  0  0  0
  -25.5920  -33.7420   24.1090 N   0  0  0  0  0  0  0  0  0  0  0  0
  -25.8720  -34.8390   23.3910 C   0  0  0  0  0  0  0  0  0  0  0  0
  -26.4720  -34.7970   22.3140 O   0  0  0  0  0  0  0  0  0  0  0  0
  -25.0510  -33.8460   24.9540 H   0  0  0  0  0  0  0  0  0  0  0  0
  -24.1200  -36.6380   23.2520 C   0  0  0  0  0  1  0  0  0  0  0  0
  -25.4120  -36.1960   23.9570 C   0  0  0  0  0  3  0  0  0  0  0  0
  -27.5950  -37.0430   24.6980 C   0  0  0  0  0  1  0  0  0  0  0  0
  -26.4330  -37.2590   23.8390 N   0  0  0  0  0  0  0  0  0  0  0  0
  -26.0360  -38.1680   24.0620 H   0  0  0  0  0  0  0  0  0  0  0  0
  -26.4930  -31.5280   24.8660 C   0  0  1  0  0  0  0  0  0  0  0  0
  -25.4760  -31.1950   25.9830 C   0  0  0  0  0  1  0  0  0  0  0  0
  -27.0770  -30.1920   24.3480 C   0  0  0  0  0  1  0  0  0  0  0  0
  -27.6700  -32.3040   25.5030 C   0  0  0  0  0  1  0  0  0  0  0  0
  1  3  1  0
  1  2  2  0
  2  6  1  0
  3  7  2  0
  4  5  1  0
  6  4  2  0
  7  4  1  0
  9 12  1  0
  9  3  1  0
  9  8  1  0
 12 11  1  1
 12 10  1  0
 13 12  1  0
 14 19  1  0
 15 16  1  0
 15 14  1  0
 17 16  1  0
 17 24  1  0
 17 18  1  0
 19 13  1  0
 19 18  1  0
 20 13  2  0
 21 22  2  0
 22 41  1  0
 23 22  1  0
 23 26  1  0
 24 25  1  0
 24 21  1  0
 25 23  2  0
 26 27  1  0
 27 28  2  0
 29 32  1  0
 29 28  1  0
 30 29  2  0
 31 30  1  0
 31 26  2  0
 32 33  1  0
 33 38  2  0
 33 34  1  0
 34 35  2  0
 35 36  1  0
 36 40  1  0
 37 36  2  0
 38 37  1  0
 39 38  1  0
 41 42  1  0
 42 45  1  0
 42 44  1  0
 43 41  2  0
 46 47  1  0
 46 21  1  0
 48 46  1  0
 49  2  1  0
 50 51  1  0
 50 49  1  0
 52 53  1  0
 52 51  1  0
 53 55  1  0
 54 65  2  0
 55 60  1  0
 56 64  1  0
 56 66  1  0
 57 63  1  0
 57 59  1  0
 58 64  1  0
 59 58  1  0
 60 59  2  0
 61 62  1  0
 61 55  2  0
 62 57  2  0
 63 56  1  0
 64 54  1  0
 66 68  2  0
 67 66  1  0
 69 67  1  0
 70 79  2  0
 70 75  1  0
 71 67  1  0
 71 75  1  0
 72 71  1  0
 73 74  1  0
 73 72  1  0
 74 70  1  0
 75 76  2  0
 76 77  1  0
 78 77  2  0
 79 78  1  0
 80 54  1  0
 80 81  1  0
 80 90  1  0
 81 84  1  0
 82 86  1  0
 82 81  1  0
 83 82  2  0
 86 85  1  0
 88 86  1  0
 88 89  1  0
 88 87  1  0
 90 93  1  1
 90 91  1  0
 92 90  1  0
M  ISO  4  12 100  13 100  52 101  53 101
M  END
>  <TORSDO>  (24) 
F 22

>  <SCORE>  (24) 
-10.888

>  <name>  (24) 
24

>  <ligand_id>  (24) 
24

>  <original_smiles>  (24) 
[H]c1c(C([H])([H])C([H])([H])C([H])([H])C([H])([H])Oc2c([H])c([H])c3c(c2[H])C([H])([H])N(C(=O)C([H])(N([H])C(=O)C([H])(N([H])C([H])([H])[H])C([H])([H])[H])C(C([H])([H])[H])(C([H])([H])[H])C([H])([H])[H])C([H])(C(=O)N([H])C2([H])c4c([H])c([H])c([H])c([H])c4C([H])([H])C([H])([H])C2([H])[H])C3([H])[H])nc(C([H])([H])[H])nc1C([H])(C([H])([H])[H])C(C(=O)N1C([H])([H])C([H])([H])C([H])([H])C([H])(n2nc(-c3c([H])c([H])c(Oc4c([H])c([H])c(F)c([H])c4F)c([H])c3[H])c(C(=O)N([H])[H])c2N([H])[H])C1([H])[H])(C([H])([H])[H])C([H])([H])[H]

>  <smiles>  (24) 
[H]c1c(C([H])([H])C([H])([H])C([H])([H])C([H])([H])Oc2c([H])c([H])c3c(c2[H])C([H])([H])N(C(=O)C([H])(N([H])C(=O)C([H])(N([H])C([H])([H])[H])C([H])([H])[H])C(C([H])([H])[H])(C([H])([H])[H])C([H])([H])[H])C([H])(C(=O)N([H])C2([H])c4c([H])c([H])c([H])c([H])c4C([H])([H])C([H])([H])C2([H])[H])C3([H])[H])nc(C([H])([H])[H])nc1C([H])(C([H])([H])[H])C(C(=O)N1C([H])([H])C([H])([H])C([H])([H])C([H])(n2nc(-c3c([H])c([H])c(Oc4c([H])c([H])c(F)c([H])c4F)c([H])c3[H])c(C(=O)N([H])[H])c2N([H])[H])C1([H])[H])(C([H])([H])[H])C([H])([H])[H]

$$$$
25:0:0
     RDKit          3D

 93101  0  0  1  0  0  0  0  0999 V2000
  -28.4620  -22.5800   20.4010 C   0  0  0  0  0  3  0  0  0  0  0  0
  -29.8540  -21.4930   22.4410 C   0  0  0  0  0  3  0  0  0  0  0  0
  -28.9290  -23.3870   21.4740 C   0  0  0  0  0  0  0  0  0  0  0  0
  -29.3980  -20.7020   21.3620 C   0  0  0  0  0  0  0  0  0  0  0  0
  -29.6080  -22.8240   22.5110 N   0  0  0  0  0  0  0  0  0  0  0  0
  -28.6900  -21.2480   20.3420 N   0  0  0  0  0  0  0  0  0  0  0  0
  -29.9080  -25.5990   22.1800 C   0  0  0  0  0  1  0  0  0  0  0  0
  -27.4550  -25.1590   22.4790 C   0  0  0  0  0  1  0  0  0  0  0  0
  -28.6720  -24.9100   21.5590 C   0  0  2  0  0  0  0  0  0  0  0  0
  -28.4530  -25.5280   20.1390 C   0  0  0  0  0  2  0  0  0  0  0  0
  -28.4620  -26.9590   20.1220 O   0  0  0  0  0  0  0  0  0  0  0  0
  -24.6160  -32.0020   23.2840 C   0  0  0  0  0  0  0  0  0  0  0  0
  -27.2610  -27.6290   20.1270 C   0  0  0  0  0  0  0  0  0  0  0  0
  -23.3990  -30.5960   21.6540 C   0  0  0  0  0  3  0  0  0  0  0  0
  -24.8480  -29.0910   20.1930 C   0  0  0  0  0  0  0  0  0  0  0  0
  -25.9210  -30.9900   21.4190 C   0  0  0  0  0  2  0  0  0  0  0  0
  -26.0050  -29.6280   20.7650 C   0  0  0  0  0  0  0  0  0  0  0  0
  -27.2150  -28.9030   20.7290 C   0  0  0  0  0  3  0  0  0  0  0  0
  -26.0860  -27.1080   19.5340 C   0  0  0  0  0  3  0  0  0  0  0  0
  -24.8820  -27.8330   19.5690 C   0  0  0  0  0  3  0  0  0  0  0  0
  -23.5920  -29.9280   20.2670 C   0  0  0  0  0  2  0  0  0  0  0  0
  -24.6640  -31.2090   22.1760 N   0  0  0  0  0  0  0  0  0  0  0  0
  -23.5390  -32.2590   23.8400 O   0  0  0  0  0  0  0  0  0  0  0  0
  -22.7780  -29.5550   22.6140 C   0  0  0  0  0  0  0  0  0  0  0  0
  -21.4590  -29.3420   22.4890 N   0  0  0  0  0  0  0  0  0  0  0  0
  -23.4800  -28.9480   23.4270 O   0  0  0  0  0  0  0  0  0  0  0  0
  -20.9550  -29.8960   21.8120 H   0  0  0  0  0  0  0  0  0  0  0  0
  -18.1150  -28.0480   22.9580 C   0  0  0  0  0  0  0  0  0  0  0  0
  -20.6620  -28.3850   23.2570 C   0  0  0  0  0  3  0  0  0  0  0  0
  -20.8120  -26.9490   22.6970 C   0  0  0  0  0  2  0  0  0  0  0  0
  -19.7290  -26.5840   21.6760 C   0  0  0  0  0  2  0  0  0  0  0  0
  -18.3380  -26.6980   22.3000 C   0  0  0  0  0  2  0  0  0  0  0  0
  -19.2060  -28.8480   23.3920 C   0  0  0  0  0  0  0  0  0  0  0  0
  -18.9410  -30.1120   23.9620 C   0  0  0  0  0  3  0  0  0  0  0  0
  -17.6180  -30.5760   24.1050 C   0  0  0  0  0  3  0  0  0  0  0  0
  -16.5430  -29.7700   23.6900 C   0  0  0  0  0  3  0  0  0  0  0  0
  -16.7930  -28.5090   23.1220 C   0  0  0  0  0  3  0  0  0  0  0  0
  -25.9030  -32.6400   23.8930 C   0  0  0  0  0  3  0  0  0  0  0  0
  -25.5900  -34.0370   24.2170 N   0  0  0  0  0  0  0  0  0  0  0  0
  -25.9110  -35.0840   23.4460 C   0  0  0  0  0  0  0  0  0  0  0  0
  -26.5710  -34.9780   22.4070 O   0  0  0  0  0  0  0  0  0  0  0  0
  -25.0140  -34.1950   25.0320 H   0  0  0  0  0  0  0  0  0  0  0  0
  -24.1730  -36.8630   23.0950 C   0  0  0  0  0  1  0  0  0  0  0  0
  -25.4220  -36.4700   23.9010 C   0  0  0  0  0  3  0  0  0  0  0  0
  -27.5610  -37.3640   24.7100 C   0  0  0  0  0  1  0  0  0  0  0  0
  -26.4480  -37.5270   23.7770 N   0  0  0  0  0  0  0  0  0  0  0  0
  -26.0370  -38.4430   23.9300 H   0  0  0  0  0  0  0  0  0  0  0  0
  -26.4400  -31.8780   25.1660 C   0  0  1  0  0  0  0  0  0  0  0  0
  -25.3550  -31.6240   26.2410 C   0  0  0  0  0  1  0  0  0  0  0  0
  -27.0400  -30.5080   24.7670 C   0  0  0  0  0  1  0  0  0  0  0  0
  -27.5870  -32.6880   25.8150 C   0  0  0  0  0  1  0  0  0  0  0  0
  -29.6730  -19.3500   21.3300 O   0  0  0  0  0  0  0  0  0  0  0  0
  -29.1750  -18.5960   20.2270 C   0  0  0  0  0  2  0  0  0  0  0  0
  -29.3870  -17.0970   20.4750 C   0  0  0  0  0  2  0  0  0  0  0  0
  -30.8650  -16.6630   20.4490 C   0  0  0  0  0  2  0  0  0  0  0  0
  -31.3180  -14.3560   19.7090 C   0  0  0  0  0  0  0  0  0  0  0  0
  -30.7830  -12.2330   18.5600 C   0  0  0  0  0  2  0  0  0  0  0  0
  -29.7480  -12.4160   17.4330 C   0  0  0  0  0  2  0  0  0  0  0  0
  -28.3120  -12.3520   17.9850 C   0  0  0  0  0  2  0  0  0  0  0  0
  -28.1110  -13.2660   19.2200 C   0  0  0  0  0  3  0  0  0  0  0  0
  -29.2300  -13.0400   20.2580 C   0  0  0  0  0  2  0  0  0  0  0  0
  -30.5370  -13.2450   19.6010 N   0  0  0  0  0  0  0  0  0  0  0  0
  -32.2410  -14.6050   18.9240 O   0  0  0  0  0  0  0  0  0  0  0  0
  -31.3070  -14.8700   22.0830 C   0  0  0  0  0  1  0  0  0  0  0  0
  -30.9800  -15.2180   20.6960 N   0  0  0  0  0  0  0  0  0  0  0  0
  -25.8260  -14.0290   20.1360 C   0  0  0  0  0  0  0  0  0  0  0  0
  -24.7430  -13.3260   20.5910 C   0  0  0  0  0  0  0  0  0  0  0  0
  -25.1060  -11.9470   20.5070 C   0  0  0  0  0  0  0  0  0  0  0  0
  -26.7850  -13.0820   19.8080 N   0  0  0  0  0  0  0  0  0  0  0  0
  -26.3570  -11.8230   20.0860 N   0  0  0  0  0  0  0  0  0  0  0  0
  -24.3130  -10.7350   20.7500 C   0  0  0  0  0  0  0  0  0  0  0  0
  -24.7220   -9.7610   21.6890 C   0  0  0  0  0  3  0  0  0  0  0  0
  -23.9340   -8.6120   21.9160 C   0  0  0  0  0  3  0  0  0  0  0  0
  -22.7240   -8.4290   21.2060 C   0  0  0  0  0  0  0  0  0  0  0  0
  -22.3340   -9.3900   20.2570 C   0  0  0  0  0  3  0  0  0  0  0  0
  -23.1210  -10.5310   20.0280 C   0  0  0  0  0  3  0  0  0  0  0  0
  -21.9050   -7.3330   21.3440 O   0  0  0  0  0  0  0  0  0  0  0  0
  -21.8070   -6.6540   22.5310 C   0  0  0  0  0  0  0  0  0  0  0  0
  -21.4080   -7.2960   23.7250 C   0  0  0  0  0  3  0  0  0  0  0  0
  -21.2510   -6.5470   24.9080 C   0  0  0  0  0  3  0  0  0  0  0  0
  -21.4830   -5.1580   24.9000 C   0  0  0  0  0  0  0  0  0  0  0  0
  -21.8740   -4.5170   23.7110 C   0  0  0  0  0  3  0  0  0  0  0  0
  -22.0320   -5.2630   22.5300 C   0  0  0  0  0  0  0  0  0  0  0  0
  -22.3890   -4.6370   21.3820 F   0  0  0  0  0  0  0  0  0  0  0  0
  -21.3250   -4.4360   26.0340 F   0  0  0  0  0  0  0  0  0  0  0  0
  -23.4110  -13.8930   20.9900 C   0  0  0  0  0  0  0  0  0  0  0  0
  -22.7270  -13.2460   21.9260 N   0  0  0  0  0  0  0  0  0  0  0  0
  -22.9920  -14.9440   20.5070 O   0  0  0  0  0  0  0  0  0  0  0  0
  -23.0800  -12.3940   22.3370 H   0  0  0  0  0  0  0  0  0  0  0  0
  -21.8360  -13.6070   22.2380 H   0  0  0  0  0  0  0  0  0  0  0  0
  -26.0730  -15.3860   19.9550 N   0  0  0  0  0  0  0  0  0  0  0  0
  -25.3730  -16.0960   20.1440 H   0  0  0  0  0  0  0  0  0  0  0  0
  -26.9260  -15.7640   19.5640 H   0  0  0  0  0  0  0  0  0  0  0  0
  1  3  2  0
  2  5  2  0
  3  9  1  0
  3  5  1  0
  4  2  1  0
  6  1  1  0
  6  4  2  0
  9  7  1  1
  9  8  1  0
 10  9  1  0
 11 13  1  0
 11 10  1  0
 12 23  2  0
 13 18  1  0
 14 22  1  0
 14 24  1  0
 15 21  1  0
 15 17  1  0
 16 22  1  0
 17 16  1  0
 18 17  2  0
 19 20  1  0
 19 13  2  0
 20 15  2  0
 21 14  1  0
 22 12  1  0
 24 26  2  0
 25 24  1  0
 27 25  1  0
 28 37  2  0
 28 33  1  0
 29 25  1  0
 29 33  1  0
 30 29  1  0
 31 32  1  0
 31 30  1  0
 32 28  1  0
 33 34  2  0
 34 35  1  0
 36 35  2  0
 37 36  1  0
 38 12  1  0
 38 39  1  0
 38 48  1  0
 39 42  1  0
 40 44  1  0
 40 39  1  0
 41 40  2  0
 44 43  1  0
 46 44  1  0
 46 47  1  0
 46 45  1  0
 48 51  1  1
 48 49  1  0
 50 48  1  0
 52  4  1  0
 53 54  1  0
 53 52  1  0
 55 54  1  0
 55 65  1  0
 56 65  1  0
 57 62  1  0
 58 59  1  0
 58 57  1  0
 60 59  1  0
 60 69  1  0
 60 61  1  0
 62 56  1  0
 62 61  1  0
 63 56  2  0
 65 64  1  0
 66 67  2  0
 67 86  1  0
 68 67  1  0
 68 71  1  0
 69 70  1  0
 69 66  1  0
 70 68  2  0
 71 72  1  0
 72 73  2  0
 74 77  1  0
 74 73  1  0
 75 74  2  0
 76 75  1  0
 76 71  2  0
 77 78  1  0
 78 79  1  0
 79 80  2  0
 81 80  1  0
 81 85  1  0
 82 81  2  0
 83 78  2  0
 83 82  1  0
 84 83  1  0
 86 87  1  0
 87 90  1  0
 87 89  1  0
 88 86  2  0
 91 66  1  0
 91 92  1  0
 93 91  1  0
M  ISO  4  10 101  11 101  56 100  65 100
M  END
>  <TORSDO>  (25) 
F 22

>  <SCORE>  (25) 
-12.083

>  <name>  (25) 
25

>  <ligand_id>  (25) 
25

>  <original_smiles>  (25) 
[H]c1nc(C(C([H])([H])[H])(C([H])([H])[H])C([H])([H])Oc2c([H])c([H])c3c(c2[H])C([H])([H])N(C(=O)C([H])(N([H])C(=O)C([H])(N([H])C([H])([H])[H])C([H])([H])[H])C(C([H])([H])[H])(C([H])([H])[H])C([H])([H])[H])C([H])(C(=O)N([H])C2([H])c4c([H])c([H])c([H])c([H])c4C([H])([H])C([H])([H])C2([H])[H])C3([H])[H])c([H])nc1OC([H])([H])C([H])([H])C([H])([H])N(C(=O)N1C([H])([H])C([H])([H])C([H])([H])C([H])(n2nc(-c3c([H])c([H])c(Oc4c([H])c([H])c(F)c([H])c4F)c([H])c3[H])c(C(=O)N([H])[H])c2N([H])[H])C1([H])[H])C([H])([H])[H]

>  <smiles>  (25) 
[H]c1nc(C(C([H])([H])[H])(C([H])([H])[H])C([H])([H])Oc2c([H])c([H])c3c(c2[H])C([H])([H])N(C(=O)C([H])(N([H])C(=O)C([H])(N([H])C([H])([H])[H])C([H])([H])[H])C(C([H])([H])[H])(C([H])([H])[H])C([H])([H])[H])C([H])(C(=O)N([H])C2([H])c4c([H])c([H])c([H])c([H])c4C([H])([H])C([H])([H])C2([H])[H])C3([H])[H])c([H])nc1OC([H])([H])C([H])([H])C([H])([H])N(C(=O)N1C([H])([H])C([H])([H])C([H])([H])C([H])(n2nc(-c3c([H])c([H])c(Oc4c([H])c([H])c(F)c([H])c4F)c([H])c3[H])c(C(=O)N([H])[H])c2N([H])[H])C1([H])[H])C([H])([H])[H]

$$$$
26:0:0
     RDKit          3D

 88 95  0  0  1  0  0  0  0  0999 V2000
  -29.6400  -20.6300   19.8370 C   0  0  0  0  0  3  0  0  0  0  0  0
  -29.8930  -19.1960   20.5870 C   0  0  0  0  0  0  0  0  0  0  0  0
  -29.9210  -17.8620   20.0570 C   0  0  0  0  0  0  0  0  0  0  0  0
  -30.1610  -19.5400   22.0470 C   0  0  0  0  0  1  0  0  0  0  0  0
  -29.7010  -17.6700   18.5660 C   0  0  0  0  0  1  0  0  0  0  0  0
  -31.2080  -16.5420   21.9060 C   0  0  0  0  0  1  0  0  0  0  0  0
  -28.7930  -16.1540   21.5050 C   0  0  0  0  0  1  0  0  0  0  0  0
  -30.1380  -16.3840   20.7900 C   0  0  1  0  0  0  0  0  0  0  0  0
  -30.6450  -14.9670   20.0290 C   0  0  0  0  0  0  0  0  0  0  0  0
  -30.4300  -12.6870   18.9190 C   0  0  0  0  0  2  0  0  0  0  0  0
  -29.4010  -12.7130   17.7610 C   0  0  0  0  0  2  0  0  0  0  0  0
  -27.9680  -12.4810   18.2790 C   0  0  0  0  0  2  0  0  0  0  0  0
  -27.6660  -13.3290   19.5390 C   0  0  0  0  0  3  0  0  0  0  0  0
  -28.8040  -13.1890   20.5730 C   0  0  0  0  0  2  0  0  0  0  0  0
  -30.0310  -13.7070   19.9400 N   0  0  0  0  0  0  0  0  0  0  0  0
  -31.7510  -15.0380   19.4760 O   0  0  0  0  0  0  0  0  0  0  0  0
  -25.3320  -13.8950   20.4480 C   0  0  0  0  0  0  0  0  0  0  0  0
  -24.2950  -13.1080   20.8690 C   0  0  0  0  0  0  0  0  0  0  0  0
  -24.7520  -11.7600   20.7560 C   0  0  0  0  0  0  0  0  0  0  0  0
  -26.3580  -13.0240   20.1110 N   0  0  0  0  0  0  0  0  0  0  0  0
  -26.0180  -11.7330   20.3560 N   0  0  0  0  0  0  0  0  0  0  0  0
  -24.0370  -10.4920   20.9480 C   0  0  0  0  0  0  0  0  0  0  0  0
  -24.4860   -9.5200   21.8680 C   0  0  0  0  0  3  0  0  0  0  0  0
  -23.7680   -8.3190   22.0480 C   0  0  0  0  0  3  0  0  0  0  0  0
  -22.5860   -8.0810   21.3070 C   0  0  0  0  0  0  0  0  0  0  0  0
  -22.1540   -9.0420   20.3770 C   0  0  0  0  0  3  0  0  0  0  0  0
  -22.8720  -10.2350   20.1960 C   0  0  0  0  0  3  0  0  0  0  0  0
  -21.8370   -6.9310   21.3970 O   0  0  0  0  0  0  0  0  0  0  0  0
  -21.7600   -6.2130   22.5640 C   0  0  0  0  0  0  0  0  0  0  0  0
  -21.2800   -6.7880   23.7610 C   0  0  0  0  0  3  0  0  0  0  0  0
  -21.1500   -5.9960   24.9190 C   0  0  0  0  0  3  0  0  0  0  0  0
  -21.4900   -4.6310   24.8820 C   0  0  0  0  0  0  0  0  0  0  0  0
  -21.9640   -4.0560   23.6890 C   0  0  0  0  0  3  0  0  0  0  0  0
  -22.0950   -4.8450   22.5330 C   0  0  0  0  0  0  0  0  0  0  0  0
  -22.5300   -4.2820   21.3800 F   0  0  0  0  0  0  0  0  0  0  0  0
  -21.3590   -3.8670   25.9920 F   0  0  0  0  0  0  0  0  0  0  0  0
  -22.9230  -13.5770   21.2550 C   0  0  0  0  0  0  0  0  0  0  0  0
  -22.2520  -12.8480   22.1390 N   0  0  0  0  0  0  0  0  0  0  0  0
  -22.4560  -14.6240   20.8090 O   0  0  0  0  0  0  0  0  0  0  0  0
  -22.6450  -11.9990   22.5210 H   0  0  0  0  0  0  0  0  0  0  0  0
  -21.3350  -13.1410   22.4400 H   0  0  0  0  0  0  0  0  0  0  0  0
  -25.4730  -15.2690   20.2970 N   0  0  0  0  0  0  0  0  0  0  0  0
  -24.7080  -15.9110   20.4760 H   0  0  0  0  0  0  0  0  0  0  0  0
  -26.2800  -15.7210   19.8890 H   0  0  0  0  0  0  0  0  0  0  0  0
  -29.0000  -21.9900   20.5730 C   0  0  0  0  0  3  0  0  0  0  0  0
  -29.0900  -23.5480   19.9820 C   0  0  0  0  0  3  0  0  0  0  0  0
  -28.2300  -24.8320   20.5990 C   0  0  0  0  0  3  0  0  0  0  0  0
  -28.4480  -26.3270   20.2990 O   0  0  0  0  0  0  0  0  0  0  0  0
  -24.6740  -31.9190   23.2090 C   0  0  0  0  0  0  0  0  0  0  0  0
  -27.3520  -27.2460   20.2630 C   0  0  0  0  0  0  0  0  0  0  0  0
  -23.5040  -30.4810   21.5810 C   0  0  0  0  0  3  0  0  0  0  0  0
  -24.9860  -28.9130   20.1930 C   0  0  0  0  0  0  0  0  0  0  0  0
  -26.0500  -30.7980   21.4260 C   0  0  0  0  0  2  0  0  0  0  0  0
  -26.1520  -29.4010   20.7980 C   0  0  0  0  0  0  0  0  0  0  0  0
  -27.3380  -28.5830   20.8150 C   0  0  0  0  0  3  0  0  0  0  0  0
  -26.1610  -26.8460   19.6200 C   0  0  0  0  0  3  0  0  0  0  0  0
  -25.0000  -27.6450   19.5900 C   0  0  0  0  0  3  0  0  0  0  0  0
  -23.7450  -29.7890   20.2140 C   0  0  0  0  0  2  0  0  0  0  0  0
  -24.7610  -31.0880   22.1280 N   0  0  0  0  0  0  0  0  0  0  0  0
  -23.5810  -32.1960   23.7260 O   0  0  0  0  0  0  0  0  0  0  0  0
  -22.8350  -29.4780   22.5520 C   0  0  0  0  0  0  0  0  0  0  0  0
  -21.5100  -29.2890   22.4200 N   0  0  0  0  0  0  0  0  0  0  0  0
  -23.5090  -28.8690   23.3870 O   0  0  0  0  0  0  0  0  0  0  0  0
  -21.0230  -29.8320   21.7210 H   0  0  0  0  0  0  0  0  0  0  0  0
  -18.1420  -28.0510   22.9040 C   0  0  0  0  0  0  0  0  0  0  0  0
  -20.6930  -28.3550   23.1990 C   0  0  0  0  0  3  0  0  0  0  0  0
  -20.8230  -26.9140   22.6540 C   0  0  0  0  0  2  0  0  0  0  0  0
  -19.7400  -26.5560   21.6320 C   0  0  0  0  0  2  0  0  0  0  0  0
  -18.3480  -26.6920   22.2550 C   0  0  0  0  0  2  0  0  0  0  0  0
  -19.2430  -28.8370   23.3330 C   0  0  0  0  0  0  0  0  0  0  0  0
  -18.9990  -30.1070   23.9000 C   0  0  0  0  0  3  0  0  0  0  0  0
  -17.6850  -30.5900   24.0440 C   0  0  0  0  0  3  0  0  0  0  0  0
  -16.5970  -29.8000   23.6330 C   0  0  0  0  0  3  0  0  0  0  0  0
  -16.8250  -28.5330   23.0690 C   0  0  0  0  0  3  0  0  0  0  0  0
  -25.9400  -32.5790   23.8360 C   0  0  0  0  0  3  0  0  0  0  0  0
  -25.6030  -33.9720   24.1620 N   0  0  0  0  0  0  0  0  0  0  0  0
  -25.9180  -35.0320   23.4060 C   0  0  0  0  0  0  0  0  0  0  0  0
  -26.5900  -34.9400   22.3740 O   0  0  0  0  0  0  0  0  0  0  0  0
  -25.0050  -34.1170   24.9630 H   0  0  0  0  0  0  0  0  0  0  0  0
  -24.1570  -36.7960   23.0540 C   0  0  0  0  0  1  0  0  0  0  0  0
  -25.4080  -36.4130   23.8620 C   0  0  0  0  0  3  0  0  0  0  0  0
  -27.5270  -37.3380   24.6870 C   0  0  0  0  0  1  0  0  0  0  0  0
  -26.4220  -37.4850   23.7450 N   0  0  0  0  0  0  0  0  0  0  0  0
  -25.9990  -38.3970   23.8920 H   0  0  0  0  0  0  0  0  0  0  0  0
  -26.4620  -31.8230   25.1190 C   0  0  1  0  0  0  0  0  0  0  0  0
  -25.3650  -31.5690   26.1800 C   0  0  0  0  0  1  0  0  0  0  0  0
  -27.0750  -30.4540   24.7410 C   0  0  0  0  0  1  0  0  0  0  0  0
  -27.5950  -32.6400   25.7840 C   0  0  0  0  0  1  0  0  0  0  0  0
  1 45  2  0
  1  2  1  0
  2  4  1  0
  3  2  2  0
  3  8  1  0
  5  3  1  0
  8  7  1  1
  8  6  1  0
  9  8  1  0
 10 15  1  0
 11 12  1  0
 11 10  1  0
 13 12  1  0
 13 20  1  0
 13 14  1  0
 15  9  1  0
 15 14  1  0
 16  9  2  0
 17 18  2  0
 18 37  1  0
 19 18  1  0
 19 22  1  0
 20 21  1  0
 20 17  1  0
 21 19  2  0
 22 23  1  0
 23 24  2  0
 25 28  1  0
 25 24  1  0
 26 25  2  0
 27 26  1  0
 27 22  2  0
 28 29  1  0
 29 30  1  0
 30 31  2  0
 32 31  1  0
 32 36  1  0
 33 32  2  0
 34 29  2  0
 34 33  1  0
 35 34  1  0
 37 38  1  0
 38 41  1  0
 38 40  1  0
 39 37  2  0
 42 17  1  0
 42 43  1  0
 44 42  1  0
 46 45  1  0
 46 47  2  0
 48 47  1  0
 49 60  2  0
 50 48  1  0
 50 55  1  0
 51 59  1  0
 51 61  1  0
 52 58  1  0
 52 54  1  0
 53 59  1  0
 54 55  2  0
 54 53  1  0
 56 50  2  0
 57 56  1  0
 57 52  2  0
 58 51  1  0
 59 49  1  0
 61 63  2  0
 62 61  1  0
 64 62  1  0
 65 74  2  0
 65 70  1  0
 66 62  1  0
 66 70  1  0
 67 66  1  0
 68 69  1  0
 68 67  1  0
 69 65  1  0
 70 71  2  0
 71 72  1  0
 73 72  2  0
 74 73  1  0
 75 49  1  0
 75 76  1  0
 75 85  1  0
 76 79  1  0
 77 81  1  0
 77 76  1  0
 78 77  2  0
 81 80  1  0
 83 81  1  0
 83 84  1  0
 83 82  1  0
 85 88  1  1
 85 86  1  0
 87 85  1  0
M  ISO  4   8 100   9 100  47 101  48 101
M  END
>  <TORSDO>  (26) 
F 21

>  <SCORE>  (26) 
-12.338

>  <name>  (26) 
26

>  <ligand_id>  (26) 
26

>  <original_smiles>  (26) 
[H]c1c([H])c([H])c2c(c1[H])C([H])([H])C([H])([H])C([H])([H])C2([H])N([H])C(=O)C1([H])N(C(=O)C([H])(N([H])C(=O)C([H])(N([H])C([H])([H])[H])C([H])([H])[H])C(C([H])([H])[H])(C([H])([H])[H])C([H])([H])[H])C([H])([H])c2c([H])c(OC([H])([H])C([H])([H])C([H])([H])C([H])([H])C(=C(C([H])([H])[H])C(C(=O)N3C([H])([H])C([H])([H])C([H])([H])C([H])(n4nc(-c5c([H])c([H])c(Oc6c([H])c([H])c(F)c([H])c6F)c([H])c5[H])c(C(=O)N([H])[H])c4N([H])[H])C3([H])[H])(C([H])([H])[H])C([H])([H])[H])C([H])([H])[H])c([H])c([H])c2C1([H])[H]

>  <smiles>  (26) 
[H]c1c([H])c([H])c2c(c1[H])C([H])([H])C([H])([H])C([H])([H])C2([H])N([H])C(=O)C1([H])N(C(=O)C([H])(N([H])C(=O)C([H])(N([H])C([H])([H])[H])C([H])([H])[H])C(C([H])([H])[H])(C([H])([H])[H])C([H])([H])[H])C([H])([H])c2c([H])c(OC([H])([H])C([H])([H])C([H])([H])C([H])([H])C(=C(C([H])([H])[H])C(C(=O)N3C([H])([H])C([H])([H])C([H])([H])C([H])(n4nc(-c5c([H])c([H])c(Oc6c([H])c([H])c(F)c([H])c6F)c([H])c5[H])c(C(=O)N([H])[H])c4N([H])[H])C3([H])[H])(C([H])([H])[H])C([H])([H])[H])C([H])([H])[H])c([H])c([H])c2C1([H])[H]

$$$$
27:0:0
     RDKit          3D

 92100  0  0  1  0  0  0  0  0999 V2000
  -28.6540  -17.9560   19.8250 C   0  0  0  0  0  3  0  0  0  0  0  0
  -28.3370  -19.3130   20.0960 C   0  0  0  0  0  0  0  0  0  0  0  0
  -29.2160  -20.0940   20.8930 C   0  0  0  0  0  0  0  0  0  0  0  0
  -29.8410  -17.3630   20.3310 C   0  0  0  0  0  0  0  0  0  0  0  0
  -30.3030  -19.3840   21.4760 C   0  0  0  0  0  0  0  0  0  0  0  0
  -27.0910  -19.9150   19.4690 C   0  0  0  0  0  1  0  0  0  0  0  0
  -31.2700  -20.0640   22.4300 C   0  0  0  0  0  1  0  0  0  0  0  0
  -30.5860  -18.0770   21.2160 N   0  0  0  0  0  0  0  0  0  0  0  0
  -31.8970  -16.8330   19.0800 C   0  0  0  0  0  1  0  0  0  0  0  0
  -29.8960  -15.8990   18.1960 C   0  0  0  0  0  1  0  0  0  0  0  0
  -30.5580  -16.1780   19.5690 C   0  0  2  0  0  0  0  0  0  0  0  0
  -30.9310  -14.7820   20.2990 C   0  0  0  0  0  0  0  0  0  0  0  0
  -30.5930  -12.4910   19.4570 C   0  0  0  0  0  2  0  0  0  0  0  0
  -29.6820  -12.4480   18.2140 C   0  0  0  0  0  2  0  0  0  0  0  0
  -28.1970  -12.3900   18.6120 C   0  0  0  0  0  2  0  0  0  0  0  0
  -27.8030  -13.3430   19.7780 C   0  0  0  0  0  3  0  0  0  0  0  0
  -28.8600  -13.3880   20.8980 C   0  0  0  0  0  2  0  0  0  0  0  0
  -30.1680  -13.6400   20.2770 N   0  0  0  0  0  0  0  0  0  0  0  0
  -32.1400  -14.6330   20.4560 O   0  0  0  0  0  0  0  0  0  0  0  0
  -25.4170  -13.9530   20.4760 C   0  0  0  0  0  0  0  0  0  0  0  0
  -24.3390  -13.1870   20.8230 C   0  0  0  0  0  0  0  0  0  0  0  0
  -24.7990  -11.8350   20.8220 C   0  0  0  0  0  0  0  0  0  0  0  0
  -26.4610  -13.0670   20.2740 N   0  0  0  0  0  0  0  0  0  0  0  0
  -26.0970  -11.7890   20.5500 N   0  0  0  0  0  0  0  0  0  0  0  0
  -24.0660  -10.5770   21.0050 C   0  0  0  0  0  0  0  0  0  0  0  0
  -24.4570   -9.6280   21.9740 C   0  0  0  0  0  3  0  0  0  0  0  0
  -23.7240   -8.4340   22.1450 C   0  0  0  0  0  3  0  0  0  0  0  0
  -22.5860   -8.1810   21.3430 C   0  0  0  0  0  0  0  0  0  0  0  0
  -22.2150   -9.1170   20.3630 C   0  0  0  0  0  3  0  0  0  0  0  0
  -22.9500  -10.3020   20.1900 C   0  0  0  0  0  3  0  0  0  0  0  0
  -21.8290   -7.0380   21.4200 O   0  0  0  0  0  0  0  0  0  0  0  0
  -21.7110   -6.3300   22.5890 C   0  0  0  0  0  0  0  0  0  0  0  0
  -21.1870   -6.9130   23.7630 C   0  0  0  0  0  3  0  0  0  0  0  0
  -21.0210   -6.1320   24.9240 C   0  0  0  0  0  3  0  0  0  0  0  0
  -21.3660   -4.7670   24.9110 C   0  0  0  0  0  0  0  0  0  0  0  0
  -21.8810   -4.1840   23.7410 C   0  0  0  0  0  3  0  0  0  0  0  0
  -22.0520   -4.9620   22.5810 C   0  0  0  0  0  0  0  0  0  0  0  0
  -22.5290   -4.3890   21.4510 F   0  0  0  0  0  0  0  0  0  0  0  0
  -21.2000   -4.0140   26.0230 F   0  0  0  0  0  0  0  0  0  0  0  0
  -22.9360  -13.6710   21.0500 C   0  0  0  0  0  0  0  0  0  0  0  0
  -22.1840  -12.9860   21.9040 N   0  0  0  0  0  0  0  0  0  0  0  0
  -22.5160  -14.6890   20.5060 O   0  0  0  0  0  0  0  0  0  0  0  0
  -22.5410  -12.1630   22.3660 H   0  0  0  0  0  0  0  0  0  0  0  0
  -21.2400  -13.2910   22.0970 H   0  0  0  0  0  0  0  0  0  0  0  0
  -25.5850  -15.3220   20.2920 N   0  0  0  0  0  0  0  0  0  0  0  0
  -24.8220  -15.9790   20.3960 H   0  0  0  0  0  0  0  0  0  0  0  0
  -26.4580  -15.7690   20.0430 H   0  0  0  0  0  0  0  0  0  0  0  0
  -28.9670  -21.6170   21.1780 C   0  0  0  0  0  3  0  0  0  0  0  0
  -29.0450  -22.6440   19.9870 C   0  0  0  0  0  3  0  0  0  0  0  0
  -29.1900  -24.1740   20.3740 C   0  0  0  0  0  3  0  0  0  0  0  0
  -28.2870  -25.1860   19.5840 C   0  0  0  0  0  3  0  0  0  0  0  0
  -28.4180  -26.6190   19.8770 O   0  0  0  0  0  0  0  0  0  0  0  0
  -24.5240  -31.7550   23.0340 C   0  0  0  0  0  0  0  0  0  0  0  0
  -27.2720  -27.4180   19.8190 C   0  0  0  0  0  0  0  0  0  0  0  0
  -23.3640  -30.3890   21.3350 C   0  0  0  0  0  3  0  0  0  0  0  0
  -24.8630  -28.9460   19.8570 C   0  0  0  0  0  0  0  0  0  0  0  0
  -25.8910  -30.7930   21.1740 C   0  0  0  0  0  2  0  0  0  0  0  0
  -26.0110  -29.4440   20.4830 C   0  0  0  0  0  0  0  0  0  0  0  0
  -27.2180  -28.6900   20.4610 C   0  0  0  0  0  3  0  0  0  0  0  0
  -26.1040  -26.9830   19.1450 C   0  0  0  0  0  3  0  0  0  0  0  0
  -24.9100  -27.7200   19.1790 C   0  0  0  0  0  3  0  0  0  0  0  0
  -23.6010  -29.7780   19.9290 C   0  0  0  0  0  2  0  0  0  0  0  0
  -24.6110  -30.9930   21.9060 N   0  0  0  0  0  0  0  0  0  0  0  0
  -23.4320  -31.9830   23.5760 O   0  0  0  0  0  0  0  0  0  0  0  0
  -22.7300  -29.3160   22.2510 C   0  0  0  0  0  0  0  0  0  0  0  0
  -21.4040  -29.1320   22.1360 N   0  0  0  0  0  0  0  0  0  0  0  0
  -23.4280  -28.6530   23.0220 O   0  0  0  0  0  0  0  0  0  0  0  0
  -20.8960  -29.7250   21.4940 H   0  0  0  0  0  0  0  0  0  0  0  0
  -18.0420  -27.9110   22.6610 C   0  0  0  0  0  0  0  0  0  0  0  0
  -20.6070  -28.1520   22.8750 C   0  0  0  0  0  3  0  0  0  0  0  0
  -20.6900  -26.7560   22.2180 C   0  0  0  0  0  2  0  0  0  0  0  0
  -19.5600  -26.4920   21.2160 C   0  0  0  0  0  2  0  0  0  0  0  0
  -18.1970  -26.6020   21.9050 C   0  0  0  0  0  2  0  0  0  0  0  0
  -19.1750  -28.6460   23.1030 C   0  0  0  0  0  0  0  0  0  0  0  0
  -18.9760  -29.8720   23.7710 C   0  0  0  0  0  3  0  0  0  0  0  0
  -17.6770  -30.3650   24.0030 C   0  0  0  0  0  3  0  0  0  0  0  0
  -16.5600  -29.6290   23.5750 C   0  0  0  0  0  3  0  0  0  0  0  0
  -16.7430  -28.4030   22.9100 C   0  0  0  0  0  3  0  0  0  0  0  0
  -25.7880  -32.3990   23.6820 C   0  0  0  0  0  3  0  0  0  0  0  0
  -25.4350  -33.7740   24.0640 N   0  0  0  0  0  0  0  0  0  0  0  0
  -25.7450  -34.8650   23.3520 C   0  0  0  0  0  0  0  0  0  0  0  0
  -26.4280  -34.8230   22.3240 O   0  0  0  0  0  0  0  0  0  0  0  0
  -24.8270  -33.8790   24.8630 H   0  0  0  0  0  0  0  0  0  0  0  0
  -23.9860  -36.6410   23.0370 C   0  0  0  0  0  1  0  0  0  0  0  0
  -25.2150  -36.2200   23.8590 C   0  0  0  0  0  3  0  0  0  0  0  0
  -27.3050  -37.1190   24.7880 C   0  0  0  0  0  1  0  0  0  0  0  0
  -26.2240  -37.3010   23.8220 N   0  0  0  0  0  0  0  0  0  0  0  0
  -25.7910  -38.2030   23.9980 H   0  0  0  0  0  0  0  0  0  0  0  0
  -26.3290  -31.5920   24.9270 C   0  0  1  0  0  0  0  0  0  0  0  0
  -25.2480  -31.2790   25.9890 C   0  0  0  0  0  1  0  0  0  0  0  0
  -26.9510  -30.2460   24.4820 C   0  0  0  0  0  1  0  0  0  0  0  0
  -27.4580  -32.3920   25.6190 C   0  0  0  0  0  1  0  0  0  0  0  0
  1  2  2  0
  1  4  1  0
  2  3  1  0
  3 48  1  0
  3  5  2  0
  4  8  2  0
  5  7  1  0
  6  2  1  0
  8  5  1  0
 11  9  1  6
 10 11  1  0
 11 12  1  0
 11  4  1  0
 12 19  2  0
 13 18  1  0
 14 15  1  0
 14 13  1  0
 16 15  1  0
 16 23  1  0
 16 17  1  0
 18 12  1  0
 18 17  1  0
 20 21  2  0
 21 40  1  0
 22 21  1  0
 22 25  1  0
 23 20  1  0
 23 24  1  0
 24 22  2  0
 25 26  1  0
 26 27  2  0
 28 31  1  0
 28 27  1  0
 29 28  2  0
 30 29  1  0
 30 25  2  0
 31 32  1  0
 32 33  1  0
 33 34  2  0
 35 34  1  0
 35 39  1  0
 36 35  2  0
 37 32  2  0
 37 36  1  0
 38 37  1  0
 40 41  1  0
 41 44  1  0
 41 43  1  0
 42 40  2  0
 45 46  1  0
 45 20  1  0
 47 45  1  0
 49 50  1  0
 49 48  2  0
 51 52  1  0
 51 50  2  0
 53 64  2  0
 54 52  1  0
 54 59  1  0
 55 63  1  0
 55 65  1  0
 56 62  1  0
 56 58  1  0
 57 63  1  0
 58 57  1  0
 59 58  2  0
 60 61  1  0
 60 54  2  0
 61 56  2  0
 62 55  1  0
 63 53  1  0
 65 67  2  0
 66 65  1  0
 68 66  1  0
 69 78  2  0
 69 74  1  0
 70 66  1  0
 70 74  1  0
 71 70  1  0
 72 73  1  0
 72 71  1  0
 73 69  1  0
 74 75  2  0
 75 76  1  0
 77 76  2  0
 78 77  1  0
 79 53  1  0
 79 80  1  0
 79 89  1  0
 80 83  1  0
 81 85  1  0
 81 80  1  0
 82 81  2  0
 85 84  1  0
 87 85  1  0
 87 88  1  0
 87 86  1  0
 89 92  1  1
 89 90  1  0
 91 89  1  0
M  ISO  4  11 100  12 100  51 101  52 101
M  END
>  <TORSDO>  (27) 
F 21

>  <SCORE>  (27) 
-12.641

>  <name>  (27) 
27

>  <ligand_id>  (27) 
27

>  <original_smiles>  (27) 
[H]c1c([H])c([H])c2c(c1[H])C([H])([H])C([H])([H])C([H])([H])C2([H])N([H])C(=O)C1([H])N(C(=O)C([H])(N([H])C(=O)C([H])(N([H])C([H])([H])[H])C([H])([H])[H])C(C([H])([H])[H])(C([H])([H])[H])C([H])([H])[H])C([H])([H])c2c([H])c(OC([H])([H])C([H])([H])C([H])([H])C([H])([H])c3c(C([H])([H])[H])nc(C(C(=O)N4C([H])([H])C([H])([H])C([H])([H])C([H])(n5nc(-c6c([H])c([H])c(Oc7c([H])c([H])c(F)c([H])c7F)c([H])c6[H])c(C(=O)N([H])[H])c5N([H])[H])C4([H])[H])(C([H])([H])[H])C([H])([H])[H])c([H])c3C([H])([H])[H])c([H])c([H])c2C1([H])[H]

>  <smiles>  (27) 
[H]c1c([H])c([H])c2c(c1[H])C([H])([H])C([H])([H])C([H])([H])C2([H])N([H])C(=O)C1([H])N(C(=O)C([H])(N([H])C(=O)C([H])(N([H])C([H])([H])[H])C([H])([H])[H])C(C([H])([H])[H])(C([H])([H])[H])C([H])([H])[H])C([H])([H])c2c([H])c(OC([H])([H])C([H])([H])C([H])([H])C([H])([H])c3c(C([H])([H])[H])nc(C(C(=O)N4C([H])([H])C([H])([H])C([H])([H])C([H])(n5nc(-c6c([H])c([H])c(Oc7c([H])c([H])c(F)c([H])c7F)c([H])c6[H])c(C(=O)N([H])[H])c5N([H])[H])C4([H])[H])(C([H])([H])[H])C([H])([H])[H])c([H])c3C([H])([H])[H])c([H])c([H])c2C1([H])[H]

$$$$
28:0:0
     RDKit          3D

 91 99  0  0  1  0  0  0  0  0999 V2000
  -27.9020  -20.6830   20.5140 C   0  0  0  0  0  2  0  0  0  0  0  0
  -30.1930  -19.5510   20.5660 C   0  0  0  0  0  3  0  0  0  0  0  0
  -30.9420  -18.3740   20.4220 C   0  0  0  0  0  3  0  0  0  0  0  0
  -28.7910  -19.4390   20.5820 C   0  0  0  0  0  0  0  0  0  0  0  0
  -30.2550  -17.1450   20.2600 C   0  0  0  0  0  0  0  0  0  0  0  0
  -28.1820  -18.2200   20.5470 N   0  0  0  0  0  0  0  0  0  0  0  0
  -28.8990  -17.0950   20.3870 N   0  0  0  0  0  0  0  0  0  0  0  0
  -32.4150  -16.2790   19.1890 C   0  0  0  0  0  1  0  0  0  0  0  0
  -30.2890  -15.6460   18.2740 C   0  0  0  0  0  1  0  0  0  0  0  0
  -30.9590  -15.9050   19.6480 C   0  0  2  0  0  0  0  0  0  0  0  0
  -31.0920  -14.6810   20.6570 C   0  0  0  0  0  0  0  0  0  0  0  0
  -30.7360  -12.4140   19.8530 C   0  0  0  0  0  2  0  0  0  0  0  0
  -29.8710  -12.3810   18.5820 C   0  0  0  0  0  2  0  0  0  0  0  0
  -28.3660  -12.4390   18.9010 C   0  0  0  0  0  2  0  0  0  0  0  0
  -27.9530  -13.3750   20.0760 C   0  0  0  0  0  3  0  0  0  0  0  0
  -28.9720  -13.3650   21.2300 C   0  0  0  0  0  2  0  0  0  0  0  0
  -30.3040  -13.5670   20.6400 N   0  0  0  0  0  0  0  0  0  0  0  0
  -32.2140  -14.5860   21.1300 O   0  0  0  0  0  0  0  0  0  0  0  0
  -25.5240  -13.9970   20.6100 C   0  0  0  0  0  0  0  0  0  0  0  0
  -24.4250  -13.2350   20.9010 C   0  0  0  0  0  0  0  0  0  0  0  0
  -24.8820  -11.8830   20.9400 C   0  0  0  0  0  0  0  0  0  0  0  0
  -26.5810  -13.1080   20.4970 N   0  0  0  0  0  0  0  0  0  0  0  0
  -26.1950  -11.8340   20.7570 N   0  0  0  0  0  0  0  0  0  0  0  0
  -24.1370  -10.6250   21.0890 C   0  0  0  0  0  0  0  0  0  0  0  0
  -24.5040   -9.6590   22.0510 C   0  0  0  0  0  3  0  0  0  0  0  0
  -23.7570   -8.4680   22.1900 C   0  0  0  0  0  3  0  0  0  0  0  0
  -22.6310   -8.2370   21.3650 C   0  0  0  0  0  0  0  0  0  0  0  0
  -22.2850   -9.1920   20.3930 C   0  0  0  0  0  3  0  0  0  0  0  0
  -23.0320  -10.3730   20.2520 C   0  0  0  0  0  3  0  0  0  0  0  0
  -21.8600   -7.1000   21.4150 O   0  0  0  0  0  0  0  0  0  0  0  0
  -21.7510   -6.3550   22.5620 C   0  0  0  0  0  0  0  0  0  0  0  0
  -21.2800   -6.9130   23.7710 C   0  0  0  0  0  3  0  0  0  0  0  0
  -21.1180   -6.0950   24.9070 C   0  0  0  0  0  3  0  0  0  0  0  0
  -21.4150   -4.7210   24.8350 C   0  0  0  0  0  0  0  0  0  0  0  0
  -21.8770   -4.1630   23.6300 C   0  0  0  0  0  3  0  0  0  0  0  0
  -22.0410   -4.9780   22.4970 C   0  0  0  0  0  0  0  0  0  0  0  0
  -22.4650   -4.4300   21.3310 F   0  0  0  0  0  0  0  0  0  0  0  0
  -21.2540   -3.9330   25.9240 F   0  0  0  0  0  0  0  0  0  0  0  0
  -23.0130  -13.7240   21.0420 C   0  0  0  0  0  0  0  0  0  0  0  0
  -22.2170  -13.0570   21.8710 N   0  0  0  0  0  0  0  0  0  0  0  0
  -22.6220  -14.7340   20.4580 O   0  0  0  0  0  0  0  0  0  0  0  0
  -22.5520  -12.2460   22.3670 H   0  0  0  0  0  0  0  0  0  0  0  0
  -21.2630  -13.3620   22.0130 H   0  0  0  0  0  0  0  0  0  0  0  0
  -25.7070  -15.3620   20.4100 N   0  0  0  0  0  0  0  0  0  0  0  0
  -24.9450  -16.0270   20.4820 H   0  0  0  0  0  0  0  0  0  0  0  0
  -26.6050  -15.8070   20.2510 H   0  0  0  0  0  0  0  0  0  0  0  0
  -28.3460  -21.8540   21.4240 C   0  0  0  0  0  2  0  0  0  0  0  0
  -27.4880  -23.1380   21.3270 C   0  0  0  0  0  2  0  0  0  0  0  0
  -27.9840  -24.2230   20.3280 C   0  0  0  0  0  2  0  0  0  0  0  0
  -28.1780  -25.6070   20.9920 C   0  0  0  0  0  2  0  0  0  0  0  0
  -28.2380  -26.7100   20.0690 O   0  0  0  0  0  0  0  0  0  0  0  0
  -24.5570  -31.9020   23.2390 C   0  0  0  0  0  0  0  0  0  0  0  0
  -27.1010  -27.4820   20.0690 C   0  0  0  0  0  0  0  0  0  0  0  0
  -23.3100  -30.5190   21.6110 C   0  0  0  0  0  3  0  0  0  0  0  0
  -24.7240  -28.9970   20.1350 C   0  0  0  0  0  0  0  0  0  0  0  0
  -25.8290  -30.8730   21.3610 C   0  0  0  0  0  2  0  0  0  0  0  0
  -25.8970  -29.5110   20.7030 C   0  0  0  0  0  0  0  0  0  0  0  0
  -27.0930  -28.7620   20.6660 C   0  0  0  0  0  3  0  0  0  0  0  0
  -25.9150  -26.9810   19.4960 C   0  0  0  0  0  3  0  0  0  0  0  0
  -24.7250  -27.7280   19.5280 C   0  0  0  0  0  3  0  0  0  0  0  0
  -23.4850  -29.8580   20.2190 C   0  0  0  0  0  2  0  0  0  0  0  0
  -24.5850  -31.1110   22.1290 N   0  0  0  0  0  0  0  0  0  0  0  0
  -23.4880  -32.1730   23.8040 O   0  0  0  0  0  0  0  0  0  0  0  0
  -22.6750  -29.4920   22.5760 C   0  0  0  0  0  0  0  0  0  0  0  0
  -21.3490  -29.3100   22.4650 N   0  0  0  0  0  0  0  0  0  0  0  0
  -23.3680  -28.8640   23.3790 O   0  0  0  0  0  0  0  0  0  0  0  0
  -20.8440  -29.8730   21.7960 H   0  0  0  0  0  0  0  0  0  0  0  0
  -17.9850  -28.0830   22.9720 C   0  0  0  0  0  0  0  0  0  0  0  0
  -20.5410  -28.3670   23.2380 C   0  0  0  0  0  3  0  0  0  0  0  0
  -20.6560  -26.9340   22.6670 C   0  0  0  0  0  2  0  0  0  0  0  0
  -19.5550  -26.5970   21.6580 C   0  0  0  0  0  2  0  0  0  0  0  0
  -18.1740  -26.7300   22.3050 C   0  0  0  0  0  2  0  0  0  0  0  0
  -19.0970  -28.8580   23.3940 C   0  0  0  0  0  0  0  0  0  0  0  0
  -18.8670  -30.1240   23.9770 C   0  0  0  0  0  3  0  0  0  0  0  0
  -17.5580  -30.6120   24.1470 C   0  0  0  0  0  3  0  0  0  0  0  0
  -16.4610  -29.8330   23.7410 C   0  0  0  0  0  3  0  0  0  0  0  0
  -16.6740  -28.5710   23.1580 C   0  0  0  0  0  3  0  0  0  0  0  0
  -25.8590  -32.5200   23.8370 C   0  0  0  0  0  3  0  0  0  0  0  0
  -25.5690  -33.9190   24.1750 N   0  0  0  0  0  0  0  0  0  0  0  0
  -25.9050  -34.9700   23.4140 C   0  0  0  0  0  0  0  0  0  0  0  0
  -26.5640  -34.8610   22.3740 O   0  0  0  0  0  0  0  0  0  0  0  0
  -24.9910  -34.0800   24.9850 H   0  0  0  0  0  0  0  0  0  0  0  0
  -24.2030  -36.7830   23.0720 C   0  0  0  0  0  1  0  0  0  0  0  0
  -25.4390  -36.3610   23.8800 C   0  0  0  0  0  3  0  0  0  0  0  0
  -27.5870  -37.2130   24.7090 C   0  0  0  0  0  1  0  0  0  0  0  0
  -26.4830  -37.4000   23.7710 N   0  0  0  0  0  0  0  0  0  0  0  0
  -26.0910  -38.3260   23.9250 H   0  0  0  0  0  0  0  0  0  0  0  0
  -26.3960  -31.7390   25.1000 C   0  0  1  0  0  0  0  0  0  0  0  0
  -25.3240  -31.5040   26.1900 C   0  0  0  0  0  1  0  0  0  0  0  0
  -26.9590  -30.3580   24.6870 C   0  0  0  0  0  1  0  0  0  0  0  0
  -27.5700  -32.5200   25.7380 C   0  0  0  0  0  1  0  0  0  0  0  0
  1  4  1  0
  1 47  1  0
  2  4  1  0
  3  2  2  0
  5  7  2  0
  5  3  1  0
  6  4  2  0
  7  6  1  0
 10  8  1  6
  9 10  1  0
 10  5  1  0
 10 11  1  0
 11 18  2  0
 12 17  1  0
 13 14  1  0
 13 12  1  0
 15 14  1  0
 15 22  1  0
 15 16  1  0
 17 11  1  0
 17 16  1  0
 19 20  2  0
 20 21  1  0
 20 39  1  0
 21 24  1  0
 22 19  1  0
 22 23  1  0
 23 21  2  0
 24 25  1  0
 25 26  2  0
 27 30  1  0
 27 26  1  0
 28 27  2  0
 29 28  1  0
 29 24  2  0
 30 31  1  0
 31 32  1  0
 32 33  2  0
 34 33  1  0
 34 38  1  0
 35 34  2  0
 36 31  2  0
 36 35  1  0
 37 36  1  0
 39 40  1  0
 40 43  1  0
 40 42  1  0
 41 39  2  0
 44 45  1  0
 44 19  1  0
 46 44  1  0
 48 47  1  0
 49 50  1  0
 49 48  1  0
 51 53  1  0
 51 50  1  0
 52 63  2  0
 53 58  1  0
 54 62  1  0
 54 64  1  0
 55 61  1  0
 55 57  1  0
 56 62  1  0
 57 56  1  0
 58 57  2  0
 59 60  1  0
 59 53  2  0
 60 55  2  0
 61 54  1  0
 62 52  1  0
 64 66  2  0
 65 64  1  0
 67 65  1  0
 68 77  2  0
 68 73  1  0
 69 65  1  0
 69 73  1  0
 70 69  1  0
 71 72  1  0
 71 70  1  0
 72 68  1  0
 73 74  2  0
 74 75  1  0
 76 75  2  0
 77 76  1  0
 78 52  1  0
 78 79  1  0
 78 88  1  0
 79 82  1  0
 80 84  1  0
 80 79  1  0
 81 80  2  0
 84 83  1  0
 86 84  1  0
 86 87  1  0
 86 85  1  0
 88 91  1  1
 88 89  1  0
 90 88  1  0
M  ISO  4  10 100  11 100  50 101  51 101
M  END
>  <TORSDO>  (28) 
F 22

>  <SCORE>  (28) 
-12.646

>  <name>  (28) 
28

>  <ligand_id>  (28) 
28

>  <original_smiles>  (28) 
[H]c1c(C([H])([H])C([H])([H])C([H])([H])C([H])([H])C([H])([H])Oc2c([H])c([H])c3c(c2[H])C([H])([H])N(C(=O)C([H])(N([H])C(=O)C([H])(N([H])C([H])([H])[H])C([H])([H])[H])C(C([H])([H])[H])(C([H])([H])[H])C([H])([H])[H])C([H])(C(=O)N([H])C2([H])c4c([H])c([H])c([H])c([H])c4C([H])([H])C([H])([H])C2([H])[H])C3([H])[H])nnc(C(C(=O)N2C([H])([H])C([H])([H])C([H])([H])C([H])(n3nc(-c4c([H])c([H])c(Oc5c([H])c([H])c(F)c([H])c5F)c([H])c4[H])c(C(=O)N([H])[H])c3N([H])[H])C2([H])[H])(C([H])([H])[H])C([H])([H])[H])c1[H]

>  <smiles>  (28) 
[H]c1c(C([H])([H])C([H])([H])C([H])([H])C([H])([H])C([H])([H])Oc2c([H])c([H])c3c(c2[H])C([H])([H])N(C(=O)C([H])(N([H])C(=O)C([H])(N([H])C([H])([H])[H])C([H])([H])[H])C(C([H])([H])[H])(C([H])([H])[H])C([H])([H])[H])C([H])(C(=O)N([H])C2([H])c4c([H])c([H])c([H])c([H])c4C([H])([H])C([H])([H])C2([H])[H])C3([H])[H])nnc(C(C(=O)N2C([H])([H])C([H])([H])C([H])([H])C([H])(n3nc(-c4c([H])c([H])c(Oc5c([H])c([H])c(F)c([H])c5F)c([H])c4[H])c(C(=O)N([H])[H])c3N([H])[H])C2([H])[H])(C([H])([H])[H])C([H])([H])[H])c1[H]

$$$$
29:0:0
     RDKit          3D

 86 94  0  0  1  0  0  0  0  0999 V2000
  -28.5850  -21.6940   20.2010 C   0  0  0  0  0  3  0  0  0  0  0  0
  -28.9460  -23.3460   20.4050 C   0  0  0  0  0  3  0  0  0  0  0  0
  -27.9360  -24.6710   20.1060 C   0  0  0  0  0  3  0  0  0  0  0  0
  -28.2250  -26.1970   20.3060 O   0  0  0  0  0  0  0  0  0  0  0  0
  -24.6410  -31.9300   23.2650 C   0  0  0  0  0  0  0  0  0  0  0  0
  -27.1810  -27.1950   20.2330 C   0  0  0  0  0  0  0  0  0  0  0  0
  -23.4310  -30.5430   21.6260 C   0  0  0  0  0  3  0  0  0  0  0  0
  -24.8680  -28.9600   20.1990 C   0  0  0  0  0  0  0  0  0  0  0  0
  -25.9870  -30.7920   21.4590 C   0  0  0  0  0  2  0  0  0  0  0  0
  -26.0520  -29.3990   20.8070 C   0  0  0  0  0  0  0  0  0  0  0  0
  -27.2100  -28.5310   20.8050 C   0  0  0  0  0  3  0  0  0  0  0  0
  -25.9710  -26.8620   19.5850 C   0  0  0  0  0  3  0  0  0  0  0  0
  -24.8410  -27.7060   19.5720 C   0  0  0  0  0  3  0  0  0  0  0  0
  -23.6460  -29.8660   20.2470 C   0  0  0  0  0  2  0  0  0  0  0  0
  -24.7070  -31.1100   22.1720 N   0  0  0  0  0  0  0  0  0  0  0  0
  -23.5560  -32.2220   23.7920 O   0  0  0  0  0  0  0  0  0  0  0  0
  -22.7460  -29.5400   22.5880 C   0  0  0  0  0  0  0  0  0  0  0  0
  -21.4170  -29.3760   22.4590 N   0  0  0  0  0  0  0  0  0  0  0  0
  -23.4130  -28.9120   23.4140 O   0  0  0  0  0  0  0  0  0  0  0  0
  -20.9360  -29.9340   21.7670 H   0  0  0  0  0  0  0  0  0  0  0  0
  -18.0290  -28.1980   22.9590 C   0  0  0  0  0  0  0  0  0  0  0  0
  -20.5890  -28.4450   23.2290 C   0  0  0  0  0  3  0  0  0  0  0  0
  -20.6830  -27.0110   22.6560 C   0  0  0  0  0  2  0  0  0  0  0  0
  -19.5790  -26.6940   21.6410 C   0  0  0  0  0  2  0  0  0  0  0  0
  -18.1980  -26.8480   22.2820 C   0  0  0  0  0  2  0  0  0  0  0  0
  -19.1510  -28.9540   23.3890 C   0  0  0  0  0  0  0  0  0  0  0  0
  -18.9380  -30.2170   23.9830 C   0  0  0  0  0  3  0  0  0  0  0  0
  -17.6350  -30.7230   24.1510 C   0  0  0  0  0  3  0  0  0  0  0  0
  -16.5260  -29.9650   23.7360 C   0  0  0  0  0  3  0  0  0  0  0  0
  -16.7240  -28.7040   23.1450 C   0  0  0  0  0  3  0  0  0  0  0  0
  -25.9230  -32.5560   23.8920 C   0  0  0  0  0  3  0  0  0  0  0  0
  -26.4270  -31.7840   25.1740 C   0  0  1  0  0  0  0  0  0  0  0  0
  -25.3260  -31.5560   26.2370 C   0  0  0  0  0  1  0  0  0  0  0  0
  -27.0030  -30.4020   24.7920 C   0  0  0  0  0  1  0  0  0  0  0  0
  -27.5790  -32.5720   25.8400 C   0  0  0  0  0  1  0  0  0  0  0  0
  -25.6200  -33.9580   24.2260 N   0  0  0  0  0  0  0  0  0  0  0  0
  -25.9310  -35.0110   23.4600 C   0  0  0  0  0  0  0  0  0  0  0  0
  -26.5700  -34.9060   22.4100 O   0  0  0  0  0  0  0  0  0  0  0  0
  -25.0470  -34.1130   25.0430 H   0  0  0  0  0  0  0  0  0  0  0  0
  -24.1810  -36.7990   23.1740 C   0  0  0  0  0  1  0  0  0  0  0  0
  -25.4600  -36.4010   23.9300 C   0  0  0  0  0  3  0  0  0  0  0  0
  -27.6230  -37.3050   24.6630 C   0  0  0  0  0  1  0  0  0  0  0  0
  -26.4820  -37.4580   23.7640 N   0  0  0  0  0  0  0  0  0  0  0  0
  -26.0790  -38.3790   23.9170 H   0  0  0  0  0  0  0  0  0  0  0  0
  -29.6660  -20.4300   20.5000 C   0  0  0  0  0  3  0  0  0  0  0  0
  -30.4360  -17.7800   20.3020 C   0  0  0  0  0  3  0  0  0  0  0  0
  -29.8350  -16.4990   20.3760 C   0  0  0  0  0  0  0  0  0  0  0  0
  -28.4740  -16.8650   20.5090 N   0  0  0  0  0  0  0  0  0  0  0  0
  -28.2850  -18.1910   20.5350 N   0  0  0  0  0  0  0  0  0  0  0  0
  -29.4720  -18.8510   20.3840 N   0  0  0  0  0  0  0  0  0  0  0  0
  -30.5410  -15.0190   20.2700 C   0  0  0  0  0  0  0  0  0  0  0  0
  -30.3850  -12.6510   19.3900 C   0  0  0  0  0  2  0  0  0  0  0  0
  -29.4680  -12.5940   18.1480 C   0  0  0  0  0  2  0  0  0  0  0  0
  -28.0030  -12.3850   18.5730 C   0  0  0  0  0  2  0  0  0  0  0  0
  -27.5860  -13.3250   19.7340 C   0  0  0  0  0  3  0  0  0  0  0  0
  -28.6340  -13.3840   20.8620 C   0  0  0  0  0  2  0  0  0  0  0  0
  -29.9120  -13.7720   20.2570 N   0  0  0  0  0  0  0  0  0  0  0  0
  -31.7510  -14.9990   20.0090 O   0  0  0  0  0  0  0  0  0  0  0  0
  -25.2100  -13.8890   20.4870 C   0  0  0  0  0  0  0  0  0  0  0  0
  -24.1490  -13.1100   20.8520 C   0  0  0  0  0  0  0  0  0  0  0  0
  -24.6170  -11.7600   20.8190 C   0  0  0  0  0  0  0  0  0  0  0  0
  -26.2540  -13.0160   20.2400 N   0  0  0  0  0  0  0  0  0  0  0  0
  -25.9090  -11.7290   20.5070 N   0  0  0  0  0  0  0  0  0  0  0  0
  -23.8930  -10.4950   21.0080 C   0  0  0  0  0  0  0  0  0  0  0  0
  -24.3140   -9.5360   21.9560 C   0  0  0  0  0  3  0  0  0  0  0  0
  -23.5880   -8.3380   22.1330 C   0  0  0  0  0  3  0  0  0  0  0  0
  -22.4280   -8.0900   21.3600 C   0  0  0  0  0  0  0  0  0  0  0  0
  -22.0270   -9.0370   20.4020 C   0  0  0  0  0  3  0  0  0  0  0  0
  -22.7530  -10.2270   20.2240 C   0  0  0  0  0  3  0  0  0  0  0  0
  -21.6760   -6.9420   21.4450 O   0  0  0  0  0  0  0  0  0  0  0  0
  -21.5930   -6.2200   22.6080 C   0  0  0  0  0  0  0  0  0  0  0  0
  -21.1010   -6.7860   23.8040 C   0  0  0  0  0  3  0  0  0  0  0  0
  -20.9670   -5.9890   24.9580 C   0  0  0  0  0  3  0  0  0  0  0  0
  -21.3150   -4.6260   24.9170 C   0  0  0  0  0  0  0  0  0  0  0  0
  -21.8000   -4.0580   23.7250 C   0  0  0  0  0  3  0  0  0  0  0  0
  -21.9360   -4.8520   22.5740 C   0  0  0  0  0  0  0  0  0  0  0  0
  -22.3830   -4.2960   21.4220 F   0  0  0  0  0  0  0  0  0  0  0  0
  -21.1800   -3.8570   26.0230 F   0  0  0  0  0  0  0  0  0  0  0  0
  -22.7500  -13.5820   21.1240 C   0  0  0  0  0  0  0  0  0  0  0  0
  -22.0270  -12.8870   21.9950 N   0  0  0  0  0  0  0  0  0  0  0  0
  -22.3080  -14.6040   20.6000 O   0  0  0  0  0  0  0  0  0  0  0  0
  -22.4000  -12.0610   22.4390 H   0  0  0  0  0  0  0  0  0  0  0  0
  -21.0880  -13.1850   22.2190 H   0  0  0  0  0  0  0  0  0  0  0  0
  -25.3760  -15.2610   20.3220 N   0  0  0  0  0  0  0  0  0  0  0  0
  -24.6270  -15.9260   20.4780 H   0  0  0  0  0  0  0  0  0  0  0  0
  -26.2660  -15.7080   20.1220 H   0  0  0  0  0  0  0  0  0  0  0  0
  1  2  1  0
  1 45  2  0
  3  4  1  0
  3  2  2  0
  5 16  2  0
  6  4  1  0
  6 11  1  0
  7 15  1  0
  7 17  1  0
  8 14  1  0
  8 10  1  0
  9 15  1  0
 10  9  1  0
 11 10  2  0
 12  6  2  0
 13 12  1  0
 13  8  2  0
 14  7  1  0
 15  5  1  0
 17 19  2  0
 18 17  1  0
 20 18  1  0
 21 30  2  0
 21 26  1  0
 22 18  1  0
 22 26  1  0
 23 22  1  0
 24 25  1  0
 24 23  1  0
 25 21  1  0
 26 27  2  0
 27 28  1  0
 29 28  2  0
 30 29  1  0
 31  5  1  0
 31 36  1  0
 31 32  1  0
 32 35  1  1
 32 33  1  0
 34 32  1  0
 36 39  1  0
 37 41  1  0
 37 36  1  0
 38 37  2  0
 41 40  1  0
 43 44  1  0
 43 41  1  0
 43 42  1  0
 46 47  2  0
 46 50  1  0
 47 48  1  0
 48 49  2  0
 50 45  1  0
 50 49  1  0
 51 47  1  0
 52 57  1  0
 53 54  1  0
 53 52  1  0
 55 54  1  0
 55 62  1  0
 55 56  1  0
 57 51  1  0
 57 56  1  0
 58 51  2  0
 59 60  2  0
 60 79  1  0
 61 60  1  0
 61 64  1  0
 62 59  1  0
 62 63  1  0
 63 61  2  0
 64 65  1  0
 65 66  2  0
 67 70  1  0
 67 66  1  0
 68 67  2  0
 69 68  1  0
 69 64  2  0
 70 71  1  0
 71 72  1  0
 72 73  2  0
 74 73  1  0
 74 78  1  0
 75 74  2  0
 76 71  2  0
 76 75  1  0
 77 76  1  0
 79 80  1  0
 80 83  1  0
 80 82  1  0
 81 79  2  0
 84 85  1  0
 84 59  1  0
 86 84  1  0
M  ISO  4   3 101   4 101  47 100  51 100
M  END
>  <TORSDO>  (29) 
F 20

>  <SCORE>  (29) 
-14.545

>  <name>  (29) 
29

>  <ligand_id>  (29) 
29

>  <original_smiles>  (29) 
[H]c1c([H])c([H])c2c(c1[H])C([H])([H])C([H])([H])C([H])([H])C2([H])N([H])C(=O)C1([H])N(C(=O)C([H])(N([H])C(=O)C([H])(N([H])C([H])([H])[H])C([H])([H])[H])C(C([H])([H])[H])(C([H])([H])[H])C([H])([H])[H])C([H])([H])c2c([H])c(OC([H])([H])C([H])([H])C([H])([H])C([H])([H])n3nnc(C(=O)N4C([H])([H])C([H])([H])C([H])([H])C([H])(n5nc(-c6c([H])c([H])c(Oc7c([H])c([H])c(F)c([H])c7F)c([H])c6[H])c(C(=O)N([H])[H])c5N([H])[H])C4([H])[H])c3[H])c([H])c([H])c2C1([H])[H]

>  <smiles>  (29) 
[H]c1c([H])c([H])c2c(c1[H])C([H])([H])C([H])([H])C([H])([H])C2([H])N([H])C(=O)C1([H])N(C(=O)C([H])(N([H])C(=O)C([H])(N([H])C([H])([H])[H])C([H])([H])[H])C(C([H])([H])[H])(C([H])([H])[H])C([H])([H])[H])C([H])([H])c2c([H])c(OC([H])([H])C([H])([H])C([H])([H])C([H])([H])n3nnc(C(=O)N4C([H])([H])C([H])([H])C([H])([H])C([H])(n5nc(-c6c([H])c([H])c(Oc7c([H])c([H])c(F)c([H])c7F)c([H])c6[H])c(C(=O)N([H])[H])c5N([H])[H])C4([H])[H])c3[H])c([H])c([H])c2C1([H])[H]

$$$$
30:0:0
     RDKit          3D

 90 98  0  0  1  0  0  0  0  0999 V2000
  -29.0610  -19.6600   20.4610 C   0  0  0  0  0  2  0  0  0  0  0  0
  -31.2850  -18.6250   23.4790 C   0  0  0  0  0  3  0  0  0  0  0  0
  -31.4720  -17.2650   23.2580 C   0  0  0  0  0  3  0  0  0  0  0  0
  -30.5020  -19.3710   22.5830 C   0  0  0  0  0  0  0  0  0  0  0  0
  -29.9510  -18.7540   21.4150 C   0  0  0  0  0  0  0  0  0  0  0  0
  -30.1790  -17.3010   21.2970 C   0  0  0  0  0  0  0  0  0  0  0  0
  -30.2170  -20.8040   22.9980 C   0  0  0  0  0  1  0  0  0  0  0  0
  -30.9170  -16.6370   22.2180 N   0  0  0  0  0  0  0  0  0  0  0  0
  -29.5580  -16.2550   20.2910 C   0  0  0  0  0  2  0  0  0  0  0  0
  -30.3560  -14.8870   19.9660 C   0  0  0  0  0  0  0  0  0  0  0  0
  -30.1150  -12.6260   18.9420 C   0  0  0  0  0  2  0  0  0  0  0  0
  -29.0930  -12.7550   17.7900 C   0  0  0  0  0  2  0  0  0  0  0  0
  -27.6620  -12.5340   18.3160 C   0  0  0  0  0  2  0  0  0  0  0  0
  -27.3670  -13.3700   19.5900 C   0  0  0  0  0  3  0  0  0  0  0  0
  -28.5080  -13.2680   20.6250 C   0  0  0  0  0  2  0  0  0  0  0  0
  -29.7610  -13.6440   19.9570 N   0  0  0  0  0  0  0  0  0  0  0  0
  -31.4990  -14.9930   19.5030 O   0  0  0  0  0  0  0  0  0  0  0  0
  -25.0400  -13.8840   20.5400 C   0  0  0  0  0  0  0  0  0  0  0  0
  -24.0230  -13.0760   20.9660 C   0  0  0  0  0  0  0  0  0  0  0  0
  -24.5010  -11.7360   20.8340 C   0  0  0  0  0  0  0  0  0  0  0  0
  -26.0730  -13.0360   20.1740 N   0  0  0  0  0  0  0  0  0  0  0  0
  -25.7600  -11.7350   20.4140 N   0  0  0  0  0  0  0  0  0  0  0  0
  -23.8140  -10.4530   21.0290 C   0  0  0  0  0  0  0  0  0  0  0  0
  -24.3050   -9.4760   21.9250 C   0  0  0  0  0  3  0  0  0  0  0  0
  -23.6130   -8.2600   22.1100 C   0  0  0  0  0  3  0  0  0  0  0  0
  -22.4140   -8.0110   21.4000 C   0  0  0  0  0  0  0  0  0  0  0  0
  -21.9410   -8.9750   20.4930 C   0  0  0  0  0  3  0  0  0  0  0  0
  -22.6340  -10.1830   20.3050 C   0  0  0  0  0  3  0  0  0  0  0  0
  -21.6900   -6.8470   21.4950 O   0  0  0  0  0  0  0  0  0  0  0  0
  -21.6760   -6.0990   22.6440 C   0  0  0  0  0  0  0  0  0  0  0  0
  -21.2260   -6.6300   23.8720 C   0  0  0  0  0  3  0  0  0  0  0  0
  -21.1670   -5.8090   25.0160 C   0  0  0  0  0  3  0  0  0  0  0  0
  -21.5420   -4.4560   24.9310 C   0  0  0  0  0  0  0  0  0  0  0  0
  -21.9820   -3.9220   23.7070 C   0  0  0  0  0  3  0  0  0  0  0  0
  -22.0450   -4.7420   22.5670 C   0  0  0  0  0  0  0  0  0  0  0  0
  -22.4520   -4.2180   21.3850 F   0  0  0  0  0  0  0  0  0  0  0  0
  -21.4750   -3.6620   26.0270 F   0  0  0  0  0  0  0  0  0  0  0  0
  -22.6470  -13.5120   21.3810 C   0  0  0  0  0  0  0  0  0  0  0  0
  -22.0120  -12.7640   22.2750 N   0  0  0  0  0  0  0  0  0  0  0  0
  -22.1480  -14.5510   20.9490 O   0  0  0  0  0  0  0  0  0  0  0  0
  -22.4320  -11.9200   22.6390 H   0  0  0  0  0  0  0  0  0  0  0  0
  -21.0960  -13.0370   22.6050 H   0  0  0  0  0  0  0  0  0  0  0  0
  -25.1730  -15.2650   20.4130 N   0  0  0  0  0  0  0  0  0  0  0  0
  -24.4130  -15.9070   20.6140 H   0  0  0  0  0  0  0  0  0  0  0  0
  -25.9890  -15.7280   20.0330 H   0  0  0  0  0  0  0  0  0  0  0  0
  -29.4720  -21.1820   20.0590 C   0  0  0  0  0  3  0  0  0  0  0  0
  -28.5720  -22.4530   20.4980 C   0  0  0  0  0  3  0  0  0  0  0  0
  -28.9260  -23.9560   20.0170 C   0  0  0  0  0  3  0  0  0  0  0  0
  -28.0260  -25.1780   20.5610 C   0  0  0  0  0  3  0  0  0  0  0  0
  -28.2320  -26.5920   20.1080 O   0  0  0  0  0  0  0  0  0  0  0  0
  -24.5340  -31.9780   23.2390 C   0  0  0  0  0  0  0  0  0  0  0  0
  -27.1190  -27.4560   20.1050 C   0  0  0  0  0  0  0  0  0  0  0  0
  -23.3100  -30.5920   21.6010 C   0  0  0  0  0  3  0  0  0  0  0  0
  -24.7470  -29.0680   20.1350 C   0  0  0  0  0  0  0  0  0  0  0  0
  -25.8440  -30.9310   21.3770 C   0  0  0  0  0  2  0  0  0  0  0  0
  -25.9250  -29.5570   20.7170 C   0  0  0  0  0  0  0  0  0  0  0  0
  -27.1150  -28.7660   20.6860 C   0  0  0  0  0  3  0  0  0  0  0  0
  -25.9220  -27.0300   19.4900 C   0  0  0  0  0  3  0  0  0  0  0  0
  -24.7500  -27.8120   19.5100 C   0  0  0  0  0  3  0  0  0  0  0  0
  -23.5060  -29.9380   20.2090 C   0  0  0  0  0  2  0  0  0  0  0  0
  -24.5820  -31.1830   22.1290 N   0  0  0  0  0  0  0  0  0  0  0  0
  -23.4570  -32.2390   23.7960 O   0  0  0  0  0  0  0  0  0  0  0  0
  -22.6710  -29.5590   22.5600 C   0  0  0  0  0  0  0  0  0  0  0  0
  -21.3480  -29.3550   22.4360 N   0  0  0  0  0  0  0  0  0  0  0  0
  -23.3640  -28.9470   23.3770 O   0  0  0  0  0  0  0  0  0  0  0  0
  -20.8460  -29.8970   21.7470 H   0  0  0  0  0  0  0  0  0  0  0  0
  -18.0010  -28.0860   22.9470 C   0  0  0  0  0  0  0  0  0  0  0  0
  -20.5540  -28.3980   23.2090 C   0  0  0  0  0  3  0  0  0  0  0  0
  -20.6860  -26.9710   22.6320 C   0  0  0  0  0  2  0  0  0  0  0  0
  -19.5890  -26.6250   21.6200 C   0  0  0  0  0  2  0  0  0  0  0  0
  -18.2060  -26.7410   22.2690 C   0  0  0  0  0  2  0  0  0  0  0  0
  -19.1040  -28.8700   23.3740 C   0  0  0  0  0  0  0  0  0  0  0  0
  -18.8600  -30.1260   23.9690 C   0  0  0  0  0  3  0  0  0  0  0  0
  -17.5470  -30.6000   24.1420 C   0  0  0  0  0  3  0  0  0  0  0  0
  -16.4580  -29.8120   23.7320 C   0  0  0  0  0  3  0  0  0  0  0  0
  -16.6850  -28.5570   23.1390 C   0  0  0  0  0  3  0  0  0  0  0  0
  -25.8210  -32.6150   23.8440 C   0  0  0  0  0  3  0  0  0  0  0  0
  -25.5120  -34.0130   24.1780 N   0  0  0  0  0  0  0  0  0  0  0  0
  -25.8320  -35.0670   23.4140 C   0  0  0  0  0  0  0  0  0  0  0  0
  -26.4900  -34.9650   22.3760 O   0  0  0  0  0  0  0  0  0  0  0  0
  -24.9240  -34.1670   24.9830 H   0  0  0  0  0  0  0  0  0  0  0  0
  -24.1010  -36.8620   23.0750 C   0  0  0  0  0  1  0  0  0  0  0  0
  -25.3460  -36.4540   23.8770 C   0  0  0  0  0  3  0  0  0  0  0  0
  -27.4810  -37.3440   24.7020 C   0  0  0  0  0  1  0  0  0  0  0  0
  -26.3770  -37.5090   23.7610 N   0  0  0  0  0  0  0  0  0  0  0  0
  -25.9680  -38.4270   23.9100 H   0  0  0  0  0  0  0  0  0  0  0  0
  -26.3550  -31.8440   25.1160 C   0  0  1  0  0  0  0  0  0  0  0  0
  -25.2740  -31.5980   26.1950 C   0  0  0  0  0  1  0  0  0  0  0  0
  -26.9430  -30.4690   24.7180 C   0  0  0  0  0  1  0  0  0  0  0  0
  -27.5040  -32.6460   25.7690 C   0  0  0  0  0  1  0  0  0  0  0  0
  1  5  1  0
  3  2  1  0
  4  7  1  0
  4  2  2  0
  5  4  1  0
  6  5  2  0
  6  8  1  0
  8  3  2  0
  9  6  1  0
 10  9  1  0
 11 16  1  0
 12 13  1  0
 12 11  1  0
 14 13  1  0
 14 21  1  0
 14 15  1  0
 16 10  1  0
 16 15  1  0
 17 10  2  0
 18 19  2  0
 19 38  1  0
 20 19  1  0
 20 23  1  0
 21 22  1  0
 21 18  1  0
 22 20  2  0
 23 24  1  0
 24 25  2  0
 26 29  1  0
 26 25  1  0
 27 26  2  0
 28 27  1  0
 28 23  2  0
 29 30  1  0
 30 31  1  0
 31 32  2  0
 33 32  1  0
 33 37  1  0
 34 33  2  0
 35 30  2  0
 35 34  1  0
 36 35  1  0
 38 39  1  0
 39 42  1  0
 39 41  1  0
 40 38  2  0
 43 18  1  0
 43 44  1  0
 45 43  1  0
 46  1  1  0
 46 47  2  0
 48 47  1  0
 48 49  2  0
 50 49  1  0
 51 62  2  0
 52 50  1  0
 52 57  1  0
 53 61  1  0
 53 63  1  0
 54 60  1  0
 54 56  1  0
 55 61  1  0
 56 55  1  0
 57 56  2  0
 58 59  1  0
 58 52  2  0
 59 54  2  0
 60 53  1  0
 61 51  1  0
 63 65  2  0
 64 63  1  0
 66 64  1  0
 67 76  2  0
 67 72  1  0
 68 64  1  0
 68 72  1  0
 69 68  1  0
 70 71  1  0
 70 69  1  0
 71 67  1  0
 72 73  2  0
 73 74  1  0
 75 74  2  0
 76 75  1  0
 77 51  1  0
 77 78  1  0
 77 87  1  0
 78 81  1  0
 79 83  1  0
 79 78  1  0
 80 79  2  0
 83 82  1  0
 85 83  1  0
 85 86  1  0
 85 84  1  0
 87 90  1  1
 87 88  1  0
 89 87  1  0
M  ISO  4   9 100  10 100  49 101  50 101
M  END
>  <TORSDO>  (30) 
F 22

>  <SCORE>  (30) 
-11.151

>  <name>  (30) 
30

>  <ligand_id>  (30) 
30

>  <original_smiles>  (30) 
[H]c1nc(C([H])([H])C(=O)N2C([H])([H])C([H])([H])C([H])([H])C([H])(n3nc(-c4c([H])c([H])c(Oc5c([H])c([H])c(F)c([H])c5F)c([H])c4[H])c(C(=O)N([H])[H])c3N([H])[H])C2([H])[H])c(C([H])([H])C([H])([H])C([H])([H])C([H])([H])C([H])([H])Oc2c([H])c([H])c3c(c2[H])C([H])([H])N(C(=O)C([H])(N([H])C(=O)C([H])(N([H])C([H])([H])[H])C([H])([H])[H])C(C([H])([H])[H])(C([H])([H])[H])C([H])([H])[H])C([H])(C(=O)N([H])C2([H])c4c([H])c([H])c([H])c([H])c4C([H])([H])C([H])([H])C2([H])[H])C3([H])[H])c(C([H])([H])[H])c1[H]

>  <smiles>  (30) 
[H]c1nc(C([H])([H])C(=O)N2C([H])([H])C([H])([H])C([H])([H])C([H])(n3nc(-c4c([H])c([H])c(Oc5c([H])c([H])c(F)c([H])c5F)c([H])c4[H])c(C(=O)N([H])[H])c3N([H])[H])C2([H])[H])c(C([H])([H])C([H])([H])C([H])([H])C([H])([H])C([H])([H])Oc2c([H])c([H])c3c(c2[H])C([H])([H])N(C(=O)C([H])(N([H])C(=O)C([H])(N([H])C([H])([H])[H])C([H])([H])[H])C(C([H])([H])[H])(C([H])([H])[H])C([H])([H])[H])C([H])(C(=O)N([H])C2([H])c4c([H])c([H])c([H])c([H])c4C([H])([H])C([H])([H])C2([H])[H])C3([H])[H])c(C([H])([H])[H])c1[H]

$$$$
31:0:0
     RDKit          3D

 94102  0  0  1  0  0  0  0  0999 V2000
  -29.1680  -20.0540   20.6820 C   0  0  0  0  0  3  0  0  0  0  0  0
  -30.1630  -19.1610   20.2030 C   0  0  0  0  0  0  0  0  0  0  0  0
  -31.6100  -20.9610   19.9640 C   0  0  0  0  0  0  0  0  0  0  0  0
  -30.5920  -21.8520   20.3990 C   0  0  0  0  0  0  0  0  0  0  0  0
  -32.9820  -21.4310   19.5210 C   0  0  0  0  0  1  0  0  0  0  0  0
  -29.3780  -21.3890   20.7850 N   0  0  0  0  0  0  0  0  0  0  0  0
  -31.4010  -19.6220   19.8930 N   0  0  0  0  0  0  0  0  0  0  0  0
  -30.5860  -17.1950   18.6750 C   0  0  0  0  0  1  0  0  0  0  0  0
  -28.3930  -17.3780   19.8040 C   0  0  0  0  0  1  0  0  0  0  0  0
  -29.9030  -17.6500   19.9900 C   0  0  2  0  0  0  0  0  0  0  0  0
  -30.4480  -16.8250   21.1970 C   0  0  0  0  0  2  0  0  0  0  0  0
  -30.7200  -14.4150   20.5700 C   0  0  0  0  0  0  0  0  0  0  0  0
  -30.3780  -12.3010   19.3580 C   0  0  0  0  0  2  0  0  0  0  0  0
  -29.4610  -12.5610   18.1470 C   0  0  0  0  0  2  0  0  0  0  0  0
  -27.9780  -12.4270   18.5490 C   0  0  0  0  0  2  0  0  0  0  0  0
  -27.6340  -13.2420   19.8210 C   0  0  0  0  0  3  0  0  0  0  0  0
  -28.6710  -12.9860   20.9410 C   0  0  0  0  0  2  0  0  0  0  0  0
  -30.0140  -13.2660   20.4030 N   0  0  0  0  0  0  0  0  0  0  0  0
  -31.8360  -14.6020   20.0810 O   0  0  0  0  0  0  0  0  0  0  0  0
  -30.0540  -15.4070   21.1760 N   0  0  0  0  0  0  0  0  0  0  0  0
  -29.1480  -15.1740   21.5540 H   0  0  0  0  0  0  0  0  0  0  0  0
  -25.2240  -13.8860   20.4640 C   0  0  0  0  0  0  0  0  0  0  0  0
  -24.1430  -13.1290   20.8260 C   0  0  0  0  0  0  0  0  0  0  0  0
  -24.5930  -11.7730   20.8250 C   0  0  0  0  0  0  0  0  0  0  0  0
  -26.2670  -12.9910   20.2720 N   0  0  0  0  0  0  0  0  0  0  0  0
  -25.8880  -11.7170   20.5430 N   0  0  0  0  0  0  0  0  0  0  0  0
  -23.8510  -10.5210   21.0200 C   0  0  0  0  0  0  0  0  0  0  0  0
  -24.2680   -9.5590   21.9650 C   0  0  0  0  0  3  0  0  0  0  0  0
  -23.5310   -8.3700   22.1480 C   0  0  0  0  0  3  0  0  0  0  0  0
  -22.3640   -8.1340   21.3830 C   0  0  0  0  0  0  0  0  0  0  0  0
  -21.9650   -9.0850   20.4270 C   0  0  0  0  0  3  0  0  0  0  0  0
  -22.7020  -10.2660   20.2430 C   0  0  0  0  0  3  0  0  0  0  0  0
  -21.6020   -6.9930   21.4710 O   0  0  0  0  0  0  0  0  0  0  0  0
  -21.5450   -6.2520   22.6240 C   0  0  0  0  0  0  0  0  0  0  0  0
  -21.1330   -6.8150   23.8510 C   0  0  0  0  0  3  0  0  0  0  0  0
  -21.0210   -6.0010   24.9960 C   0  0  0  0  0  3  0  0  0  0  0  0
  -21.3140   -4.6260   24.9150 C   0  0  0  0  0  0  0  0  0  0  0  0
  -21.7190   -4.0630   23.6920 C   0  0  0  0  0  3  0  0  0  0  0  0
  -21.8320   -4.8740   22.5490 C   0  0  0  0  0  0  0  0  0  0  0  0
  -22.2010   -4.3240   21.3670 F   0  0  0  0  0  0  0  0  0  0  0  0
  -21.2000   -3.8410   26.0110 F   0  0  0  0  0  0  0  0  0  0  0  0
  -22.7450  -13.6210   21.0640 C   0  0  0  0  0  0  0  0  0  0  0  0
  -21.9940  -12.9460   21.9250 N   0  0  0  0  0  0  0  0  0  0  0  0
  -22.3240  -14.6410   20.5170 O   0  0  0  0  0  0  0  0  0  0  0  0
  -22.3430  -12.1210   22.3910 H   0  0  0  0  0  0  0  0  0  0  0  0
  -21.0560  -13.2610   22.1240 H   0  0  0  0  0  0  0  0  0  0  0  0
  -25.3990  -15.2530   20.2670 N   0  0  0  0  0  0  0  0  0  0  0  0
  -24.6230  -15.9050   20.3280 H   0  0  0  0  0  0  0  0  0  0  0  0
  -26.2560  -15.6830   19.9470 H   0  0  0  0  0  0  0  0  0  0  0  0
  -30.7940  -23.3650   20.5000 C   0  0  0  0  0  2  0  0  0  0  0  0
  -30.1370  -24.1900   19.3650 C   0  0  0  0  0  2  0  0  0  0  0  0
  -28.6080  -24.3730   19.4700 C   0  0  0  0  0  2  0  0  0  0  0  0
  -28.1680  -25.3190   20.6010 C   0  0  0  0  0  2  0  0  0  0  0  0
  -28.3600  -26.6950   20.2320 O   0  0  0  0  0  0  0  0  0  0  0  0
  -24.5750  -31.8900   23.2370 C   0  0  0  0  0  0  0  0  0  0  0  0
  -27.2090  -27.4490   20.1770 C   0  0  0  0  0  0  0  0  0  0  0  0
  -23.3680  -30.4870   21.5950 C   0  0  0  0  0  3  0  0  0  0  0  0
  -24.8240  -28.9600   20.1630 C   0  0  0  0  0  0  0  0  0  0  0  0
  -25.8930  -30.8530   21.3970 C   0  0  0  0  0  2  0  0  0  0  0  0
  -25.9790  -29.4810   20.7570 C   0  0  0  0  0  0  0  0  0  0  0  0
  -27.1770  -28.7340   20.7620 C   0  0  0  0  0  3  0  0  0  0  0  0
  -26.0440  -26.9490   19.5540 C   0  0  0  0  0  3  0  0  0  0  0  0
  -24.8520  -27.6940   19.5530 C   0  0  0  0  0  3  0  0  0  0  0  0
  -23.5770  -29.8110   20.2140 C   0  0  0  0  0  2  0  0  0  0  0  0
  -24.6300  -31.0900   22.1340 N   0  0  0  0  0  0  0  0  0  0  0  0
  -23.4950  -32.1610   23.7780 O   0  0  0  0  0  0  0  0  0  0  0  0
  -22.7210  -29.4620   22.5540 C   0  0  0  0  0  0  0  0  0  0  0  0
  -21.3960  -29.2830   22.4300 N   0  0  0  0  0  0  0  0  0  0  0  0
  -23.4060  -28.8370   23.3680 O   0  0  0  0  0  0  0  0  0  0  0  0
  -20.9060  -29.8400   21.7460 H   0  0  0  0  0  0  0  0  0  0  0  0
  -18.0210  -28.1040   22.9350 C   0  0  0  0  0  0  0  0  0  0  0  0
  -20.5800  -28.3470   23.2020 C   0  0  0  0  0  3  0  0  0  0  0  0
  -20.6760  -26.9170   22.6240 C   0  0  0  0  0  2  0  0  0  0  0  0
  -19.5700  -26.6020   21.6110 C   0  0  0  0  0  2  0  0  0  0  0  0
  -18.1900  -26.7530   22.2580 C   0  0  0  0  0  2  0  0  0  0  0  0
  -19.1440  -28.8580   23.3640 C   0  0  0  0  0  0  0  0  0  0  0  0
  -18.9320  -30.1230   23.9560 C   0  0  0  0  0  3  0  0  0  0  0  0
  -17.6310  -30.6310   24.1230 C   0  0  0  0  0  3  0  0  0  0  0  0
  -16.5210  -29.8720   23.7120 C   0  0  0  0  0  3  0  0  0  0  0  0
  -16.7180  -28.6100   23.1220 C   0  0  0  0  0  3  0  0  0  0  0  0
  -25.8620  -32.5210   23.8550 C   0  0  0  0  0  3  0  0  0  0  0  0
  -25.5560  -33.9180   24.1840 N   0  0  0  0  0  0  0  0  0  0  0  0
  -25.8910  -34.9690   23.4230 C   0  0  0  0  0  0  0  0  0  0  0  0
  -26.5650  -34.8640   22.3950 O   0  0  0  0  0  0  0  0  0  0  0  0
  -24.9600  -34.0750   24.9840 H   0  0  0  0  0  0  0  0  0  0  0  0
  -24.1680  -36.7620   23.0550 C   0  0  0  0  0  1  0  0  0  0  0  0
  -25.4000  -36.3570   23.8780 C   0  0  0  0  0  3  0  0  0  0  0  0
  -27.5300  -37.2370   24.7270 C   0  0  0  0  0  1  0  0  0  0  0  0
  -26.4340  -37.4080   23.7750 N   0  0  0  0  0  0  0  0  0  0  0  0
  -26.0280  -38.3290   23.9210 H   0  0  0  0  0  0  0  0  0  0  0  0
  -26.3850  -31.7480   25.1270 C   0  0  1  0  0  0  0  0  0  0  0  0
  -25.2970  -31.5060   26.1990 C   0  0  0  0  0  1  0  0  0  0  0  0
  -26.9700  -30.3730   24.7270 C   0  0  0  0  0  1  0  0  0  0  0  0
  -27.5360  -32.5430   25.7890 C   0  0  0  0  0  1  0  0  0  0  0  0
  1  6  1  0
  2  1  2  0
  3  4  1  0
  4 50  1  0
  4  6  2  0
  5  3  1  0
  7  3  2  0
  7  2  1  0
 10  8  1  6
  9 10  1  0
 10  2  1  0
 10 11  1  0
 12 20  1  0
 13 18  1  0
 14 15  1  0
 14 13  1  0
 16 15  1  0
 16 25  1  0
 16 17  1  0
 18 12  1  0
 18 17  1  0
 19 12  2  0
 20 11  1  0
 20 21  1  0
 22 23  2  0
 23 42  1  0
 24 23  1  0
 24 27  1  0
 25 22  1  0
 25 26  1  0
 26 24  2  0
 27 28  1  0
 28 29  2  0
 30 33  1  0
 30 29  1  0
 31 30  2  0
 32 31  1  0
 32 27  2  0
 33 34  1  0
 34 35  1  0
 35 36  2  0
 37 36  1  0
 37 41  1  0
 38 37  2  0
 39 34  2  0
 39 38  1  0
 40 39  1  0
 42 43  1  0
 43 46  1  0
 43 45  1  0
 44 42  2  0
 47 48  1  0
 47 22  1  0
 49 47  1  0
 51 52  1  0
 51 50  1  0
 52 53  1  0
 54 53  1  0
 55 66  2  0
 56 54  1  0
 56 61  1  0
 57 65  1  0
 57 67  1  0
 58 64  1  0
 58 60  1  0
 59 65  1  0
 60 61  2  0
 60 59  1  0
 62 56  2  0
 63 62  1  0
 63 58  2  0
 64 57  1  0
 65 55  1  0
 67 69  2  0
 68 67  1  0
 70 68  1  0
 71 80  2  0
 71 76  1  0
 72 68  1  0
 72 76  1  0
 73 72  1  0
 74 75  1  0
 74 73  1  0
 75 71  1  0
 76 77  2  0
 77 78  1  0
 79 78  2  0
 80 79  1  0
 81 55  1  0
 81 82  1  0
 81 91  1  0
 82 85  1  0
 83 87  1  0
 83 82  1  0
 84 83  2  0
 87 86  1  0
 89 87  1  0
 89 90  1  0
 89 88  1  0
 91 94  1  1
 91 92  1  0
 93 91  1  0
M  ISO  4  12 100  20 100  53 101  54 101
M  END
>  <TORSDO>  (31) 
F 22

>  <SCORE>  (31) 
-13.459

>  <name>  (31) 
31

>  <ligand_id>  (31) 
31

>  <original_smiles>  (31) 
[H]c1nc(C([H])([H])C([H])([H])C([H])([H])C([H])([H])Oc2c([H])c([H])c3c(c2[H])C([H])([H])N(C(=O)C([H])(N([H])C(=O)C([H])(N([H])C([H])([H])[H])C([H])([H])[H])C(C([H])([H])[H])(C([H])([H])[H])C([H])([H])[H])C([H])(C(=O)N([H])C2([H])c4c([H])c([H])c([H])c([H])c4C([H])([H])C([H])([H])C2([H])[H])C3([H])[H])c(C([H])([H])[H])nc1C(C([H])([H])[H])(C([H])([H])[H])C([H])([H])N([H])C(=O)N1C([H])([H])C([H])([H])C([H])([H])C([H])(n2nc(-c3c([H])c([H])c(Oc4c([H])c([H])c(F)c([H])c4F)c([H])c3[H])c(C(=O)N([H])[H])c2N([H])[H])C1([H])[H]

>  <smiles>  (31) 
[H]c1nc(C([H])([H])C([H])([H])C([H])([H])C([H])([H])Oc2c([H])c([H])c3c(c2[H])C([H])([H])N(C(=O)C([H])(N([H])C(=O)C([H])(N([H])C([H])([H])[H])C([H])([H])[H])C(C([H])([H])[H])(C([H])([H])[H])C([H])([H])[H])C([H])(C(=O)N([H])C2([H])c4c([H])c([H])c([H])c([H])c4C([H])([H])C([H])([H])C2([H])[H])C3([H])[H])c(C([H])([H])[H])nc1C(C([H])([H])[H])(C([H])([H])[H])C([H])([H])N([H])C(=O)N1C([H])([H])C([H])([H])C([H])([H])C([H])(n2nc(-c3c([H])c([H])c(Oc4c([H])c([H])c(F)c([H])c4F)c([H])c3[H])c(C(=O)N([H])[H])c2N([H])[H])C1([H])[H]

$$$$
32:0:0
     RDKit          3D

 93101  0  0  1  0  0  0  0  0999 V2000
  -29.4470  -19.0000   19.1120 C   0  0  0  0  0  3  0  0  0  0  0  0
  -29.6930  -17.6240   19.3460 C   0  0  0  0  0  3  0  0  0  0  0  0
  -30.1470  -19.7610   20.0040 C   0  0  0  0  0  0  0  0  0  0  0  0
  -30.5100  -17.4500   20.4290 C   0  0  0  0  0  0  0  0  0  0  0  0
  -30.7840  -18.8160   20.9000 N   0  0  0  0  0  0  0  0  0  0  0  0
  -31.5390  -20.6930   22.5250 C   0  0  0  0  0  1  0  0  0  0  0  0
  -33.1010  -18.9230   21.8770 C   0  0  0  0  0  1  0  0  0  0  0  0
  -31.0370  -18.5260   23.3940 C   0  0  0  0  0  1  0  0  0  0  0  0
  -31.5950  -19.2010   22.1150 C   0  0  2  0  0  0  0  0  0  0  0  0
  -32.0360  -15.8160   21.9440 C   0  0  0  0  0  1  0  0  0  0  0  0
  -29.5190  -15.7420   21.9000 C   0  0  0  0  0  1  0  0  0  0  0  0
  -30.7790  -15.9860   21.0410 C   0  0  1  0  0  0  0  0  0  0  0  0
  -31.0810  -14.7840   19.9660 C   0  0  0  0  0  0  0  0  0  0  0  0
  -30.6970  -12.6610   18.6600 C   0  0  0  0  0  2  0  0  0  0  0  0
  -29.6710  -12.8770   17.5240 C   0  0  0  0  0  2  0  0  0  0  0  0
  -28.2240  -12.7190   18.0330 C   0  0  0  0  0  2  0  0  0  0  0  0
  -27.9880  -13.4850   19.3590 C   0  0  0  0  0  3  0  0  0  0  0  0
  -29.1090  -13.1390   20.3630 C   0  0  0  0  0  2  0  0  0  0  0  0
  -30.3780  -13.5990   19.7750 N   0  0  0  0  0  0  0  0  0  0  0  0
  -32.1060  -14.9340   19.2880 O   0  0  0  0  0  0  0  0  0  0  0  0
  -25.6560  -14.1430   20.2160 C   0  0  0  0  0  0  0  0  0  0  0  0
  -24.5900  -13.3930   20.6350 C   0  0  0  0  0  0  0  0  0  0  0  0
  -25.0080  -12.0310   20.5470 C   0  0  0  0  0  0  0  0  0  0  0  0
  -26.6580  -13.2370   19.9070 N   0  0  0  0  0  0  0  0  0  0  0  0
  -26.2750  -11.9590   20.1580 N   0  0  0  0  0  0  0  0  0  0  0  0
  -24.2570  -10.7870   20.7550 C   0  0  0  0  0  0  0  0  0  0  0  0
  -24.6970   -9.8020   21.6660 C   0  0  0  0  0  3  0  0  0  0  0  0
  -23.9460   -8.6230   21.8610 C   0  0  0  0  0  3  0  0  0  0  0  0
  -22.7430   -8.4200   21.1460 C   0  0  0  0  0  0  0  0  0  0  0  0
  -22.3210   -9.3930   20.2230 C   0  0  0  0  0  3  0  0  0  0  0  0
  -23.0710  -10.5660   20.0250 C   0  0  0  0  0  3  0  0  0  0  0  0
  -21.9650   -7.2920   21.2500 O   0  0  0  0  0  0  0  0  0  0  0  0
  -21.9010   -6.5680   22.4120 C   0  0  0  0  0  0  0  0  0  0  0  0
  -21.5060   -7.1540   23.6350 C   0  0  0  0  0  3  0  0  0  0  0  0
  -21.3850   -6.3590   24.7910 C   0  0  0  0  0  3  0  0  0  0  0  0
  -21.6500   -4.9770   24.7270 C   0  0  0  0  0  0  0  0  0  0  0  0
  -22.0390   -4.3910   23.5100 C   0  0  0  0  0  3  0  0  0  0  0  0
  -22.1610   -5.1830   22.3560 C   0  0  0  0  0  0  0  0  0  0  0  0
  -22.5160   -4.6100   21.1800 F   0  0  0  0  0  0  0  0  0  0  0  0
  -21.5280   -4.2110   25.8350 F   0  0  0  0  0  0  0  0  0  0  0  0
  -23.2280  -13.9070   21.0050 C   0  0  0  0  0  0  0  0  0  0  0  0
  -22.5380  -13.2200   21.9080 N   0  0  0  0  0  0  0  0  0  0  0  0
  -22.7870  -14.9530   20.5290 O   0  0  0  0  0  0  0  0  0  0  0  0
  -22.9080  -12.3750   22.3160 H   0  0  0  0  0  0  0  0  0  0  0  0
  -21.6280  -13.5500   22.1980 H   0  0  0  0  0  0  0  0  0  0  0  0
  -25.8450  -15.5110   20.0570 N   0  0  0  0  0  0  0  0  0  0  0  0
  -25.1050  -16.1800   20.2370 H   0  0  0  0  0  0  0  0  0  0  0  0
  -26.6870  -15.9410   19.6960 H   0  0  0  0  0  0  0  0  0  0  0  0
  -30.2600  -21.3290   19.8490 C   0  0  0  0  0  3  0  0  0  0  0  0
  -29.1490  -22.3830   20.3200 C   0  0  0  0  0  3  0  0  0  0  0  0
  -29.4390  -23.9490   20.0560 C   0  0  0  0  0  3  0  0  0  0  0  0
  -28.2780  -25.0120   20.3300 C   0  0  0  0  0  3  0  0  0  0  0  0
  -28.4940  -26.4760   20.1130 O   0  0  0  0  0  0  0  0  0  0  0  0
  -24.6030  -31.7820   23.1500 C   0  0  0  0  0  0  0  0  0  0  0  0
  -27.3590  -27.3100   20.0750 C   0  0  0  0  0  0  0  0  0  0  0  0
  -23.4520  -30.3650   21.4900 C   0  0  0  0  0  3  0  0  0  0  0  0
  -24.9540  -28.8700   20.0650 C   0  0  0  0  0  0  0  0  0  0  0  0
  -25.9840  -30.7500   21.3320 C   0  0  0  0  0  2  0  0  0  0  0  0
  -26.1050  -29.3790   20.6760 C   0  0  0  0  0  0  0  0  0  0  0  0
  -27.3100  -28.6100   20.6740 C   0  0  0  0  0  3  0  0  0  0  0  0
  -26.1830  -26.8720   19.4230 C   0  0  0  0  0  3  0  0  0  0  0  0
  -24.9960  -27.6220   19.4270 C   0  0  0  0  0  3  0  0  0  0  0  0
  -23.6960  -29.7100   20.1060 C   0  0  0  0  0  2  0  0  0  0  0  0
  -24.6970  -30.9850   22.0460 N   0  0  0  0  0  0  0  0  0  0  0  0
  -23.5090  -32.0230   23.6800 O   0  0  0  0  0  0  0  0  0  0  0  0
  -22.8100  -29.3220   22.4360 C   0  0  0  0  0  0  0  0  0  0  0  0
  -21.4910  -29.1060   22.2950 N   0  0  0  0  0  0  0  0  0  0  0  0
  -23.4970  -28.7110   23.2570 O   0  0  0  0  0  0  0  0  0  0  0  0
  -20.9920  -29.6530   21.6070 H   0  0  0  0  0  0  0  0  0  0  0  0
  -18.1480  -27.7870   22.7320 C   0  0  0  0  0  0  0  0  0  0  0  0
  -20.6910  -28.1400   23.0520 C   0  0  0  0  0  3  0  0  0  0  0  0
  -20.8550  -26.7130   22.4790 C   0  0  0  0  0  2  0  0  0  0  0  0
  -19.7840  -26.3500   21.4450 C   0  0  0  0  0  2  0  0  0  0  0  0
  -18.3860  -26.4440   22.0630 C   0  0  0  0  0  2  0  0  0  0  0  0
  -19.2310  -28.5900   23.1820 C   0  0  0  0  0  0  0  0  0  0  0  0
  -18.9530  -29.8440   23.7680 C   0  0  0  0  0  3  0  0  0  0  0  0
  -17.6270  -30.2960   23.9080 C   0  0  0  0  0  3  0  0  0  0  0  0
  -16.5610  -29.4910   23.4740 C   0  0  0  0  0  3  0  0  0  0  0  0
  -16.8220  -28.2380   22.8910 C   0  0  0  0  0  3  0  0  0  0  0  0
  -25.8650  -32.4430   23.7860 C   0  0  0  0  0  3  0  0  0  0  0  0
  -25.5110  -33.8260   24.1390 N   0  0  0  0  0  0  0  0  0  0  0  0
  -25.8080  -34.9010   23.3960 C   0  0  0  0  0  0  0  0  0  0  0  0
  -26.4780  -34.8350   22.3620 O   0  0  0  0  0  0  0  0  0  0  0  0
  -24.9160  -33.9490   24.9460 H   0  0  0  0  0  0  0  0  0  0  0  0
  -24.0200  -36.6420   23.0790 C   0  0  0  0  0  1  0  0  0  0  0  0
  -25.2790  -36.2660   23.8770 C   0  0  0  0  0  3  0  0  0  0  0  0
  -27.3890  -37.2110   24.7040 C   0  0  0  0  0  1  0  0  0  0  0  0
  -26.2750  -37.3550   23.7710 N   0  0  0  0  0  0  0  0  0  0  0  0
  -25.8400  -38.2580   23.9340 H   0  0  0  0  0  0  0  0  0  0  0  0
  -26.4010  -31.6660   25.0510 C   0  0  1  0  0  0  0  0  0  0  0  0
  -25.3150  -31.3800   26.1140 C   0  0  0  0  0  1  0  0  0  0  0  0
  -27.0230  -30.3100   24.6390 C   0  0  0  0  0  1  0  0  0  0  0  0
  -27.5280  -32.4810   25.7250 C   0  0  0  0  0  1  0  0  0  0  0  0
  1  2  1  0
  1  3  2  0
  2  4  2  0
  3  5  1  0
  4  5  1  0
  4 12  1  0
  5  9  1  0
  9  7  1  6
  9  6  1  0
  9  8  1  0
 12 11  1  1
 12 10  1  0
 13 12  1  0
 14 19  1  0
 15 16  1  0
 15 14  1  0
 17 16  1  0
 17 24  1  0
 17 18  1  0
 19 13  1  0
 19 18  1  0
 20 13  2  0
 21 22  2  0
 22 41  1  0
 23 22  1  0
 23 26  1  0
 24 25  1  0
 24 21  1  0
 25 23  2  0
 26 27  1  0
 27 28  2  0
 29 32  1  0
 29 28  1  0
 30 29  2  0
 31 30  1  0
 31 26  2  0
 32 33  1  0
 33 34  1  0
 34 35  2  0
 36 35  1  0
 36 40  1  0
 37 36  2  0
 38 33  2  0
 38 37  1  0
 39 38  1  0
 41 42  1  0
 42 45  1  0
 42 44  1  0
 43 41  2  0
 46 21  1  0
 46 47  1  0
 48 46  1  0
 49  3  1  0
 49 50  2  0
 51 50  1  0
 51 52  2  0
 53 52  1  0
 54 65  2  0
 55 53  1  0
 55 60  1  0
 56 64  1  0
 56 66  1  0
 57 63  1  0
 57 59  1  0
 58 64  1  0
 59 58  1  0
 60 59  2  0
 61 62  1  0
 61 55  2  0
 62 57  2  0
 63 56  1  0
 64 54  1  0
 66 68  2  0
 67 66  1  0
 69 67  1  0
 70 79  2  0
 70 75  1  0
 71 67  1  0
 71 75  1  0
 72 71  1  0
 73 74  1  0
 73 72  1  0
 74 70  1  0
 75 76  2  0
 76 77  1  0
 78 77  2  0
 79 78  1  0
 80 54  1  0
 80 81  1  0
 80 90  1  0
 81 84  1  0
 82 86  1  0
 82 81  1  0
 83 82  2  0
 86 85  1  0
 88 86  1  0
 88 89  1  0
 88 87  1  0
 90 93  1  1
 90 91  1  0
 92 90  1  0
M  ISO  4  12 100  13 100  52 101  53 101
M  END
>  <TORSDO>  (32) 
F 22

>  <SCORE>  (32) 
-10.289

>  <name>  (32) 
32

>  <ligand_id>  (32) 
32

>  <original_smiles>  (32) 
[H]c1c([H])c([H])c2c(c1[H])C([H])([H])C([H])([H])C([H])([H])C2([H])N([H])C(=O)C1([H])N(C(=O)C([H])(N([H])C(=O)C([H])(N([H])C([H])([H])[H])C([H])([H])[H])C(C([H])([H])[H])(C([H])([H])[H])C([H])([H])[H])C([H])([H])c2c([H])c(OC([H])([H])C([H])([H])C([H])([H])C([H])([H])c3c([H])c([H])c(C(C(=O)N4C([H])([H])C([H])([H])C([H])([H])C([H])(n5nc(-c6c([H])c([H])c(Oc7c([H])c([H])c(F)c([H])c7F)c([H])c6[H])c(C(=O)N([H])[H])c5N([H])[H])C4([H])[H])(C([H])([H])[H])C([H])([H])[H])n3C(C([H])([H])[H])(C([H])([H])[H])C([H])([H])[H])c([H])c([H])c2C1([H])[H]

>  <smiles>  (32) 
[H]c1c([H])c([H])c2c(c1[H])C([H])([H])C([H])([H])C([H])([H])C2([H])N([H])C(=O)C1([H])N(C(=O)C([H])(N([H])C(=O)C([H])(N([H])C([H])([H])[H])C([H])([H])[H])C(C([H])([H])[H])(C([H])([H])[H])C([H])([H])[H])C([H])([H])c2c([H])c(OC([H])([H])C([H])([H])C([H])([H])C([H])([H])c3c([H])c([H])c(C(C(=O)N4C([H])([H])C([H])([H])C([H])([H])C([H])(n5nc(-c6c([H])c([H])c(Oc7c([H])c([H])c(F)c([H])c7F)c([H])c6[H])c(C(=O)N([H])[H])c5N([H])[H])C4([H])[H])(C([H])([H])[H])C([H])([H])[H])n3C(C([H])([H])[H])(C([H])([H])[H])C([H])([H])[H])c([H])c([H])c2C1([H])[H]

$$$$
33:0:0
     RDKit          3D

 94102  0  0  1  0  0  0  0  0999 V2000
  -29.8530  -19.4990   20.6130 C   0  0  0  0  0  3  0  0  0  0  0  0
  -29.2920  -20.4780   19.7670 C   0  0  0  0  0  0  0  0  0  0  0  0
  -30.3520  -18.2920   20.0370 C   0  0  0  0  0  0  0  0  0  0  0  0
  -29.6680  -19.0870   17.9850 C   0  0  0  0  0  0  0  0  0  0  0  0
  -29.5180  -18.8510   16.4980 C   0  0  0  0  0  1  0  0  0  0  0  0
  -29.2070  -20.2440   18.4450 N   0  0  0  0  0  0  0  0  0  0  0  0
  -30.2330  -18.1190   18.7040 N   0  0  0  0  0  0  0  0  0  0  0  0
  -31.3240  -17.7200   22.2870 C   0  0  0  0  0  1  0  0  0  0  0  0
  -32.5690  -17.1200   20.2980 C   0  0  0  0  0  1  0  0  0  0  0  0
  -31.1140  -17.1690   20.8370 C   0  0  2  0  0  0  0  0  0  0  0  0
  -28.8370  -16.0650   20.8380 C   0  0  0  0  0  1  0  0  0  0  0  0
  -30.6410  -15.0500   22.3080 C   0  0  0  0  0  1  0  0  0  0  0  0
  -30.3520  -15.7130   20.9230 C   0  0  2  0  0  0  0  0  0  0  0  0
  -30.7390  -14.5790   19.8540 C   0  0  0  0  0  0  0  0  0  0  0  0
  -30.3350  -12.4510   18.5940 C   0  0  0  0  0  2  0  0  0  0  0  0
  -29.2620  -12.6440   17.4990 C   0  0  0  0  0  2  0  0  0  0  0  0
  -27.8380  -12.4700   18.0650 C   0  0  0  0  0  2  0  0  0  0  0  0
  -27.6360  -13.2650   19.3790 C   0  0  0  0  0  3  0  0  0  0  0  0
  -28.7970  -12.9690   20.3530 C   0  0  0  0  0  2  0  0  0  0  0  0
  -30.0450  -13.3960   19.6980 N   0  0  0  0  0  0  0  0  0  0  0  0
  -31.7370  -14.7480   19.1510 O   0  0  0  0  0  0  0  0  0  0  0  0
  -25.3180  -13.8930   20.3120 C   0  0  0  0  0  0  0  0  0  0  0  0
  -24.2840  -13.1260   20.7780 C   0  0  0  0  0  0  0  0  0  0  0  0
  -24.7330  -11.7730   20.6980 C   0  0  0  0  0  0  0  0  0  0  0  0
  -26.3320  -13.0050   19.9810 N   0  0  0  0  0  0  0  0  0  0  0  0
  -25.9870  -11.7240   20.2680 N   0  0  0  0  0  0  0  0  0  0  0  0
  -24.0210  -10.5150   20.9490 C   0  0  0  0  0  0  0  0  0  0  0  0
  -24.5000   -9.5700   21.8820 C   0  0  0  0  0  3  0  0  0  0  0  0
  -23.7890   -8.3740   22.1150 C   0  0  0  0  0  3  0  0  0  0  0  0
  -22.5840   -8.1170   21.4160 C   0  0  0  0  0  0  0  0  0  0  0  0
  -22.1260   -9.0500   20.4710 C   0  0  0  0  0  3  0  0  0  0  0  0
  -22.8380  -10.2380   20.2370 C   0  0  0  0  0  3  0  0  0  0  0  0
  -21.8380   -6.9740   21.5620 O   0  0  0  0  0  0  0  0  0  0  0  0
  -21.8040   -6.2820   22.7460 C   0  0  0  0  0  0  0  0  0  0  0  0
  -21.3790   -6.8830   23.9500 C   0  0  0  0  0  3  0  0  0  0  0  0
  -21.2980   -6.1150   25.1290 C   0  0  0  0  0  3  0  0  0  0  0  0
  -21.6300   -4.7480   25.1050 C   0  0  0  0  0  0  0  0  0  0  0  0
  -22.0470   -4.1460   23.9050 C   0  0  0  0  0  3  0  0  0  0  0  0
  -22.1320   -4.9110   22.7280 C   0  0  0  0  0  0  0  0  0  0  0  0
  -22.5150   -4.3200   21.5710 F   0  0  0  0  0  0  0  0  0  0  0  0
  -21.5420   -4.0110   26.2360 F   0  0  0  0  0  0  0  0  0  0  0  0
  -22.9230  -13.6120   21.1840 C   0  0  0  0  0  0  0  0  0  0  0  0
  -22.2840  -12.9280   22.1280 N   0  0  0  0  0  0  0  0  0  0  0  0
  -22.4370  -14.6330   20.6990 O   0  0  0  0  0  0  0  0  0  0  0  0
  -22.6910  -12.1030   22.5450 H   0  0  0  0  0  0  0  0  0  0  0  0
  -21.3750  -13.2370   22.4400 H   0  0  0  0  0  0  0  0  0  0  0  0
  -25.4710  -15.2640   20.1250 N   0  0  0  0  0  0  0  0  0  0  0  0
  -24.7270  -15.9240   20.3190 H   0  0  0  0  0  0  0  0  0  0  0  0
  -26.2960  -15.7000   19.7360 H   0  0  0  0  0  0  0  0  0  0  0  0
  -28.6960  -21.8170   20.2600 C   0  0  0  0  0  2  0  0  0  0  0  0
  -29.5360  -23.0870   19.9210 C   0  0  0  0  0  2  0  0  0  0  0  0
  -28.7810  -24.4030   19.5110 C   0  0  0  0  0  2  0  0  0  0  0  0
  -28.3640  -25.3960   20.6350 C   0  0  0  0  0  2  0  0  0  0  0  0
  -28.3780  -26.7770   20.1990 O   0  0  0  0  0  0  0  0  0  0  0  0
  -24.6120  -31.9580   23.3700 C   0  0  0  0  0  0  0  0  0  0  0  0
  -27.2010  -27.5030   20.2400 C   0  0  0  0  0  0  0  0  0  0  0  0
  -23.3840  -30.5870   21.7160 C   0  0  0  0  0  3  0  0  0  0  0  0
  -24.8170  -29.0400   20.2730 C   0  0  0  0  0  0  0  0  0  0  0  0
  -25.9130  -30.9170   21.5120 C   0  0  0  0  0  2  0  0  0  0  0  0
  -25.9840  -29.5490   20.8580 C   0  0  0  0  0  0  0  0  0  0  0  0
  -27.1790  -28.7920   20.8300 C   0  0  0  0  0  3  0  0  0  0  0  0
  -26.0160  -27.0080   19.6550 C   0  0  0  0  0  3  0  0  0  0  0  0
  -24.8300  -27.7690   19.6670 C   0  0  0  0  0  3  0  0  0  0  0  0
  -23.5810  -29.9110   20.3320 C   0  0  0  0  0  2  0  0  0  0  0  0
  -24.6550  -31.1680   22.2590 N   0  0  0  0  0  0  0  0  0  0  0  0
  -23.5350  -32.2380   23.9170 O   0  0  0  0  0  0  0  0  0  0  0  0
  -22.7210  -29.5680   22.6710 C   0  0  0  0  0  0  0  0  0  0  0  0
  -21.4010  -29.3780   22.5220 N   0  0  0  0  0  0  0  0  0  0  0  0
  -23.3930  -28.9490   23.5000 O   0  0  0  0  0  0  0  0  0  0  0  0
  -20.9200  -29.9270   21.8230 H   0  0  0  0  0  0  0  0  0  0  0  0
  -18.0290  -28.1460   22.9460 C   0  0  0  0  0  0  0  0  0  0  0  0
  -20.5770  -28.4360   23.2780 C   0  0  0  0  0  3  0  0  0  0  0  0
  -20.7100  -27.0040   22.7110 C   0  0  0  0  0  2  0  0  0  0  0  0
  -19.6360  -26.6630   21.6730 C   0  0  0  0  0  2  0  0  0  0  0  0
  -18.2380  -26.7950   22.2830 C   0  0  0  0  0  2  0  0  0  0  0  0
  -19.1290  -28.9240   23.3990 C   0  0  0  0  0  0  0  0  0  0  0  0
  -18.8820  -30.1890   23.9760 C   0  0  0  0  0  3  0  0  0  0  0  0
  -17.5690  -30.6770   24.1060 C   0  0  0  0  0  3  0  0  0  0  0  0
  -16.4830  -29.8970   23.6720 C   0  0  0  0  0  3  0  0  0  0  0  0
  -16.7140  -28.6340   23.0980 C   0  0  0  0  0  3  0  0  0  0  0  0
  -25.9070  -32.5670   23.9930 C   0  0  0  0  0  3  0  0  0  0  0  0
  -25.6220  -33.9690   24.3280 N   0  0  0  0  0  0  0  0  0  0  0  0
  -25.9840  -35.0190   23.5790 C   0  0  0  0  0  0  0  0  0  0  0  0
  -26.6660  -34.9080   22.5560 O   0  0  0  0  0  0  0  0  0  0  0  0
  -25.0190  -34.1300   25.1230 H   0  0  0  0  0  0  0  0  0  0  0  0
  -24.2990  -36.8480   23.2080 C   0  0  0  0  0  1  0  0  0  0  0  0
  -25.5180  -36.4140   24.0380 C   0  0  0  0  0  3  0  0  0  0  0  0
  -27.6580  -37.2480   24.9070 C   0  0  0  0  0  1  0  0  0  0  0  0
  -26.5740  -37.4470   23.9490 N   0  0  0  0  0  0  0  0  0  0  0  0
  -26.1840  -38.3730   24.1000 H   0  0  0  0  0  0  0  0  0  0  0  0
  -26.4130  -31.7830   25.2650 C   0  0  1  0  0  0  0  0  0  0  0  0
  -25.3090  -31.5250   26.3180 C   0  0  0  0  0  1  0  0  0  0  0  0
  -27.0070  -30.4130   24.8620 C   0  0  0  0  0  1  0  0  0  0  0  0
  -27.5530  -32.5730   25.9500 C   0  0  0  0  0  1  0  0  0  0  0  0
  2 50  1  0
  2  1  2  0
  3  1  1  0
  3 10  1  0
  4  6  2  0
  4  7  1  0
  5  4  1  0
  6  2  1  0
  7  3  2  0
 10  9  1  6
 10 13  1  0
 10  8  1  0
 13 11  1  1
 13 12  1  0
 14 13  1  0
 15 20  1  0
 16 17  1  0
 16 15  1  0
 18 17  1  0
 18 25  1  0
 18 19  1  0
 20 14  1  0
 20 19  1  0
 21 14  2  0
 22 23  2  0
 23 42  1  0
 24 23  1  0
 24 27  1  0
 25 26  1  0
 25 22  1  0
 26 24  2  0
 27 28  1  0
 28 29  2  0
 30 33  1  0
 30 29  1  0
 31 30  2  0
 32 31  1  0
 32 27  2  0
 33 34  1  0
 34 35  1  0
 35 36  2  0
 37 36  1  0
 37 41  1  0
 38 37  2  0
 39 34  2  0
 39 38  1  0
 40 39  1  0
 42 43  1  0
 43 46  1  0
 43 45  1  0
 44 42  2  0
 47 22  1  0
 47 48  1  0
 49 47  1  0
 51 50  1  0
 52 51  1  0
 52 53  1  0
 54 56  1  0
 54 53  1  0
 55 66  2  0
 56 61  1  0
 57 65  1  0
 57 67  1  0
 58 64  1  0
 58 60  1  0
 59 65  1  0
 60 59  1  0
 61 60  2  0
 62 63  1  0
 62 56  2  0
 63 58  2  0
 64 57  1  0
 65 55  1  0
 67 69  2  0
 68 67  1  0
 70 68  1  0
 71 80  2  0
 71 76  1  0
 72 68  1  0
 72 76  1  0
 73 72  1  0
 74 75  1  0
 74 73  1  0
 75 71  1  0
 76 77  2  0
 77 78  1  0
 79 78  2  0
 80 79  1  0
 81 55  1  0
 81 82  1  0
 81 91  1  0
 82 85  1  0
 83 87  1  0
 83 82  1  0
 84 83  2  0
 87 86  1  0
 89 87  1  0
 89 90  1  0
 89 88  1  0
 91 94  1  1
 91 92  1  0
 93 91  1  0
M  ISO  4  13 100  14 100  53 101  54 101
M  END
>  <TORSDO>  (33) 
F 22

>  <SCORE>  (33) 
-11.874

>  <name>  (33) 
33

>  <ligand_id>  (33) 
33

>  <original_smiles>  (33) 
[H]c1c(C([H])([H])C([H])([H])C([H])([H])C([H])([H])Oc2c([H])c([H])c3c(c2[H])C([H])([H])N(C(=O)C([H])(N([H])C(=O)C([H])(N([H])C([H])([H])[H])C([H])([H])[H])C(C([H])([H])[H])(C([H])([H])[H])C([H])([H])[H])C([H])(C(=O)N([H])C2([H])c4c([H])c([H])c([H])c([H])c4C([H])([H])C([H])([H])C2([H])[H])C3([H])[H])nc(C([H])([H])[H])nc1C(C([H])([H])[H])(C([H])([H])[H])C(C(=O)N1C([H])([H])C([H])([H])C([H])([H])C([H])(n2nc(-c3c([H])c([H])c(Oc4c([H])c([H])c(F)c([H])c4F)c([H])c3[H])c(C(=O)N([H])[H])c2N([H])[H])C1([H])[H])(C([H])([H])[H])C([H])([H])[H]

>  <smiles>  (33) 
[H]c1c(C([H])([H])C([H])([H])C([H])([H])C([H])([H])Oc2c([H])c([H])c3c(c2[H])C([H])([H])N(C(=O)C([H])(N([H])C(=O)C([H])(N([H])C([H])([H])[H])C([H])([H])[H])C(C([H])([H])[H])(C([H])([H])[H])C([H])([H])[H])C([H])(C(=O)N([H])C2([H])c4c([H])c([H])c([H])c([H])c4C([H])([H])C([H])([H])C2([H])[H])C3([H])[H])nc(C([H])([H])[H])nc1C(C([H])([H])[H])(C([H])([H])[H])C(C(=O)N1C([H])([H])C([H])([H])C([H])([H])C([H])(n2nc(-c3c([H])c([H])c(Oc4c([H])c([H])c(F)c([H])c4F)c([H])c3[H])c(C(=O)N([H])[H])c2N([H])[H])C1([H])[H])(C([H])([H])[H])C([H])([H])[H]

$$$$
34:0:0
     RDKit          3D

 90 98  0  0  1  0  0  0  0  0999 V2000
  -28.8910  -21.2050   22.1150 C   0  0  0  0  0  1  0  0  0  0  0  0
  -27.5600  -21.0830   20.0160 C   0  0  0  0  0  1  0  0  0  0  0  0
  -28.9960  -21.1850   20.5700 C   0  0  2  0  0  0  0  0  0  0  0  0
  -30.0850  -19.2300   18.9040 C   0  0  0  0  0  3  0  0  0  0  0  0
  -30.0230  -18.7610   20.9980 C   0  0  0  0  0  3  0  0  0  0  0  0
  -29.7130  -19.8220   20.1630 C   0  0  0  0  0  0  0  0  0  0  0  0
  -30.4480  -17.9280   18.9860 N   0  0  0  0  0  0  0  0  0  0  0  0
  -30.4050  -17.6030   20.3050 N   0  0  0  0  0  0  0  0  0  0  0  0
  -29.3850  -15.9770   21.8490 C   0  0  0  0  0  1  0  0  0  0  0  0
  -30.5810  -16.2190   20.9190 C   0  0  0  0  0  3  0  0  0  0  0  0
  -31.1130  -14.9210   20.1160 C   0  0  0  0  0  0  0  0  0  0  0  0
  -30.8420  -12.7320   18.9420 C   0  0  0  0  0  2  0  0  0  0  0  0
  -29.8330  -12.8990   17.7770 C   0  0  0  0  0  2  0  0  0  0  0  0
  -28.3680  -12.7800   18.2470 C   0  0  0  0  0  2  0  0  0  0  0  0
  -28.1000  -13.5560   19.5590 C   0  0  0  0  0  3  0  0  0  0  0  0
  -29.2010  -13.2230   20.5900 C   0  0  0  0  0  2  0  0  0  0  0  0
  -30.4740  -13.6940   20.0080 N   0  0  0  0  0  0  0  0  0  0  0  0
  -32.2100  -15.0450   19.5580 O   0  0  0  0  0  0  0  0  0  0  0  0
  -25.7440  -14.2240   20.3250 C   0  0  0  0  0  0  0  0  0  0  0  0
  -24.6610  -13.4790   20.7110 C   0  0  0  0  0  0  0  0  0  0  0  0
  -25.0760  -12.1150   20.6380 C   0  0  0  0  0  0  0  0  0  0  0  0
  -26.7530  -13.3110   20.0600 N   0  0  0  0  0  0  0  0  0  0  0  0
  -26.3550  -12.0350   20.2940 N   0  0  0  0  0  0  0  0  0  0  0  0
  -24.3140  -10.8740   20.8250 C   0  0  0  0  0  0  0  0  0  0  0  0
  -24.7080   -9.8980   21.7640 C   0  0  0  0  0  3  0  0  0  0  0  0
  -23.9460   -8.7210   21.9340 C   0  0  0  0  0  3  0  0  0  0  0  0
  -22.7780   -8.5130   21.1620 C   0  0  0  0  0  0  0  0  0  0  0  0
  -22.4060   -9.4800   20.2120 C   0  0  0  0  0  3  0  0  0  0  0  0
  -23.1670  -10.6470   20.0420 C   0  0  0  0  0  3  0  0  0  0  0  0
  -21.9890   -7.3900   21.2450 O   0  0  0  0  0  0  0  0  0  0  0  0
  -21.8490   -6.6920   22.4170 C   0  0  0  0  0  0  0  0  0  0  0  0
  -21.3660   -7.3050   23.5950 C   0  0  0  0  0  3  0  0  0  0  0  0
  -21.1730   -6.5360   24.7590 C   0  0  0  0  0  3  0  0  0  0  0  0
  -21.4480   -5.1550   24.7480 C   0  0  0  0  0  0  0  0  0  0  0  0
  -21.9200   -4.5440   23.5740 C   0  0  0  0  0  3  0  0  0  0  0  0
  -22.1170   -5.3090   22.4120 C   0  0  0  0  0  0  0  0  0  0  0  0
  -22.5520   -4.7090   21.2780 F   0  0  0  0  0  0  0  0  0  0  0  0
  -21.2550   -4.4160   25.8650 F   0  0  0  0  0  0  0  0  0  0  0  0
  -23.2900  -14.0020   21.0270 C   0  0  0  0  0  0  0  0  0  0  0  0
  -22.5660  -13.3240   21.9130 N   0  0  0  0  0  0  0  0  0  0  0  0
  -22.8740  -15.0480   20.5320 O   0  0  0  0  0  0  0  0  0  0  0  0
  -22.9190  -12.4860   22.3470 H   0  0  0  0  0  0  0  0  0  0  0  0
  -21.6440  -13.6570   22.1560 H   0  0  0  0  0  0  0  0  0  0  0  0
  -25.9350  -15.5920   20.1600 N   0  0  0  0  0  0  0  0  0  0  0  0
  -25.1900  -16.2570   20.3360 H   0  0  0  0  0  0  0  0  0  0  0  0
  -26.7880  -16.0310   19.8330 H   0  0  0  0  0  0  0  0  0  0  0  0
  -29.5860  -22.5990   20.0630 C   0  0  0  0  0  2  0  0  0  0  0  0
  -29.0090  -23.9920   20.6620 C   0  0  0  0  0  3  0  0  0  0  0  0
  -28.9940  -25.3000   19.7330 C   0  0  0  0  0  3  0  0  0  0  0  0
  -28.8160  -26.6740   20.2950 O   0  0  0  0  0  0  0  0  0  0  0  0
  -24.6720  -31.8160   23.1960 C   0  0  0  0  0  0  0  0  0  0  0  0
  -27.6370  -27.4390   20.1790 C   0  0  0  0  0  0  0  0  0  0  0  0
  -23.6060  -30.3740   21.5030 C   0  0  0  0  0  3  0  0  0  0  0  0
  -25.1870  -28.9310   20.1040 C   0  0  0  0  0  0  0  0  0  0  0  0
  -26.1280  -30.8370   21.4070 C   0  0  0  0  0  2  0  0  0  0  0  0
  -26.3060  -29.4750   20.7440 C   0  0  0  0  0  0  0  0  0  0  0  0
  -27.5310  -28.7390   20.7720 C   0  0  0  0  0  3  0  0  0  0  0  0
  -26.4870  -26.9530   19.5140 C   0  0  0  0  0  3  0  0  0  0  0  0
  -25.2810  -27.6780   19.4800 C   0  0  0  0  0  3  0  0  0  0  0  0
  -23.9020  -29.7350   20.1210 C   0  0  0  0  0  2  0  0  0  0  0  0
  -24.8180  -31.0260   22.0940 N   0  0  0  0  0  0  0  0  0  0  0  0
  -23.5570  -32.0200   23.7000 O   0  0  0  0  0  0  0  0  0  0  0  0
  -22.9750  -29.3040   22.4290 C   0  0  0  0  0  0  0  0  0  0  0  0
  -21.6640  -29.0590   22.2630 N   0  0  0  0  0  0  0  0  0  0  0  0
  -23.6660  -28.7010   23.2530 O   0  0  0  0  0  0  0  0  0  0  0  0
  -21.1600  -29.6070   21.5800 H   0  0  0  0  0  0  0  0  0  0  0  0
  -18.3390  -27.6950   22.6810 C   0  0  0  0  0  0  0  0  0  0  0  0
  -20.8780  -28.0630   22.9970 C   0  0  0  0  0  3  0  0  0  0  0  0
  -21.0550  -26.6530   22.3850 C   0  0  0  0  0  2  0  0  0  0  0  0
  -19.9830  -26.3060   21.3470 C   0  0  0  0  0  2  0  0  0  0  0  0
  -18.5890  -26.3700   21.9790 C   0  0  0  0  0  2  0  0  0  0  0  0
  -19.4150  -28.4960   23.1470 C   0  0  0  0  0  0  0  0  0  0  0  0
  -19.1340  -29.7320   23.7660 C   0  0  0  0  0  3  0  0  0  0  0  0
  -17.8060  -30.1750   23.9220 C   0  0  0  0  0  3  0  0  0  0  0  0
  -16.7430  -29.3710   23.4720 C   0  0  0  0  0  3  0  0  0  0  0  0
  -17.0090  -28.1340   22.8570 C   0  0  0  0  0  3  0  0  0  0  0  0
  -25.8940  -32.5160   23.8650 C   0  0  0  0  0  3  0  0  0  0  0  0
  -25.5050  -33.9010   24.1670 N   0  0  0  0  0  0  0  0  0  0  0  0
  -25.8210  -34.9620   23.4130 C   0  0  0  0  0  0  0  0  0  0  0  0
  -26.5400  -34.8820   22.4130 O   0  0  0  0  0  0  0  0  0  0  0  0
  -24.8670  -34.0340   24.9380 H   0  0  0  0  0  0  0  0  0  0  0  0
  -24.0260  -36.6670   22.9670 C   0  0  0  0  0  1  0  0  0  0  0  0
  -25.2480  -36.3290   23.8360 C   0  0  0  0  0  3  0  0  0  0  0  0
  -27.2940  -37.3210   24.7550 C   0  0  0  0  0  1  0  0  0  0  0  0
  -26.2310  -37.4310   23.7610 N   0  0  0  0  0  0  0  0  0  0  0  0
  -25.7740  -38.3300   23.8860 H   0  0  0  0  0  0  0  0  0  0  0  0
  -26.3900  -31.7840   25.1710 C   0  0  1  0  0  0  0  0  0  0  0  0
  -25.2590  -31.4830   26.1840 C   0  0  0  0  0  1  0  0  0  0  0  0
  -27.0700  -30.4420   24.8210 C   0  0  0  0  0  1  0  0  0  0  0  0
  -27.4550  -32.6460   25.8850 C   0  0  0  0  0  1  0  0  0  0  0  0
  3  2  1  6
  3  1  1  0
  4  7  2  0
  4  6  1  0
  6  3  1  0
  6  5  2  0
  7  8  1  0
  8 10  1  0
  8  5  1  0
 10  9  1  0
 11 10  1  0
 12 17  1  0
 13 14  1  0
 13 12  1  0
 15 14  1  0
 15 22  1  0
 15 16  1  0
 17 11  1  0
 17 16  1  0
 18 11  2  0
 19 20  2  0
 20 39  1  0
 21 20  1  0
 21 24  1  0
 22 23  1  0
 22 19  1  0
 23 21  2  0
 24 25  1  0
 25 26  2  0
 27 30  1  0
 27 26  1  0
 28 27  2  0
 29 28  1  0
 29 24  2  0
 30 31  1  0
 31 32  1  0
 32 33  2  0
 34 33  1  0
 34 38  1  0
 35 34  2  0
 36 31  2  0
 36 35  1  0
 37 36  1  0
 39 40  1  0
 40 43  1  0
 40 42  1  0
 41 39  2  0
 44 19  1  0
 44 45  1  0
 46 44  1  0
 47  3  1  0
 47 48  1  0
 49 50  1  0
 49 48  2  0
 51 62  2  0
 52 50  1  0
 52 57  1  0
 53 61  1  0
 53 63  1  0
 54 60  1  0
 54 56  1  0
 55 61  1  0
 56 57  2  0
 56 55  1  0
 58 52  2  0
 59 58  1  0
 59 54  2  0
 60 53  1  0
 61 51  1  0
 63 65  2  0
 64 63  1  0
 66 64  1  0
 67 76  2  0
 67 72  1  0
 68 64  1  0
 68 72  1  0
 69 68  1  0
 70 71  1  0
 70 69  1  0
 71 67  1  0
 72 73  2  0
 73 74  1  0
 75 74  2  0
 76 75  1  0
 77 51  1  0
 77 78  1  0
 77 87  1  0
 78 81  1  0
 79 83  1  0
 79 78  1  0
 80 79  2  0
 83 82  1  0
 85 83  1  0
 85 86  1  0
 85 84  1  0
 87 90  1  1
 87 88  1  0
 89 87  1  0
M  ISO  4  10 100  11 100  49 101  50 101
M  END
>  <TORSDO>  (34) 
F 21

>  <SCORE>  (34) 
-11.934

>  <name>  (34) 
34

>  <ligand_id>  (34) 
34

>  <original_smiles>  (34) 
[H]c1nn(C([H])(C(=O)N2C([H])([H])C([H])([H])C([H])([H])C([H])(n3nc(-c4c([H])c([H])c(Oc5c([H])c([H])c(F)c([H])c5F)c([H])c4[H])c(C(=O)N([H])[H])c3N([H])[H])C2([H])[H])C([H])([H])[H])c([H])c1C(C([H])([H])[H])(C([H])([H])[H])C([H])([H])C([H])([H])C([H])([H])Oc1c([H])c([H])c2c(c1[H])C([H])([H])N(C(=O)C([H])(N([H])C(=O)C([H])(N([H])C([H])([H])[H])C([H])([H])[H])C(C([H])([H])[H])(C([H])([H])[H])C([H])([H])[H])C([H])(C(=O)N([H])C1([H])c3c([H])c([H])c([H])c([H])c3C([H])([H])C([H])([H])C1([H])[H])C2([H])[H]

>  <smiles>  (34) 
[H]c1nn(C([H])(C(=O)N2C([H])([H])C([H])([H])C([H])([H])C([H])(n3nc(-c4c([H])c([H])c(Oc5c([H])c([H])c(F)c([H])c5F)c([H])c4[H])c(C(=O)N([H])[H])c3N([H])[H])C2([H])[H])C([H])([H])[H])c([H])c1C(C([H])([H])[H])(C([H])([H])[H])C([H])([H])C([H])([H])C([H])([H])Oc1c([H])c([H])c2c(c1[H])C([H])([H])N(C(=O)C([H])(N([H])C(=O)C([H])(N([H])C([H])([H])[H])C([H])([H])[H])C(C([H])([H])[H])(C([H])([H])[H])C([H])([H])[H])C([H])(C(=O)N([H])C1([H])c3c([H])c([H])c([H])c([H])c3C([H])([H])C([H])([H])C1([H])[H])C2([H])[H]

$$$$
35:0:0
     RDKit          3D

 91 99  0  0  1  0  0  0  0  0999 V2000
  -27.6720  -20.5050   20.1580 C   0  0  0  0  0  2  0  0  0  0  0  0
  -26.9420  -19.3900   19.9370 C   0  0  0  0  0  2  0  0  0  0  0  0
  -29.0490  -20.1580   20.2470 C   0  0  0  0  0  3  0  0  0  0  0  0
  -29.1090  -18.7230   20.1410 C   0  0  0  0  0  3  0  0  0  0  0  0
  -27.3920  -17.2230   18.9130 C   0  0  0  0  0  1  0  0  0  0  0  0
  -27.8380  -18.3940   19.6370 N   0  0  0  0  0  0  0  0  0  0  0  0
  -31.3630  -17.9320   19.3350 C   0  0  0  0  0  1  0  0  0  0  0  0
  -30.2360  -17.6040   20.3330 C   0  0  0  0  0  3  0  0  0  0  0  0
  -30.6810  -14.8990   20.3720 C   0  0  0  0  0  0  0  0  0  0  0  0
  -30.5360  -12.5990   19.3900 C   0  0  0  0  0  2  0  0  0  0  0  0
  -29.5990  -12.6160   18.1620 C   0  0  0  0  0  2  0  0  0  0  0  0
  -28.1310  -12.4130   18.5830 C   0  0  0  0  0  2  0  0  0  0  0  0
  -27.7290  -13.2970   19.7980 C   0  0  0  0  0  3  0  0  0  0  0  0
  -28.7930  -13.2550   20.9190 C   0  0  0  0  0  2  0  0  0  0  0  0
  -30.0680  -13.6600   20.3090 N   0  0  0  0  0  0  0  0  0  0  0  0
  -31.8980  -14.9490   20.1570 O   0  0  0  0  0  0  0  0  0  0  0  0
  -29.9110  -16.0750   20.4330 N   0  0  0  0  0  0  0  0  0  0  0  0
  -28.9310  -15.8930   20.5940 H   0  0  0  0  0  0  0  0  0  0  0  0
  -25.3280  -13.8590   20.5240 C   0  0  0  0  0  0  0  0  0  0  0  0
  -24.2630  -13.0860   20.8530 C   0  0  0  0  0  0  0  0  0  0  0  0
  -24.7390  -11.7420   20.8230 C   0  0  0  0  0  0  0  0  0  0  0  0
  -26.3860  -12.9970   20.2820 N   0  0  0  0  0  0  0  0  0  0  0  0
  -26.0340  -11.7130   20.5350 N   0  0  0  0  0  0  0  0  0  0  0  0
  -24.0180  -10.4860   21.0030 C   0  0  0  0  0  0  0  0  0  0  0  0
  -24.4340   -9.5340   21.9590 C   0  0  0  0  0  3  0  0  0  0  0  0
  -23.7060   -8.3370   22.1330 C   0  0  0  0  0  3  0  0  0  0  0  0
  -22.5530   -8.0890   21.3470 C   0  0  0  0  0  0  0  0  0  0  0  0
  -22.1600   -9.0330   20.3830 C   0  0  0  0  0  3  0  0  0  0  0  0
  -22.8890  -10.2200   20.2070 C   0  0  0  0  0  3  0  0  0  0  0  0
  -21.8020   -6.9430   21.4250 O   0  0  0  0  0  0  0  0  0  0  0  0
  -21.7130   -6.2220   22.5880 C   0  0  0  0  0  0  0  0  0  0  0  0
  -21.2210   -6.7930   23.7820 C   0  0  0  0  0  3  0  0  0  0  0  0
  -21.0830   -5.9950   24.9370 C   0  0  0  0  0  3  0  0  0  0  0  0
  -21.4280   -4.6310   24.8940 C   0  0  0  0  0  0  0  0  0  0  0  0
  -21.9150   -4.0630   23.7050 C   0  0  0  0  0  3  0  0  0  0  0  0
  -22.0540   -4.8550   22.5540 C   0  0  0  0  0  0  0  0  0  0  0  0
  -22.5040   -4.3000   21.4020 F   0  0  0  0  0  0  0  0  0  0  0  0
  -21.2860   -3.8620   25.9990 F   0  0  0  0  0  0  0  0  0  0  0  0
  -22.8630  -13.5670   21.0910 C   0  0  0  0  0  0  0  0  0  0  0  0
  -22.1200  -12.8870   21.9560 N   0  0  0  0  0  0  0  0  0  0  0  0
  -22.4330  -14.5840   20.5420 O   0  0  0  0  0  0  0  0  0  0  0  0
  -22.4850  -12.0760   22.4320 H   0  0  0  0  0  0  0  0  0  0  0  0
  -21.1750  -13.1830   22.1530 H   0  0  0  0  0  0  0  0  0  0  0  0
  -25.4390  -15.2280   20.4120 N   0  0  0  0  0  0  0  0  0  0  0  0
  -24.6340  -15.8240   20.5780 H   0  0  0  0  0  0  0  0  0  0  0  0
  -26.2890  -15.7400   20.2450 H   0  0  0  0  0  0  0  0  0  0  0  0
  -30.1380  -21.3000   20.3360 C   0  0  0  0  0  2  0  0  0  0  0  0
  -29.8530  -22.8690   20.7390 C   0  0  0  0  0  2  0  0  0  0  0  0
  -28.6190  -23.7890   20.2680 C   0  0  0  0  0  2  0  0  0  0  0  0
  -28.8050  -25.2870   19.6940 C   0  0  0  0  0  2  0  0  0  0  0  0
  -28.5330  -26.5350   20.4590 O   0  0  0  0  0  0  0  0  0  0  0  0
  -24.5880  -31.8920   23.3000 C   0  0  0  0  0  0  0  0  0  0  0  0
  -27.3580  -27.3140   20.3550 C   0  0  0  0  0  0  0  0  0  0  0  0
  -23.4430  -30.4540   21.6540 C   0  0  0  0  0  3  0  0  0  0  0  0
  -24.9510  -28.8840   20.2910 C   0  0  0  0  0  0  0  0  0  0  0  0
  -25.9840  -30.7810   21.5400 C   0  0  0  0  0  2  0  0  0  0  0  0
  -26.0950  -29.3950   20.9150 C   0  0  0  0  0  0  0  0  0  0  0  0
  -27.2930  -28.6170   20.9430 C   0  0  0  0  0  3  0  0  0  0  0  0
  -26.1770  -26.8400   19.7340 C   0  0  0  0  0  3  0  0  0  0  0  0
  -24.9930  -27.6070   19.7030 C   0  0  0  0  0  3  0  0  0  0  0  0
  -23.7020  -29.7480   20.2940 C   0  0  0  0  0  2  0  0  0  0  0  0
  -24.6900  -31.0630   22.2180 N   0  0  0  0  0  0  0  0  0  0  0  0
  -23.4870  -32.1710   23.8030 O   0  0  0  0  0  0  0  0  0  0  0  0
  -22.7660  -29.4490   22.6100 C   0  0  0  0  0  0  0  0  0  0  0  0
  -21.4440  -29.2660   22.4610 N   0  0  0  0  0  0  0  0  0  0  0  0
  -23.4300  -28.8370   23.4490 O   0  0  0  0  0  0  0  0  0  0  0  0
  -20.9670  -29.8230   21.7720 H   0  0  0  0  0  0  0  0  0  0  0  0
  -18.0580  -28.0990   22.9430 C   0  0  0  0  0  0  0  0  0  0  0  0
  -20.6140  -28.3450   23.2330 C   0  0  0  0  0  3  0  0  0  0  0  0
  -20.7140  -26.9080   22.6690 C   0  0  0  0  0  2  0  0  0  0  0  0
  -19.6200  -26.6010   21.6390 C   0  0  0  0  0  2  0  0  0  0  0  0
  -18.2340  -26.7490   22.2730 C   0  0  0  0  0  2  0  0  0  0  0  0
  -19.1770  -28.8560   23.3810 C   0  0  0  0  0  0  0  0  0  0  0  0
  -18.9570  -30.1230   23.9590 C   0  0  0  0  0  3  0  0  0  0  0  0
  -17.6580  -30.6310   24.1120 C   0  0  0  0  0  3  0  0  0  0  0  0
  -16.5500  -29.8720   23.6960 C   0  0  0  0  0  3  0  0  0  0  0  0
  -16.7550  -28.6080   23.1160 C   0  0  0  0  0  3  0  0  0  0  0  0
  -25.8470  -32.5480   23.9440 C   0  0  0  0  0  3  0  0  0  0  0  0
  -25.5210  -33.9550   24.2280 N   0  0  0  0  0  0  0  0  0  0  0  0
  -25.8670  -34.9910   23.4550 C   0  0  0  0  0  0  0  0  0  0  0  0
  -26.5620  -34.8680   22.4430 O   0  0  0  0  0  0  0  0  0  0  0  0
  -24.8980  -34.1250   25.0050 H   0  0  0  0  0  0  0  0  0  0  0  0
  -24.1380  -36.7660   23.0130 C   0  0  0  0  0  1  0  0  0  0  0  0
  -25.3600  -36.3870   23.8640 C   0  0  0  0  0  3  0  0  0  0  0  0
  -27.4590  -37.3150   24.7330 C   0  0  0  0  0  1  0  0  0  0  0  0
  -26.3870  -37.4430   23.7480 N   0  0  0  0  0  0  0  0  0  0  0  0
  -25.9710  -38.3650   23.8480 H   0  0  0  0  0  0  0  0  0  0  0  0
  -26.3270  -31.8170   25.2580 C   0  0  1  0  0  0  0  0  0  0  0  0
  -25.1960  -31.5990   26.2900 C   0  0  0  0  0  1  0  0  0  0  0  0
  -26.9310  -30.4330   24.9280 C   0  0  0  0  0  1  0  0  0  0  0  0
  -27.4460  -32.6380   25.9380 C   0  0  0  0  0  1  0  0  0  0  0  0
  1  3  1  0
  2  1  1  0
  3 47  1  0
  4  3  1  0
  4  8  1  0
  5  6  1  0
  6  2  1  0
  6  4  1  0
  8  7  1  0
  8 17  1  0
  9 17  1  0
 10 15  1  0
 11 12  1  0
 11 10  1  0
 13 12  1  0
 13 22  1  0
 13 14  1  0
 15  9  1  0
 15 14  1  0
 16  9  2  0
 17 18  1  0
 19 20  2  0
 20 39  1  0
 21 20  1  0
 21 24  1  0
 22 19  1  0
 22 23  1  0
 23 21  2  0
 24 25  1  0
 25 26  2  0
 27 30  1  0
 27 26  1  0
 28 27  2  0
 29 28  1  0
 29 24  2  0
 30 31  1  0
 31 32  1  0
 32 33  2  0
 34 33  1  0
 34 38  1  0
 35 34  2  0
 36 31  2  0
 36 35  1  0
 37 36  1  0
 39 40  1  0
 40 43  1  0
 40 42  1  0
 41 39  2  0
 44 19  1  0
 44 45  1  0
 46 44  1  0
 47 48  1  0
 49 48  1  0
 50 49  1  0
 50 51  1  0
 52 63  2  0
 53 51  1  0
 53 58  1  0
 54 62  1  0
 54 64  1  0
 55 61  1  0
 55 57  1  0
 56 62  1  0
 57 58  2  0
 57 56  1  0
 59 53  2  0
 60 59  1  0
 60 55  2  0
 61 54  1  0
 62 52  1  0
 64 66  2  0
 65 64  1  0
 67 65  1  0
 68 77  2  0
 68 73  1  0
 69 65  1  0
 69 73  1  0
 70 69  1  0
 71 72  1  0
 71 70  1  0
 72 68  1  0
 73 74  2  0
 74 75  1  0
 76 75  2  0
 77 76  1  0
 78 52  1  0
 78 79  1  0
 78 88  1  0
 79 82  1  0
 80 84  1  0
 80 79  1  0
 81 80  2  0
 84 83  1  0
 86 87  1  0
 86 84  1  0
 86 85  1  0
 88 91  1  1
 88 89  1  0
 90 88  1  0
M  ISO  4   9 100  17 100  50 101  51 101
M  END
>  <TORSDO>  (35) 
F 21

>  <SCORE>  (35) 
-13.010

>  <name>  (35) 
35

>  <ligand_id>  (35) 
35

>  <original_smiles>  (35) 
[H]c1c([H])c([H])c2c(c1[H])C([H])([H])C([H])([H])C([H])([H])C2([H])N([H])C(=O)C1([H])N(C(=O)C([H])(N([H])C(=O)C([H])(N([H])C([H])([H])[H])C([H])([H])[H])C(C([H])([H])[H])(C([H])([H])[H])C([H])([H])[H])C([H])([H])c2c([H])c(OC([H])([H])C([H])([H])C([H])([H])C([H])([H])c3c([H])c([H])n(C([H])([H])[H])c3C([H])(N([H])C(=O)N3C([H])([H])C([H])([H])C([H])([H])C([H])(n4nc(-c5c([H])c([H])c(Oc6c([H])c([H])c(F)c([H])c6F)c([H])c5[H])c(C(=O)N([H])[H])c4N([H])[H])C3([H])[H])C([H])([H])[H])c([H])c([H])c2C1([H])[H]

>  <smiles>  (35) 
[H]c1c([H])c([H])c2c(c1[H])C([H])([H])C([H])([H])C([H])([H])C2([H])N([H])C(=O)C1([H])N(C(=O)C([H])(N([H])C(=O)C([H])(N([H])C([H])([H])[H])C([H])([H])[H])C(C([H])([H])[H])(C([H])([H])[H])C([H])([H])[H])C([H])([H])c2c([H])c(OC([H])([H])C([H])([H])C([H])([H])C([H])([H])c3c([H])c([H])n(C([H])([H])[H])c3C([H])(N([H])C(=O)N3C([H])([H])C([H])([H])C([H])([H])C([H])(n4nc(-c5c([H])c([H])c(Oc6c([H])c([H])c(F)c([H])c6F)c([H])c5[H])c(C(=O)N([H])[H])c4N([H])[H])C3([H])[H])C([H])([H])[H])c([H])c([H])c2C1([H])[H]

$$$$
36:0:0
     RDKit          3D

 93101  0  0  1  0  0  0  0  0999 V2000
  -31.2680  -21.9180   20.3900 C   0  0  0  0  0  3  0  0  0  0  0  0
  -29.4590  -20.3500   20.0880 C   0  0  0  0  0  3  0  0  0  0  0  0
  -29.9000  -21.6920   20.1460 C   0  0  0  0  0  0  0  0  0  0  0  0
  -32.1250  -20.8110   20.5330 C   0  0  0  0  0  0  0  0  0  0  0  0
  -30.3830  -19.2940   20.2550 C   0  0  0  0  0  0  0  0  0  0  0  0
  -31.6980  -19.5320   20.4580 N   0  0  0  0  0  0  0  0  0  0  0  0
  -33.9600  -20.8660   22.2780 C   0  0  0  0  0  1  0  0  0  0  0  0
  -33.6060  -21.0100   20.7930 C   0  0  0  0  0  2  0  0  0  0  0  0
  -30.3220  -17.3470   18.6480 C   0  0  0  0  0  1  0  0  0  0  0  0
  -29.9550  -17.8260   20.0650 C   0  0  0  0  0  3  0  0  0  0  0  0
  -30.4720  -16.8730   21.1850 C   0  0  0  0  0  2  0  0  0  0  0  0
  -30.6840  -14.4500   20.5230 C   0  0  0  0  0  0  0  0  0  0  0  0
  -30.3660  -12.2960   19.3680 C   0  0  0  0  0  2  0  0  0  0  0  0
  -29.4460  -12.5090   18.1490 C   0  0  0  0  0  2  0  0  0  0  0  0
  -27.9640  -12.3900   18.5550 C   0  0  0  0  0  2  0  0  0  0  0  0
  -27.6180  -13.2350   19.8120 C   0  0  0  0  0  3  0  0  0  0  0  0
  -28.6530  -13.0060   20.9350 C   0  0  0  0  0  2  0  0  0  0  0  0
  -29.9900  -13.2890   20.3860 N   0  0  0  0  0  0  0  0  0  0  0  0
  -31.8140  -14.6140   20.0610 O   0  0  0  0  0  0  0  0  0  0  0  0
  -30.0040  -15.4750   21.0700 N   0  0  0  0  0  0  0  0  0  0  0  0
  -29.0770  -15.2720   21.4140 H   0  0  0  0  0  0  0  0  0  0  0  0
  -25.2090  -13.8610   20.4750 C   0  0  0  0  0  0  0  0  0  0  0  0
  -24.1310  -13.0980   20.8360 C   0  0  0  0  0  0  0  0  0  0  0  0
  -24.5870  -11.7440   20.8300 C   0  0  0  0  0  0  0  0  0  0  0  0
  -26.2550  -12.9730   20.2730 N   0  0  0  0  0  0  0  0  0  0  0  0
  -25.8820  -11.6960   20.5440 N   0  0  0  0  0  0  0  0  0  0  0  0
  -23.8520  -10.4880   21.0230 C   0  0  0  0  0  0  0  0  0  0  0  0
  -24.2730   -9.5230   21.9650 C   0  0  0  0  0  3  0  0  0  0  0  0
  -23.5380   -8.3310   22.1470 C   0  0  0  0  0  3  0  0  0  0  0  0
  -22.3680   -8.0970   21.3860 C   0  0  0  0  0  0  0  0  0  0  0  0
  -21.9660   -9.0510   20.4340 C   0  0  0  0  0  3  0  0  0  0  0  0
  -22.7010  -10.2330   20.2520 C   0  0  0  0  0  3  0  0  0  0  0  0
  -21.6050   -6.9580   21.4770 O   0  0  0  0  0  0  0  0  0  0  0  0
  -21.5530   -6.2150   22.6300 C   0  0  0  0  0  0  0  0  0  0  0  0
  -21.1380   -6.7740   23.8580 C   0  0  0  0  0  3  0  0  0  0  0  0
  -21.0320   -5.9590   25.0030 C   0  0  0  0  0  3  0  0  0  0  0  0
  -21.3330   -4.5860   24.9200 C   0  0  0  0  0  0  0  0  0  0  0  0
  -21.7430   -4.0270   23.6970 C   0  0  0  0  0  3  0  0  0  0  0  0
  -21.8490   -4.8390   22.5540 C   0  0  0  0  0  0  0  0  0  0  0  0
  -22.2240   -4.2910   21.3730 F   0  0  0  0  0  0  0  0  0  0  0  0
  -21.2250   -3.8000   26.0170 F   0  0  0  0  0  0  0  0  0  0  0  0
  -22.7320  -13.5860   21.0790 C   0  0  0  0  0  0  0  0  0  0  0  0
  -21.9850  -12.9070   21.9420 N   0  0  0  0  0  0  0  0  0  0  0  0
  -22.3070  -14.6060   20.5380 O   0  0  0  0  0  0  0  0  0  0  0  0
  -22.3400  -12.0850   22.4090 H   0  0  0  0  0  0  0  0  0  0  0  0
  -21.0450  -13.2150   22.1420 H   0  0  0  0  0  0  0  0  0  0  0  0
  -25.3830  -15.2300   20.2820 N   0  0  0  0  0  0  0  0  0  0  0  0
  -24.6160  -15.8880   20.3660 H   0  0  0  0  0  0  0  0  0  0  0  0
  -26.2370  -15.6550   19.9480 H   0  0  0  0  0  0  0  0  0  0  0  0
  -28.9040  -22.8260   19.8970 C   0  0  0  0  0  2  0  0  0  0  0  0
  -29.3480  -24.2850   20.2030 C   0  0  0  0  0  2  0  0  0  0  0  0
  -28.1990  -25.2570   19.8630 C   0  0  0  0  0  2  0  0  0  0  0  0
  -28.3650  -26.6440   20.2230 O   0  0  0  0  0  0  0  0  0  0  0  0
  -24.6010  -31.8950   23.2890 C   0  0  0  0  0  0  0  0  0  0  0  0
  -27.2090  -27.4140   20.1980 C   0  0  0  0  0  0  0  0  0  0  0  0
  -23.3880  -30.5070   21.6450 C   0  0  0  0  0  3  0  0  0  0  0  0
  -24.8300  -28.9670   20.2190 C   0  0  0  0  0  0  0  0  0  0  0  0
  -25.9250  -30.8330   21.4630 C   0  0  0  0  0  2  0  0  0  0  0  0
  -25.9970  -29.4660   20.8120 C   0  0  0  0  0  0  0  0  0  0  0  0
  -27.1870  -28.6960   20.8030 C   0  0  0  0  0  3  0  0  0  0  0  0
  -26.0130  -26.9480   19.5910 C   0  0  0  0  0  3  0  0  0  0  0  0
  -24.8340  -27.7050   19.6100 C   0  0  0  0  0  3  0  0  0  0  0  0
  -23.5970  -29.8380   20.2630 C   0  0  0  0  0  2  0  0  0  0  0  0
  -24.6550  -31.0930   22.1880 N   0  0  0  0  0  0  0  0  0  0  0  0
  -23.5220  -32.1750   23.8260 O   0  0  0  0  0  0  0  0  0  0  0  0
  -22.7260  -29.4860   22.5970 C   0  0  0  0  0  0  0  0  0  0  0  0
  -21.4030  -29.3060   22.4600 N   0  0  0  0  0  0  0  0  0  0  0  0
  -23.4020  -28.8590   23.4180 O   0  0  0  0  0  0  0  0  0  0  0  0
  -20.9180  -29.8610   21.7690 H   0  0  0  0  0  0  0  0  0  0  0  0
  -18.0230  -28.1140   22.9280 C   0  0  0  0  0  0  0  0  0  0  0  0
  -20.5770  -28.3730   23.2280 C   0  0  0  0  0  3  0  0  0  0  0  0
  -20.6860  -26.9380   22.6620 C   0  0  0  0  0  2  0  0  0  0  0  0
  -19.5960  -26.6090   21.6370 C   0  0  0  0  0  2  0  0  0  0  0  0
  -18.2060  -26.7590   22.2640 C   0  0  0  0  0  2  0  0  0  0  0  0
  -19.1370  -28.8780   23.3660 C   0  0  0  0  0  0  0  0  0  0  0  0
  -18.9110  -30.1450   23.9460 C   0  0  0  0  0  3  0  0  0  0  0  0
  -17.6060  -30.6490   24.0920 C   0  0  0  0  0  3  0  0  0  0  0  0
  -16.5060  -29.8820   23.6700 C   0  0  0  0  0  3  0  0  0  0  0  0
  -16.7160  -28.6170   23.0940 C   0  0  0  0  0  3  0  0  0  0  0  0
  -25.8920  -32.5150   23.9100 C   0  0  0  0  0  3  0  0  0  0  0  0
  -25.5930  -33.9160   24.2350 N   0  0  0  0  0  0  0  0  0  0  0  0
  -25.9170  -34.9620   23.4630 C   0  0  0  0  0  0  0  0  0  0  0  0
  -26.5700  -34.8500   22.4220 O   0  0  0  0  0  0  0  0  0  0  0  0
  -25.0150  -34.0780   25.0470 H   0  0  0  0  0  0  0  0  0  0  0  0
  -24.1810  -36.7510   23.1350 C   0  0  0  0  0  1  0  0  0  0  0  0
  -25.4420  -36.3550   23.9200 C   0  0  0  0  0  3  0  0  0  0  0  0
  -27.5950  -37.2450   24.6910 C   0  0  0  0  0  1  0  0  0  0  0  0
  -26.4710  -37.4050   23.7720 N   0  0  0  0  0  0  0  0  0  0  0  0
  -26.0690  -38.3270   23.9230 H   0  0  0  0  0  0  0  0  0  0  0  0
  -26.4010  -31.7420   25.1860 C   0  0  1  0  0  0  0  0  0  0  0  0
  -25.3050  -31.5130   26.2540 C   0  0  0  0  0  1  0  0  0  0  0  0
  -26.9740  -30.3590   24.7970 C   0  0  0  0  0  1  0  0  0  0  0  0
  -27.5560  -32.5290   25.8480 C   0  0  0  0  0  1  0  0  0  0  0  0
  1  4  1  0
  2  3  1  0
  2  5  2  0
  3  1  2  0
  4  8  1  0
  5  6  1  0
  6  4  2  0
  8  7  1  0
 10  9  1  0
 10  5  1  0
 10 11  1  0
 12 20  1  0
 13 18  1  0
 14 15  1  0
 14 13  1  0
 16 15  1  0
 16 25  1  0
 16 17  1  0
 18 12  1  0
 18 17  1  0
 19 12  2  0
 20 11  1  0
 20 21  1  0
 22 23  2  0
 23 42  1  0
 24 23  1  0
 24 27  1  0
 25 22  1  0
 25 26  1  0
 26 24  2  0
 27 28  1  0
 28 29  2  0
 30 33  1  0
 30 29  1  0
 31 30  2  0
 32 31  1  0
 32 27  2  0
 33 34  1  0
 34 35  1  0
 35 36  2  0
 37 36  1  0
 37 41  1  0
 38 37  2  0
 39 34  2  0
 39 38  1  0
 40 39  1  0
 42 43  1  0
 43 46  1  0
 43 45  1  0
 44 42  2  0
 47 48  1  0
 47 22  1  0
 49 47  1  0
 50  3  1  0
 50 51  1  0
 52 51  1  0
 52 53  1  0
 54 65  2  0
 55 53  1  0
 55 60  1  0
 56 64  1  0
 56 66  1  0
 57 63  1  0
 57 59  1  0
 58 64  1  0
 59 58  1  0
 60 59  2  0
 61 62  1  0
 61 55  2  0
 62 57  2  0
 63 56  1  0
 64 54  1  0
 66 68  2  0
 67 66  1  0
 69 67  1  0
 70 79  2  0
 70 75  1  0
 71 67  1  0
 71 75  1  0
 72 71  1  0
 73 74  1  0
 73 72  1  0
 74 70  1  0
 75 76  2  0
 76 77  1  0
 78 77  2  0
 79 78  1  0
 80 54  1  0
 80 81  1  0
 80 90  1  0
 81 84  1  0
 82 86  1  0
 82 81  1  0
 83 82  2  0
 86 85  1  0
 88 86  1  0
 88 89  1  0
 88 87  1  0
 90 93  1  1
 90 91  1  0
 92 90  1  0
M  ISO  4  12 100  20 100  52 101  53 101
M  END
>  <TORSDO>  (36) 
F 22

>  <SCORE>  (36) 
-13.302

>  <name>  (36) 
36

>  <ligand_id>  (36) 
36

>  <original_smiles>  (36) 
[H]c1c([H])c([H])c2c(c1[H])C([H])([H])C([H])([H])C([H])([H])C2([H])N([H])C(=O)C1([H])N(C(=O)C([H])(N([H])C(=O)C([H])(N([H])C([H])([H])[H])C([H])([H])[H])C(C([H])([H])[H])(C([H])([H])[H])C([H])([H])[H])C([H])([H])c2c([H])c(OC([H])([H])C([H])([H])C([H])([H])c3c([H])c(C([H])([H])C([H])([H])[H])nc(C([H])(C([H])([H])[H])C([H])([H])N([H])C(=O)N4C([H])([H])C([H])([H])C([H])([H])C([H])(n5nc(-c6c([H])c([H])c(Oc7c([H])c([H])c(F)c([H])c7F)c([H])c6[H])c(C(=O)N([H])[H])c5N([H])[H])C4([H])[H])c3[H])c([H])c([H])c2C1([H])[H]

>  <smiles>  (36) 
[H]c1c([H])c([H])c2c(c1[H])C([H])([H])C([H])([H])C([H])([H])C2([H])N([H])C(=O)C1([H])N(C(=O)C([H])(N([H])C(=O)C([H])(N([H])C([H])([H])[H])C([H])([H])[H])C(C([H])([H])[H])(C([H])([H])[H])C([H])([H])[H])C([H])([H])c2c([H])c(OC([H])([H])C([H])([H])C([H])([H])c3c([H])c(C([H])([H])C([H])([H])[H])nc(C([H])(C([H])([H])[H])C([H])([H])N([H])C(=O)N4C([H])([H])C([H])([H])C([H])([H])C([H])(n5nc(-c6c([H])c([H])c(Oc7c([H])c([H])c(F)c([H])c7F)c([H])c6[H])c(C(=O)N([H])[H])c5N([H])[H])C4([H])[H])c3[H])c([H])c([H])c2C1([H])[H]

$$$$
37:0:0
     RDKit          3D

 90 98  0  0  1  0  0  0  0  0999 V2000
  -29.6820  -19.9520   20.4210 C   0  0  0  0  0  0  0  0  0  0  0  0
  -30.9000  -19.6400   20.9940 C   0  0  0  0  0  0  0  0  0  0  0  0
  -29.9350  -17.6810   20.4590 C   0  0  0  0  0  0  0  0  0  0  0  0
  -31.9420  -20.6340   21.4190 C   0  0  0  0  0  1  0  0  0  0  0  0
  -32.1800  -17.4910   21.6050 C   0  0  0  0  0  1  0  0  0  0  0  0
  -29.0840  -18.7030   20.1570 N   0  0  0  0  0  0  0  0  0  0  0  0
  -31.0400  -18.2200   21.0510 N   0  0  0  0  0  0  0  0  0  0  0  0
  -29.1970  -16.2820   18.5520 C   0  0  0  0  0  1  0  0  0  0  0  0
  -29.5460  -16.1840   20.0620 C   0  0  0  0  0  3  0  0  0  0  0  0
  -30.4690  -14.8580   20.1960 C   0  0  0  0  0  0  0  0  0  0  0  0
  -30.2820  -12.5710   19.2110 C   0  0  0  0  0  2  0  0  0  0  0  0
  -29.3010  -12.6430   18.0160 C   0  0  0  0  0  2  0  0  0  0  0  0
  -27.8380  -12.4880   18.4840 C   0  0  0  0  0  2  0  0  0  0  0  0
  -27.5010  -13.3210   19.7500 C   0  0  0  0  0  3  0  0  0  0  0  0
  -28.6080  -13.2220   20.8230 C   0  0  0  0  0  2  0  0  0  0  0  0
  -29.8890  -13.6010   20.2030 N   0  0  0  0  0  0  0  0  0  0  0  0
  -31.6710  -14.9480   19.9320 O   0  0  0  0  0  0  0  0  0  0  0  0
  -25.1330  -13.8810   20.5480 C   0  0  0  0  0  0  0  0  0  0  0  0
  -24.0820  -13.0880   20.9350 C   0  0  0  0  0  0  0  0  0  0  0  0
  -24.5550  -11.7460   20.8630 C   0  0  0  0  0  0  0  0  0  0  0  0
  -26.1760  -13.0110   20.2720 N   0  0  0  0  0  0  0  0  0  0  0  0
  -25.8380  -11.7210   20.5200 N   0  0  0  0  0  0  0  0  0  0  0  0
  -23.8430  -10.4740   21.0550 C   0  0  0  0  0  0  0  0  0  0  0  0
  -24.3060   -9.5040   21.9680 C   0  0  0  0  0  3  0  0  0  0  0  0
  -23.5990   -8.2950   22.1480 C   0  0  0  0  0  3  0  0  0  0  0  0
  -22.4170   -8.0520   21.4120 C   0  0  0  0  0  0  0  0  0  0  0  0
  -21.9730   -9.0120   20.4860 C   0  0  0  0  0  3  0  0  0  0  0  0
  -22.6790  -10.2130   20.3060 C   0  0  0  0  0  3  0  0  0  0  0  0
  -21.6790   -6.8970   21.4990 O   0  0  0  0  0  0  0  0  0  0  0  0
  -21.6530   -6.1430   22.6430 C   0  0  0  0  0  0  0  0  0  0  0  0
  -21.2280   -6.6770   23.8800 C   0  0  0  0  0  3  0  0  0  0  0  0
  -21.1610   -5.8500   25.0170 C   0  0  0  0  0  3  0  0  0  0  0  0
  -21.5010   -4.4890   24.9220 C   0  0  0  0  0  0  0  0  0  0  0  0
  -21.9180   -3.9520   23.6920 C   0  0  0  0  0  3  0  0  0  0  0  0
  -21.9930   -4.7760   22.5560 C   0  0  0  0  0  0  0  0  0  0  0  0
  -22.3800   -4.2530   21.3680 F   0  0  0  0  0  0  0  0  0  0  0  0
  -21.4240   -3.6920   26.0140 F   0  0  0  0  0  0  0  0  0  0  0  0
  -22.6920  -13.5510   21.2540 C   0  0  0  0  0  0  0  0  0  0  0  0
  -21.9990  -12.8260   22.1290 N   0  0  0  0  0  0  0  0  0  0  0  0
  -22.2290  -14.5810   20.7720 O   0  0  0  0  0  0  0  0  0  0  0  0
  -22.3910  -11.9920   22.5370 H   0  0  0  0  0  0  0  0  0  0  0  0
  -21.0690  -13.1130   22.3950 H   0  0  0  0  0  0  0  0  0  0  0  0
  -25.2740  -15.2560   20.3920 N   0  0  0  0  0  0  0  0  0  0  0  0
  -24.4900  -15.8900   20.5180 H   0  0  0  0  0  0  0  0  0  0  0  0
  -26.0970  -15.7180   20.0250 H   0  0  0  0  0  0  0  0  0  0  0  0
  -29.1070  -21.3210   19.8940 C   0  0  0  0  0  3  0  0  0  0  0  0
  -28.9720  -22.6320   20.8090 C   0  0  0  0  0  3  0  0  0  0  0  0
  -28.7250  -24.0270   20.0480 C   0  0  0  0  0  3  0  0  0  0  0  0
  -28.2650  -25.3020   20.8970 C   0  0  0  0  0  3  0  0  0  0  0  0
  -28.3660  -26.6290   20.2680 O   0  0  0  0  0  0  0  0  0  0  0  0
  -24.5540  -31.9700   23.2460 C   0  0  0  0  0  0  0  0  0  0  0  0
  -27.2270  -27.4350   20.2470 C   0  0  0  0  0  0  0  0  0  0  0  0
  -23.3710  -30.5470   21.6060 C   0  0  0  0  0  3  0  0  0  0  0  0
  -24.8440  -28.9950   20.2050 C   0  0  0  0  0  0  0  0  0  0  0  0
  -25.9060  -30.8930   21.4390 C   0  0  0  0  0  2  0  0  0  0  0  0
  -26.0010  -29.5120   20.8010 C   0  0  0  0  0  0  0  0  0  0  0  0
  -27.1970  -28.7430   20.8140 C   0  0  0  0  0  3  0  0  0  0  0  0
  -26.0530  -26.9560   19.6310 C   0  0  0  0  0  3  0  0  0  0  0  0
  -24.8680  -27.7190   19.6140 C   0  0  0  0  0  3  0  0  0  0  0  0
  -23.5960  -29.8540   20.2370 C   0  0  0  0  0  2  0  0  0  0  0  0
  -24.6280  -31.1540   22.1540 N   0  0  0  0  0  0  0  0  0  0  0  0
  -23.4660  -32.2430   23.7730 O   0  0  0  0  0  0  0  0  0  0  0  0
  -22.7100  -29.5360   22.5710 C   0  0  0  0  0  0  0  0  0  0  0  0
  -21.3870  -29.3520   22.4350 N   0  0  0  0  0  0  0  0  0  0  0  0
  -23.3880  -28.9160   23.3950 O   0  0  0  0  0  0  0  0  0  0  0  0
  -20.9030  -29.8930   21.7330 H   0  0  0  0  0  0  0  0  0  0  0  0
  -18.0060  -28.1780   22.9380 C   0  0  0  0  0  0  0  0  0  0  0  0
  -20.5650  -28.4190   23.2060 C   0  0  0  0  0  3  0  0  0  0  0  0
  -20.6610  -26.9890   22.6220 C   0  0  0  0  0  2  0  0  0  0  0  0
  -19.5560  -26.6780   21.6090 C   0  0  0  0  0  2  0  0  0  0  0  0
  -18.1740  -26.8300   22.2540 C   0  0  0  0  0  2  0  0  0  0  0  0
  -19.1300  -28.9320   23.3670 C   0  0  0  0  0  0  0  0  0  0  0  0
  -18.9210  -30.1950   23.9620 C   0  0  0  0  0  3  0  0  0  0  0  0
  -17.6190  -30.7040   24.1300 C   0  0  0  0  0  3  0  0  0  0  0  0
  -16.5090  -29.9460   23.7190 C   0  0  0  0  0  3  0  0  0  0  0  0
  -16.7030  -28.6850   23.1300 C   0  0  0  0  0  3  0  0  0  0  0  0
  -25.8310  -32.6090   23.8750 C   0  0  0  0  0  3  0  0  0  0  0  0
  -25.5150  -34.0070   24.2010 N   0  0  0  0  0  0  0  0  0  0  0  0
  -25.8490  -35.0600   23.4420 C   0  0  0  0  0  0  0  0  0  0  0  0
  -26.5260  -34.9580   22.4150 O   0  0  0  0  0  0  0  0  0  0  0  0
  -24.9170  -34.1620   24.9990 H   0  0  0  0  0  0  0  0  0  0  0  0
  -24.1170  -36.8420   23.0690 C   0  0  0  0  0  1  0  0  0  0  0  0
  -25.3530  -36.4470   23.8930 C   0  0  0  0  0  3  0  0  0  0  0  0
  -27.4750  -37.3390   24.7440 C   0  0  0  0  0  1  0  0  0  0  0  0
  -26.3820  -37.5040   23.7890 N   0  0  0  0  0  0  0  0  0  0  0  0
  -25.9730  -38.4230   23.9350 H   0  0  0  0  0  0  0  0  0  0  0  0
  -26.3430  -31.8440   25.1560 C   0  0  1  0  0  0  0  0  0  0  0  0
  -25.2410  -31.6000   26.2130 C   0  0  0  0  0  1  0  0  0  0  0  0
  -26.9400  -30.4720   24.7680 C   0  0  0  0  0  1  0  0  0  0  0  0
  -27.4840  -32.6450   25.8250 C   0  0  0  0  0  1  0  0  0  0  0  0
  1  2  2  0
  2  7  1  0
  2  4  1  0
  3  7  1  0
  6  1  1  0
  6  3  2  0
  7  5  1  0
  9  8  1  0
  9 10  1  0
  9  3  1  0
 10 16  1  0
 11 16  1  0
 12 13  1  0
 12 11  1  0
 14 13  1  0
 14 21  1  0
 14 15  1  0
 16 15  1  0
 17 10  2  0
 18 19  2  0
 19 38  1  0
 20 19  1  0
 20 23  1  0
 21 22  1  0
 21 18  1  0
 22 20  2  0
 23 24  1  0
 24 25  2  0
 26 29  1  0
 26 25  1  0
 27 26  2  0
 28 27  1  0
 28 23  2  0
 29 30  1  0
 30 31  1  0
 31 32  2  0
 33 32  1  0
 33 37  1  0
 34 33  2  0
 35 30  2  0
 35 34  1  0
 36 35  1  0
 38 39  1  0
 39 42  1  0
 39 41  1  0
 40 38  2  0
 43 44  1  0
 43 18  1  0
 45 43  1  0
 46  1  1  0
 46 47  2  0
 48 47  1  0
 48 49  2  0
 50 49  1  0
 51 62  2  0
 52 50  1  0
 52 57  1  0
 53 61  1  0
 53 63  1  0
 54 60  1  0
 54 56  1  0
 55 61  1  0
 56 57  2  0
 56 55  1  0
 58 52  2  0
 59 58  1  0
 59 54  2  0
 60 53  1  0
 61 51  1  0
 63 65  2  0
 64 63  1  0
 66 64  1  0
 67 76  2  0
 67 72  1  0
 68 64  1  0
 68 72  1  0
 69 68  1  0
 70 71  1  0
 70 69  1  0
 71 67  1  0
 72 73  2  0
 73 74  1  0
 75 74  2  0
 76 75  1  0
 77 51  1  0
 77 78  1  0
 77 87  1  0
 78 81  1  0
 79 83  1  0
 79 78  1  0
 80 79  2  0
 83 82  1  0
 85 83  1  0
 85 86  1  0
 85 84  1  0
 87 90  1  1
 87 88  1  0
 89 87  1  0
M  ISO  4   9 100  10 100  49 101  50 101
M  END
>  <TORSDO>  (37) 
F 21

>  <SCORE>  (37) 
-12.721

>  <name>  (37) 
37

>  <ligand_id>  (37) 
37

>  <original_smiles>  (37) 
[H]c1c([H])c([H])c2c(c1[H])C([H])([H])C([H])([H])C([H])([H])C2([H])N([H])C(=O)C1([H])N(C(=O)C([H])(N([H])C(=O)C([H])(N([H])C([H])([H])[H])C([H])([H])[H])C(C([H])([H])[H])(C([H])([H])[H])C([H])([H])[H])C([H])([H])c2c([H])c(OC([H])([H])C([H])([H])C([H])([H])C([H])([H])c3nc(C([H])(C(=O)N4C([H])([H])C([H])([H])C([H])([H])C([H])(n5nc(-c6c([H])c([H])c(Oc7c([H])c([H])c(F)c([H])c7F)c([H])c6[H])c(C(=O)N([H])[H])c5N([H])[H])C4([H])[H])C([H])([H])[H])n(C([H])([H])[H])c3C([H])([H])[H])c([H])c([H])c2C1([H])[H]

>  <smiles>  (37) 
[H]c1c([H])c([H])c2c(c1[H])C([H])([H])C([H])([H])C([H])([H])C2([H])N([H])C(=O)C1([H])N(C(=O)C([H])(N([H])C(=O)C([H])(N([H])C([H])([H])[H])C([H])([H])[H])C(C([H])([H])[H])(C([H])([H])[H])C([H])([H])[H])C([H])([H])c2c([H])c(OC([H])([H])C([H])([H])C([H])([H])C([H])([H])c3nc(C([H])(C(=O)N4C([H])([H])C([H])([H])C([H])([H])C([H])(n5nc(-c6c([H])c([H])c(Oc7c([H])c([H])c(F)c([H])c7F)c([H])c6[H])c(C(=O)N([H])[H])c5N([H])[H])C4([H])[H])C([H])([H])[H])n(C([H])([H])[H])c3C([H])([H])[H])c([H])c([H])c2C1([H])[H]

$$$$
38:0:0
     RDKit          3D

 94102  0  0  1  0  0  0  0  0999 V2000
  -27.5200  -20.2670   20.2710 C   0  0  0  0  0  1  0  0  0  0  0  0
  -29.0430  -20.1960   19.9370 C   0  0  1  0  0  0  0  0  0  0  0  0
  -28.6510  -17.9290   17.0540 C   0  0  0  0  0  3  0  0  0  0  0  0
  -29.6590  -17.2100   17.7280 C   0  0  0  0  0  3  0  0  0  0  0  0
  -28.3810  -19.0210   17.8130 C   0  0  0  0  0  3  0  0  0  0  0  0
  -29.9800  -17.8630   18.8880 C   0  0  0  0  0  0  0  0  0  0  0  0
  -29.1830  -19.0470   18.9580 N   0  0  0  0  0  0  0  0  0  0  0  0
  -31.0400  -17.3300   19.8350 C   0  0  0  0  0  2  0  0  0  0  0  0
  -31.1760  -16.0150   22.0120 C   0  0  0  0  0  1  0  0  0  0  0  0
  -30.7020  -15.9680   20.5450 C   0  0  0  0  0  3  0  0  0  0  0  0
  -31.2950  -14.7000   19.8630 C   0  0  0  0  0  0  0  0  0  0  0  0
  -30.9440  -12.4370   18.9110 C   0  0  0  0  0  2  0  0  0  0  0  0
  -29.9710  -12.5120   17.7170 C   0  0  0  0  0  2  0  0  0  0  0  0
  -28.5090  -12.4230   18.1950 C   0  0  0  0  0  2  0  0  0  0  0  0
  -28.2050  -13.3970   19.3630 C   0  0  0  0  0  3  0  0  0  0  0  0
  -29.2860  -13.2910   20.4610 C   0  0  0  0  0  2  0  0  0  0  0  0
  -30.5960  -13.5280   19.8360 N   0  0  0  0  0  0  0  0  0  0  0  0
  -32.3860  -14.8040   19.2960 O   0  0  0  0  0  0  0  0  0  0  0  0
  -25.8640  -14.1080   20.1600 C   0  0  0  0  0  0  0  0  0  0  0  0
  -24.7820  -13.3830   20.5790 C   0  0  0  0  0  0  0  0  0  0  0  0
  -25.1870  -12.0130   20.5460 C   0  0  0  0  0  0  0  0  0  0  0  0
  -26.8640  -13.1830   19.8980 N   0  0  0  0  0  0  0  0  0  0  0  0
  -26.4600  -11.9180   20.1890 N   0  0  0  0  0  0  0  0  0  0  0  0
  -24.4170  -10.7830   20.7770 C   0  0  0  0  0  0  0  0  0  0  0  0
  -24.8010   -9.8470   21.7620 C   0  0  0  0  0  3  0  0  0  0  0  0
  -24.0330   -8.6800   21.9770 C   0  0  0  0  0  3  0  0  0  0  0  0
  -22.8690   -8.4440   21.2090 C   0  0  0  0  0  0  0  0  0  0  0  0
  -22.5060   -9.3690   20.2130 C   0  0  0  0  0  3  0  0  0  0  0  0
  -23.2730  -10.5260   19.9970 C   0  0  0  0  0  3  0  0  0  0  0  0
  -22.0780   -7.3280   21.3310 O   0  0  0  0  0  0  0  0  0  0  0  0
  -21.9190   -6.6870   22.5330 C   0  0  0  0  0  0  0  0  0  0  0  0
  -21.4280   -7.3560   23.6750 C   0  0  0  0  0  3  0  0  0  0  0  0
  -21.2150   -6.6420   24.8710 C   0  0  0  0  0  3  0  0  0  0  0  0
  -21.4850   -5.2610   24.9270 C   0  0  0  0  0  0  0  0  0  0  0  0
  -21.9690   -4.5930   23.7880 C   0  0  0  0  0  3  0  0  0  0  0  0
  -22.1830   -5.3030   22.5940 C   0  0  0  0  0  0  0  0  0  0  0  0
  -22.6310   -4.6510   21.4950 F   0  0  0  0  0  0  0  0  0  0  0  0
  -21.2730   -4.5740   26.0730 F   0  0  0  0  0  0  0  0  0  0  0  0
  -23.4170  -13.9190   20.9020 C   0  0  0  0  0  0  0  0  0  0  0  0
  -22.7070  -13.2730   21.8210 N   0  0  0  0  0  0  0  0  0  0  0  0
  -22.9910  -14.9450   20.3740 O   0  0  0  0  0  0  0  0  0  0  0  0
  -23.0680  -12.4420   22.2670 H   0  0  0  0  0  0  0  0  0  0  0  0
  -21.7940  -13.6130   22.0850 H   0  0  0  0  0  0  0  0  0  0  0  0
  -26.0740  -15.4690   19.9580 N   0  0  0  0  0  0  0  0  0  0  0  0
  -25.3340  -16.1510   20.0850 H   0  0  0  0  0  0  0  0  0  0  0  0
  -26.9250  -15.8720   19.5860 H   0  0  0  0  0  0  0  0  0  0  0  0
  -29.8480  -21.6810   17.8560 C   0  0  0  0  0  1  0  0  0  0  0  0
  -29.5710  -21.6100   19.3730 C   0  0  0  0  0  3  0  0  0  0  0  0
  -28.7070  -22.8440   19.8170 C   0  0  0  0  0  2  0  0  0  0  0  0
  -29.2360  -24.3050   19.6300 C   0  0  0  0  0  2  0  0  0  0  0  0
  -28.0400  -25.2920   19.6750 C   0  0  0  0  0  2  0  0  0  0  0  0
  -28.2730  -26.7230   19.5990 O   0  0  0  0  0  0  0  0  0  0  0  0
  -24.5220  -31.7560   23.0320 C   0  0  0  0  0  0  0  0  0  0  0  0
  -27.1130  -27.4920   19.6360 C   0  0  0  0  0  0  0  0  0  0  0  0
  -23.2740  -30.3930   21.3920 C   0  0  0  0  0  3  0  0  0  0  0  0
  -24.6940  -28.9760   19.8260 C   0  0  0  0  0  0  0  0  0  0  0  0
  -25.7870  -30.8230   21.0950 C   0  0  0  0  0  2  0  0  0  0  0  0
  -25.8740  -29.4870   20.3820 C   0  0  0  0  0  0  0  0  0  0  0  0
  -27.0850  -28.7550   20.2830 C   0  0  0  0  0  3  0  0  0  0  0  0
  -25.9070  -27.0250   19.0540 C   0  0  0  0  0  3  0  0  0  0  0  0
  -24.7090  -27.7470   19.1560 C   0  0  0  0  0  3  0  0  0  0  0  0
  -23.4350  -29.7980   19.9710 C   0  0  0  0  0  2  0  0  0  0  0  0
  -24.5490  -31.0030   21.8950 N   0  0  0  0  0  0  0  0  0  0  0  0
  -23.4610  -31.9740   23.6330 O   0  0  0  0  0  0  0  0  0  0  0  0
  -22.7040  -29.3060   22.3310 C   0  0  0  0  0  0  0  0  0  0  0  0
  -21.3850  -29.0690   22.2420 N   0  0  0  0  0  0  0  0  0  0  0  0
  -23.4400  -28.6830   23.1020 O   0  0  0  0  0  0  0  0  0  0  0  0
  -20.8500  -29.6310   21.5930 H   0  0  0  0  0  0  0  0  0  0  0  0
  -18.0880  -27.6780   22.7560 C   0  0  0  0  0  0  0  0  0  0  0  0
  -20.6320  -28.0720   23.0040 C   0  0  0  0  0  3  0  0  0  0  0  0
  -20.8060  -26.6610   22.3980 C   0  0  0  0  0  2  0  0  0  0  0  0
  -19.7100  -26.2950   21.3930 C   0  0  0  0  0  2  0  0  0  0  0  0
  -18.3300  -26.3510   22.0560 C   0  0  0  0  0  2  0  0  0  0  0  0
  -19.1680  -28.4930   23.1860 C   0  0  0  0  0  0  0  0  0  0  0  0
  -18.8870  -29.7320   23.8020 C   0  0  0  0  0  3  0  0  0  0  0  0
  -17.5580  -30.1530   23.9970 C   0  0  0  0  0  3  0  0  0  0  0  0
  -16.4930  -29.3330   23.5860 C   0  0  0  0  0  3  0  0  0  0  0  0
  -16.7590  -28.1000   22.9670 C   0  0  0  0  0  3  0  0  0  0  0  0
  -25.8190  -32.3980   23.6130 C   0  0  0  0  0  3  0  0  0  0  0  0
  -25.4900  -33.7720   24.0100 N   0  0  0  0  0  0  0  0  0  0  0  0
  -25.7770  -34.8630   23.2890 C   0  0  0  0  0  0  0  0  0  0  0  0
  -26.4180  -34.8200   22.2350 O   0  0  0  0  0  0  0  0  0  0  0  0
  -24.9190  -33.8800   24.8340 H   0  0  0  0  0  0  0  0  0  0  0  0
  -24.0000  -36.6280   23.0560 C   0  0  0  0  0  1  0  0  0  0  0  0
  -25.2690  -36.2180   23.8180 C   0  0  0  0  0  3  0  0  0  0  0  0
  -27.4050  -37.1140   24.6300 C   0  0  0  0  0  1  0  0  0  0  0  0
  -26.2730  -37.3000   23.7270 N   0  0  0  0  0  0  0  0  0  0  0  0
  -25.8510  -38.2020   23.9290 H   0  0  0  0  0  0  0  0  0  0  0  0
  -26.4170  -31.5930   24.8300 C   0  0  1  0  0  0  0  0  0  0  0  0
  -25.3860  -31.2870   25.9410 C   0  0  0  0  0  1  0  0  0  0  0  0
  -27.0150  -30.2490   24.3540 C   0  0  0  0  0  1  0  0  0  0  0  0
  -27.5790  -32.3930   25.4660 C   0  0  0  0  0  1  0  0  0  0  0  0
  -29.3950  -18.7230   22.1010 C   0  0  0  0  0  1  0  0  0  0  0  0
  -29.7500  -19.9970   21.3100 C   0  0  0  0  0  2  0  0  0  0  0  0
  2  1  1  1
  2 94  1  0
  3  4  1  0
  3  5  2  0
  4  6  2  0
  5  7  1  0
  6  7  1  0
  6  8  1  0
  7  2  1  0
  8 10  1  0
 10  9  1  0
 11 10  1  0
 12 17  1  0
 13 14  1  0
 13 12  1  0
 15 14  1  0
 15 22  1  0
 15 16  1  0
 17 11  1  0
 17 16  1  0
 18 11  2  0
 19 20  2  0
 20 39  1  0
 21 20  1  0
 21 24  1  0
 22 19  1  0
 22 23  1  0
 23 21  2  0
 24 25  1  0
 25 26  2  0
 27 30  1  0
 27 26  1  0
 28 27  2  0
 29 28  1  0
 29 24  2  0
 30 31  1  0
 31 36  2  0
 31 32  1  0
 32 33  2  0
 33 34  1  0
 34 38  1  0
 35 34  2  0
 36 35  1  0
 37 36  1  0
 39 40  1  0
 40 43  1  0
 40 42  1  0
 41 39  2  0
 44 45  1  0
 44 19  1  0
 46 44  1  0
 48 47  1  0
 48 49  1  0
 48  2  1  0
 50 51  1  0
 50 49  1  0
 52 54  1  0
 52 51  1  0
 53 64  2  0
 54 59  1  0
 55 63  1  0
 55 65  1  0
 56 62  1  0
 56 58  1  0
 57 63  1  0
 58 57  1  0
 59 58  2  0
 60 61  1  0
 60 54  2  0
 61 56  2  0
 62 55  1  0
 63 53  1  0
 65 67  2  0
 66 65  1  0
 68 66  1  0
 69 78  2  0
 69 74  1  0
 70 66  1  0
 70 74  1  0
 71 70  1  0
 72 73  1  0
 72 71  1  0
 73 69  1  0
 74 75  2  0
 75 76  1  0
 77 76  2  0
 78 77  1  0
 79 53  1  0
 79 80  1  0
 79 89  1  0
 80 83  1  0
 81 85  1  0
 81 80  1  0
 82 81  2  0
 85 84  1  0
 87 85  1  0
 87 88  1  0
 87 86  1  0
 89 92  1  1
 89 90  1  0
 91 89  1  0
 94 93  1  0
M  ISO  4  10 100  11 100  51 101  52 101
M  END
>  <TORSDO>  (38) 
F 24

>  <SCORE>  (38) 
-9.434

>  <name>  (38) 
38

>  <ligand_id>  (38) 
38

>  <original_smiles>  (38) 
[H]c1c([H])c([H])c2c(c1[H])C([H])([H])C([H])([H])C([H])([H])C2([H])N([H])C(=O)C1([H])N(C(=O)C([H])(N([H])C(=O)C([H])(N([H])C([H])([H])[H])C([H])([H])[H])C(C([H])([H])[H])(C([H])([H])[H])C([H])([H])[H])C([H])([H])c2c([H])c(OC([H])([H])C([H])([H])C([H])([H])C([H])(C([H])([H])[H])C(n3c([H])c([H])c([H])c3C([H])([H])C([H])(C(=O)N3C([H])([H])C([H])([H])C([H])([H])C([H])(n4nc(-c5c([H])c([H])c(Oc6c([H])c([H])c(F)c([H])c6F)c([H])c5[H])c(C(=O)N([H])[H])c4N([H])[H])C3([H])[H])C([H])([H])[H])(C([H])([H])[H])C([H])([H])C([H])([H])[H])c([H])c([H])c2C1([H])[H]

>  <smiles>  (38) 
[H]c1c([H])c([H])c2c(c1[H])C([H])([H])C([H])([H])C([H])([H])C2([H])N([H])C(=O)C1([H])N(C(=O)C([H])(N([H])C(=O)C([H])(N([H])C([H])([H])[H])C([H])([H])[H])C(C([H])([H])[H])(C([H])([H])[H])C([H])([H])[H])C([H])([H])c2c([H])c(OC([H])([H])C([H])([H])C([H])([H])C([H])(C([H])([H])[H])C(n3c([H])c([H])c([H])c3C([H])([H])C([H])(C(=O)N3C([H])([H])C([H])([H])C([H])([H])C([H])(n4nc(-c5c([H])c([H])c(Oc6c([H])c([H])c(F)c([H])c6F)c([H])c5[H])c(C(=O)N([H])[H])c4N([H])[H])C3([H])[H])C([H])([H])[H])(C([H])([H])[H])C([H])([H])C([H])([H])[H])c([H])c([H])c2C1([H])[H]

$$$$
39:0:0
     RDKit          3D

 91 99  0  0  1  0  0  0  0  0999 V2000
  -29.3810  -20.2750   20.4450 C   0  0  0  0  0  3  0  0  0  0  0  0
  -30.6640  -15.1540   20.1830 C   0  0  0  0  0  0  0  0  0  0  0  0
  -30.4870  -12.8200   19.1830 C   0  0  0  0  0  2  0  0  0  0  0  0
  -29.5180  -12.7680   17.9800 C   0  0  0  0  0  2  0  0  0  0  0  0
  -28.0730  -12.5390   18.4560 C   0  0  0  0  0  2  0  0  0  0  0  0
  -27.6980  -13.4450   19.6570 C   0  0  0  0  0  3  0  0  0  0  0  0
  -28.7870  -13.4580   20.7510 C   0  0  0  0  0  2  0  0  0  0  0  0
  -30.0300  -13.9060   20.1060 N   0  0  0  0  0  0  0  0  0  0  0  0
  -31.8360  -15.1790   19.7950 O   0  0  0  0  0  0  0  0  0  0  0  0
  -29.6580  -19.3850   18.1160 C   0  0  0  0  0  3  0  0  0  0  0  0
  -29.9250  -18.2990   17.3330 C   0  0  0  0  0  0  0  0  0  0  0  0
  -29.9050  -17.6020   19.4660 C   0  0  0  0  0  3  0  0  0  0  0  0
  -30.0370  -18.1510   15.8510 C   0  0  0  0  0  1  0  0  0  0  0  0
  -29.5050  -16.6570   21.7800 C   0  0  0  0  0  1  0  0  0  0  0  0
  -29.6360  -19.0290   19.4510 N   0  0  0  0  0  0  0  0  0  0  0  0
  -30.0850  -17.2540   18.1840 N   0  0  0  0  0  0  0  0  0  0  0  0
  -29.9850  -16.4050   20.4220 N   0  0  0  0  0  0  0  0  0  0  0  0
  -30.3150  -16.3210   17.8700 H   0  0  0  0  0  0  0  0  0  0  0  0
  -25.3410  -13.9870   20.4800 C   0  0  0  0  0  0  0  0  0  0  0  0
  -24.2930  -13.1960   20.8660 C   0  0  0  0  0  0  0  0  0  0  0  0
  -24.7670  -11.8510   20.7980 C   0  0  0  0  0  0  0  0  0  0  0  0
  -26.3810  -13.1220   20.1930 N   0  0  0  0  0  0  0  0  0  0  0  0
  -26.0490  -11.8300   20.4510 N   0  0  0  0  0  0  0  0  0  0  0  0
  -24.0550  -10.5800   20.9870 C   0  0  0  0  0  0  0  0  0  0  0  0
  -24.5010   -9.6120   21.9150 C   0  0  0  0  0  3  0  0  0  0  0  0
  -23.7870   -8.4070   22.0930 C   0  0  0  0  0  3  0  0  0  0  0  0
  -22.6120   -8.1610   21.3420 C   0  0  0  0  0  0  0  0  0  0  0  0
  -22.1860   -9.1170   20.4020 C   0  0  0  0  0  3  0  0  0  0  0  0
  -22.9010  -10.3130   20.2230 C   0  0  0  0  0  3  0  0  0  0  0  0
  -21.8670   -7.0110   21.4320 O   0  0  0  0  0  0  0  0  0  0  0  0
  -21.7960   -6.2870   22.5960 C   0  0  0  0  0  0  0  0  0  0  0  0
  -21.3260   -6.8580   23.8000 C   0  0  0  0  0  3  0  0  0  0  0  0
  -21.2030   -6.0590   24.9550 C   0  0  0  0  0  3  0  0  0  0  0  0
  -21.5380   -4.6930   24.9080 C   0  0  0  0  0  0  0  0  0  0  0  0
  -22.0000   -4.1240   23.7090 C   0  0  0  0  0  3  0  0  0  0  0  0
  -22.1260   -4.9180   22.5550 C   0  0  0  0  0  0  0  0  0  0  0  0
  -22.5520   -4.3590   21.3970 F   0  0  0  0  0  0  0  0  0  0  0  0
  -21.4120   -3.9250   26.0150 F   0  0  0  0  0  0  0  0  0  0  0  0
  -22.9020  -13.6590   21.1850 C   0  0  0  0  0  0  0  0  0  0  0  0
  -22.2090  -12.9490   22.0690 N   0  0  0  0  0  0  0  0  0  0  0  0
  -22.4400  -14.6840   20.6870 O   0  0  0  0  0  0  0  0  0  0  0  0
  -22.5990  -12.1190   22.4910 H   0  0  0  0  0  0  0  0  0  0  0  0
  -21.2780  -13.2400   22.3270 H   0  0  0  0  0  0  0  0  0  0  0  0
  -25.4940  -15.3620   20.3210 N   0  0  0  0  0  0  0  0  0  0  0  0
  -24.7320  -16.0150   20.4640 H   0  0  0  0  0  0  0  0  0  0  0  0
  -26.3300  -15.8010   19.9560 H   0  0  0  0  0  0  0  0  0  0  0  0
  -28.8940  -21.8290   19.8750 C   0  0  0  0  0  3  0  0  0  0  0  0
  -30.3260  -23.7920   20.8520 C   0  0  0  0  0  1  0  0  0  0  0  0
  -28.8720  -23.3600   20.6280 C   0  0  0  0  0  3  0  0  0  0  0  0
  -28.0520  -24.7350   20.0430 C   0  0  0  0  0  2  0  0  0  0  0  0
  -28.2190  -26.2460   20.4430 O   0  0  0  0  0  0  0  0  0  0  0  0
  -24.5870  -32.0000   23.3100 C   0  0  0  0  0  0  0  0  0  0  0  0
  -27.1740  -27.2430   20.3300 C   0  0  0  0  0  0  0  0  0  0  0  0
  -23.3960  -30.5910   21.6770 C   0  0  0  0  0  3  0  0  0  0  0  0
  -24.8520  -29.0070   20.2670 C   0  0  0  0  0  0  0  0  0  0  0  0
  -25.9520  -30.8480   21.5250 C   0  0  0  0  0  2  0  0  0  0  0  0
  -26.0290  -29.4510   20.8820 C   0  0  0  0  0  0  0  0  0  0  0  0
  -27.1890  -28.5850   20.8970 C   0  0  0  0  0  3  0  0  0  0  0  0
  -25.9750  -26.9130   19.6610 C   0  0  0  0  0  3  0  0  0  0  0  0
  -24.8400  -27.7510   19.6420 C   0  0  0  0  0  3  0  0  0  0  0  0
  -23.6230  -29.9040   20.3030 C   0  0  0  0  0  2  0  0  0  0  0  0
  -24.6650  -31.1680   22.2240 N   0  0  0  0  0  0  0  0  0  0  0  0
  -23.4970  -32.2910   23.8260 O   0  0  0  0  0  0  0  0  0  0  0  0
  -22.7140  -29.5910   22.6430 C   0  0  0  0  0  0  0  0  0  0  0  0
  -21.3880  -29.4080   22.5020 N   0  0  0  0  0  0  0  0  0  0  0  0
  -23.3790  -28.9810   23.4830 O   0  0  0  0  0  0  0  0  0  0  0  0
  -20.9080  -29.9500   21.7980 H   0  0  0  0  0  0  0  0  0  0  0  0
  -18.0110  -28.1890   22.9760 C   0  0  0  0  0  0  0  0  0  0  0  0
  -20.5640  -28.4760   23.2750 C   0  0  0  0  0  3  0  0  0  0  0  0
  -20.6860  -27.0380   22.7220 C   0  0  0  0  0  2  0  0  0  0  0  0
  -19.6000  -26.6910   21.6990 C   0  0  0  0  0  2  0  0  0  0  0  0
  -18.2080  -26.8330   22.3210 C   0  0  0  0  0  2  0  0  0  0  0  0
  -19.1180  -28.9670   23.4100 C   0  0  0  0  0  0  0  0  0  0  0  0
  -18.8790  -30.2350   23.9830 C   0  0  0  0  0  3  0  0  0  0  0  0
  -17.5670  -30.7260   24.1280 C   0  0  0  0  0  3  0  0  0  0  0  0
  -16.4760  -29.9450   23.7110 C   0  0  0  0  0  3  0  0  0  0  0  0
  -16.6990  -28.6790   23.1390 C   0  0  0  0  0  3  0  0  0  0  0  0
  -25.8610  -32.6420   23.9370 C   0  0  0  0  0  3  0  0  0  0  0  0
  -26.3590  -31.8880   25.2320 C   0  0  1  0  0  0  0  0  0  0  0  0
  -25.2500  -31.6600   26.2880 C   0  0  0  0  0  1  0  0  0  0  0  0
  -26.9490  -30.5050   24.8720 C   0  0  0  0  0  1  0  0  0  0  0  0
  -27.5000  -32.6940   25.8990 C   0  0  0  0  0  1  0  0  0  0  0  0
  -25.5460  -34.0450   24.2490 N   0  0  0  0  0  0  0  0  0  0  0  0
  -25.8700  -35.0910   23.4790 C   0  0  0  0  0  0  0  0  0  0  0  0
  -26.5290  -34.9770   22.4410 O   0  0  0  0  0  0  0  0  0  0  0  0
  -24.9540  -34.2070   25.0500 H   0  0  0  0  0  0  0  0  0  0  0  0
  -24.1240  -36.8740   23.1450 C   0  0  0  0  0  1  0  0  0  0  0  0
  -25.3890  -36.4870   23.9260 C   0  0  0  0  0  3  0  0  0  0  0  0
  -27.5380  -37.4020   24.6870 C   0  0  0  0  0  1  0  0  0  0  0  0
  -26.4120  -37.5440   23.7670 N   0  0  0  0  0  0  0  0  0  0  0  0
  -26.0050  -38.4640   23.9030 H   0  0  0  0  0  0  0  0  0  0  0  0
  2 17  1  0
  3  8  1  0
  4  5  1  0
  4  3  1  0
  6  5  1  0
  6 22  1  0
  6  7  1  0
  8  2  1  0
  8  7  1  0
  9  2  2  0
 10 15  1  0
 11 10  2  0
 11 16  1  0
 12 17  1  0
 13 11  1  0
 15 12  1  0
 15  1  1  0
 16 12  1  0
 17 14  1  0
 18 16  1  0
 19 20  2  0
 20 39  1  0
 21 20  1  0
 21 24  1  0
 22 23  1  0
 22 19  1  0
 23 21  2  0
 24 25  1  0
 25 26  2  0
 27 30  1  0
 27 26  1  0
 28 27  2  0
 29 28  1  0
 29 24  2  0
 30 31  1  0
 31 32  1  0
 32 33  2  0
 34 33  1  0
 34 38  1  0
 35 34  2  0
 36 31  2  0
 36 35  1  0
 37 36  1  0
 39 40  1  0
 40 43  1  0
 40 42  1  0
 41 39  2  0
 44 45  1  0
 44 19  1  0
 46 44  1  0
 47  1  2  0
 47 49  1  0
 49 48  1  0
 50 51  1  0
 50 49  1  0
 52 63  2  0
 53 51  1  0
 53 58  1  0
 54 62  1  0
 54 64  1  0
 55 61  1  0
 55 57  1  0
 56 62  1  0
 57 58  2  0
 57 56  1  0
 59 53  2  0
 60 59  1  0
 60 55  2  0
 61 54  1  0
 62 52  1  0
 64 66  2  0
 65 64  1  0
 67 65  1  0
 68 77  2  0
 68 73  1  0
 69 65  1  0
 69 73  1  0
 70 69  1  0
 71 72  1  0
 71 70  1  0
 72 68  1  0
 73 74  2  0
 74 75  1  0
 76 75  2  0
 77 76  1  0
 78 52  1  0
 78 83  1  0
 78 79  1  0
 79 82  1  1
 79 80  1  0
 81 79  1  0
 83 86  1  0
 84 88  1  0
 84 83  1  0
 85 84  2  0
 88 87  1  0
 90 91  1  0
 90 88  1  0
 90 89  1  0
M  ISO  4   2 100  17 100  50 101  51 101
M  END
>  <TORSDO>  (39) 
F 19

>  <SCORE>  (39) 
-15.464

>  <name>  (39) 
39

>  <ligand_id>  (39) 
39

>  <original_smiles>  (39) 
[H]c1c([H])c([H])c2c(c1[H])C([H])([H])C([H])([H])C([H])([H])C2([H])N([H])C(=O)C1([H])N(C(=O)C([H])(N([H])C(=O)C([H])(N([H])C([H])([H])[H])C([H])([H])[H])C(C([H])([H])[H])(C([H])([H])[H])C([H])([H])[H])C([H])([H])c2c([H])c(OC([H])([H])C([H])(C([H])([H])[H])C([H])([H])C([H])([H])n3c([H])c(C([H])([H])[H])[n+]([H])c3N(C(=O)N3C([H])([H])C([H])([H])C([H])([H])C([H])(n4nc(-c5c([H])c([H])c(Oc6c([H])c([H])c(F)c([H])c6F)c([H])c5[H])c(C(=O)N([H])[H])c4N([H])[H])C3([H])[H])C([H])([H])[H])c([H])c([H])c2C1([H])[H]

>  <smiles>  (39) 
[H]c1c([H])c([H])c2c(c1[H])C([H])([H])C([H])([H])C([H])([H])C2([H])N([H])C(=O)C1([H])N(C(=O)C([H])(N([H])C(=O)C([H])(N([H])C([H])([H])[H])C([H])([H])[H])C(C([H])([H])[H])(C([H])([H])[H])C([H])([H])[H])C([H])([H])c2c([H])c(OC([H])([H])C([H])(C([H])([H])[H])C([H])([H])C([H])([H])n3c([H])c(C([H])([H])[H])[n+]([H])c3N(C(=O)N3C([H])([H])C([H])([H])C([H])([H])C([H])(n4nc(-c5c([H])c([H])c(Oc6c([H])c([H])c(F)c([H])c6F)c([H])c5[H])c(C(=O)N([H])[H])c4N([H])[H])C3([H])[H])C([H])([H])[H])c([H])c([H])c2C1([H])[H]

$$$$
40:0:0
     RDKit          3D

 95103  0  0  1  0  0  0  0  0999 V2000
  -27.9630  -24.0010   21.9270 C   0  0  0  0  0  3  0  0  0  0  0  0
  -30.5230  -24.9870   21.7810 C   0  0  0  0  0  3  0  0  0  0  0  0
  -28.9610  -23.2170   21.3170 C   0  0  0  0  0  0  0  0  0  0  0  0
  -30.2910  -23.6900   21.2560 C   0  0  0  0  0  0  0  0  0  0  0  0
  -28.2880  -25.2600   22.4630 C   0  0  0  0  0  0  0  0  0  0  0  0
  -28.6080  -21.8550   20.7470 C   0  0  0  0  0  1  0  0  0  0  0  0
  -29.5530  -25.7550   22.3590 N   0  0  0  0  0  0  0  0  0  0  0  0
  -27.4070  -25.8390   24.7880 C   0  0  0  0  0  1  0  0  0  0  0  0
  -27.2200  -26.0390   23.2790 C   0  0  0  0  0  3  0  0  0  0  0  0
  -27.1420  -27.4540   23.0270 O   0  0  0  0  0  0  0  0  0  0  0  0
  -21.7480  -26.2840   18.4350 C   0  0  0  0  0  0  0  0  0  0  0  0
  -26.4170  -27.8370   21.9160 C   0  0  0  0  0  0  0  0  0  0  0  0
  -23.3940  -28.0120   17.7880 C   0  0  0  0  0  3  0  0  0  0  0  0
  -25.0250  -28.7290   19.6170 C   0  0  0  0  0  0  0  0  0  0  0  0
  -22.9470  -27.4980   20.2560 C   0  0  0  0  0  2  0  0  0  0  0  0
  -24.3840  -27.8930   20.5400 C   0  0  0  0  0  0  0  0  0  0  0  0
  -25.0740  -27.4420   21.6930 C   0  0  0  0  0  3  0  0  0  0  0  0
  -27.0390  -28.6920   20.9860 C   0  0  0  0  0  3  0  0  0  0  0  0
  -26.3550  -29.1320   19.8360 C   0  0  0  0  0  3  0  0  0  0  0  0
  -24.2260  -29.1670   18.4090 C   0  0  0  0  0  2  0  0  0  0  0  0
  -22.6730  -27.2070   18.8260 N   0  0  0  0  0  0  0  0  0  0  0  0
  -21.4650  -26.1270   17.2390 O   0  0  0  0  0  0  0  0  0  0  0  0
  -24.3220  -27.1610   16.8900 C   0  0  0  0  0  0  0  0  0  0  0  0
  -24.6840  -27.7050   15.7150 N   0  0  0  0  0  0  0  0  0  0  0  0
  -24.7200  -26.0540   17.2620 O   0  0  0  0  0  0  0  0  0  0  0  0
  -24.3090  -28.6120   15.4790 H   0  0  0  0  0  0  0  0  0  0  0  0
  -26.2990  -28.2550   12.5300 C   0  0  0  0  0  0  0  0  0  0  0  0
  -25.5800  -27.1020   14.7290 C   0  0  0  0  0  3  0  0  0  0  0  0
  -27.0580  -27.2380   15.1650 C   0  0  0  0  0  2  0  0  0  0  0  0
  -27.7400  -28.4860   14.5980 C   0  0  0  0  0  2  0  0  0  0  0  0
  -27.7040  -28.4710   13.0670 C   0  0  0  0  0  2  0  0  0  0  0  0
  -25.2980  -27.6260   13.3160 C   0  0  0  0  0  0  0  0  0  0  0  0
  -23.9980  -27.4820   12.7830 C   0  0  0  0  0  3  0  0  0  0  0  0
  -23.6940  -27.9500   11.4910 C   0  0  0  0  0  3  0  0  0  0  0  0
  -24.6940  -28.5560   10.7100 C   0  0  0  0  0  3  0  0  0  0  0  0
  -25.9930  -28.7050   11.2290 C   0  0  0  0  0  3  0  0  0  0  0  0
  -20.9850  -25.4000   19.4720 C   0  0  0  0  0  3  0  0  0  0  0  0
  -19.6230  -25.1980   18.9630 N   0  0  0  0  0  0  0  0  0  0  0  0
  -18.5420  -25.8570   19.4010 C   0  0  0  0  0  0  0  0  0  0  0  0
  -18.5810  -26.6580   20.3390 O   0  0  0  0  0  0  0  0  0  0  0  0
  -19.5240  -24.5970   18.1580 H   0  0  0  0  0  0  0  0  0  0  0  0
  -16.9010  -26.7260   17.7070 C   0  0  0  0  0  1  0  0  0  0  0  0
  -17.2050  -25.5830   18.6860 C   0  0  0  0  0  3  0  0  0  0  0  0
  -16.1500  -24.1820   20.4060 C   0  0  0  0  0  1  0  0  0  0  0  0
  -16.0670  -25.4080   19.6150 N   0  0  0  0  0  0  0  0  0  0  0  0
  -15.1860  -25.3980   19.1080 H   0  0  0  0  0  0  0  0  0  0  0  0
  -21.6900  -24.0160   19.7470 C   0  0  1  0  0  0  0  0  0  0  0  0
  -22.0500  -23.2360   18.4610 C   0  0  0  0  0  1  0  0  0  0  0  0
  -22.9920  -24.2180   20.5570 C   0  0  0  0  0  1  0  0  0  0  0  0
  -20.7680  -23.1200   20.6070 C   0  0  0  0  0  1  0  0  0  0  0  0
  -31.2250  -22.8260   20.6950 O   0  0  0  0  0  0  0  0  0  0  0  0
  -32.6580  -22.9960   20.7280 C   0  0  0  0  0  2  0  0  0  0  0  0
  -32.6890  -22.5370   18.2770 C   0  0  0  0  0  1  0  0  0  0  0  0
  -32.6820  -20.6120   19.8260 C   0  0  0  0  0  1  0  0  0  0  0  0
  -33.2570  -22.0330   19.6250 C   0  0  2  0  0  0  0  0  0  0  0  0
  -34.8450  -22.0290   19.4430 C   0  0  0  0  0  2  0  0  0  0  0  0
  -35.2400  -20.9070   21.6620 C   0  0  0  0  0  1  0  0  0  0  0  0
  -36.0220  -19.6700   19.6500 C   0  0  0  0  0  1  0  0  0  0  0  0
  -35.8470  -21.0960   20.2430 C   0  0  1  0  0  0  0  0  0  0  0  0
  -37.2860  -21.7590   20.4080 C   0  0  0  0  0  0  0  0  0  0  0  0
  -39.5060  -22.5860   19.6350 C   0  0  0  0  0  2  0  0  0  0  0  0
  -39.3920  -23.9710   18.9670 C   0  0  0  0  0  2  0  0  0  0  0  0
  -39.0930  -23.8190   17.4650 C   0  0  0  0  0  2  0  0  0  0  0  0
  -37.9220  -22.8410   17.1980 C   0  0  0  0  0  3  0  0  0  0  0  0
  -38.0890  -21.5270   17.9930 C   0  0  0  0  0  2  0  0  0  0  0  0
  -38.2350  -21.8540   19.4190 N   0  0  0  0  0  0  0  0  0  0  0  0
  -37.5530  -22.2100   21.5270 O   0  0  0  0  0  0  0  0  0  0  0  0
  -36.5730  -22.4700   15.0400 C   0  0  0  0  0  0  0  0  0  0  0  0
  -36.9530  -22.3020   13.7370 C   0  0  0  0  0  0  0  0  0  0  0  0
  -38.3810  -22.3410   13.7380 C   0  0  0  0  0  0  0  0  0  0  0  0
  -37.7450  -22.5870   15.7710 N   0  0  0  0  0  0  0  0  0  0  0  0
  -38.8400  -22.4540   14.9790 N   0  0  0  0  0  0  0  0  0  0  0  0
  -39.3340  -22.3410   12.6220 C   0  0  0  0  0  0  0  0  0  0  0  0
  -40.4150  -21.4340   12.5760 C   0  0  0  0  0  3  0  0  0  0  0  0
  -41.3080  -21.4410   11.4830 C   0  0  0  0  0  3  0  0  0  0  0  0
  -41.1230  -22.3580   10.4220 C   0  0  0  0  0  0  0  0  0  0  0  0
  -40.0580  -23.2740   10.4840 C   0  0  0  0  0  3  0  0  0  0  0  0
  -39.1740  -23.2690   11.5750 C   0  0  0  0  0  3  0  0  0  0  0  0
  -41.9550  -22.4540    9.3320 O   0  0  0  0  0  0  0  0  0  0  0  0
  -42.7170  -21.3930    8.9140 C   0  0  0  0  0  0  0  0  0  0  0  0
  -42.1390  -20.1510    8.5670 C   0  0  0  0  0  3  0  0  0  0  0  0
  -42.9520  -19.1100    8.0750 C   0  0  0  0  0  3  0  0  0  0  0  0
  -44.3370  -19.3100    7.9200 C   0  0  0  0  0  0  0  0  0  0  0  0
  -44.9130  -20.5470    8.2590 C   0  0  0  0  0  3  0  0  0  0  0  0
  -44.1040  -21.5870    8.7510 C   0  0  0  0  0  0  0  0  0  0  0  0
  -44.6600  -22.7840    9.0570 F   0  0  0  0  0  0  0  0  0  0  0  0
  -45.1160  -18.3130    7.4400 F   0  0  0  0  0  0  0  0  0  0  0  0
  -36.0430  -22.2130   12.5470 C   0  0  0  0  0  0  0  0  0  0  0  0
  -36.4630  -21.5000   11.5060 N   0  0  0  0  0  0  0  0  0  0  0  0
  -34.9300  -22.7370   12.5500 O   0  0  0  0  0  0  0  0  0  0  0  0
  -37.3680  -21.0520   11.5120 H   0  0  0  0  0  0  0  0  0  0  0  0
  -35.8710  -21.3990   10.6950 H   0  0  0  0  0  0  0  0  0  0  0  0
  -35.3320  -22.5610   15.6570 N   0  0  0  0  0  0  0  0  0  0  0  0
  -34.4670  -22.5350   15.1300 H   0  0  0  0  0  0  0  0  0  0  0  0
  -35.1930  -22.7310   16.6440 H   0  0  0  0  0  0  0  0  0  0  0  0
  1  5  1  0
  2  7  1  0
  3  1  2  0
  4  3  1  0
  4  2  2  0
  5  9  1  0
  6  3  1  0
  7  5  2  0
  9  8  1  0
 10  9  1  0
 11 21  1  0
 12 10  1  0
 13 23  1  0
 13 20  1  0
 13 21  1  0
 14 19  2  0
 14 16  1  0
 15 16  1  0
 16 17  2  0
 17 12  1  0
 18 12  2  0
 19 18  1  0
 20 14  1  0
 21 15  1  0
 22 11  2  0
 23 25  2  0
 24 23  1  0
 26 24  1  0
 27 31  1  0
 27 32  1  0
 28 29  1  0
 28 24  1  0
 30 29  1  0
 31 30  1  0
 32 28  1  0
 33 32  2  0
 34 33  1  0
 35 36  1  0
 35 34  2  0
 36 27  2  0
 37 11  1  0
 37 47  1  0
 38 39  1  0
 38 37  1  0
 39 40  2  0
 41 38  1  0
 43 42  1  0
 43 39  1  0
 43 45  1  0
 45 44  1  0
 46 45  1  0
 47 49  1  1
 47 50  1  0
 48 47  1  0
 51 52  1  0
 51  4  1  0
 55 53  1  6
 55 54  1  0
 55 52  1  0
 56 55  1  0
 56 59  1  0
 59 58  1  6
 59 60  1  0
 59 57  1  0
 60 67  2  0
 62 61  1  0
 63 62  1  0
 64 71  1  0
 64 63  1  0
 64 65  1  0
 65 66  1  0
 66 61  1  0
 66 60  1  0
 68 93  1  0
 68 71  1  0
 69 70  1  0
 69 68  2  0
 70 72  2  0
 72 71  1  0
 73 70  1  0
 74 73  1  0
 75 74  2  0
 76 77  2  0
 76 75  1  0
 77 78  1  0
 78 73  2  0
 79 76  1  0
 80 79  1  0
 81 80  2  0
 82 81  1  0
 83 82  2  0
 83 84  1  0
 84 85  2  0
 85 80  1  0
 85 86  1  0
 87 83  1  0
 88 90  2  0
 88 69  1  0
 89 91  1  0
 89 88  1  0
 92 89  1  0
 93 95  1  0
 94 93  1  0
M  ISO  4   9 101  10 101  59 100  60 100
M  END
>  <TORSDO>  (40) 
F 22

>  <SCORE>  (40) 
-3.476

>  <name>  (40) 
40

>  <ligand_id>  (40) 
40

>  <original_smiles>  (40) 
[H]c1nc(C([H])(Oc2c([H])c([H])c3c(c2[H])C([H])([H])N(C(=O)C([H])(N([H])C(=O)C([H])(N([H])C([H])([H])[H])C([H])([H])[H])C(C([H])([H])[H])(C([H])([H])[H])C([H])([H])[H])C([H])(C(=O)N([H])C2([H])c4c([H])c([H])c([H])c([H])c4C([H])([H])C([H])([H])C2([H])[H])C3([H])[H])C([H])([H])[H])c([H])c(C([H])([H])[H])c1OC([H])([H])C(C([H])([H])[H])(C([H])([H])[H])C([H])([H])C(C(=O)N1C([H])([H])C([H])([H])C([H])([H])C([H])(n2nc(-c3c([H])c([H])c(Oc4c([H])c([H])c(F)c([H])c4F)c([H])c3[H])c(C(=O)N([H])[H])c2N([H])[H])C1([H])[H])(C([H])([H])[H])C([H])([H])[H]

>  <smiles>  (40) 
[H]c1nc(C([H])(Oc2c([H])c([H])c3c(c2[H])C([H])([H])N(C(=O)C([H])(N([H])C(=O)C([H])(N([H])C([H])([H])[H])C([H])([H])[H])C(C([H])([H])[H])(C([H])([H])[H])C([H])([H])[H])C([H])(C(=O)N([H])C2([H])c4c([H])c([H])c([H])c([H])c4C([H])([H])C([H])([H])C2([H])[H])C3([H])[H])C([H])([H])[H])c([H])c(C([H])([H])[H])c1OC([H])([H])C(C([H])([H])[H])(C([H])([H])[H])C([H])([H])C(C(=O)N1C([H])([H])C([H])([H])C([H])([H])C([H])(n2nc(-c3c([H])c([H])c(Oc4c([H])c([H])c(F)c([H])c4F)c([H])c3[H])c(C(=O)N([H])[H])c2N([H])[H])C1([H])[H])(C([H])([H])[H])C([H])([H])[H]

$$$$
41:0:0
     RDKit          3D

 93101  0  0  1  0  0  0  0  0999 V2000
  -27.6600  -20.4590   20.0630 C   0  0  0  0  0  3  0  0  0  0  0  0
  -27.3900  -21.8810   20.0310 C   0  0  0  0  0  0  0  0  0  0  0  0
  -28.9180  -20.0910   19.6570 C   0  0  0  0  0  0  0  0  0  0  0  0
  -28.4600  -22.6640   19.6250 C   0  0  0  0  0  0  0  0  0  0  0  0
  -26.0240  -22.4190   20.3430 C   0  0  0  0  0  1  0  0  0  0  0  0
  -29.8500  -21.5830   19.3960 S   0  0  0  0  0  0  0  0  0  0  0  0
  -29.4300  -18.6920   19.2120 C   0  0  0  0  0  2  0  0  0  0  0  0
  -29.4780  -17.6540   21.6270 C   0  0  0  0  0  1  0  0  0  0  0  0
  -29.6210  -17.3640   20.1240 C   0  0  0  0  0  3  0  0  0  0  0  0
  -32.1190  -17.3440   20.3040 C   0  0  0  0  0  1  0  0  0  0  0  0
  -31.0510  -16.4530   18.1980 C   0  0  0  0  0  1  0  0  0  0  0  0
  -30.9260  -16.4950   19.7490 C   0  0  2  0  0  0  0  0  0  0  0  0
  -31.2460  -14.9670   20.1880 C   0  0  0  0  0  0  0  0  0  0  0  0
  -30.8150  -12.7400   19.2240 C   0  0  0  0  0  2  0  0  0  0  0  0
  -29.8890  -12.8270   17.9990 C   0  0  0  0  0  2  0  0  0  0  0  0
  -28.4230  -12.6970   18.4450 C   0  0  0  0  0  2  0  0  0  0  0  0
  -28.0730  -13.6090   19.6530 C   0  0  0  0  0  3  0  0  0  0  0  0
  -29.1510  -13.5970   20.7570 C   0  0  0  0  0  2  0  0  0  0  0  0
  -30.4420  -13.8570   20.1190 N   0  0  0  0  0  0  0  0  0  0  0  0
  -32.4570  -14.7530   20.1730 O   0  0  0  0  0  0  0  0  0  0  0  0
  -25.7230  -14.2010   20.4820 C   0  0  0  0  0  0  0  0  0  0  0  0
  -24.6470  -13.4320   20.8260 C   0  0  0  0  0  0  0  0  0  0  0  0
  -25.0800  -12.0730   20.7250 C   0  0  0  0  0  0  0  0  0  0  0  0
  -26.7430  -13.3150   20.1790 N   0  0  0  0  0  0  0  0  0  0  0  0
  -26.3670  -12.0270   20.3940 N   0  0  0  0  0  0  0  0  0  0  0  0
  -24.3260  -10.8200   20.8630 C   0  0  0  0  0  0  0  0  0  0  0  0
  -24.7010   -9.8310   21.8010 C   0  0  0  0  0  3  0  0  0  0  0  0
  -23.9470   -8.6440   21.9290 C   0  0  0  0  0  3  0  0  0  0  0  0
  -22.8060   -8.4370   21.1180 C   0  0  0  0  0  0  0  0  0  0  0  0
  -22.4510   -9.4120   20.1710 C   0  0  0  0  0  3  0  0  0  0  0  0
  -23.2050  -10.5910   20.0410 C   0  0  0  0  0  3  0  0  0  0  0  0
  -22.0290   -7.3040   21.1560 O   0  0  0  0  0  0  0  0  0  0  0  0
  -21.8490   -6.5900   22.3140 C   0  0  0  0  0  0  0  0  0  0  0  0
  -21.2700   -7.1710   23.4630 C   0  0  0  0  0  3  0  0  0  0  0  0
  -21.0400   -6.3850   24.6100 C   0  0  0  0  0  3  0  0  0  0  0  0
  -21.3810   -5.0190   24.6070 C   0  0  0  0  0  0  0  0  0  0  0  0
  -21.9540   -4.4380   23.4620 C   0  0  0  0  0  3  0  0  0  0  0  0
  -22.1860   -5.2210   22.3180 C   0  0  0  0  0  0  0  0  0  0  0  0
  -22.7180   -4.6520   21.2100 F   0  0  0  0  0  0  0  0  0  0  0  0
  -21.1550   -4.2610   25.7060 F   0  0  0  0  0  0  0  0  0  0  0  0
  -23.2650  -13.9250   21.1380 C   0  0  0  0  0  0  0  0  0  0  0  0
  -22.5400  -13.2180   21.9970 N   0  0  0  0  0  0  0  0  0  0  0  0
  -22.8360  -14.9730   20.6540 O   0  0  0  0  0  0  0  0  0  0  0  0
  -22.9000  -12.3690   22.4080 H   0  0  0  0  0  0  0  0  0  0  0  0
  -21.6120  -13.5300   22.2460 H   0  0  0  0  0  0  0  0  0  0  0  0
  -25.9150  -15.5750   20.3730 N   0  0  0  0  0  0  0  0  0  0  0  0
  -25.1710  -16.2410   20.5460 H   0  0  0  0  0  0  0  0  0  0  0  0
  -26.7750  -16.0140   20.0760 H   0  0  0  0  0  0  0  0  0  0  0  0
  -28.4710  -24.1750   19.2080 C   0  0  0  0  0  2  0  0  0  0  0  0
  -28.8110  -25.3910   20.1930 C   0  0  0  0  0  3  0  0  0  0  0  0
  -28.8780  -24.3640   22.5780 C   0  0  0  0  0  1  0  0  0  0  0  0
  -28.1690  -25.3110   21.5980 C   0  0  0  0  0  2  0  0  0  0  0  0
  -28.7280  -26.7880   19.6780 O   0  0  0  0  0  0  0  0  0  0  0  0
  -24.6250  -31.6670   23.0750 C   0  0  0  0  0  0  0  0  0  0  0  0
  -27.5400  -27.5270   19.7200 C   0  0  0  0  0  0  0  0  0  0  0  0
  -23.5260  -30.3150   21.3260 C   0  0  0  0  0  3  0  0  0  0  0  0
  -25.0800  -28.9690   19.8060 C   0  0  0  0  0  0  0  0  0  0  0  0
  -26.0380  -30.8110   21.1940 C   0  0  0  0  0  2  0  0  0  0  0  0
  -26.2100  -29.4920   20.4480 C   0  0  0  0  0  0  0  0  0  0  0  0
  -27.4450  -28.7830   20.3950 C   0  0  0  0  0  3  0  0  0  0  0  0
  -26.3900  -27.0530   19.0610 C   0  0  0  0  0  3  0  0  0  0  0  0
  -25.1700  -27.7550   19.1050 C   0  0  0  0  0  3  0  0  0  0  0  0
  -23.7900  -29.7570   19.9030 C   0  0  0  0  0  2  0  0  0  0  0  0
  -24.7460  -30.9470   21.9220 N   0  0  0  0  0  0  0  0  0  0  0  0
  -23.5240  -31.8360   23.6150 O   0  0  0  0  0  0  0  0  0  0  0  0
  -22.9260  -29.1920   22.2040 C   0  0  0  0  0  0  0  0  0  0  0  0
  -21.6100  -28.9570   22.0710 N   0  0  0  0  0  0  0  0  0  0  0  0
  -23.6420  -28.5370   22.9650 O   0  0  0  0  0  0  0  0  0  0  0  0
  -21.0920  -29.5440   21.4320 H   0  0  0  0  0  0  0  0  0  0  0  0
  -18.3030  -27.5430   22.4750 C   0  0  0  0  0  0  0  0  0  0  0  0
  -20.8450  -27.9190   22.7620 C   0  0  0  0  0  3  0  0  0  0  0  0
  -21.0220  -26.5450   22.0750 C   0  0  0  0  0  2  0  0  0  0  0  0
  -19.9350  -26.2430   21.0380 C   0  0  0  0  0  2  0  0  0  0  0  0
  -18.5500  -26.2610   21.6940 C   0  0  0  0  0  2  0  0  0  0  0  0
  -19.3820  -28.3290   22.9610 C   0  0  0  0  0  0  0  0  0  0  0  0
  -19.1000  -29.5270   23.6530 C   0  0  0  0  0  3  0  0  0  0  0  0
  -17.7710  -29.9430   23.8580 C   0  0  0  0  0  3  0  0  0  0  0  0
  -16.7060  -29.1540   23.3890 C   0  0  0  0  0  3  0  0  0  0  0  0
  -16.9730  -27.9540   22.7030 C   0  0  0  0  0  3  0  0  0  0  0  0
  -25.8610  -32.3320   23.7580 C   0  0  0  0  0  3  0  0  0  0  0  0
  -25.4800  -33.7040   24.1220 N   0  0  0  0  0  0  0  0  0  0  0  0
  -25.7780  -34.7930   23.4040 C   0  0  0  0  0  0  0  0  0  0  0  0
  -26.4740  -34.7550   22.3850 O   0  0  0  0  0  0  0  0  0  0  0  0
  -24.8680  -33.8060   24.9190 H   0  0  0  0  0  0  0  0  0  0  0  0
  -23.9710  -36.5110   23.0780 C   0  0  0  0  0  1  0  0  0  0  0  0
  -25.2180  -36.1410   23.8960 C   0  0  0  0  0  3  0  0  0  0  0  0
  -27.2870  -37.1090   24.7940 C   0  0  0  0  0  1  0  0  0  0  0  0
  -26.1970  -37.2460   23.8310 N   0  0  0  0  0  0  0  0  0  0  0  0
  -25.7400  -38.1390   23.9930 H   0  0  0  0  0  0  0  0  0  0  0  0
  -26.3740  -31.5440   25.0260 C   0  0  1  0  0  0  0  0  0  0  0  0
  -25.2650  -31.2360   26.0580 C   0  0  0  0  0  1  0  0  0  0  0  0
  -27.0200  -30.2020   24.6130 C   0  0  0  0  0  1  0  0  0  0  0  0
  -27.4770  -32.3620   25.7360 C   0  0  0  0  0  1  0  0  0  0  0  0
  2  1  1  0
  2  5  1  0
  3  1  2  0
  4  2  2  0
  6  4  1  0
  6  3  1  0
  7  3  1  0
  7  9  1  0
  9  8  1  0
 12 11  1  6
 12  9  1  0
 12 13  1  0
 12 10  1  0
 14 19  1  0
 15 16  1  0
 15 14  1  0
 17 16  1  0
 17 24  1  0
 17 18  1  0
 19 13  1  0
 19 18  1  0
 20 13  2  0
 21 22  2  0
 22 41  1  0
 23 22  1  0
 23 26  1  0
 24 25  1  0
 24 21  1  0
 25 23  2  0
 26 27  1  0
 27 28  2  0
 29 32  1  0
 29 28  1  0
 30 29  2  0
 31 30  1  0
 31 26  2  0
 32 33  1  0
 33 38  2  0
 33 34  1  0
 34 35  2  0
 36 35  1  0
 36 40  1  0
 37 36  2  0
 38 37  1  0
 39 38  1  0
 41 42  1  0
 42 45  1  0
 42 44  1  0
 43 41  2  0
 46 21  1  0
 46 47  1  0
 48 46  1  0
 49  4  1  0
 50 49  1  0
 50 52  1  0
 52 51  1  0
 53 55  1  0
 53 50  1  0
 54 65  2  0
 55 60  1  0
 56 64  1  0
 56 66  1  0
 57 63  1  0
 57 59  1  0
 58 64  1  0
 59 58  1  0
 60 59  2  0
 61 62  1  0
 61 55  2  0
 62 57  2  0
 63 56  1  0
 64 54  1  0
 66 68  2  0
 67 66  1  0
 69 67  1  0
 70 79  2  0
 70 75  1  0
 71 67  1  0
 71 75  1  0
 72 71  1  0
 73 74  1  0
 73 72  1  0
 74 70  1  0
 75 76  2  0
 76 77  1  0
 78 77  2  0
 79 78  1  0
 80 54  1  0
 80 81  1  0
 80 90  1  0
 81 84  1  0
 82 86  1  0
 82 81  1  0
 83 82  2  0
 86 85  1  0
 88 86  1  0
 88 89  1  0
 88 87  1  0
 90 93  1  1
 90 91  1  0
 92 90  1  0
M  ISO  4  12 100  13 100  50 101  53 101
M  END
>  <TORSDO>  (41) 
F 22

>  <SCORE>  (41) 
-11.222

>  <name>  (41) 
41

>  <ligand_id>  (41) 
41

>  <original_smiles>  (41) 
[H]c1c([H])c([H])c2c(c1[H])C([H])([H])C([H])([H])C([H])([H])C2([H])N([H])C(=O)C1([H])N(C(=O)C([H])(N([H])C(=O)C([H])(N([H])C([H])([H])[H])C([H])([H])[H])C(C([H])([H])[H])(C([H])([H])[H])C([H])([H])[H])C([H])([H])c2c([H])c(OC([H])(C([H])([H])c3sc(C([H])([H])C([H])(C([H])([H])[H])C(C(=O)N4C([H])([H])C([H])([H])C([H])([H])C([H])(n5nc(-c6c([H])c([H])c(Oc7c([H])c([H])c(F)c([H])c7F)c([H])c6[H])c(C(=O)N([H])[H])c5N([H])[H])C4([H])[H])(C([H])([H])[H])C([H])([H])[H])c([H])c3C([H])([H])[H])C([H])([H])C([H])([H])[H])c([H])c([H])c2C1([H])[H]

>  <smiles>  (41) 
[H]c1c([H])c([H])c2c(c1[H])C([H])([H])C([H])([H])C([H])([H])C2([H])N([H])C(=O)C1([H])N(C(=O)C([H])(N([H])C(=O)C([H])(N([H])C([H])([H])[H])C([H])([H])[H])C(C([H])([H])[H])(C([H])([H])[H])C([H])([H])[H])C([H])([H])c2c([H])c(OC([H])(C([H])([H])c3sc(C([H])([H])C([H])(C([H])([H])[H])C(C(=O)N4C([H])([H])C([H])([H])C([H])([H])C([H])(n5nc(-c6c([H])c([H])c(Oc7c([H])c([H])c(F)c([H])c7F)c([H])c6[H])c(C(=O)N([H])[H])c5N([H])[H])C4([H])[H])(C([H])([H])[H])C([H])([H])[H])c([H])c3C([H])([H])[H])C([H])([H])C([H])([H])[H])c([H])c([H])c2C1([H])[H]

$$$$
42:0:0
     RDKit          3D

 92100  0  0  1  0  0  0  0  0999 V2000
  -29.0190  -20.4940   21.4550 C   0  0  0  0  0  2  0  0  0  0  0  0
  -29.7530  -21.7980   21.0320 C   0  0  0  0  0  2  0  0  0  0  0  0
  -28.7520  -22.9400   20.7120 C   0  0  0  0  0  2  0  0  0  0  0  0
  -29.3000  -24.3910   20.5770 C   0  0  0  0  0  2  0  0  0  0  0  0
  -28.2010  -25.3330   20.0160 C   0  0  0  0  0  2  0  0  0  0  0  0
  -28.3980  -26.7610   20.1470 O   0  0  0  0  0  0  0  0  0  0  0  0
  -24.6010  -31.9680   23.2280 C   0  0  0  0  0  0  0  0  0  0  0  0
  -27.2370  -27.5250   20.1100 C   0  0  0  0  0  0  0  0  0  0  0  0
  -23.3870  -30.5540   21.6070 C   0  0  0  0  0  3  0  0  0  0  0  0
  -24.8330  -29.0370   20.1550 C   0  0  0  0  0  0  0  0  0  0  0  0
  -25.9090  -30.9290   21.3740 C   0  0  0  0  0  2  0  0  0  0  0  0
  -25.9980  -29.5600   20.7310 C   0  0  0  0  0  0  0  0  0  0  0  0
  -27.2020  -28.8120   20.7050 C   0  0  0  0  0  3  0  0  0  0  0  0
  -26.0470  -27.0400   19.5090 C   0  0  0  0  0  3  0  0  0  0  0  0
  -24.8520  -27.7770   19.5410 C   0  0  0  0  0  3  0  0  0  0  0  0
  -23.5820  -29.8830   20.2220 C   0  0  0  0  0  2  0  0  0  0  0  0
  -24.6520  -31.1640   22.1280 N   0  0  0  0  0  0  0  0  0  0  0  0
  -23.5240  -32.2330   23.7810 O   0  0  0  0  0  0  0  0  0  0  0  0
  -22.7590  -29.5250   22.5750 C   0  0  0  0  0  0  0  0  0  0  0  0
  -21.4360  -29.3190   22.4560 N   0  0  0  0  0  0  0  0  0  0  0  0
  -23.4570  -28.9150   23.3890 O   0  0  0  0  0  0  0  0  0  0  0  0
  -20.9340  -29.8630   21.7680 H   0  0  0  0  0  0  0  0  0  0  0  0
  -18.0860  -28.0680   22.9800 C   0  0  0  0  0  0  0  0  0  0  0  0
  -20.6400  -28.3720   23.2340 C   0  0  0  0  0  3  0  0  0  0  0  0
  -20.7640  -26.9400   22.6640 C   0  0  0  0  0  2  0  0  0  0  0  0
  -19.6620  -26.5920   21.6600 C   0  0  0  0  0  2  0  0  0  0  0  0
  -18.2810  -26.7170   22.3130 C   0  0  0  0  0  2  0  0  0  0  0  0
  -19.1940  -28.8510   23.3970 C   0  0  0  0  0  0  0  0  0  0  0  0
  -18.9580  -30.1130   23.9850 C   0  0  0  0  0  3  0  0  0  0  0  0
  -17.6470  -30.5950   24.1570 C   0  0  0  0  0  3  0  0  0  0  0  0
  -16.5530  -29.8100   23.7540 C   0  0  0  0  0  3  0  0  0  0  0  0
  -16.7730  -28.5480   23.1730 C   0  0  0  0  0  3  0  0  0  0  0  0
  -25.8900  -32.6120   23.8280 C   0  0  0  0  0  3  0  0  0  0  0  0
  -25.5740  -34.0090   24.1530 N   0  0  0  0  0  0  0  0  0  0  0  0
  -25.8950  -35.0590   23.3860 C   0  0  0  0  0  0  0  0  0  0  0  0
  -26.5620  -34.9540   22.3510 O   0  0  0  0  0  0  0  0  0  0  0  0
  -24.9860  -34.1660   24.9580 H   0  0  0  0  0  0  0  0  0  0  0  0
  -24.1540  -36.8370   23.0270 C   0  0  0  0  0  1  0  0  0  0  0  0
  -25.4010  -36.4470   23.8370 C   0  0  0  0  0  3  0  0  0  0  0  0
  -27.5350  -37.3460   24.6530 C   0  0  0  0  0  1  0  0  0  0  0  0
  -26.4280  -37.5050   23.7130 N   0  0  0  0  0  0  0  0  0  0  0  0
  -26.0180  -38.4240   23.8600 H   0  0  0  0  0  0  0  0  0  0  0  0
  -26.4310  -31.8510   25.1000 C   0  0  1  0  0  0  0  0  0  0  0  0
  -25.3500  -31.5890   26.1760 C   0  0  0  0  0  1  0  0  0  0  0  0
  -27.0400  -30.4870   24.7010 C   0  0  0  0  0  1  0  0  0  0  0  0
  -27.5710  -32.6680   25.7540 C   0  0  0  0  0  1  0  0  0  0  0  0
  -29.8150  -19.1530   21.4050 C   0  0  0  0  0  2  0  0  0  0  0  0
  -29.6330  -19.0970   18.8850 C   0  0  0  0  0  3  0  0  0  0  0  0
  -29.6030  -18.1430   17.9060 C   0  0  0  0  0  0  0  0  0  0  0  0
  -29.9560  -17.1190   19.8810 C   0  0  0  0  0  3  0  0  0  0  0  0
  -29.3800  -18.2430   16.4320 C   0  0  0  0  0  1  0  0  0  0  0  0
  -29.7980  -18.4570   20.0920 N   0  0  0  0  0  0  0  0  0  0  0  0
  -29.8100  -16.9560   18.5530 N   0  0  0  0  0  0  0  0  0  0  0  0
  -29.8740  -16.0650   18.0770 H   0  0  0  0  0  0  0  0  0  0  0  0
  -31.0740  -16.2540   22.0620 C   0  0  0  0  0  1  0  0  0  0  0  0
  -30.1540  -15.9410   20.8570 C   0  0  0  0  0  3  0  0  0  0  0  0
  -30.7220  -14.6810   20.1250 C   0  0  0  0  0  0  0  0  0  0  0  0
  -30.3570  -12.5500   18.9220 C   0  0  0  0  0  2  0  0  0  0  0  0
  -29.3640  -12.7640   17.7590 C   0  0  0  0  0  2  0  0  0  0  0  0
  -27.9120  -12.6140   18.2500 C   0  0  0  0  0  2  0  0  0  0  0  0
  -27.6240  -13.4150   19.5490 C   0  0  0  0  0  3  0  0  0  0  0  0
  -28.7310  -13.1790   20.6000 C   0  0  0  0  0  2  0  0  0  0  0  0
  -30.0240  -13.5130   19.9870 N   0  0  0  0  0  0  0  0  0  0  0  0
  -31.8080  -14.8360   19.5610 O   0  0  0  0  0  0  0  0  0  0  0  0
  -25.2490  -13.9790   20.3590 C   0  0  0  0  0  0  0  0  0  0  0  0
  -24.2070  -13.1880   20.7580 C   0  0  0  0  0  0  0  0  0  0  0  0
  -24.6830  -11.8430   20.6900 C   0  0  0  0  0  0  0  0  0  0  0  0
  -26.2960  -13.1150   20.0780 N   0  0  0  0  0  0  0  0  0  0  0  0
  -25.9610  -11.8240   20.3340 N   0  0  0  0  0  0  0  0  0  0  0  0
  -23.9790  -10.5690   20.8910 C   0  0  0  0  0  0  0  0  0  0  0  0
  -24.4270   -9.6190   21.8350 C   0  0  0  0  0  3  0  0  0  0  0  0
  -23.7230   -8.4100   22.0220 C   0  0  0  0  0  3  0  0  0  0  0  0
  -22.5600   -8.1420   21.2650 C   0  0  0  0  0  0  0  0  0  0  0  0
  -22.1310   -9.0800   20.3100 C   0  0  0  0  0  3  0  0  0  0  0  0
  -22.8350  -10.2820   20.1200 C   0  0  0  0  0  3  0  0  0  0  0  0
  -21.8260   -6.9830   21.3610 O   0  0  0  0  0  0  0  0  0  0  0  0
  -21.7460   -6.2790   22.5340 C   0  0  0  0  0  0  0  0  0  0  0  0
  -21.2650   -6.8650   23.7250 C   0  0  0  0  0  3  0  0  0  0  0  0
  -21.1320   -6.0850   24.8920 C   0  0  0  0  0  3  0  0  0  0  0  0
  -21.4720   -4.7190   24.8680 C   0  0  0  0  0  0  0  0  0  0  0  0
  -21.9460   -4.1320   23.6810 C   0  0  0  0  0  3  0  0  0  0  0  0
  -22.0810   -4.9090   22.5180 C   0  0  0  0  0  0  0  0  0  0  0  0
  -22.5160   -4.3340   21.3720 F   0  0  0  0  0  0  0  0  0  0  0  0
  -21.3390   -3.9660   25.9860 F   0  0  0  0  0  0  0  0  0  0  0  0
  -22.8150  -13.6430   21.0930 C   0  0  0  0  0  0  0  0  0  0  0  0
  -22.1320  -12.9240   21.9740 N   0  0  0  0  0  0  0  0  0  0  0  0
  -22.3440  -14.6710   20.6070 O   0  0  0  0  0  0  0  0  0  0  0  0
  -22.5270  -12.0930   22.3900 H   0  0  0  0  0  0  0  0  0  0  0  0
  -21.2000  -13.2110   22.2430 H   0  0  0  0  0  0  0  0  0  0  0  0
  -25.3890  -15.3540   20.1920 N   0  0  0  0  0  0  0  0  0  0  0  0
  -24.6140  -15.9930   20.3400 H   0  0  0  0  0  0  0  0  0  0  0  0
  -26.2120  -15.8120   19.8230 H   0  0  0  0  0  0  0  0  0  0  0  0
  2  1  1  0
  3  2  1  0
  4  3  1  0
  5  6  1  0
  5  4  1  0
  7 18  2  0
  8  6  1  0
  8 13  1  0
  9 17  1  0
  9 19  1  0
 10 16  1  0
 10 12  1  0
 11 17  1  0
 12 11  1  0
 13 12  2  0
 14 15  1  0
 14  8  2  0
 15 10  2  0
 16  9  1  0
 17  7  1  0
 19 21  2  0
 20 19  1  0
 22 20  1  0
 23 32  2  0
 23 28  1  0
 24 20  1  0
 24 28  1  0
 25 24  1  0
 26 27  1  0
 26 25  1  0
 27 23  1  0
 28 29  2  0
 29 30  1  0
 31 30  2  0
 32 31  1  0
 33  7  1  0
 33 34  1  0
 33 43  1  0
 34 37  1  0
 35 39  1  0
 35 34  1  0
 36 35  2  0
 39 38  1  0
 41 39  1  0
 41 42  1  0
 41 40  1  0
 43 46  1  1
 43 44  1  0
 45 43  1  0
 47  1  1  0
 48 52  1  0
 49 53  1  0
 49 48  2  0
 50 52  1  0
 50 56  1  0
 51 49  1  0
 52 47  1  0
 53 50  1  0
 54 53  1  0
 56 55  1  0
 57 56  1  0
 58 63  1  0
 59 60  1  0
 59 58  1  0
 61 60  1  0
 61 68  1  0
 61 62  1  0
 63 57  1  0
 63 62  1  0
 64 57  2  0
 65 66  2  0
 66 85  1  0
 67 66  1  0
 67 70  1  0
 68 69  1  0
 68 65  1  0
 69 67  2  0
 70 71  1  0
 71 72  2  0
 73 76  1  0
 73 72  1  0
 74 73  2  0
 75 74  1  0
 75 70  2  0
 76 77  1  0
 77 78  1  0
 78 79  2  0
 80 79  1  0
 80 84  1  0
 81 80  2  0
 82 77  2  0
 82 81  1  0
 83 82  1  0
 85 86  1  0
 86 89  1  0
 86 88  1  0
 87 85  2  0
 90 91  1  0
 90 65  1  0
 92 90  1  0
M  ISO  4   5 101   6 101  56 100  57 100
M  END
>  <TORSDO>  (42) 
F 23

>  <SCORE>  (42) 
-12.176

>  <name>  (42) 
42

>  <ligand_id>  (42) 
42

>  <original_smiles>  (42) 
[H]c1c([H])c([H])c2c(c1[H])C([H])([H])C([H])([H])C([H])([H])C2([H])N([H])C(=O)C1([H])N(C(=O)C([H])(N([H])C(=O)C([H])(N([H])C([H])([H])[H])C([H])([H])[H])C(C([H])([H])[H])(C([H])([H])[H])C([H])([H])[H])C([H])([H])c2c([H])c(OC([H])([H])C([H])([H])C([H])([H])C([H])([H])C([H])([H])C([H])([H])n3c([H])c(C([H])([H])[H])[n+]([H])c3C([H])(C(=O)N3C([H])([H])C([H])([H])C([H])([H])C([H])(n4nc(-c5c([H])c([H])c(Oc6c([H])c([H])c(F)c([H])c6F)c([H])c5[H])c(C(=O)N([H])[H])c4N([H])[H])C3([H])[H])C([H])([H])[H])c([H])c([H])c2C1([H])[H]

>  <smiles>  (42) 
[H]c1c([H])c([H])c2c(c1[H])C([H])([H])C([H])([H])C([H])([H])C2([H])N([H])C(=O)C1([H])N(C(=O)C([H])(N([H])C(=O)C([H])(N([H])C([H])([H])[H])C([H])([H])[H])C(C([H])([H])[H])(C([H])([H])[H])C([H])([H])[H])C([H])([H])c2c([H])c(OC([H])([H])C([H])([H])C([H])([H])C([H])([H])C([H])([H])C([H])([H])n3c([H])c(C([H])([H])[H])[n+]([H])c3C([H])(C(=O)N3C([H])([H])C([H])([H])C([H])([H])C([H])(n4nc(-c5c([H])c([H])c(Oc6c([H])c([H])c(F)c([H])c6F)c([H])c5[H])c(C(=O)N([H])[H])c4N([H])[H])C3([H])[H])C([H])([H])[H])c([H])c([H])c2C1([H])[H]

$$$$
43:0:0
     RDKit          3D

 91 90  0  0  1  0  0  0  0  0999 V2000
  -25.9960  -14.6700   18.8810 C   0  0  0  0  0 15  0  0  0  0  0  0
  -25.3510  -15.9170   20.4890 C   0  0  0  0  0  1  0  0  0  0  0  0
  -26.5420  -12.5840   19.1010 C   0  0  0  0  0  1  0  0  0  0  0  0
  -24.9560  -14.8670   22.4840 C   0  0  0  0  0  1  0  0  0  0  0  0
  -24.6760  -15.6680   23.7250 C   0  0  0  0  0  1  0  0  0  0  0  0
  -25.8590  -11.4020   21.0280 N   0  0  0  0  0  2  0  0  0  0  0  0
  -25.2060  -12.6970   22.7000 N   0  0  0  0  0 15  0  0  0  0  0  0
  -28.6700  -14.4470   18.4110 C   0  0  0  0  0  1  0  0  0  0  0  0
  -28.5120  -12.4410   17.2030 C   0  0  0  0  0  1  0  0  0  0  0  0
  -28.4010  -12.9130   18.6730 C   0  0  2  0  0  0  0  0  0  0  0  0
  -30.0640  -12.6380   19.5670 C   0  0  0  0  0  0  0  0  0  0  0  0
  -30.6610  -10.3720   19.6640 C   0  0  0  0  0  2  0  0  0  0  0  0
  -29.5650  -10.1360   18.6670 C   0  0  0  0  0  2  0  0  0  0  0  0
  -28.2450  -10.3550   19.4420 C   0  0  0  0  0  2  0  0  0  0  0  0
  -28.1370  -11.4380   20.8450 C   0  0  0  0  0  3  0  0  0  0  0  0
  -29.3910  -11.3260   21.5320 C   0  0  0  0  0  2  0  0  0  0  0  0
  -30.2720  -11.5700   20.3900 N   0  0  0  0  0  0  0  0  0  0  0  0
  -31.1330  -13.2830   19.5780 O   0  0  0  0  0  0  0  0  0  0  0  0
  -26.0520  -13.0290   21.0680 C   0  0  0  0  0  3  0  0  0  0  0  0
  -24.2670  -12.7250   20.6670 C   0  0  0  0  0  0  0  0  0  0  0  0
  -23.9430  -11.5040   20.3100 C   0  0  0  0  0  2  0  0  0  0  0  0
  -26.9440  -12.4710   21.2620 N   0  0  0  0  0  0  0  0  0  0  0  0
  -25.0530  -12.5320   20.6710 N   0  0  0  0  0  0  0  0  0  0  0  0
  -23.3400  -10.0770   20.8820 C   0  0  0  0  0  3  0  0  0  0  0  0
  -23.7640   -9.0160   21.8110 C   0  0  0  0  0  3  0  0  0  0  0  0
  -22.9890   -7.8360   22.1170 C   0  0  0  0  0  3  0  0  0  0  0  0
  -21.7350   -7.6210   21.4940 C   0  0  0  0  0  0  0  0  0  0  0  0
  -21.3350   -8.6000   20.5710 C   0  0  0  0  0  3  0  0  0  0  0  0
  -22.1070   -9.7490   20.2770 C   0  0  0  0  0  3  0  0  0  0  0  0
  -20.8870   -6.5240   21.6120 O   0  0  0  0  0  0  0  0  0  0  0  0
  -20.7070   -5.7690   22.7540 C   0  0  0  0  0  0  0  0  0  0  0  0
  -20.3600   -6.3420   23.9960 C   0  0  0  0  0  3  0  0  0  0  0  0
  -20.1150   -5.5180   25.1180 C   0  0  0  0  0  3  0  0  0  0  0  0
  -20.2080   -4.1170   25.0050 C   0  0  0  0  0  0  0  0  0  0  0  0
  -20.5200   -3.5380   23.7640 C   0  0  0  0  0  3  0  0  0  0  0  0
  -20.7590   -4.3590   22.6450 C   0  0  0  0  0  0  0  0  0  0  0  0
  -21.0240   -3.7790   21.4490 F   0  0  0  0  0  0  0  0  0  0  0  0
  -19.9950   -3.3260   26.0840 F   0  0  0  0  0  0  0  0  0  0  0  0
  -22.7610  -13.2630   21.0590 C   0  0  0  0  0  0  0  0  0  0  0  0
  -22.0750  -12.5800   22.0040 N   0  0  0  0  0  0  0  0  0  0  0  0
  -22.2760  -14.2270   20.5020 O   0  0  0  0  0  0  0  0  0  0  0  0
  -22.4950  -11.7760   22.4520 H   0  0  0  0  0  0  0  0  0  0  0  0
  -21.1310  -12.8440   22.2580 H   0  0  0  0  0  0  0  0  0  0  0  0
  -27.0890  -13.9960   21.5400 N   0  0  0  0  0  0  0  0  0  0  0  0
  -26.8390  -14.9570   21.7130 H   0  0  0  0  0  0  0  0  0  0  0  0
  -27.9320  -13.7150   22.0240 H   0  0  0  0  0  0  0  0  0  0  0  0
  -25.8190  -17.7330   20.0810 C   0  0  0  0  0  1  0  0  0  0  0  0
  -27.3080  -19.0540   19.8420 C   0  0  0  0  0 15  0  0  0  0  0  0
  -27.8470  -20.9400   19.3420 C   0  0  0  0  0 15  0  0  0  0  0  0
  -28.4320  -22.7810   19.9270 C   0  0  0  0  0  1  0  0  0  0  0  0
  -29.2490  -24.3780   19.5370 O   0  0  0  0  0  0  0  0  0  0  0  0
  -26.9780  -30.2980   23.9290 C   0  0  0  0  0  0  0  0  0  0  0  0
  -28.8630  -25.8610   19.7800 C   0  0  0  0  0  0  0  0  0  0  0  0
  -25.8390  -29.5790   21.8930 C   0  0  0  0  0  3  0  0  0  0  0  0
  -27.2170  -28.3070   20.1110 C   0  0  0  0  0  0  0  0  0  0  0  0
  -28.4100  -29.3700   21.9950 C   0  0  0  0  0  2  0  0  0  0  0  0
  -28.3370  -28.1980   20.9380 C   0  0  0  0  0  0  0  0  0  0  0  0
  -29.1900  -26.9880   20.7490 C   0  0  0  0  0  3  0  0  0  0  0  0
  -27.8960  -26.2930   18.8730 C   0  0  0  0  0  3  0  0  0  0  0  0
  -27.0690  -27.4170   19.0490 C   0  0  0  0  0  3  0  0  0  0  0  0
  -26.1470  -29.3560   20.3900 C   0  0  0  0  0  2  0  0  0  0  0  0
  -27.1050  -29.7750   22.6640 N   0  0  0  0  0  0  0  0  0  0  0  0
  -25.8680  -30.5540   24.4270 O   0  0  0  0  0  0  0  0  0  0  0  0
  -24.9800  -28.4100   22.4510 C   0  0  0  0  0  0  0  0  0  0  0  0
  -23.6660  -28.4030   22.1630 N   0  0  0  0  0  0  0  0  0  0  0  0
  -25.5090  -27.5250   23.1290 O   0  0  0  0  0  0  0  0  0  0  0  0
  -23.3010  -29.1640   21.6080 H   0  0  0  0  0  0  0  0  0  0  0  0
  -20.1870  -27.3770   21.9620 C   0  0  0  0  0  0  0  0  0  0  0  0
  -22.7050  -27.3640   22.5580 C   0  0  0  0  0  3  0  0  0  0  0  0
  -22.8100  -26.1300   21.6300 C   0  0  0  0  0  2  0  0  0  0  0  0
  -21.8260  -26.1750   20.4560 C   0  0  0  0  0  2  0  0  0  0  0  0
  -20.3840  -26.2510   20.9640 C   0  0  0  0  0  2  0  0  0  0  0  0
  -21.2780  -27.9110   22.6990 C   0  0  0  0  0  0  0  0  0  0  0  0
  -21.0380  -28.9790   23.5900 C   0  0  0  0  0  3  0  0  0  0  0  0
  -19.7420  -29.5070   23.7550 C   0  0  0  0  0  3  0  0  0  0  0  0
  -18.6660  -28.9640   23.0340 C   0  0  0  0  0  3  0  0  0  0  0  0
  -18.8880  -27.9000   22.1420 C   0  0  0  0  0  3  0  0  0  0  0  0
  -28.2170  -30.6180   24.8150 C   0  0  0  0  0  3  0  0  0  0  0  0
  -27.8880  -31.7860   25.6580 N   0  0  0  0  0  0  0  0  0  0  0  0
  -28.2780  -33.0470   25.4270 C   0  0  0  0  0  0  0  0  0  0  0  0
  -29.0120  -33.3480   24.4840 O   0  0  0  0  0  0  0  0  0  0  0  0
  -27.2380  -31.6190   26.4130 H   0  0  0  0  0  0  0  0  0  0  0  0
  -26.5890  -34.8900   25.7620 C   0  0  0  0  0  1  0  0  0  0  0  0
  -27.7810  -34.1480   26.3900 C   0  0  0  0  0  3  0  0  0  0  0  0
  -29.8730  -34.5590   27.6150 C   0  0  0  0  0  1  0  0  0  0  0  0
  -28.8300  -35.1260   26.7640 N   0  0  0  0  0  0  0  0  0  0  0  0
  -28.4260  -35.9240   27.2490 H   0  0  0  0  0  0  0  0  0  0  0  0
  -28.6410  -29.4050   25.7340 C   0  0  1  0  0  0  0  0  0  0  0  0
  -27.4760  -28.8270   26.5740 C   0  0  0  0  0  1  0  0  0  0  0  0
  -29.2240  -28.2470   24.9000 C   0  0  0  0  0  1  0  0  0  0  0  0
  -29.7700  -29.8480   26.6950 C   0  0  0  0  0  1  0  0  0  0  0  0
  4  5  1  0
 10  8  1  6
  9 10  1  0
 10  3  1  0
 10 11  1  0
 11 18  2  0
 11 17  1  0
 12 17  1  0
 13 14  1  0
 13 12  1  0
 15 14  1  0
 15 22  1  0
 15 16  1  0
 17 16  1  0
 19 22  1  0
 19 44  1  0
 20 23  1  0
 20 39  1  0
 21 20  2  0
 22  6  1  0
 23  6  1  0
 23 19  1  0
 24 25  1  0
 25 26  2  0
 27 30  1  0
 27 26  1  0
 28 27  2  0
 29 28  1  0
 29 24  2  0
 30 31  1  0
 31 32  1  0
 32 33  2  0
 34 33  1  0
 34 38  1  0
 35 34  2  0
 36 31  2  0
 36 35  1  0
 37 36  1  0
 39 40  1  0
 40 43  1  0
 40 42  1  0
 41 39  2  0
 44 45  1  0
 44 46  1  0
 47  2  1  0
 51 53  1  0
 51 50  1  0
 52 63  2  0
 53 58  1  0
 54 64  1  0
 54 62  1  0
 55 61  1  0
 55 57  1  0
 56 62  1  0
 57 56  1  0
 58 57  2  0
 59 60  1  0
 59 53  2  0
 60 55  2  0
 61 54  1  0
 62 52  1  0
 64 66  2  0
 65 64  1  0
 67 65  1  0
 68 77  2  0
 68 73  1  0
 69 65  1  0
 69 73  1  0
 70 69  1  0
 71 72  1  0
 71 70  1  0
 72 68  1  0
 73 74  2  0
 74 75  1  0
 76 75  2  0
 77 76  1  0
 78 52  1  0
 78 79  1  0
 78 88  1  0
 79 82  1  0
 80 79  1  0
 80 84  1  0
 81 80  2  0
 84 83  1  0
 84 86  1  0
 86 87  1  0
 86 85  1  0
 88 89  1  1
 88 91  1  0
 90 88  1  0
M  ISO  4  10 100  11 100  50 101  51 101
M  END
>  <TORSDO>  (43) 
F 21

>  <SCORE>  (43) 
0.614

>  <name>  (43) 
43

>  <ligand_id>  (43) 
43

>  <original_smiles>  (43) 
[H]c1c([H])c([H])c2c(c1[H])C([H])([H])C([H])([H])C([H])([H])C2([H])N([H])C(=O)C1([H])N(C(=O)C([H])(N([H])C(=O)C([H])(N([H])C([H])([H])[H])C([H])([H])[H])C(C([H])([H])[H])(C([H])([H])[H])C([H])([H])[H])C([H])([H])c2c([H])c(OC([H])([H])C([H])([H])C([H])([H])C([H])([H])c3c(C([H])([H])[H])nnc(C(C(=O)N4C([H])([H])C([H])([H])C([H])([H])C([H])(n5nc(-c6c([H])c([H])c(Oc7c([H])c([H])c(F)c([H])c7F)c([H])c6[H])c(C(=O)N([H])[H])c5N([H])[H])C4([H])[H])(C([H])([H])[H])C([H])([H])[H])c3[H])c([H])c([H])c2C1([H])[H]

>  <smiles>  (43) 
[H]c1c([H])c([H])c2c(c1[H])C([H])([H])C([H])([H])C([H])([H])C2([H])N([H])C(=O)C1([H])N(C(=O)C([H])(N([H])C(=O)C([H])(N([H])C([H])([H])[H])C([H])([H])[H])C(C([H])([H])[H])(C([H])([H])[H])C([H])([H])[H])C([H])([H])c2c([H])c(OC([H])([H])C([H])([H])C([H])([H])C([H])([H])c3c(C([H])([H])[H])nnc(C(C(=O)N4C([H])([H])C([H])([H])C([H])([H])C([H])(n5nc(-c6c([H])c([H])c(Oc7c([H])c([H])c(F)c([H])c7F)c([H])c6[H])c(C(=O)N([H])[H])c5N([H])[H])C4([H])[H])(C([H])([H])[H])C([H])([H])[H])c3[H])c([H])c([H])c2C1([H])[H]

$$$$
44:0:0
     RDKit          3D

 92100  0  0  1  0  0  0  0  0999 V2000
  -29.3160  -22.2740   19.5740 C   0  0  0  0  0  3  0  0  0  0  0  0
  -29.6680  -21.0950   20.4280 C   0  0  0  0  0  0  0  0  0  0  0  0
  -29.0950  -23.6840   20.0410 C   0  0  0  0  0  0  0  0  0  0  0  0
  -29.7310  -21.4790   21.7910 C   0  0  0  0  0  0  0  0  0  0  0  0
  -29.3040  -23.8040   21.4350 C   0  0  0  0  0  0  0  0  0  0  0  0
  -29.5780  -22.7470   22.2320 N   0  0  0  0  0  0  0  0  0  0  0  0
  -31.0550  -20.6690   23.8190 C   0  0  0  0  0  1  0  0  0  0  0  0
  -29.8060  -20.4830   22.9420 C   0  0  0  0  0  2  0  0  0  0  0  0
  -30.1980  -25.4290   23.2220 C   0  0  0  0  0  1  0  0  0  0  0  0
  -29.0810  -25.1000   22.2170 C   0  0  0  0  0  2  0  0  0  0  0  0
  -29.7030  -19.4590   20.0450 C   0  0  0  0  0  3  0  0  0  0  0  0
  -30.6710  -18.1970   20.6770 C   0  0  0  0  0  3  0  0  0  0  0  0
  -31.2020  -15.4340   20.6080 C   0  0  0  0  0  0  0  0  0  0  0  0
  -31.1840  -12.9960   19.8610 C   0  0  0  0  0  2  0  0  0  0  0  0
  -30.3690  -12.7960   18.5600 C   0  0  0  0  0  2  0  0  0  0  0  0
  -28.8680  -12.6260   18.8780 C   0  0  0  0  0  2  0  0  0  0  0  0
  -28.3580  -13.6570   19.9210 C   0  0  0  0  0  3  0  0  0  0  0  0
  -29.3050  -13.7860   21.1310 C   0  0  0  0  0  2  0  0  0  0  0  0
  -30.6170  -14.1650   20.5920 N   0  0  0  0  0  0  0  0  0  0  0  0
  -32.4320  -15.4780   20.4930 O   0  0  0  0  0  0  0  0  0  0  0  0
  -30.4030  -16.6240   20.5550 N   0  0  0  0  0  0  0  0  0  0  0  0
  -29.4190  -16.4060   20.5160 H   0  0  0  0  0  0  0  0  0  0  0  0
  -25.9530  -14.3090   20.4970 C   0  0  0  0  0  0  0  0  0  0  0  0
  -24.8430  -13.5680   20.7920 C   0  0  0  0  0  0  0  0  0  0  0  0
  -25.2660  -12.2050   20.7930 C   0  0  0  0  0  0  0  0  0  0  0  0
  -26.9820  -13.3980   20.3290 N   0  0  0  0  0  0  0  0  0  0  0  0
  -26.5740  -12.1280   20.5760 N   0  0  0  0  0  0  0  0  0  0  0  0
  -24.4890  -10.9660   20.9260 C   0  0  0  0  0  0  0  0  0  0  0  0
  -24.8300   -9.9830   21.8810 C   0  0  0  0  0  3  0  0  0  0  0  0
  -24.0540   -8.8110   22.0070 C   0  0  0  0  0  3  0  0  0  0  0  0
  -22.9260   -8.6140   21.1770 C   0  0  0  0  0  0  0  0  0  0  0  0
  -22.6060   -9.5850   20.2110 C   0  0  0  0  0  3  0  0  0  0  0  0
  -23.3820  -10.7490   20.0830 C   0  0  0  0  0  3  0  0  0  0  0  0
  -22.1320   -7.4920   21.2110 O   0  0  0  0  0  0  0  0  0  0  0  0
  -21.9780   -6.7510   22.3550 C   0  0  0  0  0  0  0  0  0  0  0  0
  -21.4890   -7.3210   23.5500 C   0  0  0  0  0  3  0  0  0  0  0  0
  -21.2770   -6.5110   24.6830 C   0  0  0  0  0  3  0  0  0  0  0  0
  -21.5430   -5.1290   24.6210 C   0  0  0  0  0  0  0  0  0  0  0  0
  -22.0270   -4.5590   23.4310 C   0  0  0  0  0  3  0  0  0  0  0  0
  -22.2380   -5.3660   22.3000 C   0  0  0  0  0  0  0  0  0  0  0  0
  -22.6840   -4.8070   21.1490 F   0  0  0  0  0  0  0  0  0  0  0  0
  -21.3320   -4.3480   25.7060 F   0  0  0  0  0  0  0  0  0  0  0  0
  -23.4470  -14.0890   20.9620 C   0  0  0  0  0  0  0  0  0  0  0  0
  -22.6430  -13.4260   21.7860 N   0  0  0  0  0  0  0  0  0  0  0  0
  -23.0760  -15.1180   20.4020 O   0  0  0  0  0  0  0  0  0  0  0  0
  -22.9610  -12.5970   22.2650 H   0  0  0  0  0  0  0  0  0  0  0  0
  -21.7000  -13.7520   21.9400 H   0  0  0  0  0  0  0  0  0  0  0  0
  -26.1610  -15.6750   20.3280 N   0  0  0  0  0  0  0  0  0  0  0  0
  -25.3860  -16.3260   20.3700 H   0  0  0  0  0  0  0  0  0  0  0  0
  -27.0250  -16.1070   20.0320 H   0  0  0  0  0  0  0  0  0  0  0  0
  -28.4830  -24.9560   19.1540 C   0  0  0  0  0  2  0  0  0  0  0  0
  -28.4890  -26.4950   19.4710 O   0  0  0  0  0  0  0  0  0  0  0  0
  -24.7690  -31.7290   23.0980 C   0  0  0  0  0  0  0  0  0  0  0  0
  -27.3640  -27.4050   19.5150 C   0  0  0  0  0  0  0  0  0  0  0  0
  -23.5330  -30.4090   21.4220 C   0  0  0  0  0  3  0  0  0  0  0  0
  -24.9540  -29.0260   19.7830 C   0  0  0  0  0  0  0  0  0  0  0  0
  -26.0570  -30.8080   21.1300 C   0  0  0  0  0  2  0  0  0  0  0  0
  -26.1470  -29.4790   20.3590 C   0  0  0  0  0  0  0  0  0  0  0  0
  -27.3440  -28.6820   20.2130 C   0  0  0  0  0  3  0  0  0  0  0  0
  -26.1330  -27.0530   18.9160 C   0  0  0  0  0  3  0  0  0  0  0  0
  -24.9590  -27.8280   19.0500 C   0  0  0  0  0  3  0  0  0  0  0  0
  -23.6920  -29.8530   19.9810 C   0  0  0  0  0  2  0  0  0  0  0  0
  -24.8100  -31.0020   21.9380 N   0  0  0  0  0  0  0  0  0  0  0  0
  -23.7070  -31.9170   23.7090 O   0  0  0  0  0  0  0  0  0  0  0  0
  -22.9630  -29.2980   22.3380 C   0  0  0  0  0  0  0  0  0  0  0  0
  -21.6540  -29.0140   22.2150 N   0  0  0  0  0  0  0  0  0  0  0  0
  -23.6990  -28.6970   23.1240 O   0  0  0  0  0  0  0  0  0  0  0  0
  -21.1120  -29.5580   21.5590 H   0  0  0  0  0  0  0  0  0  0  0  0
  -18.4370  -27.3910   22.5890 C   0  0  0  0  0  0  0  0  0  0  0  0
  -20.9340  -27.9650   22.9420 C   0  0  0  0  0  3  0  0  0  0  0  0
  -21.2310  -26.5700   22.3470 C   0  0  0  0  0  2  0  0  0  0  0  0
  -20.2080  -26.1340   21.2920 C   0  0  0  0  0  2  0  0  0  0  0  0
  -18.8000  -26.0900   21.8940 C   0  0  0  0  0  2  0  0  0  0  0  0
  -19.4370  -28.2790   23.0670 C   0  0  0  0  0  0  0  0  0  0  0  0
  -19.0430  -29.4890   23.6790 C   0  0  0  0  0  3  0  0  0  0  0  0
  -17.6810  -29.8190   23.8150 C   0  0  0  0  0  3  0  0  0  0  0  0
  -16.6960  -28.9310   23.3510 C   0  0  0  0  0  3  0  0  0  0  0  0
  -17.0730  -27.7180   22.7470 C   0  0  0  0  0  3  0  0  0  0  0  0
  -26.0540  -32.3760   23.6990 C   0  0  0  0  0  3  0  0  0  0  0  0
  -25.6840  -33.6990   24.2310 N   0  0  0  0  0  0  0  0  0  0  0  0
  -25.9290  -34.8660   23.6230 C   0  0  0  0  0  0  0  0  0  0  0  0
  -26.5550  -34.9450   22.5640 O   0  0  0  0  0  0  0  0  0  0  0  0
  -25.1180  -33.7050   25.0670 H   0  0  0  0  0  0  0  0  0  0  0  0
  -24.1030  -36.5990   23.5910 C   0  0  0  0  0  1  0  0  0  0  0  0
  -25.3950  -36.1490   24.2930 C   0  0  0  0  0  3  0  0  0  0  0  0
  -27.5190  -37.0200   25.1670 C   0  0  0  0  0  1  0  0  0  0  0  0
  -26.3720  -37.2600   24.2970 N   0  0  0  0  0  0  0  0  0  0  0  0
  -25.9310  -38.1300   24.5850 H   0  0  0  0  0  0  0  0  0  0  0  0
  -26.7220  -31.4990   24.8290 C   0  0  1  0  0  0  0  0  0  0  0  0
  -25.7390  -31.0640   25.9420 C   0  0  0  0  0  1  0  0  0  0  0  0
  -27.3490  -30.2170   24.2340 C   0  0  0  0  0  1  0  0  0  0  0  0
  -27.8770  -32.2880   25.4910 C   0  0  0  0  0  1  0  0  0  0  0  0
  1  3  2  0
  1  2  1  0
  2  4  2  0
  3  5  1  0
  4  6  1  0
  4  8  1  0
  5 10  1  0
  5  6  2  0
  8  7  1  0
 10  9  1  0
 11  2  1  0
 11 12  2  0
 14 19  1  0
 15 16  1  0
 15 14  1  0
 17 16  1  0
 17 26  1  0
 17 18  1  0
 19 13  1  0
 19 18  1  0
 20 13  2  0
 21 13  1  0
 21 12  1  0
 22 21  1  0
 23 24  2  0
 24 25  1  0
 24 43  1  0
 25 28  1  0
 26 23  1  0
 26 27  1  0
 27 25  2  0
 28 29  1  0
 29 30  2  0
 31 34  1  0
 31 30  1  0
 32 31  2  0
 33 32  1  0
 33 28  2  0
 34 35  1  0
 35 36  1  0
 36 37  2  0
 38 37  1  0
 38 42  1  0
 39 38  2  0
 40 35  2  0
 40 39  1  0
 41 40  1  0
 43 44  1  0
 44 47  1  0
 44 46  1  0
 45 43  2  0
 48 49  1  0
 48 23  1  0
 50 48  1  0
 51 52  1  0
 51  3  1  0
 52 54  1  0
 53 64  2  0
 54 59  1  0
 55 63  1  0
 55 65  1  0
 56 62  1  0
 56 58  1  0
 57 63  1  0
 58 57  1  0
 59 58  2  0
 60 61  1  0
 60 54  2  0
 61 56  2  0
 62 55  1  0
 63 53  1  0
 65 67  2  0
 66 65  1  0
 68 66  1  0
 69 78  2  0
 69 74  1  0
 70 66  1  0
 70 74  1  0
 71 70  1  0
 72 73  1  0
 72 71  1  0
 73 69  1  0
 74 75  2  0
 75 76  1  0
 77 76  2  0
 78 77  1  0
 79 53  1  0
 79 80  1  0
 79 89  1  0
 80 83  1  0
 81 80  1  0
 81 85  1  0
 82 81  2  0
 85 84  1  0
 85 87  1  0
 87 88  1  0
 87 86  1  0
 89 92  1  1
 89 90  1  0
 91 89  1  0
M  ISO  4  13 100  21 100  51 101  52 101
M  END
>  <TORSDO>  (44) 
F 21

>  <SCORE>  (44) 
-11.658

>  <name>  (44) 
44

>  <ligand_id>  (44) 
44

>  <original_smiles>  (44) 
[H]c1c([H])c([H])c2c(c1[H])C([H])([H])C([H])([H])C([H])([H])C2([H])N([H])C(=O)C1([H])N(C(=O)C([H])(N([H])C(=O)C([H])(N([H])C([H])([H])[H])C([H])([H])[H])C(C([H])([H])[H])(C([H])([H])[H])C([H])([H])[H])C([H])([H])c2c([H])c(OC([H])([H])c3c(C([H])([H])C([H])([H])[H])nc(C([H])([H])C([H])([H])[H])c(C([H])([H])C([H])([H])N([H])C(=O)N4C([H])([H])C([H])([H])C([H])([H])C([H])(n5nc(-c6c([H])c([H])c(Oc7c([H])c([H])c(F)c([H])c7F)c([H])c6[H])c(C(=O)N([H])[H])c5N([H])[H])C4([H])[H])c3[H])c([H])c([H])c2C1([H])[H]

>  <smiles>  (44) 
[H]c1c([H])c([H])c2c(c1[H])C([H])([H])C([H])([H])C([H])([H])C2([H])N([H])C(=O)C1([H])N(C(=O)C([H])(N([H])C(=O)C([H])(N([H])C([H])([H])[H])C([H])([H])[H])C(C([H])([H])[H])(C([H])([H])[H])C([H])([H])[H])C([H])([H])c2c([H])c(OC([H])([H])c3c(C([H])([H])C([H])([H])[H])nc(C([H])([H])C([H])([H])[H])c(C([H])([H])C([H])([H])N([H])C(=O)N4C([H])([H])C([H])([H])C([H])([H])C([H])(n5nc(-c6c([H])c([H])c(Oc7c([H])c([H])c(F)c([H])c7F)c([H])c6[H])c(C(=O)N([H])[H])c5N([H])[H])C4([H])[H])c3[H])c([H])c([H])c2C1([H])[H]

$$$$
45:0:0
     RDKit          3D

 91 99  0  0  1  0  0  0  0  0999 V2000
  -30.7060  -20.9220   21.1730 C   0  0  0  0  0  2  0  0  0  0  0  0
  -31.9550  -17.4290   19.1840 C   0  0  0  0  0  3  0  0  0  0  0  0
  -32.5080  -18.6810   18.8930 C   0  0  0  0  0  3  0  0  0  0  0  0
  -31.0130  -17.3410   20.2300 C   0  0  0  0  0  0  0  0  0  0  0  0
  -31.1810  -19.6530   20.4680 C   0  0  0  0  0  0  0  0  0  0  0  0
  -32.1220  -19.7920   19.5420 N   0  0  0  0  0  0  0  0  0  0  0  0
  -30.6250  -18.5000   20.8300 N   0  0  0  0  0  0  0  0  0  0  0  0
  -28.8190  -16.3330   19.9910 C   0  0  0  0  0  1  0  0  0  0  0  0
  -30.1500  -16.0420   22.1990 C   0  0  0  0  0  1  0  0  0  0  0  0
  -30.1970  -16.0650   20.6490 C   0  0  2  0  0  0  0  0  0  0  0  0
  -30.7920  -14.6570   20.2050 C   0  0  0  0  0  0  0  0  0  0  0  0
  -30.3870  -12.4560   19.1440 C   0  0  0  0  0  2  0  0  0  0  0  0
  -29.4650  -12.6290   17.9110 C   0  0  0  0  0  2  0  0  0  0  0  0
  -27.9960  -12.9640   18.2740 C   0  0  0  0  0  2  0  0  0  0  0  0
  -27.7190  -12.8400   19.7750 C   0  0  0  0  0  3  0  0  0  0  0  0
  -28.7810  -13.2320   20.8110 C   0  0  0  0  0  2  0  0  0  0  0  0
  -30.0530  -13.5100   20.1260 N   0  0  0  0  0  0  0  0  0  0  0  0
  -31.9630  -14.6220   19.8310 O   0  0  0  0  0  0  0  0  0  0  0  0
  -25.3180  -13.8030   20.4030 C   0  0  0  0  0  0  0  0  0  0  0  0
  -24.2210  -13.0770   20.8040 C   0  0  0  0  0  0  0  0  0  0  0  0
  -24.6310  -11.7140   20.7790 C   0  0  0  0  0  0  0  0  0  0  0  0
  -26.3280  -12.8550   20.2020 N   0  0  0  0  0  0  0  0  0  0  0  0
  -25.8870  -11.6150   20.4580 N   0  0  0  0  0  0  0  0  0  0  0  0
  -23.9250  -10.4610   20.9860 C   0  0  0  0  0  0  0  0  0  0  0  0
  -24.3990   -9.4990   21.9060 C   0  0  0  0  0  3  0  0  0  0  0  0
  -23.7040   -8.2860   22.0810 C   0  0  0  0  0  3  0  0  0  0  0  0
  -22.5290   -8.0370   21.3340 C   0  0  0  0  0  0  0  0  0  0  0  0
  -22.0840   -8.9880   20.3990 C   0  0  0  0  0  3  0  0  0  0  0  0
  -22.7830  -10.1900   20.2180 C   0  0  0  0  0  3  0  0  0  0  0  0
  -21.7980   -6.8800   21.4260 O   0  0  0  0  0  0  0  0  0  0  0  0
  -21.7430   -6.1600   22.5920 C   0  0  0  0  0  0  0  0  0  0  0  0
  -21.3010   -6.7330   23.8040 C   0  0  0  0  0  3  0  0  0  0  0  0
  -21.1950   -5.9360   24.9610 C   0  0  0  0  0  3  0  0  0  0  0  0
  -21.5270   -4.5690   24.9050 C   0  0  0  0  0  0  0  0  0  0  0  0
  -21.9720   -3.9990   23.7000 C   0  0  0  0  0  3  0  0  0  0  0  0
  -22.0760   -4.7920   22.5440 C   0  0  0  0  0  0  0  0  0  0  0  0
  -22.4850   -4.2370   21.3770 F   0  0  0  0  0  0  0  0  0  0  0  0
  -21.4180   -3.7980   26.0120 F   0  0  0  0  0  0  0  0  0  0  0  0
  -22.8410  -13.5760   21.1180 C   0  0  0  0  0  0  0  0  0  0  0  0
  -22.1340  -12.8740   21.9970 N   0  0  0  0  0  0  0  0  0  0  0  0
  -22.3960  -14.6080   20.6200 O   0  0  0  0  0  0  0  0  0  0  0  0
  -22.5100  -12.0340   22.4110 H   0  0  0  0  0  0  0  0  0  0  0  0
  -21.2060  -13.1740   22.2560 H   0  0  0  0  0  0  0  0  0  0  0  0
  -25.5050  -15.1620   20.1960 N   0  0  0  0  0  0  0  0  0  0  0  0
  -24.7400  -15.8260   20.2590 H   0  0  0  0  0  0  0  0  0  0  0  0
  -26.3520  -15.5580   19.8130 H   0  0  0  0  0  0  0  0  0  0  0  0
  -29.9540  -21.9230   20.2610 C   0  0  0  0  0  2  0  0  0  0  0  0
  -29.4150  -23.1540   21.0310 C   0  0  0  0  0  2  0  0  0  0  0  0
  -29.1070  -24.3930   20.1510 C   0  0  0  0  0  2  0  0  0  0  0  0
  -28.4730  -25.5560   20.9440 C   0  0  0  0  0  2  0  0  0  0  0  0
  -28.4990  -26.7920   20.2130 O   0  0  0  0  0  0  0  0  0  0  0  0
  -24.6110  -31.9310   23.2630 C   0  0  0  0  0  0  0  0  0  0  0  0
  -27.3240  -27.5100   20.2280 C   0  0  0  0  0  0  0  0  0  0  0  0
  -23.4300  -30.5120   21.6160 C   0  0  0  0  0  3  0  0  0  0  0  0
  -24.9100  -28.9800   20.2110 C   0  0  0  0  0  0  0  0  0  0  0  0
  -25.9510  -30.9000   21.4310 C   0  0  0  0  0  2  0  0  0  0  0  0
  -26.0580  -29.5260   20.8020 C   0  0  0  0  0  0  0  0  0  0  0  0
  -27.2690  -28.7970   20.8050 C   0  0  0  0  0  3  0  0  0  0  0  0
  -26.1640  -26.9770   19.6290 C   0  0  0  0  0  3  0  0  0  0  0  0
  -24.9570  -27.7040   19.6220 C   0  0  0  0  0  3  0  0  0  0  0  0
  -23.6580  -29.8260   20.2410 C   0  0  0  0  0  2  0  0  0  0  0  0
  -24.6810  -31.1290   22.1630 N   0  0  0  0  0  0  0  0  0  0  0  0
  -23.5240  -32.1940   23.7950 O   0  0  0  0  0  0  0  0  0  0  0  0
  -22.7810  -29.4920   22.5770 C   0  0  0  0  0  0  0  0  0  0  0  0
  -21.4610  -29.2940   22.4390 N   0  0  0  0  0  0  0  0  0  0  0  0
  -23.4630  -28.8790   23.4040 O   0  0  0  0  0  0  0  0  0  0  0  0
  -20.9690  -29.8440   21.7490 H   0  0  0  0  0  0  0  0  0  0  0  0
  -18.0960  -28.0570   22.9040 C   0  0  0  0  0  0  0  0  0  0  0  0
  -20.6460  -28.3500   23.2060 C   0  0  0  0  0  3  0  0  0  0  0  0
  -20.7750  -26.9170   22.6400 C   0  0  0  0  0  2  0  0  0  0  0  0
  -19.6910  -26.5720   21.6150 C   0  0  0  0  0  2  0  0  0  0  0  0
  -18.3000  -26.7040   22.2410 C   0  0  0  0  0  2  0  0  0  0  0  0
  -19.1980  -28.8350   23.3440 C   0  0  0  0  0  0  0  0  0  0  0  0
  -18.9560  -30.0990   23.9230 C   0  0  0  0  0  3  0  0  0  0  0  0
  -17.6440  -30.5850   24.0680 C   0  0  0  0  0  3  0  0  0  0  0  0
  -16.5550  -29.8040   23.6440 C   0  0  0  0  0  3  0  0  0  0  0  0
  -16.7820  -28.5410   23.0690 C   0  0  0  0  0  3  0  0  0  0  0  0
  -25.8880  -32.5760   23.8910 C   0  0  0  0  0  3  0  0  0  0  0  0
  -25.5680  -33.9730   24.2060 N   0  0  0  0  0  0  0  0  0  0  0  0
  -25.9050  -35.0210   23.4420 C   0  0  0  0  0  0  0  0  0  0  0  0
  -26.5870  -34.9130   22.4190 O   0  0  0  0  0  0  0  0  0  0  0  0
  -24.9670  -34.1330   25.0020 H   0  0  0  0  0  0  0  0  0  0  0  0
  -24.1750  -36.8030   23.0490 C   0  0  0  0  0  1  0  0  0  0  0  0
  -25.4060  -36.4120   23.8820 C   0  0  0  0  0  3  0  0  0  0  0  0
  -27.5250  -37.3120   24.7340 C   0  0  0  0  0  1  0  0  0  0  0  0
  -26.4350  -37.4680   23.7750 N   0  0  0  0  0  0  0  0  0  0  0  0
  -26.0240  -38.3870   23.9070 H   0  0  0  0  0  0  0  0  0  0  0  0
  -26.4020  -31.8150   25.1740 C   0  0  1  0  0  0  0  0  0  0  0  0
  -25.3050  -31.5740   26.2360 C   0  0  0  0  0  1  0  0  0  0  0  0
  -26.9970  -30.4400   24.7880 C   0  0  0  0  0  1  0  0  0  0  0  0
  -27.5450  -32.6200   25.8380 C   0  0  0  0  0  1  0  0  0  0  0  0
  2  4  1  0
  3  2  2  0
  3  6  1  0
  4 10  1  0
  4  7  2  0
  5  7  1  0
  5  1  1  0
  6  5  2  0
 10  8  1  6
 10  9  1  0
 11 10  1  0
 12 17  1  0
 13 14  1  0
 13 12  1  0
 15 14  1  0
 15 22  1  0
 15 16  1  0
 17 11  1  0
 17 16  1  0
 18 11  2  0
 19 20  2  0
 20 39  1  0
 21 20  1  0
 21 24  1  0
 22 19  1  0
 22 23  1  0
 23 21  2  0
 24 25  1  0
 25 26  2  0
 27 30  1  0
 27 26  1  0
 28 27  2  0
 29 28  1  0
 29 24  2  0
 30 31  1  0
 31 32  1  0
 32 33  2  0
 34 33  1  0
 34 38  1  0
 35 34  2  0
 36 31  2  0
 36 35  1  0
 37 36  1  0
 39 40  1  0
 40 43  1  0
 40 42  1  0
 41 39  2  0
 44 45  1  0
 44 19  1  0
 46 44  1  0
 47 48  1  0
 47  1  1  0
 49 50  1  0
 49 48  1  0
 51 53  1  0
 51 50  1  0
 52 63  2  0
 53 58  1  0
 54 62  1  0
 54 64  1  0
 55 61  1  0
 55 57  1  0
 56 62  1  0
 57 58  2  0
 57 56  1  0
 59 53  2  0
 60 59  1  0
 60 55  2  0
 61 54  1  0
 62 52  1  0
 64 66  2  0
 65 64  1  0
 67 65  1  0
 68 77  2  0
 68 73  1  0
 69 65  1  0
 69 73  1  0
 70 69  1  0
 71 72  1  0
 71 70  1  0
 72 68  1  0
 73 74  2  0
 74 75  1  0
 76 75  2  0
 77 76  1  0
 78 52  1  0
 78 79  1  0
 78 88  1  0
 79 82  1  0
 80 84  1  0
 80 79  1  0
 81 80  2  0
 84 83  1  0
 86 84  1  0
 86 87  1  0
 86 85  1  0
 88 91  1  1
 88 89  1  0
 90 88  1  0
M  ISO  4  10 100  11 100  50 101  51 101
M  END
>  <TORSDO>  (45) 
F 22

>  <SCORE>  (45) 
-12.887

>  <name>  (45) 
45

>  <ligand_id>  (45) 
45

>  <original_smiles>  (45) 
[H]c1nc(C([H])([H])C([H])([H])C([H])([H])C([H])([H])C([H])([H])Oc2c([H])c([H])c3c(c2[H])C([H])([H])N(C(=O)C([H])(N([H])C(=O)C([H])(N([H])C([H])([H])[H])C([H])([H])[H])C(C([H])([H])[H])(C([H])([H])[H])C([H])([H])[H])C([H])(C(=O)N([H])C2([H])c4c([H])c([H])c([H])c([H])c4C([H])([H])C([H])([H])C2([H])[H])C3([H])[H])nc(C(C(=O)N2C([H])([H])C([H])([H])C([H])([H])C([H])(n3nc(-c4c([H])c([H])c(Oc5c([H])c([H])c(F)c([H])c5F)c([H])c4[H])c(C(=O)N([H])[H])c3N([H])[H])C2([H])[H])(C([H])([H])[H])C([H])([H])[H])c1[H]

>  <smiles>  (45) 
[H]c1nc(C([H])([H])C([H])([H])C([H])([H])C([H])([H])C([H])([H])Oc2c([H])c([H])c3c(c2[H])C([H])([H])N(C(=O)C([H])(N([H])C(=O)C([H])(N([H])C([H])([H])[H])C([H])([H])[H])C(C([H])([H])[H])(C([H])([H])[H])C([H])([H])[H])C([H])(C(=O)N([H])C2([H])c4c([H])c([H])c([H])c([H])c4C([H])([H])C([H])([H])C2([H])[H])C3([H])[H])nc(C(C(=O)N2C([H])([H])C([H])([H])C([H])([H])C([H])(n3nc(-c4c([H])c([H])c(Oc5c([H])c([H])c(F)c([H])c5F)c([H])c4[H])c(C(=O)N([H])[H])c3N([H])[H])C2([H])[H])(C([H])([H])[H])C([H])([H])[H])c1[H]

$$$$
46:0:0
     RDKit          3D

 89 97  0  0  1  0  0  0  0  0999 V2000
  -30.1100  -20.8250   20.3760 C   0  0  0  0  0  3  0  0  0  0  0  0
  -28.0660  -21.1310   19.8810 C   0  0  0  0  0  3  0  0  0  0  0  0
  -29.6170  -19.5060   20.1140 C   0  0  0  0  0  0  0  0  0  0  0  0
  -28.2800  -19.7930   19.7760 N   0  0  0  0  0  0  0  0  0  0  0  0
  -29.1240  -21.8910   20.2260 N   0  0  0  0  0  0  0  0  0  0  0  0
  -30.4910  -17.8400   18.3750 C   0  0  0  0  0  1  0  0  0  0  0  0
  -30.3470  -18.0230   19.8970 C   0  0  0  0  0  3  0  0  0  0  0  0
  -28.3830  -16.5190   20.5010 C   0  0  0  0  0  1  0  0  0  0  0  0
  -30.2730  -16.6600   22.0840 C   0  0  0  0  0  1  0  0  0  0  0  0
  -29.9150  -16.5290   20.5910 C   0  0  2  0  0  0  0  0  0  0  0  0
  -30.5940  -15.0400   20.1290 C   0  0  0  0  0  0  0  0  0  0  0  0
  -30.4250  -12.7200   19.0780 C   0  0  0  0  0  2  0  0  0  0  0  0
  -29.4320  -12.7270   17.8910 C   0  0  0  0  0  2  0  0  0  0  0  0
  -27.9890  -12.4810   18.3750 C   0  0  0  0  0  2  0  0  0  0  0  0
  -27.6410  -13.3430   19.6130 C   0  0  0  0  0  3  0  0  0  0  0  0
  -28.7560  -13.2820   20.6840 C   0  0  0  0  0  2  0  0  0  0  0  0
  -29.9940  -13.7700   20.0530 N   0  0  0  0  0  0  0  0  0  0  0  0
  -31.7700  -15.0650   19.7480 O   0  0  0  0  0  0  0  0  0  0  0  0
  -25.2760  -13.9160   20.4220 C   0  0  0  0  0  0  0  0  0  0  0  0
  -24.2300  -13.1380   20.8270 C   0  0  0  0  0  0  0  0  0  0  0  0
  -24.7000  -11.7900   20.7740 C   0  0  0  0  0  0  0  0  0  0  0  0
  -26.3200  -13.0450   20.1530 N   0  0  0  0  0  0  0  0  0  0  0  0
  -25.9820  -11.7590   20.4270 N   0  0  0  0  0  0  0  0  0  0  0  0
  -23.9850  -10.5260   20.9760 C   0  0  0  0  0  0  0  0  0  0  0  0
  -24.4390   -9.5600   21.8990 C   0  0  0  0  0  3  0  0  0  0  0  0
  -23.7220   -8.3590   22.0880 C   0  0  0  0  0  3  0  0  0  0  0  0
  -22.5350   -8.1180   21.3550 C   0  0  0  0  0  0  0  0  0  0  0  0
  -22.1010   -9.0740   20.4180 C   0  0  0  0  0  3  0  0  0  0  0  0
  -22.8210  -10.2650   20.2280 C   0  0  0  0  0  3  0  0  0  0  0  0
  -21.7870   -6.9710   21.4560 O   0  0  0  0  0  0  0  0  0  0  0  0
  -21.7460   -6.2400   22.6150 C   0  0  0  0  0  0  0  0  0  0  0  0
  -21.3230   -6.8050   23.8390 C   0  0  0  0  0  3  0  0  0  0  0  0
  -21.2300   -5.9980   24.9900 C   0  0  0  0  0  3  0  0  0  0  0  0
  -21.5510   -4.6290   24.9210 C   0  0  0  0  0  0  0  0  0  0  0  0
  -21.9700   -4.0650   23.7040 C   0  0  0  0  0  3  0  0  0  0  0  0
  -22.0650   -4.8680   22.5530 C   0  0  0  0  0  0  0  0  0  0  0  0
  -22.4480   -4.3150   21.3770 F   0  0  0  0  0  0  0  0  0  0  0  0
  -21.4530   -3.8540   26.0250 F   0  0  0  0  0  0  0  0  0  0  0  0
  -22.8410  -13.6090   21.1430 C   0  0  0  0  0  0  0  0  0  0  0  0
  -22.1440  -12.9090   22.0310 N   0  0  0  0  0  0  0  0  0  0  0  0
  -22.3820  -14.6360   20.6410 O   0  0  0  0  0  0  0  0  0  0  0  0
  -22.5290  -12.0810   22.4610 H   0  0  0  0  0  0  0  0  0  0  0  0
  -21.2160  -13.2080   22.2890 H   0  0  0  0  0  0  0  0  0  0  0  0
  -25.4050  -15.2870   20.2360 N   0  0  0  0  0  0  0  0  0  0  0  0
  -24.6330  -15.9280   20.3840 H   0  0  0  0  0  0  0  0  0  0  0  0
  -26.2480  -15.7480   19.9200 H   0  0  0  0  0  0  0  0  0  0  0  0
  -29.2570  -23.4670   20.4080 C   0  0  0  0  0  3  0  0  0  0  0  0
  -28.1010  -24.6610   20.1160 C   0  0  0  0  0  3  0  0  0  0  0  0
  -28.3010  -26.1980   20.3070 O   0  0  0  0  0  0  0  0  0  0  0  0
  -24.6260  -31.8860   23.2420 C   0  0  0  0  0  0  0  0  0  0  0  0
  -27.2230  -27.1580   20.2410 C   0  0  0  0  0  0  0  0  0  0  0  0
  -23.4320  -30.4830   21.6040 C   0  0  0  0  0  3  0  0  0  0  0  0
  -24.8840  -28.8940   20.1970 C   0  0  0  0  0  0  0  0  0  0  0  0
  -25.9850  -30.7440   21.4490 C   0  0  0  0  0  2  0  0  0  0  0  0
  -26.0620  -29.3480   20.8060 C   0  0  0  0  0  0  0  0  0  0  0  0
  -27.2300  -28.4960   20.8080 C   0  0  0  0  0  3  0  0  0  0  0  0
  -26.0160  -26.7990   19.6030 C   0  0  0  0  0  3  0  0  0  0  0  0
  -24.8740  -27.6310   19.5820 C   0  0  0  0  0  3  0  0  0  0  0  0
  -23.6570  -29.7930   20.2310 C   0  0  0  0  0  2  0  0  0  0  0  0
  -24.7010  -31.0600   22.1540 N   0  0  0  0  0  0  0  0  0  0  0  0
  -23.5380  -32.1760   23.7620 O   0  0  0  0  0  0  0  0  0  0  0  0
  -22.7440  -29.4840   22.5700 C   0  0  0  0  0  0  0  0  0  0  0  0
  -21.4150  -29.3220   22.4410 N   0  0  0  0  0  0  0  0  0  0  0  0
  -23.4100  -28.8580   23.3980 O   0  0  0  0  0  0  0  0  0  0  0  0
  -20.9350  -29.8770   21.7480 H   0  0  0  0  0  0  0  0  0  0  0  0
  -18.0250  -28.1490   22.9510 C   0  0  0  0  0  0  0  0  0  0  0  0
  -20.5860  -28.3930   23.2160 C   0  0  0  0  0  3  0  0  0  0  0  0
  -20.6770  -26.9590   22.6450 C   0  0  0  0  0  2  0  0  0  0  0  0
  -19.5720  -26.6420   21.6320 C   0  0  0  0  0  2  0  0  0  0  0  0
  -18.1910  -26.7980   22.2760 C   0  0  0  0  0  2  0  0  0  0  0  0
  -19.1500  -28.9050   23.3780 C   0  0  0  0  0  0  0  0  0  0  0  0
  -18.9400  -30.1690   23.9710 C   0  0  0  0  0  3  0  0  0  0  0  0
  -17.6390  -30.6780   24.1410 C   0  0  0  0  0  3  0  0  0  0  0  0
  -16.5290  -29.9190   23.7290 C   0  0  0  0  0  3  0  0  0  0  0  0
  -16.7230  -28.6570   23.1390 C   0  0  0  0  0  3  0  0  0  0  0  0
  -25.9020  -32.5230   23.8710 C   0  0  0  0  0  3  0  0  0  0  0  0
  -26.4070  -31.7590   25.1580 C   0  0  1  0  0  0  0  0  0  0  0  0
  -25.3060  -31.5330   26.2210 C   0  0  0  0  0  1  0  0  0  0  0  0
  -26.9900  -30.3760   24.7860 C   0  0  0  0  0  1  0  0  0  0  0  0
  -27.5530  -32.5560   25.8240 C   0  0  0  0  0  1  0  0  0  0  0  0
  -25.5900  -33.9240   24.1980 N   0  0  0  0  0  0  0  0  0  0  0  0
  -25.9190  -34.9770   23.4390 C   0  0  0  0  0  0  0  0  0  0  0  0
  -26.5840  -34.8730   22.4050 O   0  0  0  0  0  0  0  0  0  0  0  0
  -24.9980  -34.0800   25.0010 H   0  0  0  0  0  0  0  0  0  0  0  0
  -24.1850  -36.7720   23.1020 C   0  0  0  0  0  1  0  0  0  0  0  0
  -25.4360  -36.3670   23.8990 C   0  0  0  0  0  3  0  0  0  0  0  0
  -27.5780  -37.2600   24.7030 C   0  0  0  0  0  1  0  0  0  0  0  0
  -26.4660  -37.4220   23.7720 N   0  0  0  0  0  0  0  0  0  0  0  0
  -26.0590  -38.3410   23.9200 H   0  0  0  0  0  0  0  0  0  0  0  0
  2  5  1  0
  3  1  2  0
  4  2  2  0
  4  3  1  0
  5  1  1  0
  5 47  1  0
  7  6  1  0
  7  3  1  0
  7 10  1  0
 10  8  1  1
 10  9  1  0
 11 10  1  0
 12 17  1  0
 13 14  1  0
 13 12  1  0
 15 14  1  0
 15 22  1  0
 15 16  1  0
 17 11  1  0
 17 16  1  0
 18 11  2  0
 19 20  2  0
 20 39  1  0
 21 20  1  0
 21 24  1  0
 22 19  1  0
 22 23  1  0
 23 21  2  0
 24 25  1  0
 25 26  2  0
 27 30  1  0
 27 26  1  0
 28 27  2  0
 29 28  1  0
 29 24  2  0
 30 31  1  0
 31 32  1  0
 32 33  2  0
 34 33  1  0
 34 38  1  0
 35 34  2  0
 36 31  2  0
 36 35  1  0
 37 36  1  0
 39 40  1  0
 40 43  1  0
 40 42  1  0
 41 39  2  0
 44 45  1  0
 44 19  1  0
 46 44  1  0
 48 49  1  0
 48 47  2  0
 50 61  2  0
 51 49  1  0
 51 56  1  0
 52 60  1  0
 52 62  1  0
 53 59  1  0
 53 55  1  0
 54 60  1  0
 55 56  2  0
 55 54  1  0
 57 51  2  0
 58 57  1  0
 58 53  2  0
 59 52  1  0
 60 50  1  0
 62 64  2  0
 63 62  1  0
 65 63  1  0
 66 75  2  0
 66 71  1  0
 67 63  1  0
 67 71  1  0
 68 67  1  0
 69 70  1  0
 69 68  1  0
 70 66  1  0
 71 72  2  0
 72 73  1  0
 74 73  2  0
 75 74  1  0
 76 50  1  0
 76 81  1  0
 76 77  1  0
 77 80  1  1
 77 78  1  0
 79 77  1  0
 81 84  1  0
 82 86  1  0
 82 81  1  0
 83 82  2  0
 86 85  1  0
 88 86  1  0
 88 89  1  0
 88 87  1  0
M  ISO  4  10 100  11 100  48 101  49 101
M  END
>  <TORSDO>  (46) 
F 20

>  <SCORE>  (46) 
-14.731

>  <name>  (46) 
46

>  <ligand_id>  (46) 
46

>  <original_smiles>  (46) 
[H]c1c([H])c([H])c2c(c1[H])C([H])([H])C([H])([H])C([H])([H])C2([H])N([H])C(=O)C1([H])N(C(=O)C([H])(N([H])C(=O)C([H])(N([H])C([H])([H])[H])C([H])([H])[H])C(C([H])([H])[H])(C([H])([H])[H])C([H])([H])[H])C([H])([H])c2c([H])c(OC([H])([H])C([H])([H])n3c([H])nc(C([H])(C([H])([H])[H])C(C(=O)N4C([H])([H])C([H])([H])C([H])([H])C([H])(n5nc(-c6c([H])c([H])c(Oc7c([H])c([H])c(F)c([H])c7F)c([H])c6[H])c(C(=O)N([H])[H])c5N([H])[H])C4([H])[H])(C([H])([H])[H])C([H])([H])[H])c3[H])c([H])c([H])c2C1([H])[H]

>  <smiles>  (46) 
[H]c1c([H])c([H])c2c(c1[H])C([H])([H])C([H])([H])C([H])([H])C2([H])N([H])C(=O)C1([H])N(C(=O)C([H])(N([H])C(=O)C([H])(N([H])C([H])([H])[H])C([H])([H])[H])C(C([H])([H])[H])(C([H])([H])[H])C([H])([H])[H])C([H])([H])c2c([H])c(OC([H])([H])C([H])([H])n3c([H])nc(C([H])(C([H])([H])[H])C(C(=O)N4C([H])([H])C([H])([H])C([H])([H])C([H])(n5nc(-c6c([H])c([H])c(Oc7c([H])c([H])c(F)c([H])c7F)c([H])c6[H])c(C(=O)N([H])[H])c5N([H])[H])C4([H])[H])(C([H])([H])[H])C([H])([H])[H])c3[H])c([H])c([H])c2C1([H])[H]

$$$$
47:0:0
     RDKit          3D

 93101  0  0  1  0  0  0  0  0999 V2000
  -28.8090  -20.9300   19.5320 C   0  0  0  0  0  3  0  0  0  0  0  0
  -30.8930  -20.0590   21.1880 C   0  0  0  0  0  3  0  0  0  0  0  0
  -28.8840  -19.5670   19.9030 C   0  0  0  0  0  0  0  0  0  0  0  0
  -29.7620  -21.8690   19.9830 C   0  0  0  0  0  0  0  0  0  0  0  0
  -29.9310  -19.1190   20.7540 C   0  0  0  0  0  0  0  0  0  0  0  0
  -30.8160  -21.4190   20.8130 C   0  0  0  0  0  0  0  0  0  0  0  0
  -32.0190  -22.5140   21.3940 Cl  0  0  0  0  0  0  0  0  0  0  0  0
  -26.6100  -18.5380   20.3460 C   0  0  0  0  0  1  0  0  0  0  0  0
  -27.8080  -18.6220   19.3900 C   0  0  0  0  0  2  0  0  0  0  0  0
  -29.6380  -23.3390   19.5580 C   0  0  0  0  0  2  0  0  0  0  0  0
  -29.3670  -24.3200   20.7290 C   0  0  0  0  0  2  0  0  0  0  0  0
  -28.0580  -25.1390   20.6270 C   0  0  0  0  0  2  0  0  0  0  0  0
  -28.2010  -26.3810   19.9200 O   0  0  0  0  0  0  0  0  0  0  0  0
  -24.5040  -31.6390   23.0180 C   0  0  0  0  0  0  0  0  0  0  0  0
  -27.0560  -27.1500   19.9280 C   0  0  0  0  0  0  0  0  0  0  0  0
  -23.2610  -30.2440   21.3970 C   0  0  0  0  0  3  0  0  0  0  0  0
  -24.6790  -28.6790   19.9640 C   0  0  0  0  0  0  0  0  0  0  0  0
  -25.7890  -30.5710   21.1660 C   0  0  0  0  0  2  0  0  0  0  0  0
  -25.8520  -29.1960   20.5320 C   0  0  0  0  0  0  0  0  0  0  0  0
  -27.0460  -28.4390   20.5080 C   0  0  0  0  0  3  0  0  0  0  0  0
  -25.8690  -26.6490   19.3520 C   0  0  0  0  0  3  0  0  0  0  0  0
  -24.6820  -27.4040   19.3730 C   0  0  0  0  0  3  0  0  0  0  0  0
  -23.4460  -29.5530   20.0200 C   0  0  0  0  0  2  0  0  0  0  0  0
  -24.5370  -30.8310   21.9190 N   0  0  0  0  0  0  0  0  0  0  0  0
  -23.4330  -31.9260   23.5690 O   0  0  0  0  0  0  0  0  0  0  0  0
  -22.6080  -29.2360   22.3710 C   0  0  0  0  0  0  0  0  0  0  0  0
  -21.2830  -29.0500   22.2400 N   0  0  0  0  0  0  0  0  0  0  0  0
  -23.2890  -28.6250   23.1980 O   0  0  0  0  0  0  0  0  0  0  0  0
  -20.7960  -29.5960   21.5430 H   0  0  0  0  0  0  0  0  0  0  0  0
  -17.9060  -27.8740   22.7550 C   0  0  0  0  0  0  0  0  0  0  0  0
  -20.4650  -28.1230   23.0210 C   0  0  0  0  0  3  0  0  0  0  0  0
  -20.5610  -26.6870   22.4570 C   0  0  0  0  0  2  0  0  0  0  0  0
  -19.4570  -26.3600   21.4490 C   0  0  0  0  0  2  0  0  0  0  0  0
  -18.0760  -26.5180   22.0920 C   0  0  0  0  0  2  0  0  0  0  0  0
  -19.0290  -28.6350   23.1770 C   0  0  0  0  0  0  0  0  0  0  0  0
  -18.8170  -29.9050   23.7550 C   0  0  0  0  0  3  0  0  0  0  0  0
  -17.5150  -30.4150   23.9180 C   0  0  0  0  0  3  0  0  0  0  0  0
  -16.4070  -29.6520   23.5130 C   0  0  0  0  0  3  0  0  0  0  0  0
  -16.6030  -28.3830   22.9380 C   0  0  0  0  0  3  0  0  0  0  0  0
  -25.8060  -32.2540   23.6190 C   0  0  0  0  0  3  0  0  0  0  0  0
  -25.4890  -33.6220   24.0500 N   0  0  0  0  0  0  0  0  0  0  0  0
  -25.7840  -34.7270   23.3520 C   0  0  0  0  0  0  0  0  0  0  0  0
  -26.4220  -34.7000   22.2950 O   0  0  0  0  0  0  0  0  0  0  0  0
  -24.9170  -33.7150   24.8760 H   0  0  0  0  0  0  0  0  0  0  0  0
  -24.0300  -36.5180   23.1550 C   0  0  0  0  0  1  0  0  0  0  0  0
  -25.2910  -36.0740   23.9130 C   0  0  0  0  0  3  0  0  0  0  0  0
  -27.4310  -36.9270   24.7660 C   0  0  0  0  0  1  0  0  0  0  0  0
  -26.3110  -37.1440   23.8530 N   0  0  0  0  0  0  0  0  0  0  0  0
  -25.8980  -38.0480   24.0680 H   0  0  0  0  0  0  0  0  0  0  0  0
  -26.3970  -31.4140   24.8170 C   0  0  1  0  0  0  0  0  0  0  0  0
  -25.3510  -31.0470   25.8960 C   0  0  0  0  0  1  0  0  0  0  0  0
  -27.0260  -30.0970   24.3030 C   0  0  0  0  0  1  0  0  0  0  0  0
  -27.5330  -32.2080   25.5040 C   0  0  0  0  0  1  0  0  0  0  0  0
  -30.0170  -17.6740   21.2660 C   0  0  0  0  0  2  0  0  0  0  0  0
  -30.5580  -16.6530   20.2300 C   0  0  0  0  0  2  0  0  0  0  0  0
  -31.0020  -14.2900   19.7540 C   0  0  0  0  0  0  0  0  0  0  0  0
  -30.4220  -12.2710   18.4500 C   0  0  0  0  0  2  0  0  0  0  0  0
  -29.3460  -12.6000   17.3970 C   0  0  0  0  0  2  0  0  0  0  0  0
  -27.9370  -12.4520   18.0010 C   0  0  0  0  0  2  0  0  0  0  0  0
  -27.7910  -13.1970   19.3540 C   0  0  0  0  0  3  0  0  0  0  0  0
  -28.9690  -12.8680   20.2980 C   0  0  0  0  0  2  0  0  0  0  0  0
  -30.2300  -13.1740   19.5990 N   0  0  0  0  0  0  0  0  0  0  0  0
  -31.9620  -14.5290   19.0140 O   0  0  0  0  0  0  0  0  0  0  0  0
  -30.7840  -14.9490   22.0760 C   0  0  0  0  0  1  0  0  0  0  0  0
  -30.5790  -15.2230   20.6470 N   0  0  0  0  0  0  0  0  0  0  0  0
  -25.5230  -13.8000   20.4150 C   0  0  0  0  0  0  0  0  0  0  0  0
  -24.4880  -13.0250   20.8650 C   0  0  0  0  0  0  0  0  0  0  0  0
  -24.8980  -11.6690   20.6750 C   0  0  0  0  0  0  0  0  0  0  0  0
  -26.5010  -12.9160   19.9840 N   0  0  0  0  0  0  0  0  0  0  0  0
  -26.1340  -11.6260   20.1960 N   0  0  0  0  0  0  0  0  0  0  0  0
  -24.1630  -10.4130   20.8670 C   0  0  0  0  0  0  0  0  0  0  0  0
  -24.5510   -9.4740   21.8490 C   0  0  0  0  0  3  0  0  0  0  0  0
  -23.8190   -8.2800   22.0260 C   0  0  0  0  0  3  0  0  0  0  0  0
  -22.6830   -8.0170   21.2240 C   0  0  0  0  0  0  0  0  0  0  0  0
  -22.3150   -8.9440   20.2350 C   0  0  0  0  0  3  0  0  0  0  0  0
  -23.0480  -10.1300   20.0540 C   0  0  0  0  0  3  0  0  0  0  0  0
  -21.9250   -6.8740   21.3100 O   0  0  0  0  0  0  0  0  0  0  0  0
  -21.6710   -6.2680   22.5140 C   0  0  0  0  0  0  0  0  0  0  0  0
  -21.0240   -6.9500   23.5700 C   0  0  0  0  0  3  0  0  0  0  0  0
  -20.7190   -6.2680   24.7650 C   0  0  0  0  0  3  0  0  0  0  0  0
  -21.0500   -4.9060   24.9050 C   0  0  0  0  0  0  0  0  0  0  0  0
  -21.6870   -4.2250   23.8530 C   0  0  0  0  0  3  0  0  0  0  0  0
  -21.9940   -4.9040   22.6600 C   0  0  0  0  0  0  0  0  0  0  0  0
  -22.5900   -4.2380   21.6430 F   0  0  0  0  0  0  0  0  0  0  0  0
  -20.7490   -4.2490   26.0490 F   0  0  0  0  0  0  0  0  0  0  0  0
  -23.1540  -13.5110   21.3530 C   0  0  0  0  0  0  0  0  0  0  0  0
  -22.5550  -12.8010   22.3020 N   0  0  0  0  0  0  0  0  0  0  0  0
  -22.6580  -14.5520   20.9250 O   0  0  0  0  0  0  0  0  0  0  0  0
  -22.9730  -11.9580   22.6700 H   0  0  0  0  0  0  0  0  0  0  0  0
  -21.6610  -13.1010   22.6660 H   0  0  0  0  0  0  0  0  0  0  0  0
  -25.7080  -15.1760   20.3180 N   0  0  0  0  0  0  0  0  0  0  0  0
  -24.9870  -15.8390   20.5810 H   0  0  0  0  0  0  0  0  0  0  0  0
  -26.5350  -15.6160   19.9320 H   0  0  0  0  0  0  0  0  0  0  0  0
  1  3  2  0
  1  4  1  0
  3  5  1  0
  4  6  2  0
  5  2  2  0
  5 54  1  0
  6  2  1  0
  6  7  1  0
  9  3  1  0
  9  8  1  0
 10  4  1  0
 10 11  1  0
 12 11  1  0
 13 15  1  0
 13 12  1  0
 14 25  2  0
 15 20  1  0
 16 24  1  0
 16 26  1  0
 17 23  1  0
 17 19  1  0
 18 24  1  0
 19 18  1  0
 20 19  2  0
 21 22  1  0
 21 15  2  0
 22 17  2  0
 23 16  1  0
 24 14  1  0
 26 28  2  0
 27 26  1  0
 29 27  1  0
 30 39  2  0
 30 35  1  0
 31 27  1  0
 31 35  1  0
 32 31  1  0
 33 34  1  0
 33 32  1  0
 34 30  1  0
 35 36  2  0
 36 37  1  0
 38 37  2  0
 39 38  1  0
 40 14  1  0
 40 41  1  0
 40 50  1  0
 41 44  1  0
 42 46  1  0
 42 41  1  0
 43 42  2  0
 46 45  1  0
 48 46  1  0
 48 49  1  0
 48 47  1  0
 50 53  1  1
 50 51  1  0
 52 50  1  0
 55 65  1  0
 55 54  1  0
 56 65  1  0
 57 62  1  0
 58 59  1  0
 58 57  1  0
 60 59  1  0
 60 69  1  0
 60 61  1  0
 62 56  1  0
 62 61  1  0
 63 56  2  0
 65 64  1  0
 66 67  2  0
 67 86  1  0
 68 67  1  0
 68 71  1  0
 69 70  1  0
 69 66  1  0
 70 68  2  0
 71 72  1  0
 72 73  2  0
 74 77  1  0
 74 73  1  0
 75 74  2  0
 76 75  1  0
 76 71  2  0
 77 78  1  0
 78 83  2  0
 78 79  1  0
 79 80  2  0
 80 81  1  0
 81 85  1  0
 82 81  2  0
 83 82  1  0
 84 83  1  0
 86 87  1  0
 87 90  1  0
 87 89  1  0
 88 86  2  0
 91 66  1  0
 91 92  1  0
 93 91  1  0
M  ISO  4  12 101  13 101  56 100  65 100
M  END
>  <TORSDO>  (47) 
F 22

>  <SCORE>  (47) 
-10.898

>  <name>  (47) 
47

>  <ligand_id>  (47) 
47

>  <original_smiles>  (47) 
[H]c1c([H])c([H])c2c(c1[H])C([H])([H])C([H])([H])C([H])([H])C2([H])N([H])C(=O)C1([H])N(C(=O)C([H])(N([H])C(=O)C([H])(N([H])C([H])([H])[H])C([H])([H])[H])C(C([H])([H])[H])(C([H])([H])[H])C([H])([H])[H])C([H])([H])c2c([H])c(OC([H])([H])C([H])([H])C([H])([H])c3c([H])c(C([H])([H])C([H])([H])[H])c(C([H])([H])C([H])([H])N(C(=O)N4C([H])([H])C([H])([H])C([H])([H])C([H])(n5nc(-c6c([H])c([H])c(Oc7c([H])c([H])c(F)c([H])c7F)c([H])c6[H])c(C(=O)N([H])[H])c5N([H])[H])C4([H])[H])C([H])([H])[H])c([H])c3Cl)c([H])c([H])c2C1([H])[H]

>  <smiles>  (47) 
[H]c1c([H])c([H])c2c(c1[H])C([H])([H])C([H])([H])C([H])([H])C2([H])N([H])C(=O)C1([H])N(C(=O)C([H])(N([H])C(=O)C([H])(N([H])C([H])([H])[H])C([H])([H])[H])C(C([H])([H])[H])(C([H])([H])[H])C([H])([H])[H])C([H])([H])c2c([H])c(OC([H])([H])C([H])([H])C([H])([H])c3c([H])c(C([H])([H])C([H])([H])[H])c(C([H])([H])C([H])([H])N(C(=O)N4C([H])([H])C([H])([H])C([H])([H])C([H])(n5nc(-c6c([H])c([H])c(Oc7c([H])c([H])c(F)c([H])c7F)c([H])c6[H])c(C(=O)N([H])[H])c5N([H])[H])C4([H])[H])C([H])([H])[H])c([H])c3Cl)c([H])c([H])c2C1([H])[H]

$$$$
48:0:0
     RDKit          3D

 93101  0  0  1  0  0  0  0  0999 V2000
  -29.9470  -20.7730   21.6510 C   0  0  0  0  0  3  0  0  0  0  0  0
  -30.5690  -19.5960   22.0860 C   0  0  0  0  0  0  0  0  0  0  0  0
  -29.2620  -20.7260   20.4290 C   0  0  0  0  0  0  0  0  0  0  0  0
  -29.7930  -18.4680   20.2580 C   0  0  0  0  0  0  0  0  0  0  0  0
  -30.4750  -18.4420   21.3990 N   0  0  0  0  0  0  0  0  0  0  0  0
  -29.2160  -19.5650   19.7370 N   0  0  0  0  0  0  0  0  0  0  0  0
  -32.7130  -20.4910   23.0580 C   0  0  0  0  0  1  0  0  0  0  0  0
  -31.4740  -19.6190   23.3020 C   0  0  0  0  0  2  0  0  0  0  0  0
  -28.3610  -17.0850   18.6790 C   0  0  0  0  0  1  0  0  0  0  0  0
  -29.6980  -17.1530   19.4490 C   0  0  0  0  0  3  0  0  0  0  0  0
  -30.6110  -14.8580   19.9070 C   0  0  0  0  0  0  0  0  0  0  0  0
  -30.3700  -12.6140   18.9240 C   0  0  0  0  0  2  0  0  0  0  0  0
  -29.3370  -12.7250   17.7830 C   0  0  0  0  0  2  0  0  0  0  0  0
  -27.9010  -12.5450   18.3140 C   0  0  0  0  0  2  0  0  0  0  0  0
  -27.6170  -13.3950   19.5820 C   0  0  0  0  0  3  0  0  0  0  0  0
  -28.7650  -13.2770   20.6140 C   0  0  0  0  0  2  0  0  0  0  0  0
  -30.0250  -13.6270   19.9370 N   0  0  0  0  0  0  0  0  0  0  0  0
  -31.7050  -15.0530   19.3700 O   0  0  0  0  0  0  0  0  0  0  0  0
  -29.8090  -15.8910   20.2290 N   0  0  0  0  0  0  0  0  0  0  0  0
  -29.0230  -15.6940   20.8290 H   0  0  0  0  0  0  0  0  0  0  0  0
  -25.2940  -13.9340   20.5440 C   0  0  0  0  0  0  0  0  0  0  0  0
  -24.2680  -13.1330   20.9630 C   0  0  0  0  0  0  0  0  0  0  0  0
  -24.7290  -11.7890   20.8060 C   0  0  0  0  0  0  0  0  0  0  0  0
  -26.3160  -13.0780   20.1650 N   0  0  0  0  0  0  0  0  0  0  0  0
  -25.9850  -11.7800   20.3790 N   0  0  0  0  0  0  0  0  0  0  0  0
  -24.0270  -10.5100   20.9850 C   0  0  0  0  0  0  0  0  0  0  0  0
  -24.4700   -9.5490   21.9200 C   0  0  0  0  0  3  0  0  0  0  0  0
  -23.7660   -8.3370   22.0880 C   0  0  0  0  0  3  0  0  0  0  0  0
  -22.6060   -8.0780   21.3190 C   0  0  0  0  0  0  0  0  0  0  0  0
  -22.1850   -9.0290   20.3710 C   0  0  0  0  0  3  0  0  0  0  0  0
  -22.8900  -10.2310   20.2020 C   0  0  0  0  0  3  0  0  0  0  0  0
  -21.8770   -6.9160   21.3930 O   0  0  0  0  0  0  0  0  0  0  0  0
  -21.7390   -6.2280   22.5710 C   0  0  0  0  0  0  0  0  0  0  0  0
  -21.1160   -6.8010   23.7010 C   0  0  0  0  0  3  0  0  0  0  0  0
  -20.9330   -6.0340   24.8690 C   0  0  0  0  0  3  0  0  0  0  0  0
  -21.3640   -4.6940   24.9080 C   0  0  0  0  0  0  0  0  0  0  0  0
  -21.9830   -4.1210   23.7810 C   0  0  0  0  0  3  0  0  0  0  0  0
  -22.1660   -4.8850   22.6160 C   0  0  0  0  0  0  0  0  0  0  0  0
  -22.7400   -4.3210   21.5260 F   0  0  0  0  0  0  0  0  0  0  0  0
  -21.1830   -3.9550   26.0260 F   0  0  0  0  0  0  0  0  0  0  0  0
  -22.8990  -13.5820   21.3880 C   0  0  0  0  0  0  0  0  0  0  0  0
  -22.2540  -12.8270   22.2710 N   0  0  0  0  0  0  0  0  0  0  0  0
  -22.4130  -14.6340   20.9760 O   0  0  0  0  0  0  0  0  0  0  0  0
  -22.6630  -11.9770   22.6300 H   0  0  0  0  0  0  0  0  0  0  0  0
  -21.3380  -13.1060   22.5930 H   0  0  0  0  0  0  0  0  0  0  0  0
  -25.4360  -15.3150   20.4340 N   0  0  0  0  0  0  0  0  0  0  0  0
  -24.6810  -15.9550   20.6550 H   0  0  0  0  0  0  0  0  0  0  0  0
  -26.2290  -15.7710   20.0070 H   0  0  0  0  0  0  0  0  0  0  0  0
  -28.6260  -21.8140   19.8320 O   0  0  0  0  0  0  0  0  0  0  0  0
  -28.5710  -23.0650   20.5550 C   0  0  0  0  0  2  0  0  0  0  0  0
  -28.1160  -24.3000   19.7100 C   0  0  0  0  0  2  0  0  0  0  0  0
  -27.8740  -25.5930   20.5500 C   0  0  0  0  0  2  0  0  0  0  0  0
  -27.8740  -26.8310   19.7970 O   0  0  0  0  0  0  0  0  0  0  0  0
  -24.5360  -32.0760   23.3390 C   0  0  0  0  0  0  0  0  0  0  0  0
  -26.7500  -27.6260   19.9280 C   0  0  0  0  0  0  0  0  0  0  0  0
  -23.1500  -30.7700   21.7620 C   0  0  0  0  0  3  0  0  0  0  0  0
  -24.4260  -29.2260   20.1780 C   0  0  0  0  0  0  0  0  0  0  0  0
  -25.6650  -31.0450   21.3640 C   0  0  0  0  0  2  0  0  0  0  0  0
  -25.6490  -29.6920   20.6780 C   0  0  0  0  0  0  0  0  0  0  0  0
  -26.8180  -28.9040   20.5380 C   0  0  0  0  0  3  0  0  0  0  0  0
  -25.5120  -27.1780   19.4250 C   0  0  0  0  0  3  0  0  0  0  0  0
  -24.3550  -27.9720   19.5470 C   0  0  0  0  0  3  0  0  0  0  0  0
  -23.2190  -30.1230   20.3520 C   0  0  0  0  0  2  0  0  0  0  0  0
  -24.4730  -31.3100   22.2110 N   0  0  0  0  0  0  0  0  0  0  0  0
  -23.5120  -32.3670   23.9760 O   0  0  0  0  0  0  0  0  0  0  0  0
  -22.5380  -29.7450   22.7440 C   0  0  0  0  0  0  0  0  0  0  0  0
  -21.2350  -29.4640   22.5850 N   0  0  0  0  0  0  0  0  0  0  0  0
  -23.2370  -29.2010   23.6030 O   0  0  0  0  0  0  0  0  0  0  0  0
  -20.7320  -29.9540   21.8580 H   0  0  0  0  0  0  0  0  0  0  0  0
  -17.9830  -27.9190   22.9140 C   0  0  0  0  0  0  0  0  0  0  0  0
  -20.4610  -28.5010   23.3670 C   0  0  0  0  0  3  0  0  0  0  0  0
  -20.7750  -27.0510   22.9320 C   0  0  0  0  0  2  0  0  0  0  0  0
  -19.8130  -26.5200   21.8650 C   0  0  0  0  0  2  0  0  0  0  0  0
  -18.3710  -26.5510   22.3780 C   0  0  0  0  0  2  0  0  0  0  0  0
  -18.9670  -28.8410   23.3630 C   0  0  0  0  0  0  0  0  0  0  0  0
  -18.5540  -30.1130   23.8180 C   0  0  0  0  0  3  0  0  0  0  0  0
  -17.1930  -30.4660   23.8310 C   0  0  0  0  0  3  0  0  0  0  0  0
  -16.2240  -29.5440   23.4020 C   0  0  0  0  0  3  0  0  0  0  0  0
  -16.6190  -28.2730   22.9480 C   0  0  0  0  0  3  0  0  0  0  0  0
  -25.8900  -32.6430   23.8700 C   0  0  0  0  0  3  0  0  0  0  0  0
  -25.6720  -34.0510   24.2300 N   0  0  0  0  0  0  0  0  0  0  0  0
  -25.9960  -35.0930   23.4510 C   0  0  0  0  0  0  0  0  0  0  0  0
  -26.5840  -34.9660   22.3750 O   0  0  0  0  0  0  0  0  0  0  0  0
  -25.1460  -34.2260   25.0740 H   0  0  0  0  0  0  0  0  0  0  0  0
  -24.3280  -36.9630   23.2350 C   0  0  0  0  0  1  0  0  0  0  0  0
  -25.6080  -36.4990   23.9500 C   0  0  0  0  0  3  0  0  0  0  0  0
  -27.8300  -37.2890   24.6320 C   0  0  0  0  0  1  0  0  0  0  0  0
  -26.6760  -37.5040   23.7630 N   0  0  0  0  0  0  0  0  0  0  0  0
  -26.3200  -38.4420   23.9340 H   0  0  0  0  0  0  0  0  0  0  0  0
  -26.4620  -31.8380   25.1010 C   0  0  1  0  0  0  0  0  0  0  0  0
  -25.4290  -31.6080   26.2290 C   0  0  0  0  0  1  0  0  0  0  0  0
  -26.9860  -30.4550   24.6540 C   0  0  0  0  0  1  0  0  0  0  0  0
  -27.6690  -32.5940   25.7060 C   0  0  0  0  0  1  0  0  0  0  0  0
  1  2  2  0
  2  8  1  0
  3  1  1  0
  4  5  2  0
  5  2  1  0
  6  4  1  0
  6  3  2  0
  7  8  1  0
 10  9  1  0
 10 19  1  0
 10  4  1  0
 11 17  1  0
 11 19  1  0
 12 17  1  0
 13 14  1  0
 13 12  1  0
 15 14  1  0
 15 24  1  0
 15 16  1  0
 17 16  1  0
 18 11  2  0
 19 20  1  0
 21 22  2  0
 22 41  1  0
 23 22  1  0
 23 26  1  0
 24 25  1  0
 24 21  1  0
 25 23  2  0
 26 27  1  0
 27 28  2  0
 29 32  1  0
 29 28  1  0
 30 29  2  0
 31 30  1  0
 31 26  2  0
 32 33  1  0
 33 38  2  0
 33 34  1  0
 34 35  2  0
 35 36  1  0
 36 40  1  0
 37 36  2  0
 38 37  1  0
 39 38  1  0
 41 42  1  0
 42 45  1  0
 42 44  1  0
 43 41  2  0
 46 21  1  0
 46 47  1  0
 48 46  1  0
 49  3  1  0
 49 50  1  0
 51 52  1  0
 51 50  1  0
 53 55  1  0
 53 52  1  0
 54 65  2  0
 55 60  1  0
 56 64  1  0
 56 66  1  0
 57 63  1  0
 57 59  1  0
 58 64  1  0
 59 58  1  0
 60 59  2  0
 61 62  1  0
 61 55  2  0
 62 57  2  0
 63 56  1  0
 64 54  1  0
 66 68  2  0
 67 66  1  0
 69 67  1  0
 70 79  2  0
 70 75  1  0
 71 67  1  0
 72 71  1  0
 73 74  1  0
 73 72  1  0
 74 70  1  0
 75 71  1  0
 75 76  2  0
 76 77  1  0
 78 77  2  0
 79 78  1  0
 80 54  1  0
 80 81  1  0
 80 90  1  0
 81 84  1  0
 82 86  1  0
 82 81  1  0
 83 82  2  0
 86 85  1  0
 88 89  1  0
 88 86  1  0
 88 87  1  0
 90 93  1  1
 90 91  1  0
 92 90  1  0
M  ISO  4  11 100  19 100  52 101  53 101
M  END
>  <TORSDO>  (48) 
F 22

>  <SCORE>  (48) 
-12.871

>  <name>  (48) 
48

>  <ligand_id>  (48) 
48

>  <original_smiles>  (48) 
[H]c1c(OC([H])([H])C([H])([H])C([H])([H])Oc2c([H])c([H])c3c(c2[H])C([H])([H])N(C(=O)C([H])(N([H])C(=O)C([H])(N([H])C([H])([H])[H])C([H])([H])[H])C(C([H])([H])[H])(C([H])([H])[H])C([H])([H])[H])C([H])(C(=O)N([H])C2([H])c4c([H])c([H])c([H])c([H])c4C([H])([H])C([H])([H])C2([H])[H])C3([H])[H])nc(C([H])(N([H])C(=O)N2C([H])([H])C([H])([H])C([H])([H])C([H])(n3nc(-c4c([H])c([H])c(Oc5c([H])c([H])c(F)c([H])c5F)c([H])c4[H])c(C(=O)N([H])[H])c3N([H])[H])C2([H])[H])C([H])([H])[H])nc1C([H])([H])C([H])([H])[H]

>  <smiles>  (48) 
[H]c1c(OC([H])([H])C([H])([H])C([H])([H])Oc2c([H])c([H])c3c(c2[H])C([H])([H])N(C(=O)C([H])(N([H])C(=O)C([H])(N([H])C([H])([H])[H])C([H])([H])[H])C(C([H])([H])[H])(C([H])([H])[H])C([H])([H])[H])C([H])(C(=O)N([H])C2([H])c4c([H])c([H])c([H])c([H])c4C([H])([H])C([H])([H])C2([H])[H])C3([H])[H])nc(C([H])(N([H])C(=O)N2C([H])([H])C([H])([H])C([H])([H])C([H])(n3nc(-c4c([H])c([H])c(Oc5c([H])c([H])c(F)c([H])c5F)c([H])c4[H])c(C(=O)N([H])[H])c3N([H])[H])C2([H])[H])C([H])([H])[H])nc1C([H])([H])C([H])([H])[H]

$$$$
49:0:0
     RDKit          3D

 94102  0  0  1  0  0  0  0  0999 V2000
  -29.6970  -21.0900   20.6630 C   0  0  0  0  0  3  0  0  0  0  0  0
  -29.5180  -19.7980   20.0600 C   0  0  0  0  0  0  0  0  0  0  0  0
  -28.8940  -22.2150   20.2560 C   0  0  0  0  0  0  0  0  0  0  0  0
  -27.8710  -20.7690   18.7740 C   0  0  0  0  0  0  0  0  0  0  0  0
  -26.8310  -20.5820   17.6940 C   0  0  0  0  0  1  0  0  0  0  0  0
  -28.5750  -19.6870   19.1050 N   0  0  0  0  0  0  0  0  0  0  0  0
  -27.9970  -21.9980   19.2730 N   0  0  0  0  0  0  0  0  0  0  0  0
  -30.6520  -18.4360   21.8860 C   0  0  0  0  0  1  0  0  0  0  0  0
  -31.7620  -18.6690   19.6560 C   0  0  0  0  0  1  0  0  0  0  0  0
  -30.4050  -18.5020   20.3640 C   0  0  2  0  0  0  0  0  0  0  0  0
  -29.8030  -17.0910   19.8470 C   0  0  0  0  0  2  0  0  0  0  0  0
  -30.8930  -14.6950   20.0260 C   0  0  0  0  0  0  0  0  0  0  0  0
  -30.6820  -12.4060   19.0600 C   0  0  0  0  0  2  0  0  0  0  0  0
  -29.6940  -12.4840   17.8730 C   0  0  0  0  0  2  0  0  0  0  0  0
  -28.2320  -12.3600   18.3490 C   0  0  0  0  0  2  0  0  0  0  0  0
  -27.9220  -13.2500   19.5830 C   0  0  0  0  0  3  0  0  0  0  0  0
  -29.0190  -13.1140   20.6650 C   0  0  0  0  0  2  0  0  0  0  0  0
  -30.3070  -13.4500   20.0410 N   0  0  0  0  0  0  0  0  0  0  0  0
  -31.9790  -14.8750   19.4680 O   0  0  0  0  0  0  0  0  0  0  0  0
  -30.1320  -15.7450   20.4880 N   0  0  0  0  0  0  0  0  0  0  0  0
  -29.3950  -15.4250   21.0990 H   0  0  0  0  0  0  0  0  0  0  0  0
  -25.5820  -13.8800   20.4380 C   0  0  0  0  0  0  0  0  0  0  0  0
  -24.5160  -13.1190   20.8420 C   0  0  0  0  0  0  0  0  0  0  0  0
  -24.9450  -11.7590   20.7500 C   0  0  0  0  0  0  0  0  0  0  0  0
  -26.5900  -12.9840   20.1220 N   0  0  0  0  0  0  0  0  0  0  0  0
  -26.2140  -11.7020   20.3690 N   0  0  0  0  0  0  0  0  0  0  0  0
  -24.1980  -10.5080   20.9470 C   0  0  0  0  0  0  0  0  0  0  0  0
  -24.5970   -9.5390   21.8940 C   0  0  0  0  0  3  0  0  0  0  0  0
  -23.8400   -8.3610   22.0720 C   0  0  0  0  0  3  0  0  0  0  0  0
  -22.6740   -8.1410   21.2990 C   0  0  0  0  0  0  0  0  0  0  0  0
  -22.2970   -9.1000   20.3420 C   0  0  0  0  0  3  0  0  0  0  0  0
  -23.0550  -10.2680   20.1610 C   0  0  0  0  0  3  0  0  0  0  0  0
  -21.8960   -7.0120   21.3840 O   0  0  0  0  0  0  0  0  0  0  0  0
  -21.7510   -6.3250   22.5640 C   0  0  0  0  0  0  0  0  0  0  0  0
  -21.1510   -6.9120   23.7000 C   0  0  0  0  0  3  0  0  0  0  0  0
  -20.9560   -6.1480   24.8690 C   0  0  0  0  0  3  0  0  0  0  0  0
  -21.3530   -4.7990   24.9020 C   0  0  0  0  0  0  0  0  0  0  0  0
  -21.9530   -4.2110   23.7730 C   0  0  0  0  0  3  0  0  0  0  0  0
  -22.1450   -4.9720   22.6060 C   0  0  0  0  0  0  0  0  0  0  0  0
  -22.6980   -4.3920   21.5120 F   0  0  0  0  0  0  0  0  0  0  0  0
  -21.1670   -4.0630   26.0220 F   0  0  0  0  0  0  0  0  0  0  0  0
  -23.1480  -13.6220   21.2050 C   0  0  0  0  0  0  0  0  0  0  0  0
  -22.4490  -12.9170   22.0880 N   0  0  0  0  0  0  0  0  0  0  0  0
  -22.7110  -14.6740   20.7420 O   0  0  0  0  0  0  0  0  0  0  0  0
  -22.8170  -12.0620   22.4780 H   0  0  0  0  0  0  0  0  0  0  0  0
  -21.5380  -13.2410   22.3770 H   0  0  0  0  0  0  0  0  0  0  0  0
  -25.7650  -15.2510   20.2930 N   0  0  0  0  0  0  0  0  0  0  0  0
  -25.0230  -15.9160   20.4860 H   0  0  0  0  0  0  0  0  0  0  0  0
  -26.5890  -15.6910   19.9030 H   0  0  0  0  0  0  0  0  0  0  0  0
  -30.4410  -24.1660   19.9500 C   0  0  0  0  0  1  0  0  0  0  0  0
  -29.3800  -23.8250   22.1900 C   0  0  0  0  0  1  0  0  0  0  0  0
  -29.1520  -23.7390   20.6690 C   0  0  2  0  0  0  0  0  0  0  0  0
  -28.0160  -24.8330   20.3110 C   0  0  0  0  0  2  0  0  0  0  0  0
  -28.2460  -26.3040   20.5300 O   0  0  0  0  0  0  0  0  0  0  0  0
  -24.5990  -31.9580   23.2390 C   0  0  0  0  0  0  0  0  0  0  0  0
  -27.1570  -27.1950   20.4150 C   0  0  0  0  0  0  0  0  0  0  0  0
  -23.3870  -30.5040   21.6570 C   0  0  0  0  0  3  0  0  0  0  0  0
  -24.8270  -28.8690   20.3120 C   0  0  0  0  0  0  0  0  0  0  0  0
  -25.9370  -30.7720   21.4770 C   0  0  0  0  0  2  0  0  0  0  0  0
  -26.0030  -29.3600   20.8950 C   0  0  0  0  0  0  0  0  0  0  0  0
  -27.1710  -28.5320   20.9360 C   0  0  0  0  0  3  0  0  0  0  0  0
  -25.9590  -26.7760   19.7920 C   0  0  0  0  0  3  0  0  0  0  0  0
  -24.8080  -27.5840   19.7530 C   0  0  0  0  0  3  0  0  0  0  0  0
  -23.6030  -29.7630   20.3120 C   0  0  0  0  0  2  0  0  0  0  0  0
  -24.6610  -31.0960   22.1810 N   0  0  0  0  0  0  0  0  0  0  0  0
  -23.5160  -32.2730   23.7520 O   0  0  0  0  0  0  0  0  0  0  0  0
  -22.6980  -29.5400   22.6550 C   0  0  0  0  0  0  0  0  0  0  0  0
  -21.3780  -29.3360   22.4960 N   0  0  0  0  0  0  0  0  0  0  0  0
  -23.3510  -28.9730   23.5330 O   0  0  0  0  0  0  0  0  0  0  0  0
  -20.9040  -29.8420   21.7600 H   0  0  0  0  0  0  0  0  0  0  0  0
  -17.9990  -28.1470   22.9830 C   0  0  0  0  0  0  0  0  0  0  0  0
  -20.5480  -28.4420   23.3070 C   0  0  0  0  0  3  0  0  0  0  0  0
  -20.6730  -26.9790   22.8200 C   0  0  0  0  0  2  0  0  0  0  0  0
  -19.6020  -26.5880   21.7970 C   0  0  0  0  0  2  0  0  0  0  0  0
  -18.2010  -26.7620   22.3910 C   0  0  0  0  0  2  0  0  0  0  0  0
  -19.1010  -28.9410   23.3990 C   0  0  0  0  0  0  0  0  0  0  0  0
  -18.8570  -30.2360   23.9070 C   0  0  0  0  0  3  0  0  0  0  0  0
  -17.5450  -30.7380   24.0020 C   0  0  0  0  0  3  0  0  0  0  0  0
  -16.4570  -29.9410   23.6060 C   0  0  0  0  0  3  0  0  0  0  0  0
  -16.6850  -28.6480   23.1030 C   0  0  0  0  0  3  0  0  0  0  0  0
  -25.8820  -32.6060   23.8390 C   0  0  0  0  0  3  0  0  0  0  0  0
  -26.4170  -31.8480   25.1140 C   0  0  1  0  0  0  0  0  0  0  0  0
  -25.3320  -31.5680   26.1800 C   0  0  0  0  0  1  0  0  0  0  0  0
  -27.0420  -30.4940   24.7150 C   0  0  0  0  0  1  0  0  0  0  0  0
  -27.5490  -32.6670   25.7770 C   0  0  0  0  0  1  0  0  0  0  0  0
  -25.5700  -34.0030   24.1680 N   0  0  0  0  0  0  0  0  0  0  0  0
  -25.8920  -35.0540   23.4030 C   0  0  0  0  0  0  0  0  0  0  0  0
  -26.5510  -34.9470   22.3650 O   0  0  0  0  0  0  0  0  0  0  0  0
  -24.9880  -34.1540   24.9790 H   0  0  0  0  0  0  0  0  0  0  0  0
  -24.1820  -36.8550   23.0200 C   0  0  0  0  0  1  0  0  0  0  0  0
  -25.4030  -36.4420   23.8560 C   0  0  0  0  0  3  0  0  0  0  0  0
  -27.5090  -37.3250   24.7540 C   0  0  0  0  0  1  0  0  0  0  0  0
  -26.4400  -37.4930   23.7740 N   0  0  0  0  0  0  0  0  0  0  0  0
  -26.0310  -38.4140   23.9070 H   0  0  0  0  0  0  0  0  0  0  0  0
  2 10  1  0
  2  1  2  0
  3  1  1  0
  3 52  1  0
  4  6  2  0
  4  7  1  0
  5  4  1  0
  6  2  1  0
  7  3  2  0
 10  9  1  6
 10  8  1  0
 11 10  1  0
 11 20  1  0
 12 18  1  0
 12 20  1  0
 13 18  1  0
 14 15  1  0
 14 13  1  0
 16 15  1  0
 16 25  1  0
 16 17  1  0
 18 17  1  0
 19 12  2  0
 20 21  1  0
 22 23  2  0
 23 42  1  0
 24 23  1  0
 24 27  1  0
 25 26  1  0
 25 22  1  0
 26 24  2  0
 27 28  1  0
 28 29  2  0
 30 33  1  0
 30 29  1  0
 31 30  2  0
 32 31  1  0
 32 27  2  0
 33 34  1  0
 34 39  2  0
 34 35  1  0
 35 36  2  0
 36 37  1  0
 37 41  1  0
 38 37  2  0
 39 38  1  0
 40 39  1  0
 42 43  1  0
 43 46  1  0
 43 45  1  0
 44 42  2  0
 47 22  1  0
 47 48  1  0
 49 47  1  0
 52 50  1  6
 52 51  1  0
 53 54  1  0
 53 52  1  0
 55 66  2  0
 56 54  1  0
 56 61  1  0
 57 65  1  0
 57 67  1  0
 58 60  1  0
 59 65  1  0
 60 61  2  0
 60 59  1  0
 62 56  2  0
 63 62  1  0
 63 58  2  0
 64 58  1  0
 64 57  1  0
 65 55  1  0
 67 69  2  0
 68 67  1  0
 70 68  1  0
 71 80  2  0
 71 76  1  0
 72 68  1  0
 72 76  1  0
 73 72  1  0
 74 75  1  0
 74 73  1  0
 75 71  1  0
 76 77  2  0
 77 78  1  0
 79 78  2  0
 80 79  1  0
 81 55  1  0
 81 86  1  0
 81 82  1  0
 82 85  1  1
 82 83  1  0
 84 82  1  0
 86 89  1  0
 87 91  1  0
 87 86  1  0
 88 87  2  0
 91 90  1  0
 93 91  1  0
 93 94  1  0
 93 92  1  0
M  ISO  4  12 100  20 100  53 101  54 101
M  END
>  <TORSDO>  (49) 
F 20

>  <SCORE>  (49) 
-13.981

>  <name>  (49) 
49

>  <ligand_id>  (49) 
49

>  <original_smiles>  (49) 
[H]c1c(C(C([H])([H])[H])(C([H])([H])[H])C([H])([H])Oc2c([H])c([H])c3c(c2[H])C([H])([H])N(C(=O)C([H])(N([H])C(=O)C([H])(N([H])C([H])([H])[H])C([H])([H])[H])C(C([H])([H])[H])(C([H])([H])[H])C([H])([H])[H])C([H])(C(=O)N([H])C2([H])c4c([H])c([H])c([H])c([H])c4C([H])([H])C([H])([H])C2([H])[H])C3([H])[H])nc(C([H])([H])[H])nc1C(C([H])([H])[H])(C([H])([H])[H])C([H])([H])N([H])C(=O)N1C([H])([H])C([H])([H])C([H])([H])C([H])(n2nc(-c3c([H])c([H])c(Oc4c([H])c([H])c(F)c([H])c4F)c([H])c3[H])c(C(=O)N([H])[H])c2N([H])[H])C1([H])[H]

>  <smiles>  (49) 
[H]c1c(C(C([H])([H])[H])(C([H])([H])[H])C([H])([H])Oc2c([H])c([H])c3c(c2[H])C([H])([H])N(C(=O)C([H])(N([H])C(=O)C([H])(N([H])C([H])([H])[H])C([H])([H])[H])C(C([H])([H])[H])(C([H])([H])[H])C([H])([H])[H])C([H])(C(=O)N([H])C2([H])c4c([H])c([H])c([H])c([H])c4C([H])([H])C([H])([H])C2([H])[H])C3([H])[H])nc(C([H])([H])[H])nc1C(C([H])([H])[H])(C([H])([H])[H])C([H])([H])N([H])C(=O)N1C([H])([H])C([H])([H])C([H])([H])C([H])(n2nc(-c3c([H])c([H])c(Oc4c([H])c([H])c(F)c([H])c4F)c([H])c3[H])c(C(=O)N([H])[H])c2N([H])[H])C1([H])[H]

$$$$
50:0:0
     RDKit          3D

 89 97  0  0  1  0  0  0  0  0999 V2000
  -28.6980  -20.5560   21.6230 C   0  0  0  0  0  3  0  0  0  0  0  0
  -28.6270  -21.9320   21.6620 C   0  0  0  0  0  3  0  0  0  0  0  0
  -29.4910  -21.3200   19.7170 C   0  0  0  0  0  3  0  0  0  0  0  0
  -29.2370  -20.1080   20.3770 C   0  0  0  0  0  0  0  0  0  0  0  0
  -29.1130  -22.4650   20.4790 N   0  0  0  0  0  0  0  0  0  0  0  0
  -29.6600  -18.5120   18.3930 C   0  0  0  0  0  1  0  0  0  0  0  0
  -29.3360  -18.5800   19.8920 C   0  0  0  0  0  3  0  0  0  0  0  0
  -30.2120  -17.4680   20.6760 C   0  0  0  0  0  2  0  0  0  0  0  0
  -30.6740  -14.8800   20.2160 C   0  0  0  0  0  0  0  0  0  0  0  0
  -30.4770  -12.6160   19.1710 C   0  0  0  0  0  2  0  0  0  0  0  0
  -29.5080  -12.6890   17.9690 C   0  0  0  0  0  2  0  0  0  0  0  0
  -28.0490  -12.5040   18.4300 C   0  0  0  0  0  2  0  0  0  0  0  0
  -27.6950  -13.3820   19.6600 C   0  0  0  0  0  3  0  0  0  0  0  0
  -28.7770  -13.2840   20.7570 C   0  0  0  0  0  2  0  0  0  0  0  0
  -30.0580  -13.6520   20.1390 N   0  0  0  0  0  0  0  0  0  0  0  0
  -31.8560  -15.0050   19.8830 O   0  0  0  0  0  0  0  0  0  0  0  0
  -29.8820  -15.9840   20.4820 N   0  0  0  0  0  0  0  0  0  0  0  0
  -28.9170  -15.7490   20.6570 H   0  0  0  0  0  0  0  0  0  0  0  0
  -25.3150  -13.9570   20.4310 C   0  0  0  0  0  0  0  0  0  0  0  0
  -24.2620  -13.1750   20.8190 C   0  0  0  0  0  0  0  0  0  0  0  0
  -24.7340  -11.8280   20.7780 C   0  0  0  0  0  0  0  0  0  0  0  0
  -26.3620  -13.0850   20.1750 N   0  0  0  0  0  0  0  0  0  0  0  0
  -26.0190  -11.8000   20.4470 N   0  0  0  0  0  0  0  0  0  0  0  0
  -24.0200  -10.5600   20.9780 C   0  0  0  0  0  0  0  0  0  0  0  0
  -24.4650   -9.6010   21.9140 C   0  0  0  0  0  3  0  0  0  0  0  0
  -23.7490   -8.3980   22.1010 C   0  0  0  0  0  3  0  0  0  0  0  0
  -22.5750   -8.1470   21.3530 C   0  0  0  0  0  0  0  0  0  0  0  0
  -22.1480   -9.0950   20.4070 C   0  0  0  0  0  3  0  0  0  0  0  0
  -22.8640  -10.2890   20.2170 C   0  0  0  0  0  3  0  0  0  0  0  0
  -21.8300   -6.9960   21.4490 O   0  0  0  0  0  0  0  0  0  0  0  0
  -21.7760   -6.2690   22.6120 C   0  0  0  0  0  0  0  0  0  0  0  0
  -21.3100   -6.8300   23.8200 C   0  0  0  0  0  3  0  0  0  0  0  0
  -21.2070   -6.0280   24.9750 C   0  0  0  0  0  3  0  0  0  0  0  0
  -21.5580   -4.6670   24.9210 C   0  0  0  0  0  0  0  0  0  0  0  0
  -22.0180   -4.1050   23.7160 C   0  0  0  0  0  3  0  0  0  0  0  0
  -22.1230   -4.9040   22.5650 C   0  0  0  0  0  0  0  0  0  0  0  0
  -22.5460   -4.3520   21.4010 F   0  0  0  0  0  0  0  0  0  0  0  0
  -21.4520   -3.8930   26.0270 F   0  0  0  0  0  0  0  0  0  0  0  0
  -22.8660  -13.6430   21.1130 C   0  0  0  0  0  0  0  0  0  0  0  0
  -22.1540  -12.9350   21.9840 N   0  0  0  0  0  0  0  0  0  0  0  0
  -22.4160  -14.6690   20.6070 O   0  0  0  0  0  0  0  0  0  0  0  0
  -22.5310  -12.1040   22.4140 H   0  0  0  0  0  0  0  0  0  0  0  0
  -21.2180  -13.2300   22.2230 H   0  0  0  0  0  0  0  0  0  0  0  0
  -25.4630  -15.3290   20.2500 N   0  0  0  0  0  0  0  0  0  0  0  0
  -24.6850  -15.9690   20.3660 H   0  0  0  0  0  0  0  0  0  0  0  0
  -26.2860  -15.7760   19.8660 H   0  0  0  0  0  0  0  0  0  0  0  0
  -29.3210  -23.9600   20.1950 C   0  0  0  0  0  3  0  0  0  0  0  0
  -28.0900  -25.0070   20.1530 C   0  0  0  0  0  3  0  0  0  0  0  0
  -28.3190  -26.5000   20.1690 O   0  0  0  0  0  0  0  0  0  0  0  0
  -24.5920  -31.9510   23.2310 C   0  0  0  0  0  0  0  0  0  0  0  0
  -27.2070  -27.3790   20.1380 C   0  0  0  0  0  0  0  0  0  0  0  0
  -23.3910  -30.5580   21.5870 C   0  0  0  0  0  3  0  0  0  0  0  0
  -24.8430  -29.0190   20.1460 C   0  0  0  0  0  0  0  0  0  0  0  0
  -25.9330  -30.8750   21.4010 C   0  0  0  0  0  2  0  0  0  0  0  0
  -26.0170  -29.4980   20.7410 C   0  0  0  0  0  0  0  0  0  0  0  0
  -27.2030  -28.6930   20.7210 C   0  0  0  0  0  3  0  0  0  0  0  0
  -26.0030  -26.9680   19.5220 C   0  0  0  0  0  3  0  0  0  0  0  0
  -24.8410  -27.7620   19.5280 C   0  0  0  0  0  3  0  0  0  0  0  0
  -23.6050  -29.8950   20.2020 C   0  0  0  0  0  2  0  0  0  0  0  0
  -24.6580  -31.1460   22.1290 N   0  0  0  0  0  0  0  0  0  0  0  0
  -23.5090  -32.2220   23.7690 O   0  0  0  0  0  0  0  0  0  0  0  0
  -22.7320  -29.5340   22.5430 C   0  0  0  0  0  0  0  0  0  0  0  0
  -21.4090  -29.3370   22.4060 N   0  0  0  0  0  0  0  0  0  0  0  0
  -23.4120  -28.9170   23.3680 O   0  0  0  0  0  0  0  0  0  0  0  0
  -20.9180  -29.8870   21.7140 H   0  0  0  0  0  0  0  0  0  0  0  0
  -18.0440  -28.0960   22.8850 C   0  0  0  0  0  0  0  0  0  0  0  0
  -20.5980  -28.3890   23.1710 C   0  0  0  0  0  3  0  0  0  0  0  0
  -20.7210  -26.9590   22.5940 C   0  0  0  0  0  2  0  0  0  0  0  0
  -19.6300  -26.6230   21.5740 C   0  0  0  0  0  2  0  0  0  0  0  0
  -18.2420  -26.7500   22.2090 C   0  0  0  0  0  2  0  0  0  0  0  0
  -19.1500  -28.8720   23.3220 C   0  0  0  0  0  0  0  0  0  0  0  0
  -18.9100  -30.1310   23.9160 C   0  0  0  0  0  3  0  0  0  0  0  0
  -17.5980  -30.6160   24.0730 C   0  0  0  0  0  3  0  0  0  0  0  0
  -16.5060  -29.8370   23.6520 C   0  0  0  0  0  3  0  0  0  0  0  0
  -16.7300  -28.5790   23.0640 C   0  0  0  0  0  3  0  0  0  0  0  0
  -25.8730  -32.5860   23.8540 C   0  0  0  0  0  3  0  0  0  0  0  0
  -26.3810  -31.8210   25.1380 C   0  0  1  0  0  0  0  0  0  0  0  0
  -25.2820  -31.5870   26.2000 C   0  0  0  0  0  1  0  0  0  0  0  0
  -26.9670  -30.4410   24.7590 C   0  0  0  0  0  1  0  0  0  0  0  0
  -27.5270  -32.6200   25.8010 C   0  0  0  0  0  1  0  0  0  0  0  0
  -25.5620  -33.9860   24.1770 N   0  0  0  0  0  0  0  0  0  0  0  0
  -25.9020  -35.0370   23.4210 C   0  0  0  0  0  0  0  0  0  0  0  0
  -26.5810  -34.9300   22.3960 O   0  0  0  0  0  0  0  0  0  0  0  0
  -24.9540  -34.1430   24.9690 H   0  0  0  0  0  0  0  0  0  0  0  0
  -24.1920  -36.8420   23.0410 C   0  0  0  0  0  1  0  0  0  0  0  0
  -25.4160  -36.4270   23.8720 C   0  0  0  0  0  3  0  0  0  0  0  0
  -27.5400  -37.3020   24.7450 C   0  0  0  0  0  1  0  0  0  0  0  0
  -26.4570  -37.4740   23.7780 N   0  0  0  0  0  0  0  0  0  0  0  0
  -26.0540  -38.3970   23.9130 H   0  0  0  0  0  0  0  0  0  0  0  0
  1  2  2  0
  3  4  2  0
  3  5  1  0
  4  1  1  0
  5  2  1  0
  7  6  1  0
  7  4  1  0
  7  8  1  0
  9 17  1  0
 10 15  1  0
 11 12  1  0
 11 10  1  0
 13 12  1  0
 13 22  1  0
 13 14  1  0
 15  9  1  0
 15 14  1  0
 16  9  2  0
 17 18  1  0
 17  8  1  0
 19 20  2  0
 20 39  1  0
 21 20  1  0
 21 24  1  0
 22 19  1  0
 22 23  1  0
 23 21  2  0
 24 25  1  0
 25 26  2  0
 27 30  1  0
 27 26  1  0
 28 27  2  0
 29 28  1  0
 29 24  2  0
 30 31  1  0
 31 32  1  0
 32 33  2  0
 34 33  1  0
 34 38  1  0
 35 34  2  0
 36 31  2  0
 36 35  1  0
 37 36  1  0
 39 40  1  0
 40 43  1  0
 40 42  1  0
 41 39  2  0
 44 45  1  0
 44 19  1  0
 46 44  1  0
 47  5  1  0
 48 49  1  0
 48 47  2  0
 50 61  2  0
 51 49  1  0
 51 56  1  0
 52 60  1  0
 52 62  1  0
 53 59  1  0
 53 55  1  0
 54 60  1  0
 55 54  1  0
 56 55  2  0
 57 58  1  0
 57 51  2  0
 58 53  2  0
 59 52  1  0
 60 50  1  0
 62 64  2  0
 63 62  1  0
 65 63  1  0
 66 75  2  0
 66 71  1  0
 67 63  1  0
 67 71  1  0
 68 67  1  0
 69 70  1  0
 69 68  1  0
 70 66  1  0
 71 72  2  0
 72 73  1  0
 74 73  2  0
 75 74  1  0
 76 50  1  0
 76 81  1  0
 76 77  1  0
 77 80  1  1
 77 78  1  0
 79 77  1  0
 81 84  1  0
 82 86  1  0
 82 81  1  0
 83 82  2  0
 86 85  1  0
 88 86  1  0
 88 89  1  0
 88 87  1  0
M  ISO  4   9 100  17 100  48 101  49 101
M  END
>  <TORSDO>  (50) 
F 20

>  <SCORE>  (50) 
-13.421

>  <name>  (50) 
50

>  <ligand_id>  (50) 
50

>  <original_smiles>  (50) 
[H]c1c([H])c([H])c2c(c1[H])C([H])([H])C([H])([H])C([H])([H])C2([H])N([H])C(=O)C1([H])N(C(=O)C([H])(N([H])C(=O)C([H])(N([H])C([H])([H])[H])C([H])([H])[H])C(C([H])([H])[H])(C([H])([H])[H])C([H])([H])[H])C([H])([H])c2c([H])c(OC([H])([H])C([H])([H])n3c([H])c([H])c(C([H])(C([H])([H])[H])C([H])([H])N([H])C(=O)N4C([H])([H])C([H])([H])C([H])([H])C([H])(n5nc(-c6c([H])c([H])c(Oc7c([H])c([H])c(F)c([H])c7F)c([H])c6[H])c(C(=O)N([H])[H])c5N([H])[H])C4([H])[H])c3[H])c([H])c([H])c2C1([H])[H]

>  <smiles>  (50) 
[H]c1c([H])c([H])c2c(c1[H])C([H])([H])C([H])([H])C([H])([H])C2([H])N([H])C(=O)C1([H])N(C(=O)C([H])(N([H])C(=O)C([H])(N([H])C([H])([H])[H])C([H])([H])[H])C(C([H])([H])[H])(C([H])([H])[H])C([H])([H])[H])C([H])([H])c2c([H])c(OC([H])([H])C([H])([H])n3c([H])c([H])c(C([H])(C([H])([H])[H])C([H])([H])N([H])C(=O)N4C([H])([H])C([H])([H])C([H])([H])C([H])(n5nc(-c6c([H])c([H])c(Oc7c([H])c([H])c(F)c([H])c7F)c([H])c6[H])c(C(=O)N([H])[H])c5N([H])[H])C4([H])[H])c3[H])c([H])c([H])c2C1([H])[H]

$$$$
51:0:0
     RDKit          3D

 92100  0  0  1  0  0  0  0  0999 V2000
  -30.3360  -21.7580   19.0980 C   0  0  0  0  0  3  0  0  0  0  0  0
  -29.2060  -20.3510   20.7000 C   0  0  0  0  0  3  0  0  0  0  0  0
  -29.4940  -21.6540   20.2220 C   0  0  0  0  0  0  0  0  0  0  0  0
  -30.8250  -20.5840   18.4950 C   0  0  0  0  0  0  0  0  0  0  0  0
  -29.7510  -19.2190   20.0440 C   0  0  0  0  0  0  0  0  0  0  0  0
  -31.7290  -20.6560   17.2840 C   0  0  0  0  0  1  0  0  0  0  0  0
  -30.5270  -19.3470   18.9440 N   0  0  0  0  0  0  0  0  0  0  0  0
  -28.2720  -17.2290   19.5930 C   0  0  0  0  0  1  0  0  0  0  0  0
  -29.4020  -17.7780   20.4680 C   0  0  0  0  0  3  0  0  0  0  0  0
  -30.6380  -16.8250   20.5270 C   0  0  0  0  0  2  0  0  0  0  0  0
  -30.7750  -14.4060   19.9870 C   0  0  0  0  0  0  0  0  0  0  0  0
  -30.2570  -12.3410   18.7180 C   0  0  0  0  0  2  0  0  0  0  0  0
  -29.2330  -12.6210   17.5990 C   0  0  0  0  0  2  0  0  0  0  0  0
  -27.7980  -12.4560   18.1360 C   0  0  0  0  0  2  0  0  0  0  0  0
  -27.5760  -13.2430   19.4480 C   0  0  0  0  0  3  0  0  0  0  0  0
  -28.7080  -12.9830   20.4620 C   0  0  0  0  0  2  0  0  0  0  0  0
  -30.0020  -13.2870   19.8220 N   0  0  0  0  0  0  0  0  0  0  0  0
  -31.7750  -14.5940   19.2880 O   0  0  0  0  0  0  0  0  0  0  0  0
  -30.2970  -15.1330   22.2730 C   0  0  0  0  0  1  0  0  0  0  0  0
  -30.3390  -15.3910   20.8260 N   0  0  0  0  0  0  0  0  0  0  0  0
  -25.2490  -13.8530   20.3710 C   0  0  0  0  0  0  0  0  0  0  0  0
  -24.2100  -13.0790   20.8170 C   0  0  0  0  0  0  0  0  0  0  0  0
  -24.6610  -11.7270   20.7250 C   0  0  0  0  0  0  0  0  0  0  0  0
  -26.2650  -12.9710   20.0320 N   0  0  0  0  0  0  0  0  0  0  0  0
  -25.9200  -11.6880   20.3060 N   0  0  0  0  0  0  0  0  0  0  0  0
  -23.9450  -10.4660   20.9530 C   0  0  0  0  0  0  0  0  0  0  0  0
  -24.4220   -9.5000   21.8660 C   0  0  0  0  0  3  0  0  0  0  0  0
  -23.7060   -8.3030   22.0810 C   0  0  0  0  0  3  0  0  0  0  0  0
  -22.4990   -8.0640   21.3790 C   0  0  0  0  0  0  0  0  0  0  0  0
  -22.0420   -9.0180   20.4530 C   0  0  0  0  0  3  0  0  0  0  0  0
  -22.7590  -10.2060   20.2390 C   0  0  0  0  0  3  0  0  0  0  0  0
  -21.7490   -6.9200   21.5030 O   0  0  0  0  0  0  0  0  0  0  0  0
  -21.7220   -6.2000   22.6710 C   0  0  0  0  0  0  0  0  0  0  0  0
  -21.3200   -6.7810   23.8930 C   0  0  0  0  0  3  0  0  0  0  0  0
  -21.2400   -5.9900   25.0560 C   0  0  0  0  0  3  0  0  0  0  0  0
  -21.5500   -4.6180   24.9980 C   0  0  0  0  0  0  0  0  0  0  0  0
  -21.9430   -4.0360   23.7800 C   0  0  0  0  0  3  0  0  0  0  0  0
  -22.0260   -4.8250   22.6190 C   0  0  0  0  0  0  0  0  0  0  0  0
  -22.3870   -4.2560   21.4430 F   0  0  0  0  0  0  0  0  0  0  0  0
  -21.4640   -3.8540   26.1120 F   0  0  0  0  0  0  0  0  0  0  0  0
  -22.8450  -13.5580   21.2150 C   0  0  0  0  0  0  0  0  0  0  0  0
  -22.1920  -12.8550   22.1340 N   0  0  0  0  0  0  0  0  0  0  0  0
  -22.3680  -14.5910   20.7460 O   0  0  0  0  0  0  0  0  0  0  0  0
  -22.5940  -12.0210   22.5340 H   0  0  0  0  0  0  0  0  0  0  0  0
  -21.2770  -13.1560   22.4420 H   0  0  0  0  0  0  0  0  0  0  0  0
  -25.4020  -15.2250   20.2050 N   0  0  0  0  0  0  0  0  0  0  0  0
  -24.6460  -15.8760   20.3810 H   0  0  0  0  0  0  0  0  0  0  0  0
  -26.2200  -15.6630   19.8050 H   0  0  0  0  0  0  0  0  0  0  0  0
  -28.9280  -22.8940   20.9310 C   0  0  0  0  0  2  0  0  0  0  0  0
  -28.9380  -24.2360   20.1430 C   0  0  0  0  0  2  0  0  0  0  0  0
  -28.3770  -25.4180   20.9700 C   0  0  0  0  0  2  0  0  0  0  0  0
  -28.4560  -26.6810   20.2890 O   0  0  0  0  0  0  0  0  0  0  0  0
  -24.6050  -31.8740   23.2910 C   0  0  0  0  0  0  0  0  0  0  0  0
  -27.2910  -27.4150   20.2830 C   0  0  0  0  0  0  0  0  0  0  0  0
  -23.4140  -30.4500   21.6540 C   0  0  0  0  0  3  0  0  0  0  0  0
  -24.8860  -28.9020   20.2580 C   0  0  0  0  0  0  0  0  0  0  0  0
  -25.9370  -30.8240   21.4630 C   0  0  0  0  0  2  0  0  0  0  0  0
  -26.0380  -29.4450   20.8430 C   0  0  0  0  0  0  0  0  0  0  0  0
  -27.2450  -28.7100   20.8500 C   0  0  0  0  0  3  0  0  0  0  0  0
  -26.1250  -26.8830   19.6920 C   0  0  0  0  0  3  0  0  0  0  0  0
  -24.9240  -27.6190   19.6800 C   0  0  0  0  0  3  0  0  0  0  0  0
  -23.6350  -29.7530   20.2840 C   0  0  0  0  0  2  0  0  0  0  0  0
  -24.6710  -31.0650   22.1960 N   0  0  0  0  0  0  0  0  0  0  0  0
  -23.5180  -32.1460   23.8210 O   0  0  0  0  0  0  0  0  0  0  0  0
  -22.7600  -29.4380   22.6210 C   0  0  0  0  0  0  0  0  0  0  0  0
  -21.4360  -29.2520   22.4860 N   0  0  0  0  0  0  0  0  0  0  0  0
  -23.4410  -28.8230   23.4470 O   0  0  0  0  0  0  0  0  0  0  0  0
  -20.9500  -29.7990   21.7890 H   0  0  0  0  0  0  0  0  0  0  0  0
  -18.0640  -28.0510   22.9640 C   0  0  0  0  0  0  0  0  0  0  0  0
  -20.6180  -28.3190   23.2590 C   0  0  0  0  0  3  0  0  0  0  0  0
  -20.7310  -26.8830   22.6970 C   0  0  0  0  0  2  0  0  0  0  0  0
  -19.6400  -26.5480   21.6750 C   0  0  0  0  0  2  0  0  0  0  0  0
  -18.2520  -26.6960   22.3040 C   0  0  0  0  0  2  0  0  0  0  0  0
  -19.1760  -28.8200   23.3970 C   0  0  0  0  0  0  0  0  0  0  0  0
  -18.9480  -30.0910   23.9710 C   0  0  0  0  0  3  0  0  0  0  0  0
  -17.6400  -30.5900   24.1170 C   0  0  0  0  0  3  0  0  0  0  0  0
  -16.5420  -29.8170   23.7010 C   0  0  0  0  0  3  0  0  0  0  0  0
  -16.7550  -28.5500   23.1290 C   0  0  0  0  0  3  0  0  0  0  0  0
  -25.8830  -32.5140   23.9140 C   0  0  0  0  0  3  0  0  0  0  0  0
  -25.5720  -33.9170   24.2190 N   0  0  0  0  0  0  0  0  0  0  0  0
  -25.9150  -34.9560   23.4470 C   0  0  0  0  0  0  0  0  0  0  0  0
  -26.5950  -34.8360   22.4250 O   0  0  0  0  0  0  0  0  0  0  0  0
  -24.9630  -34.0850   25.0070 H   0  0  0  0  0  0  0  0  0  0  0  0
  -24.1860  -36.7400   23.0510 C   0  0  0  0  0  1  0  0  0  0  0  0
  -25.4230  -36.3520   23.8770 C   0  0  0  0  0  3  0  0  0  0  0  0
  -27.5510  -37.2530   24.7040 C   0  0  0  0  0  1  0  0  0  0  0  0
  -26.4550  -37.4040   23.7510 N   0  0  0  0  0  0  0  0  0  0  0  0
  -26.0460  -38.3250   23.8820 H   0  0  0  0  0  0  0  0  0  0  0  0
  -26.3900  -31.7600   25.2040 C   0  0  1  0  0  0  0  0  0  0  0  0
  -25.2860  -31.5360   26.2630 C   0  0  0  0  0  1  0  0  0  0  0  0
  -26.9770  -30.3780   24.8310 C   0  0  0  0  0  1  0  0  0  0  0  0
  -27.5320  -32.5640   25.8680 C   0  0  0  0  0  1  0  0  0  0  0  0
  1  3  1  0
  3  2  2  0
  3 49  1  0
  4  7  1  0
  4  1  2  0
  5  9  1  0
  5  2  1  0
  6  4  1  0
  7  5  2  0
  9  8  1  0
  9 10  1  0
 10 20  1  0
 11 20  1  0
 12 17  1  0
 13 14  1  0
 13 12  1  0
 15 14  1  0
 15 24  1  0
 15 16  1  0
 17 11  1  0
 17 16  1  0
 18 11  2  0
 20 19  1  0
 21 22  2  0
 22 41  1  0
 23 22  1  0
 23 26  1  0
 24 25  1  0
 24 21  1  0
 25 23  2  0
 26 27  1  0
 27 28  2  0
 29 32  1  0
 29 28  1  0
 30 29  2  0
 31 30  1  0
 31 26  2  0
 32 33  1  0
 33 34  1  0
 34 35  2  0
 36 35  1  0
 36 40  1  0
 37 36  2  0
 38 33  2  0
 38 37  1  0
 39 38  1  0
 41 42  1  0
 42 45  1  0
 42 44  1  0
 43 41  2  0
 46 21  1  0
 46 47  1  0
 48 46  1  0
 50 49  1  0
 50 51  1  0
 52 51  1  0
 53 64  2  0
 54 52  1  0
 54 59  1  0
 55 63  1  0
 55 65  1  0
 56 62  1  0
 56 58  1  0
 57 63  1  0
 58 59  2  0
 58 57  1  0
 60 54  2  0
 61 60  1  0
 61 56  2  0
 62 55  1  0
 63 53  1  0
 65 67  2  0
 66 65  1  0
 68 66  1  0
 69 78  2  0
 69 74  1  0
 70 66  1  0
 70 74  1  0
 71 70  1  0
 72 73  1  0
 72 71  1  0
 73 69  1  0
 74 75  2  0
 75 76  1  0
 77 76  2  0
 78 77  1  0
 79 53  1  0
 79 80  1  0
 79 89  1  0
 80 83  1  0
 81 85  1  0
 81 80  1  0
 82 81  2  0
 85 84  1  0
 87 85  1  0
 87 88  1  0
 87 86  1  0
 89 92  1  1
 89 90  1  0
 91 89  1  0
M  ISO  4  11 100  20 100  51 101  52 101
M  END
>  <TORSDO>  (51) 
F 21

>  <SCORE>  (51) 
-12.488

>  <name>  (51) 
51

>  <ligand_id>  (51) 
51

>  <original_smiles>  (51) 
[H]c1c([H])c([H])c2c(c1[H])C([H])([H])C([H])([H])C([H])([H])C2([H])N([H])C(=O)C1([H])N(C(=O)C([H])(N([H])C(=O)C([H])(N([H])C([H])([H])[H])C([H])([H])[H])C(C([H])([H])[H])(C([H])([H])[H])C([H])([H])[H])C([H])([H])c2c([H])c(OC([H])([H])C([H])([H])C([H])([H])c3c([H])c(C([H])([H])[H])nc(C([H])(C([H])([H])[H])C([H])([H])N(C(=O)N4C([H])([H])C([H])([H])C([H])([H])C([H])(n5nc(-c6c([H])c([H])c(Oc7c([H])c([H])c(F)c([H])c7F)c([H])c6[H])c(C(=O)N([H])[H])c5N([H])[H])C4([H])[H])C([H])([H])[H])c3[H])c([H])c([H])c2C1([H])[H]

>  <smiles>  (51) 
[H]c1c([H])c([H])c2c(c1[H])C([H])([H])C([H])([H])C([H])([H])C2([H])N([H])C(=O)C1([H])N(C(=O)C([H])(N([H])C(=O)C([H])(N([H])C([H])([H])[H])C([H])([H])[H])C(C([H])([H])[H])(C([H])([H])[H])C([H])([H])[H])C([H])([H])c2c([H])c(OC([H])([H])C([H])([H])C([H])([H])c3c([H])c(C([H])([H])[H])nc(C([H])(C([H])([H])[H])C([H])([H])N(C(=O)N4C([H])([H])C([H])([H])C([H])([H])C([H])(n5nc(-c6c([H])c([H])c(Oc7c([H])c([H])c(F)c([H])c7F)c([H])c6[H])c(C(=O)N([H])[H])c5N([H])[H])C4([H])[H])C([H])([H])[H])c3[H])c([H])c([H])c2C1([H])[H]

$$$$
52:0:0
     RDKit          3D

 94102  0  0  1  0  0  0  0  0999 V2000
  -29.5950  -22.1580   18.1160 C   0  0  0  0  0  3  0  0  0  0  0  0
  -30.0330  -21.1040   17.3710 C   0  0  0  0  0  0  0  0  0  0  0  0
  -29.3890  -20.2950   19.3860 C   0  0  0  0  0  3  0  0  0  0  0  0
  -29.1170  -21.7190   19.3340 N   0  0  0  0  0  0  0  0  0  0  0  0
  -29.8820  -20.0160   18.1730 N   0  0  0  0  0  0  0  0  0  0  0  0
  -30.1300  -19.0780   17.8840 H   0  0  0  0  0  0  0  0  0  0  0  0
  -32.0560  -20.5470   16.0480 C   0  0  0  0  0  1  0  0  0  0  0  0
  -30.5440  -22.4040   15.3000 C   0  0  0  0  0  1  0  0  0  0  0  0
  -29.7590  -20.0290   15.1460 C   0  0  0  0  0  1  0  0  0  0  0  0
  -30.5950  -21.0200   15.9760 C   0  0  2  0  0  0  0  0  0  0  0  0
  -27.7610  -18.5350   20.3630 C   0  0  0  0  0  1  0  0  0  0  0  0
  -29.2440  -18.9110   20.2660 C   0  0  0  0  0  3  0  0  0  0  0  0
  -30.1420  -17.5050   19.8610 C   0  0  0  0  0  2  0  0  0  0  0  0
  -30.6020  -14.7840   19.9700 C   0  0  0  0  0  0  0  0  0  0  0  0
  -30.3380  -12.4890   18.9240 C   0  0  0  0  0  2  0  0  0  0  0  0
  -29.3090  -12.5400   17.7710 C   0  0  0  0  0  2  0  0  0  0  0  0
  -27.8810  -12.3340   18.3090 C   0  0  0  0  0  2  0  0  0  0  0  0
  -27.5980  -13.1920   19.5690 C   0  0  0  0  0  3  0  0  0  0  0  0
  -28.7420  -13.1200   20.6040 C   0  0  0  0  0  2  0  0  0  0  0  0
  -29.9710  -13.5400   19.9190 N   0  0  0  0  0  0  0  0  0  0  0  0
  -31.7610  -14.8360   19.5470 O   0  0  0  0  0  0  0  0  0  0  0  0
  -29.8910  -15.9860   20.2730 N   0  0  0  0  0  0  0  0  0  0  0  0
  -28.9710  -15.8130   20.6510 H   0  0  0  0  0  0  0  0  0  0  0  0
  -25.2910  -13.7680   20.5120 C   0  0  0  0  0  0  0  0  0  0  0  0
  -24.2480  -12.9930   20.9350 C   0  0  0  0  0  0  0  0  0  0  0  0
  -24.6900  -11.6390   20.8210 C   0  0  0  0  0  0  0  0  0  0  0  0
  -26.3000  -12.8890   20.1600 N   0  0  0  0  0  0  0  0  0  0  0  0
  -25.9520  -11.6000   20.4110 N   0  0  0  0  0  0  0  0  0  0  0  0
  -23.9620  -10.3790   21.0200 C   0  0  0  0  0  0  0  0  0  0  0  0
  -24.4170   -9.3970   21.9280 C   0  0  0  0  0  3  0  0  0  0  0  0
  -23.6860   -8.2040   22.1180 C   0  0  0  0  0  3  0  0  0  0  0  0
  -22.4870   -7.9840   21.4000 C   0  0  0  0  0  0  0  0  0  0  0  0
  -22.0500   -8.9540   20.4810 C   0  0  0  0  0  3  0  0  0  0  0  0
  -22.7810  -10.1390   20.2900 C   0  0  0  0  0  3  0  0  0  0  0  0
  -21.7250   -6.8450   21.5000 O   0  0  0  0  0  0  0  0  0  0  0  0
  -21.6730   -6.1140   22.6610 C   0  0  0  0  0  0  0  0  0  0  0  0
  -21.1840   -6.6640   23.8660 C   0  0  0  0  0  3  0  0  0  0  0  0
  -21.0830   -5.8580   25.0170 C   0  0  0  0  0  3  0  0  0  0  0  0
  -21.4590   -4.5030   24.9640 C   0  0  0  0  0  0  0  0  0  0  0  0
  -21.9410   -3.9520   23.7630 C   0  0  0  0  0  3  0  0  0  0  0  0
  -22.0440   -4.7550   22.6140 C   0  0  0  0  0  0  0  0  0  0  0  0
  -22.4890   -4.2140   21.4550 F   0  0  0  0  0  0  0  0  0  0  0  0
  -21.3540   -3.7260   26.0680 F   0  0  0  0  0  0  0  0  0  0  0  0
  -22.8830  -13.4760   21.3280 C   0  0  0  0  0  0  0  0  0  0  0  0
  -22.2140  -12.7610   22.2250 N   0  0  0  0  0  0  0  0  0  0  0  0
  -22.4210  -14.5240   20.8750 O   0  0  0  0  0  0  0  0  0  0  0  0
  -22.6020  -11.9130   22.6120 H   0  0  0  0  0  0  0  0  0  0  0  0
  -21.3000  -13.0670   22.5300 H   0  0  0  0  0  0  0  0  0  0  0  0
  -25.4590  -15.1430   20.3690 N   0  0  0  0  0  0  0  0  0  0  0  0
  -24.7070  -15.7970   20.5580 H   0  0  0  0  0  0  0  0  0  0  0  0
  -26.2680  -15.5820   19.9520 H   0  0  0  0  0  0  0  0  0  0  0  0
  -28.5590  -22.9090   20.2590 C   0  0  0  0  0  2  0  0  0  0  0  0
  -27.9230  -24.3780   19.6310 C   0  0  0  0  0  2  0  0  0  0  0  0
  -28.1630  -25.8830   20.0150 O   0  0  0  0  0  0  0  0  0  0  0  0
  -24.5810  -31.6030   23.0180 C   0  0  0  0  0  0  0  0  0  0  0  0
  -27.1270  -26.8940   19.9320 C   0  0  0  0  0  0  0  0  0  0  0  0
  -23.3730  -30.2330   21.3640 C   0  0  0  0  0  3  0  0  0  0  0  0
  -24.8130  -28.6690   19.9170 C   0  0  0  0  0  0  0  0  0  0  0  0
  -25.9310  -30.4800   21.2040 C   0  0  0  0  0  2  0  0  0  0  0  0
  -25.9950  -29.0950   20.5340 C   0  0  0  0  0  0  0  0  0  0  0  0
  -27.1520  -28.2240   20.5260 C   0  0  0  0  0  3  0  0  0  0  0  0
  -25.9220  -26.5830   19.2630 C   0  0  0  0  0  3  0  0  0  0  0  0
  -24.7910  -27.4280   19.2650 C   0  0  0  0  0  3  0  0  0  0  0  0
  -23.5910  -29.5720   19.9770 C   0  0  0  0  0  2  0  0  0  0  0  0
  -24.6480  -30.7950   21.9160 N   0  0  0  0  0  0  0  0  0  0  0  0
  -23.4960  -31.8890   23.5490 O   0  0  0  0  0  0  0  0  0  0  0  0
  -22.6890  -29.2190   22.3140 C   0  0  0  0  0  0  0  0  0  0  0  0
  -21.3540  -29.0850   22.2130 N   0  0  0  0  0  0  0  0  0  0  0  0
  -23.3620  -28.5550   23.1080 O   0  0  0  0  0  0  0  0  0  0  0  0
  -20.8690  -29.6730   21.5500 H   0  0  0  0  0  0  0  0  0  0  0  0
  -17.9460  -28.0120   22.8160 C   0  0  0  0  0  0  0  0  0  0  0  0
  -20.5240  -28.1510   22.9770 C   0  0  0  0  0  3  0  0  0  0  0  0
  -20.5350  -26.7430   22.3370 C   0  0  0  0  0  2  0  0  0  0  0  0
  -19.3760  -26.5150   21.3600 C   0  0  0  0  0  2  0  0  0  0  0  0
  -18.0320  -26.6900   22.0720 C   0  0  0  0  0  2  0  0  0  0  0  0
  -19.1160  -28.7050   23.2280 C   0  0  0  0  0  0  0  0  0  0  0  0
  -18.9790  -29.9450   23.8870 C   0  0  0  0  0  3  0  0  0  0  0  0
  -17.7060  -30.4910   24.1380 C   0  0  0  0  0  3  0  0  0  0  0  0
  -16.5520  -29.7950   23.7410 C   0  0  0  0  0  3  0  0  0  0  0  0
  -16.6730  -28.5550   23.0860 C   0  0  0  0  0  3  0  0  0  0  0  0
  -25.8610  -32.2260   23.6520 C   0  0  0  0  0  3  0  0  0  0  0  0
  -25.5520  -33.6200   24.0110 N   0  0  0  0  0  0  0  0  0  0  0  0
  -25.9110  -34.6920   23.2920 C   0  0  0  0  0  0  0  0  0  0  0  0
  -26.6020  -34.6110   22.2730 O   0  0  0  0  0  0  0  0  0  0  0  0
  -24.9400  -33.7560   24.8010 H   0  0  0  0  0  0  0  0  0  0  0  0
  -24.2190  -36.5240   22.9430 C   0  0  0  0  0  1  0  0  0  0  0  0
  -25.4280  -36.0730   23.7790 C   0  0  0  0  0  3  0  0  0  0  0  0
  -27.5370  -36.9080   24.7180 C   0  0  0  0  0  1  0  0  0  0  0  0
  -26.4760  -37.1140   23.7350 N   0  0  0  0  0  0  0  0  0  0  0  0
  -26.0760  -38.0350   23.8920 H   0  0  0  0  0  0  0  0  0  0  0  0
  -26.3740  -31.4350   24.9190 C   0  0  1  0  0  0  0  0  0  0  0  0
  -25.2790  -31.1870   25.9820 C   0  0  0  0  0  1  0  0  0  0  0  0
  -26.9520  -30.0590   24.5130 C   0  0  0  0  0  1  0  0  0  0  0  0
  -27.5270  -32.2150   25.5910 C   0  0  0  0  0  1  0  0  0  0  0  0
  1  4  1  0
  2  1  2  0
  2  5  1  0
  3 12  1  0
  4  3  1  0
  4 52  1  0
  5  3  1  0
  6  5  1  0
 10  8  1  6
  9 10  1  0
 10  7  1  0
 10  2  1  0
 12 11  1  0
 13 12  1  0
 13 22  1  0
 14 22  1  0
 15 20  1  0
 16 17  1  0
 16 15  1  0
 18 17  1  0
 18 27  1  0
 18 19  1  0
 20 14  1  0
 20 19  1  0
 21 14  2  0
 22 23  1  0
 24 25  2  0
 25 44  1  0
 26 25  1  0
 26 29  1  0
 27 28  1  0
 27 24  1  0
 28 26  2  0
 29 30  1  0
 30 31  2  0
 32 35  1  0
 32 31  1  0
 33 32  2  0
 34 33  1  0
 34 29  2  0
 35 36  1  0
 36 37  1  0
 37 38  2  0
 39 38  1  0
 39 43  1  0
 40 39  2  0
 41 36  2  0
 41 40  1  0
 42 41  1  0
 44 45  1  0
 45 48  1  0
 45 47  1  0
 46 44  2  0
 49 24  1  0
 49 50  1  0
 51 49  1  0
 53 54  1  0
 53 52  1  0
 55 66  2  0
 56 54  1  0
 56 61  1  0
 57 65  1  0
 57 67  1  0
 58 64  1  0
 58 60  1  0
 59 65  1  0
 60 59  1  0
 61 60  2  0
 62 63  1  0
 62 56  2  0
 63 58  2  0
 64 57  1  0
 65 55  1  0
 67 69  2  0
 68 67  1  0
 70 68  1  0
 71 80  2  0
 71 76  1  0
 72 68  1  0
 72 76  1  0
 73 72  1  0
 74 75  1  0
 74 73  1  0
 75 71  1  0
 76 77  2  0
 77 78  1  0
 79 78  2  0
 80 79  1  0
 81 55  1  0
 81 82  1  0
 81 91  1  0
 82 85  1  0
 83 87  1  0
 83 82  1  0
 84 83  2  0
 87 86  1  0
 89 87  1  0
 89 90  1  0
 89 88  1  0
 91 94  1  1
 91 92  1  0
 93 91  1  0
M  ISO  4  14 100  22 100  53 101  54 101
M  END
>  <TORSDO>  (52) 
F 21

>  <SCORE>  (52) 
-14.347

>  <name>  (52) 
52

>  <ligand_id>  (52) 
52

>  <original_smiles>  (52) 
[H]c1c([H])c([H])c2c(c1[H])C([H])([H])C([H])([H])C([H])([H])C2([H])N([H])C(=O)C1([H])N(C(=O)C([H])(N([H])C(=O)C([H])(N([H])C([H])([H])[H])C([H])([H])[H])C(C([H])([H])[H])(C([H])([H])[H])C([H])([H])[H])C([H])([H])c2c([H])c(OC([H])([H])C([H])([H])n3c([H])c(C(C([H])([H])[H])(C([H])([H])[H])C([H])([H])[H])[n+]([H])c3C([H])(C([H])([H])[H])C([H])([H])N([H])C(=O)N3C([H])([H])C([H])([H])C([H])([H])C([H])(n4nc(-c5c([H])c([H])c(Oc6c([H])c([H])c(F)c([H])c6F)c([H])c5[H])c(C(=O)N([H])[H])c4N([H])[H])C3([H])[H])c([H])c([H])c2C1([H])[H]

>  <smiles>  (52) 
[H]c1c([H])c([H])c2c(c1[H])C([H])([H])C([H])([H])C([H])([H])C2([H])N([H])C(=O)C1([H])N(C(=O)C([H])(N([H])C(=O)C([H])(N([H])C([H])([H])[H])C([H])([H])[H])C(C([H])([H])[H])(C([H])([H])[H])C([H])([H])[H])C([H])([H])c2c([H])c(OC([H])([H])C([H])([H])n3c([H])c(C(C([H])([H])[H])(C([H])([H])[H])C([H])([H])[H])[n+]([H])c3C([H])(C([H])([H])[H])C([H])([H])N([H])C(=O)N3C([H])([H])C([H])([H])C([H])([H])C([H])(n4nc(-c5c([H])c([H])c(Oc6c([H])c([H])c(F)c([H])c6F)c([H])c5[H])c(C(=O)N([H])[H])c4N([H])[H])C3([H])[H])c([H])c([H])c2C1([H])[H]

$$$$
53:0:0
     RDKit          3D

 96104  0  0  1  0  0  0  0  0999 V2000
  -33.3760  -17.8580   20.2490 C   0  0  0  0  0  3  0  0  0  0  0  0
  -34.1300  -18.9970   20.5800 C   0  0  0  0  0  0  0  0  0  0  0  0
  -33.4450  -20.1490   21.0310 C   0  0  0  0  0  0  0  0  0  0  0  0
  -31.9720  -17.8990   20.3130 C   0  0  0  0  0  0  0  0  0  0  0  0
  -32.0400  -20.0570   21.2550 C   0  0  0  0  0  0  0  0  0  0  0  0
  -35.6420  -18.9500   20.3750 C   0  0  0  0  0  1  0  0  0  0  0  0
  -34.2050  -21.4510   21.2540 C   0  0  0  0  0  1  0  0  0  0  0  0
  -31.3330  -18.9550   20.8870 N   0  0  0  0  0  0  0  0  0  0  0  0
  -31.6510  -21.4690   23.4010 C   0  0  0  0  0  1  0  0  0  0  0  0
  -31.2060  -21.1680   21.9450 C   0  0  0  0  0  3  0  0  0  0  0  0
  -30.9720  -22.4450   21.0770 C   0  0  0  0  0  2  0  0  0  0  0  0
  -29.9130  -23.4390   21.6550 C   0  0  0  0  0  2  0  0  0  0  0  0
  -29.5590  -24.6270   20.7130 C   0  0  0  0  0  2  0  0  0  0  0  0
  -28.6660  -25.7200   21.3520 C   0  0  0  0  0  2  0  0  0  0  0  0
  -28.6310  -26.8580   20.4860 O   0  0  0  0  0  0  0  0  0  0  0  0
  -24.5770  -32.0010   23.2360 C   0  0  0  0  0  0  0  0  0  0  0  0
  -27.4400  -27.5380   20.4590 C   0  0  0  0  0  0  0  0  0  0  0  0
  -23.4560  -30.5150   21.5990 C   0  0  0  0  0  3  0  0  0  0  0  0
  -25.0030  -28.9530   20.2950 C   0  0  0  0  0  0  0  0  0  0  0  0
  -25.9700  -30.9410   21.4660 C   0  0  0  0  0  2  0  0  0  0  0  0
  -26.1180  -29.5460   20.9010 C   0  0  0  0  0  0  0  0  0  0  0  0
  -27.3430  -28.8520   20.9750 C   0  0  0  0  0  3  0  0  0  0  0  0
  -26.3150  -26.9480   19.8590 C   0  0  0  0  0  3  0  0  0  0  0  0
  -25.0990  -27.6520   19.7610 C   0  0  0  0  0  3  0  0  0  0  0  0
  -23.7310  -29.7740   20.2570 C   0  0  0  0  0  2  0  0  0  0  0  0
  -24.6830  -31.1690   22.1600 N   0  0  0  0  0  0  0  0  0  0  0  0
  -23.4770  -32.2660   23.7390 O   0  0  0  0  0  0  0  0  0  0  0  0
  -22.7960  -29.5190   22.5790 C   0  0  0  0  0  0  0  0  0  0  0  0
  -21.4870  -29.2850   22.4050 N   0  0  0  0  0  0  0  0  0  0  0  0
  -23.4620  -28.9510   23.4490 O   0  0  0  0  0  0  0  0  0  0  0  0
  -21.0060  -29.7930   21.6750 H   0  0  0  0  0  0  0  0  0  0  0  0
  -18.1370  -28.0080   22.8200 C   0  0  0  0  0  0  0  0  0  0  0  0
  -20.6700  -28.3560   23.1850 C   0  0  0  0  0  3  0  0  0  0  0  0
  -20.8370  -26.9040   22.6820 C   0  0  0  0  0  2  0  0  0  0  0  0
  -19.7910  -26.5050   21.6350 C   0  0  0  0  0  2  0  0  0  0  0  0
  -18.3790  -26.6370   22.2130 C   0  0  0  0  0  2  0  0  0  0  0  0
  -19.2130  -28.8220   23.2640 C   0  0  0  0  0  0  0  0  0  0  0  0
  -18.9330  -30.1050   23.7840 C   0  0  0  0  0  3  0  0  0  0  0  0
  -17.6090  -30.5730   23.8680 C   0  0  0  0  0  3  0  0  0  0  0  0
  -16.5460  -29.7590   23.4390 C   0  0  0  0  0  3  0  0  0  0  0  0
  -16.8110  -28.4780   22.9220 C   0  0  0  0  0  3  0  0  0  0  0  0
  -25.8300  -32.6820   23.8710 C   0  0  0  0  0  3  0  0  0  0  0  0
  -25.4670  -34.0710   24.1810 N   0  0  0  0  0  0  0  0  0  0  0  0
  -25.7630  -35.1240   23.4080 C   0  0  0  0  0  0  0  0  0  0  0  0
  -26.4440  -35.0350   22.3830 O   0  0  0  0  0  0  0  0  0  0  0  0
  -24.8640  -34.2060   24.9770 H   0  0  0  0  0  0  0  0  0  0  0  0
  -23.9650  -36.8380   23.0120 C   0  0  0  0  0  1  0  0  0  0  0  0
  -25.2140  -36.4970   23.8400 C   0  0  0  0  0  3  0  0  0  0  0  0
  -27.3000  -37.4850   24.6800 C   0  0  0  0  0  1  0  0  0  0  0  0
  -26.2030  -37.5900   23.7220 N   0  0  0  0  0  0  0  0  0  0  0  0
  -25.7560  -38.4960   23.8470 H   0  0  0  0  0  0  0  0  0  0  0  0
  -26.3530  -31.9410   25.1630 C   0  0  1  0  0  0  0  0  0  0  0  0
  -25.2400  -31.6160   26.1820 C   0  0  0  0  0  1  0  0  0  0  0  0
  -27.0530  -30.6160   24.7830 C   0  0  0  0  0  1  0  0  0  0  0  0
  -27.4100  -32.8130   25.8790 C   0  0  0  0  0  1  0  0  0  0  0  0
  -30.5960  -18.0080   18.2840 C   0  0  0  0  0  1  0  0  0  0  0  0
  -31.1610  -16.9970   19.3530 C   0  0  0  0  0  3  0  0  0  0  0  0
  -29.4120  -16.4580   21.1700 C   0  0  0  0  0  1  0  0  0  0  0  0
  -29.1030  -15.8320   18.6830 C   0  0  0  0  0  1  0  0  0  0  0  0
  -30.0890  -15.9090   19.8930 C   0  0  1  0  0  0  0  0  0  0  0  0
  -30.6910  -14.4570   20.1880 C   0  0  0  0  0  0  0  0  0  0  0  0
  -30.2690  -12.2700   19.1690 C   0  0  0  0  0  2  0  0  0  0  0  0
  -29.2670  -12.4260   18.0090 C   0  0  0  0  0  2  0  0  0  0  0  0
  -27.8080  -12.3650   18.5110 C   0  0  0  0  0  2  0  0  0  0  0  0
  -27.5220  -13.1160   19.8480 C   0  0  0  0  0  3  0  0  0  0  0  0
  -28.6810  -12.9850   20.8590 C   0  0  0  0  0  2  0  0  0  0  0  0
  -29.9530  -13.2960   20.1720 N   0  0  0  0  0  0  0  0  0  0  0  0
  -31.9140  -14.3860   20.1090 O   0  0  0  0  0  0  0  0  0  0  0  0
  -25.1600  -13.6940   20.6430 C   0  0  0  0  0  0  0  0  0  0  0  0
  -24.1050  -12.9130   21.0120 C   0  0  0  0  0  0  0  0  0  0  0  0
  -24.5720  -11.5630   20.9330 C   0  0  0  0  0  0  0  0  0  0  0  0
  -26.2050  -12.8170   20.3800 N   0  0  0  0  0  0  0  0  0  0  0  0
  -25.8560  -11.5310   20.6070 N   0  0  0  0  0  0  0  0  0  0  0  0
  -23.8590  -10.2990   21.0990 C   0  0  0  0  0  0  0  0  0  0  0  0
  -24.3120   -9.3130   22.0010 C   0  0  0  0  0  3  0  0  0  0  0  0
  -23.5960   -8.1080   22.1560 C   0  0  0  0  0  3  0  0  0  0  0  0
  -22.4120   -7.8840   21.4140 C   0  0  0  0  0  0  0  0  0  0  0  0
  -21.9810   -8.8630   20.4960 C   0  0  0  0  0  3  0  0  0  0  0  0
  -22.6980  -10.0580   20.3370 C   0  0  0  0  0  3  0  0  0  0  0  0
  -21.6600   -6.7380   21.4900 O   0  0  0  0  0  0  0  0  0  0  0  0
  -21.6270   -5.9740   22.6300 C   0  0  0  0  0  0  0  0  0  0  0  0
  -21.1400   -6.4820   23.8540 C   0  0  0  0  0  3  0  0  0  0  0  0
  -21.0620   -5.6390   24.9830 C   0  0  0  0  0  3  0  0  0  0  0  0
  -21.4630   -4.2940   24.8830 C   0  0  0  0  0  0  0  0  0  0  0  0
  -21.9410   -3.7860   23.6620 C   0  0  0  0  0  3  0  0  0  0  0  0
  -22.0220   -4.6260   22.5380 C   0  0  0  0  0  0  0  0  0  0  0  0
  -22.4690   -4.1290   21.3590 F   0  0  0  0  0  0  0  0  0  0  0  0
  -21.3780   -3.4810   25.9620 F   0  0  0  0  0  0  0  0  0  0  0  0
  -22.7130  -13.3770   21.3260 C   0  0  0  0  0  0  0  0  0  0  0  0
  -22.0040  -12.6580   22.1860 N   0  0  0  0  0  0  0  0  0  0  0  0
  -22.2640  -14.4190   20.8470 O   0  0  0  0  0  0  0  0  0  0  0  0
  -22.3720  -11.8200   22.6140 H   0  0  0  0  0  0  0  0  0  0  0  0
  -21.0750  -12.9670   22.4430 H   0  0  0  0  0  0  0  0  0  0  0  0
  -25.2990  -15.0740   20.4870 N   0  0  0  0  0  0  0  0  0  0  0  0
  -24.5220  -15.7090   20.6320 H   0  0  0  0  0  0  0  0  0  0  0  0
  -26.1380  -15.5360   20.1630 H   0  0  0  0  0  0  0  0  0  0  0  0
  1  4  2  0
  1  2  1  0
  2  3  2  0
  3  7  1  0
  3  5  1  0
  4  8  1  0
  5 10  1  0
  6  2  1  0
  8  5  2  0
 10  9  1  0
 11 12  1  0
 11 10  1  0
 13 14  1  0
 13 12  1  0
 15 14  1  0
 16 27  2  0
 17 15  1  0
 17 22  1  0
 18 26  1  0
 18 28  1  0
 19 21  1  0
 20 26  1  0
 21 22  2  0
 21 20  1  0
 23 17  2  0
 24 23  1  0
 24 19  2  0
 25 19  1  0
 25 18  1  0
 26 16  1  0
 28 30  2  0
 29 28  1  0
 31 29  1  0
 32 41  2  0
 32 37  1  0
 33 29  1  0
 33 37  1  0
 34 33  1  0
 35 36  1  0
 35 34  1  0
 36 32  1  0
 37 38  2  0
 38 39  1  0
 40 39  2  0
 41 40  1  0
 42 16  1  0
 42 43  1  0
 42 52  1  0
 43 46  1  0
 44 48  1  0
 44 43  1  0
 45 44  2  0
 48 47  1  0
 50 48  1  0
 50 51  1  0
 50 49  1  0
 52 55  1  1
 52 53  1  0
 54 52  1  0
 57 56  1  0
 57 60  1  0
 57  4  1  0
 60 59  1  6
 60 61  1  0
 60 58  1  0
 62 67  1  0
 63 64  1  0
 63 62  1  0
 65 64  1  0
 65 72  1  0
 65 66  1  0
 67 61  1  0
 67 66  1  0
 68 61  2  0
 69 70  2  0
 70 89  1  0
 71 70  1  0
 71 74  1  0
 72 73  1  0
 72 69  1  0
 73 71  2  0
 74 75  1  0
 75 76  2  0
 77 80  1  0
 77 76  1  0
 78 77  2  0
 79 78  1  0
 79 74  2  0
 80 81  1  0
 81 82  1  0
 82 83  2  0
 84 83  1  0
 84 88  1  0
 85 84  2  0
 86 81  2  0
 86 85  1  0
 87 86  1  0
 89 90  1  0
 90 93  1  0
 90 92  1  0
 91 89  2  0
 94 95  1  0
 94 69  1  0
 96 94  1  0
M  ISO  4  14 101  15 101  60 100  61 100
M  END
>  <TORSDO>  (53) 
F 23

>  <SCORE>  (53) 
-12.528

>  <name>  (53) 
53

>  <ligand_id>  (53) 
53

>  <original_smiles>  (53) 
[H]c1c([H])c([H])c2c(c1[H])C([H])([H])C([H])([H])C([H])([H])C2([H])N([H])C(=O)C1([H])N(C(=O)C([H])(N([H])C(=O)C([H])(N([H])C([H])([H])[H])C([H])([H])[H])C(C([H])([H])[H])(C([H])([H])[H])C([H])([H])[H])C([H])([H])c2c([H])c(OC([H])([H])C([H])([H])C([H])([H])C([H])([H])C([H])(c3nc(C([H])(C([H])([H])[H])C(C(=O)N4C([H])([H])C([H])([H])C([H])([H])C([H])(n5nc(-c6c([H])c([H])c(Oc7c([H])c([H])c(F)c([H])c7F)c([H])c6[H])c(C(=O)N([H])[H])c5N([H])[H])C4([H])[H])(C([H])([H])[H])C([H])([H])[H])c([H])c(C([H])([H])[H])c3C([H])([H])[H])C([H])([H])[H])c([H])c([H])c2C1([H])[H]

>  <smiles>  (53) 
[H]c1c([H])c([H])c2c(c1[H])C([H])([H])C([H])([H])C([H])([H])C2([H])N([H])C(=O)C1([H])N(C(=O)C([H])(N([H])C(=O)C([H])(N([H])C([H])([H])[H])C([H])([H])[H])C(C([H])([H])[H])(C([H])([H])[H])C([H])([H])[H])C([H])([H])c2c([H])c(OC([H])([H])C([H])([H])C([H])([H])C([H])([H])C([H])(c3nc(C([H])(C([H])([H])[H])C(C(=O)N4C([H])([H])C([H])([H])C([H])([H])C([H])(n5nc(-c6c([H])c([H])c(Oc7c([H])c([H])c(F)c([H])c7F)c([H])c6[H])c(C(=O)N([H])[H])c5N([H])[H])C4([H])[H])(C([H])([H])[H])C([H])([H])[H])c([H])c(C([H])([H])[H])c3C([H])([H])[H])C([H])([H])[H])c([H])c([H])c2C1([H])[H]

$$$$
54:0:0
     RDKit          3D

 90 98  0  0  1  0  0  0  0  0999 V2000
  -29.9540  -19.9560   20.6980 C   0  0  0  0  0  3  0  0  0  0  0  0
  -27.8930  -20.1300   20.1450 C   0  0  0  0  0  3  0  0  0  0  0  0
  -29.5310  -18.6720   20.3010 C   0  0  0  0  0  0  0  0  0  0  0  0
  -28.1840  -18.8290   19.9520 N   0  0  0  0  0  0  0  0  0  0  0  0
  -28.8950  -20.9070   20.6000 N   0  0  0  0  0  0  0  0  0  0  0  0
  -28.8190  -22.3610   21.0830 C   0  0  0  0  0  2  0  0  0  0  0  0
  -28.6260  -23.6600   20.1290 C   0  0  0  0  0  3  0  0  0  0  0  0
  -28.2090  -25.0600   20.8470 C   0  0  0  0  0  3  0  0  0  0  0  0
  -28.3680  -26.4300   20.2480 O   0  0  0  0  0  0  0  0  0  0  0  0
  -24.6170  -31.8970   23.2420 C   0  0  0  0  0  0  0  0  0  0  0  0
  -27.2630  -27.3040   20.2380 C   0  0  0  0  0  0  0  0  0  0  0  0
  -23.4340  -30.4880   21.5970 C   0  0  0  0  0  3  0  0  0  0  0  0
  -24.9020  -28.9290   20.1910 C   0  0  0  0  0  0  0  0  0  0  0  0
  -25.9740  -30.8090   21.4330 C   0  0  0  0  0  2  0  0  0  0  0  0
  -26.0660  -29.4230   20.7940 C   0  0  0  0  0  0  0  0  0  0  0  0
  -27.2540  -28.6240   20.8000 C   0  0  0  0  0  3  0  0  0  0  0  0
  -26.0790  -26.8690   19.6120 C   0  0  0  0  0  3  0  0  0  0  0  0
  -24.9120  -27.6600   19.5890 C   0  0  0  0  0  3  0  0  0  0  0  0
  -23.6630  -29.8050   20.2230 C   0  0  0  0  0  2  0  0  0  0  0  0
  -24.6940  -31.0840   22.1480 N   0  0  0  0  0  0  0  0  0  0  0  0
  -23.5290  -32.1730   23.7670 O   0  0  0  0  0  0  0  0  0  0  0  0
  -22.7640  -29.4750   22.5590 C   0  0  0  0  0  0  0  0  0  0  0  0
  -21.4380  -29.2980   22.4280 N   0  0  0  0  0  0  0  0  0  0  0  0
  -23.4390  -28.8490   23.3800 O   0  0  0  0  0  0  0  0  0  0  0  0
  -20.9530  -29.8550   21.7390 H   0  0  0  0  0  0  0  0  0  0  0  0
  -18.0570  -28.1100   22.9280 C   0  0  0  0  0  0  0  0  0  0  0  0
  -20.6170  -28.3610   23.1960 C   0  0  0  0  0  3  0  0  0  0  0  0
  -20.7130  -26.9300   22.6160 C   0  0  0  0  0  2  0  0  0  0  0  0
  -19.6090  -26.6150   21.6020 C   0  0  0  0  0  2  0  0  0  0  0  0
  -18.2290  -26.7620   22.2480 C   0  0  0  0  0  2  0  0  0  0  0  0
  -19.1790  -28.8680   23.3590 C   0  0  0  0  0  0  0  0  0  0  0  0
  -18.9650  -30.1290   23.9570 C   0  0  0  0  0  3  0  0  0  0  0  0
  -17.6620  -30.6330   24.1270 C   0  0  0  0  0  3  0  0  0  0  0  0
  -16.5540  -29.8740   23.7110 C   0  0  0  0  0  3  0  0  0  0  0  0
  -16.7530  -28.6140   23.1180 C   0  0  0  0  0  3  0  0  0  0  0  0
  -25.8920  -32.5380   23.8730 C   0  0  0  0  0  3  0  0  0  0  0  0
  -25.5740  -33.9380   24.1930 N   0  0  0  0  0  0  0  0  0  0  0  0
  -25.9080  -34.9890   23.4310 C   0  0  0  0  0  0  0  0  0  0  0  0
  -26.5860  -34.8820   22.4050 O   0  0  0  0  0  0  0  0  0  0  0  0
  -24.9740  -34.0940   24.9890 H   0  0  0  0  0  0  0  0  0  0  0  0
  -24.1810  -36.7780   23.0540 C   0  0  0  0  0  1  0  0  0  0  0  0
  -25.4140  -36.3790   23.8790 C   0  0  0  0  0  3  0  0  0  0  0  0
  -27.5400  -37.2720   24.7250 C   0  0  0  0  0  1  0  0  0  0  0  0
  -26.4470  -37.4330   23.7710 N   0  0  0  0  0  0  0  0  0  0  0  0
  -26.0380  -38.3530   23.9090 H   0  0  0  0  0  0  0  0  0  0  0  0
  -26.3960  -31.7780   25.1610 C   0  0  1  0  0  0  0  0  0  0  0  0
  -25.2940  -31.5470   26.2200 C   0  0  0  0  0  1  0  0  0  0  0  0
  -26.9850  -30.3980   24.7860 C   0  0  0  0  0  1  0  0  0  0  0  0
  -27.5390  -32.5790   25.8280 C   0  0  0  0  0  1  0  0  0  0  0  0
  -30.3610  -17.3490   20.0080 C   0  0  0  0  0  3  0  0  0  0  0  0
  -30.6100  -14.7770   20.3660 C   0  0  0  0  0  0  0  0  0  0  0  0
  -30.3790  -12.5010   19.3790 C   0  0  0  0  0  2  0  0  0  0  0  0
  -29.4520  -12.5780   18.1470 C   0  0  0  0  0  2  0  0  0  0  0  0
  -27.9790  -12.4140   18.5710 C   0  0  0  0  0  2  0  0  0  0  0  0
  -27.6020  -13.3090   19.7830 C   0  0  0  0  0  3  0  0  0  0  0  0
  -28.6550  -13.2370   20.9090 C   0  0  0  0  0  2  0  0  0  0  0  0
  -29.9530  -13.5680   20.3130 N   0  0  0  0  0  0  0  0  0  0  0  0
  -31.8160  -14.8160   20.1110 O   0  0  0  0  0  0  0  0  0  0  0  0
  -29.8760  -15.9560   20.4230 N   0  0  0  0  0  0  0  0  0  0  0  0
  -28.8880  -15.8760   20.6090 H   0  0  0  0  0  0  0  0  0  0  0  0
  -25.2120  -13.9020   20.4970 C   0  0  0  0  0  0  0  0  0  0  0  0
  -24.1450  -13.1300   20.8630 C   0  0  0  0  0  0  0  0  0  0  0  0
  -24.6080  -11.7790   20.8450 C   0  0  0  0  0  0  0  0  0  0  0  0
  -26.2570  -13.0220   20.2710 N   0  0  0  0  0  0  0  0  0  0  0  0
  -25.9010  -11.7400   20.5460 N   0  0  0  0  0  0  0  0  0  0  0  0
  -23.8800  -10.5180   21.0370 C   0  0  0  0  0  0  0  0  0  0  0  0
  -24.3070   -9.5510   21.9740 C   0  0  0  0  0  3  0  0  0  0  0  0
  -23.5770   -8.3560   22.1540 C   0  0  0  0  0  3  0  0  0  0  0  0
  -22.4060   -8.1180   21.3960 C   0  0  0  0  0  0  0  0  0  0  0  0
  -21.9980   -9.0730   20.4480 C   0  0  0  0  0  3  0  0  0  0  0  0
  -22.7290  -10.2600   20.2660 C   0  0  0  0  0  3  0  0  0  0  0  0
  -21.6490   -6.9750   21.4850 O   0  0  0  0  0  0  0  0  0  0  0  0
  -21.6010   -6.2320   22.6370 C   0  0  0  0  0  0  0  0  0  0  0  0
  -21.1820   -6.7890   23.8650 C   0  0  0  0  0  3  0  0  0  0  0  0
  -21.0790   -5.9730   25.0100 C   0  0  0  0  0  3  0  0  0  0  0  0
  -21.3840   -4.6010   24.9270 C   0  0  0  0  0  0  0  0  0  0  0  0
  -21.7960   -4.0430   23.7040 C   0  0  0  0  0  3  0  0  0  0  0  0
  -21.9000   -4.8570   22.5610 C   0  0  0  0  0  0  0  0  0  0  0  0
  -22.2770   -4.3110   21.3800 F   0  0  0  0  0  0  0  0  0  0  0  0
  -21.2790   -3.8150   26.0240 F   0  0  0  0  0  0  0  0  0  0  0  0
  -22.7450  -13.6090   21.1200 C   0  0  0  0  0  0  0  0  0  0  0  0
  -22.0090  -12.9180   21.9830 N   0  0  0  0  0  0  0  0  0  0  0  0
  -22.3130  -14.6330   20.5910 O   0  0  0  0  0  0  0  0  0  0  0  0
  -22.3710  -12.0910   22.4330 H   0  0  0  0  0  0  0  0  0  0  0  0
  -21.0700  -13.2230   22.1980 H   0  0  0  0  0  0  0  0  0  0  0  0
  -25.3770  -15.2720   20.3120 N   0  0  0  0  0  0  0  0  0  0  0  0
  -24.6070  -15.9250   20.4140 H   0  0  0  0  0  0  0  0  0  0  0  0
  -26.2230  -15.7130   19.9750 H   0  0  0  0  0  0  0  0  0  0  0  0
  -31.3590  -18.5560   17.9110 C   0  0  0  0  0  1  0  0  0  0  0  0
  -30.6650  -17.3080   18.4820 C   0  0  0  0  0  2  0  0  0  0  0  0
  2  5  1  0
  3  1  2  0
  4  2  2  0
  4  3  1  0
  5  1  1  0
  5  6  1  0
  7  8  2  0
  7  6  1  0
  9  8  1  0
 10 21  2  0
 11  9  1  0
 11 16  1  0
 12 20  1  0
 12 22  1  0
 13 19  1  0
 13 15  1  0
 14 20  1  0
 15 16  2  0
 15 14  1  0
 17 11  2  0
 18 17  1  0
 18 13  2  0
 19 12  1  0
 20 10  1  0
 22 24  2  0
 23 22  1  0
 25 23  1  0
 26 35  2  0
 26 31  1  0
 27 23  1  0
 27 31  1  0
 28 27  1  0
 29 30  1  0
 29 28  1  0
 30 26  1  0
 31 32  2  0
 32 33  1  0
 34 33  2  0
 35 34  1  0
 36 10  1  0
 36 37  1  0
 36 46  1  0
 37 40  1  0
 38 42  1  0
 38 37  1  0
 39 38  2  0
 42 41  1  0
 44 42  1  0
 44 45  1  0
 44 43  1  0
 46 49  1  1
 46 47  1  0
 48 46  1  0
 50 90  1  0
 50  3  1  0
 50 59  1  0
 51 59  1  0
 52 57  1  0
 53 54  1  0
 53 52  1  0
 55 54  1  0
 55 64  1  0
 55 56  1  0
 57 51  1  0
 57 56  1  0
 58 51  2  0
 59 60  1  0
 61 62  2  0
 62 81  1  0
 63 62  1  0
 63 66  1  0
 64 61  1  0
 64 65  1  0
 65 63  2  0
 66 67  1  0
 67 68  2  0
 69 72  1  0
 69 68  1  0
 70 69  2  0
 71 70  1  0
 71 66  2  0
 72 73  1  0
 73 74  1  0
 74 75  2  0
 76 75  1  0
 76 80  1  0
 77 76  2  0
 78 73  2  0
 78 77  1  0
 79 78  1  0
 81 82  1  0
 82 85  1  0
 82 84  1  0
 83 81  2  0
 86 87  1  0
 86 61  1  0
 88 86  1  0
 89 90  1  0
M  ISO  4   8 101   9 101  51 100  59 100
M  END
>  <TORSDO>  (54) 
F 21

>  <SCORE>  (54) 
-13.541

>  <name>  (54) 
54

>  <ligand_id>  (54) 
54

>  <original_smiles>  (54) 
[H]c1c([H])c([H])c2c(c1[H])C([H])([H])C([H])([H])C([H])([H])C2([H])N([H])C(=O)C1([H])N(C(=O)C([H])(N([H])C(=O)C([H])(N([H])C([H])([H])[H])C([H])([H])[H])C(C([H])([H])[H])(C([H])([H])[H])C([H])([H])[H])C([H])([H])c2c([H])c(OC([H])([H])C([H])([H])C([H])([H])n3c([H])nc(C([H])(N([H])C(=O)N4C([H])([H])C([H])([H])C([H])([H])C([H])(n5nc(-c6c([H])c([H])c(Oc7c([H])c([H])c(F)c([H])c7F)c([H])c6[H])c(C(=O)N([H])[H])c5N([H])[H])C4([H])[H])C([H])([H])C([H])([H])[H])c3[H])c([H])c([H])c2C1([H])[H]

>  <smiles>  (54) 
[H]c1c([H])c([H])c2c(c1[H])C([H])([H])C([H])([H])C([H])([H])C2([H])N([H])C(=O)C1([H])N(C(=O)C([H])(N([H])C(=O)C([H])(N([H])C([H])([H])[H])C([H])([H])[H])C(C([H])([H])[H])(C([H])([H])[H])C([H])([H])[H])C([H])([H])c2c([H])c(OC([H])([H])C([H])([H])C([H])([H])n3c([H])nc(C([H])(N([H])C(=O)N4C([H])([H])C([H])([H])C([H])([H])C([H])(n5nc(-c6c([H])c([H])c(Oc7c([H])c([H])c(F)c([H])c7F)c([H])c6[H])c(C(=O)N([H])[H])c5N([H])[H])C4([H])[H])C([H])([H])C([H])([H])[H])c3[H])c([H])c([H])c2C1([H])[H]

$$$$
55:0:0
     RDKit          3D

 92100  0  0  1  0  0  0  0  0999 V2000
  -29.5640  -20.2580   18.2850 C   0  0  0  0  0  3  0  0  0  0  0  0
  -29.3230  -21.5460   18.8370 C   0  0  0  0  0  0  0  0  0  0  0  0
  -29.2140  -21.6380   20.2670 C   0  0  0  0  0  0  0  0  0  0  0  0
  -29.7170  -19.1440   20.2720 C   0  0  0  0  0  0  0  0  0  0  0  0
  -29.7440  -19.1120   18.9590 N   0  0  0  0  0  0  0  0  0  0  0  0
  -29.4460  -20.3730   20.9290 N   0  0  0  0  0  0  0  0  0  0  0  0
  -29.6040  -22.3090   16.3900 C   0  0  0  0  0  1  0  0  0  0  0  0
  -29.7820  -24.0220   18.1300 C   0  0  0  0  0  1  0  0  0  0  0  0
  -27.5630  -22.9350   17.6960 C   0  0  0  0  0  1  0  0  0  0  0  0
  -29.0810  -22.6890   17.8060 C   0  0  2  0  0  0  0  0  0  0  0  0
  -28.5070  -22.9960   20.9880 C   0  0  0  0  0  2  0  0  0  0  0  0
  -28.9890  -24.6090   21.4180 C   0  0  0  0  0  2  0  0  0  0  0  0
  -28.9220  -26.0910   20.8450 O   0  0  0  0  0  0  0  0  0  0  0  0
  -24.8510  -31.8200   23.3710 C   0  0  0  0  0  0  0  0  0  0  0  0
  -27.8070  -27.0230   20.7980 C   0  0  0  0  0  0  0  0  0  0  0  0
  -23.8460  -30.3410   21.6720 C   0  0  0  0  0  3  0  0  0  0  0  0
  -25.4570  -28.7330   20.4690 C   0  0  0  0  0  0  0  0  0  0  0  0
  -26.4020  -30.6500   21.7490 C   0  0  0  0  0  2  0  0  0  0  0  0
  -26.5650  -29.2280   21.1690 C   0  0  0  0  0  0  0  0  0  0  0  0
  -27.7420  -28.3910   21.3070 C   0  0  0  0  0  3  0  0  0  0  0  0
  -26.6700  -26.6320   20.0620 C   0  0  0  0  0  3  0  0  0  0  0  0
  -25.5260  -27.4500   19.9020 C   0  0  0  0  0  3  0  0  0  0  0  0
  -24.2180  -29.6120   20.3520 C   0  0  0  0  0  2  0  0  0  0  0  0
  -25.0480  -30.9650   22.3200 N   0  0  0  0  0  0  0  0  0  0  0  0
  -23.7130  -32.0940   23.7810 O   0  0  0  0  0  0  0  0  0  0  0  0
  -23.0940  -29.3580   22.6030 C   0  0  0  0  0  0  0  0  0  0  0  0
  -21.7780  -29.1850   22.3840 N   0  0  0  0  0  0  0  0  0  0  0  0
  -23.7010  -28.7480   23.4880 O   0  0  0  0  0  0  0  0  0  0  0  0
  -21.3450  -29.7290   21.6510 H   0  0  0  0  0  0  0  0  0  0  0  0
  -18.3560  -28.0320   22.6990 C   0  0  0  0  0  0  0  0  0  0  0  0
  -20.9020  -28.2610   23.1080 C   0  0  0  0  0  3  0  0  0  0  0  0
  -21.0130  -26.8260   22.5400 C   0  0  0  0  0  2  0  0  0  0  0  0
  -19.9650  -26.5180   21.4670 C   0  0  0  0  0  2  0  0  0  0  0  0
  -18.5520  -26.6810   22.0310 C   0  0  0  0  0  2  0  0  0  0  0  0
  -19.4590  -28.7800   23.1900 C   0  0  0  0  0  0  0  0  0  0  0  0
  -19.2220  -30.0460   23.7710 C   0  0  0  0  0  3  0  0  0  0  0  0
  -17.9150  -30.5600   23.8680 C   0  0  0  0  0  3  0  0  0  0  0  0
  -16.8260  -29.8090   23.3910 C   0  0  0  0  0  3  0  0  0  0  0  0
  -17.0490  -28.5470   22.8120 C   0  0  0  0  0  3  0  0  0  0  0  0
  -26.0470  -32.5080   24.0990 C   0  0  0  0  0  3  0  0  0  0  0  0
  -26.4290  -31.8070   25.4610 C   0  0  1  0  0  0  0  0  0  0  0  0
  -25.2260  -31.5790   26.4050 C   0  0  0  0  0  1  0  0  0  0  0  0
  -27.0880  -30.4310   25.2060 C   0  0  0  0  0  1  0  0  0  0  0  0
  -27.4750  -32.6630   26.2150 C   0  0  0  0  0  1  0  0  0  0  0  0
  -25.6820  -33.9150   24.3360 N   0  0  0  0  0  0  0  0  0  0  0  0
  -26.0370  -34.9400   23.5490 C   0  0  0  0  0  0  0  0  0  0  0  0
  -26.7690  -34.8050   22.5660 O   0  0  0  0  0  0  0  0  0  0  0  0
  -25.0400  -34.0930   25.0930 H   0  0  0  0  0  0  0  0  0  0  0  0
  -24.2800  -36.6670   23.0220 C   0  0  0  0  0  1  0  0  0  0  0  0
  -25.4930  -36.3390   23.9070 C   0  0  0  0  0  3  0  0  0  0  0  0
  -27.5510  -37.3450   24.7980 C   0  0  0  0  0  1  0  0  0  0  0  0
  -26.5010  -37.4140   23.7830 N   0  0  0  0  0  0  0  0  0  0  0  0
  -26.0610  -38.3280   23.8440 H   0  0  0  0  0  0  0  0  0  0  0  0
  -30.1740  -17.6710   20.9170 C   0  0  0  0  0  2  0  0  0  0  0  0
  -30.5740  -14.9810   20.1340 C   0  0  0  0  0  0  0  0  0  0  0  0
  -30.3460  -12.7030   18.9880 C   0  0  0  0  0  2  0  0  0  0  0  0
  -29.3350  -12.7350   17.8170 C   0  0  0  0  0  2  0  0  0  0  0  0
  -27.9000  -12.5070   18.3290 C   0  0  0  0  0  2  0  0  0  0  0  0
  -27.5820  -13.3550   19.5890 C   0  0  0  0  0  3  0  0  0  0  0  0
  -28.7070  -13.2790   20.6430 C   0  0  0  0  0  2  0  0  0  0  0  0
  -29.9340  -13.7420   19.9800 N   0  0  0  0  0  0  0  0  0  0  0  0
  -31.7770  -15.0080   19.8500 O   0  0  0  0  0  0  0  0  0  0  0  0
  -29.8410  -16.1820   20.4170 N   0  0  0  0  0  0  0  0  0  0  0  0
  -28.8480  -16.0170   20.4450 H   0  0  0  0  0  0  0  0  0  0  0  0
  -25.2510  -13.9260   20.4720 C   0  0  0  0  0  0  0  0  0  0  0  0
  -24.2000  -13.1500   20.8730 C   0  0  0  0  0  0  0  0  0  0  0  0
  -24.6490  -11.7960   20.7780 C   0  0  0  0  0  0  0  0  0  0  0  0
  -26.2720  -13.0470   20.1500 N   0  0  0  0  0  0  0  0  0  0  0  0
  -25.9220  -11.7590   20.4000 N   0  0  0  0  0  0  0  0  0  0  0  0
  -23.9170  -10.5350   20.9650 C   0  0  0  0  0  0  0  0  0  0  0  0
  -24.3460   -9.5670   21.8980 C   0  0  0  0  0  3  0  0  0  0  0  0
  -23.6170   -8.3700   22.0750 C   0  0  0  0  0  3  0  0  0  0  0  0
  -22.4430   -8.1370   21.3190 C   0  0  0  0  0  0  0  0  0  0  0  0
  -22.0330   -9.0950   20.3750 C   0  0  0  0  0  3  0  0  0  0  0  0
  -22.7630  -10.2810   20.1980 C   0  0  0  0  0  3  0  0  0  0  0  0
  -21.6860   -6.9950   21.4050 O   0  0  0  0  0  0  0  0  0  0  0  0
  -21.6060   -6.2690   22.5670 C   0  0  0  0  0  0  0  0  0  0  0  0
  -21.0540   -6.8110   23.7480 C   0  0  0  0  0  3  0  0  0  0  0  0
  -20.9300   -6.0090   24.9000 C   0  0  0  0  0  3  0  0  0  0  0  0
  -21.3460   -4.6650   24.8690 C   0  0  0  0  0  0  0  0  0  0  0  0
  -21.8870   -4.1200   23.6920 C   0  0  0  0  0  3  0  0  0  0  0  0
  -22.0140   -4.9210   22.5430 C   0  0  0  0  0  0  0  0  0  0  0  0
  -22.5190   -4.3860   21.4050 F   0  0  0  0  0  0  0  0  0  0  0  0
  -21.2180   -3.8900   25.9730 F   0  0  0  0  0  0  0  0  0  0  0  0
  -22.8230  -13.6320   21.2230 C   0  0  0  0  0  0  0  0  0  0  0  0
  -22.1240  -12.9110   22.0930 N   0  0  0  0  0  0  0  0  0  0  0  0
  -22.3770  -14.6810   20.7600 O   0  0  0  0  0  0  0  0  0  0  0  0
  -22.4990  -12.0630   22.4890 H   0  0  0  0  0  0  0  0  0  0  0  0
  -21.1980  -13.2110   22.3640 H   0  0  0  0  0  0  0  0  0  0  0  0
  -25.4170  -15.3000   20.3260 N   0  0  0  0  0  0  0  0  0  0  0  0
  -24.6530  -15.9480   20.4860 H   0  0  0  0  0  0  0  0  0  0  0  0
  -26.2290  -15.7380   19.9100 H   0  0  0  0  0  0  0  0  0  0  0  0
  1  2  2  0
  1  5  1  0
  2  3  1  0
  3  6  2  0
  3 11  1  0
  4 54  1  0
  4  6  1  0
  5  4  2  0
 10  7  1  6
  9 10  1  0
 10  8  1  0
 10  2  1  0
 11 12  1  0
 13 12  1  0
 14 25  2  0
 15 13  1  0
 15 20  1  0
 16 24  1  0
 16 26  1  0
 17 19  1  0
 18 24  1  0
 19 20  2  0
 19 18  1  0
 21 15  2  0
 22 21  1  0
 22 17  2  0
 23 17  1  0
 23 16  1  0
 24 14  1  0
 26 28  2  0
 27 26  1  0
 29 27  1  0
 30 39  2  0
 30 35  1  0
 31 27  1  0
 31 35  1  0
 32 31  1  0
 33 34  1  0
 33 32  1  0
 34 30  1  0
 35 36  2  0
 36 37  1  0
 38 37  2  0
 39 38  1  0
 40 14  1  0
 40 45  1  0
 40 41  1  0
 41 44  1  1
 41 42  1  0
 43 41  1  0
 45 48  1  0
 46 50  1  0
 46 45  1  0
 47 46  2  0
 50 49  1  0
 52 53  1  0
 52 50  1  0
 52 51  1  0
 55 63  1  0
 56 61  1  0
 57 58  1  0
 57 56  1  0
 59 58  1  0
 59 68  1  0
 59 60  1  0
 61 55  1  0
 61 60  1  0
 62 55  2  0
 63 64  1  0
 63 54  1  0
 65 66  2  0
 66 85  1  0
 67 66  1  0
 67 70  1  0
 68 69  1  0
 68 65  1  0
 69 67  2  0
 70 71  1  0
 71 72  2  0
 73 76  1  0
 73 72  1  0
 74 73  2  0
 75 74  1  0
 75 70  2  0
 76 77  1  0
 77 78  1  0
 78 79  2  0
 80 79  1  0
 80 84  1  0
 81 80  2  0
 82 77  2  0
 82 81  1  0
 83 82  1  0
 85 86  1  0
 86 89  1  0
 86 88  1  0
 87 85  2  0
 90 65  1  0
 90 91  1  0
 92 90  1  0
M  ISO  4  12 101  13 101  55 100  63 100
M  END
>  <TORSDO>  (55) 
F 20

>  <SCORE>  (55) 
-14.098

>  <name>  (55) 
55

>  <ligand_id>  (55) 
55

>  <original_smiles>  (55) 
[H]c1nc(C([H])([H])N([H])C(=O)N2C([H])([H])C([H])([H])C([H])([H])C([H])(n3nc(-c4c([H])c([H])c(Oc5c([H])c([H])c(F)c([H])c5F)c([H])c4[H])c(C(=O)N([H])[H])c3N([H])[H])C2([H])[H])nc(C([H])([H])C([H])([H])Oc2c([H])c([H])c3c(c2[H])C([H])([H])N(C(=O)C([H])(N([H])C(=O)C([H])(N([H])C([H])([H])[H])C([H])([H])[H])C(C([H])([H])[H])(C([H])([H])[H])C([H])([H])[H])C([H])(C(=O)N([H])C2([H])c4c([H])c([H])c([H])c([H])c4C([H])([H])C([H])([H])C2([H])[H])C3([H])[H])c1C(C([H])([H])[H])(C([H])([H])[H])C([H])([H])[H]

>  <smiles>  (55) 
[H]c1nc(C([H])([H])N([H])C(=O)N2C([H])([H])C([H])([H])C([H])([H])C([H])(n3nc(-c4c([H])c([H])c(Oc5c([H])c([H])c(F)c([H])c5F)c([H])c4[H])c(C(=O)N([H])[H])c3N([H])[H])C2([H])[H])nc(C([H])([H])C([H])([H])Oc2c([H])c([H])c3c(c2[H])C([H])([H])N(C(=O)C([H])(N([H])C(=O)C([H])(N([H])C([H])([H])[H])C([H])([H])[H])C(C([H])([H])[H])(C([H])([H])[H])C([H])([H])[H])C([H])(C(=O)N([H])C2([H])c4c([H])c([H])c([H])c([H])c4C([H])([H])C([H])([H])C2([H])[H])C3([H])[H])c1C(C([H])([H])[H])(C([H])([H])[H])C([H])([H])[H]

$$$$
56:0:0
     RDKit          3D

 94102  0  0  1  0  0  0  0  0999 V2000
  -28.1470  -19.1510   19.3700 C   0  0  0  0  0  3  0  0  0  0  0  0
  -27.5380  -19.9150   17.3690 C   0  0  0  0  0  3  0  0  0  0  0  0
  -27.4690  -20.1940   18.7040 C   0  0  0  0  0  0  0  0  0  0  0  0
  -28.6450  -18.2580   18.4610 C   0  0  0  0  0  0  0  0  0  0  0  0
  -28.5180  -18.1910   15.8710 C   0  0  0  0  0  1  0  0  0  0  0  0
  -28.2520  -18.7360   17.1970 N   0  0  0  0  0  0  0  0  0  0  0  0
  -31.0140  -17.6090   18.8190 C   0  0  0  0  0  1  0  0  0  0  0  0
  -29.5000  -15.9450   17.7550 C   0  0  0  0  0  1  0  0  0  0  0  0
  -29.5580  -17.0860   18.7950 C   0  0  2  0  0  0  0  0  0  0  0  0
  -29.1330  -16.4680   20.1900 C   0  0  0  0  0  2  0  0  0  0  0  0
  -30.8500  -15.0070   21.3450 C   0  0  0  0  0  0  0  0  0  0  0  0
  -30.6850  -12.7190   20.4950 C   0  0  0  0  0  2  0  0  0  0  0  0
  -29.9770  -12.6530   19.1230 C   0  0  0  0  0  2  0  0  0  0  0  0
  -28.4600  -12.9730   19.1610 C   0  0  0  0  0  2  0  0  0  0  0  0
  -27.9200  -13.1130   20.5950 C   0  0  0  0  0  3  0  0  0  0  0  0
  -28.7780  -13.6690   21.7340 C   0  0  0  0  0  2  0  0  0  0  0  0
  -30.1440  -13.8610   21.2400 N   0  0  0  0  0  0  0  0  0  0  0  0
  -32.0750  -15.0370   21.4040 O   0  0  0  0  0  0  0  0  0  0  0  0
  -30.2090  -16.1720   21.1520 N   0  0  0  0  0  0  0  0  0  0  0  0
  -30.7900  -16.9690   21.3670 H   0  0  0  0  0  0  0  0  0  0  0  0
  -25.4620  -14.1330   20.7790 C   0  0  0  0  0  0  0  0  0  0  0  0
  -24.2960  -13.4160   20.9450 C   0  0  0  0  0  0  0  0  0  0  0  0
  -24.6800  -12.0510   20.9750 C   0  0  0  0  0  0  0  0  0  0  0  0
  -26.4740  -13.1610   20.7540 N   0  0  0  0  0  0  0  0  0  0  0  0
  -25.9710  -11.9300   20.9030 N   0  0  0  0  0  0  0  0  0  0  0  0
  -23.9330  -10.8060   21.0330 C   0  0  0  0  0  0  0  0  0  0  0  0
  -24.2760   -9.8080   21.9650 C   0  0  0  0  0  3  0  0  0  0  0  0
  -23.5580   -8.6000   22.0060 C   0  0  0  0  0  3  0  0  0  0  0  0
  -22.4900   -8.3930   21.1000 C   0  0  0  0  0  0  0  0  0  0  0  0
  -22.1680   -9.3860   20.1590 C   0  0  0  0  0  3  0  0  0  0  0  0
  -22.8930  -10.5840   20.1170 C   0  0  0  0  0  3  0  0  0  0  0  0
  -21.7510   -7.2400   21.0440 O   0  0  0  0  0  0  0  0  0  0  0  0
  -21.5820   -6.4490   22.1500 C   0  0  0  0  0  0  0  0  0  0  0  0
  -21.0570   -6.9580   23.3580 C   0  0  0  0  0  3  0  0  0  0  0  0
  -20.8460   -6.0970   24.4530 C   0  0  0  0  0  3  0  0  0  0  0  0
  -21.1510   -4.7260   24.3370 C   0  0  0  0  0  0  0  0  0  0  0  0
  -21.6680   -4.2150   23.1340 C   0  0  0  0  0  3  0  0  0  0  0  0
  -21.8840   -5.0770   22.0420 C   0  0  0  0  0  0  0  0  0  0  0  0
  -22.3680   -4.5870   20.8750 F   0  0  0  0  0  0  0  0  0  0  0  0
  -20.9500   -3.8830   25.3750 F   0  0  0  0  0  0  0  0  0  0  0  0
  -22.8880  -13.9300   20.9930 C   0  0  0  0  0  0  0  0  0  0  0  0
  -22.0110  -13.2220   21.7040 N   0  0  0  0  0  0  0  0  0  0  0  0
  -22.5540  -14.9650   20.4170 O   0  0  0  0  0  0  0  0  0  0  0  0
  -22.2660  -12.3400   22.1250 H   0  0  0  0  0  0  0  0  0  0  0  0
  -21.0400  -13.4950   21.7350 H   0  0  0  0  0  0  0  0  0  0  0  0
  -25.7130  -15.4900   20.6550 N   0  0  0  0  0  0  0  0  0  0  0  0
  -24.9730  -16.1780   20.7150 H   0  0  0  0  0  0  0  0  0  0  0  0
  -26.6300  -15.8860   20.4990 H   0  0  0  0  0  0  0  0  0  0  0  0
  -26.9160  -21.4110   19.3790 C   0  0  0  0  0  2  0  0  0  0  0  0
  -27.9630  -22.5240   19.2780 C   0  0  0  0  0  2  0  0  0  0  0  0
  -27.8330  -23.5720   20.3720 C   0  0  0  0  0  2  0  0  0  0  0  0
  -28.8260  -24.7100   20.1350 C   0  0  0  0  0  2  0  0  0  0  0  0
  -28.6460  -25.8490   21.1350 C   0  0  0  0  0  2  0  0  0  0  0  0
  -28.5750  -27.0510   20.3870 O   0  0  0  0  0  0  0  0  0  0  0  0
  -24.5940  -32.0350   23.4130 C   0  0  0  0  0  0  0  0  0  0  0  0
  -27.3560  -27.6740   20.3910 C   0  0  0  0  0  0  0  0  0  0  0  0
  -23.4200  -30.6110   21.7620 C   0  0  0  0  0  3  0  0  0  0  0  0
  -24.9160  -29.0810   20.3660 C   0  0  0  0  0  0  0  0  0  0  0  0
  -25.9300  -31.0240   21.5760 C   0  0  0  0  0  2  0  0  0  0  0  0
  -26.0500  -29.6490   20.9610 C   0  0  0  0  0  0  0  0  0  0  0  0
  -27.2690  -28.9510   20.9710 C   0  0  0  0  0  3  0  0  0  0  0  0
  -26.2110  -27.0970   19.7990 C   0  0  0  0  0  3  0  0  0  0  0  0
  -24.9900  -27.8010   19.7820 C   0  0  0  0  0  3  0  0  0  0  0  0
  -23.6540  -29.9190   20.3910 C   0  0  0  0  0  2  0  0  0  0  0  0
  -24.6660  -31.2320   22.3150 N   0  0  0  0  0  0  0  0  0  0  0  0
  -23.5040  -32.3000   23.9420 O   0  0  0  0  0  0  0  0  0  0  0  0
  -22.7720  -29.5880   22.7200 C   0  0  0  0  0  0  0  0  0  0  0  0
  -21.4610  -29.3520   22.5400 N   0  0  0  0  0  0  0  0  0  0  0  0
  -23.4430  -29.0110   23.5780 O   0  0  0  0  0  0  0  0  0  0  0  0
  -20.9810  -29.8770   21.8230 H   0  0  0  0  0  0  0  0  0  0  0  0
  -18.1290  -28.0050   22.8870 C   0  0  0  0  0  0  0  0  0  0  0  0
  -20.6500  -28.4020   23.2970 C   0  0  0  0  0  3  0  0  0  0  0  0
  -20.8530  -26.9580   22.7850 C   0  0  0  0  0  2  0  0  0  0  0  0
  -19.8340  -26.5440   21.7190 C   0  0  0  0  0  2  0  0  0  0  0  0
  -18.4100  -26.6420   22.2760 C   0  0  0  0  0  2  0  0  0  0  0  0
  -19.1810  -28.8360   23.3530 C   0  0  0  0  0  0  0  0  0  0  0  0
  -18.8690  -30.1060   23.8850 C   0  0  0  0  0  3  0  0  0  0  0  0
  -17.5350  -30.5500   23.9500 C   0  0  0  0  0  3  0  0  0  0  0  0
  -16.4940  -29.7190   23.5010 C   0  0  0  0  0  3  0  0  0  0  0  0
  -16.7920  -28.4470   22.9780 C   0  0  0  0  0  3  0  0  0  0  0  0
  -25.8700  -32.6800   24.0440 C   0  0  0  0  0  3  0  0  0  0  0  0
  -25.5630  -34.0890   24.3220 N   0  0  0  0  0  0  0  0  0  0  0  0
  -25.9170  -35.1120   23.5330 C   0  0  0  0  0  0  0  0  0  0  0  0
  -26.6070  -34.9700   22.5190 O   0  0  0  0  0  0  0  0  0  0  0  0
  -24.9550  -34.2730   25.1070 H   0  0  0  0  0  0  0  0  0  0  0  0
  -24.1920  -36.8840   23.0850 C   0  0  0  0  0  1  0  0  0  0  0  0
  -25.4240  -36.5170   23.9270 C   0  0  0  0  0  3  0  0  0  0  0  0
  -27.5530  -37.4290   24.7450 C   0  0  0  0  0  1  0  0  0  0  0  0
  -26.4610  -37.5630   23.7840 N   0  0  0  0  0  0  0  0  0  0  0  0
  -26.0550  -38.4890   23.8930 H   0  0  0  0  0  0  0  0  0  0  0  0
  -26.3570  -31.9440   25.3520 C   0  0  1  0  0  0  0  0  0  0  0  0
  -25.2290  -31.7130   26.3860 C   0  0  0  0  0  1  0  0  0  0  0  0
  -26.9750  -30.5700   25.0060 C   0  0  0  0  0  1  0  0  0  0  0  0
  -27.4770  -32.7660   26.0330 C   0  0  0  0  0  1  0  0  0  0  0  0
  2  3  2  0
  3  1  1  0
  3 49  1  0
  4  9  1  0
  4  1  2  0
  5  6  1  0
  6  2  1  0
  6  4  1  0
  9  8  1  6
  9  7  1  0
  9 10  1  0
 10 19  1  0
 11 18  2  0
 12 17  1  0
 13 14  1  0
 13 12  1  0
 15 14  1  0
 15 24  1  0
 15 16  1  0
 17 11  1  0
 17 16  1  0
 19 11  1  0
 19 20  1  0
 21 22  2  0
 22 23  1  0
 22 41  1  0
 23 26  1  0
 24 21  1  0
 24 25  1  0
 25 23  2  0
 26 27  1  0
 27 28  2  0
 29 28  1  0
 30 29  2  0
 31 30  1  0
 31 26  2  0
 32 29  1  0
 32 33  1  0
 33 34  1  0
 34 35  2  0
 36 35  1  0
 36 40  1  0
 37 36  2  0
 38 33  2  0
 38 37  1  0
 39 38  1  0
 41 42  1  0
 42 45  1  0
 42 44  1  0
 43 41  2  0
 46 47  1  0
 46 21  1  0
 48 46  1  0
 50 49  1  0
 50 51  1  0
 52 51  1  0
 52 53  1  0
 54 56  1  0
 54 53  1  0
 55 66  2  0
 56 61  1  0
 57 65  1  0
 57 67  1  0
 58 64  1  0
 58 60  1  0
 59 65  1  0
 60 61  2  0
 60 59  1  0
 62 56  2  0
 63 62  1  0
 63 58  2  0
 64 57  1  0
 65 55  1  0
 67 69  2  0
 68 67  1  0
 70 68  1  0
 71 80  2  0
 71 76  1  0
 72 68  1  0
 72 76  1  0
 73 72  1  0
 74 75  1  0
 74 73  1  0
 75 71  1  0
 76 77  2  0
 77 78  1  0
 79 78  2  0
 80 79  1  0
 81 55  1  0
 81 82  1  0
 81 91  1  0
 82 85  1  0
 83 87  1  0
 83 82  1  0
 84 83  2  0
 87 86  1  0
 89 90  1  0
 89 87  1  0
 89 88  1  0
 91 94  1  1
 91 92  1  0
 93 91  1  0
M  ISO  4  11 100  19 100  53 101  54 101
M  END
>  <TORSDO>  (56) 
F 23

>  <SCORE>  (56) 
-9.944

>  <name>  (56) 
56

>  <ligand_id>  (56) 
56

>  <original_smiles>  (56) 
[H]c1c([H])c([H])c2c(c1[H])C([H])([H])C([H])([H])C([H])([H])C2([H])N([H])C(=O)C1([H])N(C(=O)C([H])(N([H])C(=O)C([H])(N([H])C([H])([H])[H])C([H])([H])[H])C(C([H])([H])[H])(C([H])([H])[H])C([H])([H])[H])C([H])([H])c2c([H])c(OC([H])([H])C([H])([H])C([H])([H])C([H])([H])C([H])([H])c3c([H])c(C(C([H])([H])[H])(C([H])([H])[H])C([H])([H])N([H])C(=O)N4C([H])([H])C([H])([H])C([H])([H])C([H])(n5nc(-c6c([H])c([H])c(Oc7c([H])c([H])c(F)c([H])c7F)c([H])c6[H])c(C(=O)N([H])[H])c5N([H])[H])C4([H])[H])n(C([H])([H])[H])c3[H])c([H])c([H])c2C1([H])[H]

>  <smiles>  (56) 
[H]c1c([H])c([H])c2c(c1[H])C([H])([H])C([H])([H])C([H])([H])C2([H])N([H])C(=O)C1([H])N(C(=O)C([H])(N([H])C(=O)C([H])(N([H])C([H])([H])[H])C([H])([H])[H])C(C([H])([H])[H])(C([H])([H])[H])C([H])([H])[H])C([H])([H])c2c([H])c(OC([H])([H])C([H])([H])C([H])([H])C([H])([H])C([H])([H])c3c([H])c(C(C([H])([H])[H])(C([H])([H])[H])C([H])([H])N([H])C(=O)N4C([H])([H])C([H])([H])C([H])([H])C([H])(n5nc(-c6c([H])c([H])c(Oc7c([H])c([H])c(F)c([H])c7F)c([H])c6[H])c(C(=O)N([H])[H])c5N([H])[H])C4([H])[H])n(C([H])([H])[H])c3[H])c([H])c([H])c2C1([H])[H]

$$$$
57:0:0
     RDKit          3D

 95103  0  0  1  0  0  0  0  0999 V2000
  -31.3990  -20.1700   20.2280 C   0  0  0  0  0  3  0  0  0  0  0  0
  -30.9170  -20.1580   21.5500 C   0  0  0  0  0  0  0  0  0  0  0  0
  -31.1750  -21.2980   19.4120 C   0  0  0  0  0  0  0  0  0  0  0  0
  -30.2040  -21.2980   21.9970 C   0  0  0  0  0  0  0  0  0  0  0  0
  -30.4560  -22.3950   19.9470 C   0  0  0  0  0  0  0  0  0  0  0  0
  -31.7720  -21.3030   18.0120 C   0  0  0  0  0  1  0  0  0  0  0  0
  -29.9950  -22.3820   21.2140 N   0  0  0  0  0  0  0  0  0  0  0  0
  -29.8680  -23.4230   17.7780 C   0  0  0  0  0  1  0  0  0  0  0  0
  -30.1740  -23.5560   19.2000 N   0  0  0  0  0  0  0  0  0  0  0  0
  -30.0720  -24.8620   19.8670 C   0  0  0  0  0  2  0  0  0  0  0  0
  -28.6500  -25.4600   19.8430 C   0  0  0  0  0  2  0  0  0  0  0  0
  -28.6480  -26.8150   20.3090 O   0  0  0  0  0  0  0  0  0  0  0  0
  -24.6960  -31.8640   23.4000 C   0  0  0  0  0  0  0  0  0  0  0  0
  -27.4560  -27.5150   20.2760 C   0  0  0  0  0  0  0  0  0  0  0  0
  -23.5490  -30.5140   21.6730 C   0  0  0  0  0  3  0  0  0  0  0  0
  -25.0540  -29.0210   20.2560 C   0  0  0  0  0  0  0  0  0  0  0  0
  -26.0800  -30.8760   21.5780 C   0  0  0  0  0  2  0  0  0  0  0  0
  -26.1890  -29.5240   20.9020 C   0  0  0  0  0  0  0  0  0  0  0  0
  -27.3890  -28.7760   20.9130 C   0  0  0  0  0  3  0  0  0  0  0  0
  -26.2940  -27.0260   19.6290 C   0  0  0  0  0  3  0  0  0  0  0  0
  -25.1020  -27.7720   19.6170 C   0  0  0  0  0  3  0  0  0  0  0  0
  -23.8100  -29.8790   20.2810 C   0  0  0  0  0  2  0  0  0  0  0  0
  -24.7910  -31.0970   22.2760 N   0  0  0  0  0  0  0  0  0  0  0  0
  -23.5970  -32.1200   23.9090 O   0  0  0  0  0  0  0  0  0  0  0  0
  -22.8670  -29.4620   22.5790 C   0  0  0  0  0  0  0  0  0  0  0  0
  -21.5560  -29.2540   22.3710 N   0  0  0  0  0  0  0  0  0  0  0  0
  -23.5150  -28.8370   23.4230 O   0  0  0  0  0  0  0  0  0  0  0  0
  -21.0960  -29.8100   21.6640 H   0  0  0  0  0  0  0  0  0  0  0  0
  -18.1950  -27.9530   22.6170 C   0  0  0  0  0  0  0  0  0  0  0  0
  -20.7170  -28.2870   23.0760 C   0  0  0  0  0  3  0  0  0  0  0  0
  -20.9060  -26.8630   22.5040 C   0  0  0  0  0  2  0  0  0  0  0  0
  -19.8920  -26.5120   21.4100 C   0  0  0  0  0  2  0  0  0  0  0  0
  -18.4620  -26.6130   21.9520 C   0  0  0  0  0  2  0  0  0  0  0  0
  -19.2550  -28.7460   23.1310 C   0  0  0  0  0  0  0  0  0  0  0  0
  -18.9580  -30.0000   23.7070 C   0  0  0  0  0  3  0  0  0  0  0  0
  -17.6300  -30.4620   23.7800 C   0  0  0  0  0  3  0  0  0  0  0  0
  -16.5820  -29.6650   23.2880 C   0  0  0  0  0  3  0  0  0  0  0  0
  -16.8650  -28.4130   22.7100 C   0  0  0  0  0  3  0  0  0  0  0  0
  -25.9610  -32.4760   24.0820 C   0  0  0  0  0  3  0  0  0  0  0  0
  -25.6390  -33.8610   24.4490 N   0  0  0  0  0  0  0  0  0  0  0  0
  -25.9810  -34.9370   23.7270 C   0  0  0  0  0  0  0  0  0  0  0  0
  -26.6720  -34.8690   22.7070 O   0  0  0  0  0  0  0  0  0  0  0  0
  -25.0410  -33.9910   25.2510 H   0  0  0  0  0  0  0  0  0  0  0  0
  -24.2460  -36.7250   23.3930 C   0  0  0  0  0  1  0  0  0  0  0  0
  -25.4760  -36.3090   24.2150 C   0  0  0  0  0  3  0  0  0  0  0  0
  -27.5860  -37.1850   25.1110 C   0  0  0  0  0  1  0  0  0  0  0  0
  -26.5010  -37.3720   24.1500 N   0  0  0  0  0  0  0  0  0  0  0  0
  -26.0850  -38.2840   24.3170 H   0  0  0  0  0  0  0  0  0  0  0  0
  -26.4420  -31.6600   25.3450 C   0  0  1  0  0  0  0  0  0  0  0  0
  -25.3150  -31.3670   26.3630 C   0  0  0  0  0  1  0  0  0  0  0  0
  -27.0550  -30.3060   24.9180 C   0  0  0  0  0  1  0  0  0  0  0  0
  -27.5610  -32.4380   26.0760 C   0  0  0  0  0  1  0  0  0  0  0  0
  -30.7200  -22.0210   24.3740 C   0  0  0  0  0  1  0  0  0  0  0  0
  -29.6710  -21.4350   23.4170 C   0  0  0  0  0  2  0  0  0  0  0  0
  -31.2730  -18.9800   22.4620 C   0  0  0  0  0  2  0  0  0  0  0  0
  -30.6390  -17.6150   22.0950 C   0  0  0  0  0  2  0  0  0  0  0  0
  -31.5890  -16.6850   21.3030 C   0  0  0  0  0  2  0  0  0  0  0  0
  -31.3670  -14.5260   20.1340 C   0  0  0  0  0  0  0  0  0  0  0  0
  -30.8130  -12.5200   18.7980 C   0  0  0  0  0  2  0  0  0  0  0  0
  -29.8180  -12.8320   17.6660 C   0  0  0  0  0  2  0  0  0  0  0  0
  -28.3700  -12.7000   18.1690 C   0  0  0  0  0  2  0  0  0  0  0  0
  -28.1340  -13.4930   19.4780 C   0  0  0  0  0  3  0  0  0  0  0  0
  -29.2340  -13.2030   20.5200 C   0  0  0  0  0  2  0  0  0  0  0  0
  -30.5590  -13.4480   19.9150 N   0  0  0  0  0  0  0  0  0  0  0  0
  -32.2760  -14.8270   19.3520 O   0  0  0  0  0  0  0  0  0  0  0  0
  -31.1700  -14.6210   22.5630 C   0  0  0  0  0  1  0  0  0  0  0  0
  -31.1350  -15.2750   21.2440 N   0  0  0  0  0  0  0  0  0  0  0  0
  -25.7870  -14.1390   20.3160 C   0  0  0  0  0  0  0  0  0  0  0  0
  -24.7250  -13.3840   20.7370 C   0  0  0  0  0  0  0  0  0  0  0  0
  -25.1590  -12.0240   20.6740 C   0  0  0  0  0  0  0  0  0  0  0  0
  -26.8020  -13.2400   20.0240 N   0  0  0  0  0  0  0  0  0  0  0  0
  -26.4290  -11.9620   20.2960 N   0  0  0  0  0  0  0  0  0  0  0  0
  -24.4200  -10.7740   20.8960 C   0  0  0  0  0  0  0  0  0  0  0  0
  -24.8440   -9.8230   21.8490 C   0  0  0  0  0  3  0  0  0  0  0  0
  -24.1040   -8.6380   22.0570 C   0  0  0  0  0  3  0  0  0  0  0  0
  -22.9270   -8.3960   21.3100 C   0  0  0  0  0  0  0  0  0  0  0  0
  -22.5220   -9.3360   20.3460 C   0  0  0  0  0  3  0  0  0  0  0  0
  -23.2610  -10.5110   20.1370 C   0  0  0  0  0  3  0  0  0  0  0  0
  -22.1590   -7.2620   21.4250 O   0  0  0  0  0  0  0  0  0  0  0  0
  -22.0420   -6.5900   22.6150 C   0  0  0  0  0  0  0  0  0  0  0  0
  -21.5740   -7.2240   23.7870 C   0  0  0  0  0  3  0  0  0  0  0  0
  -21.4020   -6.4780   24.9700 C   0  0  0  0  0  3  0  0  0  0  0  0
  -21.6880   -5.1000   24.9830 C   0  0  0  0  0  0  0  0  0  0  0  0
  -22.1470   -4.4660   23.8150 C   0  0  0  0  0  3  0  0  0  0  0  0
  -22.3200   -5.2080   22.6340 C   0  0  0  0  0  0  0  0  0  0  0  0
  -22.7430   -4.5880   21.5060 F   0  0  0  0  0  0  0  0  0  0  0  0
  -21.5160   -4.3820   26.1170 F   0  0  0  0  0  0  0  0  0  0  0  0
  -23.3530  -13.8850   21.0880 C   0  0  0  0  0  0  0  0  0  0  0  0
  -22.6740  -13.2140   22.0110 N   0  0  0  0  0  0  0  0  0  0  0  0
  -22.8950  -14.9070   20.5790 O   0  0  0  0  0  0  0  0  0  0  0  0
  -23.0590  -12.3870   22.4420 H   0  0  0  0  0  0  0  0  0  0  0  0
  -21.7550  -13.5300   22.2900 H   0  0  0  0  0  0  0  0  0  0  0  0
  -25.9680  -15.5080   20.1410 N   0  0  0  0  0  0  0  0  0  0  0  0
  -25.2240  -16.1770   20.3040 H   0  0  0  0  0  0  0  0  0  0  0  0
  -26.8150  -15.9380   19.7900 H   0  0  0  0  0  0  0  0  0  0  0  0
  1  2  1  0
  2  4  2  0
  2 55  1  0
  3  5  1  0
  3  1  2  0
  4 54  1  0
  5  7  2  0
  6  3  1  0
  7  4  1  0
  8  9  1  0
  9 10  1  0
  9  5  1  0
 11 10  1  0
 11 12  1  0
 13 24  2  0
 14 12  1  0
 14 19  1  0
 15 23  1  0
 15 25  1  0
 16 22  1  0
 16 18  1  0
 17 23  1  0
 18 19  2  0
 18 17  1  0
 20 14  2  0
 21 20  1  0
 21 16  2  0
 22 15  1  0
 23 13  1  0
 25 27  2  0
 26 25  1  0
 28 26  1  0
 29 38  2  0
 29 34  1  0
 30 26  1  0
 30 34  1  0
 31 30  1  0
 32 33  1  0
 32 31  1  0
 33 29  1  0
 34 35  2  0
 35 36  1  0
 37 36  2  0
 38 37  1  0
 39 13  1  0
 39 40  1  0
 39 49  1  0
 40 43  1  0
 41 45  1  0
 41 40  1  0
 42 41  2  0
 45 44  1  0
 47 45  1  0
 47 48  1  0
 47 46  1  0
 49 52  1  1
 49 50  1  0
 51 49  1  0
 54 53  1  0
 56 55  1  0
 57 56  1  0
 58 67  1  0
 59 64  1  0
 60 61  1  0
 60 59  1  0
 62 61  1  0
 62 71  1  0
 62 63  1  0
 64 58  1  0
 64 63  1  0
 65 58  2  0
 67 57  1  0
 67 66  1  0
 68 69  2  0
 69 88  1  0
 70 69  1  0
 70 73  1  0
 71 72  1  0
 71 68  1  0
 72 70  2  0
 73 74  1  0
 74 75  2  0
 76 79  1  0
 76 75  1  0
 77 76  2  0
 78 77  1  0
 78 73  2  0
 79 80  1  0
 80 85  2  0
 80 81  1  0
 81 82  2  0
 82 83  1  0
 83 87  1  0
 84 83  2  0
 85 84  1  0
 86 85  1  0
 88 89  1  0
 89 92  1  0
 89 91  1  0
 90 88  2  0
 93 94  1  0
 93 68  1  0
 95 93  1  0
M  ISO  4  11 101  12 101  58 100  67 100
M  END
>  <TORSDO>  (57) 
F 23

>  <SCORE>  (57) 
-11.087

>  <name>  (57) 
57

>  <ligand_id>  (57) 
57

>  <original_smiles>  (57) 
[H]c1c([H])c([H])c2c(c1[H])C([H])([H])C([H])([H])C([H])([H])C2([H])N([H])C(=O)C1([H])N(C(=O)C([H])(N([H])C(=O)C([H])(N([H])C([H])([H])[H])C([H])([H])[H])C(C([H])([H])[H])(C([H])([H])[H])C([H])([H])[H])C([H])([H])c2c([H])c(OC([H])([H])C([H])([H])N(c3nc(C([H])([H])C([H])([H])[H])c(C([H])([H])C([H])([H])C([H])([H])N(C(=O)N4C([H])([H])C([H])([H])C([H])([H])C([H])(n5nc(-c6c([H])c([H])c(Oc7c([H])c([H])c(F)c([H])c7F)c([H])c6[H])c(C(=O)N([H])[H])c5N([H])[H])C4([H])[H])C([H])([H])[H])c([H])c3C([H])([H])[H])C([H])([H])[H])c([H])c([H])c2C1([H])[H]

>  <smiles>  (57) 
[H]c1c([H])c([H])c2c(c1[H])C([H])([H])C([H])([H])C([H])([H])C2([H])N([H])C(=O)C1([H])N(C(=O)C([H])(N([H])C(=O)C([H])(N([H])C([H])([H])[H])C([H])([H])[H])C(C([H])([H])[H])(C([H])([H])[H])C([H])([H])[H])C([H])([H])c2c([H])c(OC([H])([H])C([H])([H])N(c3nc(C([H])([H])C([H])([H])[H])c(C([H])([H])C([H])([H])C([H])([H])N(C(=O)N4C([H])([H])C([H])([H])C([H])([H])C([H])(n5nc(-c6c([H])c([H])c(Oc7c([H])c([H])c(F)c([H])c7F)c([H])c6[H])c(C(=O)N([H])[H])c5N([H])[H])C4([H])[H])C([H])([H])[H])c([H])c3C([H])([H])[H])C([H])([H])[H])c([H])c([H])c2C1([H])[H]

$$$$
58:0:0
     RDKit          3D

 90 98  0  0  1  0  0  0  0  0999 V2000
  -29.2430  -22.6850   21.8300 C   0  0  0  0  0  1  0  0  0  0  0  0
  -30.5820  -23.0440   19.7490 C   0  0  0  0  0  1  0  0  0  0  0  0
  -29.1750  -22.7750   20.3000 C   0  0  1  0  0  0  0  0  0  0  0  0
  -27.2000  -19.9800   18.7270 C   0  0  0  0  0  3  0  0  0  0  0  0
  -27.5650  -21.2310   19.1280 C   0  0  0  0  0  3  0  0  0  0  0  0
  -29.1190  -19.7080   19.7910 C   0  0  0  0  0  0  0  0  0  0  0  0
  -28.1520  -19.0690   19.1290 N   0  0  0  0  0  0  0  0  0  0  0  0
  -28.7830  -21.2090   19.8150 N   0  0  0  0  0  0  0  0  0  0  0  0
  -31.5180  -18.7210   19.3680 C   0  0  0  0  0  1  0  0  0  0  0  0
  -30.2690  -18.4810   20.2250 C   0  0  0  0  0  3  0  0  0  0  0  0
  -30.7390  -15.5150   20.2080 C   0  0  0  0  0  0  0  0  0  0  0  0
  -30.7230  -13.0460   19.3760 C   0  0  0  0  0  2  0  0  0  0  0  0
  -29.8170  -12.7890   18.1450 C   0  0  0  0  0  2  0  0  0  0  0  0
  -28.3650  -12.5250   18.5750 C   0  0  0  0  0  2  0  0  0  0  0  0
  -27.9000  -13.5150   19.6730 C   0  0  0  0  0  3  0  0  0  0  0  0
  -28.9370  -13.7030   20.8000 C   0  0  0  0  0  2  0  0  0  0  0  0
  -30.1630  -14.2090   20.1620 N   0  0  0  0  0  0  0  0  0  0  0  0
  -31.9670  -15.4800   20.0360 O   0  0  0  0  0  0  0  0  0  0  0  0
  -29.9920  -16.8100   20.2490 N   0  0  0  0  0  0  0  0  0  0  0  0
  -29.0000  -16.6400   20.3160 H   0  0  0  0  0  0  0  0  0  0  0  0
  -25.5340  -14.0960   20.4140 C   0  0  0  0  0  0  0  0  0  0  0  0
  -24.4610  -13.3310   20.7740 C   0  0  0  0  0  0  0  0  0  0  0  0
  -24.9150  -11.9750   20.7490 C   0  0  0  0  0  0  0  0  0  0  0  0
  -26.5690  -13.2100   20.1790 N   0  0  0  0  0  0  0  0  0  0  0  0
  -26.2100  -11.9280   20.4490 N   0  0  0  0  0  0  0  0  0  0  0  0
  -24.1730  -10.7210   20.9320 C   0  0  0  0  0  0  0  0  0  0  0  0
  -24.5780   -9.7530   21.8780 C   0  0  0  0  0  3  0  0  0  0  0  0
  -23.8320   -8.5670   22.0520 C   0  0  0  0  0  3  0  0  0  0  0  0
  -22.6690   -8.3390   21.2790 C   0  0  0  0  0  0  0  0  0  0  0  0
  -22.2830   -9.2950   20.3240 C   0  0  0  0  0  3  0  0  0  0  0  0
  -23.0280  -10.4730   20.1480 C   0  0  0  0  0  3  0  0  0  0  0  0
  -21.8990   -7.2030   21.3580 O   0  0  0  0  0  0  0  0  0  0  0  0
  -21.8080   -6.4750   22.5170 C   0  0  0  0  0  0  0  0  0  0  0  0
  -21.3360   -7.0440   23.7190 C   0  0  0  0  0  3  0  0  0  0  0  0
  -21.1940   -6.2430   24.8700 C   0  0  0  0  0  3  0  0  0  0  0  0
  -21.5140   -4.8730   24.8180 C   0  0  0  0  0  0  0  0  0  0  0  0
  -21.9790   -4.3020   23.6200 C   0  0  0  0  0  3  0  0  0  0  0  0
  -22.1230   -5.1010   22.4720 C   0  0  0  0  0  0  0  0  0  0  0  0
  -22.5500   -4.5430   21.3140 F   0  0  0  0  0  0  0  0  0  0  0  0
  -21.3710   -4.1010   25.9210 F   0  0  0  0  0  0  0  0  0  0  0  0
  -23.0670  -13.8250   21.0250 C   0  0  0  0  0  0  0  0  0  0  0  0
  -22.3270  -13.1490   21.8960 N   0  0  0  0  0  0  0  0  0  0  0  0
  -22.6430  -14.8440   20.4830 O   0  0  0  0  0  0  0  0  0  0  0  0
  -22.6830  -12.3250   22.3580 H   0  0  0  0  0  0  0  0  0  0  0  0
  -21.3890  -13.4620   22.1040 H   0  0  0  0  0  0  0  0  0  0  0  0
  -25.7110  -15.4660   20.2350 N   0  0  0  0  0  0  0  0  0  0  0  0
  -24.9490  -16.1260   20.3420 H   0  0  0  0  0  0  0  0  0  0  0  0
  -26.5590  -15.8980   19.8910 H   0  0  0  0  0  0  0  0  0  0  0  0
  -28.2300  -24.3200   19.9930 C   0  0  0  0  0  2  0  0  0  0  0  0
  -28.4170  -25.9490   20.2960 O   0  0  0  0  0  0  0  0  0  0  0  0
  -24.7150  -31.8830   23.2240 C   0  0  0  0  0  0  0  0  0  0  0  0
  -27.3980  -27.0470   20.2170 C   0  0  0  0  0  0  0  0  0  0  0  0
  -23.5730  -30.4800   21.5550 C   0  0  0  0  0  3  0  0  0  0  0  0
  -25.0720  -28.9050   20.1460 C   0  0  0  0  0  0  0  0  0  0  0  0
  -26.1400  -30.7270   21.4570 C   0  0  0  0  0  2  0  0  0  0  0  0
  -26.2430  -29.3210   20.7890 C   0  0  0  0  0  0  0  0  0  0  0  0
  -27.4000  -28.4140   20.7990 C   0  0  0  0  0  3  0  0  0  0  0  0
  -26.1950  -26.7900   19.5220 C   0  0  0  0  0  3  0  0  0  0  0  0
  -25.0740  -27.6620   19.4920 C   0  0  0  0  0  3  0  0  0  0  0  0
  -23.8370  -29.8070   20.1790 C   0  0  0  0  0  2  0  0  0  0  0  0
  -24.8300  -31.0580   22.1330 N   0  0  0  0  0  0  0  0  0  0  0  0
  -23.6110  -32.1520   23.7270 O   0  0  0  0  0  0  0  0  0  0  0  0
  -22.8770  -29.4670   22.5040 C   0  0  0  0  0  0  0  0  0  0  0  0
  -21.5480  -29.3010   22.3710 N   0  0  0  0  0  0  0  0  0  0  0  0
  -23.5410  -28.8310   23.3260 O   0  0  0  0  0  0  0  0  0  0  0  0
  -21.0670  -29.8640   21.6830 H   0  0  0  0  0  0  0  0  0  0  0  0
  -18.1620  -28.0940   22.8750 C   0  0  0  0  0  0  0  0  0  0  0  0
  -20.7250  -28.3470   23.1220 C   0  0  0  0  0  3  0  0  0  0  0  0
  -20.8180  -26.9290   22.5110 C   0  0  0  0  0  2  0  0  0  0  0  0
  -19.7060  -26.6370   21.4970 C   0  0  0  0  0  2  0  0  0  0  0  0
  -18.3300  -26.7650   22.1560 C   0  0  0  0  0  2  0  0  0  0  0  0
  -19.2870  -28.8440   23.3130 C   0  0  0  0  0  0  0  0  0  0  0  0
  -19.0740  -30.0860   23.9490 C   0  0  0  0  0  3  0  0  0  0  0  0
  -17.7710  -30.5790   24.1480 C   0  0  0  0  0  3  0  0  0  0  0  0
  -16.6610  -29.8280   23.7220 C   0  0  0  0  0  3  0  0  0  0  0  0
  -16.8580  -28.5860   23.0930 C   0  0  0  0  0  3  0  0  0  0  0  0
  -25.9620  -32.5430   23.8850 C   0  0  0  0  0  3  0  0  0  0  0  0
  -26.4400  -31.7970   25.1920 C   0  0  1  0  0  0  0  0  0  0  0  0
  -25.3130  -31.5630   26.2270 C   0  0  0  0  0  1  0  0  0  0  0  0
  -27.0490  -30.4170   24.8510 C   0  0  0  0  0  1  0  0  0  0  0  0
  -27.5590  -32.6110   25.8810 C   0  0  0  0  0  1  0  0  0  0  0  0
  -25.6200  -33.9430   24.2000 N   0  0  0  0  0  0  0  0  0  0  0  0
  -25.9480  -35.0030   23.4480 C   0  0  0  0  0  0  0  0  0  0  0  0
  -26.6310  -34.9060   22.4250 O   0  0  0  0  0  0  0  0  0  0  0  0
  -25.0130  -34.0890   24.9930 H   0  0  0  0  0  0  0  0  0  0  0  0
  -24.1960  -36.7780   23.0880 C   0  0  0  0  0  1  0  0  0  0  0  0
  -25.4420  -36.3880   23.9000 C   0  0  0  0  0  3  0  0  0  0  0  0
  -27.5580  -37.3160   24.7340 C   0  0  0  0  0  1  0  0  0  0  0  0
  -26.4590  -37.4570   23.7820 N   0  0  0  0  0  0  0  0  0  0  0  0
  -26.0380  -38.3720   23.9190 H   0  0  0  0  0  0  0  0  0  0  0  0
  3  2  1  6
  3  1  1  0
  4  5  2  0
  4  7  1  0
  5  8  1  0
  6  8  1  0
  6 10  1  0
  7  6  2  0
  8  3  1  0
 10  9  1  0
 10 19  1  0
 11 19  1  0
 12 17  1  0
 13 14  1  0
 13 12  1  0
 15 14  1  0
 15 24  1  0
 15 16  1  0
 17 11  1  0
 17 16  1  0
 18 11  2  0
 19 20  1  0
 21 22  2  0
 22 41  1  0
 23 22  1  0
 23 26  1  0
 24 21  1  0
 24 25  1  0
 25 23  2  0
 26 27  1  0
 27 28  2  0
 29 32  1  0
 29 28  1  0
 30 29  2  0
 31 30  1  0
 31 26  2  0
 32 33  1  0
 33 34  1  0
 34 35  2  0
 36 35  1  0
 36 40  1  0
 37 36  2  0
 38 33  2  0
 38 37  1  0
 39 38  1  0
 41 42  1  0
 42 45  1  0
 42 44  1  0
 43 41  2  0
 46 47  1  0
 46 21  1  0
 48 46  1  0
 49 50  1  0
 49  3  1  0
 51 62  2  0
 52 50  1  0
 52 57  1  0
 53 61  1  0
 53 63  1  0
 54 60  1  0
 54 56  1  0
 55 61  1  0
 56 57  2  0
 56 55  1  0
 58 52  2  0
 59 58  1  0
 59 54  2  0
 60 53  1  0
 61 51  1  0
 63 65  2  0
 64 63  1  0
 66 64  1  0
 67 76  2  0
 67 72  1  0
 68 64  1  0
 68 72  1  0
 69 68  1  0
 70 71  1  0
 70 69  1  0
 71 67  1  0
 72 73  2  0
 73 74  1  0
 75 74  2  0
 76 75  1  0
 77 51  1  0
 77 82  1  0
 77 78  1  0
 78 81  1  1
 78 79  1  0
 80 78  1  0
 82 85  1  0
 83 87  1  0
 83 82  1  0
 84 83  2  0
 87 86  1  0
 89 87  1  0
 89 90  1  0
 89 88  1  0
M  ISO  4  11 100  19 100  49 101  50 101
M  END
>  <TORSDO>  (58) 
F 19

>  <SCORE>  (58) 
-16.730

>  <name>  (58) 
58

>  <ligand_id>  (58) 
58

>  <original_smiles>  (58) 
[H]c1nc(C([H])(N([H])C(=O)N2C([H])([H])C([H])([H])C([H])([H])C([H])(n3nc(-c4c([H])c([H])c(Oc5c([H])c([H])c(F)c([H])c5F)c([H])c4[H])c(C(=O)N([H])[H])c3N([H])[H])C2([H])[H])C([H])([H])[H])n(C(C([H])([H])[H])(C([H])([H])[H])C([H])([H])Oc2c([H])c([H])c3c(c2[H])C([H])([H])N(C(=O)C([H])(N([H])C(=O)C([H])(N([H])C([H])([H])[H])C([H])([H])[H])C(C([H])([H])[H])(C([H])([H])[H])C([H])([H])[H])C([H])(C(=O)N([H])C2([H])c4c([H])c([H])c([H])c([H])c4C([H])([H])C([H])([H])C2([H])[H])C3([H])[H])c1[H]

>  <smiles>  (58) 
[H]c1nc(C([H])(N([H])C(=O)N2C([H])([H])C([H])([H])C([H])([H])C([H])(n3nc(-c4c([H])c([H])c(Oc5c([H])c([H])c(F)c([H])c5F)c([H])c4[H])c(C(=O)N([H])[H])c3N([H])[H])C2([H])[H])C([H])([H])[H])n(C(C([H])([H])[H])(C([H])([H])[H])C([H])([H])Oc2c([H])c([H])c3c(c2[H])C([H])([H])N(C(=O)C([H])(N([H])C(=O)C([H])(N([H])C([H])([H])[H])C([H])([H])[H])C(C([H])([H])[H])(C([H])([H])[H])C([H])([H])[H])C([H])(C(=O)N([H])C2([H])c4c([H])c([H])c([H])c([H])c4C([H])([H])C([H])([H])C2([H])[H])C3([H])[H])c1[H]

$$$$
59:0:0
     RDKit          3D

 93101  0  0  1  0  0  0  0  0999 V2000
  -30.2950  -21.4500   22.2020 C   0  0  0  0  0  1  0  0  0  0  0  0
  -30.4560  -21.4450   20.6750 C   0  0  0  0  0  3  0  0  0  0  0  0
  -28.7820  -17.6320   19.3990 C   0  0  0  0  0  3  0  0  0  0  0  0
  -29.9250  -17.6230   20.2190 C   0  0  0  0  0  0  0  0  0  0  0  0
  -28.7280  -19.9570   19.2980 C   0  0  0  0  0  0  0  0  0  0  0  0
  -29.9080  -20.0570   20.0940 C   0  0  0  0  0  0  0  0  0  0  0  0
  -28.2030  -18.7610   18.9350 N   0  0  0  0  0  0  0  0  0  0  0  0
  -30.4930  -18.8610   20.5420 N   0  0  0  0  0  0  0  0  0  0  0  0
  -26.8530  -21.5300   19.9840 C   0  0  0  0  0  1  0  0  0  0  0  0
  -27.8530  -21.1380   18.8900 C   0  0  0  0  0  2  0  0  0  0  0  0
  -31.1240  -16.4610   22.2080 C   0  0  0  0  0  1  0  0  0  0  0  0
  -30.2590  -16.2410   20.9510 C   0  0  0  0  0  3  0  0  0  0  0  0
  -30.7200  -14.8980   20.1940 C   0  0  0  0  0  0  0  0  0  0  0  0
  -30.5200  -12.5100   19.4210 C   0  0  0  0  0  2  0  0  0  0  0  0
  -29.6000  -12.3900   18.1870 C   0  0  0  0  0  2  0  0  0  0  0  0
  -28.1370  -12.2280   18.6320 C   0  0  0  0  0  2  0  0  0  0  0  0
  -27.7240  -13.2820   19.6910 C   0  0  0  0  0  3  0  0  0  0  0  0
  -28.7630  -13.3790   20.8320 C   0  0  0  0  0  2  0  0  0  0  0  0
  -30.0730  -13.6760   20.2320 N   0  0  0  0  0  0  0  0  0  0  0  0
  -31.8010  -14.9600   19.6000 O   0  0  0  0  0  0  0  0  0  0  0  0
  -25.3580  -13.9370   20.4550 C   0  0  0  0  0  0  0  0  0  0  0  0
  -24.2770  -13.1920   20.8390 C   0  0  0  0  0  0  0  0  0  0  0  0
  -24.6960  -11.8290   20.7740 C   0  0  0  0  0  0  0  0  0  0  0  0
  -26.3750  -13.0320   20.1950 N   0  0  0  0  0  0  0  0  0  0  0  0
  -25.9800  -11.7560   20.4450 N   0  0  0  0  0  0  0  0  0  0  0  0
  -23.9270  -10.5890   20.9480 C   0  0  0  0  0  0  0  0  0  0  0  0
  -24.3550   -9.5730   21.8290 C   0  0  0  0  0  3  0  0  0  0  0  0
  -23.5890   -8.4010   21.9950 C   0  0  0  0  0  3  0  0  0  0  0  0
  -22.3780   -8.2360   21.2800 C   0  0  0  0  0  0  0  0  0  0  0  0
  -21.9670   -9.2420   20.3870 C   0  0  0  0  0  3  0  0  0  0  0  0
  -22.7350  -10.4060   20.2180 C   0  0  0  0  0  3  0  0  0  0  0  0
  -21.5810   -7.1200   21.3600 O   0  0  0  0  0  0  0  0  0  0  0  0
  -21.5690   -6.3220   22.4760 C   0  0  0  0  0  0  0  0  0  0  0  0
  -21.2540   -6.8320   23.7550 C   0  0  0  0  0  3  0  0  0  0  0  0
  -21.1870   -5.9630   24.8620 C   0  0  0  0  0  3  0  0  0  0  0  0
  -21.4220   -4.5860   24.6920 C   0  0  0  0  0  0  0  0  0  0  0  0
  -21.7290   -4.0750   23.4200 C   0  0  0  0  0  3  0  0  0  0  0  0
  -21.7990   -4.9410   22.3140 C   0  0  0  0  0  0  0  0  0  0  0  0
  -22.0750   -4.4400   21.0850 F   0  0  0  0  0  0  0  0  0  0  0  0
  -21.3490   -3.7500   25.7550 F   0  0  0  0  0  0  0  0  0  0  0  0
  -22.9040  -13.7130   21.1450 C   0  0  0  0  0  0  0  0  0  0  0  0
  -22.1750  -13.0380   22.0270 N   0  0  0  0  0  0  0  0  0  0  0  0
  -22.4860  -14.7540   20.6390 O   0  0  0  0  0  0  0  0  0  0  0  0
  -22.5250  -12.1950   22.4580 H   0  0  0  0  0  0  0  0  0  0  0  0
  -21.2550  -13.3700   22.2750 H   0  0  0  0  0  0  0  0  0  0  0  0
  -25.5410  -15.3010   20.2810 N   0  0  0  0  0  0  0  0  0  0  0  0
  -24.7800  -15.9590   20.4110 H   0  0  0  0  0  0  0  0  0  0  0  0
  -26.3630  -15.7360   19.8810 H   0  0  0  0  0  0  0  0  0  0  0  0
  -30.2330  -22.9250   19.9910 C   0  0  0  0  0  2  0  0  0  0  0  0
  -30.2490  -24.7270   21.9370 C   0  0  0  0  0  1  0  0  0  0  0  0
  -29.5130  -24.2300   20.6770 C   0  0  0  0  0  3  0  0  0  0  0  0
  -29.2540  -25.5260   19.7420 C   0  0  0  0  0  2  0  0  0  0  0  0
  -28.9860  -26.8810   20.3320 O   0  0  0  0  0  0  0  0  0  0  0  0
  -24.6640  -31.8720   23.2480 C   0  0  0  0  0  0  0  0  0  0  0  0
  -27.7810  -27.6060   20.2170 C   0  0  0  0  0  0  0  0  0  0  0  0
  -23.6520  -30.4280   21.5200 C   0  0  0  0  0  3  0  0  0  0  0  0
  -25.2890  -29.0360   20.1260 C   0  0  0  0  0  0  0  0  0  0  0  0
  -26.1620  -30.9530   21.4600 C   0  0  0  0  0  2  0  0  0  0  0  0
  -26.3850  -29.5990   20.7900 C   0  0  0  0  0  0  0  0  0  0  0  0
  -27.6270  -28.8950   20.8270 C   0  0  0  0  0  3  0  0  0  0  0  0
  -26.6570  -27.1000   19.5260 C   0  0  0  0  0  3  0  0  0  0  0  0
  -25.4300  -27.7950   19.4840 C   0  0  0  0  0  3  0  0  0  0  0  0
  -23.9810  -29.8030   20.1370 C   0  0  0  0  0  2  0  0  0  0  0  0
  -24.8410  -31.1030   22.1340 N   0  0  0  0  0  0  0  0  0  0  0  0
  -23.5380  -32.0490   23.7370 O   0  0  0  0  0  0  0  0  0  0  0  0
  -23.0260  -29.3380   22.4240 C   0  0  0  0  0  0  0  0  0  0  0  0
  -21.7160  -29.0940   22.2570 N   0  0  0  0  0  0  0  0  0  0  0  0
  -23.7200  -28.7150   23.2310 O   0  0  0  0  0  0  0  0  0  0  0  0
  -21.2080  -29.6590   21.5930 H   0  0  0  0  0  0  0  0  0  0  0  0
  -18.3930  -27.7210   22.6590 C   0  0  0  0  0  0  0  0  0  0  0  0
  -20.9350  -28.0780   22.9690 C   0  0  0  0  0  3  0  0  0  0  0  0
  -21.1020  -26.6830   22.3240 C   0  0  0  0  0  2  0  0  0  0  0  0
  -20.0260  -26.3680   21.2790 C   0  0  0  0  0  2  0  0  0  0  0  0
  -18.6330  -26.4170   21.9150 C   0  0  0  0  0  2  0  0  0  0  0  0
  -19.4740  -28.5070   23.1390 C   0  0  0  0  0  0  0  0  0  0  0  0
  -19.1950  -29.7280   23.7940 C   0  0  0  0  0  3  0  0  0  0  0  0
  -17.8690  -30.1620   23.9750 C   0  0  0  0  0  3  0  0  0  0  0  0
  -16.8020  -29.3740   23.5100 C   0  0  0  0  0  3  0  0  0  0  0  0
  -17.0630  -28.1540   22.8590 C   0  0  0  0  0  3  0  0  0  0  0  0
  -25.8620  -32.5860   23.9500 C   0  0  0  0  0  3  0  0  0  0  0  0
  -25.4590  -33.9760   24.2120 N   0  0  0  0  0  0  0  0  0  0  0  0
  -25.7970  -35.0210   23.4460 C   0  0  0  0  0  0  0  0  0  0  0  0
  -26.5470  -34.9210   22.4700 O   0  0  0  0  0  0  0  0  0  0  0  0
  -24.7960  -34.1240   24.9590 H   0  0  0  0  0  0  0  0  0  0  0  0
  -24.0090  -36.7090   22.9170 C   0  0  0  0  0  1  0  0  0  0  0  0
  -25.2120  -36.3960   23.8210 C   0  0  0  0  0  3  0  0  0  0  0  0
  -27.2420  -37.4100   24.7540 C   0  0  0  0  0  1  0  0  0  0  0  0
  -26.1940  -37.4990   23.7400 N   0  0  0  0  0  0  0  0  0  0  0  0
  -25.7330  -38.3980   23.8420 H   0  0  0  0  0  0  0  0  0  0  0  0
  -26.3100  -31.8760   25.2860 C   0  0  1  0  0  0  0  0  0  0  0  0
  -25.1500  -31.6180   26.2760 C   0  0  0  0  0  1  0  0  0  0  0  0
  -26.9830  -30.5160   24.9830 C   0  0  0  0  0  1  0  0  0  0  0  0
  -27.3710  -32.7420   26.0040 C   0  0  0  0  0  1  0  0  0  0  0  0
  2  1  1  0
  3  4  1  0
  4  8  2  0
  4 12  1  0
  5  6  2  0
  6  8  1  0
  6  2  1  0
  7  5  1  0
  7  3  2  0
 10  5  1  0
 10  9  1  0
 12 11  1  0
 13 19  1  0
 13 12  1  0
 14 19  1  0
 15 16  1  0
 15 14  1  0
 17 16  1  0
 17 24  1  0
 17 18  1  0
 19 18  1  0
 20 13  2  0
 21 22  2  0
 22 41  1  0
 23 22  1  0
 23 26  1  0
 24 25  1  0
 24 21  1  0
 25 23  2  0
 26 27  1  0
 27 28  2  0
 29 32  1  0
 29 28  1  0
 30 29  2  0
 31 30  1  0
 31 26  2  0
 32 33  1  0
 33 34  1  0
 34 35  2  0
 36 35  1  0
 36 40  1  0
 37 36  2  0
 38 33  2  0
 38 37  1  0
 39 38  1  0
 41 42  1  0
 42 45  1  0
 42 44  1  0
 43 41  2  0
 46 47  1  0
 46 21  1  0
 48 46  1  0
 49  2  1  0
 49 51  1  0
 51 50  1  0
 52 53  1  0
 52 51  1  0
 54 65  2  0
 55 53  1  0
 55 60  1  0
 56 64  1  0
 56 66  1  0
 57 63  1  0
 57 59  1  0
 58 64  1  0
 59 60  2  0
 59 58  1  0
 61 55  2  0
 62 61  1  0
 62 57  2  0
 63 56  1  0
 64 54  1  0
 66 68  2  0
 67 66  1  0
 69 67  1  0
 70 79  2  0
 70 75  1  0
 71 67  1  0
 71 75  1  0
 72 71  1  0
 73 74  1  0
 73 72  1  0
 74 70  1  0
 75 76  2  0
 76 77  1  0
 78 77  2  0
 79 78  1  0
 80 54  1  0
 80 81  1  0
 80 90  1  0
 81 84  1  0
 82 86  1  0
 82 81  1  0
 83 82  2  0
 86 85  1  0
 88 86  1  0
 88 89  1  0
 88 87  1  0
 90 93  1  1
 90 91  1  0
 92 90  1  0
M  ISO  4  12 100  13 100  52 101  53 101
M  END
>  <TORSDO>  (59) 
F 22

>  <SCORE>  (59) 
-12.500

>  <name>  (59) 
59

>  <ligand_id>  (59) 
59

>  <original_smiles>  (59) 
[H]c1nc(C([H])([H])C([H])([H])[H])c(C([H])(C([H])([H])[H])C([H])([H])C([H])(C([H])([H])[H])C([H])([H])Oc2c([H])c([H])c3c(c2[H])C([H])([H])N(C(=O)C([H])(N([H])C(=O)C([H])(N([H])C([H])([H])[H])C([H])([H])[H])C(C([H])([H])[H])(C([H])([H])[H])C([H])([H])[H])C([H])(C(=O)N([H])C2([H])c4c([H])c([H])c([H])c([H])c4C([H])([H])C([H])([H])C2([H])[H])C3([H])[H])nc1C([H])(C(=O)N1C([H])([H])C([H])([H])C([H])([H])C([H])(n2nc(-c3c([H])c([H])c(Oc4c([H])c([H])c(F)c([H])c4F)c([H])c3[H])c(C(=O)N([H])[H])c2N([H])[H])C1([H])[H])C([H])([H])[H]

>  <smiles>  (59) 
[H]c1nc(C([H])([H])C([H])([H])[H])c(C([H])(C([H])([H])[H])C([H])([H])C([H])(C([H])([H])[H])C([H])([H])Oc2c([H])c([H])c3c(c2[H])C([H])([H])N(C(=O)C([H])(N([H])C(=O)C([H])(N([H])C([H])([H])[H])C([H])([H])[H])C(C([H])([H])[H])(C([H])([H])[H])C([H])([H])[H])C([H])(C(=O)N([H])C2([H])c4c([H])c([H])c([H])c([H])c4C([H])([H])C([H])([H])C2([H])[H])C3([H])[H])nc1C([H])(C(=O)N1C([H])([H])C([H])([H])C([H])([H])C([H])(n2nc(-c3c([H])c([H])c(Oc4c([H])c([H])c(F)c([H])c4F)c([H])c3[H])c(C(=O)N([H])[H])c2N([H])[H])C1([H])[H])C([H])([H])[H]

$$$$
60:0:0
     RDKit          3D

 91 99  0  0  1  0  0  0  0  0999 V2000
  -30.2940  -22.9000   21.6470 C   0  0  0  0  0  1  0  0  0  0  0  0
  -30.1920  -22.8100   19.1370 C   0  0  0  0  0  1  0  0  0  0  0  0
  -29.3750  -22.6300   20.4350 C   0  0  1  0  0  0  0  0  0  0  0  0
  -28.9020  -21.0740   20.5260 C   0  0  0  0  0  3  0  0  0  0  0  0
  -29.9930  -19.8850   20.3860 C   0  0  0  0  0  3  0  0  0  0  0  0
  -30.4860  -17.3230   20.8210 C   0  0  0  0  0  3  0  0  0  0  0  0
  -29.9310  -16.1110   20.4150 C   0  0  0  0  0  0  0  0  0  0  0  0
  -28.6160  -17.8020   19.7330 C   0  0  0  0  0  3  0  0  0  0  0  0
  -27.4750  -18.4810   19.0410 C   0  0  0  0  0  1  0  0  0  0  0  0
  -29.6600  -18.3750   20.3750 N   0  0  0  0  0  0  0  0  0  0  0  0
  -28.7980  -16.4610   19.7320 N   0  0  0  0  0  0  0  0  0  0  0  0
  -28.2520  -15.8200   19.1740 H   0  0  0  0  0  0  0  0  0  0  0  0
  -30.6300  -14.7210   20.3300 C   0  0  0  0  0  0  0  0  0  0  0  0
  -30.3580  -12.4440   19.3630 C   0  0  0  0  0  2  0  0  0  0  0  0
  -29.4370  -12.5330   18.1270 C   0  0  0  0  0  2  0  0  0  0  0  0
  -27.9590  -12.3810   18.5490 C   0  0  0  0  0  2  0  0  0  0  0  0
  -27.5860  -13.2650   19.7710 C   0  0  0  0  0  3  0  0  0  0  0  0
  -28.6480  -13.2110   20.8880 C   0  0  0  0  0  2  0  0  0  0  0  0
  -29.9530  -13.5240   20.2920 N   0  0  0  0  0  0  0  0  0  0  0  0
  -31.8370  -14.7490   20.0770 O   0  0  0  0  0  0  0  0  0  0  0  0
  -25.2040  -13.8520   20.5190 C   0  0  0  0  0  0  0  0  0  0  0  0
  -24.1410  -13.0740   20.8840 C   0  0  0  0  0  0  0  0  0  0  0  0
  -24.6100  -11.7260   20.8570 C   0  0  0  0  0  0  0  0  0  0  0  0
  -26.2480  -12.9750   20.2740 N   0  0  0  0  0  0  0  0  0  0  0  0
  -25.8980  -11.6910   20.5440 N   0  0  0  0  0  0  0  0  0  0  0  0
  -23.8890  -10.4610   21.0510 C   0  0  0  0  0  0  0  0  0  0  0  0
  -24.3380   -9.4910   21.9740 C   0  0  0  0  0  3  0  0  0  0  0  0
  -23.6170   -8.2910   22.1550 C   0  0  0  0  0  3  0  0  0  0  0  0
  -22.4360   -8.0530   21.4120 C   0  0  0  0  0  0  0  0  0  0  0  0
  -22.0050   -9.0130   20.4800 C   0  0  0  0  0  3  0  0  0  0  0  0
  -22.7260  -10.2050   20.2960 C   0  0  0  0  0  3  0  0  0  0  0  0
  -21.6850   -6.9060   21.5040 O   0  0  0  0  0  0  0  0  0  0  0  0
  -21.6610   -6.1500   22.6470 C   0  0  0  0  0  0  0  0  0  0  0  0
  -21.2690   -6.6930   23.8910 C   0  0  0  0  0  3  0  0  0  0  0  0
  -21.1930   -5.8640   25.0290 C   0  0  0  0  0  3  0  0  0  0  0  0
  -21.5010   -4.4940   24.9230 C   0  0  0  0  0  0  0  0  0  0  0  0
  -21.8870   -3.9520   23.6860 C   0  0  0  0  0  3  0  0  0  0  0  0
  -21.9650   -4.7760   22.5500 C   0  0  0  0  0  0  0  0  0  0  0  0
  -22.3190   -4.2460   21.3550 F   0  0  0  0  0  0  0  0  0  0  0  0
  -21.4180   -3.6950   26.0130 F   0  0  0  0  0  0  0  0  0  0  0  0
  -22.7430  -13.5490   21.1580 C   0  0  0  0  0  0  0  0  0  0  0  0
  -22.0180  -12.8570   22.0280 N   0  0  0  0  0  0  0  0  0  0  0  0
  -22.3060  -14.5760   20.6400 O   0  0  0  0  0  0  0  0  0  0  0  0
  -22.3840  -12.0310   22.4770 H   0  0  0  0  0  0  0  0  0  0  0  0
  -21.0810  -13.1620   22.2540 H   0  0  0  0  0  0  0  0  0  0  0  0
  -25.3580  -15.2250   20.3600 N   0  0  0  0  0  0  0  0  0  0  0  0
  -24.5750  -15.8520   20.5140 H   0  0  0  0  0  0  0  0  0  0  0  0
  -26.2380  -15.7130   20.2870 H   0  0  0  0  0  0  0  0  0  0  0  0
  -28.2050  -23.7610   20.3520 C   0  0  0  0  0  2  0  0  0  0  0  0
  -28.3520  -25.2560   20.9570 C   0  0  0  0  0  2  0  0  0  0  0  0
  -28.3480  -26.5010   20.1550 O   0  0  0  0  0  0  0  0  0  0  0  0
  -24.6190  -31.8970   23.2480 C   0  0  0  0  0  0  0  0  0  0  0  0
  -27.2220  -27.3320   20.1970 C   0  0  0  0  0  0  0  0  0  0  0  0
  -23.4090  -30.4970   21.6110 C   0  0  0  0  0  3  0  0  0  0  0  0
  -24.8530  -28.9310   20.1950 C   0  0  0  0  0  0  0  0  0  0  0  0
  -25.9480  -30.8090   21.4260 C   0  0  0  0  0  2  0  0  0  0  0  0
  -26.0250  -29.4280   20.7810 C   0  0  0  0  0  0  0  0  0  0  0  0
  -27.2140  -28.6400   20.7720 C   0  0  0  0  0  3  0  0  0  0  0  0
  -26.0320  -26.8760   19.6010 C   0  0  0  0  0  3  0  0  0  0  0  0
  -24.8560  -27.6570   19.6020 C   0  0  0  0  0  3  0  0  0  0  0  0
  -23.6210  -29.8110   20.2350 C   0  0  0  0  0  2  0  0  0  0  0  0
  -24.6770  -31.0870   22.1490 N   0  0  0  0  0  0  0  0  0  0  0  0
  -23.5380  -32.1760   23.7880 O   0  0  0  0  0  0  0  0  0  0  0  0
  -22.7500  -29.4840   22.5750 C   0  0  0  0  0  0  0  0  0  0  0  0
  -21.4240  -29.3000   22.4460 N   0  0  0  0  0  0  0  0  0  0  0  0
  -23.4280  -28.8660   23.3990 O   0  0  0  0  0  0  0  0  0  0  0  0
  -20.9360  -29.8350   21.7410 H   0  0  0  0  0  0  0  0  0  0  0  0
  -18.0550  -28.0920   22.9550 C   0  0  0  0  0  0  0  0  0  0  0  0
  -20.6120  -28.3670   23.2280 C   0  0  0  0  0  3  0  0  0  0  0  0
  -20.7230  -26.9310   22.6670 C   0  0  0  0  0  2  0  0  0  0  0  0
  -19.6260  -26.5940   21.6530 C   0  0  0  0  0  2  0  0  0  0  0  0
  -18.2410  -26.7380   22.2910 C   0  0  0  0  0  2  0  0  0  0  0  0
  -19.1690  -28.8630   23.3810 C   0  0  0  0  0  0  0  0  0  0  0  0
  -18.9410  -30.1300   23.9620 C   0  0  0  0  0  3  0  0  0  0  0  0
  -17.6340  -30.6250   24.1250 C   0  0  0  0  0  3  0  0  0  0  0  0
  -16.5330  -29.8500   23.7160 C   0  0  0  0  0  3  0  0  0  0  0  0
  -16.7460  -28.5860   23.1350 C   0  0  0  0  0  3  0  0  0  0  0  0
  -25.9060  -32.5320   23.8610 C   0  0  0  0  0  3  0  0  0  0  0  0
  -25.5970  -33.9300   24.1880 N   0  0  0  0  0  0  0  0  0  0  0  0
  -25.9280  -34.9830   23.4270 C   0  0  0  0  0  0  0  0  0  0  0  0
  -26.5950  -34.8770   22.3950 O   0  0  0  0  0  0  0  0  0  0  0  0
  -25.0040  -34.0860   24.9900 H   0  0  0  0  0  0  0  0  0  0  0  0
  -24.1990  -36.7770   23.0780 C   0  0  0  0  0  1  0  0  0  0  0  0
  -25.4410  -36.3710   23.8850 C   0  0  0  0  0  3  0  0  0  0  0  0
  -27.5790  -37.2530   24.7110 C   0  0  0  0  0  1  0  0  0  0  0  0
  -26.4740  -37.4240   23.7720 N   0  0  0  0  0  0  0  0  0  0  0  0
  -26.0670  -38.3430   23.9250 H   0  0  0  0  0  0  0  0  0  0  0  0
  -26.4290  -31.7670   25.1380 C   0  0  1  0  0  0  0  0  0  0  0  0
  -25.3420  -31.5380   26.2140 C   0  0  0  0  0  1  0  0  0  0  0  0
  -27.0120  -30.3850   24.7610 C   0  0  0  0  0  1  0  0  0  0  0  0
  -27.5800  -32.5680   25.7910 C   0  0  0  0  0  1  0  0  0  0  0  0
  3  2  1  6
  3  4  1  0
  3  1  1  0
  5  4  2  0
  7  6  2  0
  8  9  1  0
  8 10  1  0
 10  5  1  0
 10  6  1  0
 11  8  1  0
 11  7  1  0
 12 11  1  0
 13  7  1  0
 14 19  1  0
 15 16  1  0
 15 14  1  0
 17 16  1  0
 17 24  1  0
 17 18  1  0
 19 13  1  0
 19 18  1  0
 20 13  2  0
 21 22  2  0
 22 41  1  0
 23 22  1  0
 23 26  1  0
 24 21  1  0
 24 25  1  0
 25 23  2  0
 26 27  1  0
 27 28  2  0
 29 32  1  0
 29 28  1  0
 30 29  2  0
 31 30  1  0
 31 26  2  0
 32 33  1  0
 33 34  1  0
 34 35  2  0
 36 35  1  0
 36 40  1  0
 37 36  2  0
 38 33  2  0
 38 37  1  0
 39 38  1  0
 41 42  1  0
 42 45  1  0
 42 44  1  0
 43 41  2  0
 46 47  1  0
 46 21  1  0
 48 46  1  0
 49  3  1  0
 49 50  1  0
 51 53  1  0
 51 50  1  0
 52 63  2  0
 53 58  1  0
 54 62  1  0
 54 64  1  0
 55 61  1  0
 55 57  1  0
 56 62  1  0
 57 56  1  0
 58 57  2  0
 59 60  1  0
 59 53  2  0
 60 55  2  0
 61 54  1  0
 62 52  1  0
 64 66  2  0
 65 64  1  0
 67 65  1  0
 68 77  2  0
 68 73  1  0
 69 65  1  0
 69 73  1  0
 70 69  1  0
 71 72  1  0
 71 70  1  0
 72 68  1  0
 73 74  2  0
 74 75  1  0
 76 75  2  0
 77 76  1  0
 78 52  1  0
 78 79  1  0
 78 88  1  0
 79 82  1  0
 80 84  1  0
 80 79  1  0
 81 80  2  0
 84 83  1  0
 86 84  1  0
 86 87  1  0
 86 85  1  0
 88 91  1  1
 88 89  1  0
 90 88  1  0
M  ISO  4   7 100  13 100  50 101  51 101
M  END
>  <TORSDO>  (60) 
F 21

>  <SCORE>  (60) 
-13.720

>  <name>  (60) 
60

>  <ligand_id>  (60) 
60

>  <original_smiles>  (60) 
[H]c1c([H])c([H])c2c(c1[H])C([H])([H])C([H])([H])C([H])([H])C2([H])N([H])C(=O)C1([H])N(C(=O)C([H])(N([H])C(=O)C([H])(N([H])C([H])([H])[H])C([H])([H])[H])C(C([H])([H])[H])(C([H])([H])[H])C([H])([H])[H])C([H])([H])c2c([H])c(OC([H])([H])C([H])([H])C(C([H])([H])[H])(C([H])([H])[H])C([H])([H])C([H])([H])n3c([H])c(C(=O)N4C([H])([H])C([H])([H])C([H])([H])C([H])(n5nc(-c6c([H])c([H])c(Oc7c([H])c([H])c(F)c([H])c7F)c([H])c6[H])c(C(=O)N([H])[H])c5N([H])[H])C4([H])[H])[n+]([H])c3C([H])([H])[H])c([H])c([H])c2C1([H])[H]

>  <smiles>  (60) 
[H]c1c([H])c([H])c2c(c1[H])C([H])([H])C([H])([H])C([H])([H])C2([H])N([H])C(=O)C1([H])N(C(=O)C([H])(N([H])C(=O)C([H])(N([H])C([H])([H])[H])C([H])([H])[H])C(C([H])([H])[H])(C([H])([H])[H])C([H])([H])[H])C([H])([H])c2c([H])c(OC([H])([H])C([H])([H])C(C([H])([H])[H])(C([H])([H])[H])C([H])([H])C([H])([H])n3c([H])c(C(=O)N4C([H])([H])C([H])([H])C([H])([H])C([H])(n5nc(-c6c([H])c([H])c(Oc7c([H])c([H])c(F)c([H])c7F)c([H])c6[H])c(C(=O)N([H])[H])c5N([H])[H])C4([H])[H])[n+]([H])c3C([H])([H])[H])c([H])c([H])c2C1([H])[H]

$$$$
61:0:0
     RDKit          3D

 88 96  0  0  1  0  0  0  0  0999 V2000
  -28.7010  -21.6960   20.1230 C   0  0  0  0  0  3  0  0  0  0  0  0
  -28.9640  -23.3370   20.4950 C   0  0  0  0  0  3  0  0  0  0  0  0
  -27.9900  -24.6610   20.0800 C   0  0  0  0  0  3  0  0  0  0  0  0
  -28.2420  -26.1860   20.3230 O   0  0  0  0  0  0  0  0  0  0  0  0
  -24.6410  -31.9110   23.2640 C   0  0  0  0  0  0  0  0  0  0  0  0
  -27.1940  -27.1760   20.2380 C   0  0  0  0  0  0  0  0  0  0  0  0
  -23.4350  -30.5180   21.6270 C   0  0  0  0  0  3  0  0  0  0  0  0
  -24.8730  -28.9330   20.2020 C   0  0  0  0  0  0  0  0  0  0  0  0
  -25.9900  -30.7690   21.4650 C   0  0  0  0  0  2  0  0  0  0  0  0
  -26.0550  -29.3760   20.8090 C   0  0  0  0  0  0  0  0  0  0  0  0
  -27.2170  -28.5150   20.8080 C   0  0  0  0  0  3  0  0  0  0  0  0
  -25.9850  -26.8370   19.5910 C   0  0  0  0  0  3  0  0  0  0  0  0
  -24.8500  -27.6770   19.5780 C   0  0  0  0  0  3  0  0  0  0  0  0
  -23.6500  -29.8340   20.2500 C   0  0  0  0  0  2  0  0  0  0  0  0
  -24.7080  -31.0880   22.1720 N   0  0  0  0  0  0  0  0  0  0  0  0
  -23.5570  -32.2030   23.7910 O   0  0  0  0  0  0  0  0  0  0  0  0
  -22.7500  -29.5180   22.5910 C   0  0  0  0  0  0  0  0  0  0  0  0
  -21.4210  -29.3500   22.4600 N   0  0  0  0  0  0  0  0  0  0  0  0
  -23.4160  -28.8970   23.4230 O   0  0  0  0  0  0  0  0  0  0  0  0
  -20.9390  -29.9070   21.7690 H   0  0  0  0  0  0  0  0  0  0  0  0
  -18.0350  -28.1580   22.9530 C   0  0  0  0  0  0  0  0  0  0  0  0
  -20.5930  -28.4180   23.2300 C   0  0  0  0  0  3  0  0  0  0  0  0
  -20.6950  -26.9840   22.6630 C   0  0  0  0  0  2  0  0  0  0  0  0
  -19.5980  -26.6570   21.6450 C   0  0  0  0  0  2  0  0  0  0  0  0
  -18.2140  -26.8050   22.2830 C   0  0  0  0  0  2  0  0  0  0  0  0
  -19.1530  -28.9230   23.3830 C   0  0  0  0  0  0  0  0  0  0  0  0
  -18.9320  -30.1870   23.9700 C   0  0  0  0  0  3  0  0  0  0  0  0
  -17.6250  -30.6870   24.1320 C   0  0  0  0  0  3  0  0  0  0  0  0
  -16.5230  -29.9200   23.7170 C   0  0  0  0  0  3  0  0  0  0  0  0
  -16.7290  -28.6570   23.1330 C   0  0  0  0  0  3  0  0  0  0  0  0
  -25.9220  -32.5400   23.8920 C   0  0  0  0  0  3  0  0  0  0  0  0
  -26.4160  -31.7780   25.1840 C   0  0  1  0  0  0  0  0  0  0  0  0
  -25.3080  -31.5680   26.2440 C   0  0  0  0  0  1  0  0  0  0  0  0
  -26.9870  -30.3880   24.8220 C   0  0  0  0  0  1  0  0  0  0  0  0
  -27.5680  -32.5710   25.8450 C   0  0  0  0  0  1  0  0  0  0  0  0
  -25.6200  -33.9450   24.2100 N   0  0  0  0  0  0  0  0  0  0  0  0
  -25.9560  -34.9920   23.4460 C   0  0  0  0  0  0  0  0  0  0  0  0
  -26.6190  -34.8770   22.4110 O   0  0  0  0  0  0  0  0  0  0  0  0
  -25.0240  -34.1040   25.0090 H   0  0  0  0  0  0  0  0  0  0  0  0
  -24.2340  -36.7980   23.1010 C   0  0  0  0  0  1  0  0  0  0  0  0
  -25.4830  -36.3890   23.8980 C   0  0  0  0  0  3  0  0  0  0  0  0
  -27.6320  -37.2700   24.7000 C   0  0  0  0  0  1  0  0  0  0  0  0
  -26.5200  -37.4350   23.7660 N   0  0  0  0  0  0  0  0  0  0  0  0
  -26.1220  -38.3600   23.9030 H   0  0  0  0  0  0  0  0  0  0  0  0
  -29.6470  -20.3930   20.6580 C   0  0  0  0  0  3  0  0  0  0  0  0
  -30.4060  -17.7340   20.7070 C   0  0  0  0  0  3  0  0  0  0  0  0
  -29.8820  -16.4670   20.3360 C   0  0  0  0  0  0  0  0  0  0  0  0
  -28.4370  -18.1640   19.8230 C   0  0  0  0  0  3  0  0  0  0  0  0
  -27.1950  -18.8090   19.3050 C   0  0  0  0  0  1  0  0  0  0  0  0
  -29.4960  -18.8000   20.3880 N   0  0  0  0  0  0  0  0  0  0  0  0
  -28.6830  -16.8190   19.7600 N   0  0  0  0  0  0  0  0  0  0  0  0
  -28.1050  -16.1640   19.2540 H   0  0  0  0  0  0  0  0  0  0  0  0
  -30.5800  -15.0130   20.2800 C   0  0  0  0  0  0  0  0  0  0  0  0
  -30.4160  -12.6490   19.3770 C   0  0  0  0  0  2  0  0  0  0  0  0
  -29.4780  -12.5830   18.1510 C   0  0  0  0  0  2  0  0  0  0  0  0
  -28.0140  -12.3860   18.5830 C   0  0  0  0  0  2  0  0  0  0  0  0
  -27.6110  -13.3110   19.7620 C   0  0  0  0  0  3  0  0  0  0  0  0
  -28.6780  -13.3640   20.8710 C   0  0  0  0  0  2  0  0  0  0  0  0
  -29.9460  -13.7660   20.2500 N   0  0  0  0  0  0  0  0  0  0  0  0
  -31.7970  -15.0000   20.0710 O   0  0  0  0  0  0  0  0  0  0  0  0
  -25.2370  -13.8700   20.5420 C   0  0  0  0  0  0  0  0  0  0  0  0
  -24.1790  -13.0860   20.9070 C   0  0  0  0  0  0  0  0  0  0  0  0
  -24.6520  -11.7380   20.8640 C   0  0  0  0  0  0  0  0  0  0  0  0
  -26.2830  -13.0000   20.2820 N   0  0  0  0  0  0  0  0  0  0  0  0
  -25.9420  -11.7110   20.5470 N   0  0  0  0  0  0  0  0  0  0  0  0
  -23.9320  -10.4710   21.0520 C   0  0  0  0  0  0  0  0  0  0  0  0
  -24.3780   -9.5000   21.9760 C   0  0  0  0  0  3  0  0  0  0  0  0
  -23.6580   -8.2990   22.1540 C   0  0  0  0  0  3  0  0  0  0  0  0
  -22.4780   -8.0610   21.4100 C   0  0  0  0  0  0  0  0  0  0  0  0
  -22.0510   -9.0220   20.4780 C   0  0  0  0  0  3  0  0  0  0  0  0
  -22.7710  -10.2150   20.2980 C   0  0  0  0  0  3  0  0  0  0  0  0
  -21.7280   -6.9120   21.4980 O   0  0  0  0  0  0  0  0  0  0  0  0
  -21.6910   -6.1620   22.6460 C   0  0  0  0  0  0  0  0  0  0  0  0
  -21.2570   -6.7040   23.8750 C   0  0  0  0  0  3  0  0  0  0  0  0
  -21.1690   -5.8810   25.0150 C   0  0  0  0  0  3  0  0  0  0  0  0
  -21.5040   -4.5170   24.9270 C   0  0  0  0  0  0  0  0  0  0  0  0
  -21.9260   -3.9730   23.7010 C   0  0  0  0  0  3  0  0  0  0  0  0
  -22.0180   -4.7940   22.5640 C   0  0  0  0  0  0  0  0  0  0  0  0
  -22.4080   -4.2610   21.3800 F   0  0  0  0  0  0  0  0  0  0  0  0
  -21.4080   -3.7230   26.0200 F   0  0  0  0  0  0  0  0  0  0  0  0
  -22.7830  -13.5550   21.1950 C   0  0  0  0  0  0  0  0  0  0  0  0
  -22.0670  -12.8510   22.0630 N   0  0  0  0  0  0  0  0  0  0  0  0
  -22.3380  -14.5830   20.6840 O   0  0  0  0  0  0  0  0  0  0  0  0
  -22.4400  -12.0200   22.5000 H   0  0  0  0  0  0  0  0  0  0  0  0
  -21.1280  -13.1440   22.2940 H   0  0  0  0  0  0  0  0  0  0  0  0
  -25.3910  -15.2450   20.3900 N   0  0  0  0  0  0  0  0  0  0  0  0
  -24.6260  -15.8810   20.5850 H   0  0  0  0  0  0  0  0  0  0  0  0
  -26.2790  -15.7120   20.3410 H   0  0  0  0  0  0  0  0  0  0  0  0
  1  2  1  0
  1 45  2  0
  3  4  1  0
  3  2  2  0
  5 16  2  0
  6  4  1  0
  6 11  1  0
  7 15  1  0
  7 17  1  0
  8 14  1  0
  8 10  1  0
  9 15  1  0
 10  9  1  0
 11 10  2  0
 12  6  2  0
 13 12  1  0
 13  8  2  0
 14  7  1  0
 15  5  1  0
 17 19  2  0
 18 17  1  0
 20 18  1  0
 21 30  2  0
 21 26  1  0
 22 18  1  0
 22 26  1  0
 23 22  1  0
 24 25  1  0
 24 23  1  0
 25 21  1  0
 26 27  2  0
 27 28  1  0
 29 28  2  0
 30 29  1  0
 31  5  1  0
 31 36  1  0
 31 32  1  0
 32 35  1  1
 32 33  1  0
 34 32  1  0
 36 39  1  0
 37 41  1  0
 37 36  1  0
 38 37  2  0
 41 40  1  0
 43 41  1  0
 43 44  1  0
 43 42  1  0
 47 46  2  0
 48 49  1  0
 48 50  1  0
 50 45  1  0
 50 46  1  0
 51 48  1  0
 51 47  1  0
 52 51  1  0
 53 47  1  0
 54 59  1  0
 55 56  1  0
 55 54  1  0
 57 56  1  0
 57 64  1  0
 57 58  1  0
 59 53  1  0
 59 58  1  0
 60 53  2  0
 61 62  2  0
 62 81  1  0
 63 62  1  0
 63 66  1  0
 64 61  1  0
 64 65  1  0
 65 63  2  0
 66 67  1  0
 67 68  2  0
 69 72  1  0
 69 68  1  0
 70 69  2  0
 71 70  1  0
 71 66  2  0
 72 73  1  0
 73 74  1  0
 74 75  2  0
 76 75  1  0
 76 80  1  0
 77 76  2  0
 78 73  2  0
 78 77  1  0
 79 78  1  0
 81 82  1  0
 82 85  1  0
 82 84  1  0
 83 81  2  0
 86 61  1  0
 86 87  1  0
 88 86  1  0
M  ISO  4   3 101   4 101  47 100  53 100
M  END
>  <TORSDO>  (61) 
F 20

>  <SCORE>  (61) 
-15.578

>  <name>  (61) 
61

>  <ligand_id>  (61) 
61

>  <original_smiles>  (61) 
[H]c1c([H])c([H])c2c(c1[H])C([H])([H])C([H])([H])C([H])([H])C2([H])N([H])C(=O)C1([H])N(C(=O)C([H])(N([H])C(=O)C([H])(N([H])C([H])([H])[H])C([H])([H])[H])C(C([H])([H])[H])(C([H])([H])[H])C([H])([H])[H])C([H])([H])c2c([H])c(OC([H])([H])C([H])([H])C([H])([H])C([H])([H])n3c([H])c(C(=O)N4C([H])([H])C([H])([H])C([H])([H])C([H])(n5nc(-c6c([H])c([H])c(Oc7c([H])c([H])c(F)c([H])c7F)c([H])c6[H])c(C(=O)N([H])[H])c5N([H])[H])C4([H])[H])[n+]([H])c3C([H])([H])[H])c([H])c([H])c2C1([H])[H]

>  <smiles>  (61) 
[H]c1c([H])c([H])c2c(c1[H])C([H])([H])C([H])([H])C([H])([H])C2([H])N([H])C(=O)C1([H])N(C(=O)C([H])(N([H])C(=O)C([H])(N([H])C([H])([H])[H])C([H])([H])[H])C(C([H])([H])[H])(C([H])([H])[H])C([H])([H])[H])C([H])([H])c2c([H])c(OC([H])([H])C([H])([H])C([H])([H])C([H])([H])n3c([H])c(C(=O)N4C([H])([H])C([H])([H])C([H])([H])C([H])(n5nc(-c6c([H])c([H])c(Oc7c([H])c([H])c(F)c([H])c7F)c([H])c6[H])c(C(=O)N([H])[H])c5N([H])[H])C4([H])[H])[n+]([H])c3C([H])([H])[H])c([H])c([H])c2C1([H])[H]

$$$$
62:0:0
     RDKit          3D

 93101  0  0  1  0  0  0  0  0999 V2000
  -29.5310  -21.1710   21.0220 C   0  0  0  0  0  3  0  0  0  0  0  0
  -29.1930  -22.1450   18.6890 C   0  0  0  0  0  1  0  0  0  0  0  0
  -27.2390  -21.9750   20.2450 C   0  0  0  0  0  1  0  0  0  0  0  0
  -28.7500  -22.2850   20.1580 C   0  0  1  0  0  0  0  0  0  0  0  0
  -28.9900  -23.8230   20.6120 C   0  0  0  0  0  3  0  0  0  0  0  0
  -28.0590  -24.9810   20.0040 C   0  0  0  0  0  3  0  0  0  0  0  0
  -28.2960  -26.4330   20.2470 O   0  0  0  0  0  0  0  0  0  0  0  0
  -24.6160  -31.8940   23.2070 C   0  0  0  0  0  0  0  0  0  0  0  0
  -27.1970  -27.3110   20.1570 C   0  0  0  0  0  0  0  0  0  0  0  0
  -23.4010  -30.4950   21.5760 C   0  0  0  0  0  3  0  0  0  0  0  0
  -24.8410  -28.9430   20.1430 C   0  0  0  0  0  0  0  0  0  0  0  0
  -25.9420  -30.8030   21.3830 C   0  0  0  0  0  2  0  0  0  0  0  0
  -26.0140  -29.4240   20.7390 C   0  0  0  0  0  0  0  0  0  0  0  0
  -27.1930  -28.6180   20.7390 C   0  0  0  0  0  3  0  0  0  0  0  0
  -26.0040  -26.9030   19.5100 C   0  0  0  0  0  3  0  0  0  0  0  0
  -24.8400  -27.6900   19.5170 C   0  0  0  0  0  3  0  0  0  0  0  0
  -23.6060  -29.8200   20.1960 C   0  0  0  0  0  2  0  0  0  0  0  0
  -24.6710  -31.0820   22.1120 N   0  0  0  0  0  0  0  0  0  0  0  0
  -23.5360  -32.1770   23.7460 O   0  0  0  0  0  0  0  0  0  0  0  0
  -22.7400  -29.4810   22.5410 C   0  0  0  0  0  0  0  0  0  0  0  0
  -21.4160  -29.2970   22.4110 N   0  0  0  0  0  0  0  0  0  0  0  0
  -23.4190  -28.8650   23.3670 O   0  0  0  0  0  0  0  0  0  0  0  0
  -20.9270  -29.8430   21.7160 H   0  0  0  0  0  0  0  0  0  0  0  0
  -18.0460  -28.0730   22.8960 C   0  0  0  0  0  0  0  0  0  0  0  0
  -20.5990  -28.3630   23.1870 C   0  0  0  0  0  3  0  0  0  0  0  0
  -20.7210  -26.9240   22.6360 C   0  0  0  0  0  2  0  0  0  0  0  0
  -19.6340  -26.5740   21.6150 C   0  0  0  0  0  2  0  0  0  0  0  0
  -18.2440  -26.7160   22.2420 C   0  0  0  0  0  2  0  0  0  0  0  0
  -19.1520  -28.8520   23.3260 C   0  0  0  0  0  0  0  0  0  0  0  0
  -18.9150  -30.1220   23.8960 C   0  0  0  0  0  3  0  0  0  0  0  0
  -17.6030  -30.6130   24.0400 C   0  0  0  0  0  3  0  0  0  0  0  0
  -16.5110  -29.8310   23.6260 C   0  0  0  0  0  3  0  0  0  0  0  0
  -16.7330  -28.5630   23.0600 C   0  0  0  0  0  3  0  0  0  0  0  0
  -25.9040  -32.5250   23.8200 C   0  0  0  0  0  3  0  0  0  0  0  0
  -25.5930  -33.9190   24.1680 N   0  0  0  0  0  0  0  0  0  0  0  0
  -25.9170  -34.9800   23.4170 C   0  0  0  0  0  0  0  0  0  0  0  0
  -26.5780  -34.8890   22.3790 O   0  0  0  0  0  0  0  0  0  0  0  0
  -25.0010  -34.0630   24.9720 H   0  0  0  0  0  0  0  0  0  0  0  0
  -24.1820  -36.7740   23.0970 C   0  0  0  0  0  1  0  0  0  0  0  0
  -25.4310  -36.3620   23.8930 C   0  0  0  0  0  3  0  0  0  0  0  0
  -27.5720  -37.2410   24.7140 C   0  0  0  0  0  1  0  0  0  0  0  0
  -26.4610  -37.4190   23.7830 N   0  0  0  0  0  0  0  0  0  0  0  0
  -26.0540  -38.3360   23.9460 H   0  0  0  0  0  0  0  0  0  0  0  0
  -26.4360  -31.7420   25.0830 C   0  0  1  0  0  0  0  0  0  0  0  0
  -25.3560  -31.4900   26.1600 C   0  0  0  0  0  1  0  0  0  0  0  0
  -27.0200  -30.3700   24.6740 C   0  0  0  0  0  1  0  0  0  0  0  0
  -27.5920  -32.5340   25.7400 C   0  0  0  0  0  1  0  0  0  0  0  0
  -29.3730  -19.5870   20.6980 C   0  0  0  0  0  3  0  0  0  0  0  0
  -30.6930  -18.6260   22.6960 C   0  0  0  0  0  0  0  0  0  0  0  0
  -30.5080  -17.1780   21.1680 C   0  0  0  0  0  0  0  0  0  0  0  0
  -30.5570  -19.8120   23.5940 C   0  0  0  0  0  1  0  0  0  0  0  0
  -31.3270  -17.5420   23.1410 N   0  0  0  0  0  0  0  0  0  0  0  0
  -31.2050  -16.6120   22.1630 N   0  0  0  0  0  0  0  0  0  0  0  0
  -30.1830  -18.5230   21.4360 N   0  0  0  0  0  0  0  0  0  0  0  0
  -30.8520  -16.9570   18.6880 C   0  0  0  0  0  1  0  0  0  0  0  0
  -28.6540  -16.4070   19.6620 C   0  0  0  0  0  1  0  0  0  0  0  0
  -30.1600  -16.3100   19.9200 C   0  0  2  0  0  0  0  0  0  0  0  0
  -30.7180  -14.7670   19.9580 C   0  0  0  0  0  0  0  0  0  0  0  0
  -30.3310  -12.5180   18.9630 C   0  0  0  0  0  2  0  0  0  0  0  0
  -29.3400  -12.6110   17.7850 C   0  0  0  0  0  2  0  0  0  0  0  0
  -27.9020  -12.4020   18.2920 C   0  0  0  0  0  2  0  0  0  0  0  0
  -27.5780  -13.2880   19.5190 C   0  0  0  0  0  3  0  0  0  0  0  0
  -28.7060  -13.2840   20.5800 C   0  0  0  0  0  2  0  0  0  0  0  0
  -29.9810  -13.5970   19.9190 N   0  0  0  0  0  0  0  0  0  0  0  0
  -31.9240  -14.6600   19.7220 O   0  0  0  0  0  0  0  0  0  0  0  0
  -25.2510  -13.8990   20.3940 C   0  0  0  0  0  0  0  0  0  0  0  0
  -24.2020  -13.1260   20.8080 C   0  0  0  0  0  0  0  0  0  0  0  0
  -24.6590  -11.7750   20.7410 C   0  0  0  0  0  0  0  0  0  0  0  0
  -26.2740  -13.0110   20.0930 N   0  0  0  0  0  0  0  0  0  0  0  0
  -25.9310  -11.7310   20.3700 N   0  0  0  0  0  0  0  0  0  0  0  0
  -23.9390  -10.5150   20.9470 C   0  0  0  0  0  0  0  0  0  0  0  0
  -24.3990   -9.5480   21.8670 C   0  0  0  0  0  3  0  0  0  0  0  0
  -23.6800   -8.3500   22.0610 C   0  0  0  0  0  3  0  0  0  0  0  0
  -22.4890   -8.1120   21.3340 C   0  0  0  0  0  0  0  0  0  0  0  0
  -22.0510   -9.0680   20.4010 C   0  0  0  0  0  3  0  0  0  0  0  0
  -22.7710  -10.2580   20.2050 C   0  0  0  0  0  3  0  0  0  0  0  0
  -21.7390   -6.9660   21.4400 O   0  0  0  0  0  0  0  0  0  0  0  0
  -21.6970   -6.2400   22.6020 C   0  0  0  0  0  0  0  0  0  0  0  0
  -21.2870   -6.8160   23.8250 C   0  0  0  0  0  3  0  0  0  0  0  0
  -21.1910   -6.0160   24.9820 C   0  0  0  0  0  3  0  0  0  0  0  0
  -21.4940   -4.6430   24.9160 C   0  0  0  0  0  0  0  0  0  0  0  0
  -21.8980   -4.0670   23.6990 C   0  0  0  0  0  3  0  0  0  0  0  0
  -21.9960   -4.8640   22.5440 C   0  0  0  0  0  0  0  0  0  0  0  0
  -22.3660   -4.3010   21.3690 F   0  0  0  0  0  0  0  0  0  0  0  0
  -21.3940   -3.8730   26.0250 F   0  0  0  0  0  0  0  0  0  0  0  0
  -22.8210  -13.6070   21.1480 C   0  0  0  0  0  0  0  0  0  0  0  0
  -22.1370  -12.9120   22.0510 N   0  0  0  0  0  0  0  0  0  0  0  0
  -22.3600  -14.6330   20.6490 O   0  0  0  0  0  0  0  0  0  0  0  0
  -22.5260  -12.0830   22.4750 H   0  0  0  0  0  0  0  0  0  0  0  0
  -21.2130  -13.2150   22.3230 H   0  0  0  0  0  0  0  0  0  0  0  0
  -25.4020  -15.2710   20.2190 N   0  0  0  0  0  0  0  0  0  0  0  0
  -24.6340  -15.9160   20.3650 H   0  0  0  0  0  0  0  0  0  0  0  0
  -26.2170  -15.7110   19.8140 H   0  0  0  0  0  0  0  0  0  0  0  0
  4  2  1  6
  4  3  1  0
  4  5  1  0
  4  1  1  0
  6  7  1  0
  6  5  2  0
  8 19  2  0
  9  7  1  0
  9 14  1  0
 10 18  1  0
 10 20  1  0
 11 17  1  0
 11 13  1  0
 12 18  1  0
 13 14  2  0
 13 12  1  0
 15 16  1  0
 15  9  2  0
 16 11  2  0
 17 10  1  0
 18  8  1  0
 20 22  2  0
 21 20  1  0
 23 21  1  0
 24 33  2  0
 24 29  1  0
 25 21  1  0
 25 29  1  0
 26 25  1  0
 27 28  1  0
 27 26  1  0
 28 24  1  0
 29 30  2  0
 30 31  1  0
 32 31  2  0
 33 32  1  0
 34  8  1  0
 34 35  1  0
 34 44  1  0
 35 38  1  0
 36 40  1  0
 36 35  1  0
 37 36  2  0
 40 39  1  0
 42 40  1  0
 42 43  1  0
 42 41  1  0
 44 47  1  1
 44 45  1  0
 46 44  1  0
 48  1  2  0
 48 54  1  0
 49 52  2  0
 49 51  1  0
 50 54  1  0
 50 53  2  0
 53 52  1  0
 54 49  1  0
 57 55  1  6
 56 57  1  0
 57 58  1  0
 57 50  1  0
 59 64  1  0
 60 61  1  0
 60 59  1  0
 62 61  1  0
 62 69  1  0
 62 63  1  0
 64 58  1  0
 64 63  1  0
 65 58  2  0
 66 67  2  0
 67 86  1  0
 68 67  1  0
 68 71  1  0
 69 70  1  0
 69 66  1  0
 70 68  2  0
 71 72  1  0
 72 73  2  0
 74 77  1  0
 74 73  1  0
 75 74  2  0
 76 75  1  0
 76 71  2  0
 77 78  1  0
 78 79  1  0
 79 80  2  0
 81 80  1  0
 81 85  1  0
 82 81  2  0
 83 78  2  0
 83 82  1  0
 84 83  1  0
 86 87  1  0
 87 90  1  0
 87 89  1  0
 88 86  2  0
 91 92  1  0
 91 66  1  0
 93 91  1  0
M  ISO  4   6 101   7 101  57 100  58 100
M  END
>  <TORSDO>  (62) 
F 22

>  <SCORE>  (62) 
-12.055

>  <name>  (62) 
62

>  <ligand_id>  (62) 
62

>  <original_smiles>  (62) 
[H]c1c([H])c([H])c2c(c1[H])C([H])([H])C([H])([H])C([H])([H])C2([H])N([H])C(=O)C1([H])N(C(=O)C([H])(N([H])C(=O)C([H])(N([H])C([H])([H])[H])C([H])([H])[H])C(C([H])([H])[H])(C([H])([H])[H])C([H])([H])[H])C([H])([H])c2c([H])c(OC([H])([H])C([H])([H])C(C([H])([H])[H])(C([H])([H])[H])C([H])([H])C([H])([H])n3c(C([H])([H])[H])nnc3C(C(=O)N3C([H])([H])C([H])([H])C([H])([H])C([H])(n4nc(-c5c([H])c([H])c(Oc6c([H])c([H])c(F)c([H])c6F)c([H])c5[H])c(C(=O)N([H])[H])c4N([H])[H])C3([H])[H])(C([H])([H])[H])C([H])([H])[H])c([H])c([H])c2C1([H])[H]

>  <smiles>  (62) 
[H]c1c([H])c([H])c2c(c1[H])C([H])([H])C([H])([H])C([H])([H])C2([H])N([H])C(=O)C1([H])N(C(=O)C([H])(N([H])C(=O)C([H])(N([H])C([H])([H])[H])C([H])([H])[H])C(C([H])([H])[H])(C([H])([H])[H])C([H])([H])[H])C([H])([H])c2c([H])c(OC([H])([H])C([H])([H])C(C([H])([H])[H])(C([H])([H])[H])C([H])([H])C([H])([H])n3c(C([H])([H])[H])nnc3C(C(=O)N3C([H])([H])C([H])([H])C([H])([H])C([H])(n4nc(-c5c([H])c([H])c(Oc6c([H])c([H])c(F)c([H])c6F)c([H])c5[H])c(C(=O)N([H])[H])c4N([H])[H])C3([H])[H])(C([H])([H])[H])C([H])([H])[H])c([H])c([H])c2C1([H])[H]

$$$$
63:0:0
     RDKit          3D

 95103  0  0  1  0  0  0  0  0999 V2000
  -29.5470  -20.8620   20.5200 C   0  0  0  0  0  2  0  0  0  0  0  0
  -27.6910  -20.9200   18.7210 C   0  0  0  0  0  1  0  0  0  0  0  0
  -29.5720  -22.5550   18.5760 C   0  0  0  0  0  1  0  0  0  0  0  0
  -28.6700  -21.7750   19.5590 C   0  0  2  0  0  0  0  0  0  0  0  0
  -27.7840  -22.8270   20.3340 C   0  0  0  0  0  2  0  0  0  0  0  0
  -28.3490  -24.2160   20.8030 C   0  0  0  0  0  2  0  0  0  0  0  0
  -28.5260  -25.3370   19.7260 C   0  0  0  0  0  2  0  0  0  0  0  0
  -28.4490  -26.6980   20.2240 O   0  0  0  0  0  0  0  0  0  0  0  0
  -24.6080  -31.9060   23.2430 C   0  0  0  0  0  0  0  0  0  0  0  0
  -27.2610  -27.4180   20.1930 C   0  0  0  0  0  0  0  0  0  0  0  0
  -23.4120  -30.4940   21.6050 C   0  0  0  0  0  3  0  0  0  0  0  0
  -24.8690  -28.9540   20.1900 C   0  0  0  0  0  0  0  0  0  0  0  0
  -25.9410  -30.8500   21.4140 C   0  0  0  0  0  2  0  0  0  0  0  0
  -26.0270  -29.4740   20.7760 C   0  0  0  0  0  0  0  0  0  0  0  0
  -27.2250  -28.7160   20.7680 C   0  0  0  0  0  3  0  0  0  0  0  0
  -26.0690  -26.9170   19.6140 C   0  0  0  0  0  3  0  0  0  0  0  0
  -24.8870  -27.6770   19.6070 C   0  0  0  0  0  3  0  0  0  0  0  0
  -23.6290  -29.8170   20.2270 C   0  0  0  0  0  2  0  0  0  0  0  0
  -24.6720  -31.0990   22.1460 N   0  0  0  0  0  0  0  0  0  0  0  0
  -23.5240  -32.1770   23.7790 O   0  0  0  0  0  0  0  0  0  0  0  0
  -22.7620  -29.4720   22.5670 C   0  0  0  0  0  0  0  0  0  0  0  0
  -21.4370  -29.2890   22.4440 N   0  0  0  0  0  0  0  0  0  0  0  0
  -23.4460  -28.8490   23.3820 O   0  0  0  0  0  0  0  0  0  0  0  0
  -20.9440  -29.8470   21.7610 H   0  0  0  0  0  0  0  0  0  0  0  0
  -18.0630  -28.0950   22.9550 C   0  0  0  0  0  0  0  0  0  0  0  0
  -20.6220  -28.3500   23.2160 C   0  0  0  0  0  3  0  0  0  0  0  0
  -20.7200  -26.9200   22.6390 C   0  0  0  0  0  2  0  0  0  0  0  0
  -19.6140  -26.5980   21.6290 C   0  0  0  0  0  2  0  0  0  0  0  0
  -18.2350  -26.7450   22.2800 C   0  0  0  0  0  2  0  0  0  0  0  0
  -19.1840  -28.8560   23.3800 C   0  0  0  0  0  0  0  0  0  0  0  0
  -18.9680  -30.1200   23.9720 C   0  0  0  0  0  3  0  0  0  0  0  0
  -17.6650  -30.6230   24.1410 C   0  0  0  0  0  3  0  0  0  0  0  0
  -16.5580  -29.8590   23.7320 C   0  0  0  0  0  3  0  0  0  0  0  0
  -16.7570  -28.5970   23.1450 C   0  0  0  0  0  3  0  0  0  0  0  0
  -25.8890  -32.5460   23.8620 C   0  0  0  0  0  3  0  0  0  0  0  0
  -25.5730  -33.9440   24.1890 N   0  0  0  0  0  0  0  0  0  0  0  0
  -25.8980  -34.9960   23.4270 C   0  0  0  0  0  0  0  0  0  0  0  0
  -26.5670  -34.8940   22.3960 O   0  0  0  0  0  0  0  0  0  0  0  0
  -24.9800  -34.0970   24.9920 H   0  0  0  0  0  0  0  0  0  0  0  0
  -24.1600  -36.7770   23.0660 C   0  0  0  0  0  1  0  0  0  0  0  0
  -25.4020  -36.3810   23.8810 C   0  0  0  0  0  3  0  0  0  0  0  0
  -27.5310  -37.2780   24.7140 C   0  0  0  0  0  1  0  0  0  0  0  0
  -26.4280  -37.4400   23.7690 N   0  0  0  0  0  0  0  0  0  0  0  0
  -26.0170  -38.3570   23.9180 H   0  0  0  0  0  0  0  0  0  0  0  0
  -26.4140  -31.7800   25.1390 C   0  0  1  0  0  0  0  0  0  0  0  0
  -25.3260  -31.5340   26.2100 C   0  0  0  0  0  1  0  0  0  0  0  0
  -27.0060  -30.4080   24.7450 C   0  0  0  0  0  1  0  0  0  0  0  0
  -27.5600  -32.5840   25.7990 C   0  0  0  0  0  1  0  0  0  0  0  0
  -29.3780  -19.2830   20.6070 C   0  0  0  0  0  2  0  0  0  0  0  0
  -30.6180  -18.9760   18.4360 C   0  0  0  0  0  3  0  0  0  0  0  0
  -31.2700  -17.9890   17.7580 C   0  0  0  0  0  0  0  0  0  0  0  0
  -30.4070  -17.1080   19.6510 C   0  0  0  0  0  3  0  0  0  0  0  0
  -32.0340  -17.9920   16.4760 C   0  0  0  0  0  1  0  0  0  0  0  0
  -30.1150  -18.4510   19.6030 N   0  0  0  0  0  0  0  0  0  0  0  0
  -31.1310  -16.8850   18.5400 N   0  0  0  0  0  0  0  0  0  0  0  0
  -31.5820  -15.9890   18.3670 H   0  0  0  0  0  0  0  0  0  0  0  0
  -31.1600  -16.2610   21.8930 C   0  0  0  0  0  1  0  0  0  0  0  0
  -28.7690  -16.0670   21.3150 C   0  0  0  0  0  1  0  0  0  0  0  0
  -30.1910  -15.9840   20.7200 C   0  0  1  0  0  0  0  0  0  0  0  0
  -30.6380  -14.5570   20.1230 C   0  0  0  0  0  0  0  0  0  0  0  0
  -30.2350  -12.4170   18.9290 C   0  0  0  0  0  2  0  0  0  0  0  0
  -29.2320  -12.6190   17.7730 C   0  0  0  0  0  2  0  0  0  0  0  0
  -27.7870  -12.4380   18.2720 C   0  0  0  0  0  2  0  0  0  0  0  0
  -27.5090  -13.2430   19.5680 C   0  0  0  0  0  3  0  0  0  0  0  0
  -28.6290  -13.0090   20.6040 C   0  0  0  0  0  2  0  0  0  0  0  0
  -29.9050  -13.3990   19.9910 N   0  0  0  0  0  0  0  0  0  0  0  0
  -31.7650  -14.5670   19.6160 O   0  0  0  0  0  0  0  0  0  0  0  0
  -25.1590  -13.8170   20.4350 C   0  0  0  0  0  0  0  0  0  0  0  0
  -24.1220  -13.0290   20.8540 C   0  0  0  0  0  0  0  0  0  0  0  0
  -24.5920  -11.6830   20.7720 C   0  0  0  0  0  0  0  0  0  0  0  0
  -26.1930  -12.9470   20.1250 N   0  0  0  0  0  0  0  0  0  0  0  0
  -25.8610  -11.6580   20.3880 N   0  0  0  0  0  0  0  0  0  0  0  0
  -23.8890  -10.4110   20.9790 C   0  0  0  0  0  0  0  0  0  0  0  0
  -24.3570   -9.4490   21.9010 C   0  0  0  0  0  3  0  0  0  0  0  0
  -23.6510   -8.2420   22.0950 C   0  0  0  0  0  3  0  0  0  0  0  0
  -22.4630   -7.9910   21.3690 C   0  0  0  0  0  0  0  0  0  0  0  0
  -22.0160   -8.9410   20.4330 C   0  0  0  0  0  3  0  0  0  0  0  0
  -22.7220  -10.1400   20.2370 C   0  0  0  0  0  3  0  0  0  0  0  0
  -21.7240   -6.8380   21.4720 O   0  0  0  0  0  0  0  0  0  0  0  0
  -21.6850   -6.1110   22.6340 C   0  0  0  0  0  0  0  0  0  0  0  0
  -21.2540   -6.6790   23.8540 C   0  0  0  0  0  3  0  0  0  0  0  0
  -21.1630   -5.8770   25.0100 C   0  0  0  0  0  3  0  0  0  0  0  0
  -21.4910   -4.5090   24.9450 C   0  0  0  0  0  0  0  0  0  0  0  0
  -21.9140   -3.9420   23.7300 C   0  0  0  0  0  3  0  0  0  0  0  0
  -22.0070   -4.7400   22.5770 C   0  0  0  0  0  0  0  0  0  0  0  0
  -22.3950   -4.1830   21.4040 F   0  0  0  0  0  0  0  0  0  0  0  0
  -21.3970   -3.7380   26.0530 F   0  0  0  0  0  0  0  0  0  0  0  0
  -22.7390  -13.4910   21.2100 C   0  0  0  0  0  0  0  0  0  0  0  0
  -22.0620  -12.7750   22.1010 N   0  0  0  0  0  0  0  0  0  0  0  0
  -22.2660  -14.5220   20.7330 O   0  0  0  0  0  0  0  0  0  0  0  0
  -22.4570  -11.9440   22.5140 H   0  0  0  0  0  0  0  0  0  0  0  0
  -21.1340  -13.0660   22.3730 H   0  0  0  0  0  0  0  0  0  0  0  0
  -25.2980  -15.1910   20.2710 N   0  0  0  0  0  0  0  0  0  0  0  0
  -24.5300  -15.8300   20.4500 H   0  0  0  0  0  0  0  0  0  0  0  0
  -26.1090  -15.6520   19.8830 H   0  0  0  0  0  0  0  0  0  0  0  0
  1 49  1  0
  4  2  1  6
  3  4  1  0
  4  5  1  0
  4  1  1  0
  5  6  1  0
  7  8  1  0
  7  6  1  0
  9 20  2  0
 10  8  1  0
 10 15  1  0
 11 19  1  0
 11 21  1  0
 12 18  1  0
 12 14  1  0
 13 19  1  0
 14 13  1  0
 15 14  2  0
 16 10  2  0
 17 16  1  0
 17 12  2  0
 18 11  1  0
 19  9  1  0
 21 23  2  0
 22 21  1  0
 24 22  1  0
 25 34  2  0
 25 30  1  0
 26 22  1  0
 26 30  1  0
 27 26  1  0
 28 29  1  0
 28 27  1  0
 29 25  1  0
 30 31  2  0
 31 32  1  0
 33 32  2  0
 34 33  1  0
 35  9  1  0
 35 36  1  0
 35 45  1  0
 36 39  1  0
 37 41  1  0
 37 36  1  0
 38 37  2  0
 41 40  1  0
 43 41  1  0
 43 44  1  0
 43 42  1  0
 45 48  1  1
 45 46  1  0
 47 45  1  0
 50 54  1  0
 51 50  2  0
 51 55  1  0
 52 59  1  0
 53 51  1  0
 54 52  1  0
 54 49  1  0
 55 52  1  0
 56 55  1  0
 59 58  1  1
 59 57  1  0
 60 59  1  0
 61 66  1  0
 62 63  1  0
 62 61  1  0
 64 63  1  0
 64 71  1  0
 64 65  1  0
 66 60  1  0
 66 65  1  0
 67 60  2  0
 68 69  2  0
 69 88  1  0
 70 69  1  0
 70 73  1  0
 71 72  1  0
 71 68  1  0
 72 70  2  0
 73 74  1  0
 74 75  2  0
 76 79  1  0
 76 75  1  0
 77 76  2  0
 78 77  1  0
 78 73  2  0
 79 80  1  0
 80 81  1  0
 81 82  2  0
 83 82  1  0
 83 87  1  0
 84 83  2  0
 85 80  2  0
 85 84  1  0
 86 85  1  0
 88 89  1  0
 89 92  1  0
 89 91  1  0
 90 88  2  0
 93 68  1  0
 93 94  1  0
 95 93  1  0
M  ISO  4   7 101   8 101  59 100  60 100
M  END
>  <TORSDO>  (63) 
F 23

>  <SCORE>  (63) 
-12.673

>  <name>  (63) 
63

>  <ligand_id>  (63) 
63

>  <original_smiles>  (63) 
[H]c1c([H])c([H])c2c(c1[H])C([H])([H])C([H])([H])C([H])([H])C2([H])N([H])C(=O)C1([H])N(C(=O)C([H])(N([H])C(=O)C([H])(N([H])C([H])([H])[H])C([H])([H])[H])C(C([H])([H])[H])(C([H])([H])[H])C([H])([H])[H])C([H])([H])c2c([H])c(OC([H])([H])C([H])([H])C([H])([H])C(C([H])([H])[H])(C([H])([H])[H])C([H])([H])C([H])([H])n3c([H])c(C([H])([H])[H])[n+]([H])c3C(C(=O)N3C([H])([H])C([H])([H])C([H])([H])C([H])(n4nc(-c5c([H])c([H])c(Oc6c([H])c([H])c(F)c([H])c6F)c([H])c5[H])c(C(=O)N([H])[H])c4N([H])[H])C3([H])[H])(C([H])([H])[H])C([H])([H])[H])c([H])c([H])c2C1([H])[H]

>  <smiles>  (63) 
[H]c1c([H])c([H])c2c(c1[H])C([H])([H])C([H])([H])C([H])([H])C2([H])N([H])C(=O)C1([H])N(C(=O)C([H])(N([H])C(=O)C([H])(N([H])C([H])([H])[H])C([H])([H])[H])C(C([H])([H])[H])(C([H])([H])[H])C([H])([H])[H])C([H])([H])c2c([H])c(OC([H])([H])C([H])([H])C([H])([H])C(C([H])([H])[H])(C([H])([H])[H])C([H])([H])C([H])([H])n3c([H])c(C([H])([H])[H])[n+]([H])c3C(C(=O)N3C([H])([H])C([H])([H])C([H])([H])C([H])(n4nc(-c5c([H])c([H])c(Oc6c([H])c([H])c(F)c([H])c6F)c([H])c5[H])c(C(=O)N([H])[H])c4N([H])[H])C3([H])[H])(C([H])([H])[H])C([H])([H])[H])c([H])c([H])c2C1([H])[H]

$$$$
64:0:0
     RDKit          3D

 87 95  0  0  1  0  0  0  0  0999 V2000
  -27.9620  -24.2450   20.3740 C   0  0  0  0  0  3  0  0  0  0  0  0
  -26.1380  -23.5200   22.0540 C   0  0  0  0  0  1  0  0  0  0  0  0
  -27.5500  -24.0980   21.8550 C   0  0  0  0  0  2  0  0  0  0  0  0
  -28.2100  -25.8790   20.1870 O   0  0  0  0  0  0  0  0  0  0  0  0
  -24.6590  -31.8850   23.1840 C   0  0  0  0  0  0  0  0  0  0  0  0
  -27.2000  -26.9860   20.1700 C   0  0  0  0  0  0  0  0  0  0  0  0
  -23.4680  -30.4990   21.5340 C   0  0  0  0  0  3  0  0  0  0  0  0
  -24.9160  -28.8880   20.1170 C   0  0  0  0  0  0  0  0  0  0  0  0
  -26.0370  -30.6930   21.4050 C   0  0  0  0  0  2  0  0  0  0  0  0
  -26.1040  -29.2840   20.7430 C   0  0  0  0  0  0  0  0  0  0  0  0
  -27.2440  -28.3560   20.7400 C   0  0  0  0  0  3  0  0  0  0  0  0
  -25.9810  -26.7480   19.4960 C   0  0  0  0  0  3  0  0  0  0  0  0
  -24.8800  -27.6410   19.4720 C   0  0  0  0  0  3  0  0  0  0  0  0
  -23.7030  -29.8150   20.1580 C   0  0  0  0  0  2  0  0  0  0  0  0
  -24.7440  -31.0540   22.0930 N   0  0  0  0  0  0  0  0  0  0  0  0
  -23.5680  -32.1790   23.6980 O   0  0  0  0  0  0  0  0  0  0  0  0
  -22.7630  -29.5040   22.4940 C   0  0  0  0  0  0  0  0  0  0  0  0
  -21.4310  -29.3580   22.3690 N   0  0  0  0  0  0  0  0  0  0  0  0
  -23.4210  -28.8610   23.3150 O   0  0  0  0  0  0  0  0  0  0  0  0
  -20.9530  -29.9210   21.6810 H   0  0  0  0  0  0  0  0  0  0  0  0
  -18.0280  -28.2100   22.9010 C   0  0  0  0  0  0  0  0  0  0  0  0
  -20.5980  -28.4240   23.1340 C   0  0  0  0  0  3  0  0  0  0  0  0
  -20.6640  -26.9990   22.5340 C   0  0  0  0  0  2  0  0  0  0  0  0
  -19.5410  -26.7130   21.5300 C   0  0  0  0  0  2  0  0  0  0  0  0
  -18.1720  -26.8710   22.1960 C   0  0  0  0  0  2  0  0  0  0  0  0
  -19.1670  -28.9460   23.3270 C   0  0  0  0  0  0  0  0  0  0  0  0
  -18.9760  -30.1980   23.9500 C   0  0  0  0  0  3  0  0  0  0  0  0
  -17.6810  -30.7150   24.1500 C   0  0  0  0  0  3  0  0  0  0  0  0
  -16.5590  -29.9760   23.7380 C   0  0  0  0  0  3  0  0  0  0  0  0
  -16.7330  -28.7250   23.1210 C   0  0  0  0  0  3  0  0  0  0  0  0
  -25.9290  -32.5190   23.8280 C   0  0  0  0  0  3  0  0  0  0  0  0
  -26.4270  -31.7420   25.1100 C   0  0  1  0  0  0  0  0  0  0  0  0
  -25.3200  -31.5080   26.1650 C   0  0  0  0  0  1  0  0  0  0  0  0
  -27.0060  -30.3610   24.7320 C   0  0  0  0  0  1  0  0  0  0  0  0
  -27.5750  -32.5290   25.7880 C   0  0  0  0  0  1  0  0  0  0  0  0
  -25.6120  -33.9160   24.1770 N   0  0  0  0  0  0  0  0  0  0  0  0
  -25.9500  -34.9860   23.4450 C   0  0  0  0  0  0  0  0  0  0  0  0
  -26.6240  -34.8990   22.4150 O   0  0  0  0  0  0  0  0  0  0  0  0
  -25.0140  -34.0550   24.9770 H   0  0  0  0  0  0  0  0  0  0  0  0
  -24.2310  -36.7970   23.1170 C   0  0  0  0  0  1  0  0  0  0  0  0
  -25.4670  -36.3710   23.9260 C   0  0  0  0  0  3  0  0  0  0  0  0
  -27.6010  -37.2310   24.7870 C   0  0  0  0  0  1  0  0  0  0  0  0
  -26.5060  -37.4200   23.8390 N   0  0  0  0  0  0  0  0  0  0  0  0
  -26.1040  -38.3400   24.0000 H   0  0  0  0  0  0  0  0  0  0  0  0
  -28.8150  -22.7030   19.9140 C   0  0  0  0  0  2  0  0  0  0  0  0
  -28.9500  -21.0470   20.6460 C   0  0  0  0  0  2  0  0  0  0  0  0
  -28.5700  -17.2790   19.3370 C   0  0  0  0  0  3  0  0  0  0  0  0
  -29.6570  -16.8830   20.1020 C   0  0  0  0  0  0  0  0  0  0  0  0
  -29.1520  -19.3930   20.1010 C   0  0  0  0  0  0  0  0  0  0  0  0
  -28.2830  -18.6910   19.3500 N   0  0  0  0  0  0  0  0  0  0  0  0
  -30.0090  -18.2920   20.5860 O   0  0  0  0  0  0  0  0  0  0  0  0
  -30.4390  -15.3610   20.2040 C   0  0  0  0  0  0  0  0  0  0  0  0
  -30.4360  -12.8940   19.3840 C   0  0  0  0  0  2  0  0  0  0  0  0
  -29.5270  -12.6690   18.1460 C   0  0  0  0  0  2  0  0  0  0  0  0
  -28.0680  -12.4190   18.5650 C   0  0  0  0  0  2  0  0  0  0  0  0
  -27.6080  -13.3820   19.6850 C   0  0  0  0  0  3  0  0  0  0  0  0
  -28.6460  -13.5490   20.8120 C   0  0  0  0  0  2  0  0  0  0  0  0
  -29.8840  -14.0470   20.1860 N   0  0  0  0  0  0  0  0  0  0  0  0
  -31.6730  -15.3290   20.0750 O   0  0  0  0  0  0  0  0  0  0  0  0
  -25.2320  -13.9300   20.4220 C   0  0  0  0  0  0  0  0  0  0  0  0
  -24.1700  -13.1520   20.7860 C   0  0  0  0  0  0  0  0  0  0  0  0
  -24.6410  -11.8040   20.7650 C   0  0  0  0  0  0  0  0  0  0  0  0
  -26.2800  -13.0610   20.1880 N   0  0  0  0  0  0  0  0  0  0  0  0
  -25.9370  -11.7740   20.4640 N   0  0  0  0  0  0  0  0  0  0  0  0
  -23.9130  -10.5430   20.9520 C   0  0  0  0  0  0  0  0  0  0  0  0
  -24.3280   -9.5830   21.8990 C   0  0  0  0  0  3  0  0  0  0  0  0
  -23.6010   -8.3850   22.0730 C   0  0  0  0  0  3  0  0  0  0  0  0
  -22.4430   -8.1400   21.3000 C   0  0  0  0  0  0  0  0  0  0  0  0
  -22.0470   -9.0880   20.3390 C   0  0  0  0  0  3  0  0  0  0  0  0
  -22.7750  -10.2770   20.1650 C   0  0  0  0  0  3  0  0  0  0  0  0
  -21.6870   -6.9940   21.3820 O   0  0  0  0  0  0  0  0  0  0  0  0
  -21.6080   -6.2660   22.5420 C   0  0  0  0  0  0  0  0  0  0  0  0
  -21.1340   -6.8310   23.7450 C   0  0  0  0  0  3  0  0  0  0  0  0
  -21.0060   -6.0290   24.8970 C   0  0  0  0  0  3  0  0  0  0  0  0
  -21.3390   -4.6620   24.8460 C   0  0  0  0  0  0  0  0  0  0  0  0
  -21.8020   -4.0960   23.6450 C   0  0  0  0  0  3  0  0  0  0  0  0
  -21.9350   -4.8960   22.4960 C   0  0  0  0  0  0  0  0  0  0  0  0
  -22.3620   -4.3400   21.3370 F   0  0  0  0  0  0  0  0  0  0  0  0
  -21.2100   -3.8880   25.9490 F   0  0  0  0  0  0  0  0  0  0  0  0
  -22.7700  -13.6290   21.0400 C   0  0  0  0  0  0  0  0  0  0  0  0
  -22.0320  -12.9340   21.8970 N   0  0  0  0  0  0  0  0  0  0  0  0
  -22.3380  -14.6530   20.5120 O   0  0  0  0  0  0  0  0  0  0  0  0
  -22.3970  -12.1080   22.3490 H   0  0  0  0  0  0  0  0  0  0  0  0
  -21.0910  -13.2330   22.1070 H   0  0  0  0  0  0  0  0  0  0  0  0
  -25.3900  -15.3010   20.2430 N   0  0  0  0  0  0  0  0  0  0  0  0
  -24.6150  -15.9460   20.3550 H   0  0  0  0  0  0  0  0  0  0  0  0
  -26.2360  -15.7540   19.9250 H   0  0  0  0  0  0  0  0  0  0  0  0
  1 45  1  0
  1  3  1  0
  3  2  1  0
  4  1  1  0
  5 16  2  0
  6  4  1  0
  6 11  1  0
  7 15  1  0
  7 17  1  0
  8 14  1  0
  8 10  1  0
  9 15  1  0
 10  9  1  0
 11 10  2  0
 12  6  2  0
 13 12  1  0
 13  8  2  0
 14  7  1  0
 15  5  1  0
 17 19  2  0
 18 17  1  0
 20 18  1  0
 21 30  2  0
 21 26  1  0
 22 18  1  0
 22 26  1  0
 23 22  1  0
 24 25  1  0
 24 23  1  0
 25 21  1  0
 26 27  2  0
 27 28  1  0
 29 28  2  0
 30 29  1  0
 31  5  1  0
 31 36  1  0
 31 32  1  0
 32 35  1  1
 32 33  1  0
 34 32  1  0
 36 39  1  0
 37 41  1  0
 37 36  1  0
 38 37  2  0
 41 40  1  0
 43 41  1  0
 43 44  1  0
 43 42  1  0
 45 46  1  0
 47 50  1  0
 47 48  2  0
 48 52  1  0
 48 51  1  0
 49 51  1  0
 49 46  1  0
 50 49  2  0
 53 58  1  0
 54 55  1  0
 54 53  1  0
 56 55  1  0
 56 63  1  0
 56 57  1  0
 58 52  1  0
 58 57  1  0
 59 52  2  0
 60 61  2  0
 61 80  1  0
 62 61  1  0
 62 65  1  0
 63 60  1  0
 63 64  1  0
 64 62  2  0
 65 66  1  0
 66 67  2  0
 68 71  1  0
 68 67  1  0
 69 68  2  0
 70 69  1  0
 70 65  2  0
 71 72  1  0
 72 73  1  0
 73 74  2  0
 75 74  1  0
 75 79  1  0
 76 75  2  0
 77 72  2  0
 77 76  1  0
 78 77  1  0
 80 81  1  0
 81 84  1  0
 81 83  1  0
 82 80  2  0
 85 86  1  0
 85 60  1  0
 87 85  1  0
M  ISO  4   1 101   4 101  48 100  52 100
M  END
>  <TORSDO>  (64) 
F 20

>  <SCORE>  (64) 
-16.373

>  <name>  (64) 
64

>  <ligand_id>  (64) 
64

>  <original_smiles>  (64) 
[H]c1nc(C([H])([H])C([H])([H])C([H])(Oc2c([H])c([H])c3c(c2[H])C([H])([H])N(C(=O)C([H])(N([H])C(=O)C([H])(N([H])C([H])([H])[H])C([H])([H])[H])C(C([H])([H])[H])(C([H])([H])[H])C([H])([H])[H])C([H])(C(=O)N([H])C2([H])c4c([H])c([H])c([H])c([H])c4C([H])([H])C([H])([H])C2([H])[H])C3([H])[H])C([H])([H])C([H])([H])[H])oc1C(=O)N1C([H])([H])C([H])([H])C([H])([H])C([H])(n2nc(-c3c([H])c([H])c(Oc4c([H])c([H])c(F)c([H])c4F)c([H])c3[H])c(C(=O)N([H])[H])c2N([H])[H])C1([H])[H]

>  <smiles>  (64) 
[H]c1nc(C([H])([H])C([H])([H])C([H])(Oc2c([H])c([H])c3c(c2[H])C([H])([H])N(C(=O)C([H])(N([H])C(=O)C([H])(N([H])C([H])([H])[H])C([H])([H])[H])C(C([H])([H])[H])(C([H])([H])[H])C([H])([H])[H])C([H])(C(=O)N([H])C2([H])c4c([H])c([H])c([H])c([H])c4C([H])([H])C([H])([H])C2([H])[H])C3([H])[H])C([H])([H])C([H])([H])[H])oc1C(=O)N1C([H])([H])C([H])([H])C([H])([H])C([H])(n2nc(-c3c([H])c([H])c(Oc4c([H])c([H])c(F)c([H])c4F)c([H])c3[H])c(C(=O)N([H])[H])c2N([H])[H])C1([H])[H]

$$$$
65:0:0
     RDKit          3D

 92100  0  0  1  0  0  0  0  0999 V2000
  -29.1190  -22.3630   20.8130 C   0  0  0  0  0  3  0  0  0  0  0  0
  -29.4040  -21.4260   21.7620 C   0  0  0  0  0  0  0  0  0  0  0  0
  -29.8280  -20.5110   19.7370 C   0  0  0  0  0  3  0  0  0  0  0  0
  -29.2680  -21.4710   23.2560 C   0  0  0  0  0  1  0  0  0  0  0  0
  -29.3480  -21.8220   19.5670 N   0  0  0  0  0  0  0  0  0  0  0  0
  -29.8180  -20.3230   21.0680 N   0  0  0  0  0  0  0  0  0  0  0  0
  -30.0340  -19.4370   21.5060 H   0  0  0  0  0  0  0  0  0  0  0  0
  -30.6040  -19.5440   17.4300 C   0  0  0  0  0  1  0  0  0  0  0  0
  -30.1820  -19.2250   18.8730 C   0  0  0  0  0  3  0  0  0  0  0  0
  -31.2300  -18.1460   19.5170 C   0  0  0  0  0  2  0  0  0  0  0  0
  -31.8000  -15.5410   19.5410 C   0  0  0  0  0  0  0  0  0  0  0  0
  -31.6960  -13.1050   18.9920 C   0  0  0  0  0  2  0  0  0  0  0  0
  -30.7380  -12.8980   17.7990 C   0  0  0  0  0  2  0  0  0  0  0  0
  -29.2740  -12.7820   18.2720 C   0  0  0  0  0  2  0  0  0  0  0  0
  -28.8870  -13.8760   19.3000 C   0  0  0  0  0  3  0  0  0  0  0  0
  -29.9580  -14.0340   20.3980 C   0  0  0  0  0  2  0  0  0  0  0  0
  -31.2330  -14.3020   19.7240 N   0  0  0  0  0  0  0  0  0  0  0  0
  -32.9830  -15.6430   19.2070 O   0  0  0  0  0  0  0  0  0  0  0  0
  -30.9520  -16.6400   19.5490 N   0  0  0  0  0  0  0  0  0  0  0  0
  -29.9980  -16.3950   19.7730 H   0  0  0  0  0  0  0  0  0  0  0  0
  -26.5870  -14.5950   20.1800 C   0  0  0  0  0  0  0  0  0  0  0  0
  -25.4980  -13.8800   20.5900 C   0  0  0  0  0  0  0  0  0  0  0  0
  -25.8740  -12.5020   20.5050 C   0  0  0  0  0  0  0  0  0  0  0  0
  -27.5570  -13.6590   19.8600 N   0  0  0  0  0  0  0  0  0  0  0  0
  -27.1410  -12.3930   20.1200 N   0  0  0  0  0  0  0  0  0  0  0  0
  -25.0820  -11.2820   20.7080 C   0  0  0  0  0  0  0  0  0  0  0  0
  -25.3670  -10.3840   21.7610 C   0  0  0  0  0  3  0  0  0  0  0  0
  -24.5790   -9.2270   21.9490 C   0  0  0  0  0  3  0  0  0  0  0  0
  -23.4920   -8.9610   21.0830 C   0  0  0  0  0  0  0  0  0  0  0  0
  -23.2270   -9.8470   20.0250 C   0  0  0  0  0  3  0  0  0  0  0  0
  -24.0140  -10.9940   19.8360 C   0  0  0  0  0  3  0  0  0  0  0  0
  -22.6910   -7.8500   21.1740 O   0  0  0  0  0  0  0  0  0  0  0  0
  -22.2960   -7.3430   22.3850 C   0  0  0  0  0  0  0  0  0  0  0  0
  -21.5300   -8.1020   23.2970 C   0  0  0  0  0  3  0  0  0  0  0  0
  -21.0870   -7.5170   24.5010 C   0  0  0  0  0  3  0  0  0  0  0  0
  -21.4000   -6.1750   24.7920 C   0  0  0  0  0  0  0  0  0  0  0  0
  -22.1580   -5.4170   23.8810 C   0  0  0  0  0  3  0  0  0  0  0  0
  -22.6010   -5.9990   22.6790 C   0  0  0  0  0  0  0  0  0  0  0  0
  -23.3140   -5.2560   21.7970 F   0  0  0  0  0  0  0  0  0  0  0  0
  -20.9690   -5.6120   25.9440 F   0  0  0  0  0  0  0  0  0  0  0  0
  -24.1490  -14.4310   20.9480 C   0  0  0  0  0  0  0  0  0  0  0  0
  -23.4390  -13.7700   21.8530 N   0  0  0  0  0  0  0  0  0  0  0  0
  -23.7390  -15.4830   20.4570 O   0  0  0  0  0  0  0  0  0  0  0  0
  -23.7880  -12.9200   22.2710 H   0  0  0  0  0  0  0  0  0  0  0  0
  -22.5330  -14.1180   22.1370 H   0  0  0  0  0  0  0  0  0  0  0  0
  -26.8260  -15.9590   20.0280 N   0  0  0  0  0  0  0  0  0  0  0  0
  -26.0960  -16.6450   20.1880 H   0  0  0  0  0  0  0  0  0  0  0  0
  -27.6670  -16.3590   19.6370 H   0  0  0  0  0  0  0  0  0  0  0  0
  -28.9700  -22.6590   18.3390 C   0  0  0  0  0  2  0  0  0  0  0  0
  -29.1350  -24.2890   18.3900 C   0  0  0  0  0  3  0  0  0  0  0  0
  -27.8830  -25.3030   18.3470 C   0  0  0  0  0  3  0  0  0  0  0  0
  -28.0510  -26.7860   18.5580 O   0  0  0  0  0  0  0  0  0  0  0  0
  -24.5320  -31.3370   23.0220 C   0  0  0  0  0  0  0  0  0  0  0  0
  -26.9120  -27.5870   18.8180 C   0  0  0  0  0  0  0  0  0  0  0  0
  -23.1890  -30.1650   21.3180 C   0  0  0  0  0  3  0  0  0  0  0  0
  -24.5010  -29.0250   19.4400 C   0  0  0  0  0  0  0  0  0  0  0  0
  -25.6680  -30.6900   20.8810 C   0  0  0  0  0  2  0  0  0  0  0  0
  -25.7210  -29.4640   19.9690 C   0  0  0  0  0  0  0  0  0  0  0  0
  -26.9270  -28.7580   19.6510 C   0  0  0  0  0  3  0  0  0  0  0  0
  -25.6600  -27.2280   18.2710 C   0  0  0  0  0  3  0  0  0  0  0  0
  -24.4750  -27.9160   18.5810 C   0  0  0  0  0  3  0  0  0  0  0  0
  -23.2440  -29.7840   19.8190 C   0  0  0  0  0  2  0  0  0  0  0  0
  -24.4890  -30.7420   21.7940 N   0  0  0  0  0  0  0  0  0  0  0  0
  -23.5180  -31.4320   23.7270 O   0  0  0  0  0  0  0  0  0  0  0  0
  -22.7230  -28.9390   22.1400 C   0  0  0  0  0  0  0  0  0  0  0  0
  -21.4400  -28.5660   21.9950 N   0  0  0  0  0  0  0  0  0  0  0  0
  -23.5110  -28.3360   22.8730 O   0  0  0  0  0  0  0  0  0  0  0  0
  -20.8520  -29.1240   21.3890 H   0  0  0  0  0  0  0  0  0  0  0  0
  -18.3640  -26.6660   22.1990 C   0  0  0  0  0  0  0  0  0  0  0  0
  -20.7970  -27.4200   22.6420 C   0  0  0  0  0  3  0  0  0  0  0  0
  -21.2200  -26.0920   21.9730 C   0  0  0  0  0  2  0  0  0  0  0  0
  -20.2570  -25.6370   20.8720 C   0  0  0  0  0  2  0  0  0  0  0  0
  -18.8490  -25.4430   21.4380 C   0  0  0  0  0  2  0  0  0  0  0  0
  -19.2780  -27.6030   22.7500 C   0  0  0  0  0  0  0  0  0  0  0  0
  -18.7740  -28.7400   23.4190 C   0  0  0  0  0  3  0  0  0  0  0  0
  -17.3880  -28.9470   23.5450 C   0  0  0  0  0  3  0  0  0  0  0  0
  -16.4870  -28.0090   23.0110 C   0  0  0  0  0  3  0  0  0  0  0  0
  -16.9760  -26.8700   22.3440 C   0  0  0  0  0  3  0  0  0  0  0  0
  -25.8500  -31.9450   23.5830 C   0  0  0  0  0  3  0  0  0  0  0  0
  -25.5530  -33.3170   24.0240 N   0  0  0  0  0  0  0  0  0  0  0  0
  -25.8480  -34.4210   23.3230 C   0  0  0  0  0  0  0  0  0  0  0  0
  -26.4710  -34.3910   22.2580 O   0  0  0  0  0  0  0  0  0  0  0  0
  -24.9850  -33.4120   24.8530 H   0  0  0  0  0  0  0  0  0  0  0  0
  -24.1030  -36.2340   23.1750 C   0  0  0  0  0  1  0  0  0  0  0  0
  -25.3810  -35.7740   23.8960 C   0  0  0  0  0  3  0  0  0  0  0  0
  -27.5500  -36.6160   24.6910 C   0  0  0  0  0  1  0  0  0  0  0  0
  -26.4070  -36.8380   23.8090 N   0  0  0  0  0  0  0  0  0  0  0  0
  -26.0040  -37.7460   24.0310 H   0  0  0  0  0  0  0  0  0  0  0  0
  -26.4690  -31.1040   24.7680 C   0  0  1  0  0  0  0  0  0  0  0  0
  -25.4560  -30.7610   25.8870 C   0  0  0  0  0  1  0  0  0  0  0  0
  -27.0590  -29.7690   24.2550 C   0  0  0  0  0  1  0  0  0  0  0  0
  -27.6470  -31.8840   25.4040 C   0  0  0  0  0  1  0  0  0  0  0  0
  1  2  2  0
  2  4  1  0
  3  9  1  0
  3  6  1  0
  5  3  1  0
  5  1  1  0
  6  7  1  0
  6  2  1  0
  9  8  1  0
  9 10  1  0
 10 19  1  0
 11 19  1  0
 11 17  1  0
 12 17  1  0
 13 14  1  0
 13 12  1  0
 15 14  1  0
 15 24  1  0
 15 16  1  0
 17 16  1  0
 18 11  2  0
 19 20  1  0
 21 22  2  0
 22 41  1  0
 23 22  1  0
 23 26  1  0
 24 25  1  0
 24 21  1  0
 25 23  2  0
 26 27  1  0
 27 28  2  0
 29 32  1  0
 29 28  1  0
 30 29  2  0
 31 30  1  0
 31 26  2  0
 32 33  1  0
 33 38  2  0
 33 34  1  0
 34 35  2  0
 35 36  1  0
 36 40  1  0
 37 36  2  0
 38 37  1  0
 39 38  1  0
 41 42  1  0
 42 45  1  0
 42 44  1  0
 43 41  2  0
 46 21  1  0
 46 47  1  0
 48 46  1  0
 49 50  1  0
 49  5  1  0
 51 50  2  0
 51 52  1  0
 52 54  1  0
 53 64  2  0
 54 59  1  0
 55 63  1  0
 55 65  1  0
 56 62  1  0
 56 58  1  0
 57 63  1  0
 58 57  1  0
 59 58  2  0
 60 61  1  0
 60 54  2  0
 61 56  2  0
 62 55  1  0
 63 53  1  0
 65 67  2  0
 66 65  1  0
 68 66  1  0
 69 78  2  0
 69 74  1  0
 70 66  1  0
 70 74  1  0
 71 70  1  0
 72 73  1  0
 72 71  1  0
 73 69  1  0
 74 75  2  0
 75 76  1  0
 77 76  2  0
 78 77  1  0
 79 53  1  0
 79 80  1  0
 79 89  1  0
 80 83  1  0
 81 85  1  0
 81 80  1  0
 82 81  2  0
 85 84  1  0
 87 85  1  0
 87 88  1  0
 87 86  1  0
 89 92  1  1
 89 90  1  0
 91 89  1  0
M  ISO  4  11 100  19 100  51 101  52 101
M  END
>  <TORSDO>  (65) 
F 21

>  <SCORE>  (65) 
-9.380

>  <name>  (65) 
65

>  <ligand_id>  (65) 
65

>  <original_smiles>  (65) 
[H]c1c([H])c([H])c2c(c1[H])C([H])([H])C([H])([H])C([H])([H])C2([H])N([H])C(=O)C1([H])N(C(=O)C([H])(N([H])C(=O)C([H])(N([H])C([H])([H])[H])C([H])([H])[H])C(C([H])([H])[H])(C([H])([H])[H])C([H])([H])[H])C([H])([H])c2c([H])c(OC([H])([H])C([H])([H])C([H])([H])n3c([H])c(C([H])([H])[H])[n+]([H])c3C([H])(C([H])([H])[H])C([H])([H])N([H])C(=O)N3C([H])([H])C([H])([H])C([H])([H])C([H])(n4nc(-c5c([H])c([H])c(Oc6c([H])c([H])c(F)c([H])c6F)c([H])c5[H])c(C(=O)N([H])[H])c4N([H])[H])C3([H])[H])c([H])c([H])c2C1([H])[H]

>  <smiles>  (65) 
[H]c1c([H])c([H])c2c(c1[H])C([H])([H])C([H])([H])C([H])([H])C2([H])N([H])C(=O)C1([H])N(C(=O)C([H])(N([H])C(=O)C([H])(N([H])C([H])([H])[H])C([H])([H])[H])C(C([H])([H])[H])(C([H])([H])[H])C([H])([H])[H])C([H])([H])c2c([H])c(OC([H])([H])C([H])([H])C([H])([H])n3c([H])c(C([H])([H])[H])[n+]([H])c3C([H])(C([H])([H])[H])C([H])([H])N([H])C(=O)N3C([H])([H])C([H])([H])C([H])([H])C([H])(n4nc(-c5c([H])c([H])c(Oc6c([H])c([H])c(F)c([H])c6F)c([H])c5[H])c(C(=O)N([H])[H])c4N([H])[H])C3([H])[H])c([H])c([H])c2C1([H])[H]

$$$$
66:0:0
     RDKit          3D

 92100  0  0  1  0  0  0  0  0999 V2000
  -30.3450  -16.0670   20.1340 C   0  0  0  0  0  0  0  0  0  0  0  0
  -29.0950  -16.5940   20.6060 C   0  0  0  0  0  0  0  0  0  0  0  0
  -29.7130  -18.8560   20.1510 C   0  0  0  0  0  0  0  0  0  0  0  0
  -31.0390  -18.3630   19.9510 C   0  0  0  0  0  0  0  0  0  0  0  0
  -28.0560  -15.8370   21.4110 C   0  0  0  0  0  1  0  0  0  0  0  0
  -31.2890  -17.0210   19.8450 N   0  0  0  0  0  0  0  0  0  0  0  0
  -28.7760  -17.9300   20.5070 N   0  0  0  0  0  0  0  0  0  0  0  0
  -30.8880  -14.5940   20.0270 C   0  0  0  0  0  0  0  0  0  0  0  0
  -30.5160  -12.3780   18.9660 C   0  0  0  0  0  2  0  0  0  0  0  0
  -29.5250  -12.5050   17.7900 C   0  0  0  0  0  2  0  0  0  0  0  0
  -28.0690  -12.3820   18.2840 C   0  0  0  0  0  2  0  0  0  0  0  0
  -27.7790  -13.2460   19.5420 C   0  0  0  0  0  3  0  0  0  0  0  0
  -28.8930  -13.0330   20.5870 C   0  0  0  0  0  2  0  0  0  0  0  0
  -30.1610  -13.4180   19.9620 N   0  0  0  0  0  0  0  0  0  0  0  0
  -32.0710  -14.5350   19.6710 O   0  0  0  0  0  0  0  0  0  0  0  0
  -25.4190  -13.8650   20.3490 C   0  0  0  0  0  0  0  0  0  0  0  0
  -24.3660  -13.1060   20.7790 C   0  0  0  0  0  0  0  0  0  0  0  0
  -24.8090  -11.7490   20.7180 C   0  0  0  0  0  0  0  0  0  0  0  0
  -26.4490  -12.9770   20.0850 N   0  0  0  0  0  0  0  0  0  0  0  0
  -26.0880  -11.6960   20.3620 N   0  0  0  0  0  0  0  0  0  0  0  0
  -24.0710  -10.4950   20.9260 C   0  0  0  0  0  0  0  0  0  0  0  0
  -24.5170   -9.5230   21.8460 C   0  0  0  0  0  3  0  0  0  0  0  0
  -23.7770   -8.3380   22.0500 C   0  0  0  0  0  3  0  0  0  0  0  0
  -22.5770   -8.1170   21.3330 C   0  0  0  0  0  0  0  0  0  0  0  0
  -22.1520   -9.0770   20.3980 C   0  0  0  0  0  3  0  0  0  0  0  0
  -22.8930  -10.2520   20.1910 C   0  0  0  0  0  3  0  0  0  0  0  0
  -21.8100   -6.9810   21.4450 O   0  0  0  0  0  0  0  0  0  0  0  0
  -21.7610   -6.2560   22.6090 C   0  0  0  0  0  0  0  0  0  0  0  0
  -21.3240   -6.8240   23.8250 C   0  0  0  0  0  3  0  0  0  0  0  0
  -21.2190   -6.0220   24.9780 C   0  0  0  0  0  3  0  0  0  0  0  0
  -21.5480   -4.6540   24.9180 C   0  0  0  0  0  0  0  0  0  0  0  0
  -21.9840   -4.0870   23.7080 C   0  0  0  0  0  3  0  0  0  0  0  0
  -22.0860   -4.8850   22.5560 C   0  0  0  0  0  0  0  0  0  0  0  0
  -22.4820   -4.3280   21.3860 F   0  0  0  0  0  0  0  0  0  0  0  0
  -21.4400   -3.8830   26.0250 F   0  0  0  0  0  0  0  0  0  0  0  0
  -22.9880  -13.5980   21.1180 C   0  0  0  0  0  0  0  0  0  0  0  0
  -22.3010  -12.9190   22.0320 N   0  0  0  0  0  0  0  0  0  0  0  0
  -22.5330  -14.6220   20.6100 O   0  0  0  0  0  0  0  0  0  0  0  0
  -22.6960  -12.1040   22.4750 H   0  0  0  0  0  0  0  0  0  0  0  0
  -21.3710  -13.2120   22.2930 H   0  0  0  0  0  0  0  0  0  0  0  0
  -25.5630  -15.2310   20.1330 N   0  0  0  0  0  0  0  0  0  0  0  0
  -24.7780  -15.8620   20.2540 H   0  0  0  0  0  0  0  0  0  0  0  0
  -26.3640  -15.6790   19.7050 H   0  0  0  0  0  0  0  0  0  0  0  0
  -32.8170  -19.4220   18.4710 C   0  0  0  0  0  1  0  0  0  0  0  0
  -33.3910  -18.7280   20.8670 C   0  0  0  0  0  1  0  0  0  0  0  0
  -32.2970  -19.2320   19.9040 C   0  0  0  0  0  3  0  0  0  0  0  0
  -29.1330  -20.3180   19.9270 C   0  0  0  0  0  3  0  0  0  0  0  0
  -29.9720  -21.6660   20.0210 C   0  0  0  0  0  3  0  0  0  0  0  0
  -29.3960  -23.0430   19.4590 C   0  0  0  0  0  2  0  0  0  0  0  0
  -28.3790  -23.9560   20.2570 C   0  0  0  0  0  2  0  0  0  0  0  0
  -28.8320  -25.3310   20.9140 C   0  0  0  0  0  2  0  0  0  0  0  0
  -28.7390  -26.6250   20.2270 O   0  0  0  0  0  0  0  0  0  0  0  0
  -24.5790  -31.7070   23.2500 C   0  0  0  0  0  0  0  0  0  0  0  0
  -27.5530  -27.3550   20.2670 C   0  0  0  0  0  0  0  0  0  0  0  0
  -23.5290  -30.3040   21.5070 C   0  0  0  0  0  3  0  0  0  0  0  0
  -25.1190  -28.8300   20.1590 C   0  0  0  0  0  0  0  0  0  0  0  0
  -26.0560  -30.7300   21.4830 C   0  0  0  0  0  2  0  0  0  0  0  0
  -26.2290  -29.3690   20.8240 C   0  0  0  0  0  0  0  0  0  0  0  0
  -27.4510  -28.6440   20.8640 C   0  0  0  0  0  3  0  0  0  0  0  0
  -26.4200  -26.8480   19.5970 C   0  0  0  0  0  3  0  0  0  0  0  0
  -25.2150  -27.5730   19.5380 C   0  0  0  0  0  3  0  0  0  0  0  0
  -23.8510  -29.6550   20.1350 C   0  0  0  0  0  2  0  0  0  0  0  0
  -24.7350  -30.9310   22.1370 N   0  0  0  0  0  0  0  0  0  0  0  0
  -23.4560  -31.9290   23.7260 O   0  0  0  0  0  0  0  0  0  0  0  0
  -22.8450  -29.2450   22.4070 C   0  0  0  0  0  0  0  0  0  0  0  0
  -21.5260  -29.0580   22.2270 N   0  0  0  0  0  0  0  0  0  0  0  0
  -23.5020  -28.5940   23.2220 O   0  0  0  0  0  0  0  0  0  0  0  0
  -21.0530  -29.6400   21.5500 H   0  0  0  0  0  0  0  0  0  0  0  0
  -18.1370  -27.8650   22.6290 C   0  0  0  0  0  0  0  0  0  0  0  0
  -20.6950  -28.0840   22.9360 C   0  0  0  0  0  3  0  0  0  0  0  0
  -20.7890  -26.6890   22.2780 C   0  0  0  0  0  2  0  0  0  0  0  0
  -19.6940  -26.4360   21.2360 C   0  0  0  0  0  2  0  0  0  0  0  0
  -18.3070  -26.5560   21.8760 C   0  0  0  0  0  2  0  0  0  0  0  0
  -19.2580  -28.5900   23.1160 C   0  0  0  0  0  0  0  0  0  0  0  0
  -19.0440  -29.8170   23.7800 C   0  0  0  0  0  3  0  0  0  0  0  0
  -17.7420  -30.3200   23.9640 C   0  0  0  0  0  3  0  0  0  0  0  0
  -16.6350  -29.5920   23.4950 C   0  0  0  0  0  3  0  0  0  0  0  0
  -16.8340  -28.3680   22.8330 C   0  0  0  0  0  3  0  0  0  0  0  0
  -25.7950  -32.3700   23.9630 C   0  0  0  0  0  3  0  0  0  0  0  0
  -25.4460  -33.7730   24.2270 N   0  0  0  0  0  0  0  0  0  0  0  0
  -25.8250  -34.8100   23.4670 C   0  0  0  0  0  0  0  0  0  0  0  0
  -26.5740  -34.6860   22.4930 O   0  0  0  0  0  0  0  0  0  0  0  0
  -24.7870  -33.9390   24.9720 H   0  0  0  0  0  0  0  0  0  0  0  0
  -24.1020  -36.5680   22.9360 C   0  0  0  0  0  1  0  0  0  0  0  0
  -25.2870  -36.2030   23.8450 C   0  0  0  0  0  3  0  0  0  0  0  0
  -27.3410  -37.1530   24.8030 C   0  0  0  0  0  1  0  0  0  0  0  0
  -26.3100  -37.2690   23.7720 N   0  0  0  0  0  0  0  0  0  0  0  0
  -25.8800  -38.1850   23.8540 H   0  0  0  0  0  0  0  0  0  0  0  0
  -26.2070  -31.6390   25.3000 C   0  0  1  0  0  0  0  0  0  0  0  0
  -25.0300  -31.4200   26.2780 C   0  0  0  0  0  1  0  0  0  0  0  0
  -26.8340  -30.2570   24.9980 C   0  0  0  0  0  1  0  0  0  0  0  0
  -27.2880  -32.4650   26.0380 C   0  0  0  0  0  1  0  0  0  0  0  0
  1  2  1  0
  2  5  1  0
  3  7  1  0
  4  3  2  0
  6  4  1  0
  6  1  2  0
  7  2  2  0
  8  1  1  0
  9 14  1  0
 10 11  1  0
 10  9  1  0
 12 11  1  0
 12 19  1  0
 12 13  1  0
 14  8  1  0
 14 13  1  0
 15  8  2  0
 16 17  2  0
 17 36  1  0
 18 17  1  0
 18 21  1  0
 19 16  1  0
 19 20  1  0
 20 18  2  0
 21 22  1  0
 22 23  2  0
 24 27  1  0
 24 23  1  0
 25 24  2  0
 26 25  1  0
 26 21  2  0
 27 28  1  0
 28 29  1  0
 29 30  2  0
 31 30  1  0
 31 35  1  0
 32 31  2  0
 33 28  2  0
 33 32  1  0
 34 33  1  0
 36 37  1  0
 37 40  1  0
 37 39  1  0
 38 36  2  0
 41 42  1  0
 41 16  1  0
 43 41  1  0
 44 46  1  0
 46  4  1  0
 46 45  1  0
 47 48  2  0
 47  3  1  0
 49 48  1  0
 49 50  1  0
 50 51  1  0
 52 54  1  0
 52 51  1  0
 53 64  2  0
 54 59  1  0
 55 63  1  0
 55 65  1  0
 56 58  1  0
 57 63  1  0
 58 59  2  0
 58 57  1  0
 60 54  2  0
 61 60  1  0
 61 56  2  0
 62 56  1  0
 62 55  1  0
 63 53  1  0
 65 67  2  0
 66 65  1  0
 68 66  1  0
 69 78  2  0
 69 74  1  0
 70 66  1  0
 70 74  1  0
 71 70  1  0
 72 73  1  0
 72 71  1  0
 73 69  1  0
 74 75  2  0
 75 76  1  0
 77 76  2  0
 78 77  1  0
 79 53  1  0
 79 80  1  0
 79 89  1  0
 80 83  1  0
 81 85  1  0
 81 80  1  0
 82 81  2  0
 85 84  1  0
 87 85  1  0
 87 88  1  0
 87 86  1  0
 89 92  1  1
 89 90  1  0
 91 89  1  0
M  ISO  4   1 100   8 100  51 101  52 101
M  END
>  <TORSDO>  (66) 
F 22

>  <SCORE>  (66) 
-12.154

>  <name>  (66) 
66

>  <ligand_id>  (66) 
66

>  <original_smiles>  (66) 
[H]c1c([H])c([H])c2c(c1[H])C([H])([H])C([H])([H])C([H])([H])C2([H])N([H])C(=O)C1([H])N(C(=O)C([H])(N([H])C(=O)C([H])(N([H])C([H])([H])[H])C([H])([H])[H])C(C([H])([H])[H])(C([H])([H])[H])C([H])([H])[H])C([H])([H])c2c([H])c(OC([H])([H])C([H])([H])C([H])([H])C([H])([H])C([H])([H])c3nc(C([H])([H])[H])c(C(=O)N4C([H])([H])C([H])([H])C([H])([H])C([H])(n5nc(-c6c([H])c([H])c(Oc7c([H])c([H])c(F)c([H])c7F)c([H])c6[H])c(C(=O)N([H])[H])c5N([H])[H])C4([H])[H])nc3C([H])(C([H])([H])[H])C([H])([H])[H])c([H])c([H])c2C1([H])[H]

>  <smiles>  (66) 
[H]c1c([H])c([H])c2c(c1[H])C([H])([H])C([H])([H])C([H])([H])C2([H])N([H])C(=O)C1([H])N(C(=O)C([H])(N([H])C(=O)C([H])(N([H])C([H])([H])[H])C([H])([H])[H])C(C([H])([H])[H])(C([H])([H])[H])C([H])([H])[H])C([H])([H])c2c([H])c(OC([H])([H])C([H])([H])C([H])([H])C([H])([H])C([H])([H])c3nc(C([H])([H])[H])c(C(=O)N4C([H])([H])C([H])([H])C([H])([H])C([H])(n5nc(-c6c([H])c([H])c(Oc7c([H])c([H])c(F)c([H])c7F)c([H])c6[H])c(C(=O)N([H])[H])c5N([H])[H])C4([H])[H])nc3C([H])(C([H])([H])[H])C([H])([H])[H])c([H])c([H])c2C1([H])[H]

$$$$
67:0:0
     RDKit          3D

 90 98  0  0  1  0  0  0  0  0999 V2000
  -31.0050  -18.7330   18.0310 C   0  0  0  0  0  3  0  0  0  0  0  0
  -30.6990  -19.9450   18.6740 C   0  0  0  0  0  3  0  0  0  0  0  0
  -30.8850  -17.5210   18.7330 C   0  0  0  0  0  3  0  0  0  0  0  0
  -30.2770  -19.9370   20.0130 C   0  0  0  0  0  0  0  0  0  0  0  0
  -30.4880  -17.5170   20.0860 C   0  0  0  0  0  0  0  0  0  0  0  0
  -30.1880  -18.7370   20.6920 N   0  0  0  0  0  0  0  0  0  0  0  0
  -28.6630  -16.2270   21.0750 C   0  0  0  0  0  1  0  0  0  0  0  0
  -30.8720  -16.2360   22.2590 C   0  0  0  0  0  1  0  0  0  0  0  0
  -30.1950  -16.1550   20.8720 C   0  0  2  0  0  0  0  0  0  0  0  0
  -30.7700  -14.7680   20.2170 C   0  0  0  0  0  0  0  0  0  0  0  0
  -30.5000  -12.5590   19.0540 C   0  0  0  0  0  2  0  0  0  0  0  0
  -29.5000  -12.6820   17.8820 C   0  0  0  0  0  2  0  0  0  0  0  0
  -28.0460  -12.4930   18.3620 C   0  0  0  0  0  2  0  0  0  0  0  0
  -27.7420  -13.3210   19.6350 C   0  0  0  0  0  3  0  0  0  0  0  0
  -28.8510  -13.1060   20.6910 C   0  0  0  0  0  2  0  0  0  0  0  0
  -30.1140  -13.5540   20.0880 N   0  0  0  0  0  0  0  0  0  0  0  0
  -31.9150  -14.8240   19.7530 O   0  0  0  0  0  0  0  0  0  0  0  0
  -25.3740  -13.9380   20.4270 C   0  0  0  0  0  0  0  0  0  0  0  0
  -24.3170  -13.1680   20.8290 C   0  0  0  0  0  0  0  0  0  0  0  0
  -24.7730  -11.8160   20.7740 C   0  0  0  0  0  0  0  0  0  0  0  0
  -26.4080  -13.0520   20.1610 N   0  0  0  0  0  0  0  0  0  0  0  0
  -26.0520  -11.7700   20.4260 N   0  0  0  0  0  0  0  0  0  0  0  0
  -24.0480  -10.5560   20.9740 C   0  0  0  0  0  0  0  0  0  0  0  0
  -24.4880   -9.5920   21.9060 C   0  0  0  0  0  3  0  0  0  0  0  0
  -23.7610   -8.3970   22.0940 C   0  0  0  0  0  3  0  0  0  0  0  0
  -22.5810   -8.1590   21.3500 C   0  0  0  0  0  0  0  0  0  0  0  0
  -22.1600   -9.1140   20.4090 C   0  0  0  0  0  3  0  0  0  0  0  0
  -22.8880  -10.3000   20.2170 C   0  0  0  0  0  3  0  0  0  0  0  0
  -21.8240   -7.0170   21.4490 O   0  0  0  0  0  0  0  0  0  0  0  0
  -21.7680   -6.2910   22.6120 C   0  0  0  0  0  0  0  0  0  0  0  0
  -21.2880   -6.8500   23.8170 C   0  0  0  0  0  3  0  0  0  0  0  0
  -21.1770   -6.0480   24.9690 C   0  0  0  0  0  3  0  0  0  0  0  0
  -21.5400   -4.6890   24.9190 C   0  0  0  0  0  0  0  0  0  0  0  0
  -22.0160   -4.1310   23.7210 C   0  0  0  0  0  3  0  0  0  0  0  0
  -22.1260   -4.9290   22.5690 C   0  0  0  0  0  0  0  0  0  0  0  0
  -22.5640   -4.3810   21.4100 F   0  0  0  0  0  0  0  0  0  0  0  0
  -21.4300   -3.9160   26.0250 F   0  0  0  0  0  0  0  0  0  0  0  0
  -22.9320  -13.6500   21.1500 C   0  0  0  0  0  0  0  0  0  0  0  0
  -22.2270  -12.9470   22.0300 N   0  0  0  0  0  0  0  0  0  0  0  0
  -22.4850  -14.6850   20.6570 O   0  0  0  0  0  0  0  0  0  0  0  0
  -22.6010  -12.1070   22.4470 H   0  0  0  0  0  0  0  0  0  0  0  0
  -21.3000  -13.2510   22.2900 H   0  0  0  0  0  0  0  0  0  0  0  0
  -25.5300  -15.3070   20.2460 N   0  0  0  0  0  0  0  0  0  0  0  0
  -24.7650  -15.9610   20.3680 H   0  0  0  0  0  0  0  0  0  0  0  0
  -26.3770  -15.7480   19.9140 H   0  0  0  0  0  0  0  0  0  0  0  0
  -30.0320  -21.3110   20.7480 C   0  0  0  0  0  3  0  0  0  0  0  0
  -29.2170  -22.4820   20.0170 C   0  0  0  0  0  3  0  0  0  0  0  0
  -29.2950  -23.9870   20.5700 C   0  0  0  0  0  3  0  0  0  0  0  0
  -28.2850  -25.0620   19.9590 C   0  0  0  0  0  3  0  0  0  0  0  0
  -28.4050  -26.5000   20.3100 O   0  0  0  0  0  0  0  0  0  0  0  0
  -24.6070  -31.8840   23.2510 C   0  0  0  0  0  0  0  0  0  0  0  0
  -27.2740  -27.3370   20.2190 C   0  0  0  0  0  0  0  0  0  0  0  0
  -23.4250  -30.4810   21.5960 C   0  0  0  0  0  3  0  0  0  0  0  0
  -24.8980  -28.9380   20.1840 C   0  0  0  0  0  0  0  0  0  0  0  0
  -25.9660  -30.8090   21.4420 C   0  0  0  0  0  2  0  0  0  0  0  0
  -26.0560  -29.4310   20.7970 C   0  0  0  0  0  0  0  0  0  0  0  0
  -27.2450  -28.6390   20.8080 C   0  0  0  0  0  3  0  0  0  0  0  0
  -26.0940  -26.9060   19.5670 C   0  0  0  0  0  3  0  0  0  0  0  0
  -24.9180  -27.6800   19.5630 C   0  0  0  0  0  3  0  0  0  0  0  0
  -23.6560  -29.8060   20.2190 C   0  0  0  0  0  2  0  0  0  0  0  0
  -24.6840  -31.0760   22.1530 N   0  0  0  0  0  0  0  0  0  0  0  0
  -23.5180  -32.1570   23.7750 O   0  0  0  0  0  0  0  0  0  0  0  0
  -22.7560  -29.4630   22.5490 C   0  0  0  0  0  0  0  0  0  0  0  0
  -21.4340  -29.2760   22.4040 N   0  0  0  0  0  0  0  0  0  0  0  0
  -23.4270  -28.8420   23.3780 O   0  0  0  0  0  0  0  0  0  0  0  0
  -20.9520  -29.8280   21.7090 H   0  0  0  0  0  0  0  0  0  0  0  0
  -18.0540  -28.0720   22.8750 C   0  0  0  0  0  0  0  0  0  0  0  0
  -20.6100  -28.3350   23.1660 C   0  0  0  0  0  3  0  0  0  0  0  0
  -20.7190  -26.9050   22.5890 C   0  0  0  0  0  2  0  0  0  0  0  0
  -19.6270  -26.5830   21.5640 C   0  0  0  0  0  2  0  0  0  0  0  0
  -18.2380  -26.7250   22.1970 C   0  0  0  0  0  2  0  0  0  0  0  0
  -19.1680  -28.8350   23.3160 C   0  0  0  0  0  0  0  0  0  0  0  0
  -18.9430  -30.0960   23.9080 C   0  0  0  0  0  3  0  0  0  0  0  0
  -17.6360  -30.5950   24.0650 C   0  0  0  0  0  3  0  0  0  0  0  0
  -16.5360  -29.8290   23.6400 C   0  0  0  0  0  3  0  0  0  0  0  0
  -16.7450  -28.5700   23.0510 C   0  0  0  0  0  3  0  0  0  0  0  0
  -25.8820  -32.5200   23.8860 C   0  0  0  0  0  3  0  0  0  0  0  0
  -25.5750  -33.9270   24.1850 N   0  0  0  0  0  0  0  0  0  0  0  0
  -25.9100  -34.9620   23.4040 C   0  0  0  0  0  0  0  0  0  0  0  0
  -26.5820  -34.8350   22.3760 O   0  0  0  0  0  0  0  0  0  0  0  0
  -24.9790  -34.1000   24.9810 H   0  0  0  0  0  0  0  0  0  0  0  0
  -24.1890  -36.7530   23.0060 C   0  0  0  0  0  1  0  0  0  0  0  0
  -25.4260  -36.3620   23.8290 C   0  0  0  0  0  3  0  0  0  0  0  0
  -27.5520  -37.2680   24.6570 C   0  0  0  0  0  1  0  0  0  0  0  0
  -26.4620  -37.4090   23.6960 N   0  0  0  0  0  0  0  0  0  0  0  0
  -26.0560  -38.3340   23.8100 H   0  0  0  0  0  0  0  0  0  0  0  0
  -26.3680  -31.7710   25.1870 C   0  0  1  0  0  0  0  0  0  0  0  0
  -25.2530  -31.5550   26.2370 C   0  0  0  0  0  1  0  0  0  0  0  0
  -26.9570  -30.3850   24.8340 C   0  0  0  0  0  1  0  0  0  0  0  0
  -27.5050  -32.5760   25.8600 C   0  0  0  0  0  1  0  0  0  0  0  0
  1  2  2  0
  1  3  1  0
  2  4  1  0
  3  5  2  0
  4  6  2  0
  4 46  1  0
  5  6  1  0
  5  9  1  0
  9  7  1  1
  9  8  1  0
 10  9  1  0
 11 16  1  0
 12 13  1  0
 12 11  1  0
 14 13  1  0
 14 21  1  0
 14 15  1  0
 16 10  1  0
 16 15  1  0
 17 10  2  0
 18 19  2  0
 19 38  1  0
 20 19  1  0
 20 23  1  0
 21 22  1  0
 21 18  1  0
 22 20  2  0
 23 24  1  0
 24 25  2  0
 26 29  1  0
 26 25  1  0
 27 26  2  0
 28 27  1  0
 28 23  2  0
 29 30  1  0
 30 31  1  0
 31 32  2  0
 33 32  1  0
 33 37  1  0
 34 33  2  0
 35 30  2  0
 35 34  1  0
 36 35  1  0
 38 39  1  0
 39 42  1  0
 39 41  1  0
 40 38  2  0
 43 44  1  0
 43 18  1  0
 45 43  1  0
 47 48  1  0
 47 46  2  0
 49 50  1  0
 49 48  2  0
 51 62  2  0
 52 50  1  0
 52 57  1  0
 53 61  1  0
 53 63  1  0
 54 60  1  0
 54 56  1  0
 55 61  1  0
 56 57  2  0
 56 55  1  0
 58 52  2  0
 59 58  1  0
 59 54  2  0
 60 53  1  0
 61 51  1  0
 63 65  2  0
 64 63  1  0
 66 64  1  0
 67 76  2  0
 67 72  1  0
 68 64  1  0
 68 72  1  0
 69 68  1  0
 70 71  1  0
 70 69  1  0
 71 67  1  0
 72 73  2  0
 73 74  1  0
 75 74  2  0
 76 75  1  0
 77 51  1  0
 77 78  1  0
 77 87  1  0
 78 81  1  0
 79 83  1  0
 79 78  1  0
 80 79  2  0
 83 82  1  0
 85 86  1  0
 85 83  1  0
 85 84  1  0
 87 90  1  1
 87 88  1  0
 89 87  1  0
M  ISO  4   9 100  10 100  49 101  50 101
M  END
>  <TORSDO>  (67) 
F 21

>  <SCORE>  (67) 
-13.302

>  <name>  (67) 
67

>  <ligand_id>  (67) 
67

>  <original_smiles>  (67) 
[H]c1c(C([H])([H])C([H])([H])C([H])([H])C([H])([H])Oc2c([H])c([H])c3c(c2[H])C([H])([H])N(C(=O)C([H])(N([H])C(=O)C([H])(N([H])C([H])([H])[H])C([H])([H])[H])C(C([H])([H])[H])(C([H])([H])[H])C([H])([H])[H])C([H])(C(=O)N([H])C2([H])c4c([H])c([H])c([H])c([H])c4C([H])([H])C([H])([H])C2([H])[H])C3([H])[H])nc(C(C(=O)N2C([H])([H])C([H])([H])C([H])([H])C([H])(n3nc(-c4c([H])c([H])c(Oc5c([H])c([H])c(F)c([H])c5F)c([H])c4[H])c(C(=O)N([H])[H])c3N([H])[H])C2([H])[H])(C([H])([H])[H])C([H])([H])[H])c([H])c1[H]

>  <smiles>  (67) 
[H]c1c(C([H])([H])C([H])([H])C([H])([H])C([H])([H])Oc2c([H])c([H])c3c(c2[H])C([H])([H])N(C(=O)C([H])(N([H])C(=O)C([H])(N([H])C([H])([H])[H])C([H])([H])[H])C(C([H])([H])[H])(C([H])([H])[H])C([H])([H])[H])C([H])(C(=O)N([H])C2([H])c4c([H])c([H])c([H])c([H])c4C([H])([H])C([H])([H])C2([H])[H])C3([H])[H])nc(C(C(=O)N2C([H])([H])C([H])([H])C([H])([H])C([H])(n3nc(-c4c([H])c([H])c(Oc5c([H])c([H])c(F)c([H])c5F)c([H])c4[H])c(C(=O)N([H])[H])c3N([H])[H])C2([H])[H])(C([H])([H])[H])C([H])([H])[H])c([H])c1[H]

$$$$
68:0:0
     RDKit          3D

 93101  0  0  1  0  0  0  0  0999 V2000
  -29.1510  -19.1240   19.2910 C   0  0  0  0  0  3  0  0  0  0  0  0
  -28.8550  -20.5110   19.4020 C   0  0  0  0  0  0  0  0  0  0  0  0
  -29.2640  -21.2310   20.5590 C   0  0  0  0  0  0  0  0  0  0  0  0
  -29.8230  -18.4370   20.3300 C   0  0  0  0  0  0  0  0  0  0  0  0
  -30.0260  -20.4790   21.5010 C   0  0  0  0  0  0  0  0  0  0  0  0
  -28.0230  -21.1710   18.3180 C   0  0  0  0  0  1  0  0  0  0  0  0
  -30.5710  -21.1040   22.7710 C   0  0  0  0  0  1  0  0  0  0  0  0
  -30.2690  -19.1440   21.3980 N   0  0  0  0  0  0  0  0  0  0  0  0
  -28.5340  -16.5740   21.3400 C   0  0  0  0  0  1  0  0  0  0  0  0
  -29.7530  -16.8670   20.4440 C   0  0  0  0  0  3  0  0  0  0  0  0
  -31.1310  -15.5750   22.2990 C   0  0  0  0  0  1  0  0  0  0  0  0
  -32.3080  -16.8780   20.6090 C   0  0  0  0  0  1  0  0  0  0  0  0
  -31.0490  -15.9720   20.7980 C   0  0  2  0  0  0  0  0  0  0  0  0
  -31.2780  -14.6640   19.8900 C   0  0  0  0  0  0  0  0  0  0  0  0
  -30.7960  -12.4670   18.8080 C   0  0  0  0  0  2  0  0  0  0  0  0
  -29.8230  -12.6440   17.6260 C   0  0  0  0  0  2  0  0  0  0  0  0
  -28.3660  -12.5480   18.1130 C   0  0  0  0  0  2  0  0  0  0  0  0
  -28.1050  -13.4280   19.3640 C   0  0  0  0  0  3  0  0  0  0  0  0
  -29.2070  -13.2280   20.4330 C   0  0  0  0  0  2  0  0  0  0  0  0
  -30.5100  -13.5200   19.8170 N   0  0  0  0  0  0  0  0  0  0  0  0
  -32.2930  -14.6990   19.1870 O   0  0  0  0  0  0  0  0  0  0  0  0
  -25.7580  -14.1160   20.1610 C   0  0  0  0  0  0  0  0  0  0  0  0
  -24.6870  -13.3900   20.5980 C   0  0  0  0  0  0  0  0  0  0  0  0
  -25.0950  -12.0230   20.5570 C   0  0  0  0  0  0  0  0  0  0  0  0
  -26.7670  -13.2000   19.9050 N   0  0  0  0  0  0  0  0  0  0  0  0
  -26.3700  -11.9330   20.1940 N   0  0  0  0  0  0  0  0  0  0  0  0
  -24.3260  -10.7930   20.7860 C   0  0  0  0  0  0  0  0  0  0  0  0
  -24.7090   -9.8530   21.7670 C   0  0  0  0  0  3  0  0  0  0  0  0
  -23.9410   -8.6880   21.9800 C   0  0  0  0  0  3  0  0  0  0  0  0
  -22.7740   -8.4570   21.2120 C   0  0  0  0  0  0  0  0  0  0  0  0
  -22.4100   -9.3850   20.2210 C   0  0  0  0  0  3  0  0  0  0  0  0
  -23.1790  -10.5410   20.0070 C   0  0  0  0  0  3  0  0  0  0  0  0
  -21.9800   -7.3430   21.3340 O   0  0  0  0  0  0  0  0  0  0  0  0
  -21.8110   -6.7080   22.5370 C   0  0  0  0  0  0  0  0  0  0  0  0
  -21.3060   -7.3820   23.6700 C   0  0  0  0  0  3  0  0  0  0  0  0
  -21.0830   -6.6740   24.8690 C   0  0  0  0  0  3  0  0  0  0  0  0
  -21.3550   -5.2940   24.9330 C   0  0  0  0  0  0  0  0  0  0  0  0
  -21.8540   -4.6210   23.8030 C   0  0  0  0  0  3  0  0  0  0  0  0
  -22.0790   -5.3260   22.6080 C   0  0  0  0  0  0  0  0  0  0  0  0
  -22.5390   -4.6680   21.5170 F   0  0  0  0  0  0  0  0  0  0  0  0
  -21.1330   -4.6120   26.0810 F   0  0  0  0  0  0  0  0  0  0  0  0
  -23.3260  -13.9260   20.9370 C   0  0  0  0  0  0  0  0  0  0  0  0
  -22.6230  -13.2750   21.8550 N   0  0  0  0  0  0  0  0  0  0  0  0
  -22.9000  -14.9610   20.4240 O   0  0  0  0  0  0  0  0  0  0  0  0
  -22.9820  -12.4370   22.2890 H   0  0  0  0  0  0  0  0  0  0  0  0
  -21.7140  -13.6180   22.1310 H   0  0  0  0  0  0  0  0  0  0  0  0
  -25.9410  -15.4750   19.9350 N   0  0  0  0  0  0  0  0  0  0  0  0
  -25.1950  -16.1470   20.0680 H   0  0  0  0  0  0  0  0  0  0  0  0
  -26.7820  -15.8830   19.5510 H   0  0  0  0  0  0  0  0  0  0  0  0
  -28.7060  -22.6590   20.9140 C   0  0  0  0  0  2  0  0  0  0  0  0
  -29.1200  -23.9870   20.1640 C   0  0  0  0  0  2  0  0  0  0  0  0
  -28.3780  -25.2540   20.7550 C   0  0  0  0  0  2  0  0  0  0  0  0
  -28.5870  -26.5890   20.1780 O   0  0  0  0  0  0  0  0  0  0  0  0
  -24.5960  -31.7420   23.2050 C   0  0  0  0  0  0  0  0  0  0  0  0
  -27.4470  -27.3870   20.1270 C   0  0  0  0  0  0  0  0  0  0  0  0
  -23.4790  -30.3350   21.5090 C   0  0  0  0  0  3  0  0  0  0  0  0
  -25.0190  -28.8720   20.0860 C   0  0  0  0  0  0  0  0  0  0  0  0
  -26.0030  -30.7630   21.3850 C   0  0  0  0  0  2  0  0  0  0  0  0
  -26.1500  -29.4050   20.7190 C   0  0  0  0  0  0  0  0  0  0  0  0
  -27.3700  -28.6740   20.7300 C   0  0  0  0  0  3  0  0  0  0  0  0
  -26.3000  -26.8970   19.4650 C   0  0  0  0  0  3  0  0  0  0  0  0
  -25.0940  -27.6210   19.4510 C   0  0  0  0  0  3  0  0  0  0  0  0
  -23.7470  -29.6910   20.1210 C   0  0  0  0  0  2  0  0  0  0  0  0
  -24.7090  -30.9620   22.0910 N   0  0  0  0  0  0  0  0  0  0  0  0
  -23.4930  -31.9700   23.7220 O   0  0  0  0  0  0  0  0  0  0  0  0
  -22.8350  -29.2750   22.4330 C   0  0  0  0  0  0  0  0  0  0  0  0
  -21.5160  -29.0690   22.2850 N   0  0  0  0  0  0  0  0  0  0  0  0
  -23.5200  -28.6450   23.2430 O   0  0  0  0  0  0  0  0  0  0  0  0
  -21.0220  -29.6310   21.6060 H   0  0  0  0  0  0  0  0  0  0  0  0
  -18.1600  -27.7920   22.7170 C   0  0  0  0  0  0  0  0  0  0  0  0
  -20.7100  -28.0930   23.0200 C   0  0  0  0  0  3  0  0  0  0  0  0
  -20.8450  -26.6820   22.4010 C   0  0  0  0  0  2  0  0  0  0  0  0
  -19.7580  -26.3680   21.3680 C   0  0  0  0  0  2  0  0  0  0  0  0
  -18.3690  -26.4680   22.0030 C   0  0  0  0  0  2  0  0  0  0  0  0
  -19.2600  -28.5630   23.1810 C   0  0  0  0  0  0  0  0  0  0  0  0
  -19.0100  -29.8030   23.8070 C   0  0  0  0  0  3  0  0  0  0  0  0
  -17.6940  -30.2740   23.9760 C   0  0  0  0  0  3  0  0  0  0  0  0
  -16.6090  -29.5000   23.5290 C   0  0  0  0  0  3  0  0  0  0  0  0
  -16.8420  -28.2610   22.9060 C   0  0  0  0  0  3  0  0  0  0  0  0
  -25.8420  -32.4040   23.8700 C   0  0  0  0  0  3  0  0  0  0  0  0
  -25.4870  -33.7910   24.1960 N   0  0  0  0  0  0  0  0  0  0  0  0
  -25.8140  -34.8560   23.4520 C   0  0  0  0  0  0  0  0  0  0  0  0
  -26.5160  -34.7750   22.4400 O   0  0  0  0  0  0  0  0  0  0  0  0
  -24.8660  -33.9260   24.9810 H   0  0  0  0  0  0  0  0  0  0  0  0
  -24.0450  -36.6010   23.0580 C   0  0  0  0  0  1  0  0  0  0  0  0
  -25.2770  -36.2290   23.9000 C   0  0  0  0  0  3  0  0  0  0  0  0
  -27.3640  -37.1710   24.7850 C   0  0  0  0  0  1  0  0  0  0  0  0
  -26.2820  -37.3110   23.8140 N   0  0  0  0  0  0  0  0  0  0  0  0
  -25.8470  -38.2190   23.9530 H   0  0  0  0  0  0  0  0  0  0  0  0
  -26.3410  -31.6380   25.1560 C   0  0  1  0  0  0  0  0  0  0  0  0
  -25.2210  -31.3630   26.1870 C   0  0  0  0  0  1  0  0  0  0  0  0
  -26.9730  -30.2800   24.7730 C   0  0  0  0  0  1  0  0  0  0  0  0
  -27.4490  -32.4570   25.8580 C   0  0  0  0  0  1  0  0  0  0  0  0
  1  2  2  0
  1  4  1  0
  2  3  1  0
  3 50  1  0
  3  5  2  0
  4 10  1  0
  4  8  2  0
  5  7  1  0
  6  2  1  0
  8  5  1  0
 10 13  1  0
 10  9  1  0
 13 12  1  6
 13 11  1  0
 14 13  1  0
 15 20  1  0
 16 17  1  0
 16 15  1  0
 18 17  1  0
 18 25  1  0
 18 19  1  0
 20 14  1  0
 20 19  1  0
 21 14  2  0
 22 23  2  0
 23 42  1  0
 24 23  1  0
 24 27  1  0
 25 22  1  0
 25 26  1  0
 26 24  2  0
 27 28  1  0
 28 29  2  0
 30 33  1  0
 30 29  1  0
 31 30  2  0
 32 31  1  0
 32 27  2  0
 33 34  1  0
 34 39  2  0
 34 35  1  0
 35 36  2  0
 36 37  1  0
 37 41  1  0
 38 37  2  0
 39 38  1  0
 40 39  1  0
 42 43  1  0
 43 46  1  0
 43 45  1  0
 44 42  2  0
 47 48  1  0
 47 22  1  0
 49 47  1  0
 51 52  1  0
 51 50  1  0
 53 52  1  0
 54 65  2  0
 55 53  1  0
 55 60  1  0
 56 64  1  0
 56 66  1  0
 57 63  1  0
 57 59  1  0
 58 64  1  0
 59 60  2  0
 59 58  1  0
 61 55  2  0
 62 61  1  0
 62 57  2  0
 63 56  1  0
 64 54  1  0
 66 68  2  0
 67 66  1  0
 69 67  1  0
 70 79  2  0
 70 75  1  0
 71 67  1  0
 71 75  1  0
 72 71  1  0
 73 74  1  0
 73 72  1  0
 74 70  1  0
 75 76  2  0
 76 77  1  0
 78 77  2  0
 79 78  1  0
 80 54  1  0
 80 81  1  0
 80 90  1  0
 81 84  1  0
 82 86  1  0
 82 81  1  0
 83 82  2  0
 86 85  1  0
 88 86  1  0
 88 89  1  0
 88 87  1  0
 90 93  1  1
 90 91  1  0
 92 90  1  0
M  ISO  4  13 100  14 100  52 101  53 101
M  END
>  <TORSDO>  (68) 
F 21

>  <SCORE>  (68) 
-12.039

>  <name>  (68) 
68

>  <ligand_id>  (68) 
68

>  <original_smiles>  (68) 
[H]c1c([H])c([H])c2c(c1[H])C([H])([H])C([H])([H])C([H])([H])C2([H])N([H])C(=O)C1([H])N(C(=O)C([H])(N([H])C(=O)C([H])(N([H])C([H])([H])[H])C([H])([H])[H])C(C([H])([H])[H])(C([H])([H])[H])C([H])([H])[H])C([H])([H])c2c([H])c(OC([H])([H])C([H])([H])C([H])([H])c3c(C([H])([H])[H])nc(C([H])(C([H])([H])[H])C(C(=O)N4C([H])([H])C([H])([H])C([H])([H])C([H])(n5nc(-c6c([H])c([H])c(Oc7c([H])c([H])c(F)c([H])c7F)c([H])c6[H])c(C(=O)N([H])[H])c5N([H])[H])C4([H])[H])(C([H])([H])[H])C([H])([H])[H])c([H])c3C([H])([H])[H])c([H])c([H])c2C1([H])[H]

>  <smiles>  (68) 
[H]c1c([H])c([H])c2c(c1[H])C([H])([H])C([H])([H])C([H])([H])C2([H])N([H])C(=O)C1([H])N(C(=O)C([H])(N([H])C(=O)C([H])(N([H])C([H])([H])[H])C([H])([H])[H])C(C([H])([H])[H])(C([H])([H])[H])C([H])([H])[H])C([H])([H])c2c([H])c(OC([H])([H])C([H])([H])C([H])([H])c3c(C([H])([H])[H])nc(C([H])(C([H])([H])[H])C(C(=O)N4C([H])([H])C([H])([H])C([H])([H])C([H])(n5nc(-c6c([H])c([H])c(Oc7c([H])c([H])c(F)c([H])c7F)c([H])c6[H])c(C(=O)N([H])[H])c5N([H])[H])C4([H])[H])(C([H])([H])[H])C([H])([H])[H])c([H])c3C([H])([H])[H])c([H])c([H])c2C1([H])[H]

$$$$
69:0:0
     RDKit          3D

 92100  0  0  1  0  0  0  0  0999 V2000
  -29.4870  -19.9120   19.9080 C   0  0  0  0  0  3  0  0  0  0  0  0
  -30.4130  -21.2840   21.6360 C   0  0  0  0  0  3  0  0  0  0  0  0
  -29.6740  -21.2440   20.4340 C   0  0  0  0  0  0  0  0  0  0  0  0
  -29.9920  -18.7470   20.6010 C   0  0  0  0  0  0  0  0  0  0  0  0
  -30.8810  -20.1630   22.2560 N   0  0  0  0  0  0  0  0  0  0  0  0
  -30.6750  -18.9290   21.7580 N   0  0  0  0  0  0  0  0  0  0  0  0
  -29.0070  -17.1280   18.8300 C   0  0  0  0  0  1  0  0  0  0  0  0
  -30.0050  -17.2760   19.9960 C   0  0  0  0  0  3  0  0  0  0  0  0
  -30.6770  -14.9250   20.8240 C   0  0  0  0  0  0  0  0  0  0  0  0
  -30.6220  -12.5640   20.0410 C   0  0  0  0  0  2  0  0  0  0  0  0
  -29.8120  -12.4880   18.7280 C   0  0  0  0  0  2  0  0  0  0  0  0
  -28.3050  -12.3350   19.0160 C   0  0  0  0  0  2  0  0  0  0  0  0
  -27.7940  -13.3160   20.1070 C   0  0  0  0  0  3  0  0  0  0  0  0
  -28.7370  -13.3610   21.3310 C   0  0  0  0  0  2  0  0  0  0  0  0
  -30.0840  -13.6850   20.8470 N   0  0  0  0  0  0  0  0  0  0  0  0
  -31.8680  -15.0410   20.5300 O   0  0  0  0  0  0  0  0  0  0  0  0
  -29.8610  -16.0360   20.8620 N   0  0  0  0  0  0  0  0  0  0  0  0
  -28.9310  -15.8780   21.2160 H   0  0  0  0  0  0  0  0  0  0  0  0
  -25.3530  -13.9080   20.6360 C   0  0  0  0  0  0  0  0  0  0  0  0
  -24.2640  -13.1350   20.9400 C   0  0  0  0  0  0  0  0  0  0  0  0
  -24.7350  -11.7870   20.9750 C   0  0  0  0  0  0  0  0  0  0  0  0
  -26.4140  -13.0320   20.4940 N   0  0  0  0  0  0  0  0  0  0  0  0
  -26.0440  -11.7510   20.7620 N   0  0  0  0  0  0  0  0  0  0  0  0
  -24.0000  -10.5240   21.1400 C   0  0  0  0  0  0  0  0  0  0  0  0
  -24.3720   -9.5800   22.1230 C   0  0  0  0  0  3  0  0  0  0  0  0
  -23.6460   -8.3800   22.2740 C   0  0  0  0  0  3  0  0  0  0  0  0
  -22.5320   -8.1150   21.4420 C   0  0  0  0  0  0  0  0  0  0  0  0
  -22.1780   -9.0500   20.4520 C   0  0  0  0  0  3  0  0  0  0  0  0
  -22.9060  -10.2430   20.3000 C   0  0  0  0  0  3  0  0  0  0  0  0
  -21.7800   -6.9670   21.4990 O   0  0  0  0  0  0  0  0  0  0  0  0
  -21.6800   -6.2270   22.6510 C   0  0  0  0  0  0  0  0  0  0  0  0
  -21.1550   -6.7730   23.8430 C   0  0  0  0  0  3  0  0  0  0  0  0
  -21.0050   -5.9600   24.9830 C   0  0  0  0  0  3  0  0  0  0  0  0
  -21.3700   -4.6000   24.9330 C   0  0  0  0  0  0  0  0  0  0  0  0
  -21.8840   -4.0530   23.7430 C   0  0  0  0  0  3  0  0  0  0  0  0
  -22.0380   -4.8640   22.6070 C   0  0  0  0  0  0  0  0  0  0  0  0
  -22.5170   -4.3290   21.4560 F   0  0  0  0  0  0  0  0  0  0  0  0
  -21.2180   -3.8150   26.0240 F   0  0  0  0  0  0  0  0  0  0  0  0
  -22.8460  -13.6070   21.0880 C   0  0  0  0  0  0  0  0  0  0  0  0
  -22.0500  -12.9270   21.9030 N   0  0  0  0  0  0  0  0  0  0  0  0
  -22.4450  -14.6170   20.5080 O   0  0  0  0  0  0  0  0  0  0  0  0
  -22.3860  -12.1150   22.4020 H   0  0  0  0  0  0  0  0  0  0  0  0
  -21.0920  -13.2210   22.0280 H   0  0  0  0  0  0  0  0  0  0  0  0
  -25.5240  -15.2780   20.4410 N   0  0  0  0  0  0  0  0  0  0  0  0
  -24.7510  -15.9310   20.5000 H   0  0  0  0  0  0  0  0  0  0  0  0
  -26.3800  -15.7020   20.1020 H   0  0  0  0  0  0  0  0  0  0  0  0
  -29.0470  -22.5460   19.7740 C   0  0  0  0  0  3  0  0  0  0  0  0
  -26.9280  -21.2190   18.8530 C   0  0  0  0  0  1  0  0  0  0  0  0
  -27.4950  -22.3970   19.6700 C   0  0  0  0  0  2  0  0  0  0  0  0
  -29.4120  -24.0160   20.3620 C   0  0  0  0  0  3  0  0  0  0  0  0
  -28.6770  -25.2910   19.7110 C   0  0  0  0  0  3  0  0  0  0  0  0
  -28.7910  -26.6930   20.2170 O   0  0  0  0  0  0  0  0  0  0  0  0
  -24.6510  -31.7830   23.2840 C   0  0  0  0  0  0  0  0  0  0  0  0
  -27.6490  -27.5210   20.1310 C   0  0  0  0  0  0  0  0  0  0  0  0
  -23.6040  -30.4110   21.5200 C   0  0  0  0  0  3  0  0  0  0  0  0
  -25.2030  -29.0220   20.0870 C   0  0  0  0  0  0  0  0  0  0  0  0
  -26.1310  -30.8690   21.4780 C   0  0  0  0  0  2  0  0  0  0  0  0
  -26.3180  -29.5300   20.7710 C   0  0  0  0  0  0  0  0  0  0  0  0
  -27.5410  -28.7900   20.7890 C   0  0  0  0  0  3  0  0  0  0  0  0
  -26.5130  -27.0960   19.3980 C   0  0  0  0  0  3  0  0  0  0  0  0
  -25.3040  -27.8100   19.3930 C   0  0  0  0  0  3  0  0  0  0  0  0
  -23.9190  -29.8250   20.1180 C   0  0  0  0  0  2  0  0  0  0  0  0
  -24.8100  -31.0400   22.1480 N   0  0  0  0  0  0  0  0  0  0  0  0
  -23.5300  -31.9700   23.7820 O   0  0  0  0  0  0  0  0  0  0  0  0
  -22.9590  -29.3080   22.3950 C   0  0  0  0  0  0  0  0  0  0  0  0
  -21.6430  -29.0830   22.2240 N   0  0  0  0  0  0  0  0  0  0  0  0
  -23.6410  -28.6640   23.1980 O   0  0  0  0  0  0  0  0  0  0  0  0
  -21.1480  -29.6570   21.5540 H   0  0  0  0  0  0  0  0  0  0  0  0
  -18.2980  -27.7620   22.6030 C   0  0  0  0  0  0  0  0  0  0  0  0
  -20.8480  -28.0680   22.9160 C   0  0  0  0  0  3  0  0  0  0  0  0
  -20.9960  -26.6860   22.2360 C   0  0  0  0  0  2  0  0  0  0  0  0
  -19.9090  -26.4130   21.1910 C   0  0  0  0  0  2  0  0  0  0  0  0
  -18.5180  -26.4720   21.8300 C   0  0  0  0  0  2  0  0  0  0  0  0
  -19.3920  -28.5180   23.1010 C   0  0  0  0  0  0  0  0  0  0  0  0
  -19.1330  -29.7280   23.7820 C   0  0  0  0  0  3  0  0  0  0  0  0
  -17.8140  -30.1780   23.9770 C   0  0  0  0  0  3  0  0  0  0  0  0
  -16.7340  -29.4160   23.4980 C   0  0  0  0  0  3  0  0  0  0  0  0
  -16.9780  -28.2110   22.8140 C   0  0  0  0  0  3  0  0  0  0  0  0
  -25.8660  -32.4560   23.9920 C   0  0  0  0  0  3  0  0  0  0  0  0
  -25.5010  -33.8520   24.2710 N   0  0  0  0  0  0  0  0  0  0  0  0
  -25.8540  -34.8960   23.5100 C   0  0  0  0  0  0  0  0  0  0  0  0
  -26.5900  -34.7880   22.5250 O   0  0  0  0  0  0  0  0  0  0  0  0
  -24.8580  -34.0080   25.0340 H   0  0  0  0  0  0  0  0  0  0  0  0
  -24.0960  -36.6310   23.0260 C   0  0  0  0  0  1  0  0  0  0  0  0
  -25.3060  -36.2790   23.9070 C   0  0  0  0  0  3  0  0  0  0  0  0
  -27.3630  -37.2550   24.8310 C   0  0  0  0  0  1  0  0  0  0  0  0
  -26.3110  -37.3600   23.8240 N   0  0  0  0  0  0  0  0  0  0  0  0
  -25.8640  -38.2670   23.9240 H   0  0  0  0  0  0  0  0  0  0  0  0
  -26.2970  -31.7190   25.3200 C   0  0  1  0  0  0  0  0  0  0  0  0
  -25.1280  -31.4770   26.3020 C   0  0  0  0  0  1  0  0  0  0  0  0
  -26.9390  -30.3460   25.0050 C   0  0  0  0  0  1  0  0  0  0  0  0
  -27.3710  -32.5510   26.0590 C   0  0  0  0  0  1  0  0  0  0  0  0
  1  3  2  0
  1  4  1  0
  2  5  2  0
  3  2  1  0
  4  6  2  0
  6  5  1  0
  8  7  1  0
  8  4  1  0
  8 17  1  0
  9 15  1  0
  9 17  1  0
 10 15  1  0
 11 12  1  0
 11 10  1  0
 13 12  1  0
 13 22  1  0
 13 14  1  0
 15 14  1  0
 16  9  2  0
 17 18  1  0
 19 20  2  0
 20 21  1  0
 20 39  1  0
 21 24  1  0
 22 19  1  0
 22 23  1  0
 23 21  2  0
 24 25  1  0
 25 26  2  0
 27 30  1  0
 27 26  1  0
 28 27  2  0
 29 28  1  0
 29 24  2  0
 30 31  1  0
 31 32  1  0
 32 33  2  0
 34 33  1  0
 34 38  1  0
 35 34  2  0
 36 31  2  0
 36 35  1  0
 37 36  1  0
 39 40  1  0
 40 43  1  0
 40 42  1  0
 41 39  2  0
 44 45  1  0
 44 19  1  0
 46 44  1  0
 47 49  1  0
 47 50  1  0
 47  3  1  0
 48 49  1  0
 51 52  1  0
 51 50  2  0
 53 64  2  0
 54 52  1  0
 54 59  1  0
 55 63  1  0
 55 65  1  0
 56 62  1  0
 56 58  1  0
 57 63  1  0
 58 59  2  0
 58 57  1  0
 60 54  2  0
 61 60  1  0
 61 56  2  0
 62 55  1  0
 63 53  1  0
 65 67  2  0
 66 65  1  0
 68 66  1  0
 69 78  2  0
 69 74  1  0
 70 66  1  0
 70 74  1  0
 71 70  1  0
 72 73  1  0
 72 71  1  0
 73 69  1  0
 74 75  2  0
 75 76  1  0
 77 76  2  0
 78 77  1  0
 79 53  1  0
 79 80  1  0
 79 89  1  0
 80 83  1  0
 81 85  1  0
 81 80  1  0
 82 81  2  0
 85 84  1  0
 87 85  1  0
 87 88  1  0
 87 86  1  0
 89 92  1  1
 89 90  1  0
 91 89  1  0
M  ISO  4   9 100  17 100  51 101  52 101
M  END
>  <TORSDO>  (69) 
F 21

>  <SCORE>  (69) 
-13.229

>  <name>  (69) 
69

>  <ligand_id>  (69) 
69

>  <original_smiles>  (69) 
[H]c1nnc(C([H])(N([H])C(=O)N2C([H])([H])C([H])([H])C([H])([H])C([H])(n3nc(-c4c([H])c([H])c(Oc5c([H])c([H])c(F)c([H])c5F)c([H])c4[H])c(C(=O)N([H])[H])c3N([H])[H])C2([H])[H])C([H])([H])[H])c([H])c1C([H])(C([H])([H])C([H])([H])[H])C([H])([H])C([H])([H])Oc1c([H])c([H])c2c(c1[H])C([H])([H])N(C(=O)C([H])(N([H])C(=O)C([H])(N([H])C([H])([H])[H])C([H])([H])[H])C(C([H])([H])[H])(C([H])([H])[H])C([H])([H])[H])C([H])(C(=O)N([H])C1([H])c3c([H])c([H])c([H])c([H])c3C([H])([H])C([H])([H])C1([H])[H])C2([H])[H]

>  <smiles>  (69) 
[H]c1nnc(C([H])(N([H])C(=O)N2C([H])([H])C([H])([H])C([H])([H])C([H])(n3nc(-c4c([H])c([H])c(Oc5c([H])c([H])c(F)c([H])c5F)c([H])c4[H])c(C(=O)N([H])[H])c3N([H])[H])C2([H])[H])C([H])([H])[H])c([H])c1C([H])(C([H])([H])C([H])([H])[H])C([H])([H])C([H])([H])Oc1c([H])c([H])c2c(c1[H])C([H])([H])N(C(=O)C([H])(N([H])C(=O)C([H])(N([H])C([H])([H])[H])C([H])([H])[H])C(C([H])([H])[H])(C([H])([H])[H])C([H])([H])[H])C([H])(C(=O)N([H])C1([H])c3c([H])c([H])c([H])c([H])c3C([H])([H])C([H])([H])C1([H])[H])C2([H])[H]

$$$$
70:0:0
     RDKit          3D

 95103  0  0  1  0  0  0  0  0999 V2000
  -29.8610  -21.9230   20.5250 C   0  0  0  0  0  3  0  0  0  0  0  0
  -29.7360  -23.0850   19.7320 C   0  0  0  0  0  0  0  0  0  0  0  0
  -30.2230  -20.7100   19.8860 C   0  0  0  0  0  0  0  0  0  0  0  0
  -30.2590  -21.8440   17.8800 C   0  0  0  0  0  0  0  0  0  0  0  0
  -30.4960  -21.8020   16.3850 C   0  0  0  0  0  1  0  0  0  0  0  0
  -29.9320  -23.0190   18.4030 N   0  0  0  0  0  0  0  0  0  0  0  0
  -30.4300  -20.7150   18.5530 N   0  0  0  0  0  0  0  0  0  0  0  0
  -32.2220  -19.4730   20.7450 C   0  0  0  0  0  1  0  0  0  0  0  0
  -30.6810  -19.4450   20.6840 C   0  0  1  0  0  0  0  0  0  0  0  0
  -30.2890  -19.6430   21.9470 F   0  0  0  0  0  0  0  0  0  0  0  0
  -28.5410  -18.0750   20.2580 C   0  0  0  0  0  1  0  0  0  0  0  0
  -30.5540  -17.5560   18.8750 C   0  0  0  0  0  1  0  0  0  0  0  0
  -30.0840  -18.0120   20.2800 C   0  0  1  0  0  0  0  0  0  0  0  0
  -30.5190  -16.8940   21.3070 C   0  0  0  0  0  2  0  0  0  0  0  0
  -30.6940  -14.4920   20.5150 C   0  0  0  0  0  0  0  0  0  0  0  0
  -30.3880  -12.3280   19.3650 C   0  0  0  0  0  2  0  0  0  0  0  0
  -29.4710  -12.5310   18.1430 C   0  0  0  0  0  2  0  0  0  0  0  0
  -27.9900  -12.4000   18.5480 C   0  0  0  0  0  2  0  0  0  0  0  0
  -27.6350  -13.2520   19.7970 C   0  0  0  0  0  3  0  0  0  0  0  0
  -28.6690  -13.0430   20.9250 C   0  0  0  0  0  2  0  0  0  0  0  0
  -30.0040  -13.3270   20.3750 N   0  0  0  0  0  0  0  0  0  0  0  0
  -31.8320  -14.6500   20.0670 O   0  0  0  0  0  0  0  0  0  0  0  0
  -30.0120  -15.5220   21.0560 N   0  0  0  0  0  0  0  0  0  0  0  0
  -29.0720  -15.3190   21.3620 H   0  0  0  0  0  0  0  0  0  0  0  0
  -25.2290  -13.8800   20.4560 C   0  0  0  0  0  0  0  0  0  0  0  0
  -24.1520  -13.1170   20.8240 C   0  0  0  0  0  0  0  0  0  0  0  0
  -24.6080  -11.7650   20.8220 C   0  0  0  0  0  0  0  0  0  0  0  0
  -26.2730  -12.9890   20.2570 N   0  0  0  0  0  0  0  0  0  0  0  0
  -25.9020  -11.7140   20.5360 N   0  0  0  0  0  0  0  0  0  0  0  0
  -23.8730  -10.5090   21.0210 C   0  0  0  0  0  0  0  0  0  0  0  0
  -24.2970   -9.5450   21.9610 C   0  0  0  0  0  3  0  0  0  0  0  0
  -23.5640   -8.3530   22.1460 C   0  0  0  0  0  3  0  0  0  0  0  0
  -22.3920   -8.1170   21.3890 C   0  0  0  0  0  0  0  0  0  0  0  0
  -21.9860   -9.0690   20.4380 C   0  0  0  0  0  3  0  0  0  0  0  0
  -22.7200  -10.2530   20.2520 C   0  0  0  0  0  3  0  0  0  0  0  0
  -21.6290   -6.9760   21.4820 O   0  0  0  0  0  0  0  0  0  0  0  0
  -21.5820   -6.2340   22.6340 C   0  0  0  0  0  0  0  0  0  0  0  0
  -21.1800   -6.7940   23.8670 C   0  0  0  0  0  3  0  0  0  0  0  0
  -21.0820   -5.9780   25.0110 C   0  0  0  0  0  3  0  0  0  0  0  0
  -21.3730   -4.6030   24.9250 C   0  0  0  0  0  0  0  0  0  0  0  0
  -21.7670   -4.0430   23.6970 C   0  0  0  0  0  3  0  0  0  0  0  0
  -21.8670   -4.8570   22.5550 C   0  0  0  0  0  0  0  0  0  0  0  0
  -22.2280   -4.3080   21.3690 F   0  0  0  0  0  0  0  0  0  0  0  0
  -21.2690   -3.8150   26.0210 F   0  0  0  0  0  0  0  0  0  0  0  0
  -22.7530  -13.6050   21.0660 C   0  0  0  0  0  0  0  0  0  0  0  0
  -22.0060  -12.9250   21.9300 N   0  0  0  0  0  0  0  0  0  0  0  0
  -22.3290  -14.6250   20.5250 O   0  0  0  0  0  0  0  0  0  0  0  0
  -22.3600  -12.1010   22.3920 H   0  0  0  0  0  0  0  0  0  0  0  0
  -21.0660  -13.2360   22.1320 H   0  0  0  0  0  0  0  0  0  0  0  0
  -25.4050  -15.2470   20.2610 N   0  0  0  0  0  0  0  0  0  0  0  0
  -24.6380  -15.9060   20.3470 H   0  0  0  0  0  0  0  0  0  0  0  0
  -26.2630  -15.6760   19.9400 H   0  0  0  0  0  0  0  0  0  0  0  0
  -29.5720  -24.4980   20.3130 C   0  0  0  0  0  2  0  0  0  0  0  0
  -28.3110  -25.2740   19.8540 C   0  0  0  0  0  2  0  0  0  0  0  0
  -28.3670  -26.6770   20.2050 O   0  0  0  0  0  0  0  0  0  0  0  0
  -24.5840  -31.8900   23.2550 C   0  0  0  0  0  0  0  0  0  0  0  0
  -27.1950  -27.4150   20.1680 C   0  0  0  0  0  0  0  0  0  0  0  0
  -23.3660  -30.4920   21.6200 C   0  0  0  0  0  3  0  0  0  0  0  0
  -24.8070  -28.9500   20.1860 C   0  0  0  0  0  0  0  0  0  0  0  0
  -25.8940  -30.8370   21.4120 C   0  0  0  0  0  2  0  0  0  0  0  0
  -25.9720  -29.4640   20.7690 C   0  0  0  0  0  0  0  0  0  0  0  0
  -27.1660  -28.7050   20.7560 C   0  0  0  0  0  3  0  0  0  0  0  0
  -26.0080  -26.9260   19.5710 C   0  0  0  0  0  3  0  0  0  0  0  0
  -24.8210  -27.6820   19.5830 C   0  0  0  0  0  3  0  0  0  0  0  0
  -23.5670  -29.8130   20.2390 C   0  0  0  0  0  2  0  0  0  0  0  0
  -24.6340  -31.0880   22.1540 N   0  0  0  0  0  0  0  0  0  0  0  0
  -23.5060  -32.1670   23.7990 O   0  0  0  0  0  0  0  0  0  0  0  0
  -22.7140  -29.4750   22.5820 C   0  0  0  0  0  0  0  0  0  0  0  0
  -21.3890  -29.2950   22.4590 N   0  0  0  0  0  0  0  0  0  0  0  0
  -23.3980  -28.8480   23.3960 O   0  0  0  0  0  0  0  0  0  0  0  0
  -20.8990  -29.8520   21.7730 H   0  0  0  0  0  0  0  0  0  0  0  0
  -18.0130  -28.1070   22.9600 C   0  0  0  0  0  0  0  0  0  0  0  0
  -20.5720  -28.3620   23.2320 C   0  0  0  0  0  3  0  0  0  0  0  0
  -20.6700  -26.9280   22.6590 C   0  0  0  0  0  2  0  0  0  0  0  0
  -19.5670  -26.6050   21.6460 C   0  0  0  0  0  2  0  0  0  0  0  0
  -18.1870  -26.7550   22.2900 C   0  0  0  0  0  2  0  0  0  0  0  0
  -19.1330  -28.8690   23.3880 C   0  0  0  0  0  0  0  0  0  0  0  0
  -18.9150  -30.1350   23.9720 C   0  0  0  0  0  3  0  0  0  0  0  0
  -17.6110  -30.6390   24.1340 C   0  0  0  0  0  3  0  0  0  0  0  0
  -16.5060  -29.8740   23.7240 C   0  0  0  0  0  3  0  0  0  0  0  0
  -16.7070  -28.6110   23.1410 C   0  0  0  0  0  3  0  0  0  0  0  0
  -25.8750  -32.5160   23.8690 C   0  0  0  0  0  3  0  0  0  0  0  0
  -25.5740  -33.9150   24.1980 N   0  0  0  0  0  0  0  0  0  0  0  0
  -25.9060  -34.9650   23.4340 C   0  0  0  0  0  0  0  0  0  0  0  0
  -26.5680  -34.8560   22.3990 O   0  0  0  0  0  0  0  0  0  0  0  0
  -24.9850  -34.0740   25.0020 H   0  0  0  0  0  0  0  0  0  0  0  0
  -24.1800  -36.7600   23.0880 C   0  0  0  0  0  1  0  0  0  0  0  0
  -25.4260  -36.3560   23.8910 C   0  0  0  0  0  3  0  0  0  0  0  0
  -27.5720  -37.2350   24.6980 C   0  0  0  0  0  1  0  0  0  0  0  0
  -26.4600  -37.4050   23.7660 N   0  0  0  0  0  0  0  0  0  0  0  0
  -26.0590  -38.3270   23.9160 H   0  0  0  0  0  0  0  0  0  0  0  0
  -26.3960  -31.7430   25.1430 C   0  0  1  0  0  0  0  0  0  0  0  0
  -25.3090  -31.5110   26.2180 C   0  0  0  0  0  1  0  0  0  0  0  0
  -26.9700  -30.3630   24.7440 C   0  0  0  0  0  1  0  0  0  0  0  0
  -27.5550  -32.5320   25.7960 C   0  0  0  0  0  1  0  0  0  0  0  0
  2 53  1  0
  2  1  2  0
  3  1  1  0
  3  9  1  0
  4  6  2  0
  4  7  1  0
  5  4  1  0
  6  2  1  0
  7  3  2  0
  9  8  1  1
  9 10  1  0
 13 11  1  6
 12 13  1  0
 13  9  1  0
 13 14  1  0
 15 23  1  0
 16 21  1  0
 17 18  1  0
 17 16  1  0
 19 18  1  0
 19 28  1  0
 19 20  1  0
 21 15  1  0
 21 20  1  0
 22 15  2  0
 23 14  1  0
 23 24  1  0
 25 26  2  0
 26 45  1  0
 27 26  1  0
 27 30  1  0
 28 25  1  0
 28 29  1  0
 29 27  2  0
 30 31  1  0
 31 32  2  0
 33 36  1  0
 33 32  1  0
 34 33  2  0
 35 34  1  0
 35 30  2  0
 36 37  1  0
 37 38  1  0
 38 39  2  0
 40 39  1  0
 40 44  1  0
 41 40  2  0
 42 37  2  0
 42 41  1  0
 43 42  1  0
 45 46  1  0
 46 49  1  0
 46 48  1  0
 47 45  2  0
 50 51  1  0
 50 25  1  0
 52 50  1  0
 54 55  1  0
 54 53  1  0
 56 67  2  0
 57 55  1  0
 57 62  1  0
 58 66  1  0
 58 68  1  0
 59 65  1  0
 59 61  1  0
 60 66  1  0
 61 60  1  0
 62 61  2  0
 63 64  1  0
 63 57  2  0
 64 59  2  0
 65 58  1  0
 66 56  1  0
 68 70  2  0
 69 68  1  0
 71 69  1  0
 72 81  2  0
 72 77  1  0
 73 69  1  0
 73 77  1  0
 74 73  1  0
 75 76  1  0
 75 74  1  0
 76 72  1  0
 77 78  2  0
 78 79  1  0
 80 79  2  0
 81 80  1  0
 82 56  1  0
 82 83  1  0
 82 92  1  0
 83 86  1  0
 84 88  1  0
 84 83  1  0
 85 84  2  0
 88 87  1  0
 90 88  1  0
 90 91  1  0
 90 89  1  0
 92 95  1  1
 92 93  1  0
 94 92  1  0
M  ISO  4  15 100  23 100  54 101  55 101
M  END
>  <TORSDO>  (70) 
F 21

>  <SCORE>  (70) 
-13.781

>  <name>  (70) 
70

>  <ligand_id>  (70) 
70

>  <original_smiles>  (70) 
[H]c1c(C([H])([H])C([H])([H])Oc2c([H])c([H])c3c(c2[H])C([H])([H])N(C(=O)C([H])(N([H])C(=O)C([H])(N([H])C([H])([H])[H])C([H])([H])[H])C(C([H])([H])[H])(C([H])([H])[H])C([H])([H])[H])C([H])(C(=O)N([H])C2([H])c4c([H])c([H])c([H])c([H])c4C([H])([H])C([H])([H])C2([H])[H])C3([H])[H])nc(C([H])([H])[H])nc1C(F)(C([H])([H])[H])C(C([H])([H])[H])(C([H])([H])[H])C([H])([H])N([H])C(=O)N1C([H])([H])C([H])([H])C([H])([H])C([H])(n2nc(-c3c([H])c([H])c(Oc4c([H])c([H])c(F)c([H])c4F)c([H])c3[H])c(C(=O)N([H])[H])c2N([H])[H])C1([H])[H]

>  <smiles>  (70) 
[H]c1c(C([H])([H])C([H])([H])Oc2c([H])c([H])c3c(c2[H])C([H])([H])N(C(=O)C([H])(N([H])C(=O)C([H])(N([H])C([H])([H])[H])C([H])([H])[H])C(C([H])([H])[H])(C([H])([H])[H])C([H])([H])[H])C([H])(C(=O)N([H])C2([H])c4c([H])c([H])c([H])c([H])c4C([H])([H])C([H])([H])C2([H])[H])C3([H])[H])nc(C([H])([H])[H])nc1C(F)(C([H])([H])[H])C(C([H])([H])[H])(C([H])([H])[H])C([H])([H])N([H])C(=O)N1C([H])([H])C([H])([H])C([H])([H])C([H])(n2nc(-c3c([H])c([H])c(Oc4c([H])c([H])c(F)c([H])c4F)c([H])c3[H])c(C(=O)N([H])[H])c2N([H])[H])C1([H])[H]

$$$$
71:0:0
     RDKit          3D

 94102  0  0  1  0  0  0  0  0999 V2000
  -29.0940  -20.7900   18.4460 C   0  0  0  0  0  3  0  0  0  0  0  0
  -27.6740  -20.0220   16.9900 C   0  0  0  0  0  3  0  0  0  0  0  0
  -29.6120  -19.6600   17.8430 C   0  0  0  0  0  0  0  0  0  0  0  0
  -28.7150  -19.2100   16.8720 N   0  0  0  0  0  0  0  0  0  0  0  0
  -27.8140  -20.9700   17.9270 N   0  0  0  0  0  0  0  0  0  0  0  0
  -31.8180  -18.8490   16.9750 C   0  0  0  0  0  1  0  0  0  0  0  0
  -31.6240  -19.5040   19.3580 C   0  0  0  0  0  1  0  0  0  0  0  0
  -30.8600  -18.8660   18.1770 C   0  0  1  0  0  0  0  0  0  0  0  0
  -30.4470  -17.4150   18.5500 C   0  0  0  0  0  2  0  0  0  0  0  0
  -29.4900  -17.3100   19.7670 C   0  0  0  0  0  2  0  0  0  0  0  0
  -30.1550  -16.7580   21.0460 C   0  0  0  0  0  2  0  0  0  0  0  0
  -30.7010  -14.3730   20.5720 C   0  0  0  0  0  0  0  0  0  0  0  0
  -30.3970  -12.2710   19.3400 C   0  0  0  0  0  2  0  0  0  0  0  0
  -29.4580  -12.5470   18.1470 C   0  0  0  0  0  2  0  0  0  0  0  0
  -27.9750  -12.4390   18.5540 C   0  0  0  0  0  2  0  0  0  0  0  0
  -27.6570  -13.2320   19.8520 C   0  0  0  0  0  3  0  0  0  0  0  0
  -28.6960  -12.9030   20.9510 C   0  0  0  0  0  2  0  0  0  0  0  0
  -30.0340  -13.2030   20.4130 N   0  0  0  0  0  0  0  0  0  0  0  0
  -31.8040  -14.6100   20.0740 O   0  0  0  0  0  0  0  0  0  0  0  0
  -29.9710  -15.3190   21.1710 N   0  0  0  0  0  0  0  0  0  0  0  0
  -29.1090  -15.0060   21.5920 H   0  0  0  0  0  0  0  0  0  0  0  0
  -25.2530  -13.8880   20.5130 C   0  0  0  0  0  0  0  0  0  0  0  0
  -24.1710  -13.1320   20.8720 C   0  0  0  0  0  0  0  0  0  0  0  0
  -24.6120  -11.7750   20.8580 C   0  0  0  0  0  0  0  0  0  0  0  0
  -26.2900  -12.9890   20.3070 N   0  0  0  0  0  0  0  0  0  0  0  0
  -25.9050  -11.7150   20.5710 N   0  0  0  0  0  0  0  0  0  0  0  0
  -23.8680  -10.5230   21.0430 C   0  0  0  0  0  0  0  0  0  0  0  0
  -24.2850   -9.5540   21.9820 C   0  0  0  0  0  3  0  0  0  0  0  0
  -23.5460   -8.3650   22.1620 C   0  0  0  0  0  3  0  0  0  0  0  0
  -22.3750   -8.1380   21.4010 C   0  0  0  0  0  0  0  0  0  0  0  0
  -21.9770   -9.0940   20.4490 C   0  0  0  0  0  3  0  0  0  0  0  0
  -22.7160  -10.2740   20.2690 C   0  0  0  0  0  3  0  0  0  0  0  0
  -21.6100   -7.0010   21.4850 O   0  0  0  0  0  0  0  0  0  0  0  0
  -21.5510   -6.2570   22.6360 C   0  0  0  0  0  0  0  0  0  0  0  0
  -21.1350   -6.8160   23.8630 C   0  0  0  0  0  3  0  0  0  0  0  0
  -21.0230   -6.0000   25.0080 C   0  0  0  0  0  3  0  0  0  0  0  0
  -21.3130   -4.6250   24.9230 C   0  0  0  0  0  0  0  0  0  0  0  0
  -21.7190   -4.0650   23.6980 C   0  0  0  0  0  3  0  0  0  0  0  0
  -21.8340   -4.8790   22.5580 C   0  0  0  0  0  0  0  0  0  0  0  0
  -22.2040   -4.3300   21.3760 F   0  0  0  0  0  0  0  0  0  0  0  0
  -21.1960   -3.8380   26.0180 F   0  0  0  0  0  0  0  0  0  0  0  0
  -22.7750  -13.6280   21.1210 C   0  0  0  0  0  0  0  0  0  0  0  0
  -22.0280  -12.9450   21.9820 N   0  0  0  0  0  0  0  0  0  0  0  0
  -22.3540  -14.6510   20.5830 O   0  0  0  0  0  0  0  0  0  0  0  0
  -22.3790  -12.1160   22.4370 H   0  0  0  0  0  0  0  0  0  0  0  0
  -21.0890  -13.2570   22.1860 H   0  0  0  0  0  0  0  0  0  0  0  0
  -25.4400  -15.2570   20.3260 N   0  0  0  0  0  0  0  0  0  0  0  0
  -24.6880  -15.9300   20.4260 H   0  0  0  0  0  0  0  0  0  0  0  0
  -26.3030  -15.6790   20.0070 H   0  0  0  0  0  0  0  0  0  0  0  0
  -26.7760  -21.9110   18.3250 C   0  0  0  0  0  2  0  0  0  0  0  0
  -27.1880  -22.9490   19.3920 C   0  0  0  0  0  2  0  0  0  0  0  0
  -27.9210  -24.1900   18.8310 C   0  0  0  0  0  2  0  0  0  0  0  0
  -28.3470  -25.2100   19.9450 C   0  0  0  0  0  2  0  0  0  0  0  0
  -28.3530  -26.6520   20.1400 O   0  0  0  0  0  0  0  0  0  0  0  0
  -24.5630  -31.8530   23.2540 C   0  0  0  0  0  0  0  0  0  0  0  0
  -27.1720  -27.3840   20.1590 C   0  0  0  0  0  0  0  0  0  0  0  0
  -23.3500  -30.4560   21.6140 C   0  0  0  0  0  3  0  0  0  0  0  0
  -24.7900  -28.9130   20.1930 C   0  0  0  0  0  0  0  0  0  0  0  0
  -25.8810  -30.7930   21.4170 C   0  0  0  0  0  2  0  0  0  0  0  0
  -25.9560  -29.4240   20.7790 C   0  0  0  0  0  0  0  0  0  0  0  0
  -27.1520  -28.6670   20.7580 C   0  0  0  0  0  3  0  0  0  0  0  0
  -25.9790  -26.8940   19.5830 C   0  0  0  0  0  3  0  0  0  0  0  0
  -24.7940  -27.6450   19.6010 C   0  0  0  0  0  3  0  0  0  0  0  0
  -23.5540  -29.7800   20.2360 C   0  0  0  0  0  2  0  0  0  0  0  0
  -24.6170  -31.0470   22.1550 N   0  0  0  0  0  0  0  0  0  0  0  0
  -23.4820  -32.1330   23.7890 O   0  0  0  0  0  0  0  0  0  0  0  0
  -22.6910  -29.4360   22.5700 C   0  0  0  0  0  0  0  0  0  0  0  0
  -21.3670  -29.2620   22.4390 N   0  0  0  0  0  0  0  0  0  0  0  0
  -23.3690  -28.8050   23.3860 O   0  0  0  0  0  0  0  0  0  0  0  0
  -20.8830  -29.8170   21.7470 H   0  0  0  0  0  0  0  0  0  0  0  0
  -17.9830  -28.0920   22.9210 C   0  0  0  0  0  0  0  0  0  0  0  0
  -20.5420  -28.3270   23.2030 C   0  0  0  0  0  3  0  0  0  0  0  0
  -20.6360  -26.8960   22.6230 C   0  0  0  0  0  2  0  0  0  0  0  0
  -19.5340  -26.5830   21.6080 C   0  0  0  0  0  2  0  0  0  0  0  0
  -18.1510  -26.7390   22.2480 C   0  0  0  0  0  2  0  0  0  0  0  0
  -19.1070  -28.8440   23.3540 C   0  0  0  0  0  0  0  0  0  0  0  0
  -18.8970  -30.1120   23.9380 C   0  0  0  0  0  3  0  0  0  0  0  0
  -17.5950  -30.6240   24.1010 C   0  0  0  0  0  3  0  0  0  0  0  0
  -16.4880  -29.8660   23.6860 C   0  0  0  0  0  3  0  0  0  0  0  0
  -16.6810  -28.6020   23.1010 C   0  0  0  0  0  3  0  0  0  0  0  0
  -25.8500  -32.4770   23.8730 C   0  0  0  0  0  3  0  0  0  0  0  0
  -25.5520  -33.8770   24.1960 N   0  0  0  0  0  0  0  0  0  0  0  0
  -25.8930  -34.9230   23.4330 C   0  0  0  0  0  0  0  0  0  0  0  0
  -26.5640  -34.8130   22.4040 O   0  0  0  0  0  0  0  0  0  0  0  0
  -24.9640  -34.0420   25.0000 H   0  0  0  0  0  0  0  0  0  0  0  0
  -24.1760  -36.7240   23.0570 C   0  0  0  0  0  1  0  0  0  0  0  0
  -25.4060  -36.3150   23.8830 C   0  0  0  0  0  3  0  0  0  0  0  0
  -27.5360  -37.1840   24.7350 C   0  0  0  0  0  1  0  0  0  0  0  0
  -26.4450  -37.3610   23.7810 N   0  0  0  0  0  0  0  0  0  0  0  0
  -26.0430  -38.2840   23.9320 H   0  0  0  0  0  0  0  0  0  0  0  0
  -26.3620  -31.7080   25.1530 C   0  0  1  0  0  0  0  0  0  0  0  0
  -25.2680  -31.4780   26.2200 C   0  0  0  0  0  1  0  0  0  0  0  0
  -26.9390  -30.3280   24.7630 C   0  0  0  0  0  1  0  0  0  0  0  0
  -27.5150  -32.4980   25.8140 C   0  0  0  0  0  1  0  0  0  0  0  0
  2  5  1  0
  3  8  1  0
  3  1  2  0
  4  2  2  0
  4  3  1  0
  5 50  1  0
  5  1  1  0
  8  6  1  6
  8  9  1  0
  8  7  1  0
  9 10  1  0
 10 11  1  0
 11 20  1  0
 12 20  1  0
 13 18  1  0
 14 15  1  0
 14 13  1  0
 16 15  1  0
 16 25  1  0
 16 17  1  0
 18 12  1  0
 18 17  1  0
 19 12  2  0
 20 21  1  0
 22 23  2  0
 23 42  1  0
 24 23  1  0
 24 27  1  0
 25 22  1  0
 25 26  1  0
 26 24  2  0
 27 28  1  0
 28 29  2  0
 30 33  1  0
 30 29  1  0
 31 30  2  0
 32 31  1  0
 32 27  2  0
 33 34  1  0
 34 35  1  0
 35 36  2  0
 37 36  1  0
 37 41  1  0
 38 37  2  0
 39 34  2  0
 39 38  1  0
 40 39  1  0
 42 43  1  0
 43 46  1  0
 43 45  1  0
 44 42  2  0
 47 48  1  0
 47 22  1  0
 49 47  1  0
 50 51  1  0
 52 51  1  0
 52 53  1  0
 53 54  1  0
 54 56  1  0
 55 66  2  0
 56 61  1  0
 57 65  1  0
 57 67  1  0
 58 64  1  0
 58 60  1  0
 59 65  1  0
 60 59  1  0
 61 60  2  0
 62 63  1  0
 62 56  2  0
 63 58  2  0
 64 57  1  0
 65 55  1  0
 67 69  2  0
 68 67  1  0
 70 68  1  0
 71 80  2  0
 71 76  1  0
 72 68  1  0
 72 76  1  0
 73 72  1  0
 74 75  1  0
 74 73  1  0
 75 71  1  0
 76 77  2  0
 77 78  1  0
 79 78  2  0
 80 79  1  0
 81 55  1  0
 81 82  1  0
 81 91  1  0
 82 85  1  0
 83 87  1  0
 83 82  1  0
 84 83  2  0
 87 86  1  0
 89 87  1  0
 89 90  1  0
 89 88  1  0
 91 94  1  1
 91 92  1  0
 93 91  1  0
M  ISO  4  12 100  20 100  53 101  54 101
M  END
>  <TORSDO>  (71) 
F 24

>  <SCORE>  (71) 
-12.677

>  <name>  (71) 
71

>  <ligand_id>  (71) 
71

>  <original_smiles>  (71) 
[H]c1c([H])c([H])c2c(c1[H])C([H])([H])C([H])([H])C([H])([H])C2([H])N([H])C(=O)C1([H])N(C(=O)C([H])(N([H])C(=O)C([H])(N([H])C([H])([H])[H])C([H])([H])[H])C(C([H])([H])[H])(C([H])([H])[H])C([H])([H])[H])C([H])([H])c2c([H])c(OC([H])([H])C([H])([H])C([H])([H])C([H])([H])n3c([H])nc(C(C([H])([H])[H])(C([H])([H])[H])C([H])([H])C([H])([H])C([H])([H])N([H])C(=O)N4C([H])([H])C([H])([H])C([H])([H])C([H])(n5nc(-c6c([H])c([H])c(Oc7c([H])c([H])c(F)c([H])c7F)c([H])c6[H])c(C(=O)N([H])[H])c5N([H])[H])C4([H])[H])c3[H])c([H])c([H])c2C1([H])[H]

>  <smiles>  (71) 
[H]c1c([H])c([H])c2c(c1[H])C([H])([H])C([H])([H])C([H])([H])C2([H])N([H])C(=O)C1([H])N(C(=O)C([H])(N([H])C(=O)C([H])(N([H])C([H])([H])[H])C([H])([H])[H])C(C([H])([H])[H])(C([H])([H])[H])C([H])([H])[H])C([H])([H])c2c([H])c(OC([H])([H])C([H])([H])C([H])([H])C([H])([H])n3c([H])nc(C(C([H])([H])[H])(C([H])([H])[H])C([H])([H])C([H])([H])C([H])([H])N([H])C(=O)N4C([H])([H])C([H])([H])C([H])([H])C([H])(n5nc(-c6c([H])c([H])c(Oc7c([H])c([H])c(F)c([H])c7F)c([H])c6[H])c(C(=O)N([H])[H])c5N([H])[H])C4([H])[H])c3[H])c([H])c([H])c2C1([H])[H]

$$$$
72:0:0
     RDKit          3D

 87 95  0  0  1  0  0  0  0  0999 V2000
  -28.3180  -21.3430   20.1350 C   0  0  0  0  0  2  0  0  0  0  0  0
  -30.7370  -17.9070   19.8910 C   0  0  0  0  0  3  0  0  0  0  0  0
  -28.2650  -18.5760   20.6120 C   0  0  0  0  0  3  0  0  0  0  0  0
  -30.3280  -19.3190   19.8740 C   0  0  0  0  0  0  0  0  0  0  0  0
  -29.0150  -19.7770   20.2510 C   0  0  0  0  0  0  0  0  0  0  0  0
  -29.9200  -16.7600   20.2540 C   0  0  0  0  0  0  0  0  0  0  0  0
  -31.3260  -20.3580   19.4010 C   0  0  0  0  0  1  0  0  0  0  0  0
  -28.6590  -17.2130   20.6200 N   0  0  0  0  0  0  0  0  0  0  0  0
  -30.5230  -15.2060   20.2090 C   0  0  0  0  0  0  0  0  0  0  0  0
  -30.3950  -12.7890   19.3640 C   0  0  0  0  0  2  0  0  0  0  0  0
  -29.4750  -12.6430   18.1300 C   0  0  0  0  0  2  0  0  0  0  0  0
  -28.0250  -12.3970   18.5750 C   0  0  0  0  0  2  0  0  0  0  0  0
  -27.5890  -13.3580   19.7110 C   0  0  0  0  0  3  0  0  0  0  0  0
  -28.6430  -13.4990   20.8270 C   0  0  0  0  0  2  0  0  0  0  0  0
  -29.8920  -13.9400   20.1950 N   0  0  0  0  0  0  0  0  0  0  0  0
  -31.7370  -15.1260   19.9690 O   0  0  0  0  0  0  0  0  0  0  0  0
  -25.2290  -13.8990   20.5100 C   0  0  0  0  0  0  0  0  0  0  0  0
  -24.1740  -13.1120   20.8790 C   0  0  0  0  0  0  0  0  0  0  0  0
  -24.6460  -11.7640   20.8260 C   0  0  0  0  0  0  0  0  0  0  0  0
  -26.2710  -13.0310   20.2390 N   0  0  0  0  0  0  0  0  0  0  0  0
  -25.9340  -11.7400   20.4990 N   0  0  0  0  0  0  0  0  0  0  0  0
  -23.9270  -10.4950   21.0100 C   0  0  0  0  0  0  0  0  0  0  0  0
  -24.3530   -9.5320   21.9500 C   0  0  0  0  0  3  0  0  0  0  0  0
  -23.6320   -8.3310   22.1230 C   0  0  0  0  0  3  0  0  0  0  0  0
  -22.4690   -8.0840   21.3540 C   0  0  0  0  0  0  0  0  0  0  0  0
  -22.0620   -9.0370   20.4040 C   0  0  0  0  0  3  0  0  0  0  0  0
  -22.7840  -10.2290   20.2290 C   0  0  0  0  0  3  0  0  0  0  0  0
  -21.7180   -6.9360   21.4350 O   0  0  0  0  0  0  0  0  0  0  0  0
  -21.6280   -6.2170   22.6000 C   0  0  0  0  0  0  0  0  0  0  0  0
  -21.1270   -6.7860   23.7910 C   0  0  0  0  0  3  0  0  0  0  0  0
  -20.9850   -5.9920   24.9460 C   0  0  0  0  0  3  0  0  0  0  0  0
  -21.3340   -4.6280   24.9110 C   0  0  0  0  0  0  0  0  0  0  0  0
  -21.8270   -4.0570   23.7240 C   0  0  0  0  0  3  0  0  0  0  0  0
  -21.9700   -4.8490   22.5710 C   0  0  0  0  0  0  0  0  0  0  0  0
  -22.4250   -4.2900   21.4250 F   0  0  0  0  0  0  0  0  0  0  0  0
  -21.1910   -3.8630   26.0170 F   0  0  0  0  0  0  0  0  0  0  0  0
  -22.7790  -13.5800   21.1690 C   0  0  0  0  0  0  0  0  0  0  0  0
  -22.0650  -12.8760   22.0410 N   0  0  0  0  0  0  0  0  0  0  0  0
  -22.3310  -14.6060   20.6580 O   0  0  0  0  0  0  0  0  0  0  0  0
  -22.4410  -12.0470   22.4760 H   0  0  0  0  0  0  0  0  0  0  0  0
  -21.1280  -13.1730   22.2780 H   0  0  0  0  0  0  0  0  0  0  0  0
  -25.3880  -15.2730   20.3570 N   0  0  0  0  0  0  0  0  0  0  0  0
  -24.6340  -15.9300   20.5260 H   0  0  0  0  0  0  0  0  0  0  0  0
  -26.2650  -15.7270   20.1290 H   0  0  0  0  0  0  0  0  0  0  0  0
  -28.8410  -23.0000   20.3250 C   0  0  0  0  0  3  0  0  0  0  0  0
  -27.8910  -24.4650   20.1200 C   0  0  0  0  0  3  0  0  0  0  0  0
  -28.1920  -26.0370   20.2940 O   0  0  0  0  0  0  0  0  0  0  0  0
  -24.6450  -31.9010   23.2730 C   0  0  0  0  0  0  0  0  0  0  0  0
  -27.1760  -27.0970   20.2300 C   0  0  0  0  0  0  0  0  0  0  0  0
  -23.4400  -30.5210   21.6290 C   0  0  0  0  0  3  0  0  0  0  0  0
  -24.8790  -28.9320   20.1960 C   0  0  0  0  0  0  0  0  0  0  0  0
  -26.0030  -30.7440   21.4730 C   0  0  0  0  0  2  0  0  0  0  0  0
  -26.0660  -29.3460   20.8120 C   0  0  0  0  0  0  0  0  0  0  0  0
  -27.2150  -28.4490   20.8050 C   0  0  0  0  0  3  0  0  0  0  0  0
  -25.9600  -26.8140   19.5710 C   0  0  0  0  0  3  0  0  0  0  0  0
  -24.8450  -27.6840   19.5560 C   0  0  0  0  0  3  0  0  0  0  0  0
  -23.6610  -29.8470   20.2470 C   0  0  0  0  0  2  0  0  0  0  0  0
  -24.7160  -31.0800   22.1790 N   0  0  0  0  0  0  0  0  0  0  0  0
  -23.5590  -32.1910   23.8010 O   0  0  0  0  0  0  0  0  0  0  0  0
  -22.7490  -29.5170   22.5890 C   0  0  0  0  0  0  0  0  0  0  0  0
  -21.4200  -29.3490   22.4580 N   0  0  0  0  0  0  0  0  0  0  0  0
  -23.4140  -28.8920   23.4180 O   0  0  0  0  0  0  0  0  0  0  0  0
  -20.9380  -29.9040   21.7640 H   0  0  0  0  0  0  0  0  0  0  0  0
  -18.0370  -28.1400   22.9470 C   0  0  0  0  0  0  0  0  0  0  0  0
  -20.5950  -28.4110   23.2250 C   0  0  0  0  0  3  0  0  0  0  0  0
  -20.7020  -26.9780   22.6540 C   0  0  0  0  0  2  0  0  0  0  0  0
  -19.6080  -26.6520   21.6330 C   0  0  0  0  0  2  0  0  0  0  0  0
  -18.2220  -26.7920   22.2710 C   0  0  0  0  0  2  0  0  0  0  0  0
  -19.1510  -28.9070   23.3820 C   0  0  0  0  0  0  0  0  0  0  0  0
  -18.9230  -30.1660   23.9770 C   0  0  0  0  0  3  0  0  0  0  0  0
  -17.6140  -30.6610   24.1390 C   0  0  0  0  0  3  0  0  0  0  0  0
  -16.5160  -29.8920   23.7180 C   0  0  0  0  0  3  0  0  0  0  0  0
  -16.7280  -28.6320   23.1290 C   0  0  0  0  0  3  0  0  0  0  0  0
  -25.9220  -32.5330   23.9060 C   0  0  0  0  0  3  0  0  0  0  0  0
  -26.4220  -31.7630   25.1910 C   0  0  1  0  0  0  0  0  0  0  0  0
  -25.3180  -31.5380   26.2520 C   0  0  0  0  0  1  0  0  0  0  0  0
  -26.9980  -30.3790   24.8150 C   0  0  0  0  0  1  0  0  0  0  0  0
  -27.5740  -32.5510   25.8580 C   0  0  0  0  0  1  0  0  0  0  0  0
  -25.6150  -33.9330   24.2400 N   0  0  0  0  0  0  0  0  0  0  0  0
  -25.9230  -34.9890   23.4730 C   0  0  0  0  0  0  0  0  0  0  0  0
  -26.5590  -34.8850   22.4220 O   0  0  0  0  0  0  0  0  0  0  0  0
  -25.0470  -34.0860   25.0590 H   0  0  0  0  0  0  0  0  0  0  0  0
  -24.1670  -36.7740   23.2010 C   0  0  0  0  0  1  0  0  0  0  0  0
  -25.4520  -36.3800   23.9470 C   0  0  0  0  0  3  0  0  0  0  0  0
  -27.6200  -37.2890   24.6640 C   0  0  0  0  0  1  0  0  0  0  0  0
  -26.4720  -37.4380   23.7720 N   0  0  0  0  0  0  0  0  0  0  0  0
  -26.0670  -38.3580   23.9280 H   0  0  0  0  0  0  0  0  0  0  0  0
  1  5  1  0
  1 45  1  0
  2  6  1  0
  3  8  1  0
  4  2  2  0
  4  5  1  0
  5  3  2  0
  6  8  2  0
  7  4  1  0
  9  6  1  0
 10 15  1  0
 11 12  1  0
 11 10  1  0
 13 12  1  0
 13 20  1  0
 13 14  1  0
 15  9  1  0
 15 14  1  0
 16  9  2  0
 17 18  2  0
 18 37  1  0
 19 18  1  0
 19 22  1  0
 20 21  1  0
 20 17  1  0
 21 19  2  0
 22 23  1  0
 23 24  2  0
 25 28  1  0
 25 24  1  0
 26 25  2  0
 27 26  1  0
 27 22  2  0
 28 29  1  0
 29 30  1  0
 30 31  2  0
 32 31  1  0
 32 36  1  0
 33 32  2  0
 34 29  2  0
 34 33  1  0
 35 34  1  0
 37 38  1  0
 38 41  1  0
 38 40  1  0
 39 37  2  0
 42 17  1  0
 42 43  1  0
 44 42  1  0
 46 47  1  0
 46 45  2  0
 48 59  2  0
 49 47  1  0
 49 54  1  0
 50 58  1  0
 50 60  1  0
 51 57  1  0
 51 53  1  0
 52 58  1  0
 53 52  1  0
 54 53  2  0
 55 49  2  0
 56 55  1  0
 56 51  2  0
 57 50  1  0
 58 48  1  0
 60 62  2  0
 61 60  1  0
 63 61  1  0
 64 73  2  0
 64 69  1  0
 65 61  1  0
 65 69  1  0
 66 65  1  0
 67 68  1  0
 67 66  1  0
 68 64  1  0
 69 70  2  0
 70 71  1  0
 72 71  2  0
 73 72  1  0
 74 48  1  0
 74 79  1  0
 74 75  1  0
 75 78  1  1
 75 76  1  0
 77 75  1  0
 79 82  1  0
 80 84  1  0
 80 79  1  0
 81 80  2  0
 84 83  1  0
 86 87  1  0
 86 84  1  0
 86 85  1  0
M  ISO  4   6 100   9 100  46 101  47 101
M  END
>  <TORSDO>  (72) 
F 19

>  <SCORE>  (72) 
-15.690

>  <name>  (72) 
72

>  <ligand_id>  (72) 
72

>  <original_smiles>  (72) 
[H]c1nc(C(=O)N2C([H])([H])C([H])([H])C([H])([H])C([H])(n3nc(-c4c([H])c([H])c(Oc5c([H])c([H])c(F)c([H])c5F)c([H])c4[H])c(C(=O)N([H])[H])c3N([H])[H])C2([H])[H])c([H])c(C([H])([H])[H])c1C([H])([H])C([H])([H])C([H])([H])Oc1c([H])c([H])c2c(c1[H])C([H])([H])N(C(=O)C([H])(N([H])C(=O)C([H])(N([H])C([H])([H])[H])C([H])([H])[H])C(C([H])([H])[H])(C([H])([H])[H])C([H])([H])[H])C([H])(C(=O)N([H])C1([H])c3c([H])c([H])c([H])c([H])c3C([H])([H])C([H])([H])C1([H])[H])C2([H])[H]

>  <smiles>  (72) 
[H]c1nc(C(=O)N2C([H])([H])C([H])([H])C([H])([H])C([H])(n3nc(-c4c([H])c([H])c(Oc5c([H])c([H])c(F)c([H])c5F)c([H])c4[H])c(C(=O)N([H])[H])c3N([H])[H])C2([H])[H])c([H])c(C([H])([H])[H])c1C([H])([H])C([H])([H])C([H])([H])Oc1c([H])c([H])c2c(c1[H])C([H])([H])N(C(=O)C([H])(N([H])C(=O)C([H])(N([H])C([H])([H])[H])C([H])([H])[H])C(C([H])([H])[H])(C([H])([H])[H])C([H])([H])[H])C([H])(C(=O)N([H])C1([H])c3c([H])c([H])c([H])c([H])c3C([H])([H])C([H])([H])C1([H])[H])C2([H])[H]

$$$$
73:0:0
     RDKit          3D

 92100  0  0  1  0  0  0  0  0999 V2000
  -29.2110  -19.5120   21.4280 C   0  0  0  0  0  3  0  0  0  0  0  0
  -30.3890  -18.8790   20.9490 C   0  0  0  0  0  0  0  0  0  0  0  0
  -30.9520  -20.8890   19.8880 C   0  0  0  0  0  0  0  0  0  0  0  0
  -29.7450  -21.5090   20.3280 C   0  0  0  0  0  0  0  0  0  0  0  0
  -31.9440  -21.6130   18.9970 C   0  0  0  0  0  1  0  0  0  0  0  0
  -28.8930  -20.8070   21.1250 N   0  0  0  0  0  0  0  0  0  0  0  0
  -31.2690  -19.5970   20.1960 N   0  0  0  0  0  0  0  0  0  0  0  0
  -30.7480  -17.3930   21.2810 C   0  0  0  0  0  2  0  0  0  0  0  0
  -29.9740  -16.2360   20.5270 C   0  0  0  0  0  3  0  0  0  0  0  0
  -30.7610  -14.8690   20.3650 C   0  0  0  0  0  0  0  0  0  0  0  0
  -30.4930  -12.6970   19.2190 C   0  0  0  0  0  2  0  0  0  0  0  0
  -29.5410  -12.9030   18.0200 C   0  0  0  0  0  2  0  0  0  0  0  0
  -28.0640  -12.7640   18.4500 C   0  0  0  0  0  2  0  0  0  0  0  0
  -27.7270  -13.5310   19.7570 C   0  0  0  0  0  3  0  0  0  0  0  0
  -28.8070  -13.3220   20.8410 C   0  0  0  0  0  2  0  0  0  0  0  0
  -30.1140  -13.6660   20.2650 N   0  0  0  0  0  0  0  0  0  0  0  0
  -31.9620  -14.9480   20.0890 O   0  0  0  0  0  0  0  0  0  0  0  0
  -25.3250  -14.0680   20.4890 C   0  0  0  0  0  0  0  0  0  0  0  0
  -24.2780  -13.2660   20.8530 C   0  0  0  0  0  0  0  0  0  0  0  0
  -24.7730  -11.9270   20.8100 C   0  0  0  0  0  0  0  0  0  0  0  0
  -26.3900  -13.2120   20.2460 N   0  0  0  0  0  0  0  0  0  0  0  0
  -26.0630  -11.9210   20.5020 N   0  0  0  0  0  0  0  0  0  0  0  0
  -24.0760  -10.6460   20.9910 C   0  0  0  0  0  0  0  0  0  0  0  0
  -24.4810   -9.7210   21.9780 C   0  0  0  0  0  3  0  0  0  0  0  0
  -23.7870   -8.5020   22.1420 C   0  0  0  0  0  3  0  0  0  0  0  0
  -22.6750   -8.2030   21.3200 C   0  0  0  0  0  0  0  0  0  0  0  0
  -22.2900   -9.1180   20.3250 C   0  0  0  0  0  3  0  0  0  0  0  0
  -22.9850  -10.3280   20.1590 C   0  0  0  0  0  3  0  0  0  0  0  0
  -21.9570   -7.0330   21.3920 O   0  0  0  0  0  0  0  0  0  0  0  0
  -21.7860   -6.3650   22.5770 C   0  0  0  0  0  0  0  0  0  0  0  0
  -21.1070   -6.9480   23.6700 C   0  0  0  0  0  3  0  0  0  0  0  0
  -20.8910   -6.2000   24.8440 C   0  0  0  0  0  3  0  0  0  0  0  0
  -21.3440   -4.8700   24.9260 C   0  0  0  0  0  0  0  0  0  0  0  0
  -22.0180   -4.2870   23.8380 C   0  0  0  0  0  3  0  0  0  0  0  0
  -22.2350   -5.0320   22.6650 C   0  0  0  0  0  0  0  0  0  0  0  0
  -22.8630   -4.4570   21.6110 F   0  0  0  0  0  0  0  0  0  0  0  0
  -21.1310   -4.1490   26.0510 F   0  0  0  0  0  0  0  0  0  0  0  0
  -22.8700  -13.7080   21.1260 C   0  0  0  0  0  0  0  0  0  0  0  0
  -22.1520  -12.9780   21.9760 N   0  0  0  0  0  0  0  0  0  0  0  0
  -22.4110  -14.7330   20.6260 O   0  0  0  0  0  0  0  0  0  0  0  0
  -22.5360  -12.1490   22.4050 H   0  0  0  0  0  0  0  0  0  0  0  0
  -21.2070  -13.2560   22.1970 H   0  0  0  0  0  0  0  0  0  0  0  0
  -25.4540  -15.4430   20.3200 N   0  0  0  0  0  0  0  0  0  0  0  0
  -24.6630  -16.0710   20.4180 H   0  0  0  0  0  0  0  0  0  0  0  0
  -26.2820  -15.8970   19.9540 H   0  0  0  0  0  0  0  0  0  0  0  0
  -29.5180  -16.7540   19.1330 C   0  0  0  0  0  3  0  0  0  0  0  0
  -30.5550  -16.9400   18.3150 F   0  0  0  0  0  0  0  0  0  0  0  0
  -28.6680  -15.9330   18.5280 F   0  0  0  0  0  0  0  0  0  0  0  0
  -29.2200  -22.8550   19.7430 C   0  0  0  0  0  2  0  0  0  0  0  0
  -29.4710  -24.2400   20.4480 C   0  0  0  0  0  2  0  0  0  0  0  0
  -28.4970  -25.3430   19.8830 C   0  0  0  0  0  2  0  0  0  0  0  0
  -28.6440  -26.7620   20.2270 O   0  0  0  0  0  0  0  0  0  0  0  0
  -24.6110  -31.8690   23.2310 C   0  0  0  0  0  0  0  0  0  0  0  0
  -27.4940  -27.5540   20.1250 C   0  0  0  0  0  0  0  0  0  0  0  0
  -23.5120  -30.4880   21.5060 C   0  0  0  0  0  3  0  0  0  0  0  0
  -25.0650  -29.0550   20.0750 C   0  0  0  0  0  0  0  0  0  0  0  0
  -26.0400  -30.9170   21.4170 C   0  0  0  0  0  2  0  0  0  0  0  0
  -26.1920  -29.5700   20.7290 C   0  0  0  0  0  0  0  0  0  0  0  0
  -27.4060  -28.8290   20.7520 C   0  0  0  0  0  3  0  0  0  0  0  0
  -26.3470  -27.0980   19.4260 C   0  0  0  0  0  3  0  0  0  0  0  0
  -25.1430  -27.8210   19.4160 C   0  0  0  0  0  3  0  0  0  0  0  0
  -23.7950  -29.8750   20.1100 C   0  0  0  0  0  2  0  0  0  0  0  0
  -24.7380  -31.1060   22.1090 N   0  0  0  0  0  0  0  0  0  0  0  0
  -23.5030  -32.0880   23.7400 O   0  0  0  0  0  0  0  0  0  0  0  0
  -22.8630  -29.4090   22.4060 C   0  0  0  0  0  0  0  0  0  0  0  0
  -21.5460  -29.1990   22.2440 N   0  0  0  0  0  0  0  0  0  0  0  0
  -23.5440  -28.7670   23.2110 O   0  0  0  0  0  0  0  0  0  0  0  0
  -21.0560  -29.7710   21.5690 H   0  0  0  0  0  0  0  0  0  0  0  0
  -18.1840  -27.9370   22.6630 C   0  0  0  0  0  0  0  0  0  0  0  0
  -20.7370  -28.2110   22.9600 C   0  0  0  0  0  3  0  0  0  0  0  0
  -20.8610  -26.8150   22.3090 C   0  0  0  0  0  2  0  0  0  0  0  0
  -19.7660  -26.5340   21.2760 C   0  0  0  0  0  2  0  0  0  0  0  0
  -18.3790  -26.6280   21.9180 C   0  0  0  0  0  2  0  0  0  0  0  0
  -19.2910  -28.6890   23.1400 C   0  0  0  0  0  0  0  0  0  0  0  0
  -19.0540  -29.9160   23.7960 C   0  0  0  0  0  3  0  0  0  0  0  0
  -17.7420  -30.3910   23.9810 C   0  0  0  0  0  3  0  0  0  0  0  0
  -16.6490  -29.6360   23.5200 C   0  0  0  0  0  3  0  0  0  0  0  0
  -16.8700  -28.4110   22.8670 C   0  0  0  0  0  3  0  0  0  0  0  0
  -25.8510  -32.5250   23.9130 C   0  0  0  0  0  3  0  0  0  0  0  0
  -25.5080  -33.9250   24.2000 N   0  0  0  0  0  0  0  0  0  0  0  0
  -25.8800  -34.9680   23.4470 C   0  0  0  0  0  0  0  0  0  0  0  0
  -26.6160  -34.8550   22.4620 O   0  0  0  0  0  0  0  0  0  0  0  0
  -24.8610  -34.0860   24.9570 H   0  0  0  0  0  0  0  0  0  0  0  0
  -24.1870  -36.7540   22.9250 C   0  0  0  0  0  1  0  0  0  0  0  0
  -25.3530  -36.3590   23.8470 C   0  0  0  0  0  3  0  0  0  0  0  0
  -27.3890  -37.2690   24.8720 C   0  0  0  0  0  1  0  0  0  0  0  0
  -26.3900  -37.4140   23.8170 N   0  0  0  0  0  0  0  0  0  0  0  0
  -25.9680  -38.3350   23.9030 H   0  0  0  0  0  0  0  0  0  0  0  0
  -26.3010  -31.7800   25.2300 C   0  0  1  0  0  0  0  0  0  0  0  0
  -25.1490  -31.5440   26.2340 C   0  0  0  0  0  1  0  0  0  0  0  0
  -26.9240  -30.4030   24.8960 C   0  0  0  0  0  1  0  0  0  0  0  0
  -27.3980  -32.6000   25.9460 C   0  0  0  0  0  1  0  0  0  0  0  0
  2  8  1  0
  2  1  2  0
  3  7  2  0
  3  4  1  0
  4  6  2  0
  5  3  1  0
  6  1  1  0
  7  2  1  0
  9  8  1  0
 10  9  1  0
 11 16  1  0
 12 13  1  0
 12 11  1  0
 14 13  1  0
 14 21  1  0
 14 15  1  0
 16 10  1  0
 16 15  1  0
 17 10  2  0
 18 19  2  0
 19 38  1  0
 20 19  1  0
 20 23  1  0
 21 18  1  0
 21 22  1  0
 22 20  2  0
 23 24  1  0
 24 25  2  0
 26 29  1  0
 26 25  1  0
 27 26  2  0
 28 27  1  0
 28 23  2  0
 29 30  1  0
 30 35  2  0
 30 31  1  0
 31 32  2  0
 32 33  1  0
 33 37  1  0
 34 33  2  0
 35 34  1  0
 36 35  1  0
 38 39  1  0
 39 42  1  0
 39 41  1  0
 40 38  2  0
 43 44  1  0
 43 18  1  0
 45 43  1  0
 46  9  1  0
 47 46  1  0
 48 46  1  0
 49  4  1  0
 49 50  1  0
 51 52  1  0
 51 50  1  0
 53 64  2  0
 54 52  1  0
 54 59  1  0
 55 63  1  0
 55 65  1  0
 56 62  1  0
 56 58  1  0
 57 63  1  0
 58 59  2  0
 58 57  1  0
 60 54  2  0
 61 60  1  0
 61 56  2  0
 62 55  1  0
 63 53  1  0
 65 67  2  0
 66 65  1  0
 68 66  1  0
 69 78  2  0
 69 74  1  0
 70 66  1  0
 70 74  1  0
 71 70  1  0
 72 73  1  0
 72 71  1  0
 73 69  1  0
 74 75  2  0
 75 76  1  0
 77 76  2  0
 78 77  1  0
 79 53  1  0
 79 80  1  0
 79 89  1  0
 80 83  1  0
 81 85  1  0
 81 80  1  0
 82 81  2  0
 85 84  1  0
 87 85  1  0
 87 88  1  0
 87 86  1  0
 89 92  1  1
 89 90  1  0
 91 89  1  0
M  ISO  4   9 100  10 100  51 101  52 101
M  END
>  <TORSDO>  (73) 
F 22

>  <SCORE>  (73) 
-12.673

>  <name>  (73) 
73

>  <ligand_id>  (73) 
73

>  <original_smiles>  (73) 
[H]c1nc(C([H])([H])C([H])([H])C([H])([H])Oc2c([H])c([H])c3c(c2[H])C([H])([H])N(C(=O)C([H])(N([H])C(=O)C([H])(N([H])C([H])([H])[H])C([H])([H])[H])C(C([H])([H])[H])(C([H])([H])[H])C([H])([H])[H])C([H])(C(=O)N([H])C2([H])c4c([H])c([H])c([H])c([H])c4C([H])([H])C([H])([H])C2([H])[H])C3([H])[H])c(C([H])([H])[H])nc1C([H])([H])C([H])(C(=O)N1C([H])([H])C([H])([H])C([H])([H])C([H])(n2nc(-c3c([H])c([H])c(Oc4c([H])c([H])c(F)c([H])c4F)c([H])c3[H])c(C(=O)N([H])[H])c2N([H])[H])C1([H])[H])C([H])(F)F

>  <smiles>  (73) 
[H]c1nc(C([H])([H])C([H])([H])C([H])([H])Oc2c([H])c([H])c3c(c2[H])C([H])([H])N(C(=O)C([H])(N([H])C(=O)C([H])(N([H])C([H])([H])[H])C([H])([H])[H])C(C([H])([H])[H])(C([H])([H])[H])C([H])([H])[H])C([H])(C(=O)N([H])C2([H])c4c([H])c([H])c([H])c([H])c4C([H])([H])C([H])([H])C2([H])[H])C3([H])[H])c(C([H])([H])[H])nc1C([H])([H])C([H])(C(=O)N1C([H])([H])C([H])([H])C([H])([H])C([H])(n2nc(-c3c([H])c([H])c(Oc4c([H])c([H])c(F)c([H])c4F)c([H])c3[H])c(C(=O)N([H])[H])c2N([H])[H])C1([H])[H])C([H])(F)F

$$$$
74:0:0
     RDKit          3D

 89 97  0  0  1  0  0  0  0  0999 V2000
  -29.6190  -20.8650   19.7280 C   0  0  0  0  0  3  0  0  0  0  0  0
  -28.0530  -18.6050   20.0220 C   0  0  0  0  0  3  0  0  0  0  0  0
  -30.1540  -18.2900   20.3790 C   0  0  0  0  0  3  0  0  0  0  0  0
  -29.2870  -19.3350   20.0520 C   0  0  0  0  0  0  0  0  0  0  0  0
  -28.1660  -17.3060   20.3440 N   0  0  0  0  0  0  0  0  0  0  0  0
  -29.4860  -17.0650   20.6000 N   0  0  0  0  0  0  0  0  0  0  0  0
  -28.9990  -15.2630   22.2810 C   0  0  0  0  0  1  0  0  0  0  0  0
  -31.3050  -15.8880   21.8740 C   0  0  0  0  0  1  0  0  0  0  0  0
  -29.9700  -15.6880   21.1020 C   0  0  2  0  0  0  0  0  0  0  0  0
  -30.3850  -14.5920   19.9490 C   0  0  0  0  0  0  0  0  0  0  0  0
  -30.1530  -12.4760   18.5540 C   0  0  0  0  0  2  0  0  0  0  0  0
  -29.1110  -12.6080   17.4180 C   0  0  0  0  0  2  0  0  0  0  0  0
  -27.6690  -12.4280   17.9390 C   0  0  0  0  0  2  0  0  0  0  0  0
  -27.4270  -13.1980   19.2650 C   0  0  0  0  0  3  0  0  0  0  0  0
  -28.5490  -12.8810   20.2650 C   0  0  0  0  0  2  0  0  0  0  0  0
  -29.7890  -13.3780   19.6920 N   0  0  0  0  0  0  0  0  0  0  0  0
  -31.3790  -14.8640   19.2540 O   0  0  0  0  0  0  0  0  0  0  0  0
  -25.1090  -13.7680   20.2120 C   0  0  0  0  0  0  0  0  0  0  0  0
  -24.0910  -12.9690   20.6760 C   0  0  0  0  0  0  0  0  0  0  0  0
  -24.5700  -11.6290   20.5790 C   0  0  0  0  0  0  0  0  0  0  0  0
  -26.1320  -12.8980   19.8580 N   0  0  0  0  0  0  0  0  0  0  0  0
  -25.8210  -11.6090   20.1400 N   0  0  0  0  0  0  0  0  0  0  0  0
  -23.8850  -10.3510   20.8250 C   0  0  0  0  0  0  0  0  0  0  0  0
  -24.3780   -9.4210   21.7680 C   0  0  0  0  0  3  0  0  0  0  0  0
  -23.6970   -8.2060   21.9970 C   0  0  0  0  0  3  0  0  0  0  0  0
  -22.5120   -7.9140   21.2840 C   0  0  0  0  0  0  0  0  0  0  0  0
  -22.0320   -8.8360   20.3380 C   0  0  0  0  0  3  0  0  0  0  0  0
  -22.7150  -10.0410   20.1050 C   0  0  0  0  0  3  0  0  0  0  0  0
  -21.7930   -6.7510   21.4210 O   0  0  0  0  0  0  0  0  0  0  0  0
  -21.7530   -6.0610   22.6030 C   0  0  0  0  0  0  0  0  0  0  0  0
  -21.3020   -6.6600   23.8000 C   0  0  0  0  0  3  0  0  0  0  0  0
  -21.2110   -5.8990   24.9810 C   0  0  0  0  0  3  0  0  0  0  0  0
  -21.5650   -4.5350   24.9720 C   0  0  0  0  0  0  0  0  0  0  0  0
  -22.0050   -3.9340   23.7800 C   0  0  0  0  0  3  0  0  0  0  0  0
  -22.0980   -4.6920   22.6010 C   0  0  0  0  0  0  0  0  0  0  0  0
  -22.5060   -4.1030   21.4520 F   0  0  0  0  0  0  0  0  0  0  0  0
  -21.4670   -3.8010   26.1020 F   0  0  0  0  0  0  0  0  0  0  0  0
  -22.7210  -13.4170   21.0920 C   0  0  0  0  0  0  0  0  0  0  0  0
  -22.1060  -12.7040   22.0310 N   0  0  0  0  0  0  0  0  0  0  0  0
  -22.2070  -14.4330   20.6260 O   0  0  0  0  0  0  0  0  0  0  0  0
  -22.5290  -11.8770   22.4310 H   0  0  0  0  0  0  0  0  0  0  0  0
  -21.1890  -12.9860   22.3470 H   0  0  0  0  0  0  0  0  0  0  0  0
  -25.2390  -15.1430   20.0530 N   0  0  0  0  0  0  0  0  0  0  0  0
  -24.5210  -15.8020   20.3440 H   0  0  0  0  0  0  0  0  0  0  0  0
  -26.1110  -15.6060   19.8160 H   0  0  0  0  0  0  0  0  0  0  0  0
  -28.6230  -22.0680   20.1570 C   0  0  0  0  0  3  0  0  0  0  0  0
  -28.9980  -23.6520   19.9310 C   0  0  0  0  0  3  0  0  0  0  0  0
  -28.0260  -24.8560   20.4370 C   0  0  0  0  0  3  0  0  0  0  0  0
  -28.3580  -26.3300   20.2650 O   0  0  0  0  0  0  0  0  0  0  0  0
  -24.7460  -31.9570   23.2000 C   0  0  0  0  0  0  0  0  0  0  0  0
  -27.3010  -27.2730   20.2220 C   0  0  0  0  0  0  0  0  0  0  0  0
  -23.5370  -30.5470   21.5760 C   0  0  0  0  0  3  0  0  0  0  0  0
  -24.9830  -28.9780   20.1580 C   0  0  0  0  0  0  0  0  0  0  0  0
  -26.0880  -30.8250   21.4100 C   0  0  0  0  0  2  0  0  0  0  0  0
  -26.1550  -29.4330   20.7770 C   0  0  0  0  0  0  0  0  0  0  0  0
  -27.3200  -28.5940   20.8000 C   0  0  0  0  0  3  0  0  0  0  0  0
  -26.1230  -26.9130   19.5360 C   0  0  0  0  0  3  0  0  0  0  0  0
  -24.9770  -27.7320   19.5210 C   0  0  0  0  0  3  0  0  0  0  0  0
  -23.7520  -29.8650   20.1980 C   0  0  0  0  0  2  0  0  0  0  0  0
  -24.8090  -31.1280   22.1200 N   0  0  0  0  0  0  0  0  0  0  0  0
  -23.6630  -32.2600   23.7240 O   0  0  0  0  0  0  0  0  0  0  0  0
  -22.8660  -29.5470   22.5450 C   0  0  0  0  0  0  0  0  0  0  0  0
  -21.5360  -29.3820   22.4250 N   0  0  0  0  0  0  0  0  0  0  0  0
  -23.5420  -28.9180   23.3640 O   0  0  0  0  0  0  0  0  0  0  0  0
  -21.0520  -29.9350   21.7300 H   0  0  0  0  0  0  0  0  0  0  0  0
  -18.1470  -28.2430   22.9610 C   0  0  0  0  0  0  0  0  0  0  0  0
  -20.7090  -28.4650   23.2110 C   0  0  0  0  0  3  0  0  0  0  0  0
  -20.7870  -27.0270   22.6490 C   0  0  0  0  0  2  0  0  0  0  0  0
  -19.6710  -26.7130   21.6430 C   0  0  0  0  0  2  0  0  0  0  0  0
  -18.2960  -26.8850   22.2940 C   0  0  0  0  0  2  0  0  0  0  0  0
  -19.2810  -28.9890   23.3770 C   0  0  0  0  0  0  0  0  0  0  0  0
  -19.0850  -30.2610   23.9600 C   0  0  0  0  0  3  0  0  0  0  0  0
  -17.7900  -30.7820   24.1320 C   0  0  0  0  0  3  0  0  0  0  0  0
  -16.6710  -30.0330   23.7340 C   0  0  0  0  0  3  0  0  0  0  0  0
  -16.8510  -28.7640   23.1520 C   0  0  0  0  0  3  0  0  0  0  0  0
  -26.0330  -32.5910   23.8150 C   0  0  0  0  0  3  0  0  0  0  0  0
  -25.7260  -33.9930   24.1350 N   0  0  0  0  0  0  0  0  0  0  0  0
  -26.0620  -35.0400   23.3710 C   0  0  0  0  0  0  0  0  0  0  0  0
  -26.7370  -34.9330   22.3440 O   0  0  0  0  0  0  0  0  0  0  0  0
  -25.1280  -34.1530   24.9320 H   0  0  0  0  0  0  0  0  0  0  0  0
  -24.3460  -36.8410   22.9930 C   0  0  0  0  0  1  0  0  0  0  0  0
  -25.5750  -36.4290   23.8190 C   0  0  0  0  0  3  0  0  0  0  0  0
  -27.7000  -37.3090   24.6780 C   0  0  0  0  0  1  0  0  0  0  0  0
  -26.6110  -37.4780   23.7200 N   0  0  0  0  0  0  0  0  0  0  0  0
  -26.2030  -38.3990   23.8640 H   0  0  0  0  0  0  0  0  0  0  0  0
  -26.5490  -31.8270   25.0980 C   0  0  1  0  0  0  0  0  0  0  0  0
  -25.4570  -31.6020   26.1630 C   0  0  0  0  0  1  0  0  0  0  0  0
  -27.1310  -30.4440   24.7290 C   0  0  0  0  0  1  0  0  0  0  0  0
  -27.6930  -32.6320   25.7600 C   0  0  0  0  0  1  0  0  0  0  0  0
  1  4  1  0
  1 46  2  0
  2  4  1  0
  2  5  2  0
  3  6  1  0
  4  3  2  0
  5  6  1  0
  6  9  1  0
  9  8  1  1
  9  7  1  0
 10  9  1  0
 11 16  1  0
 12 13  1  0
 12 11  1  0
 14 13  1  0
 14 21  1  0
 14 15  1  0
 16 10  1  0
 16 15  1  0
 17 10  2  0
 18 19  2  0
 19 38  1  0
 20 19  1  0
 20 23  1  0
 21 22  1  0
 21 18  1  0
 22 20  2  0
 23 24  1  0
 24 25  2  0
 26 29  1  0
 26 25  1  0
 27 26  2  0
 28 27  1  0
 28 23  2  0
 29 30  1  0
 30 31  1  0
 31 32  2  0
 33 32  1  0
 33 37  1  0
 34 33  2  0
 35 30  2  0
 35 34  1  0
 36 35  1  0
 38 39  1  0
 39 42  1  0
 39 41  1  0
 40 38  2  0
 43 18  1  0
 43 44  1  0
 45 43  1  0
 47 46  1  0
 47 48  2  0
 49 48  1  0
 50 61  2  0
 51 49  1  0
 51 56  1  0
 52 60  1  0
 52 62  1  0
 53 59  1  0
 53 55  1  0
 54 60  1  0
 55 56  2  0
 55 54  1  0
 57 51  2  0
 58 57  1  0
 58 53  2  0
 59 52  1  0
 60 50  1  0
 62 64  2  0
 63 62  1  0
 65 63  1  0
 66 75  2  0
 66 71  1  0
 67 63  1  0
 67 71  1  0
 68 67  1  0
 69 70  1  0
 69 68  1  0
 70 66  1  0
 71 72  2  0
 72 73  1  0
 74 73  2  0
 75 74  1  0
 76 50  1  0
 76 77  1  0
 76 86  1  0
 77 80  1  0
 78 82  1  0
 78 77  1  0
 79 78  2  0
 82 81  1  0
 84 82  1  0
 84 85  1  0
 84 83  1  0
 86 89  1  1
 86 87  1  0
 88 86  1  0
M  ISO  4   9 100  10 100  48 101  49 101
M  END
>  <TORSDO>  (74) 
F 21

>  <SCORE>  (74) 
-10.631

>  <name>  (74) 
74

>  <ligand_id>  (74) 
74

>  <original_smiles>  (74) 
[H]c1nn(C(C(=O)N2C([H])([H])C([H])([H])C([H])([H])C([H])(n3nc(-c4c([H])c([H])c(Oc5c([H])c([H])c(F)c([H])c5F)c([H])c4[H])c(C(=O)N([H])[H])c3N([H])[H])C2([H])[H])(C([H])([H])[H])C([H])([H])[H])c([H])c1C([H])([H])C([H])([H])C([H])([H])C([H])([H])Oc1c([H])c([H])c2c(c1[H])C([H])([H])N(C(=O)C([H])(N([H])C(=O)C([H])(N([H])C([H])([H])[H])C([H])([H])[H])C(C([H])([H])[H])(C([H])([H])[H])C([H])([H])[H])C([H])(C(=O)N([H])C1([H])c3c([H])c([H])c([H])c([H])c3C([H])([H])C([H])([H])C1([H])[H])C2([H])[H]

>  <smiles>  (74) 
[H]c1nn(C(C(=O)N2C([H])([H])C([H])([H])C([H])([H])C([H])(n3nc(-c4c([H])c([H])c(Oc5c([H])c([H])c(F)c([H])c5F)c([H])c4[H])c(C(=O)N([H])[H])c3N([H])[H])C2([H])[H])(C([H])([H])[H])C([H])([H])[H])c([H])c1C([H])([H])C([H])([H])C([H])([H])C([H])([H])Oc1c([H])c([H])c2c(c1[H])C([H])([H])N(C(=O)C([H])(N([H])C(=O)C([H])(N([H])C([H])([H])[H])C([H])([H])[H])C(C([H])([H])[H])(C([H])([H])[H])C([H])([H])[H])C([H])(C(=O)N([H])C1([H])c3c([H])c([H])c([H])c([H])c3C([H])([H])C([H])([H])C1([H])[H])C2([H])[H]

$$$$
75:0:0
     RDKit          3D

 93101  0  0  1  0  0  0  0  0999 V2000
  -27.1070  -19.7940   19.5680 C   0  0  0  0  0  3  0  0  0  0  0  0
  -29.2730  -19.9720   19.7760 C   0  0  0  0  0  3  0  0  0  0  0  0
  -28.1370  -20.7400   19.8420 C   0  0  0  0  0  0  0  0  0  0  0  0
  -27.5640  -18.5780   19.3270 N   0  0  0  0  0  0  0  0  0  0  0  0
  -28.9110  -18.6800   19.4210 N   0  0  0  0  0  0  0  0  0  0  0  0
  -28.9890  -16.4140   18.3580 C   0  0  0  0  0  1  0  0  0  0  0  0
  -30.8020  -18.0620   18.0180 C   0  0  0  0  0  1  0  0  0  0  0  0
  -29.7830  -17.5480   19.0620 C   0  0  1  0  0  0  0  0  0  0  0  0
  -30.5680  -17.0150   20.3060 C   0  0  0  0  0  2  0  0  0  0  0  0
  -30.7800  -14.6970   21.2080 C   0  0  0  0  0  0  0  0  0  0  0  0
  -30.6570  -12.4480   20.2780 C   0  0  0  0  0  2  0  0  0  0  0  0
  -29.8770  -12.5640   18.9600 C   0  0  0  0  0  2  0  0  0  0  0  0
  -28.3560  -12.4170   19.1990 C   0  0  0  0  0  2  0  0  0  0  0  0
  -27.8330  -13.2930   20.3730 C   0  0  0  0  0  3  0  0  0  0  0  0
  -28.7610  -13.2020   21.6050 C   0  0  0  0  0  2  0  0  0  0  0  0
  -30.1370  -13.5010   21.1610 N   0  0  0  0  0  0  0  0  0  0  0  0
  -32.0080  -14.7860   21.1340 O   0  0  0  0  0  0  0  0  0  0  0  0
  -30.0230  -15.7900   20.9510 N   0  0  0  0  0  0  0  0  0  0  0  0
  -29.0180  -15.6920   20.9610 H   0  0  0  0  0  0  0  0  0  0  0  0
  -25.3580  -13.8760   20.7820 C   0  0  0  0  0  0  0  0  0  0  0  0
  -24.2650  -13.0780   21.0280 C   0  0  0  0  0  0  0  0  0  0  0  0
  -24.7540  -11.7370   21.0580 C   0  0  0  0  0  0  0  0  0  0  0  0
  -26.4380  -13.0040   20.6920 N   0  0  0  0  0  0  0  0  0  0  0  0
  -26.0740  -11.7170   20.9170 N   0  0  0  0  0  0  0  0  0  0  0  0
  -24.0340  -10.4600   21.1720 C   0  0  0  0  0  0  0  0  0  0  0  0
  -24.3850   -9.4880   22.1330 C   0  0  0  0  0  3  0  0  0  0  0  0
  -23.6680   -8.2780   22.2310 C   0  0  0  0  0  3  0  0  0  0  0  0
  -22.5750   -8.0310   21.3670 C   0  0  0  0  0  0  0  0  0  0  0  0
  -22.2430   -8.9860   20.3920 C   0  0  0  0  0  3  0  0  0  0  0  0
  -22.9630  -10.1910   20.2970 C   0  0  0  0  0  3  0  0  0  0  0  0
  -21.8300   -6.8780   21.3820 O   0  0  0  0  0  0  0  0  0  0  0  0
  -21.7010   -6.1180   22.5170 C   0  0  0  0  0  0  0  0  0  0  0  0
  -21.1620   -6.6400   23.7160 C   0  0  0  0  0  3  0  0  0  0  0  0
  -20.9980   -5.8010   24.8330 C   0  0  0  0  0  3  0  0  0  0  0  0
  -21.3530   -4.4400   24.7500 C   0  0  0  0  0  0  0  0  0  0  0  0
  -21.8840   -3.9190   23.5550 C   0  0  0  0  0  3  0  0  0  0  0  0
  -22.0600   -4.7580   22.4440 C   0  0  0  0  0  0  0  0  0  0  0  0
  -22.5560   -4.2470   21.2910 F   0  0  0  0  0  0  0  0  0  0  0  0
  -21.1810   -3.6330   25.8200 F   0  0  0  0  0  0  0  0  0  0  0  0
  -22.8420  -13.5290   21.1170 C   0  0  0  0  0  0  0  0  0  0  0  0
  -22.0320  -12.8290   21.9070 N   0  0  0  0  0  0  0  0  0  0  0  0
  -22.4380  -14.5270   20.5300 O   0  0  0  0  0  0  0  0  0  0  0  0
  -22.3410  -12.0010   22.3850 H   0  0  0  0  0  0  0  0  0  0  0  0
  -21.0710  -13.1190   21.9910 H   0  0  0  0  0  0  0  0  0  0  0  0
  -25.5230  -15.2470   20.6090 N   0  0  0  0  0  0  0  0  0  0  0  0
  -24.7390  -15.8920   20.6680 H   0  0  0  0  0  0  0  0  0  0  0  0
  -26.3790  -15.7000   20.3020 H   0  0  0  0  0  0  0  0  0  0  0  0
  -27.0070  -22.2930   21.4170 C   0  0  0  0  0  1  0  0  0  0  0  0
  -27.8920  -22.2140   20.1530 C   0  0  0  0  0  3  0  0  0  0  0  0
  -29.1580  -23.1050   20.3620 C   0  0  0  0  0  2  0  0  0  0  0  0
  -29.1880  -24.5150   19.6770 C   0  0  0  0  0  3  0  0  0  0  0  0
  -28.0830  -25.5120   20.1000 C   0  0  0  0  0  3  0  0  0  0  0  0
  -28.3060  -26.8900   19.6900 O   0  0  0  0  0  0  0  0  0  0  0  0
  -24.7100  -31.9670   23.2580 C   0  0  0  0  0  0  0  0  0  0  0  0
  -27.1870  -27.7030   19.7580 C   0  0  0  0  0  0  0  0  0  0  0  0
  -23.4370  -30.6700   21.5920 C   0  0  0  0  0  3  0  0  0  0  0  0
  -24.8250  -29.2510   19.9870 C   0  0  0  0  0  0  0  0  0  0  0  0
  -25.9640  -31.0300   21.3130 C   0  0  0  0  0  2  0  0  0  0  0  0
  -26.0130  -29.7120   20.5620 C   0  0  0  0  0  0  0  0  0  0  0  0
  -27.2040  -28.9490   20.4370 C   0  0  0  0  0  3  0  0  0  0  0  0
  -25.9770  -27.2900   19.1520 C   0  0  0  0  0  3  0  0  0  0  0  0
  -24.7970  -28.0420   19.2810 C   0  0  0  0  0  3  0  0  0  0  0  0
  -23.5850  -30.1000   20.1580 C   0  0  0  0  0  2  0  0  0  0  0  0
  -24.7260  -31.2350   22.1080 N   0  0  0  0  0  0  0  0  0  0  0  0
  -23.6530  -32.2000   23.8590 O   0  0  0  0  0  0  0  0  0  0  0  0
  -22.8320  -29.5780   22.5040 C   0  0  0  0  0  0  0  0  0  0  0  0
  -21.5130  -29.3620   22.3850 N   0  0  0  0  0  0  0  0  0  0  0  0
  -23.5490  -28.9350   23.2740 O   0  0  0  0  0  0  0  0  0  0  0  0
  -20.9980  -29.9330   21.7320 H   0  0  0  0  0  0  0  0  0  0  0  0
  -18.1890  -28.0140   22.8450 C   0  0  0  0  0  0  0  0  0  0  0  0
  -20.7360  -28.3650   23.1210 C   0  0  0  0  0  3  0  0  0  0  0  0
  -20.8940  -26.9610   22.4940 C   0  0  0  0  0  2  0  0  0  0  0  0
  -19.8020  -26.6310   21.4710 C   0  0  0  0  0  2  0  0  0  0  0  0
  -18.4180  -26.6960   22.1200 C   0  0  0  0  0  2  0  0  0  0  0  0
  -19.2780  -28.8040   23.3000 C   0  0  0  0  0  0  0  0  0  0  0  0
  -19.0100  -30.0370   23.9360 C   0  0  0  0  0  3  0  0  0  0  0  0
  -17.6860  -30.4790   24.1220 C   0  0  0  0  0  3  0  0  0  0  0  0
  -16.6130  -29.6860   23.6840 C   0  0  0  0  0  3  0  0  0  0  0  0
  -16.8640  -28.4560   23.0520 C   0  0  0  0  0  3  0  0  0  0  0  0
  -26.0200  -32.5660   23.8600 C   0  0  0  0  0  3  0  0  0  0  0  0
  -25.7280  -33.9530   24.2510 N   0  0  0  0  0  0  0  0  0  0  0  0
  -26.0560  -35.0340   23.5300 C   0  0  0  0  0  0  0  0  0  0  0  0
  -26.7060  -34.9660   22.4810 O   0  0  0  0  0  0  0  0  0  0  0  0
  -25.1470  -34.0790   25.0680 H   0  0  0  0  0  0  0  0  0  0  0  0
  -24.3430  -36.8550   23.2730 C   0  0  0  0  0  1  0  0  0  0  0  0
  -25.5900  -36.4060   24.0520 C   0  0  0  0  0  3  0  0  0  0  0  0
  -27.7420  -37.2240   24.8980 C   0  0  0  0  0  1  0  0  0  0  0  0
  -26.6330  -37.4500   23.9740 N   0  0  0  0  0  0  0  0  0  0  0  0
  -26.2410  -38.3680   24.1680 H   0  0  0  0  0  0  0  0  0  0  0  0
  -26.5720  -31.7450   25.0880 C   0  0  1  0  0  0  0  0  0  0  0  0
  -25.5110  -31.4700   26.1790 C   0  0  0  0  0  1  0  0  0  0  0  0
  -27.1340  -30.3800   24.6260 C   0  0  0  0  0  1  0  0  0  0  0  0
  -27.7480  -32.5080   25.7390 C   0  0  0  0  0  1  0  0  0  0  0  0
  1  3  1  0
  2  3  2  0
  3 49  1  0
  4  5  1  0
  4  1  2  0
  5  2  1  0
  8  6  1  6
  7  8  1  0
  8  5  1  0
  8  9  1  0
  9 18  1  0
 11 16  1  0
 12 13  1  0
 12 11  1  0
 14 13  1  0
 14 23  1  0
 14 15  1  0
 16 10  1  0
 16 15  1  0
 17 10  2  0
 18 19  1  0
 18 10  1  0
 20 21  2  0
 21 22  1  0
 21 40  1  0
 22 25  1  0
 23 20  1  0
 23 24  1  0
 24 22  2  0
 25 26  1  0
 26 27  2  0
 28 31  1  0
 28 27  1  0
 29 28  2  0
 30 29  1  0
 30 25  2  0
 31 32  1  0
 32 33  1  0
 33 34  2  0
 35 34  1  0
 35 39  1  0
 36 35  2  0
 37 32  2  0
 37 36  1  0
 38 37  1  0
 40 41  1  0
 41 44  1  0
 41 43  1  0
 42 40  2  0
 45 46  1  0
 45 20  1  0
 47 45  1  0
 49 50  1  0
 49 48  1  0
 51 52  2  0
 51 50  1  0
 53 55  1  0
 53 52  1  0
 54 65  2  0
 55 60  1  0
 56 64  1  0
 56 66  1  0
 57 63  1  0
 57 59  1  0
 58 64  1  0
 59 58  1  0
 60 59  2  0
 61 62  1  0
 61 55  2  0
 62 57  2  0
 63 56  1  0
 64 54  1  0
 66 68  2  0
 67 66  1  0
 69 67  1  0
 70 79  2  0
 70 75  1  0
 71 67  1  0
 71 75  1  0
 72 71  1  0
 73 74  1  0
 73 72  1  0
 74 70  1  0
 75 76  2  0
 76 77  1  0
 78 77  2  0
 79 78  1  0
 80 54  1  0
 80 81  1  0
 80 90  1  0
 81 84  1  0
 82 86  1  0
 82 81  1  0
 83 82  2  0
 86 85  1  0
 88 86  1  0
 88 89  1  0
 88 87  1  0
 90 93  1  1
 90 91  1  0
 92 90  1  0
M  ISO  4  10 100  18 100  52 101  53 101
M  END
>  <TORSDO>  (75) 
F 22

>  <SCORE>  (75) 
-11.680

>  <name>  (75) 
75

>  <ligand_id>  (75) 
75

>  <original_smiles>  (75) 
[H]c1nn(C(C([H])([H])[H])(C([H])([H])[H])C([H])([H])N([H])C(=O)N2C([H])([H])C([H])([H])C([H])([H])C([H])(n3nc(-c4c([H])c([H])c(Oc5c([H])c([H])c(F)c([H])c5F)c([H])c4[H])c(C(=O)N([H])[H])c3N([H])[H])C2([H])[H])c([H])c1C([H])(C([H])([H])[H])C([H])([H])C([H])([H])C([H])([H])Oc1c([H])c([H])c2c(c1[H])C([H])([H])N(C(=O)C([H])(N([H])C(=O)C([H])(N([H])C([H])([H])[H])C([H])([H])[H])C(C([H])([H])[H])(C([H])([H])[H])C([H])([H])[H])C([H])(C(=O)N([H])C1([H])c3c([H])c([H])c([H])c([H])c3C([H])([H])C([H])([H])C1([H])[H])C2([H])[H]

>  <smiles>  (75) 
[H]c1nn(C(C([H])([H])[H])(C([H])([H])[H])C([H])([H])N([H])C(=O)N2C([H])([H])C([H])([H])C([H])([H])C([H])(n3nc(-c4c([H])c([H])c(Oc5c([H])c([H])c(F)c([H])c5F)c([H])c4[H])c(C(=O)N([H])[H])c3N([H])[H])C2([H])[H])c([H])c1C([H])(C([H])([H])[H])C([H])([H])C([H])([H])C([H])([H])Oc1c([H])c([H])c2c(c1[H])C([H])([H])N(C(=O)C([H])(N([H])C(=O)C([H])(N([H])C([H])([H])[H])C([H])([H])[H])C(C([H])([H])[H])(C([H])([H])[H])C([H])([H])[H])C([H])(C(=O)N([H])C1([H])c3c([H])c([H])c([H])c([H])c3C([H])([H])C([H])([H])C1([H])[H])C2([H])[H]

$$$$
76:0:0
     RDKit          3D

 91 99  0  0  1  0  0  0  0  0999 V2000
  -31.1200  -20.6760   19.6180 C   0  0  0  0  0  1  0  0  0  0  0  0
  -30.0290  -20.5330   17.3710 C   0  0  0  0  0  1  0  0  0  0  0  0
  -29.7890  -20.4220   18.8890 C   0  0  1  0  0  0  0  0  0  0  0  0
  -30.2260  -17.6450   18.9650 C   0  0  0  0  0  3  0  0  0  0  0  0
  -29.7660  -16.2840   19.2930 C   0  0  0  0  0  0  0  0  0  0  0  0
  -29.3970  -18.8430   19.1740 C   0  0  0  0  0  0  0  0  0  0  0  0
  -27.8440  -17.3670   20.0440 C   0  0  0  0  0  0  0  0  0  0  0  0
  -28.5360  -16.2410   19.8490 N   0  0  0  0  0  0  0  0  0  0  0  0
  -28.1940  -18.6170   19.7290 N   0  0  0  0  0  0  0  0  0  0  0  0
  -30.6250  -14.9200   19.2550 C   0  0  0  0  0  0  0  0  0  0  0  0
  -30.7140  -12.4040   18.9650 C   0  0  0  0  0  2  0  0  0  0  0  0
  -29.7360  -11.9660   17.8490 C   0  0  0  0  0  2  0  0  0  0  0  0
  -28.3250  -11.7360   18.4190 C   0  0  0  0  0  2  0  0  0  0  0  0
  -27.8730  -12.8870   19.3580 C   0  0  0  0  0  3  0  0  0  0  0  0
  -28.9710  -13.2770   20.3680 C   0  0  0  0  0  2  0  0  0  0  0  0
  -30.1690  -13.6430   19.5970 N   0  0  0  0  0  0  0  0  0  0  0  0
  -31.7670  -14.9820   18.7780 O   0  0  0  0  0  0  0  0  0  0  0  0
  -25.6210  -13.4790   20.4160 C   0  0  0  0  0  0  0  0  0  0  0  0
  -24.5970  -12.7080   20.8950 C   0  0  0  0  0  0  0  0  0  0  0  0
  -25.0240  -11.3510   20.7590 C   0  0  0  0  0  0  0  0  0  0  0  0
  -26.6040  -12.5930   20.0140 N   0  0  0  0  0  0  0  0  0  0  0  0
  -26.2640  -11.3050   20.2840 N   0  0  0  0  0  0  0  0  0  0  0  0
  -24.3020  -10.0950   21.0010 C   0  0  0  0  0  0  0  0  0  0  0  0
  -24.7520   -9.1510   21.9520 C   0  0  0  0  0  3  0  0  0  0  0  0
  -24.0270   -7.9620   22.1790 C   0  0  0  0  0  3  0  0  0  0  0  0
  -22.8380   -7.7060   21.4550 C   0  0  0  0  0  0  0  0  0  0  0  0
  -22.4060   -8.6380   20.4950 C   0  0  0  0  0  3  0  0  0  0  0  0
  -23.1310   -9.8190   20.2670 C   0  0  0  0  0  3  0  0  0  0  0  0
  -22.0820   -6.5660   21.5910 O   0  0  0  0  0  0  0  0  0  0  0  0
  -21.9390   -5.9380   22.8020 C   0  0  0  0  0  0  0  0  0  0  0  0
  -21.4150   -6.6050   23.9320 C   0  0  0  0  0  3  0  0  0  0  0  0
  -21.2200   -5.9020   25.1370 C   0  0  0  0  0  3  0  0  0  0  0  0
  -21.5390   -4.5320   25.2140 C   0  0  0  0  0  0  0  0  0  0  0  0
  -22.0560   -3.8660   24.0890 C   0  0  0  0  0  3  0  0  0  0  0  0
  -22.2520   -4.5660   22.8860 C   0  0  0  0  0  0  0  0  0  0  0  0
  -22.7290   -3.9140   21.7990 F   0  0  0  0  0  0  0  0  0  0  0  0
  -21.3460   -3.8540   26.3690 F   0  0  0  0  0  0  0  0  0  0  0  0
  -23.2580  -13.1980   21.3610 C   0  0  0  0  0  0  0  0  0  0  0  0
  -22.6400  -12.4910   22.3020 N   0  0  0  0  0  0  0  0  0  0  0  0
  -22.7730  -14.2410   20.9260 O   0  0  0  0  0  0  0  0  0  0  0  0
  -23.0480  -11.6460   22.6740 H   0  0  0  0  0  0  0  0  0  0  0  0
  -21.7460  -12.8030   22.6550 H   0  0  0  0  0  0  0  0  0  0  0  0
  -25.7880  -14.8510   20.2650 N   0  0  0  0  0  0  0  0  0  0  0  0
  -25.0640  -15.5150   20.5150 H   0  0  0  0  0  0  0  0  0  0  0  0
  -26.6250  -15.2900   19.9030 H   0  0  0  0  0  0  0  0  0  0  0  0
  -25.4030  -16.8210   19.6410 C   0  0  0  0  0  1  0  0  0  0  0  0
  -26.4740  -17.1940   20.6740 C   0  0  0  0  0  2  0  0  0  0  0  0
  -28.7910  -21.7250   19.2930 C   0  0  0  0  0  2  0  0  0  0  0  0
  -29.1270  -23.3620   19.0160 C   0  0  0  0  0  3  0  0  0  0  0  0
  -28.2080  -24.6740   19.5260 C   0  0  0  0  0  3  0  0  0  0  0  0
  -28.5010  -26.1930   19.3460 O   0  0  0  0  0  0  0  0  0  0  0  0
  -25.1320  -31.5640   23.1380 C   0  0  0  0  0  0  0  0  0  0  0  0
  -27.4720  -27.1900   19.4790 C   0  0  0  0  0  0  0  0  0  0  0  0
  -23.8500  -30.4210   21.3690 C   0  0  0  0  0  3  0  0  0  0  0  0
  -25.2100  -28.9910   19.7260 C   0  0  0  0  0  0  0  0  0  0  0  0
  -26.4080  -30.6230   21.1760 C   0  0  0  0  0  2  0  0  0  0  0  0
  -26.4170  -29.3220   20.3550 C   0  0  0  0  0  0  0  0  0  0  0  0
  -27.5510  -28.4380   20.2150 C   0  0  0  0  0  3  0  0  0  0  0  0
  -26.2450  -26.9660   18.8210 C   0  0  0  0  0  3  0  0  0  0  0  0
  -25.1350  -27.8280   18.9470 C   0  0  0  0  0  3  0  0  0  0  0  0
  -24.0190  -29.9160   19.9120 C   0  0  0  0  0  2  0  0  0  0  0  0
  -25.1520  -30.8830   21.9520 N   0  0  0  0  0  0  0  0  0  0  0  0
  -24.0660  -31.8180   23.7190 O   0  0  0  0  0  0  0  0  0  0  0  0
  -23.1560  -29.3240   22.2150 C   0  0  0  0  0  0  0  0  0  0  0  0
  -21.8190  -29.2220   22.1100 N   0  0  0  0  0  0  0  0  0  0  0  0
  -23.8220  -28.5720   22.9320 O   0  0  0  0  0  0  0  0  0  0  0  0
  -21.3400  -29.8830   21.5150 H   0  0  0  0  0  0  0  0  0  0  0  0
  -18.3990  -28.1290   22.5990 C   0  0  0  0  0  0  0  0  0  0  0  0
  -20.9780  -28.2260   22.7800 C   0  0  0  0  0  3  0  0  0  0  0  0
  -20.9760  -26.8880   22.0070 C   0  0  0  0  0  2  0  0  0  0  0  0
  -19.8180  -26.7660   21.0110 C   0  0  0  0  0  2  0  0  0  0  0  0
  -18.4750  -26.8830   21.7340 C   0  0  0  0  0  2  0  0  0  0  0  0
  -19.5740  -28.7690   23.0760 C   0  0  0  0  0  0  0  0  0  0  0  0
  -19.4470  -29.9430   23.8510 C   0  0  0  0  0  3  0  0  0  0  0  0
  -18.1790  -30.4750   24.1500 C   0  0  0  0  0  3  0  0  0  0  0  0
  -17.0190  -29.8290   23.6880 C   0  0  0  0  0  3  0  0  0  0  0  0
  -17.1310  -28.6580   22.9180 C   0  0  0  0  0  3  0  0  0  0  0  0
  -26.4440  -32.0760   23.8070 C   0  0  0  0  0  3  0  0  0  0  0  0
  -26.1740  -33.4110   24.3640 N   0  0  0  0  0  0  0  0  0  0  0  0
  -26.4890  -34.5660   23.7640 C   0  0  0  0  0  0  0  0  0  0  0  0
  -27.1060  -34.6170   22.6960 O   0  0  0  0  0  0  0  0  0  0  0  0
  -25.6280  -33.4440   25.2130 H   0  0  0  0  0  0  0  0  0  0  0  0
  -24.7760  -36.4090   23.7910 C   0  0  0  0  0  1  0  0  0  0  0  0
  -26.0530  -35.8720   24.4580 C   0  0  0  0  0  3  0  0  0  0  0  0
  -28.2450  -36.6000   25.2930 C   0  0  0  0  0  1  0  0  0  0  0  0
  -27.0960  -36.9210   24.4500 N   0  0  0  0  0  0  0  0  0  0  0  0
  -26.7150  -37.8100   24.7620 H   0  0  0  0  0  0  0  0  0  0  0  0
  -26.9820  -31.1100   24.9330 C   0  0  1  0  0  0  0  0  0  0  0  0
  -25.9200  -30.7310   25.9920 C   0  0  0  0  0  1  0  0  0  0  0  0
  -27.5210  -29.7960   24.3220 C   0  0  0  0  0  1  0  0  0  0  0  0
  -28.1750  -31.7700   25.6640 C   0  0  0  0  0  1  0  0  0  0  0  0
  3  2  1  6
  3  6  1  0
  3 48  1  0
  3  1  1  0
  4  6  1  0
  4  5  2  0
  5  8  1  0
  6  9  2  0
  7 47  1  0
  8  7  2  0
  9  7  1  0
 10  5  1  0
 10 16  1  0
 11 16  1  0
 12 13  1  0
 12 11  1  0
 14 13  1  0
 14 21  1  0
 14 15  1  0
 16 15  1  0
 17 10  2  0
 18 19  2  0
 19 38  1  0
 20 19  1  0
 20 23  1  0
 21 22  1  0
 21 18  1  0
 22 20  2  0
 23 24  1  0
 24 25  2  0
 26 29  1  0
 26 25  1  0
 27 26  2  0
 28 27  1  0
 28 23  2  0
 29 30  1  0
 30 35  2  0
 30 31  1  0
 31 32  2  0
 32 33  1  0
 33 37  1  0
 34 33  2  0
 35 34  1  0
 36 35  1  0
 38 39  1  0
 39 42  1  0
 39 41  1  0
 40 38  2  0
 43 18  1  0
 43 44  1  0
 45 43  1  0
 46 47  1  0
 49 48  1  0
 49 50  2  0
 51 53  1  0
 51 50  1  0
 52 63  2  0
 53 58  1  0
 54 62  1  0
 54 64  1  0
 55 61  1  0
 55 57  1  0
 56 62  1  0
 57 56  1  0
 58 57  2  0
 59 60  1  0
 59 53  2  0
 60 55  2  0
 61 54  1  0
 62 52  1  0
 64 66  2  0
 65 64  1  0
 67 65  1  0
 68 77  2  0
 68 73  1  0
 69 65  1  0
 69 73  1  0
 70 69  1  0
 71 72  1  0
 71 70  1  0
 72 68  1  0
 73 74  2  0
 74 75  1  0
 76 75  2  0
 77 76  1  0
 78 52  1  0
 78 79  1  0
 78 88  1  0
 79 82  1  0
 80 79  1  0
 80 84  1  0
 81 80  2  0
 84 83  1  0
 86 84  1  0
 86 87  1  0
 86 85  1  0
 88 91  1  1
 88 89  1  0
 90 88  1  0
M  ISO  4   5 100  10 100  50 101  51 101
M  END
>  <TORSDO>  (76) 
F 21

>  <SCORE>  (76) 
-10.782

>  <name>  (76) 
76

>  <ligand_id>  (76) 
76

>  <original_smiles>  (76) 
[H]c1c(C(=O)N2C([H])([H])C([H])([H])C([H])([H])C([H])(n3nc(-c4c([H])c([H])c(Oc5c([H])c([H])c(F)c([H])c5F)c([H])c4[H])c(C(=O)N([H])[H])c3N([H])[H])C2([H])[H])nc(C([H])([H])C([H])([H])[H])nc1C(C([H])([H])[H])(C([H])([H])[H])C([H])([H])C([H])([H])C([H])([H])Oc1c([H])c([H])c2c(c1[H])C([H])([H])N(C(=O)C([H])(N([H])C(=O)C([H])(N([H])C([H])([H])[H])C([H])([H])[H])C(C([H])([H])[H])(C([H])([H])[H])C([H])([H])[H])C([H])(C(=O)N([H])C1([H])c3c([H])c([H])c([H])c([H])c3C([H])([H])C([H])([H])C1([H])[H])C2([H])[H]

>  <smiles>  (76) 
[H]c1c(C(=O)N2C([H])([H])C([H])([H])C([H])([H])C([H])(n3nc(-c4c([H])c([H])c(Oc5c([H])c([H])c(F)c([H])c5F)c([H])c4[H])c(C(=O)N([H])[H])c3N([H])[H])C2([H])[H])nc(C([H])([H])C([H])([H])[H])nc1C(C([H])([H])[H])(C([H])([H])[H])C([H])([H])C([H])([H])C([H])([H])Oc1c([H])c([H])c2c(c1[H])C([H])([H])N(C(=O)C([H])(N([H])C(=O)C([H])(N([H])C([H])([H])[H])C([H])([H])[H])C(C([H])([H])[H])(C([H])([H])[H])C([H])([H])[H])C([H])(C(=O)N([H])C1([H])c3c([H])c([H])c([H])c([H])c3C([H])([H])C([H])([H])C1([H])[H])C2([H])[H]

$$$$
77:0:0
     RDKit          3D

 94102  0  0  1  0  0  0  0  0999 V2000
  -30.1870  -19.2530   19.9500 C   0  0  0  0  0  3  0  0  0  0  0  0
  -30.3850  -20.3850   20.7070 C   0  0  0  0  0  0  0  0  0  0  0  0
  -30.3790  -19.8700   22.0390 C   0  0  0  0  0  0  0  0  0  0  0  0
  -30.5860  -20.6140   23.3260 C   0  0  0  0  0  1  0  0  0  0  0  0
  -30.1600  -18.5600   22.0840 N   0  0  0  0  0  0  0  0  0  0  0  0
  -30.0690  -18.1560   20.7920 N   0  0  0  0  0  0  0  0  0  0  0  0
  -28.2620  -16.5430   20.9240 C   0  0  0  0  0  1  0  0  0  0  0  0
  -29.7090  -16.7570   20.4490 C   0  0  0  0  0  3  0  0  0  0  0  0
  -30.4650  -14.9680   22.2530 C   0  0  0  0  0  1  0  0  0  0  0  0
  -32.1570  -16.1870   20.9870 C   0  0  0  0  0  1  0  0  0  0  0  0
  -30.7210  -15.5820   20.8450 C   0  0  2  0  0  0  0  0  0  0  0  0
  -30.8280  -14.4680   19.7080 C   0  0  0  0  0  0  0  0  0  0  0  0
  -30.2460  -12.4270   18.4080 C   0  0  0  0  0  2  0  0  0  0  0  0
  -29.2010  -12.7250   17.3140 C   0  0  0  0  0  2  0  0  0  0  0  0
  -27.7780  -12.5790   17.8780 C   0  0  0  0  0  2  0  0  0  0  0  0
  -27.5980  -13.3410   19.2160 C   0  0  0  0  0  3  0  0  0  0  0  0
  -28.7560  -13.0260   20.1950 C   0  0  0  0  0  2  0  0  0  0  0  0
  -30.0320  -13.3580   19.5430 N   0  0  0  0  0  0  0  0  0  0  0  0
  -31.7520  -14.6380   18.9050 O   0  0  0  0  0  0  0  0  0  0  0  0
  -25.2700  -13.9530   20.1380 C   0  0  0  0  0  0  0  0  0  0  0  0
  -24.2420  -13.1860   20.6130 C   0  0  0  0  0  0  0  0  0  0  0  0
  -24.6890  -11.8330   20.5260 C   0  0  0  0  0  0  0  0  0  0  0  0
  -26.2910  -13.0710   19.8140 N   0  0  0  0  0  0  0  0  0  0  0  0
  -25.9460  -11.7880   20.1000 N   0  0  0  0  0  0  0  0  0  0  0  0
  -23.9710  -10.5760   20.7690 C   0  0  0  0  0  0  0  0  0  0  0  0
  -24.4420   -9.6240   21.7010 C   0  0  0  0  0  3  0  0  0  0  0  0
  -23.7230   -8.4320   21.9300 C   0  0  0  0  0  3  0  0  0  0  0  0
  -22.5190   -8.1820   21.2290 C   0  0  0  0  0  0  0  0  0  0  0  0
  -22.0660   -9.1240   20.2870 C   0  0  0  0  0  3  0  0  0  0  0  0
  -22.7850  -10.3070   20.0560 C   0  0  0  0  0  3  0  0  0  0  0  0
  -21.7670   -7.0400   21.3690 O   0  0  0  0  0  0  0  0  0  0  0  0
  -21.7280   -6.3460   22.5510 C   0  0  0  0  0  0  0  0  0  0  0  0
  -21.3120   -6.9510   23.7580 C   0  0  0  0  0  3  0  0  0  0  0  0
  -21.2190   -6.1830   24.9350 C   0  0  0  0  0  3  0  0  0  0  0  0
  -21.5320   -4.8100   24.9070 C   0  0  0  0  0  0  0  0  0  0  0  0
  -21.9420   -4.2050   23.7060 C   0  0  0  0  0  3  0  0  0  0  0  0
  -22.0370   -4.9710   22.5310 C   0  0  0  0  0  0  0  0  0  0  0  0
  -22.4110   -4.3790   21.3710 F   0  0  0  0  0  0  0  0  0  0  0  0
  -21.4360   -4.0700   26.0360 F   0  0  0  0  0  0  0  0  0  0  0  0
  -22.8830  -13.6740   21.0250 C   0  0  0  0  0  0  0  0  0  0  0  0
  -22.2450  -12.9870   21.9660 N   0  0  0  0  0  0  0  0  0  0  0  0
  -22.4000  -14.7000   20.5490 O   0  0  0  0  0  0  0  0  0  0  0  0
  -22.6510  -12.1570   22.3720 H   0  0  0  0  0  0  0  0  0  0  0  0
  -21.3380  -13.2960   22.2840 H   0  0  0  0  0  0  0  0  0  0  0  0
  -25.3980  -15.3200   19.9300 N   0  0  0  0  0  0  0  0  0  0  0  0
  -24.6370  -15.9650   20.1050 H   0  0  0  0  0  0  0  0  0  0  0  0
  -26.2090  -15.7640   19.5200 H   0  0  0  0  0  0  0  0  0  0  0  0
  -30.6240  -21.8220   20.2410 C   0  0  0  0  0  3  0  0  0  0  0  0
  -29.5320  -22.8650   20.6450 C   0  0  0  0  0  3  0  0  0  0  0  0
  -30.0670  -24.5100   18.7610 C   0  0  0  0  0  1  0  0  0  0  0  0
  -30.9860  -24.9240   21.0690 C   0  0  0  0  0  1  0  0  0  0  0  0
  -29.7860  -24.3750   20.2720 C   0  0  2  0  0  0  0  0  0  0  0  0
  -28.5210  -25.2310   20.6190 C   0  0  0  0  0  2  0  0  0  0  0  0
  -28.6450  -26.6490   20.3390 O   0  0  0  0  0  0  0  0  0  0  0  0
  -24.5730  -31.7170   23.3330 C   0  0  0  0  0  0  0  0  0  0  0  0
  -27.4660  -27.3770   20.2960 C   0  0  0  0  0  0  0  0  0  0  0  0
  -23.4850  -30.3310   21.5980 C   0  0  0  0  0  3  0  0  0  0  0  0
  -25.0440  -28.8570   20.2190 C   0  0  0  0  0  0  0  0  0  0  0  0
  -26.0140  -30.7380   21.5460 C   0  0  0  0  0  2  0  0  0  0  0  0
  -26.1630  -29.3830   20.8780 C   0  0  0  0  0  0  0  0  0  0  0  0
  -27.3770  -28.6530   20.9100 C   0  0  0  0  0  3  0  0  0  0  0  0
  -26.3300  -26.8830   19.6150 C   0  0  0  0  0  3  0  0  0  0  0  0
  -25.1250  -27.6070   19.5830 C   0  0  0  0  0  3  0  0  0  0  0  0
  -23.7830  -29.6900   20.2180 C   0  0  0  0  0  2  0  0  0  0  0  0
  -24.7060  -30.9440   22.2180 N   0  0  0  0  0  0  0  0  0  0  0  0
  -23.4580  -31.9540   23.8210 O   0  0  0  0  0  0  0  0  0  0  0  0
  -22.8060  -29.2740   22.4990 C   0  0  0  0  0  0  0  0  0  0  0  0
  -21.4900  -29.0820   22.3130 N   0  0  0  0  0  0  0  0  0  0  0  0
  -23.4620  -28.6300   23.3220 O   0  0  0  0  0  0  0  0  0  0  0  0
  -21.0190  -29.6570   21.6280 H   0  0  0  0  0  0  0  0  0  0  0  0
  -18.1090  -27.8410   22.6370 C   0  0  0  0  0  0  0  0  0  0  0  0
  -20.6520  -28.1110   23.0190 C   0  0  0  0  0  3  0  0  0  0  0  0
  -20.7910  -26.7000   22.4020 C   0  0  0  0  0  2  0  0  0  0  0  0
  -19.7330  -26.4020   21.3340 C   0  0  0  0  0  2  0  0  0  0  0  0
  -18.3260  -26.5150   21.9270 C   0  0  0  0  0  2  0  0  0  0  0  0
  -19.2030  -28.5980   23.1360 C   0  0  0  0  0  0  0  0  0  0  0  0
  -18.9490  -29.8400   23.7550 C   0  0  0  0  0  3  0  0  0  0  0  0
  -17.6340  -30.3250   23.8840 C   0  0  0  0  0  3  0  0  0  0  0  0
  -16.5550  -29.5650   23.4030 C   0  0  0  0  0  3  0  0  0  0  0  0
  -16.7930  -28.3240   22.7850 C   0  0  0  0  0  3  0  0  0  0  0  0
  -25.8100  -32.3600   24.0330 C   0  0  0  0  0  3  0  0  0  0  0  0
  -25.4450  -33.7360   24.3990 N   0  0  0  0  0  0  0  0  0  0  0  0
  -25.7850  -34.8250   23.6960 C   0  0  0  0  0  0  0  0  0  0  0  0
  -26.5080  -34.7790   22.6970 O   0  0  0  0  0  0  0  0  0  0  0  0
  -24.8060  -33.8430   25.1730 H   0  0  0  0  0  0  0  0  0  0  0  0
  -24.0220  -36.5820   23.3270 C   0  0  0  0  0  1  0  0  0  0  0  0
  -25.2380  -36.1820   24.1790 C   0  0  0  0  0  3  0  0  0  0  0  0
  -27.3090  -37.0920   25.1330 C   0  0  0  0  0  1  0  0  0  0  0  0
  -26.2420  -37.2660   24.1520 N   0  0  0  0  0  0  0  0  0  0  0  0
  -25.8030  -38.1680   24.3190 H   0  0  0  0  0  0  0  0  0  0  0  0
  -26.2960  -31.5550   25.3010 C   0  0  1  0  0  0  0  0  0  0  0  0
  -25.1660  -31.2370   26.3080 C   0  0  0  0  0  1  0  0  0  0  0  0
  -26.9450  -30.2160   24.8820 C   0  0  0  0  0  1  0  0  0  0  0  0
  -27.3860  -32.3610   26.0470 C   0  0  0  0  0  1  0  0  0  0  0  0
  1  2  2  0
  1  6  1  0
  2  3  1  0
  3  5  2  0
  3  4  1  0
  6  5  1  0
  8  6  1  0
  8 11  1  0
  8  7  1  0
 11 10  1  1
 11  9  1  0
 12 11  1  0
 13 18  1  0
 14 15  1  0
 14 13  1  0
 16 15  1  0
 16 23  1  0
 16 17  1  0
 18 12  1  0
 18 17  1  0
 19 12  2  0
 20 21  2  0
 21 40  1  0
 22 21  1  0
 22 25  1  0
 23 24  1  0
 23 20  1  0
 24 22  2  0
 25 26  1  0
 26 27  2  0
 28 31  1  0
 28 27  1  0
 29 28  2  0
 30 29  1  0
 30 25  2  0
 31 32  1  0
 32 33  1  0
 33 34  2  0
 35 34  1  0
 35 39  1  0
 36 35  2  0
 37 32  2  0
 37 36  1  0
 38 37  1  0
 40 41  1  0
 41 44  1  0
 41 43  1  0
 42 40  2  0
 45 46  1  0
 45 20  1  0
 47 45  1  0
 48 49  2  0
 48  2  1  0
 52 50  1  6
 52 53  1  0
 52 49  1  0
 52 51  1  0
 54 53  1  0
 55 66  2  0
 56 54  1  0
 56 61  1  0
 57 65  1  0
 57 67  1  0
 58 60  1  0
 59 65  1  0
 60 61  2  0
 60 59  1  0
 62 56  2  0
 63 62  1  0
 63 58  2  0
 64 58  1  0
 64 57  1  0
 65 55  1  0
 67 69  2  0
 68 67  1  0
 70 68  1  0
 71 80  2  0
 71 76  1  0
 72 68  1  0
 72 76  1  0
 73 72  1  0
 74 75  1  0
 74 73  1  0
 75 71  1  0
 76 77  2  0
 77 78  1  0
 79 78  2  0
 80 79  1  0
 81 55  1  0
 81 82  1  0
 81 91  1  0
 82 85  1  0
 83 87  1  0
 83 82  1  0
 84 83  2  0
 87 86  1  0
 89 87  1  0
 89 90  1  0
 89 88  1  0
 91 94  1  1
 91 92  1  0
 93 91  1  0
M  ISO  4  11 100  12 100  53 101  54 101
M  END
>  <TORSDO>  (77) 
F 22

>  <SCORE>  (77) 
-10.269

>  <name>  (77) 
77

>  <ligand_id>  (77) 
77

>  <original_smiles>  (77) 
[H]c1c([H])c([H])c2c(c1[H])C([H])([H])C([H])([H])C([H])([H])C2([H])N([H])C(=O)C1([H])N(C(=O)C([H])(N([H])C(=O)C([H])(N([H])C([H])([H])[H])C([H])([H])[H])C(C([H])([H])[H])(C([H])([H])[H])C([H])([H])[H])C([H])([H])c2c([H])c(OC([H])([H])C(C([H])([H])[H])(C([H])([H])[H])C([H])([H])C([H])([H])c3c(C([H])([H])[H])nn(C([H])(C([H])([H])[H])C(C(=O)N4C([H])([H])C([H])([H])C([H])([H])C([H])(n5nc(-c6c([H])c([H])c(Oc7c([H])c([H])c(F)c([H])c7F)c([H])c6[H])c(C(=O)N([H])[H])c5N([H])[H])C4([H])[H])(C([H])([H])[H])C([H])([H])[H])c3[H])c([H])c([H])c2C1([H])[H]

>  <smiles>  (77) 
[H]c1c([H])c([H])c2c(c1[H])C([H])([H])C([H])([H])C([H])([H])C2([H])N([H])C(=O)C1([H])N(C(=O)C([H])(N([H])C(=O)C([H])(N([H])C([H])([H])[H])C([H])([H])[H])C(C([H])([H])[H])(C([H])([H])[H])C([H])([H])[H])C([H])([H])c2c([H])c(OC([H])([H])C(C([H])([H])[H])(C([H])([H])[H])C([H])([H])C([H])([H])c3c(C([H])([H])[H])nn(C([H])(C([H])([H])[H])C(C(=O)N4C([H])([H])C([H])([H])C([H])([H])C([H])(n5nc(-c6c([H])c([H])c(Oc7c([H])c([H])c(F)c([H])c7F)c([H])c6[H])c(C(=O)N([H])[H])c5N([H])[H])C4([H])[H])(C([H])([H])[H])C([H])([H])[H])c3[H])c([H])c([H])c2C1([H])[H]

$$$$
78:0:0
     RDKit          3D

 94102  0  0  1  0  0  0  0  0999 V2000
  -29.7390  -18.9280   21.2150 C   0  0  0  0  0  3  0  0  0  0  0  0
  -29.6570  -20.3000   20.8760 C   0  0  0  0  0  3  0  0  0  0  0  0
  -29.7760  -17.9730   20.1690 C   0  0  0  0  0  0  0  0  0  0  0  0
  -29.6170  -20.6500   19.5090 C   0  0  0  0  0  0  0  0  0  0  0  0
  -29.7570  -18.3730   18.8720 N   0  0  0  0  0  0  0  0  0  0  0  0
  -29.6600  -19.6730   18.5570 N   0  0  0  0  0  0  0  0  0  0  0  0
  -29.8730  -22.2630   17.5670 C   0  0  0  0  0  1  0  0  0  0  0  0
  -27.8070  -22.2980   18.9660 C   0  0  0  0  0  1  0  0  0  0  0  0
  -29.3370  -22.1050   19.0140 C   0  0  1  0  0  0  0  0  0  0  0  0
  -30.0740  -23.2310   19.8590 C   0  0  0  0  0  2  0  0  0  0  0  0
  -29.3050  -24.3830   20.5940 C   0  0  0  0  0  2  0  0  0  0  0  0
  -28.4760  -25.3680   19.7230 C   0  0  0  0  0  2  0  0  0  0  0  0
  -28.4660  -26.7350   20.2100 O   0  0  0  0  0  0  0  0  0  0  0  0
  -24.5950  -31.8920   23.2970 C   0  0  0  0  0  0  0  0  0  0  0  0
  -27.2840  -27.4680   20.1770 C   0  0  0  0  0  0  0  0  0  0  0  0
  -23.4000  -30.4750   21.6660 C   0  0  0  0  0  3  0  0  0  0  0  0
  -24.8650  -28.9700   20.2170 C   0  0  0  0  0  0  0  0  0  0  0  0
  -25.9230  -30.8640   21.4520 C   0  0  0  0  0  2  0  0  0  0  0  0
  -26.0240  -29.4930   20.8060 C   0  0  0  0  0  0  0  0  0  0  0  0
  -27.2290  -28.7460   20.7910 C   0  0  0  0  0  3  0  0  0  0  0  0
  -26.1050  -26.9900   19.5510 C   0  0  0  0  0  3  0  0  0  0  0  0
  -24.9060  -27.7190   19.5850 C   0  0  0  0  0  3  0  0  0  0  0  0
  -23.6060  -29.8070   20.2820 C   0  0  0  0  0  2  0  0  0  0  0  0
  -24.6600  -31.0920   22.1960 N   0  0  0  0  0  0  0  0  0  0  0  0
  -23.5150  -32.1440   23.8470 O   0  0  0  0  0  0  0  0  0  0  0  0
  -22.7760  -29.4390   22.6280 C   0  0  0  0  0  0  0  0  0  0  0  0
  -21.4730  -29.1630   22.4510 N   0  0  0  0  0  0  0  0  0  0  0  0
  -23.4630  -28.8850   23.4900 O   0  0  0  0  0  0  0  0  0  0  0  0
  -20.9770  -29.6600   21.7260 H   0  0  0  0  0  0  0  0  0  0  0  0
  -18.1900  -27.6940   22.7910 C   0  0  0  0  0  0  0  0  0  0  0  0
  -20.6900  -28.1960   23.2190 C   0  0  0  0  0  3  0  0  0  0  0  0
  -20.9570  -26.7520   22.7330 C   0  0  0  0  0  2  0  0  0  0  0  0
  -19.9630  -26.2810   21.6670 C   0  0  0  0  0  2  0  0  0  0  0  0
  -18.5320  -26.3330   22.2070 C   0  0  0  0  0  2  0  0  0  0  0  0
  -19.2040  -28.5750   23.2520 C   0  0  0  0  0  0  0  0  0  0  0  0
  -18.8350  -29.8420   23.7530 C   0  0  0  0  0  3  0  0  0  0  0  0
  -17.4830  -30.2330   23.8000 C   0  0  0  0  0  3  0  0  0  0  0  0
  -16.4820  -29.3500   23.3590 C   0  0  0  0  0  3  0  0  0  0  0  0
  -16.8350  -28.0840   22.8600 C   0  0  0  0  0  3  0  0  0  0  0  0
  -25.8750  -32.5490   23.9020 C   0  0  0  0  0  3  0  0  0  0  0  0
  -25.5490  -33.9480   24.2120 N   0  0  0  0  0  0  0  0  0  0  0  0
  -25.8590  -34.9920   23.4310 C   0  0  0  0  0  0  0  0  0  0  0  0
  -26.5220  -34.8790   22.3960 O   0  0  0  0  0  0  0  0  0  0  0  0
  -24.9590  -34.1050   25.0160 H   0  0  0  0  0  0  0  0  0  0  0  0
  -24.1000  -36.7520   23.0610 C   0  0  0  0  0  1  0  0  0  0  0  0
  -25.3570  -36.3820   23.8670 C   0  0  0  0  0  3  0  0  0  0  0  0
  -27.4890  -37.3140   24.6530 C   0  0  0  0  0  1  0  0  0  0  0  0
  -26.3720  -37.4480   23.7200 N   0  0  0  0  0  0  0  0  0  0  0  0
  -25.9550  -38.3650   23.8550 H   0  0  0  0  0  0  0  0  0  0  0  0
  -26.4040  -31.8020   25.1870 C   0  0  1  0  0  0  0  0  0  0  0  0
  -25.3110  -31.5360   26.2500 C   0  0  0  0  0  1  0  0  0  0  0  0
  -27.0330  -30.4420   24.8100 C   0  0  0  0  0  1  0  0  0  0  0  0
  -27.5270  -32.6330   25.8510 C   0  0  0  0  0  1  0  0  0  0  0  0
  -28.4700  -16.2120   21.3910 C   0  0  0  0  0  1  0  0  0  0  0  0
  -29.6560  -16.4460   20.4230 C   0  0  0  0  0  3  0  0  0  0  0  0
  -31.0850  -15.1320   22.2140 C   0  0  0  0  0  1  0  0  0  0  0  0
  -32.2240  -16.5560   20.6010 C   0  0  0  0  0  1  0  0  0  0  0  0
  -30.9830  -15.6170   20.7390 C   0  0  2  0  0  0  0  0  0  0  0  0
  -31.2070  -14.3990   19.7450 C   0  0  0  0  0  0  0  0  0  0  0  0
  -30.6900  -12.2260   18.6540 C   0  0  0  0  0  2  0  0  0  0  0  0
  -29.6920  -12.4100   17.4940 C   0  0  0  0  0  2  0  0  0  0  0  0
  -28.2450  -12.3230   18.0090 C   0  0  0  0  0  2  0  0  0  0  0  0
  -28.0110  -13.2180   19.2540 C   0  0  0  0  0  3  0  0  0  0  0  0
  -29.1270  -13.0190   20.3040 C   0  0  0  0  0  2  0  0  0  0  0  0
  -30.4280  -13.2730   19.6670 N   0  0  0  0  0  0  0  0  0  0  0  0
  -32.1860  -14.4890   18.9950 O   0  0  0  0  0  0  0  0  0  0  0  0
  -25.6940  -13.9360   20.1090 C   0  0  0  0  0  0  0  0  0  0  0  0
  -24.6240  -13.2140   20.5680 C   0  0  0  0  0  0  0  0  0  0  0  0
  -25.0250  -11.8440   20.5240 C   0  0  0  0  0  0  0  0  0  0  0  0
  -26.6840  -13.0070   19.8260 N   0  0  0  0  0  0  0  0  0  0  0  0
  -26.2890  -11.7460   20.1310 N   0  0  0  0  0  0  0  0  0  0  0  0
  -24.2610  -10.6170   20.7790 C   0  0  0  0  0  0  0  0  0  0  0  0
  -24.6830   -9.6660   21.7340 C   0  0  0  0  0  3  0  0  0  0  0  0
  -23.9180   -8.5040   21.9730 C   0  0  0  0  0  3  0  0  0  0  0  0
  -22.7190   -8.2820   21.2570 C   0  0  0  0  0  0  0  0  0  0  0  0
  -22.3160   -9.2210   20.2880 C   0  0  0  0  0  3  0  0  0  0  0  0
  -23.0820  -10.3730   20.0480 C   0  0  0  0  0  3  0  0  0  0  0  0
  -21.9260   -7.1690   21.4040 O   0  0  0  0  0  0  0  0  0  0  0  0
  -21.8390   -6.5020   22.6000 C   0  0  0  0  0  0  0  0  0  0  0  0
  -21.4270   -7.1470   23.7850 C   0  0  0  0  0  3  0  0  0  0  0  0
  -21.2860   -6.4090   24.9760 C   0  0  0  0  0  3  0  0  0  0  0  0
  -21.5450   -5.0260   24.9830 C   0  0  0  0  0  0  0  0  0  0  0  0
  -21.9490   -4.3800   23.8030 C   0  0  0  0  0  3  0  0  0  0  0  0
  -22.0940   -5.1150   22.6130 C   0  0  0  0  0  0  0  0  0  0  0  0
  -22.4640   -4.4820   21.4730 F   0  0  0  0  0  0  0  0  0  0  0  0
  -21.4010   -4.3150   26.1270 F   0  0  0  0  0  0  0  0  0  0  0  0
  -23.2710  -13.7560   20.9310 C   0  0  0  0  0  0  0  0  0  0  0  0
  -22.5830  -13.1080   21.8660 N   0  0  0  0  0  0  0  0  0  0  0  0
  -22.8360  -14.7850   20.4180 O   0  0  0  0  0  0  0  0  0  0  0  0
  -22.9510  -12.2730   22.2950 H   0  0  0  0  0  0  0  0  0  0  0  0
  -21.6820  -13.4560   22.1620 H   0  0  0  0  0  0  0  0  0  0  0  0
  -25.8940  -15.2920   19.8820 N   0  0  0  0  0  0  0  0  0  0  0  0
  -25.1440  -15.9660   19.9840 H   0  0  0  0  0  0  0  0  0  0  0  0
  -26.7160  -15.6820   19.4410 H   0  0  0  0  0  0  0  0  0  0  0  0
  2  1  1  0
  3 55  1  0
  3  1  2  0
  4  2  2  0
  5  3  1  0
  6  5  2  0
  6  4  1  0
  9  7  1  6
  8  9  1  0
  9  4  1  0
  9 10  1  0
 10 11  1  0
 12 13  1  0
 12 11  1  0
 14 25  2  0
 15 13  1  0
 15 20  1  0
 16 24  1  0
 16 26  1  0
 17 23  1  0
 17 19  1  0
 18 24  1  0
 19 18  1  0
 20 19  2  0
 21 22  1  0
 21 15  2  0
 22 17  2  0
 23 16  1  0
 24 14  1  0
 26 28  2  0
 27 26  1  0
 29 27  1  0
 30 39  2  0
 30 35  1  0
 31 27  1  0
 31 35  1  0
 32 31  1  0
 33 34  1  0
 33 32  1  0
 34 30  1  0
 35 36  2  0
 36 37  1  0
 38 37  2  0
 39 38  1  0
 40 14  1  0
 40 41  1  0
 40 50  1  0
 41 44  1  0
 42 46  1  0
 42 41  1  0
 43 42  2  0
 46 45  1  0
 48 49  1  0
 48 46  1  0
 48 47  1  0
 50 53  1  1
 50 51  1  0
 52 50  1  0
 55 58  1  0
 55 54  1  0
 58 57  1  6
 58 56  1  0
 59 58  1  0
 60 65  1  0
 61 62  1  0
 61 60  1  0
 63 62  1  0
 63 70  1  0
 63 64  1  0
 65 59  1  0
 65 64  1  0
 66 59  2  0
 67 68  2  0
 68 87  1  0
 69 68  1  0
 69 72  1  0
 70 67  1  0
 70 71  1  0
 71 69  2  0
 72 73  1  0
 73 74  2  0
 75 78  1  0
 75 74  1  0
 76 75  2  0
 77 76  1  0
 77 72  2  0
 78 79  1  0
 79 84  2  0
 79 80  1  0
 80 81  2  0
 81 82  1  0
 82 86  1  0
 83 82  2  0
 84 83  1  0
 85 84  1  0
 87 88  1  0
 88 91  1  0
 88 90  1  0
 89 87  2  0
 92 93  1  0
 92 67  1  0
 94 92  1  0
M  ISO  4  12 101  13 101  58 100  59 100
M  END
>  <TORSDO>  (78) 
F 22

>  <SCORE>  (78) 
-11.374

>  <name>  (78) 
78

>  <ligand_id>  (78) 
78

>  <original_smiles>  (78) 
[H]c1c(C([H])(C([H])([H])[H])C(C(=O)N2C([H])([H])C([H])([H])C([H])([H])C([H])(n3nc(-c4c([H])c([H])c(Oc5c([H])c([H])c(F)c([H])c5F)c([H])c4[H])c(C(=O)N([H])[H])c3N([H])[H])C2([H])[H])(C([H])([H])[H])C([H])([H])[H])nnc(C(C([H])([H])[H])(C([H])([H])[H])C([H])([H])C([H])([H])C([H])([H])Oc2c([H])c([H])c3c(c2[H])C([H])([H])N(C(=O)C([H])(N([H])C(=O)C([H])(N([H])C([H])([H])[H])C([H])([H])[H])C(C([H])([H])[H])(C([H])([H])[H])C([H])([H])[H])C([H])(C(=O)N([H])C2([H])c4c([H])c([H])c([H])c([H])c4C([H])([H])C([H])([H])C2([H])[H])C3([H])[H])c1[H]

>  <smiles>  (78) 
[H]c1c(C([H])(C([H])([H])[H])C(C(=O)N2C([H])([H])C([H])([H])C([H])([H])C([H])(n3nc(-c4c([H])c([H])c(Oc5c([H])c([H])c(F)c([H])c5F)c([H])c4[H])c(C(=O)N([H])[H])c3N([H])[H])C2([H])[H])(C([H])([H])[H])C([H])([H])[H])nnc(C(C([H])([H])[H])(C([H])([H])[H])C([H])([H])C([H])([H])C([H])([H])Oc2c([H])c([H])c3c(c2[H])C([H])([H])N(C(=O)C([H])(N([H])C(=O)C([H])(N([H])C([H])([H])[H])C([H])([H])[H])C(C([H])([H])[H])(C([H])([H])[H])C([H])([H])[H])C([H])(C(=O)N([H])C2([H])c4c([H])c([H])c([H])c([H])c4C([H])([H])C([H])([H])C2([H])[H])C3([H])[H])c1[H]

$$$$
79:0:0
     RDKit          3D

 93101  0  0  1  0  0  0  0  0999 V2000
  -27.5250  -20.1000   20.0340 C   0  0  0  0  0  3  0  0  0  0  0  0
  -26.9670  -18.8720   19.8120 C   0  0  0  0  0  0  0  0  0  0  0  0
  -29.1810  -18.5740   20.1110 C   0  0  0  0  0  3  0  0  0  0  0  0
  -25.5560  -18.4590   19.5540 C   0  0  0  0  0  1  0  0  0  0  0  0
  -28.8730  -19.9360   20.2460 N   0  0  0  0  0  0  0  0  0  0  0  0
  -28.0020  -17.9840   19.8620 N   0  0  0  0  0  0  0  0  0  0  0  0
  -27.8890  -16.9860   19.7250 H   0  0  0  0  0  0  0  0  0  0  0  0
  -30.8950  -17.5790   18.5640 C   0  0  0  0  0  1  0  0  0  0  0  0
  -30.4800  -17.6710   20.0430 C   0  0  0  0  0  3  0  0  0  0  0  0
  -30.7070  -16.3290   22.2420 C   0  0  0  0  0  1  0  0  0  0  0  0
  -30.3940  -16.1810   20.7400 C   0  0  0  0  0  3  0  0  0  0  0  0
  -31.1740  -14.8690   20.1910 C   0  0  0  0  0  0  0  0  0  0  0  0
  -30.9560  -12.6190   19.0870 C   0  0  0  0  0  2  0  0  0  0  0  0
  -29.9900  -12.7310   17.8840 C   0  0  0  0  0  2  0  0  0  0  0  0
  -28.5230  -12.5710   18.3320 C   0  0  0  0  0  2  0  0  0  0  0  0
  -28.1890  -13.4390   19.5720 C   0  0  0  0  0  3  0  0  0  0  0  0
  -29.2590  -13.2780   20.6720 C   0  0  0  0  0  2  0  0  0  0  0  0
  -30.5560  -13.6390   20.0840 N   0  0  0  0  0  0  0  0  0  0  0  0
  -32.3320  -14.9870   19.7760 O   0  0  0  0  0  0  0  0  0  0  0  0
  -25.8290  -14.0850   20.3410 C   0  0  0  0  0  0  0  0  0  0  0  0
  -24.7540  -13.3350   20.7360 C   0  0  0  0  0  0  0  0  0  0  0  0
  -25.1840  -11.9720   20.6850 C   0  0  0  0  0  0  0  0  0  0  0  0
  -26.8450  -13.1810   20.0790 N   0  0  0  0  0  0  0  0  0  0  0  0
  -26.4670  -11.9060   20.3480 N   0  0  0  0  0  0  0  0  0  0  0  0
  -24.4330  -10.7250   20.8760 C   0  0  0  0  0  0  0  0  0  0  0  0
  -24.8010   -9.7860   21.8640 C   0  0  0  0  0  3  0  0  0  0  0  0
  -24.0530   -8.6020   22.0420 C   0  0  0  0  0  3  0  0  0  0  0  0
  -22.9220   -8.3480   21.2280 C   0  0  0  0  0  0  0  0  0  0  0  0
  -22.5750   -9.2740   20.2300 C   0  0  0  0  0  3  0  0  0  0  0  0
  -23.3230  -10.4500   20.0520 C   0  0  0  0  0  3  0  0  0  0  0  0
  -22.1520   -7.2140   21.3130 O   0  0  0  0  0  0  0  0  0  0  0  0
  -21.9430   -6.5730   22.5080 C   0  0  0  0  0  0  0  0  0  0  0  0
  -21.3590   -7.2290   23.6130 C   0  0  0  0  0  3  0  0  0  0  0  0
  -21.0980   -6.5140   24.7990 C   0  0  0  0  0  3  0  0  0  0  0  0
  -21.4100   -5.1440   24.8780 C   0  0  0  0  0  0  0  0  0  0  0  0
  -21.9860   -4.4860   23.7770 C   0  0  0  0  0  3  0  0  0  0  0  0
  -22.2480   -5.1990   22.5930 C   0  0  0  0  0  0  0  0  0  0  0  0
  -22.7830   -4.5570   21.5270 F   0  0  0  0  0  0  0  0  0  0  0  0
  -21.1520   -4.4540   26.0150 F   0  0  0  0  0  0  0  0  0  0  0  0
  -23.3710  -13.8400   21.0280 C   0  0  0  0  0  0  0  0  0  0  0  0
  -22.6480  -13.1690   21.9180 N   0  0  0  0  0  0  0  0  0  0  0  0
  -22.9450  -14.8660   20.5010 O   0  0  0  0  0  0  0  0  0  0  0  0
  -23.0110  -12.3400   22.3650 H   0  0  0  0  0  0  0  0  0  0  0  0
  -21.7210  -13.4900   22.1560 H   0  0  0  0  0  0  0  0  0  0  0  0
  -26.0200  -15.4510   20.1410 N   0  0  0  0  0  0  0  0  0  0  0  0
  -25.1410  -15.9570   20.1330 H   0  0  0  0  0  0  0  0  0  0  0  0
  -26.5470  -15.6440   19.2990 H   0  0  0  0  0  0  0  0  0  0  0  0
  -29.7300  -21.1400   20.6340 C   0  0  0  0  0  2  0  0  0  0  0  0
  -29.3600  -22.6810   20.1900 C   0  0  0  0  0  2  0  0  0  0  0  0
  -27.9240  -23.1060   22.2720 C   0  0  0  0  0  1  0  0  0  0  0  0
  -28.2830  -23.6790   20.8850 C   0  0  0  0  0  3  0  0  0  0  0  0
  -28.5840  -25.2710   21.1240 C   0  0  0  0  0  2  0  0  0  0  0  0
  -28.4080  -26.4240   20.2020 O   0  0  0  0  0  0  0  0  0  0  0  0
  -24.5960  -31.8600   23.2340 C   0  0  0  0  0  0  0  0  0  0  0  0
  -27.2860  -27.2690   20.2740 C   0  0  0  0  0  0  0  0  0  0  0  0
  -23.4360  -30.4540   21.5700 C   0  0  0  0  0  3  0  0  0  0  0  0
  -24.9240  -28.8890   20.1940 C   0  0  0  0  0  0  0  0  0  0  0  0
  -25.9800  -30.7700   21.4480 C   0  0  0  0  0  2  0  0  0  0  0  0
  -26.0790  -29.3810   20.8190 C   0  0  0  0  0  0  0  0  0  0  0  0
  -27.2660  -28.5830   20.8470 C   0  0  0  0  0  3  0  0  0  0  0  0
  -26.1130  -26.8300   19.6330 C   0  0  0  0  0  3  0  0  0  0  0  0
  -24.9430  -27.6190   19.5940 C   0  0  0  0  0  3  0  0  0  0  0  0
  -23.6870  -29.7670   20.2010 C   0  0  0  0  0  2  0  0  0  0  0  0
  -24.6880  -31.0480   22.1410 N   0  0  0  0  0  0  0  0  0  0  0  0
  -23.4990  -32.1380   23.7410 O   0  0  0  0  0  0  0  0  0  0  0  0
  -22.7490  -29.4420   22.5190 C   0  0  0  0  0  0  0  0  0  0  0  0
  -21.4280  -29.2590   22.3580 N   0  0  0  0  0  0  0  0  0  0  0  0
  -23.4070  -28.8230   23.3590 O   0  0  0  0  0  0  0  0  0  0  0  0
  -20.9570  -29.8100   21.6530 H   0  0  0  0  0  0  0  0  0  0  0  0
  -18.0410  -28.0570   22.7810 C   0  0  0  0  0  0  0  0  0  0  0  0
  -20.5920  -28.3220   23.1100 C   0  0  0  0  0  3  0  0  0  0  0  0
  -20.7100  -26.8900   22.5390 C   0  0  0  0  0  2  0  0  0  0  0  0
  -19.6330  -26.5630   21.5000 C   0  0  0  0  0  2  0  0  0  0  0  0
  -18.2370  -26.7070   22.1100 C   0  0  0  0  0  2  0  0  0  0  0  0
  -19.1480  -28.8220   23.2360 C   0  0  0  0  0  0  0  0  0  0  0  0
  -18.9130  -30.0850   23.8200 C   0  0  0  0  0  3  0  0  0  0  0  0
  -17.6040  -30.5840   23.9550 C   0  0  0  0  0  3  0  0  0  0  0  0
  -16.5110  -29.8170   23.5160 C   0  0  0  0  0  3  0  0  0  0  0  0
  -16.7310  -28.5540   22.9350 C   0  0  0  0  0  3  0  0  0  0  0  0
  -25.8620  -32.4980   23.8870 C   0  0  0  0  0  3  0  0  0  0  0  0
  -25.5490  -33.9020   24.1850 N   0  0  0  0  0  0  0  0  0  0  0  0
  -25.9150  -34.9430   23.4250 C   0  0  0  0  0  0  0  0  0  0  0  0
  -26.6180  -34.8220   22.4190 O   0  0  0  0  0  0  0  0  0  0  0  0
  -24.9280  -34.0710   24.9630 H   0  0  0  0  0  0  0  0  0  0  0  0
  -24.2120  -36.7440   22.9880 C   0  0  0  0  0  1  0  0  0  0  0  0
  -25.4210  -36.3410   23.8470 C   0  0  0  0  0  3  0  0  0  0  0  0
  -27.5300  -37.2250   24.7440 C   0  0  0  0  0  1  0  0  0  0  0  0
  -26.4650  -37.3860   23.7580 N   0  0  0  0  0  0  0  0  0  0  0  0
  -26.0600  -38.3110   23.8750 H   0  0  0  0  0  0  0  0  0  0  0  0
  -26.3330  -31.7450   25.1910 C   0  0  1  0  0  0  0  0  0  0  0  0
  -25.2050  -31.5280   26.2260 C   0  0  0  0  0  1  0  0  0  0  0  0
  -26.9250  -30.3600   24.8410 C   0  0  0  0  0  1  0  0  0  0  0  0
  -27.4640  -32.5480   25.8780 C   0  0  0  0  0  1  0  0  0  0  0  0
  1  5  1  0
  2  6  1  0
  2  1  2  0
  3  9  1  0
  3  5  1  0
  4  2  1  0
  5 48  1  0
  6  3  1  0
  7  6  1  0
  9  8  1  0
  9 11  1  0
 11 10  1  0
 12 11  1  0
 13 18  1  0
 14 15  1  0
 14 13  1  0
 16 15  1  0
 16 23  1  0
 16 17  1  0
 18 12  1  0
 18 17  1  0
 19 12  2  0
 20 21  2  0
 21 40  1  0
 22 21  1  0
 22 25  1  0
 23 20  1  0
 23 24  1  0
 24 22  2  0
 25 26  1  0
 26 27  2  0
 28 31  1  0
 28 27  1  0
 29 28  2  0
 30 29  1  0
 30 25  2  0
 31 32  1  0
 32 37  2  0
 32 33  1  0
 33 34  2  0
 34 35  1  0
 35 39  1  0
 36 35  2  0
 37 36  1  0
 38 37  1  0
 40 41  1  0
 41 44  1  0
 41 43  1  0
 42 40  2  0
 45 20  1  0
 46 45  1  0
 47 45  1  0
 49 48  1  0
 49 51  1  0
 51 52  1  0
 51 50  1  0
 53 55  1  0
 53 52  1  0
 54 65  2  0
 55 60  1  0
 56 64  1  0
 56 66  1  0
 57 63  1  0
 57 59  1  0
 58 64  1  0
 59 60  2  0
 59 58  1  0
 61 55  2  0
 62 61  1  0
 62 57  2  0
 63 56  1  0
 64 54  1  0
 66 68  2  0
 67 66  1  0
 69 67  1  0
 70 79  2  0
 70 75  1  0
 71 67  1  0
 71 75  1  0
 72 71  1  0
 73 74  1  0
 73 72  1  0
 74 70  1  0
 75 76  2  0
 76 77  1  0
 78 77  2  0
 79 78  1  0
 80 54  1  0
 80 81  1  0
 80 90  1  0
 81 84  1  0
 82 86  1  0
 82 81  1  0
 83 82  2  0
 86 85  1  0
 88 86  1  0
 88 89  1  0
 88 87  1  0
 90 93  1  1
 90 91  1  0
 92 90  1  0
M  ISO  4  11 100  12 100  52 101  53 101
M  END
>  <TORSDO>  (79) 
F 22

>  <SCORE>  (79) 
-11.818

>  <name>  (79) 
79

>  <ligand_id>  (79) 
79

>  <original_smiles>  (79) 
[H]c1c([H])c([H])c2c(c1[H])C([H])([H])C([H])([H])C([H])([H])C2([H])N([H])C(=O)C1([H])N(C(=O)C([H])(N([H])C(=O)C([H])(N([H])C([H])([H])[H])C([H])([H])[H])C(C([H])([H])[H])(C([H])([H])[H])C([H])([H])[H])C([H])([H])c2c([H])c(OC([H])([H])C([H])(C([H])([H])[H])C([H])([H])C([H])([H])n3c([H])c(C([H])([H])[H])[n+]([H])c3C([H])(C([H])([H])[H])C([H])(C(=O)N3C([H])([H])C([H])([H])C([H])([H])C([H])(n4nc(-c5c([H])c([H])c(Oc6c([H])c([H])c(F)c([H])c6F)c([H])c5[H])c(C(=O)N([H])[H])c4N([H])[H])C3([H])[H])C([H])([H])[H])c([H])c([H])c2C1([H])[H]

>  <smiles>  (79) 
[H]c1c([H])c([H])c2c(c1[H])C([H])([H])C([H])([H])C([H])([H])C2([H])N([H])C(=O)C1([H])N(C(=O)C([H])(N([H])C(=O)C([H])(N([H])C([H])([H])[H])C([H])([H])[H])C(C([H])([H])[H])(C([H])([H])[H])C([H])([H])[H])C([H])([H])c2c([H])c(OC([H])([H])C([H])(C([H])([H])[H])C([H])([H])C([H])([H])n3c([H])c(C([H])([H])[H])[n+]([H])c3C([H])(C([H])([H])[H])C([H])(C(=O)N3C([H])([H])C([H])([H])C([H])([H])C([H])(n4nc(-c5c([H])c([H])c(Oc6c([H])c([H])c(F)c([H])c6F)c([H])c5[H])c(C(=O)N([H])[H])c4N([H])[H])C3([H])[H])C([H])([H])[H])c([H])c([H])c2C1([H])[H]

$$$$
80:0:0
     RDKit          3D

 94102  0  0  1  0  0  0  0  0999 V2000
  -29.7710  -19.5740   20.8250 C   0  0  0  0  0  3  0  0  0  0  0  0
  -29.8750  -18.3790   20.1350 C   0  0  0  0  0  0  0  0  0  0  0  0
  -28.4000  -19.7330   19.0890 C   0  0  0  0  0  3  0  0  0  0  0  0
  -27.4320  -20.2480   18.0490 C   0  0  0  0  0  1  0  0  0  0  0  0
  -28.8450  -20.3740   20.1830 N   0  0  0  0  0  0  0  0  0  0  0  0
  -28.9830  -18.5210   19.0880 N   0  0  0  0  0  0  0  0  0  0  0  0
  -28.8220  -17.8270   18.3620 H   0  0  0  0  0  0  0  0  0  0  0  0
  -28.3230  -21.7020   20.6310 C   0  0  0  0  0  3  0  0  0  0  0  0
  -28.8920  -22.9720   19.9250 C   0  0  0  0  0  3  0  0  0  0  0  0
  -28.3290  -24.6720   21.7900 C   0  0  0  0  0  1  0  0  0  0  0  0
  -28.1760  -24.3230   20.2940 C   0  0  0  0  0  3  0  0  0  0  0  0
  -28.6720  -25.5030   19.4010 C   0  0  0  0  0  2  0  0  0  0  0  0
  -28.5190  -26.8260   19.9630 O   0  0  0  0  0  0  0  0  0  0  0  0
  -24.5730  -31.7910   23.2060 C   0  0  0  0  0  0  0  0  0  0  0  0
  -27.3030  -27.4890   19.9720 C   0  0  0  0  0  0  0  0  0  0  0  0
  -23.3980  -30.4440   21.5030 C   0  0  0  0  0  3  0  0  0  0  0  0
  -24.8810  -28.9680   20.0430 C   0  0  0  0  0  0  0  0  0  0  0  0
  -25.9230  -30.8300   21.3400 C   0  0  0  0  0  2  0  0  0  0  0  0
  -26.0310  -29.4850   20.6520 C   0  0  0  0  0  0  0  0  0  0  0  0
  -27.2410  -28.7520   20.6130 C   0  0  0  0  0  3  0  0  0  0  0  0
  -26.1270  -26.9810   19.3740 C   0  0  0  0  0  3  0  0  0  0  0  0
  -24.9260  -27.7170   19.4070 C   0  0  0  0  0  3  0  0  0  0  0  0
  -23.6270  -29.8130   20.1040 C   0  0  0  0  0  2  0  0  0  0  0  0
  -24.6520  -31.0350   22.0770 N   0  0  0  0  0  0  0  0  0  0  0  0
  -23.4840  -32.0290   23.7480 O   0  0  0  0  0  0  0  0  0  0  0  0
  -22.7550  -29.3790   22.4170 C   0  0  0  0  0  0  0  0  0  0  0  0
  -21.4400  -29.1660   22.2610 N   0  0  0  0  0  0  0  0  0  0  0  0
  -23.4410  -28.7470   23.2250 O   0  0  0  0  0  0  0  0  0  0  0  0
  -20.9470  -29.7300   21.5830 H   0  0  0  0  0  0  0  0  0  0  0  0
  -18.0920  -27.8770   22.6710 C   0  0  0  0  0  0  0  0  0  0  0  0
  -20.6370  -28.1830   22.9880 C   0  0  0  0  0  3  0  0  0  0  0  0
  -20.7810  -26.7740   22.3630 C   0  0  0  0  0  2  0  0  0  0  0  0
  -19.7000  -26.4540   21.3250 C   0  0  0  0  0  2  0  0  0  0  0  0
  -18.3070  -26.5560   21.9550 C   0  0  0  0  0  2  0  0  0  0  0  0
  -19.1880  -28.6490   23.1470 C   0  0  0  0  0  0  0  0  0  0  0  0
  -18.9290  -29.8890   23.7710 C   0  0  0  0  0  3  0  0  0  0  0  0
  -17.6100  -30.3540   23.9270 C   0  0  0  0  0  3  0  0  0  0  0  0
  -16.5320  -29.5790   23.4720 C   0  0  0  0  0  3  0  0  0  0  0  0
  -16.7730  -28.3450   22.8460 C   0  0  0  0  0  3  0  0  0  0  0  0
  -25.8410  -32.4210   23.8630 C   0  0  0  0  0  3  0  0  0  0  0  0
  -25.5270  -33.8200   24.1900 N   0  0  0  0  0  0  0  0  0  0  0  0
  -25.8870  -34.8730   23.4450 C   0  0  0  0  0  0  0  0  0  0  0  0
  -26.5860  -34.7670   22.4340 O   0  0  0  0  0  0  0  0  0  0  0  0
  -24.9080  -33.9730   24.9710 H   0  0  0  0  0  0  0  0  0  0  0  0
  -24.1800  -36.6780   23.0300 C   0  0  0  0  0  1  0  0  0  0  0  0
  -25.3890  -36.2620   23.8890 C   0  0  0  0  0  3  0  0  0  0  0  0
  -27.4890  -37.1350   24.8160 C   0  0  0  0  0  1  0  0  0  0  0  0
  -26.4320  -37.3060   23.8220 N   0  0  0  0  0  0  0  0  0  0  0  0
  -26.0290  -38.2320   23.9400 H   0  0  0  0  0  0  0  0  0  0  0  0
  -26.3270  -31.6440   25.1490 C   0  0  1  0  0  0  0  0  0  0  0  0
  -25.2080  -31.3960   26.1850 C   0  0  0  0  0  1  0  0  0  0  0  0
  -26.9170  -30.2690   24.7600 C   0  0  0  0  0  1  0  0  0  0  0  0
  -27.4600  -32.4340   25.8490 C   0  0  0  0  0  1  0  0  0  0  0  0
  -30.8460  -17.1960   20.3040 C   0  0  0  0  0  3  0  0  0  0  0  0
  -31.0230  -14.7160   20.7560 C   0  0  0  0  0  0  0  0  0  0  0  0
  -30.7440  -12.6020   19.5310 C   0  0  0  0  0  2  0  0  0  0  0  0
  -29.8370  -12.8340   18.2990 C   0  0  0  0  0  2  0  0  0  0  0  0
  -28.3460  -12.7230   18.6750 C   0  0  0  0  0  2  0  0  0  0  0  0
  -27.9830  -13.4940   19.9740 C   0  0  0  0  0  3  0  0  0  0  0  0
  -29.0070  -13.2310   21.1030 C   0  0  0  0  0  2  0  0  0  0  0  0
  -30.3300  -13.5550   20.5710 N   0  0  0  0  0  0  0  0  0  0  0  0
  -32.2450  -14.7650   20.6200 O   0  0  0  0  0  0  0  0  0  0  0  0
  -30.2970  -15.8660   20.7300 N   0  0  0  0  0  0  0  0  0  0  0  0
  -29.3030  -15.7930   20.8740 H   0  0  0  0  0  0  0  0  0  0  0  0
  -25.5450  -14.0690   20.5330 C   0  0  0  0  0  0  0  0  0  0  0  0
  -24.4680  -13.2880   20.8480 C   0  0  0  0  0  0  0  0  0  0  0  0
  -24.9480  -11.9440   20.8790 C   0  0  0  0  0  0  0  0  0  0  0  0
  -26.6130  -13.2030   20.3920 N   0  0  0  0  0  0  0  0  0  0  0  0
  -26.2570  -11.9180   20.6580 N   0  0  0  0  0  0  0  0  0  0  0  0
  -24.2260  -10.6750   21.0410 C   0  0  0  0  0  0  0  0  0  0  0  0
  -24.5880   -9.7440   22.0400 C   0  0  0  0  0  3  0  0  0  0  0  0
  -23.8660   -8.5420   22.1940 C   0  0  0  0  0  3  0  0  0  0  0  0
  -22.7670   -8.2630   21.3480 C   0  0  0  0  0  0  0  0  0  0  0  0
  -22.4240   -9.1820   20.3410 C   0  0  0  0  0  3  0  0  0  0  0  0
  -23.1480  -10.3770   20.1870 C   0  0  0  0  0  3  0  0  0  0  0  0
  -22.0240   -7.1100   21.4080 O   0  0  0  0  0  0  0  0  0  0  0  0
  -21.8510   -6.4220   22.5800 C   0  0  0  0  0  0  0  0  0  0  0  0
  -21.2490   -7.0150   23.7110 C   0  0  0  0  0  3  0  0  0  0  0  0
  -21.0290   -6.2510   24.8740 C   0  0  0  0  0  3  0  0  0  0  0  0
  -21.4030   -4.8950   24.9070 C   0  0  0  0  0  0  0  0  0  0  0  0
  -22.0020   -4.3010   23.7820 C   0  0  0  0  0  3  0  0  0  0  0  0
  -22.2220   -5.0620   22.6200 C   0  0  0  0  0  0  0  0  0  0  0  0
  -22.7770   -4.4800   21.5290 F   0  0  0  0  0  0  0  0  0  0  0  0
  -21.1880   -4.1560   26.0210 F   0  0  0  0  0  0  0  0  0  0  0  0
  -23.0530  -13.7570   21.0190 C   0  0  0  0  0  0  0  0  0  0  0  0
  -22.2820  -13.0700   21.8540 N   0  0  0  0  0  0  0  0  0  0  0  0
  -22.6320  -14.7600   20.4440 O   0  0  0  0  0  0  0  0  0  0  0  0
  -22.6400  -12.2650   22.3440 H   0  0  0  0  0  0  0  0  0  0  0  0
  -21.3250  -13.3570   22.0110 H   0  0  0  0  0  0  0  0  0  0  0  0
  -25.6940  -15.4360   20.3310 N   0  0  0  0  0  0  0  0  0  0  0  0
  -24.8840  -16.0420   20.3400 H   0  0  0  0  0  0  0  0  0  0  0  0
  -26.5350  -15.8800   19.9930 H   0  0  0  0  0  0  0  0  0  0  0  0
  -30.9860  -16.5310   17.7760 C   0  0  0  0  0  1  0  0  0  0  0  0
  -31.7150  -17.0770   19.0210 C   0  0  0  0  0  2  0  0  0  0  0  0
  2 54  1  0
  2  1  2  0
  3  4  1  0
  3  5  1  0
  5  8  1  0
  5  1  1  0
  6  3  1  0
  6  2  1  0
  7  6  1  0
  9 11  1  0
  9  8  2  0
 11 10  1  0
 12 13  1  0
 12 11  1  0
 13 15  1  0
 14 25  2  0
 15 20  1  0
 16 24  1  0
 16 26  1  0
 17 23  1  0
 17 19  1  0
 18 24  1  0
 19 18  1  0
 20 19  2  0
 21 22  1  0
 21 15  2  0
 22 17  2  0
 23 16  1  0
 24 14  1  0
 26 28  2  0
 27 26  1  0
 29 27  1  0
 30 39  2  0
 30 35  1  0
 31 27  1  0
 31 35  1  0
 32 31  1  0
 33 34  1  0
 33 32  1  0
 34 30  1  0
 35 36  2  0
 36 37  1  0
 38 37  2  0
 39 38  1  0
 40 14  1  0
 40 41  1  0
 40 50  1  0
 41 44  1  0
 42 46  1  0
 42 41  1  0
 43 42  2  0
 46 45  1  0
 48 46  1  0
 48 49  1  0
 48 47  1  0
 50 53  1  1
 50 51  1  0
 52 50  1  0
 54 94  1  0
 54 63  1  0
 56 61  1  0
 57 58  1  0
 57 56  1  0
 59 58  1  0
 59 68  1  0
 59 60  1  0
 61 55  1  0
 61 60  1  0
 62 55  2  0
 63 55  1  0
 63 64  1  0
 65 66  2  0
 66 67  1  0
 66 85  1  0
 67 70  1  0
 68 65  1  0
 68 69  1  0
 69 67  2  0
 70 71  1  0
 71 72  2  0
 73 76  1  0
 73 72  1  0
 74 73  2  0
 75 74  1  0
 75 70  2  0
 76 77  1  0
 77 82  2  0
 77 78  1  0
 78 79  2  0
 79 80  1  0
 80 84  1  0
 81 80  2  0
 82 81  1  0
 83 82  1  0
 85 86  1  0
 86 89  1  0
 86 88  1  0
 87 85  2  0
 90 91  1  0
 90 65  1  0
 92 90  1  0
 93 94  1  0
M  ISO  4  12 101  13 101  55 100  63 100
M  END
>  <TORSDO>  (80) 
F 22

>  <SCORE>  (80) 
-12.873

>  <name>  (80) 
80

>  <ligand_id>  (80) 
80

>  <original_smiles>  (80) 
[H]c1c([H])c([H])c2c(c1[H])C([H])([H])C([H])([H])C([H])([H])C2([H])N([H])C(=O)C1([H])N(C(=O)C([H])(N([H])C(=O)C([H])(N([H])C([H])([H])[H])C([H])([H])[H])C(C([H])([H])[H])(C([H])([H])[H])C([H])([H])[H])C([H])([H])c2c([H])c(OC([H])([H])C([H])(C([H])([H])[H])C([H])([H])C([H])([H])n3c([H])c(C([H])(N([H])C(=O)N4C([H])([H])C([H])([H])C([H])([H])C([H])(n5nc(-c6c([H])c([H])c(Oc7c([H])c([H])c(F)c([H])c7F)c([H])c6[H])c(C(=O)N([H])[H])c5N([H])[H])C4([H])[H])C([H])([H])C([H])([H])[H])[n+]([H])c3C([H])([H])[H])c([H])c([H])c2C1([H])[H]

>  <smiles>  (80) 
[H]c1c([H])c([H])c2c(c1[H])C([H])([H])C([H])([H])C([H])([H])C2([H])N([H])C(=O)C1([H])N(C(=O)C([H])(N([H])C(=O)C([H])(N([H])C([H])([H])[H])C([H])([H])[H])C(C([H])([H])[H])(C([H])([H])[H])C([H])([H])[H])C([H])([H])c2c([H])c(OC([H])([H])C([H])(C([H])([H])[H])C([H])([H])C([H])([H])n3c([H])c(C([H])(N([H])C(=O)N4C([H])([H])C([H])([H])C([H])([H])C([H])(n5nc(-c6c([H])c([H])c(Oc7c([H])c([H])c(F)c([H])c7F)c([H])c6[H])c(C(=O)N([H])[H])c5N([H])[H])C4([H])[H])C([H])([H])C([H])([H])[H])[n+]([H])c3C([H])([H])[H])c([H])c([H])c2C1([H])[H]

$$$$
81:0:0
     RDKit          3D

 88 96  0  0  1  0  0  0  0  0999 V2000
  -28.5750  -23.4100   22.1270 C   0  0  0  0  0  1  0  0  0  0  0  0
  -30.4850  -23.9570   20.6310 C   0  0  0  0  0  1  0  0  0  0  0  0
  -29.0180  -23.4700   20.6510 C   0  0  1  0  0  0  0  0  0  0  0  0
  -28.9450  -21.8560   20.0800 C   0  0  0  0  0  3  0  0  0  0  0  0
  -29.6240  -20.4930   20.8340 C   0  0  0  0  0  3  0  0  0  0  0  0
  -30.4880  -17.8630   20.4370 C   0  0  0  0  0  3  0  0  0  0  0  0
  -29.8940  -16.5760   20.3220 C   0  0  0  0  0  0  0  0  0  0  0  0
  -28.5270  -16.9390   20.3000 N   0  0  0  0  0  0  0  0  0  0  0  0
  -28.3270  -18.2590   20.4090 N   0  0  0  0  0  0  0  0  0  0  0  0
  -29.5180  -18.9360   20.4680 N   0  0  0  0  0  0  0  0  0  0  0  0
  -30.5940  -15.0850   20.1510 C   0  0  0  0  0  0  0  0  0  0  0  0
  -30.4190  -12.7060   19.2740 C   0  0  0  0  0  2  0  0  0  0  0  0
  -29.4890  -12.6500   18.0420 C   0  0  0  0  0  2  0  0  0  0  0  0
  -28.0320  -12.4360   18.4820 C   0  0  0  0  0  2  0  0  0  0  0  0
  -27.6310  -13.3840   19.6410 C   0  0  0  0  0  3  0  0  0  0  0  0
  -28.6890  -13.4500   20.7590 C   0  0  0  0  0  2  0  0  0  0  0  0
  -29.9610  -13.8350   20.1430 N   0  0  0  0  0  0  0  0  0  0  0  0
  -31.7940  -15.0580   19.8530 O   0  0  0  0  0  0  0  0  0  0  0  0
  -25.2720  -13.9630   20.4350 C   0  0  0  0  0  0  0  0  0  0  0  0
  -24.2090  -13.1910   20.8070 C   0  0  0  0  0  0  0  0  0  0  0  0
  -24.6630  -11.8360   20.7580 C   0  0  0  0  0  0  0  0  0  0  0  0
  -26.3030  -13.0820   20.1630 N   0  0  0  0  0  0  0  0  0  0  0  0
  -25.9510  -11.7960   20.4310 N   0  0  0  0  0  0  0  0  0  0  0  0
  -23.9330  -10.5760   20.9510 C   0  0  0  0  0  0  0  0  0  0  0  0
  -24.3610   -9.6120   21.8900 C   0  0  0  0  0  3  0  0  0  0  0  0
  -23.6310   -8.4200   22.0780 C   0  0  0  0  0  3  0  0  0  0  0  0
  -22.4570   -8.1790   21.3260 C   0  0  0  0  0  0  0  0  0  0  0  0
  -22.0430   -9.1320   20.3790 C   0  0  0  0  0  3  0  0  0  0  0  0
  -22.7730  -10.3180   20.1920 C   0  0  0  0  0  3  0  0  0  0  0  0
  -21.7040   -7.0340   21.4160 O   0  0  0  0  0  0  0  0  0  0  0  0
  -21.6380   -6.3040   22.5750 C   0  0  0  0  0  0  0  0  0  0  0  0
  -21.1850   -6.8690   23.7860 C   0  0  0  0  0  3  0  0  0  0  0  0
  -21.0660   -6.0660   24.9370 C   0  0  0  0  0  3  0  0  0  0  0  0
  -21.3900   -4.6960   24.8780 C   0  0  0  0  0  0  0  0  0  0  0  0
  -21.8340   -4.1300   23.6710 C   0  0  0  0  0  3  0  0  0  0  0  0
  -21.9540   -4.9310   22.5220 C   0  0  0  0  0  0  0  0  0  0  0  0
  -22.3630   -4.3770   21.3550 F   0  0  0  0  0  0  0  0  0  0  0  0
  -21.2660   -3.9220   25.9820 F   0  0  0  0  0  0  0  0  0  0  0  0
  -22.8180  -13.6730   21.1010 C   0  0  0  0  0  0  0  0  0  0  0  0
  -22.1000  -12.9760   21.9680 N   0  0  0  0  0  0  0  0  0  0  0  0
  -22.3830  -14.7070   20.5940 O   0  0  0  0  0  0  0  0  0  0  0  0
  -22.4680  -12.1400   22.3980 H   0  0  0  0  0  0  0  0  0  0  0  0
  -21.1680  -13.2820   22.2090 H   0  0  0  0  0  0  0  0  0  0  0  0
  -25.4510  -15.3360   20.2850 N   0  0  0  0  0  0  0  0  0  0  0  0
  -24.7240  -16.0020   20.5220 H   0  0  0  0  0  0  0  0  0  0  0  0
  -26.3460  -15.7740   20.0890 H   0  0  0  0  0  0  0  0  0  0  0  0
  -28.1490  -24.7540   19.9600 C   0  0  0  0  0  2  0  0  0  0  0  0
  -28.2900  -26.2720   20.3060 O   0  0  0  0  0  0  0  0  0  0  0  0
  -24.6380  -31.9510   23.2120 C   0  0  0  0  0  0  0  0  0  0  0  0
  -27.2240  -27.2410   20.2010 C   0  0  0  0  0  0  0  0  0  0  0  0
  -23.4380  -30.5560   21.5710 C   0  0  0  0  0  3  0  0  0  0  0  0
  -24.8880  -28.9810   20.1510 C   0  0  0  0  0  0  0  0  0  0  0  0
  -25.9910  -30.8260   21.4070 C   0  0  0  0  0  2  0  0  0  0  0  0
  -26.0670  -29.4340   20.7590 C   0  0  0  0  0  0  0  0  0  0  0  0
  -27.2310  -28.5790   20.7680 C   0  0  0  0  0  3  0  0  0  0  0  0
  -26.0180  -26.8890   19.5510 C   0  0  0  0  0  3  0  0  0  0  0  0
  -24.8770  -27.7190   19.5380 C   0  0  0  0  0  3  0  0  0  0  0  0
  -23.6640  -29.8850   20.1900 C   0  0  0  0  0  2  0  0  0  0  0  0
  -24.7080  -31.1340   22.1180 N   0  0  0  0  0  0  0  0  0  0  0  0
  -23.5530  -32.2330   23.7430 O   0  0  0  0  0  0  0  0  0  0  0  0
  -22.7600  -29.5470   22.5320 C   0  0  0  0  0  0  0  0  0  0  0  0
  -21.4320  -29.3780   22.4090 N   0  0  0  0  0  0  0  0  0  0  0  0
  -23.4320  -28.9200   23.3540 O   0  0  0  0  0  0  0  0  0  0  0  0
  -20.9460  -29.9330   21.7180 H   0  0  0  0  0  0  0  0  0  0  0  0
  -18.0450  -28.2050   22.9360 C   0  0  0  0  0  0  0  0  0  0  0  0
  -20.6090  -28.4460   23.1840 C   0  0  0  0  0  3  0  0  0  0  0  0
  -20.6950  -27.0150   22.6030 C   0  0  0  0  0  2  0  0  0  0  0  0
  -19.5850  -26.7070   21.5950 C   0  0  0  0  0  2  0  0  0  0  0  0
  -18.2070  -26.8590   22.2480 C   0  0  0  0  0  2  0  0  0  0  0  0
  -19.1730  -28.9570   23.3600 C   0  0  0  0  0  0  0  0  0  0  0  0
  -18.9690  -30.2160   23.9640 C   0  0  0  0  0  3  0  0  0  0  0  0
  -17.6680  -30.7240   24.1480 C   0  0  0  0  0  3  0  0  0  0  0  0
  -16.5550  -29.9690   23.7410 C   0  0  0  0  0  3  0  0  0  0  0  0
  -16.7440  -28.7120   23.1380 C   0  0  0  0  0  3  0  0  0  0  0  0
  -25.9170  -32.5860   23.8370 C   0  0  0  0  0  3  0  0  0  0  0  0
  -26.4330  -31.8170   25.1170 C   0  0  1  0  0  0  0  0  0  0  0  0
  -25.3390  -31.5720   26.1810 C   0  0  0  0  0  1  0  0  0  0  0  0
  -27.0290  -30.4440   24.7310 C   0  0  0  0  0  1  0  0  0  0  0  0
  -27.5820  -32.6150   25.7780 C   0  0  0  0  0  1  0  0  0  0  0  0
  -25.6080  -33.9850   24.1710 N   0  0  0  0  0  0  0  0  0  0  0  0
  -25.9300  -35.0440   23.4140 C   0  0  0  0  0  0  0  0  0  0  0  0
  -26.5910  -34.9450   22.3770 O   0  0  0  0  0  0  0  0  0  0  0  0
  -25.0400  -34.1390   24.9910 H   0  0  0  0  0  0  0  0  0  0  0  0
  -24.2000  -36.8370   23.0670 C   0  0  0  0  0  1  0  0  0  0  0  0
  -25.4400  -36.4290   23.8800 C   0  0  0  0  0  3  0  0  0  0  0  0
  -27.5710  -37.3130   24.7190 C   0  0  0  0  0  1  0  0  0  0  0  0
  -26.4700  -37.4870   23.7750 N   0  0  0  0  0  0  0  0  0  0  0  0
  -26.0610  -38.4050   23.9320 H   0  0  0  0  0  0  0  0  0  0  0  0
  3  2  1  1
  3  1  1  0
  4  3  1  0
  4  5  2  0
  6 10  1  0
  7  6  2  0
  8  7  1  0
  8  9  2  0
  9 10  1  0
 10  5  1  0
 11  7  1  0
 12 17  1  0
 13 14  1  0
 13 12  1  0
 15 14  1  0
 15 22  1  0
 15 16  1  0
 17 11  1  0
 17 16  1  0
 18 11  2  0
 19 20  2  0
 20 39  1  0
 21 20  1  0
 21 24  1  0
 22 23  1  0
 22 19  1  0
 23 21  2  0
 24 25  1  0
 25 26  2  0
 27 30  1  0
 27 26  1  0
 28 27  2  0
 29 28  1  0
 29 24  2  0
 30 31  1  0
 31 32  1  0
 32 33  2  0
 34 33  1  0
 34 38  1  0
 35 34  2  0
 36 31  2  0
 36 35  1  0
 37 36  1  0
 39 40  1  0
 40 43  1  0
 40 42  1  0
 41 39  2  0
 44 19  1  0
 44 45  1  0
 46 44  1  0
 47 48  1  0
 47  3  1  0
 49 60  2  0
 50 48  1  0
 50 55  1  0
 51 59  1  0
 51 61  1  0
 52 58  1  0
 52 54  1  0
 53 59  1  0
 54 55  2  0
 54 53  1  0
 56 50  2  0
 57 56  1  0
 57 52  2  0
 58 51  1  0
 59 49  1  0
 61 63  2  0
 62 61  1  0
 64 62  1  0
 65 74  2  0
 65 70  1  0
 66 62  1  0
 66 70  1  0
 67 66  1  0
 68 69  1  0
 68 67  1  0
 69 65  1  0
 70 71  2  0
 71 72  1  0
 73 72  2  0
 74 73  1  0
 75 49  1  0
 75 80  1  0
 75 76  1  0
 76 79  1  1
 76 77  1  0
 78 76  1  0
 80 83  1  0
 81 85  1  0
 81 80  1  0
 82 81  2  0
 85 84  1  0
 87 85  1  0
 87 88  1  0
 87 86  1  0
M  ISO  4   7 100  11 100  47 101  48 101
M  END
>  <TORSDO>  (81) 
F 20

>  <SCORE>  (81) 
-15.649

>  <name>  (81) 
81

>  <ligand_id>  (81) 
81

>  <original_smiles>  (81) 
[H]c1c([H])c([H])c2c(c1[H])C([H])([H])C([H])([H])C([H])([H])C2([H])N([H])C(=O)C1([H])N(C(=O)C([H])(N([H])C(=O)C([H])(N([H])C([H])([H])[H])C([H])([H])[H])C(C([H])([H])[H])(C([H])([H])[H])C([H])([H])[H])C([H])([H])c2c([H])c(OC([H])([H])C(C([H])([H])[H])(C([H])([H])[H])C([H])([H])C([H])([H])n3nnc(C(=O)N4C([H])([H])C([H])([H])C([H])([H])C([H])(n5nc(-c6c([H])c([H])c(Oc7c([H])c([H])c(F)c([H])c7F)c([H])c6[H])c(C(=O)N([H])[H])c5N([H])[H])C4([H])[H])c3[H])c([H])c([H])c2C1([H])[H]

>  <smiles>  (81) 
[H]c1c([H])c([H])c2c(c1[H])C([H])([H])C([H])([H])C([H])([H])C2([H])N([H])C(=O)C1([H])N(C(=O)C([H])(N([H])C(=O)C([H])(N([H])C([H])([H])[H])C([H])([H])[H])C(C([H])([H])[H])(C([H])([H])[H])C([H])([H])[H])C([H])([H])c2c([H])c(OC([H])([H])C(C([H])([H])[H])(C([H])([H])[H])C([H])([H])C([H])([H])n3nnc(C(=O)N4C([H])([H])C([H])([H])C([H])([H])C([H])(n5nc(-c6c([H])c([H])c(Oc7c([H])c([H])c(F)c([H])c7F)c([H])c6[H])c(C(=O)N([H])[H])c5N([H])[H])C4([H])[H])c3[H])c([H])c([H])c2C1([H])[H]

$$$$
82:0:0
     RDKit          3D

 94102  0  0  1  0  0  0  0  0999 V2000
  -29.6260  -21.9510   21.2160 C   0  0  0  0  0  3  0  0  0  0  0  0
  -30.8600  -19.7480   20.6700 C   0  0  0  0  0  3  0  0  0  0  0  0
  -30.4830  -18.4580   20.3370 C   0  0  0  0  0  0  0  0  0  0  0  0
  -28.6640  -19.7680   20.4330 C   0  0  0  0  0  3  0  0  0  0  0  0
  -27.2290  -20.1830   20.3990 C   0  0  0  0  0  1  0  0  0  0  0  0
  -29.7290  -20.5320   20.7490 N   0  0  0  0  0  0  0  0  0  0  0  0
  -29.1210  -18.5270   20.1860 N   0  0  0  0  0  0  0  0  0  0  0  0
  -28.5250  -17.7480   19.9320 H   0  0  0  0  0  0  0  0  0  0  0  0
  -31.5500  -17.0980   18.5730 C   0  0  0  0  0  1  0  0  0  0  0  0
  -31.3420  -17.2230   20.0920 C   0  0  0  0  0  3  0  0  0  0  0  0
  -31.5950  -14.7630   20.4740 C   0  0  0  0  0  0  0  0  0  0  0  0
  -31.2310  -12.5710   19.4060 C   0  0  0  0  0  2  0  0  0  0  0  0
  -30.3500  -12.7850   18.1560 C   0  0  0  0  0  2  0  0  0  0  0  0
  -28.8560  -12.7300   18.5300 C   0  0  0  0  0  2  0  0  0  0  0  0
  -28.5120  -13.6110   19.7600 C   0  0  0  0  0  3  0  0  0  0  0  0
  -29.5150  -13.3960   20.9160 C   0  0  0  0  0  2  0  0  0  0  0  0
  -30.8670  -13.6130   20.3830 N   0  0  0  0  0  0  0  0  0  0  0  0
  -32.7850  -14.8030   20.1560 O   0  0  0  0  0  0  0  0  0  0  0  0
  -30.8870  -15.9120   20.6320 N   0  0  0  0  0  0  0  0  0  0  0  0
  -29.9120  -15.8090   20.8560 H   0  0  0  0  0  0  0  0  0  0  0  0
  -26.1330  -14.3480   20.3970 C   0  0  0  0  0  0  0  0  0  0  0  0
  -25.0110  -13.6370   20.7240 C   0  0  0  0  0  0  0  0  0  0  0  0
  -25.3950  -12.2610   20.6990 C   0  0  0  0  0  0  0  0  0  0  0  0
  -27.1320  -13.4100   20.1930 N   0  0  0  0  0  0  0  0  0  0  0  0
  -26.6900  -12.1490   20.4370 N   0  0  0  0  0  0  0  0  0  0  0  0
  -24.5910  -11.0420   20.8530 C   0  0  0  0  0  0  0  0  0  0  0  0
  -24.9160  -10.0590   21.8140 C   0  0  0  0  0  3  0  0  0  0  0  0
  -24.1180   -8.9050   21.9560 C   0  0  0  0  0  3  0  0  0  0  0  0
  -22.9810   -8.7220   21.1330 C   0  0  0  0  0  0  0  0  0  0  0  0
  -22.6750   -9.6910   20.1620 C   0  0  0  0  0  3  0  0  0  0  0  0
  -23.4730  -10.8390   20.0190 C   0  0  0  0  0  3  0  0  0  0  0  0
  -22.1610   -7.6200   21.1820 O   0  0  0  0  0  0  0  0  0  0  0  0
  -21.9540   -6.9300   22.3490 C   0  0  0  0  0  0  0  0  0  0  0  0
  -21.4390   -7.5540   23.5040 C   0  0  0  0  0  3  0  0  0  0  0  0
  -21.1780   -6.7920   24.6600 C   0  0  0  0  0  3  0  0  0  0  0  0
  -21.4200   -5.4050   24.6600 C   0  0  0  0  0  0  0  0  0  0  0  0
  -21.9280   -4.7800   23.5080 C   0  0  0  0  0  3  0  0  0  0  0  0
  -22.1920   -5.5400   22.3540 C   0  0  0  0  0  0  0  0  0  0  0  0
  -22.6610   -4.9280   21.2400 F   0  0  0  0  0  0  0  0  0  0  0  0
  -21.1620   -4.6710   25.7670 F   0  0  0  0  0  0  0  0  0  0  0  0
  -23.6350  -14.1920   20.9490 C   0  0  0  0  0  0  0  0  0  0  0  0
  -22.8480  -13.5480   21.8040 N   0  0  0  0  0  0  0  0  0  0  0  0
  -23.2680  -15.2310   20.4020 O   0  0  0  0  0  0  0  0  0  0  0  0
  -23.1600  -12.7070   22.2670 H   0  0  0  0  0  0  0  0  0  0  0  0
  -21.9210  -13.8990   21.9960 H   0  0  0  0  0  0  0  0  0  0  0  0
  -26.3840  -15.7070   20.2280 N   0  0  0  0  0  0  0  0  0  0  0  0
  -25.6280  -16.3830   20.2650 H   0  0  0  0  0  0  0  0  0  0  0  0
  -27.2070  -16.0640   19.7630 H   0  0  0  0  0  0  0  0  0  0  0  0
  -29.4130  -23.0630   20.1340 C   0  0  0  0  0  3  0  0  0  0  0  0
  -27.5990  -24.4420   21.2860 C   0  0  0  0  0  1  0  0  0  0  0  0
  -30.0160  -24.9680   21.7380 C   0  0  0  0  0  1  0  0  0  0  0  0
  -29.0100  -24.4970   20.6670 C   0  0  1  0  0  0  0  0  0  0  0  0
  -29.0060  -25.5580   19.5130 C   0  0  0  0  0  2  0  0  0  0  0  0
  -28.8240  -26.9300   19.9530 O   0  0  0  0  0  0  0  0  0  0  0  0
  -24.6550  -31.7470   23.1610 C   0  0  0  0  0  0  0  0  0  0  0  0
  -27.5880  -27.5660   19.9400 C   0  0  0  0  0  0  0  0  0  0  0  0
  -23.5580  -30.3620   21.4300 C   0  0  0  0  0  3  0  0  0  0  0  0
  -25.1170  -28.9670   19.9710 C   0  0  0  0  0  0  0  0  0  0  0  0
  -26.0690  -30.8510   21.3080 C   0  0  0  0  0  2  0  0  0  0  0  0
  -26.2350  -29.5170   20.6060 C   0  0  0  0  0  0  0  0  0  0  0  0
  -27.4710  -28.8240   20.5840 C   0  0  0  0  0  3  0  0  0  0  0  0
  -26.4400  -27.0360   19.3050 C   0  0  0  0  0  3  0  0  0  0  0  0
  -25.2150  -27.7260   19.3210 C   0  0  0  0  0  3  0  0  0  0  0  0
  -23.8310  -29.7600   20.0260 C   0  0  0  0  0  2  0  0  0  0  0  0
  -24.7770  -31.0010   22.0250 N   0  0  0  0  0  0  0  0  0  0  0  0
  -23.5500  -31.9370   23.6880 O   0  0  0  0  0  0  0  0  0  0  0  0
  -22.9430  -29.2650   22.3300 C   0  0  0  0  0  0  0  0  0  0  0  0
  -21.6290  -29.0370   22.1810 N   0  0  0  0  0  0  0  0  0  0  0  0
  -23.6460  -28.6230   23.1150 O   0  0  0  0  0  0  0  0  0  0  0  0
  -21.1230  -29.6110   21.5210 H   0  0  0  0  0  0  0  0  0  0  0  0
  -18.2930  -27.7190   22.6180 C   0  0  0  0  0  0  0  0  0  0  0  0
  -20.8450  -28.0270   22.8920 C   0  0  0  0  0  3  0  0  0  0  0  0
  -20.9830  -26.6410   22.2190 C   0  0  0  0  0  2  0  0  0  0  0  0
  -19.8830  -26.3580   21.1920 C   0  0  0  0  0  2  0  0  0  0  0  0
  -18.5010  -26.4230   21.8530 C   0  0  0  0  0  2  0  0  0  0  0  0
  -19.3950  -28.4790   23.0930 C   0  0  0  0  0  0  0  0  0  0  0  0
  -19.1490  -29.6940   23.7680 C   0  0  0  0  0  3  0  0  0  0  0  0
  -17.8330  -30.1470   23.9770 C   0  0  0  0  0  3  0  0  0  0  0  0
  -16.7450  -29.3830   23.5220 C   0  0  0  0  0  3  0  0  0  0  0  0
  -16.9760  -28.1700   22.8460 C   0  0  0  0  0  3  0  0  0  0  0  0
  -25.8920  -32.4150   23.8370 C   0  0  0  0  0  3  0  0  0  0  0  0
  -25.5170  -33.7930   24.1800 N   0  0  0  0  0  0  0  0  0  0  0  0
  -25.8450  -34.8710   23.4560 C   0  0  0  0  0  0  0  0  0  0  0  0
  -26.5610  -34.8140   22.4520 O   0  0  0  0  0  0  0  0  0  0  0  0
  -24.8780  -33.9110   24.9520 H   0  0  0  0  0  0  0  0  0  0  0  0
  -24.0640  -36.6010   23.0670 C   0  0  0  0  0  1  0  0  0  0  0  0
  -25.2880  -36.2310   23.9190 C   0  0  0  0  0  3  0  0  0  0  0  0
  -27.3530  -37.1790   24.8480 C   0  0  0  0  0  1  0  0  0  0  0  0
  -26.2830  -37.3250   23.8640 N   0  0  0  0  0  0  0  0  0  0  0  0
  -25.8380  -38.2260   24.0130 H   0  0  0  0  0  0  0  0  0  0  0  0
  -26.3960  -31.6400   25.1150 C   0  0  1  0  0  0  0  0  0  0  0  0
  -25.2770  -31.3350   26.1360 C   0  0  0  0  0  1  0  0  0  0  0  0
  -27.0530  -30.3000   24.7120 C   0  0  0  0  0  1  0  0  0  0  0  0
  -27.4850  -32.4700   25.8340 C   0  0  0  0  0  1  0  0  0  0  0  0
  2  6  1  0
  3  2  2  0
  4  5  1  0
  4  6  1  0
  6  1  1  0
  7  3  1  0
  7  4  1  0
  8  7  1  0
 10  9  1  0
 10  3  1  0
 10 19  1  0
 11 19  1  0
 12 17  1  0
 13 14  1  0
 13 12  1  0
 15 14  1  0
 15 24  1  0
 15 16  1  0
 17 11  1  0
 17 16  1  0
 18 11  2  0
 19 20  1  0
 21 22  2  0
 22 41  1  0
 23 22  1  0
 23 26  1  0
 24 21  1  0
 24 25  1  0
 25 23  2  0
 26 27  1  0
 27 28  2  0
 29 32  1  0
 29 28  1  0
 30 29  2  0
 31 30  1  0
 31 26  2  0
 32 33  1  0
 33 38  2  0
 33 34  1  0
 34 35  2  0
 35 36  1  0
 36 40  1  0
 37 36  2  0
 38 37  1  0
 39 38  1  0
 41 42  1  0
 42 45  1  0
 42 44  1  0
 43 41  2  0
 46 47  1  0
 46 21  1  0
 48 46  1  0
 49 52  1  0
 49  1  2  0
 52 50  1  1
 52 51  1  0
 53 54  1  0
 53 52  1  0
 55 66  2  0
 56 54  1  0
 56 61  1  0
 57 65  1  0
 57 67  1  0
 58 64  1  0
 58 60  1  0
 59 65  1  0
 60 59  1  0
 61 60  2  0
 62 63  1  0
 62 56  2  0
 63 58  2  0
 64 57  1  0
 65 55  1  0
 67 69  2  0
 68 67  1  0
 70 68  1  0
 71 80  2  0
 71 76  1  0
 72 68  1  0
 72 76  1  0
 73 72  1  0
 74 75  1  0
 74 73  1  0
 75 71  1  0
 76 77  2  0
 77 78  1  0
 79 78  2  0
 80 79  1  0
 81 55  1  0
 81 82  1  0
 81 91  1  0
 82 85  1  0
 83 87  1  0
 83 82  1  0
 84 83  2  0
 87 86  1  0
 89 87  1  0
 89 90  1  0
 89 88  1  0
 91 94  1  1
 91 92  1  0
 93 91  1  0
M  ISO  4  11 100  19 100  53 101  54 101
M  END
>  <TORSDO>  (82) 
F 21

>  <SCORE>  (82) 
-11.981

>  <name>  (82) 
82

>  <ligand_id>  (82) 
82

>  <original_smiles>  (82) 
[H]c1c([H])c([H])c2c(c1[H])C([H])([H])C([H])([H])C([H])([H])C2([H])N([H])C(=O)C1([H])N(C(=O)C([H])(N([H])C(=O)C([H])(N([H])C([H])([H])[H])C([H])([H])[H])C(C([H])([H])[H])(C([H])([H])[H])C([H])([H])[H])C([H])([H])c2c([H])c(OC([H])([H])C(C([H])([H])[H])(C([H])([H])[H])C([H])([H])C([H])([H])n3c([H])c(C([H])(N([H])C(=O)N4C([H])([H])C([H])([H])C([H])([H])C([H])(n5nc(-c6c([H])c([H])c(Oc7c([H])c([H])c(F)c([H])c7F)c([H])c6[H])c(C(=O)N([H])[H])c5N([H])[H])C4([H])[H])C([H])([H])[H])[n+]([H])c3C([H])([H])[H])c([H])c([H])c2C1([H])[H]

>  <smiles>  (82) 
[H]c1c([H])c([H])c2c(c1[H])C([H])([H])C([H])([H])C([H])([H])C2([H])N([H])C(=O)C1([H])N(C(=O)C([H])(N([H])C(=O)C([H])(N([H])C([H])([H])[H])C([H])([H])[H])C(C([H])([H])[H])(C([H])([H])[H])C([H])([H])[H])C([H])([H])c2c([H])c(OC([H])([H])C(C([H])([H])[H])(C([H])([H])[H])C([H])([H])C([H])([H])n3c([H])c(C([H])(N([H])C(=O)N4C([H])([H])C([H])([H])C([H])([H])C([H])(n5nc(-c6c([H])c([H])c(Oc7c([H])c([H])c(F)c([H])c7F)c([H])c6[H])c(C(=O)N([H])[H])c5N([H])[H])C4([H])[H])C([H])([H])[H])[n+]([H])c3C([H])([H])[H])c([H])c([H])c2C1([H])[H]

$$$$
83:0:0
     RDKit          3D

 93101  0  0  1  0  0  0  0  0999 V2000
  -29.9030  -21.1220   21.6690 C   0  0  0  0  0  0  0  0  0  0  0  0
  -29.5830  -21.7430   20.4330 C   0  0  0  0  0  0  0  0  0  0  0  0
  -30.5840  -20.0010   19.2980 C   0  0  0  0  0  0  0  0  0  0  0  0
  -30.8350  -19.3450   20.5340 C   0  0  0  0  0  0  0  0  0  0  0  0
  -29.5050  -21.7080   23.0110 C   0  0  0  0  0  1  0  0  0  0  0  0
  -30.9670  -19.3990   17.9600 C   0  0  0  0  0  1  0  0  0  0  0  0
  -29.9660  -21.2050   19.2490 N   0  0  0  0  0  0  0  0  0  0  0  0
  -30.5400  -19.9280   21.7170 N   0  0  0  0  0  0  0  0  0  0  0  0
  -28.6390  -22.9270   20.3350 C   0  0  0  0  0  2  0  0  0  0  0  0
  -29.2530  -24.3450   20.3530 C   0  0  0  0  0  2  0  0  0  0  0  0
  -28.1320  -25.3070   19.9400 C   0  0  0  0  0  2  0  0  0  0  0  0
  -28.3420  -26.7140   20.1200 O   0  0  0  0  0  0  0  0  0  0  0  0
  -24.5300  -31.8850   23.2010 C   0  0  0  0  0  0  0  0  0  0  0  0
  -27.1760  -27.4630   20.0910 C   0  0  0  0  0  0  0  0  0  0  0  0
  -23.3210  -30.4720   21.5760 C   0  0  0  0  0  3  0  0  0  0  0  0
  -24.7730  -28.9620   20.1320 C   0  0  0  0  0  0  0  0  0  0  0  0
  -25.8460  -30.8540   21.3540 C   0  0  0  0  0  2  0  0  0  0  0  0
  -25.9360  -29.4880   20.7090 C   0  0  0  0  0  0  0  0  0  0  0  0
  -27.1420  -28.7460   20.6850 C   0  0  0  0  0  3  0  0  0  0  0  0
  -25.9840  -26.9690   19.4960 C   0  0  0  0  0  3  0  0  0  0  0  0
  -24.7920  -27.7020   19.5240 C   0  0  0  0  0  3  0  0  0  0  0  0
  -23.5210  -29.8020   20.1940 C   0  0  0  0  0  2  0  0  0  0  0  0
  -24.5850  -31.0840   22.1010 N   0  0  0  0  0  0  0  0  0  0  0  0
  -23.4510  -32.1480   23.7500 O   0  0  0  0  0  0  0  0  0  0  0  0
  -22.6920  -29.4410   22.5420 C   0  0  0  0  0  0  0  0  0  0  0  0
  -21.3720  -29.2240   22.4080 N   0  0  0  0  0  0  0  0  0  0  0  0
  -23.3850  -28.8400   23.3660 O   0  0  0  0  0  0  0  0  0  0  0  0
  -20.8750  -29.7590   21.7100 H   0  0  0  0  0  0  0  0  0  0  0  0
  -18.0220  -27.9560   22.8860 C   0  0  0  0  0  0  0  0  0  0  0  0
  -20.5690  -28.2790   23.1840 C   0  0  0  0  0  3  0  0  0  0  0  0
  -20.7140  -26.8430   22.6280 C   0  0  0  0  0  2  0  0  0  0  0  0
  -19.6310  -26.4800   21.6090 C   0  0  0  0  0  2  0  0  0  0  0  0
  -18.2390  -26.6010   22.2340 C   0  0  0  0  0  2  0  0  0  0  0  0
  -19.1170  -28.7510   23.3180 C   0  0  0  0  0  0  0  0  0  0  0  0
  -18.8610  -30.0180   23.8840 C   0  0  0  0  0  3  0  0  0  0  0  0
  -17.5410  -30.4900   24.0260 C   0  0  0  0  0  3  0  0  0  0  0  0
  -16.4620  -29.6910   23.6130 C   0  0  0  0  0  3  0  0  0  0  0  0
  -16.7030  -28.4260   23.0490 C   0  0  0  0  0  3  0  0  0  0  0  0
  -25.8160  -32.5280   23.8080 C   0  0  0  0  0  3  0  0  0  0  0  0
  -25.5020  -33.9270   24.1240 N   0  0  0  0  0  0  0  0  0  0  0  0
  -25.8290  -34.9720   23.3520 C   0  0  0  0  0  0  0  0  0  0  0  0
  -26.4980  -34.8610   22.3220 O   0  0  0  0  0  0  0  0  0  0  0  0
  -24.9090  -34.0890   24.9250 H   0  0  0  0  0  0  0  0  0  0  0  0
  -24.0910  -36.7470   22.9780 C   0  0  0  0  0  1  0  0  0  0  0  0
  -25.3350  -36.3620   23.7960 C   0  0  0  0  0  3  0  0  0  0  0  0
  -27.4640  -37.2620   24.6210 C   0  0  0  0  0  1  0  0  0  0  0  0
  -26.3620  -37.4180   23.6730 N   0  0  0  0  0  0  0  0  0  0  0  0
  -25.9520  -38.3390   23.8110 H   0  0  0  0  0  0  0  0  0  0  0  0
  -26.3450  -31.7690   25.0860 C   0  0  1  0  0  0  0  0  0  0  0  0
  -25.2570  -31.5230   26.1560 C   0  0  0  0  0  1  0  0  0  0  0  0
  -26.9430  -30.3980   24.6950 C   0  0  0  0  0  1  0  0  0  0  0  0
  -27.4860  -32.5820   25.7420 C   0  0  0  0  0  1  0  0  0  0  0  0
  -31.3640  -18.0870   20.6500 O   0  0  0  0  0  0  0  0  0  0  0  0
  -30.5940  -17.0490   20.0370 C   0  0  0  0  0  2  0  0  0  0  0  0
  -29.1310  -15.9090   21.7550 C   0  0  0  0  0  1  0  0  0  0  0  0
  -30.4560  -15.8080   20.9750 C   0  0  2  0  0  0  0  0  0  0  0  0
  -31.3820  -15.9290   21.9330 F   0  0  0  0  0  0  0  0  0  0  0  0
  -30.8330  -14.5100   20.1820 C   0  0  0  0  0  0  0  0  0  0  0  0
  -30.3900  -12.3920   18.9950 C   0  0  0  0  0  2  0  0  0  0  0  0
  -29.4060  -12.6350   17.8330 C   0  0  0  0  0  2  0  0  0  0  0  0
  -27.9450  -12.5260   18.3190 C   0  0  0  0  0  2  0  0  0  0  0  0
  -27.6880  -13.3390   19.6150 C   0  0  0  0  0  3  0  0  0  0  0  0
  -28.7850  -13.0320   20.6590 C   0  0  0  0  0  2  0  0  0  0  0  0
  -30.0860  -13.3690   20.0610 N   0  0  0  0  0  0  0  0  0  0  0  0
  -31.9060  -14.5970   19.5740 O   0  0  0  0  0  0  0  0  0  0  0  0
  -25.3320  -13.9930   20.4290 C   0  0  0  0  0  0  0  0  0  0  0  0
  -24.2640  -13.2400   20.8360 C   0  0  0  0  0  0  0  0  0  0  0  0
  -24.6930  -11.8800   20.7710 C   0  0  0  0  0  0  0  0  0  0  0  0
  -26.3480  -13.0920   20.1470 N   0  0  0  0  0  0  0  0  0  0  0  0
  -25.9670  -11.8150   20.4040 N   0  0  0  0  0  0  0  0  0  0  0  0
  -23.9480  -10.6330   20.9780 C   0  0  0  0  0  0  0  0  0  0  0  0
  -24.3880   -9.6530   21.8970 C   0  0  0  0  0  3  0  0  0  0  0  0
  -23.6430   -8.4700   22.0920 C   0  0  0  0  0  3  0  0  0  0  0  0
  -22.4440   -8.2590   21.3680 C   0  0  0  0  0  0  0  0  0  0  0  0
  -22.0230   -9.2280   20.4390 C   0  0  0  0  0  3  0  0  0  0  0  0
  -22.7700  -10.4020   20.2420 C   0  0  0  0  0  3  0  0  0  0  0  0
  -21.6720   -7.1280   21.4730 O   0  0  0  0  0  0  0  0  0  0  0  0
  -21.6220   -6.3950   22.6320 C   0  0  0  0  0  0  0  0  0  0  0  0
  -21.2290   -6.9690   23.8600 C   0  0  0  0  0  3  0  0  0  0  0  0
  -21.1270   -6.1640   25.0130 C   0  0  0  0  0  3  0  0  0  0  0  0
  -21.4040   -4.7860   24.9360 C   0  0  0  0  0  0  0  0  0  0  0  0
  -21.7880   -4.2110   23.7120 C   0  0  0  0  0  3  0  0  0  0  0  0
  -21.8940   -5.0140   22.5630 C   0  0  0  0  0  0  0  0  0  0  0  0
  -22.2440   -4.4510   21.3810 F   0  0  0  0  0  0  0  0  0  0  0  0
  -21.2980   -4.0100   26.0400 F   0  0  0  0  0  0  0  0  0  0  0  0
  -22.8930  -13.7470   21.1790 C   0  0  0  0  0  0  0  0  0  0  0  0
  -22.1900  -13.0590   22.0720 N   0  0  0  0  0  0  0  0  0  0  0  0
  -22.4560  -14.7900   20.6940 O   0  0  0  0  0  0  0  0  0  0  0  0
  -22.5580  -12.2190   22.4940 H   0  0  0  0  0  0  0  0  0  0  0  0
  -21.2730  -13.3830   22.3430 H   0  0  0  0  0  0  0  0  0  0  0  0
  -25.5150  -15.3620   20.2590 N   0  0  0  0  0  0  0  0  0  0  0  0
  -24.7610  -16.0240   20.4120 H   0  0  0  0  0  0  0  0  0  0  0  0
  -26.3420  -15.7950   19.8730 H   0  0  0  0  0  0  0  0  0  0  0  0
  1  8  1  0
  1  5  1  0
  2  1  2  0
  3  4  1  0
  4 53  1  0
  4  8  2  0
  6  3  1  0
  7  3  2  0
  7  2  1  0
  9 10  1  0
  9  2  1  0
 11 12  1  0
 11 10  1  0
 13 24  2  0
 14 12  1  0
 14 19  1  0
 15 23  1  0
 15 25  1  0
 16 22  1  0
 16 18  1  0
 17 23  1  0
 18 17  1  0
 19 18  2  0
 20 21  1  0
 20 14  2  0
 21 16  2  0
 22 15  1  0
 23 13  1  0
 25 27  2  0
 26 25  1  0
 28 26  1  0
 29 38  2  0
 29 34  1  0
 30 26  1  0
 30 34  1  0
 31 30  1  0
 32 33  1  0
 32 31  1  0
 33 29  1  0
 34 35  2  0
 35 36  1  0
 37 36  2  0
 38 37  1  0
 39 13  1  0
 39 40  1  0
 39 49  1  0
 40 43  1  0
 41 45  1  0
 41 40  1  0
 42 41  2  0
 45 44  1  0
 47 45  1  0
 47 48  1  0
 47 46  1  0
 49 52  1  1
 49 50  1  0
 51 49  1  0
 54 53  1  0
 54 56  1  0
 56 55  1  1
 56 57  1  0
 58 56  1  0
 59 64  1  0
 60 61  1  0
 60 59  1  0
 62 61  1  0
 62 69  1  0
 62 63  1  0
 64 58  1  0
 64 63  1  0
 65 58  2  0
 66 67  2  0
 67 86  1  0
 68 67  1  0
 68 71  1  0
 69 70  1  0
 69 66  1  0
 70 68  2  0
 71 72  1  0
 72 73  2  0
 74 77  1  0
 74 73  1  0
 75 74  2  0
 76 75  1  0
 76 71  2  0
 77 78  1  0
 78 79  1  0
 79 80  2  0
 81 80  1  0
 81 85  1  0
 82 81  2  0
 83 78  2  0
 83 82  1  0
 84 83  1  0
 86 87  1  0
 87 90  1  0
 87 89  1  0
 88 86  2  0
 91 92  1  0
 91 66  1  0
 93 91  1  0
M  ISO  4  11 101  12 101  56 100  58 100
M  END
>  <TORSDO>  (83) 
F 22

>  <SCORE>  (83) 
-12.721

>  <name>  (83) 
83

>  <ligand_id>  (83) 
83

>  <original_smiles>  (83) 
[H]c1c([H])c([H])c2c(c1[H])C([H])([H])C([H])([H])C([H])([H])C2([H])N([H])C(=O)C1([H])N(C(=O)C([H])(N([H])C(=O)C([H])(N([H])C([H])([H])[H])C([H])([H])[H])C(C([H])([H])[H])(C([H])([H])[H])C([H])([H])[H])C([H])([H])c2c([H])c(OC([H])([H])C([H])([H])C([H])([H])c3nc(C([H])([H])[H])c(OC([H])([H])C(F)(C(=O)N4C([H])([H])C([H])([H])C([H])([H])C([H])(n5nc(-c6c([H])c([H])c(Oc7c([H])c([H])c(F)c([H])c7F)c([H])c6[H])c(C(=O)N([H])[H])c5N([H])[H])C4([H])[H])C([H])([H])[H])nc3C([H])([H])[H])c([H])c([H])c2C1([H])[H]

>  <smiles>  (83) 
[H]c1c([H])c([H])c2c(c1[H])C([H])([H])C([H])([H])C([H])([H])C2([H])N([H])C(=O)C1([H])N(C(=O)C([H])(N([H])C(=O)C([H])(N([H])C([H])([H])[H])C([H])([H])[H])C(C([H])([H])[H])(C([H])([H])[H])C([H])([H])[H])C([H])([H])c2c([H])c(OC([H])([H])C([H])([H])C([H])([H])c3nc(C([H])([H])[H])c(OC([H])([H])C(F)(C(=O)N4C([H])([H])C([H])([H])C([H])([H])C([H])(n5nc(-c6c([H])c([H])c(Oc7c([H])c([H])c(F)c([H])c7F)c([H])c6[H])c(C(=O)N([H])[H])c5N([H])[H])C4([H])[H])C([H])([H])[H])nc3C([H])([H])[H])c([H])c([H])c2C1([H])[H]

$$$$
84:0:0
     RDKit          3D

 92100  0  0  1  0  0  0  0  0999 V2000
  -30.9110  -21.2270   18.7200 C   0  0  0  0  0  3  0  0  0  0  0  0
  -31.0940  -19.8340   18.9060 C   0  0  0  0  0  0  0  0  0  0  0  0
  -29.7010  -21.8440   19.0980 C   0  0  0  0  0  0  0  0  0  0  0  0
  -30.0410  -19.0570   19.4590 C   0  0  0  0  0  0  0  0  0  0  0  0
  -28.7580  -21.0140   19.7670 C   0  0  0  0  0  0  0  0  0  0  0  0
  -32.3890  -19.2100   18.4040 C   0  0  0  0  0  1  0  0  0  0  0  0
  -28.9170  -19.6670   19.8980 N   0  0  0  0  0  0  0  0  0  0  0  0
  -27.5400  -21.7810   21.8560 C   0  0  0  0  0  1  0  0  0  0  0  0
  -27.4490  -21.5450   20.3410 C   0  0  0  0  0  2  0  0  0  0  0  0
  -29.3670  -23.2610   18.5480 C   0  0  0  0  0  2  0  0  0  0  0  0
  -29.8340  -24.5830   19.2610 C   0  0  0  0  0  2  0  0  0  0  0  0
  -28.8780  -25.7530   18.8410 C   0  0  0  0  0  2  0  0  0  0  0  0
  -28.9820  -27.1110   19.3750 O   0  0  0  0  0  0  0  0  0  0  0  0
  -24.7060  -31.4590   23.1660 C   0  0  0  0  0  0  0  0  0  0  0  0
  -27.7840  -27.8330   19.4200 C   0  0  0  0  0  0  0  0  0  0  0  0
  -23.6610  -30.2540   21.2840 C   0  0  0  0  0  3  0  0  0  0  0  0
  -25.2660  -29.1510   19.6410 C   0  0  0  0  0  0  0  0  0  0  0  0
  -26.1490  -30.8640   21.2140 C   0  0  0  0  0  2  0  0  0  0  0  0
  -26.3720  -29.6390   20.3460 C   0  0  0  0  0  0  0  0  0  0  0  0
  -27.6330  -28.9880   20.2400 C   0  0  0  0  0  3  0  0  0  0  0  0
  -26.6520  -27.4170   18.6730 C   0  0  0  0  0  3  0  0  0  0  0  0
  -25.4050  -28.0430   18.7980 C   0  0  0  0  0  3  0  0  0  0  0  0
  -23.9420  -29.8610   19.8120 C   0  0  0  0  0  2  0  0  0  0  0  0
  -24.8560  -30.8660   21.9470 N   0  0  0  0  0  0  0  0  0  0  0  0
  -23.5980  -31.5280   23.7160 O   0  0  0  0  0  0  0  0  0  0  0  0
  -23.1100  -29.0190   22.0350 C   0  0  0  0  0  0  0  0  0  0  0  0
  -21.8190  -28.7120   21.8240 N   0  0  0  0  0  0  0  0  0  0  0  0
  -23.8420  -28.3480   22.7670 O   0  0  0  0  0  0  0  0  0  0  0  0
  -21.2840  -29.3170   21.2160 H   0  0  0  0  0  0  0  0  0  0  0  0
  -18.6070  -27.0580   21.9510 C   0  0  0  0  0  0  0  0  0  0  0  0
  -21.1000  -27.5760   22.4000 C   0  0  0  0  0  3  0  0  0  0  0  0
  -21.4040  -26.2730   21.6260 C   0  0  0  0  0  2  0  0  0  0  0  0
  -20.3910  -25.9800   20.5140 C   0  0  0  0  0  2  0  0  0  0  0  0
  -18.9790  -25.8590   21.0940 C   0  0  0  0  0  2  0  0  0  0  0  0
  -19.6050  -27.8720   22.5510 C   0  0  0  0  0  0  0  0  0  0  0  0
  -19.2050  -28.9930   23.3100 C   0  0  0  0  0  3  0  0  0  0  0  0
  -17.8420  -29.3030   23.4760 C   0  0  0  0  0  3  0  0  0  0  0  0
  -16.8600  -28.4850   22.8920 C   0  0  0  0  0  3  0  0  0  0  0  0
  -17.2430  -27.3640   22.1350 C   0  0  0  0  0  3  0  0  0  0  0  0
  -25.9150  -32.0990   23.9130 C   0  0  0  0  0  3  0  0  0  0  0  0
  -25.4970  -33.4300   24.3710 N   0  0  0  0  0  0  0  0  0  0  0  0
  -25.7840  -34.5770   23.7430 C   0  0  0  0  0  0  0  0  0  0  0  0
  -26.5000  -34.6300   22.7390 O   0  0  0  0  0  0  0  0  0  0  0  0
  -24.8550  -33.4560   25.1490 H   0  0  0  0  0  0  0  0  0  0  0  0
  -23.9320  -36.2680   23.5120 C   0  0  0  0  0  1  0  0  0  0  0  0
  -25.1800  -35.8740   24.3170 C   0  0  0  0  0  3  0  0  0  0  0  0
  -27.2170  -36.8260   25.3030 C   0  0  0  0  0  1  0  0  0  0  0  0
  -26.1320  -37.0050   24.3410 N   0  0  0  0  0  0  0  0  0  0  0  0
  -25.6540  -37.8740   24.5610 H   0  0  0  0  0  0  0  0  0  0  0  0
  -26.4270  -31.2270   25.1260 C   0  0  1  0  0  0  0  0  0  0  0  0
  -25.3100  -30.8090   26.1090 C   0  0  0  0  0  1  0  0  0  0  0  0
  -27.1170  -29.9400   24.6200 C   0  0  0  0  0  1  0  0  0  0  0  0
  -27.4900  -32.0180   25.9260 C   0  0  0  0  0  1  0  0  0  0  0  0
  -30.0010  -17.5010   19.3600 C   0  0  0  0  0  2  0  0  0  0  0  0
  -30.8130  -17.2750   21.8150 C   0  0  0  0  0  1  0  0  0  0  0  0
  -30.0970  -16.5790   20.6390 C   0  0  0  0  0  3  0  0  0  0  0  0
  -30.8170  -15.2230   20.3070 C   0  0  0  0  0  0  0  0  0  0  0  0
  -30.6450  -12.9050   19.4600 C   0  0  0  0  0  2  0  0  0  0  0  0
  -29.7470  -12.9060   18.2040 C   0  0  0  0  0  2  0  0  0  0  0  0
  -28.2660  -12.7450   18.5990 C   0  0  0  0  0  2  0  0  0  0  0  0
  -27.8430  -13.7130   19.7370 C   0  0  0  0  0  3  0  0  0  0  0  0
  -28.8700  -13.7040   20.8910 C   0  0  0  0  0  2  0  0  0  0  0  0
  -30.1920  -14.0060   20.3290 N   0  0  0  0  0  0  0  0  0  0  0  0
  -31.9750  -15.3200   19.8930 O   0  0  0  0  0  0  0  0  0  0  0  0
  -25.4450  -14.2990   20.4520 C   0  0  0  0  0  0  0  0  0  0  0  0
  -24.3740  -13.5220   20.7980 C   0  0  0  0  0  0  0  0  0  0  0  0
  -24.8340  -12.1700   20.7460 C   0  0  0  0  0  0  0  0  0  0  0  0
  -26.4900  -13.4240   20.2080 N   0  0  0  0  0  0  0  0  0  0  0  0
  -26.1270  -12.1360   20.4450 N   0  0  0  0  0  0  0  0  0  0  0  0
  -24.1040  -10.9060   20.9080 C   0  0  0  0  0  0  0  0  0  0  0  0
  -24.5190   -9.9270   21.8380 C   0  0  0  0  0  3  0  0  0  0  0  0
  -23.7900   -8.7290   21.9900 C   0  0  0  0  0  3  0  0  0  0  0  0
  -22.6310   -8.4990   21.2120 C   0  0  0  0  0  0  0  0  0  0  0  0
  -22.2350   -9.4670   20.2710 C   0  0  0  0  0  3  0  0  0  0  0  0
  -22.9650  -10.6560   20.1170 C   0  0  0  0  0  3  0  0  0  0  0  0
  -21.8740   -7.3540   21.2740 O   0  0  0  0  0  0  0  0  0  0  0  0
  -21.7980   -6.6030   22.4190 C   0  0  0  0  0  0  0  0  0  0  0  0
  -21.3120   -7.1390   23.6320 C   0  0  0  0  0  3  0  0  0  0  0  0
  -21.1860   -6.3120   24.7660 C   0  0  0  0  0  3  0  0  0  0  0  0
  -21.5330   -4.9510   24.6890 C   0  0  0  0  0  0  0  0  0  0  0  0
  -22.0110   -4.4140   23.4800 C   0  0  0  0  0  3  0  0  0  0  0  0
  -22.1400   -5.2370   22.3480 C   0  0  0  0  0  0  0  0  0  0  0  0
  -22.5810   -4.7100   21.1800 F   0  0  0  0  0  0  0  0  0  0  0  0
  -21.4040   -4.1550   25.7750 F   0  0  0  0  0  0  0  0  0  0  0  0
  -22.9760  -13.9950   21.0720 C   0  0  0  0  0  0  0  0  0  0  0  0
  -22.2450  -13.2890   21.9270 N   0  0  0  0  0  0  0  0  0  0  0  0
  -22.5390  -15.0260   20.5610 O   0  0  0  0  0  0  0  0  0  0  0  0
  -22.6110  -12.4550   22.3610 H   0  0  0  0  0  0  0  0  0  0  0  0
  -21.3070  -13.5880   22.1520 H   0  0  0  0  0  0  0  0  0  0  0  0
  -25.6130  -15.6740   20.3030 N   0  0  0  0  0  0  0  0  0  0  0  0
  -24.8510  -16.3290   20.4340 H   0  0  0  0  0  0  0  0  0  0  0  0
  -26.4790  -16.1230   20.0340 H   0  0  0  0  0  0  0  0  0  0  0  0
  1  2  2  0
  1  3  1  0
  2  4  1  0
  3  5  2  0
  4  7  2  0
  5  7  1  0
  5  9  1  0
  6  2  1  0
  9  8  1  0
 10  3  1  0
 10 11  1  0
 12 11  1  0
 12 13  1  0
 13 15  1  0
 14 25  2  0
 15 20  1  0
 16 24  1  0
 16 26  1  0
 17 23  1  0
 17 19  1  0
 18 24  1  0
 19 18  1  0
 20 19  2  0
 21 22  1  0
 21 15  2  0
 22 17  2  0
 23 16  1  0
 24 14  1  0
 26 28  2  0
 27 26  1  0
 29 27  1  0
 30 39  2  0
 30 35  1  0
 31 27  1  0
 31 35  1  0
 32 31  1  0
 33 34  1  0
 33 32  1  0
 34 30  1  0
 35 36  2  0
 36 37  1  0
 38 37  2  0
 39 38  1  0
 40 14  1  0
 40 41  1  0
 40 50  1  0
 41 44  1  0
 42 46  1  0
 42 41  1  0
 43 42  2  0
 46 45  1  0
 46 48  1  0
 48 49  1  0
 48 47  1  0
 50 53  1  1
 50 51  1  0
 52 50  1  0
 54  4  1  0
 54 56  1  0
 56 55  1  0
 57 63  1  0
 57 56  1  0
 58 63  1  0
 59 60  1  0
 59 58  1  0
 61 60  1  0
 61 68  1  0
 61 62  1  0
 63 62  1  0
 64 57  2  0
 65 66  2  0
 66 85  1  0
 67 66  1  0
 67 70  1  0
 68 69  1  0
 68 65  1  0
 69 67  2  0
 70 71  1  0
 71 72  2  0
 73 76  1  0
 73 72  1  0
 74 73  2  0
 75 74  1  0
 75 70  2  0
 76 77  1  0
 77 78  1  0
 78 79  2  0
 80 79  1  0
 80 84  1  0
 81 80  2  0
 82 77  2  0
 82 81  1  0
 83 82  1  0
 85 86  1  0
 86 89  1  0
 86 88  1  0
 87 85  2  0
 90 91  1  0
 90 65  1  0
 92 90  1  0
M  ISO  4  12 101  13 101  56 100  57 100
M  END
>  <TORSDO>  (84) 
F 22

>  <SCORE>  (84) 
-10.368

>  <name>  (84) 
84

>  <ligand_id>  (84) 
84

>  <original_smiles>  (84) 
[H]c1c([H])c([H])c2c(c1[H])C([H])([H])C([H])([H])C([H])([H])C2([H])N([H])C(=O)C1([H])N(C(=O)C([H])(N([H])C(=O)C([H])(N([H])C([H])([H])[H])C([H])([H])[H])C(C([H])([H])[H])(C([H])([H])[H])C([H])([H])[H])C([H])([H])c2c([H])c(OC([H])([H])C([H])([H])C([H])([H])c3c(C([H])([H])C([H])([H])[H])nc(C([H])([H])C([H])(C(=O)N4C([H])([H])C([H])([H])C([H])([H])C([H])(n5nc(-c6c([H])c([H])c(Oc7c([H])c([H])c(F)c([H])c7F)c([H])c6[H])c(C(=O)N([H])[H])c5N([H])[H])C4([H])[H])C([H])([H])[H])c(C([H])([H])[H])c3[H])c([H])c([H])c2C1([H])[H]

>  <smiles>  (84) 
[H]c1c([H])c([H])c2c(c1[H])C([H])([H])C([H])([H])C([H])([H])C2([H])N([H])C(=O)C1([H])N(C(=O)C([H])(N([H])C(=O)C([H])(N([H])C([H])([H])[H])C([H])([H])[H])C(C([H])([H])[H])(C([H])([H])[H])C([H])([H])[H])C([H])([H])c2c([H])c(OC([H])([H])C([H])([H])C([H])([H])c3c(C([H])([H])C([H])([H])[H])nc(C([H])([H])C([H])(C(=O)N4C([H])([H])C([H])([H])C([H])([H])C([H])(n5nc(-c6c([H])c([H])c(Oc7c([H])c([H])c(F)c([H])c7F)c([H])c6[H])c(C(=O)N([H])[H])c5N([H])[H])C4([H])[H])C([H])([H])[H])c(C([H])([H])[H])c3[H])c([H])c([H])c2C1([H])[H]

$$$$
85:0:0
     RDKit          3D

 93101  0  0  1  0  0  0  0  0999 V2000
  -28.2500  -21.3630   20.5850 C   0  0  0  0  0  0  0  0  0  0  0  0
  -29.3660  -22.2330   20.4550 C   0  0  0  0  0  0  0  0  0  0  0  0
  -30.7780  -20.3830   20.5590 C   0  0  0  0  0  0  0  0  0  0  0  0
  -29.6630  -19.5100   20.7050 C   0  0  0  0  0  0  0  0  0  0  0  0
  -26.8180  -21.8600   20.6860 C   0  0  0  0  0  1  0  0  0  0  0  0
  -28.4010  -20.0130   20.6770 N   0  0  0  0  0  0  0  0  0  0  0  0
  -30.6220  -21.7230   20.4000 N   0  0  0  0  0  0  0  0  0  0  0  0
  -32.9220  -19.8260   19.2980 C   0  0  0  0  0  1  0  0  0  0  0  0
  -32.2240  -19.9210   20.6640 C   0  0  0  0  0  2  0  0  0  0  0  0
  -29.2780  -23.7730   20.4710 C   0  0  0  0  0  2  0  0  0  0  0  0
  -28.5910  -24.4390   19.2550 C   0  0  0  0  0  2  0  0  0  0  0  0
  -28.9980  -25.9100   18.9660 C   0  0  0  0  0  2  0  0  0  0  0  0
  -28.6870  -26.8780   19.9770 O   0  0  0  0  0  0  0  0  0  0  0  0
  -24.7100  -31.8120   23.1880 C   0  0  0  0  0  0  0  0  0  0  0  0
  -27.4810  -27.5490   19.9560 C   0  0  0  0  0  0  0  0  0  0  0  0
  -23.5460  -30.4300   21.5010 C   0  0  0  0  0  3  0  0  0  0  0  0
  -25.0400  -28.9870   20.0160 C   0  0  0  0  0  0  0  0  0  0  0  0
  -26.0590  -30.8650   21.3180 C   0  0  0  0  0  2  0  0  0  0  0  0
  -26.1780  -29.5180   20.6330 C   0  0  0  0  0  0  0  0  0  0  0  0
  -27.3940  -28.8000   20.6100 C   0  0  0  0  0  3  0  0  0  0  0  0
  -26.3220  -27.0290   19.3350 C   0  0  0  0  0  3  0  0  0  0  0  0
  -25.1070  -27.7420   19.3670 C   0  0  0  0  0  3  0  0  0  0  0  0
  -23.7730  -29.8090   20.0960 C   0  0  0  0  0  2  0  0  0  0  0  0
  -24.7900  -31.0480   22.0620 N   0  0  0  0  0  0  0  0  0  0  0  0
  -23.6230  -32.0350   23.7340 O   0  0  0  0  0  0  0  0  0  0  0  0
  -22.9240  -29.3590   22.4240 C   0  0  0  0  0  0  0  0  0  0  0  0
  -21.6060  -29.1410   22.2860 N   0  0  0  0  0  0  0  0  0  0  0  0
  -23.6220  -28.7310   23.2230 O   0  0  0  0  0  0  0  0  0  0  0  0
  -21.0980  -29.7120   21.6240 H   0  0  0  0  0  0  0  0  0  0  0  0
  -18.2650  -27.8280   22.7290 C   0  0  0  0  0  0  0  0  0  0  0  0
  -20.8150  -28.1520   23.0210 C   0  0  0  0  0  3  0  0  0  0  0  0
  -20.9610  -26.7440   22.3970 C   0  0  0  0  0  2  0  0  0  0  0  0
  -19.8730  -26.4200   21.3700 C   0  0  0  0  0  2  0  0  0  0  0  0
  -18.4840  -26.5060   22.0110 C   0  0  0  0  0  2  0  0  0  0  0  0
  -19.3610  -28.6070   23.1890 C   0  0  0  0  0  0  0  0  0  0  0  0
  -19.1030  -29.8430   23.8180 C   0  0  0  0  0  3  0  0  0  0  0  0
  -17.7830  -30.3010   23.9950 C   0  0  0  0  0  3  0  0  0  0  0  0
  -16.7040  -29.5150   23.5550 C   0  0  0  0  0  3  0  0  0  0  0  0
  -16.9460  -28.2820   22.9270 C   0  0  0  0  0  3  0  0  0  0  0  0
  -25.9770  -32.4600   23.8310 C   0  0  0  0  0  3  0  0  0  0  0  0
  -25.6360  -33.8430   24.1900 N   0  0  0  0  0  0  0  0  0  0  0  0
  -25.9450  -34.9190   23.4570 C   0  0  0  0  0  0  0  0  0  0  0  0
  -26.6210  -34.8520   22.4250 O   0  0  0  0  0  0  0  0  0  0  0  0
  -25.0430  -33.9680   24.9980 H   0  0  0  0  0  0  0  0  0  0  0  0
  -24.1780  -36.6780   23.1300 C   0  0  0  0  0  1  0  0  0  0  0  0
  -25.4240  -36.2860   23.9400 C   0  0  0  0  0  3  0  0  0  0  0  0
  -27.5310  -37.2000   24.8050 C   0  0  0  0  0  1  0  0  0  0  0  0
  -26.4330  -37.3650   23.8560 N   0  0  0  0  0  0  0  0  0  0  0  0
  -26.0090  -38.2730   24.0190 H   0  0  0  0  0  0  0  0  0  0  0  0
  -26.5100  -31.6700   25.0900 C   0  0  1  0  0  0  0  0  0  0  0  0
  -25.4170  -31.3590   26.1420 C   0  0  0  0  0  1  0  0  0  0  0  0
  -27.1410  -30.3260   24.6590 C   0  0  0  0  0  1  0  0  0  0  0  0
  -27.6380  -32.4770   25.7760 C   0  0  0  0  0  1  0  0  0  0  0  0
  -29.7740  -18.0250   21.1130 C   0  0  0  0  0  3  0  0  0  0  0  0
  -30.3670  -16.9990   20.0900 C   0  0  0  0  0  3  0  0  0  0  0  0
  -30.9540  -14.6100   19.7760 C   0  0  0  0  0  0  0  0  0  0  0  0
  -30.4770  -12.4980   18.5650 C   0  0  0  0  0  2  0  0  0  0  0  0
  -29.4280  -12.7450   17.4630 C   0  0  0  0  0  2  0  0  0  0  0  0
  -28.0020  -12.5980   18.0260 C   0  0  0  0  0  2  0  0  0  0  0  0
  -27.7970  -13.4060   19.3330 C   0  0  0  0  0  3  0  0  0  0  0  0
  -28.9500  -13.1560   20.3300 C   0  0  0  0  0  2  0  0  0  0  0  0
  -30.2260  -13.4580   19.6570 N   0  0  0  0  0  0  0  0  0  0  0  0
  -31.9540  -14.8280   19.0860 O   0  0  0  0  0  0  0  0  0  0  0  0
  -30.6070  -15.4040   22.0210 C   0  0  0  0  0  1  0  0  0  0  0  0
  -30.4410  -15.5850   20.5730 N   0  0  0  0  0  0  0  0  0  0  0  0
  -25.4800  -14.0040   20.2850 C   0  0  0  0  0  0  0  0  0  0  0  0
  -24.4450  -13.2240   20.7260 C   0  0  0  0  0  0  0  0  0  0  0  0
  -24.8920  -11.8720   20.6180 C   0  0  0  0  0  0  0  0  0  0  0  0
  -26.4920  -13.1260   19.9350 N   0  0  0  0  0  0  0  0  0  0  0  0
  -26.1490  -11.8370   20.1940 N   0  0  0  0  0  0  0  0  0  0  0  0
  -24.1770  -10.6080   20.8380 C   0  0  0  0  0  0  0  0  0  0  0  0
  -24.6210   -9.6630   21.7910 C   0  0  0  0  0  3  0  0  0  0  0  0
  -23.9030   -8.4650   21.9990 C   0  0  0  0  0  3  0  0  0  0  0  0
  -22.7300   -8.2010   21.2530 C   0  0  0  0  0  0  0  0  0  0  0  0
  -22.3050   -9.1340   20.2910 C   0  0  0  0  0  3  0  0  0  0  0  0
  -23.0230  -10.3240   20.0820 C   0  0  0  0  0  3  0  0  0  0  0  0
  -21.9870   -7.0520   21.3660 O   0  0  0  0  0  0  0  0  0  0  0  0
  -21.8650   -6.3870   22.5610 C   0  0  0  0  0  0  0  0  0  0  0  0
  -21.3380   -7.0140   23.7100 C   0  0  0  0  0  3  0  0  0  0  0  0
  -21.1640   -6.2760   24.8980 C   0  0  0  0  0  3  0  0  0  0  0  0
  -21.5110   -4.9110   24.9370 C   0  0  0  0  0  0  0  0  0  0  0  0
  -22.0300   -4.2850   23.7910 C   0  0  0  0  0  3  0  0  0  0  0  0
  -22.2040   -5.0190   22.6050 C   0  0  0  0  0  0  0  0  0  0  0  0
  -22.6850   -4.4040   21.4970 F   0  0  0  0  0  0  0  0  0  0  0  0
  -21.3400   -4.2000   26.0750 F   0  0  0  0  0  0  0  0  0  0  0  0
  -23.0810  -13.6990   21.1370 C   0  0  0  0  0  0  0  0  0  0  0  0
  -22.4450  -12.9990   22.0690 N   0  0  0  0  0  0  0  0  0  0  0  0
  -22.5920  -14.7250   20.6660 O   0  0  0  0  0  0  0  0  0  0  0  0
  -22.8510  -12.1640   22.4640 H   0  0  0  0  0  0  0  0  0  0  0  0
  -21.5370  -13.3060   22.3950 H   0  0  0  0  0  0  0  0  0  0  0  0
  -25.6350  -15.3800   20.1330 N   0  0  0  0  0  0  0  0  0  0  0  0
  -24.8920  -16.0370   20.3430 H   0  0  0  0  0  0  0  0  0  0  0  0
  -26.4630  -15.8290   19.7640 H   0  0  0  0  0  0  0  0  0  0  0  0
  1  6  1  0
  1  5  1  0
  2 10  1  0
  2  1  2  0
  3  9  1  0
  3  4  1  0
  4 54  1  0
  6  4  2  0
  7  2  1  0
  7  3  2  0
  8  9  1  0
 11 10  1  0
 12 11  1  0
 12 13  1  0
 14 25  2  0
 15 13  1  0
 15 20  1  0
 16 24  1  0
 16 26  1  0
 17 23  1  0
 17 19  1  0
 18 24  1  0
 19 18  1  0
 20 19  2  0
 21 22  1  0
 21 15  2  0
 22 17  2  0
 23 16  1  0
 24 14  1  0
 26 28  2  0
 27 26  1  0
 29 27  1  0
 30 39  2  0
 30 35  1  0
 31 27  1  0
 31 35  1  0
 32 31  1  0
 33 34  1  0
 33 32  1  0
 34 30  1  0
 35 36  2  0
 36 37  1  0
 38 37  2  0
 39 38  1  0
 40 14  1  0
 40 41  1  0
 40 50  1  0
 41 44  1  0
 42 46  1  0
 42 41  1  0
 43 42  2  0
 46 45  1  0
 48 46  1  0
 48 49  1  0
 48 47  1  0
 50 53  1  1
 50 51  1  0
 52 50  1  0
 55 65  1  0
 55 54  2  0
 56 65  1  0
 57 62  1  0
 58 59  1  0
 58 57  1  0
 60 59  1  0
 60 69  1  0
 60 61  1  0
 62 56  1  0
 62 61  1  0
 63 56  2  0
 65 64  1  0
 66 67  2  0
 67 86  1  0
 68 67  1  0
 68 71  1  0
 69 70  1  0
 69 66  1  0
 70 68  2  0
 71 72  1  0
 72 73  2  0
 74 77  1  0
 74 73  1  0
 75 74  2  0
 76 75  1  0
 76 71  2  0
 77 78  1  0
 78 83  2  0
 78 79  1  0
 79 80  2  0
 80 81  1  0
 81 85  1  0
 82 81  2  0
 83 82  1  0
 84 83  1  0
 86 87  1  0
 87 90  1  0
 87 89  1  0
 88 86  2  0
 91 66  1  0
 91 92  1  0
 93 91  1  0
M  ISO  4  12 101  13 101  56 100  65 100
M  END
>  <TORSDO>  (85) 
F 22

>  <SCORE>  (85) 
-11.758

>  <name>  (85) 
85

>  <ligand_id>  (85) 
85

>  <original_smiles>  (85) 
[H]c1c([H])c([H])c2c(c1[H])C([H])([H])C([H])([H])C([H])([H])C2([H])N([H])C(=O)C1([H])N(C(=O)C([H])(N([H])C(=O)C([H])(N([H])C([H])([H])[H])C([H])([H])[H])C(C([H])([H])[H])(C([H])([H])[H])C([H])([H])[H])C([H])([H])c2c([H])c(OC([H])([H])C([H])([H])C([H])([H])c3nc(C([H])([H])C([H])([H])[H])c(C([H])([H])C([H])([H])N(C(=O)N4C([H])([H])C([H])([H])C([H])([H])C([H])(n5nc(-c6c([H])c([H])c(Oc7c([H])c([H])c(F)c([H])c7F)c([H])c6[H])c(C(=O)N([H])[H])c5N([H])[H])C4([H])[H])C([H])([H])[H])nc3C([H])([H])[H])c([H])c([H])c2C1([H])[H]

>  <smiles>  (85) 
[H]c1c([H])c([H])c2c(c1[H])C([H])([H])C([H])([H])C([H])([H])C2([H])N([H])C(=O)C1([H])N(C(=O)C([H])(N([H])C(=O)C([H])(N([H])C([H])([H])[H])C([H])([H])[H])C(C([H])([H])[H])(C([H])([H])[H])C([H])([H])[H])C([H])([H])c2c([H])c(OC([H])([H])C([H])([H])C([H])([H])c3nc(C([H])([H])C([H])([H])[H])c(C([H])([H])C([H])([H])N(C(=O)N4C([H])([H])C([H])([H])C([H])([H])C([H])(n5nc(-c6c([H])c([H])c(Oc7c([H])c([H])c(F)c([H])c7F)c([H])c6[H])c(C(=O)N([H])[H])c5N([H])[H])C4([H])[H])C([H])([H])[H])nc3C([H])([H])[H])c([H])c([H])c2C1([H])[H]

$$$$
86:0:0
     RDKit          3D

 92100  0  0  1  0  0  0  0  0999 V2000
  -28.6850  -20.4430   20.0440 C   0  0  0  0  0  3  0  0  0  0  0  0
  -29.2780  -21.6570   20.3100 C   0  0  0  0  0  0  0  0  0  0  0  0
  -30.5470  -21.2510   20.8260 C   0  0  0  0  0  0  0  0  0  0  0  0
  -31.6830  -22.1210   21.2780 C   0  0  0  0  0  1  0  0  0  0  0  0
  -30.6970  -19.9250   20.8620 N   0  0  0  0  0  0  0  0  0  0  0  0
  -29.5380  -19.3990   20.4020 N   0  0  0  0  0  0  0  0  0  0  0  0
  -27.8880  -17.5670   20.3710 C   0  0  0  0  0  1  0  0  0  0  0  0
  -29.7660  -17.6310   18.7140 C   0  0  0  0  0  1  0  0  0  0  0  0
  -29.3750  -17.9280   20.1720 C   0  0  1  0  0  0  0  0  0  0  0  0
  -30.2450  -17.0010   21.1130 C   0  0  0  0  0  2  0  0  0  0  0  0
  -30.6400  -14.5340   20.4950 C   0  0  0  0  0  0  0  0  0  0  0  0
  -30.3660  -12.3600   19.3370 C   0  0  0  0  0  2  0  0  0  0  0  0
  -29.4340  -12.5660   18.1260 C   0  0  0  0  0  2  0  0  0  0  0  0
  -27.9540  -12.4180   18.5390 C   0  0  0  0  0  2  0  0  0  0  0  0
  -27.6050  -13.2470   19.8060 C   0  0  0  0  0  3  0  0  0  0  0  0
  -28.6550  -13.0270   20.9200 C   0  0  0  0  0  2  0  0  0  0  0  0
  -29.9820  -13.3460   20.3630 N   0  0  0  0  0  0  0  0  0  0  0  0
  -31.7670  -14.7220   20.0290 O   0  0  0  0  0  0  0  0  0  0  0  0
  -29.9210  -15.5440   21.0340 N   0  0  0  0  0  0  0  0  0  0  0  0
  -29.0140  -15.2760   21.3840 H   0  0  0  0  0  0  0  0  0  0  0  0
  -25.1980  -13.8570   20.4870 C   0  0  0  0  0  0  0  0  0  0  0  0
  -24.1300  -13.0900   20.8630 C   0  0  0  0  0  0  0  0  0  0  0  0
  -24.5910  -11.7390   20.8460 C   0  0  0  0  0  0  0  0  0  0  0  0
  -26.2480  -12.9750   20.2740 N   0  0  0  0  0  0  0  0  0  0  0  0
  -25.8840  -11.6960   20.5450 N   0  0  0  0  0  0  0  0  0  0  0  0
  -23.8620  -10.4810   21.0420 C   0  0  0  0  0  0  0  0  0  0  0  0
  -24.2940   -9.5140   21.9740 C   0  0  0  0  0  3  0  0  0  0  0  0
  -23.5660   -8.3190   22.1560 C   0  0  0  0  0  3  0  0  0  0  0  0
  -22.3900   -8.0830   21.4050 C   0  0  0  0  0  0  0  0  0  0  0  0
  -21.9770   -9.0390   20.4600 C   0  0  0  0  0  3  0  0  0  0  0  0
  -22.7060  -10.2260   20.2770 C   0  0  0  0  0  3  0  0  0  0  0  0
  -21.6320   -6.9410   21.4960 O   0  0  0  0  0  0  0  0  0  0  0  0
  -21.5920   -6.1950   22.6460 C   0  0  0  0  0  0  0  0  0  0  0  0
  -21.1880   -6.7480   23.8800 C   0  0  0  0  0  3  0  0  0  0  0  0
  -21.0930   -5.9280   25.0220 C   0  0  0  0  0  3  0  0  0  0  0  0
  -21.3930   -4.5550   24.9300 C   0  0  0  0  0  0  0  0  0  0  0  0
  -21.7910   -4.0020   23.7000 C   0  0  0  0  0  3  0  0  0  0  0  0
  -21.8860   -4.8200   22.5610 C   0  0  0  0  0  0  0  0  0  0  0  0
  -22.2480   -4.2780   21.3730 F   0  0  0  0  0  0  0  0  0  0  0  0
  -21.2960   -3.7640   26.0250 F   0  0  0  0  0  0  0  0  0  0  0  0
  -22.7330  -13.5730   21.1240 C   0  0  0  0  0  0  0  0  0  0  0  0
  -21.9940  -12.8880   21.9890 N   0  0  0  0  0  0  0  0  0  0  0  0
  -22.3030  -14.5960   20.5930 O   0  0  0  0  0  0  0  0  0  0  0  0
  -22.3520  -12.0630   22.4480 H   0  0  0  0  0  0  0  0  0  0  0  0
  -21.0570  -13.1970   22.2000 H   0  0  0  0  0  0  0  0  0  0  0  0
  -25.3530  -15.2230   20.2920 N   0  0  0  0  0  0  0  0  0  0  0  0
  -24.5750  -15.8670   20.3800 H   0  0  0  0  0  0  0  0  0  0  0  0
  -26.1910  -15.6660   19.9390 H   0  0  0  0  0  0  0  0  0  0  0  0
  -28.6950  -23.0620   20.0350 C   0  0  0  0  0  2  0  0  0  0  0  0
  -29.1350  -24.2250   20.9850 C   0  0  0  0  0  2  0  0  0  0  0  0
  -28.1640  -25.4480   21.1290 C   0  0  0  0  0  2  0  0  0  0  0  0
  -28.3230  -26.5800   20.2340 O   0  0  0  0  0  0  0  0  0  0  0  0
  -24.5840  -31.8940   23.2310 C   0  0  0  0  0  0  0  0  0  0  0  0
  -27.2040  -27.3960   20.1930 C   0  0  0  0  0  0  0  0  0  0  0  0
  -23.3730  -30.4890   21.5950 C   0  0  0  0  0  3  0  0  0  0  0  0
  -24.8250  -28.9380   20.1760 C   0  0  0  0  0  0  0  0  0  0  0  0
  -25.9040  -30.8330   21.3990 C   0  0  0  0  0  2  0  0  0  0  0  0
  -25.9870  -29.4550   20.7650 C   0  0  0  0  0  0  0  0  0  0  0  0
  -27.1840  -28.6920   20.7680 C   0  0  0  0  0  3  0  0  0  0  0  0
  -26.0290  -26.9080   19.5860 C   0  0  0  0  0  3  0  0  0  0  0  0
  -24.8420  -27.6670   19.5800 C   0  0  0  0  0  3  0  0  0  0  0  0
  -23.5820  -29.8020   20.2190 C   0  0  0  0  0  2  0  0  0  0  0  0
  -24.6380  -31.0880   22.1330 N   0  0  0  0  0  0  0  0  0  0  0  0
  -23.5030  -32.1730   23.7700 O   0  0  0  0  0  0  0  0  0  0  0  0
  -22.7170  -29.4760   22.5630 C   0  0  0  0  0  0  0  0  0  0  0  0
  -21.3890  -29.3040   22.4420 N   0  0  0  0  0  0  0  0  0  0  0  0
  -23.3980  -28.8480   23.3760 O   0  0  0  0  0  0  0  0  0  0  0  0
  -20.9000  -29.8620   21.7560 H   0  0  0  0  0  0  0  0  0  0  0  0
  -18.0070  -28.1390   22.9640 C   0  0  0  0  0  0  0  0  0  0  0  0
  -20.5700  -28.3740   23.2190 C   0  0  0  0  0  3  0  0  0  0  0  0
  -20.6550  -26.9420   22.6440 C   0  0  0  0  0  2  0  0  0  0  0  0
  -19.5450  -26.6280   21.6370 C   0  0  0  0  0  2  0  0  0  0  0  0
  -18.1680  -26.7870   22.2880 C   0  0  0  0  0  2  0  0  0  0  0  0
  -19.1350  -28.8900   23.3870 C   0  0  0  0  0  0  0  0  0  0  0  0
  -18.9320  -30.1570   23.9770 C   0  0  0  0  0  3  0  0  0  0  0  0
  -17.6320  -30.6700   24.1500 C   0  0  0  0  0  3  0  0  0  0  0  0
  -16.5190  -29.9140   23.7430 C   0  0  0  0  0  3  0  0  0  0  0  0
  -16.7070  -28.6510   23.1550 C   0  0  0  0  0  3  0  0  0  0  0  0
  -25.8720  -32.5250   23.8480 C   0  0  0  0  0  3  0  0  0  0  0  0
  -25.5650  -33.9220   24.1790 N   0  0  0  0  0  0  0  0  0  0  0  0
  -25.9010  -34.9750   23.4210 C   0  0  0  0  0  0  0  0  0  0  0  0
  -26.5720  -34.8710   22.3900 O   0  0  0  0  0  0  0  0  0  0  0  0
  -24.9700  -34.0770   24.9790 H   0  0  0  0  0  0  0  0  0  0  0  0
  -24.1790  -36.7730   23.0630 C   0  0  0  0  0  1  0  0  0  0  0  0
  -25.4150  -36.3640   23.8790 C   0  0  0  0  0  3  0  0  0  0  0  0
  -27.5490  -37.2400   24.7200 C   0  0  0  0  0  1  0  0  0  0  0  0
  -26.4510  -37.4140   23.7730 N   0  0  0  0  0  0  0  0  0  0  0  0
  -26.0480  -38.3340   23.9220 H   0  0  0  0  0  0  0  0  0  0  0  0
  -26.3940  -31.7520   25.1210 C   0  0  1  0  0  0  0  0  0  0  0  0
  -25.3060  -31.5150   26.1940 C   0  0  0  0  0  1  0  0  0  0  0  0
  -26.9730  -30.3740   24.7240 C   0  0  0  0  0  1  0  0  0  0  0  0
  -27.5480  -32.5450   25.7780 C   0  0  0  0  0  1  0  0  0  0  0  0
  1  2  2  0
  1  6  1  0
  2  3  1  0
  3  5  2  0
  3  4  1  0
  6  5  1  0
  9  8  1  6
  9  7  1  0
  9  6  1  0
  9 10  1  0
 11 19  1  0
 12 17  1  0
 13 14  1  0
 13 12  1  0
 15 14  1  0
 15 24  1  0
 15 16  1  0
 17 11  1  0
 17 16  1  0
 18 11  2  0
 19 10  1  0
 19 20  1  0
 21 22  2  0
 22 41  1  0
 23 22  1  0
 23 26  1  0
 24 21  1  0
 24 25  1  0
 25 23  2  0
 26 27  1  0
 27 28  2  0
 29 32  1  0
 29 28  1  0
 30 29  2  0
 31 30  1  0
 31 26  2  0
 32 33  1  0
 33 34  1  0
 34 35  2  0
 36 35  1  0
 36 40  1  0
 37 36  2  0
 38 33  2  0
 38 37  1  0
 39 38  1  0
 41 42  1  0
 42 45  1  0
 42 44  1  0
 43 41  2  0
 46 47  1  0
 46 21  1  0
 48 46  1  0
 49  2  1  0
 49 50  1  0
 50 51  1  0
 52 51  1  0
 53 64  2  0
 54 52  1  0
 54 59  1  0
 55 63  1  0
 55 65  1  0
 56 62  1  0
 56 58  1  0
 57 63  1  0
 58 59  2  0
 58 57  1  0
 60 54  2  0
 61 60  1  0
 61 56  2  0
 62 55  1  0
 63 53  1  0
 65 67  2  0
 66 65  1  0
 68 66  1  0
 69 78  2  0
 69 74  1  0
 70 66  1  0
 70 74  1  0
 71 70  1  0
 72 73  1  0
 72 71  1  0
 73 69  1  0
 74 75  2  0
 75 76  1  0
 77 76  2  0
 78 77  1  0
 79 53  1  0
 79 80  1  0
 79 89  1  0
 80 83  1  0
 81 85  1  0
 81 80  1  0
 82 81  2  0
 85 84  1  0
 87 85  1  0
 87 88  1  0
 87 86  1  0
 89 92  1  1
 89 90  1  0
 91 89  1  0
M  ISO  4  11 100  19 100  51 101  52 101
M  END
>  <TORSDO>  (86) 
F 21

>  <SCORE>  (86) 
-13.740

>  <name>  (86) 
86

>  <ligand_id>  (86) 
86

>  <original_smiles>  (86) 
[H]c1c([H])c([H])c2c(c1[H])C([H])([H])C([H])([H])C([H])([H])C2([H])N([H])C(=O)C1([H])N(C(=O)C([H])(N([H])C(=O)C([H])(N([H])C([H])([H])[H])C([H])([H])[H])C(C([H])([H])[H])(C([H])([H])[H])C([H])([H])[H])C([H])([H])c2c([H])c(OC([H])([H])C([H])([H])C([H])([H])c3c(C([H])([H])[H])nn(C(C([H])([H])[H])(C([H])([H])[H])C([H])([H])N([H])C(=O)N4C([H])([H])C([H])([H])C([H])([H])C([H])(n5nc(-c6c([H])c([H])c(Oc7c([H])c([H])c(F)c([H])c7F)c([H])c6[H])c(C(=O)N([H])[H])c5N([H])[H])C4([H])[H])c3[H])c([H])c([H])c2C1([H])[H]

>  <smiles>  (86) 
[H]c1c([H])c([H])c2c(c1[H])C([H])([H])C([H])([H])C([H])([H])C2([H])N([H])C(=O)C1([H])N(C(=O)C([H])(N([H])C(=O)C([H])(N([H])C([H])([H])[H])C([H])([H])[H])C(C([H])([H])[H])(C([H])([H])[H])C([H])([H])[H])C([H])([H])c2c([H])c(OC([H])([H])C([H])([H])C([H])([H])c3c(C([H])([H])[H])nn(C(C([H])([H])[H])(C([H])([H])[H])C([H])([H])N([H])C(=O)N4C([H])([H])C([H])([H])C([H])([H])C([H])(n5nc(-c6c([H])c([H])c(Oc7c([H])c([H])c(F)c([H])c7F)c([H])c6[H])c(C(=O)N([H])[H])c5N([H])[H])C4([H])[H])c3[H])c([H])c([H])c2C1([H])[H]

$$$$
87:0:0
     RDKit          3D

 93101  0  0  1  0  0  0  0  0999 V2000
  -29.0110  -20.3010   19.8950 C   0  0  0  0  0  3  0  0  0  0  0  0
  -30.8390  -21.5050   19.5500 C   0  0  0  0  0  3  0  0  0  0  0  0
  -29.4950  -21.6350   19.7570 C   0  0  0  0  0  0  0  0  0  0  0  0
  -30.0090  -19.3850   19.6430 C   0  0  0  0  0  0  0  0  0  0  0  0
  -32.5160  -19.7020   19.1580 C   0  0  0  0  0  1  0  0  0  0  0  0
  -31.1660  -20.1550   19.4580 N   0  0  0  0  0  0  0  0  0  0  0  0
  -30.3260  -17.4020   18.0970 C   0  0  0  0  0  1  0  0  0  0  0  0
  -28.3910  -17.4860   19.5960 C   0  0  0  0  0  1  0  0  0  0  0  0
  -29.8890  -17.8480   19.5080 C   0  0  2  0  0  0  0  0  0  0  0  0
  -30.7310  -17.0910   20.6090 C   0  0  0  0  0  2  0  0  0  0  0  0
  -29.0710  -15.6170   21.8860 C   0  0  0  0  0  1  0  0  0  0  0  0
  -31.4770  -15.3720   22.2630 C   0  0  0  0  0  1  0  0  0  0  0  0
  -30.4330  -15.6160   21.1460 C   0  0  2  0  0  0  0  0  0  0  0  0
  -30.7290  -14.4750   20.0830 C   0  0  0  0  0  0  0  0  0  0  0  0
  -30.3390  -12.3810   18.7940 C   0  0  0  0  0  2  0  0  0  0  0  0
  -29.3200  -12.6020   17.6560 C   0  0  0  0  0  2  0  0  0  0  0  0
  -27.8680  -12.4510   18.1560 C   0  0  0  0  0  2  0  0  0  0  0  0
  -27.6190  -13.2270   19.4750 C   0  0  0  0  0  3  0  0  0  0  0  0
  -28.7320  -12.8940   20.4900 C   0  0  0  0  0  2  0  0  0  0  0  0
  -30.0140  -13.3130   19.8980 N   0  0  0  0  0  0  0  0  0  0  0  0
  -31.7420  -14.6620   19.4000 O   0  0  0  0  0  0  0  0  0  0  0  0
  -25.2550  -13.8530   20.2820 C   0  0  0  0  0  0  0  0  0  0  0  0
  -24.2020  -13.0890   20.7060 C   0  0  0  0  0  0  0  0  0  0  0  0
  -24.6560  -11.7350   20.6620 C   0  0  0  0  0  0  0  0  0  0  0  0
  -26.2860  -12.9650   20.0140 N   0  0  0  0  0  0  0  0  0  0  0  0
  -25.9290  -11.6860   20.2920 N   0  0  0  0  0  0  0  0  0  0  0  0
  -23.9340  -10.4790   20.8960 C   0  0  0  0  0  0  0  0  0  0  0  0
  -24.3880   -9.5310   21.8380 C   0  0  0  0  0  3  0  0  0  0  0  0
  -23.6680   -8.3370   22.0570 C   0  0  0  0  0  3  0  0  0  0  0  0
  -22.4800   -8.0830   21.3320 C   0  0  0  0  0  0  0  0  0  0  0  0
  -22.0430   -9.0190   20.3780 C   0  0  0  0  0  3  0  0  0  0  0  0
  -22.7640  -10.2050   20.1580 C   0  0  0  0  0  3  0  0  0  0  0  0
  -21.7290   -6.9390   21.4590 O   0  0  0  0  0  0  0  0  0  0  0  0
  -21.6810   -6.2390   22.6380 C   0  0  0  0  0  0  0  0  0  0  0  0
  -21.2630   -6.8400   23.8460 C   0  0  0  0  0  3  0  0  0  0  0  0
  -21.1610   -6.0660   25.0190 C   0  0  0  0  0  3  0  0  0  0  0  0
  -21.4650   -4.6920   24.9860 C   0  0  0  0  0  0  0  0  0  0  0  0
  -21.8750   -4.0900   23.7830 C   0  0  0  0  0  3  0  0  0  0  0  0
  -21.9800   -4.8620   22.6120 C   0  0  0  0  0  0  0  0  0  0  0  0
  -22.3550   -4.2730   21.4520 F   0  0  0  0  0  0  0  0  0  0  0  0
  -21.3590   -3.9460   26.1110 F   0  0  0  0  0  0  0  0  0  0  0  0
  -22.8210  -13.5760   21.0420 C   0  0  0  0  0  0  0  0  0  0  0  0
  -22.1380  -12.8970   21.9580 N   0  0  0  0  0  0  0  0  0  0  0  0
  -22.3580  -14.5940   20.5320 O   0  0  0  0  0  0  0  0  0  0  0  0
  -22.5260  -12.0780   22.4000 H   0  0  0  0  0  0  0  0  0  0  0  0
  -21.2130  -13.2050   22.2200 H   0  0  0  0  0  0  0  0  0  0  0  0
  -25.4100  -15.2210   20.0850 N   0  0  0  0  0  0  0  0  0  0  0  0
  -24.6440  -15.8700   20.2260 H   0  0  0  0  0  0  0  0  0  0  0  0
  -26.2410  -15.6600   19.7120 H   0  0  0  0  0  0  0  0  0  0  0  0
  -28.6310  -22.8930   19.7200 C   0  0  0  0  0  2  0  0  0  0  0  0
  -29.1840  -24.2400   20.2710 C   0  0  0  0  0  2  0  0  0  0  0  0
  -28.5470  -25.4400   19.5100 C   0  0  0  0  0  2  0  0  0  0  0  0
  -28.4030  -26.6740   20.2550 O   0  0  0  0  0  0  0  0  0  0  0  0
  -24.5950  -31.9350   23.2410 C   0  0  0  0  0  0  0  0  0  0  0  0
  -27.2190  -27.4080   20.2070 C   0  0  0  0  0  0  0  0  0  0  0  0
  -23.3870  -30.5220   21.6150 C   0  0  0  0  0  3  0  0  0  0  0  0
  -24.8330  -28.9670   20.2090 C   0  0  0  0  0  0  0  0  0  0  0  0
  -25.9220  -30.8500   21.4260 C   0  0  0  0  0  2  0  0  0  0  0  0
  -25.9980  -29.4740   20.7940 C   0  0  0  0  0  0  0  0  0  0  0  0
  -27.1870  -28.7010   20.7950 C   0  0  0  0  0  3  0  0  0  0  0  0
  -26.0170  -26.9320   19.6210 C   0  0  0  0  0  3  0  0  0  0  0  0
  -24.8390  -27.6950   19.6230 C   0  0  0  0  0  3  0  0  0  0  0  0
  -23.5930  -29.8300   20.2450 C   0  0  0  0  0  2  0  0  0  0  0  0
  -24.6530  -31.1170   22.1510 N   0  0  0  0  0  0  0  0  0  0  0  0
  -23.5140  -32.2220   23.7710 O   0  0  0  0  0  0  0  0  0  0  0  0
  -22.7260  -29.5130   22.5830 C   0  0  0  0  0  0  0  0  0  0  0  0
  -21.4060  -29.3170   22.4370 N   0  0  0  0  0  0  0  0  0  0  0  0
  -23.4020  -28.9060   23.4180 O   0  0  0  0  0  0  0  0  0  0  0  0
  -20.9210  -29.8590   21.7350 H   0  0  0  0  0  0  0  0  0  0  0  0
  -18.0350  -28.0960   22.8960 C   0  0  0  0  0  0  0  0  0  0  0  0
  -20.5830  -28.3890   23.2130 C   0  0  0  0  0  3  0  0  0  0  0  0
  -20.7130  -26.9460   22.6730 C   0  0  0  0  0  2  0  0  0  0  0  0
  -19.6360  -26.5870   21.6450 C   0  0  0  0  0  2  0  0  0  0  0  0
  -18.2390  -26.7330   22.2580 C   0  0  0  0  0  2  0  0  0  0  0  0
  -19.1370  -28.8810   23.3290 C   0  0  0  0  0  0  0  0  0  0  0  0
  -18.8940  -30.1560   23.8830 C   0  0  0  0  0  3  0  0  0  0  0  0
  -17.5820  -30.6500   24.0060 C   0  0  0  0  0  3  0  0  0  0  0  0
  -16.4940  -29.8640   23.5900 C   0  0  0  0  0  3  0  0  0  0  0  0
  -16.7210  -28.5870   23.0430 C   0  0  0  0  0  3  0  0  0  0  0  0
  -25.8830  -32.5660   23.8550 C   0  0  0  0  0  3  0  0  0  0  0  0
  -25.5760  -33.9650   24.1820 N   0  0  0  0  0  0  0  0  0  0  0  0
  -25.9000  -35.0150   23.4160 C   0  0  0  0  0  0  0  0  0  0  0  0
  -26.5600  -34.9080   22.3780 O   0  0  0  0  0  0  0  0  0  0  0  0
  -24.9930  -34.1230   24.9920 H   0  0  0  0  0  0  0  0  0  0  0  0
  -24.1670  -36.8010   23.0640 C   0  0  0  0  0  1  0  0  0  0  0  0
  -25.4120  -36.4030   23.8720 C   0  0  0  0  0  3  0  0  0  0  0  0
  -27.5490  -37.2910   24.6920 C   0  0  0  0  0  1  0  0  0  0  0  0
  -26.4440  -37.4560   23.7530 N   0  0  0  0  0  0  0  0  0  0  0  0
  -26.0370  -38.3760   23.9010 H   0  0  0  0  0  0  0  0  0  0  0  0
  -26.4070  -31.7970   25.1290 C   0  0  1  0  0  0  0  0  0  0  0  0
  -25.3170  -31.5470   26.1950 C   0  0  0  0  0  1  0  0  0  0  0  0
  -27.0060  -30.4280   24.7340 C   0  0  0  0  0  1  0  0  0  0  0  0
  -27.5490  -32.6040   25.7930 C   0  0  0  0  0  1  0  0  0  0  0  0
  2  3  2  0
  3  1  1  0
  4  1  2  0
  5  6  1  0
  6  2  1  0
  6  4  1  0
  9  7  1  6
  9  8  1  0
  9  4  1  0
  9 10  1  0
 10 13  1  0
 13 11  1  1
 13 12  1  0
 14 13  1  0
 15 20  1  0
 16 17  1  0
 16 15  1  0
 18 17  1  0
 18 25  1  0
 18 19  1  0
 20 14  1  0
 20 19  1  0
 21 14  2  0
 22 23  2  0
 23 42  1  0
 24 23  1  0
 24 27  1  0
 25 22  1  0
 25 26  1  0
 26 24  2  0
 27 28  1  0
 28 29  2  0
 30 33  1  0
 30 29  1  0
 31 30  2  0
 32 31  1  0
 32 27  2  0
 33 34  1  0
 34 35  1  0
 35 36  2  0
 37 36  1  0
 37 41  1  0
 38 37  2  0
 39 34  2  0
 39 38  1  0
 40 39  1  0
 42 43  1  0
 43 46  1  0
 43 45  1  0
 44 42  2  0
 47 48  1  0
 47 22  1  0
 49 47  1  0
 50  3  1  0
 50 51  1  0
 52 53  1  0
 52 51  1  0
 54 65  2  0
 55 53  1  0
 55 60  1  0
 56 64  1  0
 56 66  1  0
 57 63  1  0
 57 59  1  0
 58 64  1  0
 59 60  2  0
 59 58  1  0
 61 62  1  0
 61 55  2  0
 62 57  2  0
 63 56  1  0
 64 54  1  0
 66 68  2  0
 67 66  1  0
 69 67  1  0
 70 79  2  0
 70 75  1  0
 71 67  1  0
 71 75  1  0
 72 71  1  0
 73 74  1  0
 73 72  1  0
 74 70  1  0
 75 76  2  0
 76 77  1  0
 78 77  2  0
 79 78  1  0
 80 54  1  0
 80 81  1  0
 80 90  1  0
 81 84  1  0
 82 86  1  0
 82 81  1  0
 83 82  2  0
 86 85  1  0
 88 86  1  0
 88 89  1  0
 88 87  1  0
 90 93  1  1
 90 91  1  0
 92 90  1  0
M  ISO  4  13 100  14 100  52 101  53 101
M  END
>  <TORSDO>  (87) 
F 22

>  <SCORE>  (87) 
-11.477

>  <name>  (87) 
87

>  <ligand_id>  (87) 
87

>  <original_smiles>  (87) 
[H]c1c([H])c([H])c2c(c1[H])C([H])([H])C([H])([H])C([H])([H])C2([H])N([H])C(=O)C1([H])N(C(=O)C([H])(N([H])C(=O)C([H])(N([H])C([H])([H])[H])C([H])([H])[H])C(C([H])([H])[H])(C([H])([H])[H])C([H])([H])[H])C([H])([H])c2c([H])c(OC([H])([H])C([H])([H])C([H])([H])c3c([H])c(C(C([H])([H])[H])(C([H])([H])[H])C([H])([H])C(C(=O)N4C([H])([H])C([H])([H])C([H])([H])C([H])(n5nc(-c6c([H])c([H])c(Oc7c([H])c([H])c(F)c([H])c7F)c([H])c6[H])c(C(=O)N([H])[H])c5N([H])[H])C4([H])[H])(C([H])([H])[H])C([H])([H])[H])n(C([H])([H])[H])c3[H])c([H])c([H])c2C1([H])[H]

>  <smiles>  (87) 
[H]c1c([H])c([H])c2c(c1[H])C([H])([H])C([H])([H])C([H])([H])C2([H])N([H])C(=O)C1([H])N(C(=O)C([H])(N([H])C(=O)C([H])(N([H])C([H])([H])[H])C([H])([H])[H])C(C([H])([H])[H])(C([H])([H])[H])C([H])([H])[H])C([H])([H])c2c([H])c(OC([H])([H])C([H])([H])C([H])([H])c3c([H])c(C(C([H])([H])[H])(C([H])([H])[H])C([H])([H])C(C(=O)N4C([H])([H])C([H])([H])C([H])([H])C([H])(n5nc(-c6c([H])c([H])c(Oc7c([H])c([H])c(F)c([H])c7F)c([H])c6[H])c(C(=O)N([H])[H])c5N([H])[H])C4([H])[H])(C([H])([H])[H])C([H])([H])[H])n(C([H])([H])[H])c3[H])c([H])c([H])c2C1([H])[H]

$$$$
88:0:0
     RDKit          3D

 95103  0  0  1  0  0  0  0  0999 V2000
  -28.1970  -20.4050   20.8990 C   0  0  0  0  0  3  0  0  0  0  0  0
  -28.5210  -19.0310   20.7430 C   0  0  0  0  0  0  0  0  0  0  0  0
  -29.1660  -18.5820   19.5550 C   0  0  0  0  0  0  0  0  0  0  0  0
  -28.5010  -21.3360   19.8870 C   0  0  0  0  0  0  0  0  0  0  0  0
  -29.4950  -19.6080   18.6180 C   0  0  0  0  0  0  0  0  0  0  0  0
  -28.0860  -18.0630   21.8290 C   0  0  0  0  0  1  0  0  0  0  0  0
  -30.1840  -19.2990   17.2970 C   0  0  0  0  0  1  0  0  0  0  0  0
  -29.1820  -20.9270   18.7880 N   0  0  0  0  0  0  0  0  0  0  0  0
  -29.3670  -17.0470   19.2440 C   0  0  0  0  0  2  0  0  0  0  0  0
  -30.7850  -16.4060   19.4790 C   0  0  0  0  0  3  0  0  0  0  0  0
  -31.0870  -14.9630   18.8950 C   0  0  0  0  0  0  0  0  0  0  0  0
  -30.4950  -12.6830   18.1060 C   0  0  0  0  0  2  0  0  0  0  0  0
  -29.3900  -12.7440   17.0330 C   0  0  0  0  0  2  0  0  0  0  0  0
  -28.0030  -12.6950   17.6960 C   0  0  0  0  0  2  0  0  0  0  0  0
  -27.8700  -13.7050   18.8660 C   0  0  0  0  0  3  0  0  0  0  0  0
  -29.0900  -13.6670   19.8100 C   0  0  0  0  0  2  0  0  0  0  0  0
  -30.3100  -13.8390   19.0130 N   0  0  0  0  0  0  0  0  0  0  0  0
  -32.1050  -14.9100   18.2010 O   0  0  0  0  0  0  0  0  0  0  0  0
  -25.7440  -14.4820   20.0780 C   0  0  0  0  0  0  0  0  0  0  0  0
  -24.6890  -13.7930   20.6120 C   0  0  0  0  0  0  0  0  0  0  0  0
  -24.9830  -12.4080   20.4210 C   0  0  0  0  0  0  0  0  0  0  0  0
  -26.6180  -13.5220   19.5960 N   0  0  0  0  0  0  0  0  0  0  0  0
  -26.1790  -12.2650   19.8640 N   0  0  0  0  0  0  0  0  0  0  0  0
  -24.1660  -11.2150   20.6810 C   0  0  0  0  0  0  0  0  0  0  0  0
  -24.6250  -10.1700   21.5140 C   0  0  0  0  0  3  0  0  0  0  0  0
  -23.8120   -9.0440   21.7620 C   0  0  0  0  0  3  0  0  0  0  0  0
  -22.5250   -8.9530   21.1800 C   0  0  0  0  0  0  0  0  0  0  0  0
  -22.0820   -9.9850   20.3330 C   0  0  0  0  0  3  0  0  0  0  0  0
  -22.8950  -11.1030   20.0820 C   0  0  0  0  0  3  0  0  0  0  0  0
  -21.6760   -7.8850   21.3460 O   0  0  0  0  0  0  0  0  0  0  0  0
  -21.6780   -7.1360   22.4950 C   0  0  0  0  0  0  0  0  0  0  0  0
  -21.4700   -7.7180   23.7650 C   0  0  0  0  0  3  0  0  0  0  0  0
  -21.4110   -6.9030   24.9120 C   0  0  0  0  0  3  0  0  0  0  0  0
  -21.5510   -5.5070   24.7920 C   0  0  0  0  0  0  0  0  0  0  0  0
  -21.7520   -4.9250   23.5290 C   0  0  0  0  0  3  0  0  0  0  0  0
  -21.8130   -5.7370   22.3830 C   0  0  0  0  0  0  0  0  0  0  0  0
  -21.9850   -5.1700   21.1650 F   0  0  0  0  0  0  0  0  0  0  0  0
  -21.4870   -4.7220   25.8930 F   0  0  0  0  0  0  0  0  0  0  0  0
  -23.4280  -14.3860   21.1720 C   0  0  0  0  0  0  0  0  0  0  0  0
  -22.8240  -13.7270   22.1550 N   0  0  0  0  0  0  0  0  0  0  0  0
  -22.9980  -15.4660   20.7710 O   0  0  0  0  0  0  0  0  0  0  0  0
  -23.1870  -12.8520   22.5010 H   0  0  0  0  0  0  0  0  0  0  0  0
  -21.9830  -14.1040   22.5680 H   0  0  0  0  0  0  0  0  0  0  0  0
  -26.0190  -15.8390   19.9360 N   0  0  0  0  0  0  0  0  0  0  0  0
  -25.3490  -16.5490   20.2130 H   0  0  0  0  0  0  0  0  0  0  0  0
  -26.7990  -16.2170   19.4160 H   0  0  0  0  0  0  0  0  0  0  0  0
  -33.0720  -16.8530   20.6090 C   0  0  0  0  0  1  0  0  0  0  0  0
  -31.5350  -16.8290   20.7890 C   0  0  0  0  0  3  0  0  0  0  0  0
  -31.3890  -17.0190   23.3360 C   0  0  0  0  0  1  0  0  0  0  0  0
  -31.7620  -14.7500   22.3400 C   0  0  0  0  0  1  0  0  0  0  0  0
  -31.1110  -16.1290   22.1100 C   0  0  0  0  0  3  0  0  0  0  0  0
  -27.8070  -22.7340   19.8410 C   0  0  0  0  0  2  0  0  0  0  0  0
  -28.4940  -24.0800   20.3130 C   0  0  0  0  0  2  0  0  0  0  0  0
  -27.3960  -25.1560   20.6790 C   0  0  0  0  0  2  0  0  0  0  0  0
  -27.6310  -26.6120   20.7330 O   0  0  0  0  0  0  0  0  0  0  0  0
  -27.2090  -32.2620   25.1920 C   0  0  0  0  0  0  0  0  0  0  0  0
  -26.8660  -27.3300   21.6680 C   0  0  0  0  0  0  0  0  0  0  0  0
  -25.6420  -30.4030   25.6080 C   0  0  0  0  0  3  0  0  0  0  0  0
  -25.4320  -28.6850   23.7370 C   0  0  0  0  0  0  0  0  0  0  0  0
  -26.4960  -30.8790   23.2330 C   0  0  0  0  0  2  0  0  0  0  0  0
  -26.3250  -29.3980   22.9280 C   0  0  0  0  0  0  0  0  0  0  0  0
  -27.0410  -28.7290   21.8930 C   0  0  0  0  0  3  0  0  0  0  0  0
  -25.9050  -26.6690   22.4750 C   0  0  0  0  0  3  0  0  0  0  0  0
  -25.2180  -27.3210   23.5090 C   0  0  0  0  0  3  0  0  0  0  0  0
  -24.7150  -29.4330   24.8380 C   0  0  0  0  0  2  0  0  0  0  0  0
  -26.5000  -31.2140   24.6840 N   0  0  0  0  0  0  0  0  0  0  0  0
  -27.1320  -32.5710   26.3900 O   0  0  0  0  0  0  0  0  0  0  0  0
  -26.4520  -29.6020   26.6540 C   0  0  0  0  0  0  0  0  0  0  0  0
  -25.9010  -29.4670   27.8720 N   0  0  0  0  0  0  0  0  0  0  0  0
  -27.5370  -29.0950   26.3580 O   0  0  0  0  0  0  0  0  0  0  0  0
  -25.0090  -29.9130   28.0420 H   0  0  0  0  0  0  0  0  0  0  0  0
  -25.4920  -28.7400   31.3900 C   0  0  0  0  0  0  0  0  0  0  0  0
  -26.4730  -28.7270   28.9980 C   0  0  0  0  0  3  0  0  0  0  0  0
  -26.0630  -27.2370   28.9470 C   0  0  0  0  0  2  0  0  0  0  0  0
  -24.8010  -26.9310   29.7600 C   0  0  0  0  0  2  0  0  0  0  0  0
  -25.0020  -27.3110   31.2300 C   0  0  0  0  0  2  0  0  0  0  0  0
  -26.1690  -29.4100   30.3360 C   0  0  0  0  0  0  0  0  0  0  0  0
  -26.5700  -30.7500   30.5250 C   0  0  0  0  0  3  0  0  0  0  0  0
  -26.3120  -31.4160   31.7370 C   0  0  0  0  0  3  0  0  0  0  0  0
  -25.6570  -30.7430   32.7830 C   0  0  0  0  0  3  0  0  0  0  0  0
  -25.2530  -29.4070   32.6110 C   0  0  0  0  0  3  0  0  0  0  0  0
  -28.1300  -33.1350   24.2860 C   0  0  0  0  0  3  0  0  0  0  0  0
  -27.9310  -34.5370   24.6750 N   0  0  0  0  0  0  0  0  0  0  0  0
  -27.1850  -35.4190   23.9950 C   0  0  0  0  0  0  0  0  0  0  0  0
  -26.6420  -35.1460   22.9210 O   0  0  0  0  0  0  0  0  0  0  0  0
  -28.2980  -34.8130   25.5740 H   0  0  0  0  0  0  0  0  0  0  0  0
  -25.6360  -36.9350   25.2720 C   0  0  0  0  0  1  0  0  0  0  0  0
  -27.0160  -36.8240   24.6020 C   0  0  0  0  0  3  0  0  0  0  0  0
  -28.5470  -38.0560   23.1330 C   0  0  0  0  0  1  0  0  0  0  0  0
  -27.1780  -37.9150   23.6170 N   0  0  0  0  0  0  0  0  0  0  0  0
  -26.8880  -38.8040   24.0140 H   0  0  0  0  0  0  0  0  0  0  0  0
  -29.6550  -32.7390   24.3870 C   0  0  1  0  0  0  0  0  0  0  0  0
  -30.1780  -32.6520   25.8390 C   0  0  0  0  0  1  0  0  0  0  0  0
  -29.9150  -31.3730   23.7120 C   0  0  0  0  0  1  0  0  0  0  0  0
  -30.5160  -33.7780   23.6320 C   0  0  0  0  0  1  0  0  0  0  0  0
  2  1  1  0
  2  6  1  0
  3  2  2  0
  4  1  2  0
  5  8  2  0
  5  3  1  0
  7  5  1  0
  8  4  1  0
  9  3  1  0
 10  9  1  0
 10 48  1  0
 11 17  1  0
 11 10  1  0
 12 17  1  0
 13 14  1  0
 13 12  1  0
 15 14  1  0
 15 22  1  0
 15 16  1  0
 17 16  1  0
 18 11  2  0
 19 20  2  0
 20 39  1  0
 21 20  1  0
 21 24  1  0
 22 23  1  0
 22 19  1  0
 23 21  2  0
 24 25  1  0
 25 26  2  0
 27 30  1  0
 27 26  1  0
 28 27  2  0
 29 28  1  0
 29 24  2  0
 30 31  1  0
 31 32  1  0
 32 33  2  0
 34 33  1  0
 34 38  1  0
 35 34  2  0
 36 31  2  0
 36 35  1  0
 37 36  1  0
 39 40  1  0
 40 42  1  0
 40 43  1  0
 41 39  2  0
 44 19  1  0
 44 45  1  0
 46 44  1  0
 48 47  1  0
 48 51  1  0
 51 50  1  0
 51 49  1  0
 52  4  1  0
 52 53  1  0
 53 54  1  0
 54 55  1  0
 55 57  1  0
 56 67  2  0
 57 62  2  0
 57 63  1  0
 58 68  1  0
 59 65  1  0
 60 66  1  0
 61 60  1  0
 61 59  2  0
 62 61  1  0
 63 64  2  0
 64 59  1  0
 65 58  1  0
 66 56  1  0
 66 58  1  0
 68 69  1  0
 69 71  1  0
 70 68  2  0
 72 81  1  0
 73 69  1  0
 73 77  1  0
 74 73  1  0
 74 75  1  0
 75 76  1  0
 76 72  1  0
 77 78  1  0
 77 72  2  0
 78 79  2  0
 79 80  1  0
 81 80  2  0
 82 92  1  0
 82 83  1  0
 82 56  1  0
 83 86  1  0
 84 88  1  0
 84 83  1  0
 85 84  2  0
 88 87  1  0
 89 90  1  0
 90 91  1  0
 90 88  1  0
 92 93  1  1
 94 92  1  0
 95 92  1  0
M  ISO  4  10 100  11 100  54 101  55 101
M  END
>  <TORSDO>  (88) 
F 23

>  <SCORE>  (88) 
-1.860

>  <name>  (88) 
88

>  <ligand_id>  (88) 
88

>  <original_smiles>  (88) 
[H]c1c([H])c([H])c2c(c1[H])C([H])([H])C([H])([H])C([H])([H])C2([H])N([H])C(=O)C1([H])N(C(=O)C([H])(N([H])C(=O)C([H])(N([H])C([H])([H])[H])C([H])([H])[H])C(C([H])([H])[H])(C([H])([H])[H])C([H])([H])[H])C([H])([H])c2c([H])c(OC([H])([H])C([H])([H])C([H])([H])c3nc(C([H])([H])[H])c(C([H])([H])C([H])(C(=O)N4C([H])([H])C([H])([H])C([H])([H])C([H])(n5nc(-c6c([H])c([H])c(Oc7c([H])c([H])c(F)c([H])c7F)c([H])c6[H])c(C(=O)N([H])[H])c5N([H])[H])C4([H])[H])C([H])(C([H])([H])[H])C([H])(C([H])([H])[H])C([H])([H])[H])c(C([H])([H])[H])c3[H])c([H])c([H])c2C1([H])[H]

>  <smiles>  (88) 
[H]c1c([H])c([H])c2c(c1[H])C([H])([H])C([H])([H])C([H])([H])C2([H])N([H])C(=O)C1([H])N(C(=O)C([H])(N([H])C(=O)C([H])(N([H])C([H])([H])[H])C([H])([H])[H])C(C([H])([H])[H])(C([H])([H])[H])C([H])([H])[H])C([H])([H])c2c([H])c(OC([H])([H])C([H])([H])C([H])([H])c3nc(C([H])([H])[H])c(C([H])([H])C([H])(C(=O)N4C([H])([H])C([H])([H])C([H])([H])C([H])(n5nc(-c6c([H])c([H])c(Oc7c([H])c([H])c(F)c([H])c7F)c([H])c6[H])c(C(=O)N([H])[H])c5N([H])[H])C4([H])[H])C([H])(C([H])([H])[H])C([H])(C([H])([H])[H])C([H])([H])[H])c(C([H])([H])[H])c3[H])c([H])c([H])c2C1([H])[H]

$$$$
89:0:0
     RDKit          3D

 93101  0  0  1  0  0  0  0  0999 V2000
  -27.9690  -21.6300   19.5150 C   0  0  0  0  0  3  0  0  0  0  0  0
  -29.9560  -20.5600   20.3780 C   0  0  0  0  0  3  0  0  0  0  0  0
  -29.1530  -21.7320   20.2660 C   0  0  0  0  0  0  0  0  0  0  0  0
  -27.6150  -20.3880   18.9590 C   0  0  0  0  0  0  0  0  0  0  0  0
  -29.5450  -19.3370   19.7740 C   0  0  0  0  0  0  0  0  0  0  0  0
  -26.3510  -20.2270   18.1380 C   0  0  0  0  0  1  0  0  0  0  0  0
  -28.3680  -19.2740   19.1040 N   0  0  0  0  0  0  0  0  0  0  0  0
  -31.8560  -18.2900   20.1010 C   0  0  0  0  0  1  0  0  0  0  0  0
  -30.2850  -17.2910   18.4620 C   0  0  0  0  0  1  0  0  0  0  0  0
  -30.3590  -17.9970   19.8420 C   0  0  2  0  0  0  0  0  0  0  0  0
  -29.8370  -17.0720   21.0070 C   0  0  0  0  0  2  0  0  0  0  0  0
  -30.6550  -14.6030   20.5700 C   0  0  0  0  0  0  0  0  0  0  0  0
  -30.4730  -12.4140   19.4310 C   0  0  0  0  0  2  0  0  0  0  0  0
  -29.5540  -12.6140   18.2030 C   0  0  0  0  0  2  0  0  0  0  0  0
  -28.0670  -12.4610   18.5910 C   0  0  0  0  0  2  0  0  0  0  0  0
  -27.6890  -13.2900   19.8450 C   0  0  0  0  0  3  0  0  0  0  0  0
  -28.7170  -13.0490   20.9750 C   0  0  0  0  0  2  0  0  0  0  0  0
  -30.0510  -13.3870   20.4480 N   0  0  0  0  0  0  0  0  0  0  0  0
  -31.8290  -14.8080   20.2560 O   0  0  0  0  0  0  0  0  0  0  0  0
  -29.7800  -15.5920   20.8570 N   0  0  0  0  0  0  0  0  0  0  0  0
  -28.8550  -15.2270   21.0220 H   0  0  0  0  0  0  0  0  0  0  0  0
  -25.2730  -13.9120   20.4680 C   0  0  0  0  0  0  0  0  0  0  0  0
  -24.1950  -13.1460   20.8200 C   0  0  0  0  0  0  0  0  0  0  0  0
  -24.6600  -11.7950   20.8300 C   0  0  0  0  0  0  0  0  0  0  0  0
  -26.3240  -13.0250   20.2840 N   0  0  0  0  0  0  0  0  0  0  0  0
  -25.9570  -11.7500   20.5610 N   0  0  0  0  0  0  0  0  0  0  0  0
  -23.9320  -10.5350   21.0230 C   0  0  0  0  0  0  0  0  0  0  0  0
  -24.3480   -9.5810   21.9790 C   0  0  0  0  0  3  0  0  0  0  0  0
  -23.6240   -8.3820   22.1540 C   0  0  0  0  0  3  0  0  0  0  0  0
  -22.4710   -8.1290   21.3750 C   0  0  0  0  0  0  0  0  0  0  0  0
  -22.0770   -9.0700   20.4070 C   0  0  0  0  0  3  0  0  0  0  0  0
  -22.8010  -10.2600   20.2310 C   0  0  0  0  0  3  0  0  0  0  0  0
  -21.7190   -6.9830   21.4610 O   0  0  0  0  0  0  0  0  0  0  0  0
  -21.6540   -6.2520   22.6180 C   0  0  0  0  0  0  0  0  0  0  0  0
  -21.2060   -6.8180   23.8330 C   0  0  0  0  0  3  0  0  0  0  0  0
  -21.0840   -6.0120   24.9820 C   0  0  0  0  0  3  0  0  0  0  0  0
  -21.4000   -4.6420   24.9180 C   0  0  0  0  0  0  0  0  0  0  0  0
  -21.8430   -4.0760   23.7090 C   0  0  0  0  0  3  0  0  0  0  0  0
  -21.9670   -4.8790   22.5610 C   0  0  0  0  0  0  0  0  0  0  0  0
  -22.3720   -4.3240   21.3940 F   0  0  0  0  0  0  0  0  0  0  0  0
  -21.2790   -3.8660   26.0200 F   0  0  0  0  0  0  0  0  0  0  0  0
  -22.7880  -13.6250   21.0370 C   0  0  0  0  0  0  0  0  0  0  0  0
  -22.0320  -12.9430   21.8900 N   0  0  0  0  0  0  0  0  0  0  0  0
  -22.3640  -14.6370   20.4820 O   0  0  0  0  0  0  0  0  0  0  0  0
  -22.3900  -12.1280   22.3690 H   0  0  0  0  0  0  0  0  0  0  0  0
  -21.0840  -13.2420   22.0710 H   0  0  0  0  0  0  0  0  0  0  0  0
  -25.4420  -15.2790   20.2690 N   0  0  0  0  0  0  0  0  0  0  0  0
  -24.6650  -15.9280   20.3270 H   0  0  0  0  0  0  0  0  0  0  0  0
  -26.2890  -15.7090   19.9200 H   0  0  0  0  0  0  0  0  0  0  0  0
  -29.5200  -23.0300   21.0140 C   0  0  0  0  0  2  0  0  0  0  0  0
  -29.4100  -24.4120   20.2800 C   0  0  0  0  0  2  0  0  0  0  0  0
  -28.1430  -25.2680   20.5640 C   0  0  0  0  0  2  0  0  0  0  0  0
  -28.3000  -26.6710   20.2140 O   0  0  0  0  0  0  0  0  0  0  0  0
  -24.5400  -31.9540   23.2580 C   0  0  0  0  0  0  0  0  0  0  0  0
  -27.1470  -27.4460   20.2060 C   0  0  0  0  0  0  0  0  0  0  0  0
  -23.3310  -30.5510   21.6250 C   0  0  0  0  0  3  0  0  0  0  0  0
  -24.7740  -29.0040   20.2030 C   0  0  0  0  0  0  0  0  0  0  0  0
  -25.8630  -30.8870   21.4290 C   0  0  0  0  0  2  0  0  0  0  0  0
  -25.9410  -29.5110   20.7890 C   0  0  0  0  0  0  0  0  0  0  0  0
  -27.1340  -28.7450   20.7770 C   0  0  0  0  0  3  0  0  0  0  0  0
  -25.9620  -26.9710   19.6020 C   0  0  0  0  0  3  0  0  0  0  0  0
  -24.7820  -27.7360   19.6020 C   0  0  0  0  0  3  0  0  0  0  0  0
  -23.5380  -29.8740   20.2470 C   0  0  0  0  0  2  0  0  0  0  0  0
  -24.5970  -31.1430   22.1630 N   0  0  0  0  0  0  0  0  0  0  0  0
  -23.4580  -32.2350   23.7920 O   0  0  0  0  0  0  0  0  0  0  0  0
  -22.6720  -29.5330   22.5860 C   0  0  0  0  0  0  0  0  0  0  0  0
  -21.3480  -29.3550   22.4550 N   0  0  0  0  0  0  0  0  0  0  0  0
  -23.3500  -28.9100   23.4060 O   0  0  0  0  0  0  0  0  0  0  0  0
  -20.8610  -29.9120   21.7680 H   0  0  0  0  0  0  0  0  0  0  0  0
  -17.9670  -28.1780   22.9510 C   0  0  0  0  0  0  0  0  0  0  0  0
  -20.5250  -28.4240   23.2280 C   0  0  0  0  0  3  0  0  0  0  0  0
  -20.6220  -26.9900   22.6590 C   0  0  0  0  0  2  0  0  0  0  0  0
  -19.5210  -26.6670   21.6430 C   0  0  0  0  0  2  0  0  0  0  0  0
  -18.1390  -26.8230   22.2830 C   0  0  0  0  0  2  0  0  0  0  0  0
  -19.0880  -28.9360   23.3800 C   0  0  0  0  0  0  0  0  0  0  0  0
  -18.8740  -30.2040   23.9630 C   0  0  0  0  0  3  0  0  0  0  0  0
  -17.5720  -30.7140   24.1200 C   0  0  0  0  0  3  0  0  0  0  0  0
  -16.4650  -29.9520   23.7090 C   0  0  0  0  0  3  0  0  0  0  0  0
  -16.6620  -28.6850   23.1300 C   0  0  0  0  0  3  0  0  0  0  0  0
  -25.8250  -32.5850   23.8770 C   0  0  0  0  0  3  0  0  0  0  0  0
  -25.5240  -33.9870   24.1920 N   0  0  0  0  0  0  0  0  0  0  0  0
  -25.8770  -35.0310   23.4300 C   0  0  0  0  0  0  0  0  0  0  0  0
  -26.5630  -34.9130   22.4100 O   0  0  0  0  0  0  0  0  0  0  0  0
  -24.9140  -34.1540   24.9810 H   0  0  0  0  0  0  0  0  0  0  0  0
  -24.1800  -36.8400   23.0260 C   0  0  0  0  0  1  0  0  0  0  0  0
  -25.3960  -36.4260   23.8690 C   0  0  0  0  0  3  0  0  0  0  0  0
  -27.5200  -37.2860   24.7490 C   0  0  0  0  0  1  0  0  0  0  0  0
  -26.4440  -37.4660   23.7790 N   0  0  0  0  0  0  0  0  0  0  0  0
  -26.0470  -38.3920   23.9130 H   0  0  0  0  0  0  0  0  0  0  0  0
  -26.3360  -31.8210   25.1600 C   0  0  1  0  0  0  0  0  0  0  0  0
  -25.2390  -31.5970   26.2270 C   0  0  0  0  0  1  0  0  0  0  0  0
  -26.9150  -30.4390   24.7760 C   0  0  0  0  0  1  0  0  0  0  0  0
  -27.4920  -32.6150   25.8150 C   0  0  0  0  0  1  0  0  0  0  0  0
  1  3  1  0
  3  2  2  0
  3 50  1  0
  4  7  1  0
  4  1  2  0
  5 10  1  0
  5  2  1  0
  6  4  1  0
  7  5  2  0
 10  9  1  6
 10  8  1  0
 10 11  1  0
 12 20  1  0
 13 18  1  0
 14 15  1  0
 14 13  1  0
 16 15  1  0
 16 25  1  0
 16 17  1  0
 18 12  1  0
 18 17  1  0
 19 12  2  0
 20 11  1  0
 20 21  1  0
 22 23  2  0
 23 24  1  0
 23 42  1  0
 24 27  1  0
 25 22  1  0
 25 26  1  0
 26 24  2  0
 27 28  1  0
 28 29  2  0
 30 33  1  0
 30 29  1  0
 31 30  2  0
 32 31  1  0
 32 27  2  0
 33 34  1  0
 34 35  1  0
 35 36  2  0
 37 36  1  0
 37 41  1  0
 38 37  2  0
 39 34  2  0
 39 38  1  0
 40 39  1  0
 42 43  1  0
 43 46  1  0
 43 45  1  0
 44 42  2  0
 47 48  1  0
 47 22  1  0
 49 47  1  0
 51 52  1  0
 51 50  1  0
 53 52  1  0
 54 65  2  0
 55 53  1  0
 55 60  1  0
 56 64  1  0
 56 66  1  0
 57 63  1  0
 57 59  1  0
 58 64  1  0
 59 58  1  0
 60 59  2  0
 61 55  2  0
 62 61  1  0
 62 57  2  0
 63 56  1  0
 64 54  1  0
 66 68  2  0
 67 66  1  0
 69 67  1  0
 70 79  2  0
 70 75  1  0
 71 67  1  0
 71 75  1  0
 72 71  1  0
 73 74  1  0
 73 72  1  0
 74 70  1  0
 75 76  2  0
 76 77  1  0
 78 77  2  0
 79 78  1  0
 80 54  1  0
 80 81  1  0
 80 90  1  0
 81 84  1  0
 82 86  1  0
 82 81  1  0
 83 82  2  0
 86 85  1  0
 88 86  1  0
 88 89  1  0
 88 87  1  0
 90 93  1  1
 90 91  1  0
 92 90  1  0
M  ISO  4  12 100  20 100  52 101  53 101
M  END
>  <TORSDO>  (89) 
F 21

>  <SCORE>  (89) 
-13.711

>  <name>  (89) 
89

>  <ligand_id>  (89) 
89

>  <original_smiles>  (89) 
[H]c1c([H])c([H])c2c(c1[H])C([H])([H])C([H])([H])C([H])([H])C2([H])N([H])C(=O)C1([H])N(C(=O)C([H])(N([H])C(=O)C([H])(N([H])C([H])([H])[H])C([H])([H])[H])C(C([H])([H])[H])(C([H])([H])[H])C([H])([H])[H])C([H])([H])c2c([H])c(OC([H])([H])C([H])([H])C([H])([H])c3c([H])c(C([H])([H])[H])nc(C(C([H])([H])[H])(C([H])([H])[H])C([H])([H])N([H])C(=O)N4C([H])([H])C([H])([H])C([H])([H])C([H])(n5nc(-c6c([H])c([H])c(Oc7c([H])c([H])c(F)c([H])c7F)c([H])c6[H])c(C(=O)N([H])[H])c5N([H])[H])C4([H])[H])c3[H])c([H])c([H])c2C1([H])[H]

>  <smiles>  (89) 
[H]c1c([H])c([H])c2c(c1[H])C([H])([H])C([H])([H])C([H])([H])C2([H])N([H])C(=O)C1([H])N(C(=O)C([H])(N([H])C(=O)C([H])(N([H])C([H])([H])[H])C([H])([H])[H])C(C([H])([H])[H])(C([H])([H])[H])C([H])([H])[H])C([H])([H])c2c([H])c(OC([H])([H])C([H])([H])C([H])([H])c3c([H])c(C([H])([H])[H])nc(C(C([H])([H])[H])(C([H])([H])[H])C([H])([H])N([H])C(=O)N4C([H])([H])C([H])([H])C([H])([H])C([H])(n5nc(-c6c([H])c([H])c(Oc7c([H])c([H])c(F)c([H])c7F)c([H])c6[H])c(C(=O)N([H])[H])c5N([H])[H])C4([H])[H])c3[H])c([H])c([H])c2C1([H])[H]

$$$$
90:0:0
     RDKit          3D

 92100  0  0  1  0  0  0  0  0999 V2000
  -29.4230  -22.2910   18.7530 C   0  0  0  0  0  3  0  0  0  0  0  0
  -29.8180  -20.8770   18.6380 C   0  0  0  0  0  0  0  0  0  0  0  0
  -28.7130  -22.9040   19.8460 C   0  0  0  0  0  0  0  0  0  0  0  0
  -29.5590  -19.8590   19.6520 C   0  0  0  0  0  0  0  0  0  0  0  0
  -28.4990  -21.8250   20.8060 C   0  0  0  0  0  0  0  0  0  0  0  0
  -27.7600  -22.1350   22.0920 C   0  0  0  0  0  1  0  0  0  0  0  0
  -28.8710  -20.4530   20.7070 N   0  0  0  0  0  0  0  0  0  0  0  0
  -29.5030  -20.4120   16.1330 C   0  0  0  0  0  1  0  0  0  0  0  0
  -30.4880  -20.5090   17.3110 C   0  0  0  0  0  2  0  0  0  0  0  0
  -28.4510  -17.6590   18.7000 C   0  0  0  0  0  1  0  0  0  0  0  0
  -29.7280  -18.1490   19.4080 C   0  0  0  0  0  3  0  0  0  0  0  0
  -29.2690  -16.6260   21.5030 C   0  0  0  0  0  1  0  0  0  0  0  0
  -31.5310  -17.4540   21.1040 C   0  0  0  0  0  1  0  0  0  0  0  0
  -30.3140  -16.8270   20.3910 C   0  0  2  0  0  0  0  0  0  0  0  0
  -30.8570  -15.2520   19.8720 C   0  0  0  0  0  0  0  0  0  0  0  0
  -30.6950  -12.8420   18.9600 C   0  0  0  0  0  2  0  0  0  0  0  0
  -29.7000  -12.7530   17.7740 C   0  0  0  0  0  2  0  0  0  0  0  0
  -28.2570  -12.5440   18.2730 C   0  0  0  0  0  2  0  0  0  0  0  0
  -27.9200  -13.4640   19.4710 C   0  0  0  0  0  3  0  0  0  0  0  0
  -29.0380  -13.4660   20.5350 C   0  0  0  0  0  2  0  0  0  0  0  0
  -30.2610  -13.9600   19.8770 N   0  0  0  0  0  0  0  0  0  0  0  0
  -32.0090  -15.2140   19.4160 O   0  0  0  0  0  0  0  0  0  0  0  0
  -25.6090  -14.0740   20.3700 C   0  0  0  0  0  0  0  0  0  0  0  0
  -24.5480  -13.3160   20.7820 C   0  0  0  0  0  0  0  0  0  0  0  0
  -24.9720  -11.9560   20.6860 C   0  0  0  0  0  0  0  0  0  0  0  0
  -26.6100  -13.1770   20.0420 N   0  0  0  0  0  0  0  0  0  0  0  0
  -26.2430  -11.8940   20.2980 N   0  0  0  0  0  0  0  0  0  0  0  0
  -24.2200  -10.7100   20.8870 C   0  0  0  0  0  0  0  0  0  0  0  0
  -24.6230   -9.7450   21.8360 C   0  0  0  0  0  3  0  0  0  0  0  0
  -23.8710   -8.5640   22.0230 C   0  0  0  0  0  3  0  0  0  0  0  0
  -22.6990   -8.3410   21.2580 C   0  0  0  0  0  0  0  0  0  0  0  0
  -22.3150   -9.2950   20.2980 C   0  0  0  0  0  3  0  0  0  0  0  0
  -23.0690  -10.4660   20.1120 C   0  0  0  0  0  3  0  0  0  0  0  0
  -21.9190   -7.2150   21.3560 O   0  0  0  0  0  0  0  0  0  0  0  0
  -21.7740   -6.5370   22.5390 C   0  0  0  0  0  0  0  0  0  0  0  0
  -21.2450   -7.1570   23.6930 C   0  0  0  0  0  3  0  0  0  0  0  0
  -21.0500   -6.4060   24.8690 C   0  0  0  0  0  3  0  0  0  0  0  0
  -21.3720   -5.0370   24.8910 C   0  0  0  0  0  0  0  0  0  0  0  0
  -21.8920   -4.4160   23.7410 C   0  0  0  0  0  3  0  0  0  0  0  0
  -22.0910   -5.1640   22.5680 C   0  0  0  0  0  0  0  0  0  0  0  0
  -22.5730   -4.5570   21.4580 F   0  0  0  0  0  0  0  0  0  0  0  0
  -21.1770   -4.3120   26.0180 F   0  0  0  0  0  0  0  0  0  0  0  0
  -23.1830  -13.8260   21.1450 C   0  0  0  0  0  0  0  0  0  0  0  0
  -22.4920  -13.1340   22.0450 N   0  0  0  0  0  0  0  0  0  0  0  0
  -22.7450  -14.8740   20.6760 O   0  0  0  0  0  0  0  0  0  0  0  0
  -22.8610  -12.2860   22.4460 H   0  0  0  0  0  0  0  0  0  0  0  0
  -21.5810  -13.4580   22.3360 H   0  0  0  0  0  0  0  0  0  0  0  0
  -25.8010  -15.4420   20.2150 N   0  0  0  0  0  0  0  0  0  0  0  0
  -25.0760  -16.1260   20.4020 H   0  0  0  0  0  0  0  0  0  0  0  0
  -26.6500  -15.8550   19.8560 H   0  0  0  0  0  0  0  0  0  0  0  0
  -27.9110  -24.4250   19.7690 C   0  0  0  0  0  2  0  0  0  0  0  0
  -28.2610  -25.9550   20.1360 O   0  0  0  0  0  0  0  0  0  0  0  0
  -24.5560  -31.7870   23.0880 C   0  0  0  0  0  0  0  0  0  0  0  0
  -27.2450  -27.0270   20.0640 C   0  0  0  0  0  0  0  0  0  0  0  0
  -23.4120  -30.3740   21.4290 C   0  0  0  0  0  3  0  0  0  0  0  0
  -24.9110  -28.8260   20.0120 C   0  0  0  0  0  0  0  0  0  0  0  0
  -25.9750  -30.6460   21.3240 C   0  0  0  0  0  2  0  0  0  0  0  0
  -26.0800  -29.2530   20.6540 C   0  0  0  0  0  0  0  0  0  0  0  0
  -27.2450  -28.3730   20.6620 C   0  0  0  0  0  3  0  0  0  0  0  0
  -26.0450  -26.7430   19.3750 C   0  0  0  0  0  3  0  0  0  0  0  0
  -24.9130  -27.5900   19.3570 C   0  0  0  0  0  3  0  0  0  0  0  0
  -23.6680  -29.7080   20.0520 C   0  0  0  0  0  2  0  0  0  0  0  0
  -24.6670  -30.9610   21.9990 N   0  0  0  0  0  0  0  0  0  0  0  0
  -23.4540  -32.0550   23.5940 O   0  0  0  0  0  0  0  0  0  0  0  0
  -22.7290  -29.3570   22.3790 C   0  0  0  0  0  0  0  0  0  0  0  0
  -21.4040  -29.1740   22.2360 N   0  0  0  0  0  0  0  0  0  0  0  0
  -23.3950  -28.7350   23.2070 O   0  0  0  0  0  0  0  0  0  0  0  0
  -20.9180  -29.7200   21.5380 H   0  0  0  0  0  0  0  0  0  0  0  0
  -18.0300  -27.9360   22.7190 C   0  0  0  0  0  0  0  0  0  0  0  0
  -20.5870  -28.2210   22.9940 C   0  0  0  0  0  3  0  0  0  0  0  0
  -20.7040  -26.7980   22.4030 C   0  0  0  0  0  2  0  0  0  0  0  0
  -19.6070  -26.4790   21.3820 C   0  0  0  0  0  2  0  0  0  0  0  0
  -18.2200  -26.6000   22.0210 C   0  0  0  0  0  2  0  0  0  0  0  0
  -19.1400  -28.7040   23.1590 C   0  0  0  0  0  0  0  0  0  0  0  0
  -18.9070  -29.9550   23.7720 C   0  0  0  0  0  3  0  0  0  0  0  0
  -17.5960  -30.4370   23.9480 C   0  0  0  0  0  3  0  0  0  0  0  0
  -16.5000  -29.6680   23.5200 C   0  0  0  0  0  3  0  0  0  0  0  0
  -16.7190  -28.4190   22.9140 C   0  0  0  0  0  3  0  0  0  0  0  0
  -25.8100  -32.4470   23.7420 C   0  0  0  0  0  3  0  0  0  0  0  0
  -26.3200  -31.6740   25.0200 C   0  0  1  0  0  0  0  0  0  0  0  0
  -25.2120  -31.3960   26.0630 C   0  0  0  0  0  1  0  0  0  0  0  0
  -26.9470  -30.3150   24.6400 C   0  0  0  0  0  1  0  0  0  0  0  0
  -27.4360  -32.4940   25.7080 C   0  0  0  0  0  1  0  0  0  0  0  0
  -25.4560  -33.8320   24.0940 N   0  0  0  0  0  0  0  0  0  0  0  0
  -25.7620  -34.9110   23.3620 C   0  0  0  0  0  0  0  0  0  0  0  0
  -26.4370  -34.8490   22.3310 O   0  0  0  0  0  0  0  0  0  0  0  0
  -24.8540  -33.9550   24.8950 H   0  0  0  0  0  0  0  0  0  0  0  0
  -23.9870  -36.6700   23.0510 C   0  0  0  0  0  1  0  0  0  0  0  0
  -25.2390  -36.2780   23.8500 C   0  0  0  0  0  3  0  0  0  0  0  0
  -27.3460  -37.2100   24.7020 C   0  0  0  0  0  1  0  0  0  0  0  0
  -26.2430  -37.3620   23.7560 N   0  0  0  0  0  0  0  0  0  0  0  0
  -25.8110  -38.2670   23.9180 H   0  0  0  0  0  0  0  0  0  0  0  0
  1  3  1  0
  2  1  2  0
  2  4  1  0
  3  5  2  0
  4  7  2  0
  5  6  1  0
  7  5  1  0
  8  9  1  0
  9  2  1  0
 11 10  1  0
 11  4  1  0
 11 14  1  0
 14 13  1  1
 14 12  1  0
 15 21  1  0
 15 14  1  0
 16 21  1  0
 17 18  1  0
 17 16  1  0
 19 18  1  0
 19 26  1  0
 19 20  1  0
 21 20  1  0
 22 15  2  0
 23 24  2  0
 24 43  1  0
 25 24  1  0
 25 28  1  0
 26 27  1  0
 26 23  1  0
 27 25  2  0
 28 29  1  0
 29 30  2  0
 31 34  1  0
 31 30  1  0
 32 31  2  0
 33 32  1  0
 33 28  2  0
 34 35  1  0
 35 40  2  0
 35 36  1  0
 36 37  2  0
 37 38  1  0
 38 42  1  0
 39 38  2  0
 40 39  1  0
 41 40  1  0
 43 44  1  0
 44 47  1  0
 44 46  1  0
 45 43  2  0
 48 23  1  0
 48 49  1  0
 50 48  1  0
 51  3  1  0
 51 52  1  0
 53 64  2  0
 54 52  1  0
 54 59  1  0
 55 63  1  0
 55 65  1  0
 56 62  1  0
 56 58  1  0
 57 63  1  0
 58 59  2  0
 58 57  1  0
 60 54  2  0
 61 60  1  0
 61 56  2  0
 62 55  1  0
 63 53  1  0
 65 67  2  0
 66 65  1  0
 68 66  1  0
 69 78  2  0
 69 74  1  0
 70 66  1  0
 70 74  1  0
 71 70  1  0
 72 73  1  0
 72 71  1  0
 73 69  1  0
 74 75  2  0
 75 76  1  0
 77 76  2  0
 78 77  1  0
 79 53  1  0
 79 84  1  0
 79 80  1  0
 80 83  1  1
 80 81  1  0
 82 80  1  0
 84 87  1  0
 85 89  1  0
 85 84  1  0
 86 85  2  0
 89 88  1  0
 91 89  1  0
 91 92  1  0
 91 90  1  0
M  ISO  4  14 100  15 100  51 101  52 101
M  END
>  <TORSDO>  (90) 
F 20

>  <SCORE>  (90) 
-15.293

>  <name>  (90) 
90

>  <ligand_id>  (90) 
90

>  <original_smiles>  (90) 
[H]c1c([H])c([H])c2c(c1[H])C([H])([H])C([H])([H])C([H])([H])C2([H])N([H])C(=O)C1([H])N(C(=O)C([H])(N([H])C(=O)C([H])(N([H])C([H])([H])[H])C([H])([H])[H])C(C([H])([H])[H])(C([H])([H])[H])C([H])([H])[H])C([H])([H])c2c([H])c(OC([H])([H])c3c(C([H])([H])[H])nc(C([H])(C([H])([H])[H])C(C(=O)N4C([H])([H])C([H])([H])C([H])([H])C([H])(n5nc(-c6c([H])c([H])c(Oc7c([H])c([H])c(F)c([H])c7F)c([H])c6[H])c(C(=O)N([H])[H])c5N([H])[H])C4([H])[H])(C([H])([H])[H])C([H])([H])[H])c(C([H])([H])C([H])([H])[H])c3[H])c([H])c([H])c2C1([H])[H]

>  <smiles>  (90) 
[H]c1c([H])c([H])c2c(c1[H])C([H])([H])C([H])([H])C([H])([H])C2([H])N([H])C(=O)C1([H])N(C(=O)C([H])(N([H])C(=O)C([H])(N([H])C([H])([H])[H])C([H])([H])[H])C(C([H])([H])[H])(C([H])([H])[H])C([H])([H])[H])C([H])([H])c2c([H])c(OC([H])([H])c3c(C([H])([H])[H])nc(C([H])(C([H])([H])[H])C(C(=O)N4C([H])([H])C([H])([H])C([H])([H])C([H])(n5nc(-c6c([H])c([H])c(Oc7c([H])c([H])c(F)c([H])c7F)c([H])c6[H])c(C(=O)N([H])[H])c5N([H])[H])C4([H])[H])(C([H])([H])[H])C([H])([H])[H])c(C([H])([H])C([H])([H])[H])c3[H])c([H])c([H])c2C1([H])[H]

$$$$
91:0:0
     RDKit          3D

 92100  0  0  1  0  0  0  0  0999 V2000
  -29.4100  -19.6140   19.9090 C   0  0  0  0  0  3  0  0  0  0  0  0
  -30.3200  -18.8160   21.7780 C   0  0  0  0  0  3  0  0  0  0  0  0
  -29.6720  -18.4080   20.6490 C   0  0  0  0  0  0  0  0  0  0  0  0
  -29.9920  -20.6790   20.5450 C   0  0  0  0  0  0  0  0  0  0  0  0
  -31.2410  -20.9190   22.7390 C   0  0  0  0  0  1  0  0  0  0  0  0
  -30.5300  -20.1760   21.7210 N   0  0  0  0  0  0  0  0  0  0  0  0
  -28.1410  -17.0490   19.3050 C   0  0  0  0  0  1  0  0  0  0  0  0
  -29.3710  -16.9500   20.2550 C   0  0  0  0  0  3  0  0  0  0  0  0
  -30.5770  -15.9940   18.1800 C   0  0  0  0  0  1  0  0  0  0  0  0
  -31.9410  -17.0550   19.9070 C   0  0  0  0  0  1  0  0  0  0  0  0
  -30.6620  -16.1460   19.7200 C   0  0  1  0  0  0  0  0  0  0  0  0
  -31.0460  -14.7020   20.3260 C   0  0  0  0  0  0  0  0  0  0  0  0
  -30.6830  -12.4540   19.4190 C   0  0  0  0  0  2  0  0  0  0  0  0
  -29.7920  -12.5240   18.1680 C   0  0  0  0  0  2  0  0  0  0  0  0
  -28.3070  -12.4180   18.5560 C   0  0  0  0  0  2  0  0  0  0  0  0
  -27.9230  -13.3230   19.7550 C   0  0  0  0  0  3  0  0  0  0  0  0
  -28.9630  -13.3190   20.8850 C   0  0  0  0  0  2  0  0  0  0  0  0
  -30.2760  -13.5720   20.2860 N   0  0  0  0  0  0  0  0  0  0  0  0
  -32.2610  -14.5320   20.4340 O   0  0  0  0  0  0  0  0  0  0  0  0
  -25.5250  -13.9650   20.4240 C   0  0  0  0  0  0  0  0  0  0  0  0
  -24.4390  -13.2140   20.7690 C   0  0  0  0  0  0  0  0  0  0  0  0
  -24.8950  -11.8610   20.7890 C   0  0  0  0  0  0  0  0  0  0  0  0
  -26.5680  -13.0720   20.2360 N   0  0  0  0  0  0  0  0  0  0  0  0
  -26.1960  -11.8040   20.5320 N   0  0  0  0  0  0  0  0  0  0  0  0
  -24.1590  -10.6060   20.9740 C   0  0  0  0  0  0  0  0  0  0  0  0
  -24.5440   -9.6630   21.9500 C   0  0  0  0  0  3  0  0  0  0  0  0
  -23.8060   -8.4720   22.1270 C   0  0  0  0  0  3  0  0  0  0  0  0
  -22.6690   -8.2180   21.3260 C   0  0  0  0  0  0  0  0  0  0  0  0
  -22.3030   -9.1500   20.3400 C   0  0  0  0  0  3  0  0  0  0  0  0
  -23.0420  -10.3310   20.1600 C   0  0  0  0  0  3  0  0  0  0  0  0
  -21.9100   -7.0750   21.4050 O   0  0  0  0  0  0  0  0  0  0  0  0
  -21.7930   -6.3740   22.5780 C   0  0  0  0  0  0  0  0  0  0  0  0
  -21.2780   -6.9670   23.7510 C   0  0  0  0  0  3  0  0  0  0  0  0
  -21.1110   -6.1930   24.9160 C   0  0  0  0  0  3  0  0  0  0  0  0
  -21.4470   -4.8260   24.9090 C   0  0  0  0  0  0  0  0  0  0  0  0
  -21.9590   -4.2330   23.7400 C   0  0  0  0  0  3  0  0  0  0  0  0
  -22.1280   -5.0050   22.5790 C   0  0  0  0  0  0  0  0  0  0  0  0
  -22.5990   -4.4260   21.4480 F   0  0  0  0  0  0  0  0  0  0  0  0
  -21.2820   -4.0800   26.0260 F   0  0  0  0  0  0  0  0  0  0  0  0
  -23.0340  -13.7070   20.9760 C   0  0  0  0  0  0  0  0  0  0  0  0
  -22.2650  -13.0410   21.8290 N   0  0  0  0  0  0  0  0  0  0  0  0
  -22.6280  -14.7210   20.4090 O   0  0  0  0  0  0  0  0  0  0  0  0
  -22.6060  -12.2270   22.3170 H   0  0  0  0  0  0  0  0  0  0  0  0
  -21.3190  -13.3550   22.0040 H   0  0  0  0  0  0  0  0  0  0  0  0
  -25.7070  -15.3290   20.2270 N   0  0  0  0  0  0  0  0  0  0  0  0
  -24.9450  -15.9930   20.2890 H   0  0  0  0  0  0  0  0  0  0  0  0
  -26.5910  -15.7480   19.9770 H   0  0  0  0  0  0  0  0  0  0  0  0
  -30.2100  -22.1170   20.1290 C   0  0  0  0  0  2  0  0  0  0  0  0
  -28.9840  -22.9900   19.8100 C   0  0  0  0  0  2  0  0  0  0  0  0
  -29.3320  -24.4970   19.9690 C   0  0  0  0  0  2  0  0  0  0  0  0
  -28.1600  -25.4120   19.5930 C   0  0  0  0  0  2  0  0  0  0  0  0
  -28.2660  -26.7470   20.1240 O   0  0  0  0  0  0  0  0  0  0  0  0
  -24.5230  -31.9670   23.2700 C   0  0  0  0  0  0  0  0  0  0  0  0
  -27.1020  -27.5000   20.1380 C   0  0  0  0  0  0  0  0  0  0  0  0
  -23.2910  -30.5630   21.6500 C   0  0  0  0  0  3  0  0  0  0  0  0
  -24.7180  -29.0240   20.2220 C   0  0  0  0  0  0  0  0  0  0  0  0
  -25.8200  -30.9020   21.4310 C   0  0  0  0  0  2  0  0  0  0  0  0
  -25.8890  -29.5350   20.7900 C   0  0  0  0  0  0  0  0  0  0  0  0
  -27.0840  -28.7750   20.7610 C   0  0  0  0  0  3  0  0  0  0  0  0
  -25.9030  -27.0300   19.5410 C   0  0  0  0  0  3  0  0  0  0  0  0
  -24.7150  -27.7650   19.6130 C   0  0  0  0  0  3  0  0  0  0  0  0
  -23.4840  -29.8900   20.2690 C   0  0  0  0  0  2  0  0  0  0  0  0
  -24.5620  -31.1580   22.1740 N   0  0  0  0  0  0  0  0  0  0  0  0
  -23.4480  -32.2470   23.8220 O   0  0  0  0  0  0  0  0  0  0  0  0
  -22.6470  -29.5420   22.6160 C   0  0  0  0  0  0  0  0  0  0  0  0
  -21.3210  -29.3560   22.4970 N   0  0  0  0  0  0  0  0  0  0  0  0
  -23.3350  -28.9230   23.4310 O   0  0  0  0  0  0  0  0  0  0  0  0
  -20.8250  -29.9210   21.8230 H   0  0  0  0  0  0  0  0  0  0  0  0
  -17.9580  -28.1330   22.9910 C   0  0  0  0  0  0  0  0  0  0  0  0
  -20.5100  -28.4190   23.2750 C   0  0  0  0  0  3  0  0  0  0  0  0
  -20.6280  -26.9790   22.7240 C   0  0  0  0  0  2  0  0  0  0  0  0
  -19.5370  -26.6300   21.7070 C   0  0  0  0  0  2  0  0  0  0  0  0
  -18.1520  -26.7730   22.3400 C   0  0  0  0  0  2  0  0  0  0  0  0
  -19.0650  -28.9140   23.4150 C   0  0  0  0  0  0  0  0  0  0  0  0
  -18.8320  -30.1870   23.9780 C   0  0  0  0  0  3  0  0  0  0  0  0
  -17.5220  -30.6800   24.1250 C   0  0  0  0  0  3  0  0  0  0  0  0
  -16.4270  -29.8960   23.7210 C   0  0  0  0  0  3  0  0  0  0  0  0
  -16.6460  -28.6260   23.1580 C   0  0  0  0  0  3  0  0  0  0  0  0
  -25.8200  -32.5920   23.8670 C   0  0  0  0  0  3  0  0  0  0  0  0
  -25.5310  -33.9970   24.1790 N   0  0  0  0  0  0  0  0  0  0  0  0
  -25.8770  -35.0340   23.4040 C   0  0  0  0  0  0  0  0  0  0  0  0
  -26.5500  -34.9060   22.3770 O   0  0  0  0  0  0  0  0  0  0  0  0
  -24.9450  -34.1720   24.9820 H   0  0  0  0  0  0  0  0  0  0  0  0
  -24.1850  -36.8500   23.0030 C   0  0  0  0  0  1  0  0  0  0  0  0
  -25.4040  -36.4340   23.8410 C   0  0  0  0  0  3  0  0  0  0  0  0
  -27.5330  -37.2900   24.7170 C   0  0  0  0  0  1  0  0  0  0  0  0
  -26.4570  -37.4700   23.7470 N   0  0  0  0  0  0  0  0  0  0  0  0
  -26.0630  -38.3950   23.8830 H   0  0  0  0  0  0  0  0  0  0  0  0
  -26.3470  -31.8320   25.1450 C   0  0  1  0  0  0  0  0  0  0  0  0
  -25.2650  -31.6110   26.2270 C   0  0  0  0  0  1  0  0  0  0  0  0
  -26.9160  -30.4450   24.7660 C   0  0  0  0  0  1  0  0  0  0  0  0
  -27.5090  -32.6250   25.7880 C   0  0  0  0  0  1  0  0  0  0  0  0
  1  4  2  0
  1  3  1  0
  3  2  2  0
  4  6  1  0
  6  2  1  0
  6  5  1  0
  8  7  1  0
  8  3  1  0
 11  9  1  6
 11 10  1  0
 11  8  1  0
 11 12  1  0
 12 19  2  0
 13 18  1  0
 14 15  1  0
 14 13  1  0
 16 15  1  0
 16 23  1  0
 16 17  1  0
 18 12  1  0
 18 17  1  0
 20 21  2  0
 21 22  1  0
 21 40  1  0
 22 25  1  0
 23 20  1  0
 23 24  1  0
 24 22  2  0
 25 26  1  0
 26 27  2  0
 28 31  1  0
 28 27  1  0
 29 28  2  0
 30 29  1  0
 30 25  2  0
 31 32  1  0
 32 37  2  0
 32 33  1  0
 33 34  2  0
 35 34  1  0
 35 39  1  0
 36 35  2  0
 37 36  1  0
 38 37  1  0
 40 41  1  0
 41 44  1  0
 41 43  1  0
 42 40  2  0
 45 46  1  0
 45 20  1  0
 47 45  1  0
 48  4  1  0
 49 50  1  0
 49 48  1  0
 51 50  1  0
 51 52  1  0
 52 54  1  0
 53 64  2  0
 54 59  1  0
 55 63  1  0
 55 65  1  0
 56 62  1  0
 56 58  1  0
 57 63  1  0
 58 57  1  0
 59 58  2  0
 60 61  1  0
 60 54  2  0
 61 56  2  0
 62 55  1  0
 63 53  1  0
 65 67  2  0
 66 65  1  0
 68 66  1  0
 69 78  2  0
 69 74  1  0
 70 66  1  0
 70 74  1  0
 71 70  1  0
 72 73  1  0
 72 71  1  0
 73 69  1  0
 74 75  2  0
 75 76  1  0
 77 76  2  0
 78 77  1  0
 79 53  1  0
 79 80  1  0
 79 89  1  0
 80 83  1  0
 81 85  1  0
 81 80  1  0
 82 81  2  0
 85 84  1  0
 87 85  1  0
 87 88  1  0
 87 86  1  0
 89 92  1  1
 89 90  1  0
 91 89  1  0
M  ISO  4  11 100  12 100  51 101  52 101
M  END
>  <TORSDO>  (91) 
F 22

>  <SCORE>  (91) 
-12.813

>  <name>  (91) 
91

>  <ligand_id>  (91) 
91

>  <original_smiles>  (91) 
[H]c1c([H])c([H])c2c(c1[H])C([H])([H])C([H])([H])C([H])([H])C2([H])N([H])C(=O)C1([H])N(C(=O)C([H])(N([H])C(=O)C([H])(N([H])C([H])([H])[H])C([H])([H])[H])C(C([H])([H])[H])(C([H])([H])[H])C([H])([H])[H])C([H])([H])c2c([H])c(OC([H])([H])C([H])([H])C([H])([H])C([H])([H])c3c([H])c(C([H])(C([H])([H])[H])C(C(=O)N4C([H])([H])C([H])([H])C([H])([H])C([H])(n5nc(-c6c([H])c([H])c(Oc7c([H])c([H])c(F)c([H])c7F)c([H])c6[H])c(C(=O)N([H])[H])c5N([H])[H])C4([H])[H])(C([H])([H])[H])C([H])([H])[H])c([H])n3C([H])([H])[H])c([H])c([H])c2C1([H])[H]

>  <smiles>  (91) 
[H]c1c([H])c([H])c2c(c1[H])C([H])([H])C([H])([H])C([H])([H])C2([H])N([H])C(=O)C1([H])N(C(=O)C([H])(N([H])C(=O)C([H])(N([H])C([H])([H])[H])C([H])([H])[H])C(C([H])([H])[H])(C([H])([H])[H])C([H])([H])[H])C([H])([H])c2c([H])c(OC([H])([H])C([H])([H])C([H])([H])C([H])([H])c3c([H])c(C([H])(C([H])([H])[H])C(C(=O)N4C([H])([H])C([H])([H])C([H])([H])C([H])(n5nc(-c6c([H])c([H])c(Oc7c([H])c([H])c(F)c([H])c7F)c([H])c6[H])c(C(=O)N([H])[H])c5N([H])[H])C4([H])[H])(C([H])([H])[H])C([H])([H])[H])c([H])n3C([H])([H])[H])c([H])c([H])c2C1([H])[H]

$$$$
92:0:0
     RDKit          3D

 90 98  0  0  1  0  0  0  0  0999 V2000
  -29.9210  -20.1160   21.1140 C   0  0  0  0  0  3  0  0  0  0  0  0
  -30.0020  -19.0910   20.1790 C   0  0  0  0  0  0  0  0  0  0  0  0
  -29.4020  -19.6320   19.0300 N   0  0  0  0  0  0  0  0  0  0  0  0
  -28.9730  -20.8520   19.2320 N   0  0  0  0  0  0  0  0  0  0  0  0
  -29.2940  -21.2200   20.4960 N   0  0  0  0  0  0  0  0  0  0  0  0
  -31.8850  -17.8140   19.1520 C   0  0  0  0  0  1  0  0  0  0  0  0
  -30.7410  -17.6850   20.1940 C   0  0  0  0  0  3  0  0  0  0  0  0
  -29.0740  -16.4050   18.7650 C   0  0  0  0  0  1  0  0  0  0  0  0
  -28.8990  -16.3500   21.3060 C   0  0  0  0  0  1  0  0  0  0  0  0
  -29.8730  -16.2950   20.1010 C   0  0  2  0  0  0  0  0  0  0  0  0
  -30.6550  -14.8520   20.1310 C   0  0  0  0  0  0  0  0  0  0  0  0
  -30.4710  -12.5450   19.2060 C   0  0  0  0  0  2  0  0  0  0  0  0
  -29.5110  -12.5640   17.9970 C   0  0  0  0  0  2  0  0  0  0  0  0
  -28.0400  -12.4120   18.4380 C   0  0  0  0  0  2  0  0  0  0  0  0
  -27.6700  -13.3060   19.6510 C   0  0  0  0  0  3  0  0  0  0  0  0
  -28.7500  -13.2230   20.7450 C   0  0  0  0  0  2  0  0  0  0  0  0
  -30.0350  -13.6120   20.1390 N   0  0  0  0  0  0  0  0  0  0  0  0
  -31.8680  -14.8570   19.9190 O   0  0  0  0  0  0  0  0  0  0  0  0
  -25.2950  -13.9220   20.4030 C   0  0  0  0  0  0  0  0  0  0  0  0
  -24.2300  -13.1540   20.7890 C   0  0  0  0  0  0  0  0  0  0  0  0
  -24.6890  -11.8030   20.7560 C   0  0  0  0  0  0  0  0  0  0  0  0
  -26.3330  -13.0340   20.1600 N   0  0  0  0  0  0  0  0  0  0  0  0
  -25.9750  -11.7570   20.4350 N   0  0  0  0  0  0  0  0  0  0  0  0
  -23.9620  -10.5460   20.9560 C   0  0  0  0  0  0  0  0  0  0  0  0
  -24.3820   -9.5920   21.9080 C   0  0  0  0  0  3  0  0  0  0  0  0
  -23.6550   -8.3980   22.0900 C   0  0  0  0  0  3  0  0  0  0  0  0
  -22.4950   -8.1480   21.3220 C   0  0  0  0  0  0  0  0  0  0  0  0
  -22.0940   -9.0900   20.3570 C   0  0  0  0  0  3  0  0  0  0  0  0
  -22.8230  -10.2760   20.1720 C   0  0  0  0  0  3  0  0  0  0  0  0
  -21.7380   -7.0070   21.4150 O   0  0  0  0  0  0  0  0  0  0  0  0
  -21.6480   -6.2980   22.5870 C   0  0  0  0  0  0  0  0  0  0  0  0
  -21.1550   -6.8800   23.7740 C   0  0  0  0  0  3  0  0  0  0  0  0
  -21.0100   -6.0940   24.9350 C   0  0  0  0  0  3  0  0  0  0  0  0
  -21.3530   -4.7290   24.9090 C   0  0  0  0  0  0  0  0  0  0  0  0
  -21.8410   -4.1480   23.7270 C   0  0  0  0  0  3  0  0  0  0  0  0
  -21.9860   -4.9300   22.5660 C   0  0  0  0  0  0  0  0  0  0  0  0
  -22.4360   -4.3590   21.4240 F   0  0  0  0  0  0  0  0  0  0  0  0
  -21.2080   -3.9740   26.0230 F   0  0  0  0  0  0  0  0  0  0  0  0
  -22.8380  -13.6410   21.0670 C   0  0  0  0  0  0  0  0  0  0  0  0
  -22.1090  -12.9520   21.9360 N   0  0  0  0  0  0  0  0  0  0  0  0
  -22.4060  -14.6710   20.5490 O   0  0  0  0  0  0  0  0  0  0  0  0
  -22.4700  -12.1230   22.3820 H   0  0  0  0  0  0  0  0  0  0  0  0
  -21.1760  -13.2670   22.1630 H   0  0  0  0  0  0  0  0  0  0  0  0
  -25.4480  -15.2910   20.2170 N   0  0  0  0  0  0  0  0  0  0  0  0
  -24.6720  -15.9280   20.3460 H   0  0  0  0  0  0  0  0  0  0  0  0
  -26.2850  -15.7560   19.8920 H   0  0  0  0  0  0  0  0  0  0  0  0
  -28.7960  -22.5270   21.0710 C   0  0  0  0  0  2  0  0  0  0  0  0
  -29.0180  -23.9220   20.3170 C   0  0  0  0  0  3  0  0  0  0  0  0
  -28.1800  -25.1640   20.8720 C   0  0  0  0  0  3  0  0  0  0  0  0
  -28.4130  -26.5400   20.3610 O   0  0  0  0  0  0  0  0  0  0  0  0
  -24.5990  -31.9530   23.2380 C   0  0  0  0  0  0  0  0  0  0  0  0
  -27.2980  -27.3880   20.3000 C   0  0  0  0  0  0  0  0  0  0  0  0
  -23.4350  -30.5230   21.5970 C   0  0  0  0  0  3  0  0  0  0  0  0
  -24.9220  -28.9690   20.2120 C   0  0  0  0  0  0  0  0  0  0  0  0
  -25.9710  -30.8710   21.4410 C   0  0  0  0  0  2  0  0  0  0  0  0
  -26.0760  -29.4840   20.8200 C   0  0  0  0  0  0  0  0  0  0  0  0
  -27.2700  -28.7050   20.8540 C   0  0  0  0  0  3  0  0  0  0  0  0
  -26.1280  -26.9290   19.6610 C   0  0  0  0  0  3  0  0  0  0  0  0
  -24.9490  -27.6960   19.6230 C   0  0  0  0  0  3  0  0  0  0  0  0
  -23.6780  -29.8330   20.2280 C   0  0  0  0  0  2  0  0  0  0  0  0
  -24.6880  -31.1320   22.1500 N   0  0  0  0  0  0  0  0  0  0  0  0
  -23.5040  -32.2260   23.7510 O   0  0  0  0  0  0  0  0  0  0  0  0
  -22.7670  -29.5090   22.5580 C   0  0  0  0  0  0  0  0  0  0  0  0
  -21.4410  -29.3350   22.4260 N   0  0  0  0  0  0  0  0  0  0  0  0
  -23.4410  -28.8840   23.3800 O   0  0  0  0  0  0  0  0  0  0  0  0
  -20.9590  -29.8970   21.7390 H   0  0  0  0  0  0  0  0  0  0  0  0
  -18.0520  -28.1840   22.9410 C   0  0  0  0  0  0  0  0  0  0  0  0
  -20.6150  -28.4020   23.1940 C   0  0  0  0  0  3  0  0  0  0  0  0
  -20.6910  -26.9730   22.6060 C   0  0  0  0  0  2  0  0  0  0  0  0
  -19.5760  -26.6770   21.5990 C   0  0  0  0  0  2  0  0  0  0  0  0
  -18.2010  -26.8370   22.2550 C   0  0  0  0  0  2  0  0  0  0  0  0
  -19.1850  -28.9260   23.3680 C   0  0  0  0  0  0  0  0  0  0  0  0
  -18.9900  -30.1890   23.9700 C   0  0  0  0  0  3  0  0  0  0  0  0
  -17.6940  -30.7060   24.1500 C   0  0  0  0  0  3  0  0  0  0  0  0
  -16.5760  -29.9620   23.7390 C   0  0  0  0  0  3  0  0  0  0  0  0
  -16.7560  -28.7020   23.1390 C   0  0  0  0  0  3  0  0  0  0  0  0
  -25.8660  -32.6040   23.8770 C   0  0  0  0  0  3  0  0  0  0  0  0
  -25.5370  -34.0020   24.1850 N   0  0  0  0  0  0  0  0  0  0  0  0
  -25.8830  -35.0500   23.4260 C   0  0  0  0  0  0  0  0  0  0  0  0
  -26.5780  -34.9430   22.4120 O   0  0  0  0  0  0  0  0  0  0  0  0
  -24.9190  -34.1610   24.9680 H   0  0  0  0  0  0  0  0  0  0  0  0
  -24.1600  -36.8360   23.0060 C   0  0  0  0  0  1  0  0  0  0  0  0
  -25.3760  -36.4390   23.8590 C   0  0  0  0  0  3  0  0  0  0  0  0
  -27.4800  -37.3370   24.7530 C   0  0  0  0  0  1  0  0  0  0  0  0
  -26.4060  -37.4970   23.7750 N   0  0  0  0  0  0  0  0  0  0  0  0
  -25.9910  -38.4150   23.9070 H   0  0  0  0  0  0  0  0  0  0  0  0
  -26.3640  -31.8510   25.1710 C   0  0  1  0  0  0  0  0  0  0  0  0
  -25.2550  -31.6130   26.2220 C   0  0  0  0  0  1  0  0  0  0  0  0
  -26.9690  -30.4770   24.8000 C   0  0  0  0  0  1  0  0  0  0  0  0
  -27.4920  -32.6660   25.8480 C   0  0  0  0  0  1  0  0  0  0  0  0
  2  7  1  0
  2  1  2  0
  3  4  2  0
  3  2  1  0
  4  5  1  0
  5 47  1  0
  5  1  1  0
  7  6  1  0
 10  8  1  6
 10 11  1  0
 10  7  1  0
 10  9  1  0
 11 17  1  0
 12 17  1  0
 13 14  1  0
 13 12  1  0
 15 14  1  0
 15 22  1  0
 15 16  1  0
 17 16  1  0
 18 11  2  0
 19 20  2  0
 20 39  1  0
 21 20  1  0
 21 24  1  0
 22 19  1  0
 22 23  1  0
 23 21  2  0
 24 25  1  0
 25 26  2  0
 27 30  1  0
 27 26  1  0
 28 27  2  0
 29 28  1  0
 29 24  2  0
 30 31  1  0
 31 32  1  0
 32 33  2  0
 34 33  1  0
 34 38  1  0
 35 34  2  0
 36 31  2  0
 36 35  1  0
 37 36  1  0
 39 40  1  0
 40 43  1  0
 40 42  1  0
 41 39  2  0
 44 45  1  0
 44 19  1  0
 46 44  1  0
 48 49  2  0
 48 47  1  0
 50 49  1  0
 51 62  2  0
 52 50  1  0
 52 57  1  0
 53 61  1  0
 53 63  1  0
 54 60  1  0
 54 56  1  0
 55 61  1  0
 56 57  2  0
 56 55  1  0
 58 52  2  0
 59 58  1  0
 59 54  2  0
 60 53  1  0
 61 51  1  0
 63 65  2  0
 64 63  1  0
 66 64  1  0
 67 76  2  0
 67 72  1  0
 68 64  1  0
 68 72  1  0
 69 68  1  0
 70 71  1  0
 70 69  1  0
 71 67  1  0
 72 73  2  0
 73 74  1  0
 75 74  2  0
 76 75  1  0
 77 51  1  0
 77 78  1  0
 77 87  1  0
 78 81  1  0
 79 83  1  0
 79 78  1  0
 80 79  2  0
 83 82  1  0
 85 83  1  0
 85 86  1  0
 85 84  1  0
 87 90  1  1
 87 88  1  0
 89 87  1  0
M  ISO  4  10 100  11 100  49 101  50 101
M  END
>  <TORSDO>  (92) 
F 21

>  <SCORE>  (92) 
-13.171

>  <name>  (92) 
92

>  <ligand_id>  (92) 
92

>  <original_smiles>  (92) 
[H]c1c([H])c([H])c2c(c1[H])C([H])([H])C([H])([H])C([H])([H])C2([H])N([H])C(=O)C1([H])N(C(=O)C([H])(N([H])C(=O)C([H])(N([H])C([H])([H])[H])C([H])([H])[H])C(C([H])([H])[H])(C([H])([H])[H])C([H])([H])[H])C([H])([H])c2c([H])c(OC([H])([H])C([H])([H])C([H])([H])n3nnc(C([H])(C([H])([H])[H])C(C(=O)N4C([H])([H])C([H])([H])C([H])([H])C([H])(n5nc(-c6c([H])c([H])c(Oc7c([H])c([H])c(F)c([H])c7F)c([H])c6[H])c(C(=O)N([H])[H])c5N([H])[H])C4([H])[H])(C([H])([H])[H])C([H])([H])[H])c3[H])c([H])c([H])c2C1([H])[H]

>  <smiles>  (92) 
[H]c1c([H])c([H])c2c(c1[H])C([H])([H])C([H])([H])C([H])([H])C2([H])N([H])C(=O)C1([H])N(C(=O)C([H])(N([H])C(=O)C([H])(N([H])C([H])([H])[H])C([H])([H])[H])C(C([H])([H])[H])(C([H])([H])[H])C([H])([H])[H])C([H])([H])c2c([H])c(OC([H])([H])C([H])([H])C([H])([H])n3nnc(C([H])(C([H])([H])[H])C(C(=O)N4C([H])([H])C([H])([H])C([H])([H])C([H])(n5nc(-c6c([H])c([H])c(Oc7c([H])c([H])c(F)c([H])c7F)c([H])c6[H])c(C(=O)N([H])[H])c5N([H])[H])C4([H])[H])(C([H])([H])[H])C([H])([H])[H])c3[H])c([H])c([H])c2C1([H])[H]

$$$$
93:0:0
     RDKit          3D

 89 97  0  0  1  0  0  0  0  0999 V2000
  -28.5900  -21.2040   20.4930 C   0  0  0  0  0  3  0  0  0  0  0  0
  -29.5040  -18.8720   19.6780 C   0  0  0  0  0  3  0  0  0  0  0  0
  -29.9930  -19.3720   21.6950 C   0  0  0  0  0  3  0  0  0  0  0  0
  -30.0410  -17.7120   20.2620 C   0  0  0  0  0  0  0  0  0  0  0  0
  -30.3950  -18.0890   21.5630 N   0  0  0  0  0  0  0  0  0  0  0  0
  -29.3830  -19.9130   20.6170 N   0  0  0  0  0  0  0  0  0  0  0  0
  -28.8390  -16.1400   18.8280 C   0  0  0  0  0  1  0  0  0  0  0  0
  -31.2020  -16.5910   18.4140 C   0  0  0  0  0  1  0  0  0  0  0  0
  -30.1800  -16.3060   19.5450 C   0  0  1  0  0  0  0  0  0  0  0  0
  -30.7050  -14.9110   20.2570 C   0  0  0  0  0  0  0  0  0  0  0  0
  -30.4950  -12.5770   19.4420 C   0  0  0  0  0  2  0  0  0  0  0  0
  -29.5760  -12.4820   18.2060 C   0  0  0  0  0  2  0  0  0  0  0  0
  -28.1110  -12.2690   18.6360 C   0  0  0  0  0  2  0  0  0  0  0  0
  -27.6600  -13.2450   19.7510 C   0  0  0  0  0  3  0  0  0  0  0  0
  -28.7130  -13.3880   20.8730 C   0  0  0  0  0  2  0  0  0  0  0  0
  -30.0220  -13.7080   20.2710 N   0  0  0  0  0  0  0  0  0  0  0  0
  -31.9320  -14.8370   20.3730 O   0  0  0  0  0  0  0  0  0  0  0  0
  -25.2930  -13.8750   20.4760 C   0  0  0  0  0  0  0  0  0  0  0  0
  -24.2210  -13.1070   20.8370 C   0  0  0  0  0  0  0  0  0  0  0  0
  -24.6920  -11.7610   20.8390 C   0  0  0  0  0  0  0  0  0  0  0  0
  -26.3330  -12.9810   20.2640 N   0  0  0  0  0  0  0  0  0  0  0  0
  -25.9850  -11.7100   20.5560 N   0  0  0  0  0  0  0  0  0  0  0  0
  -23.9730  -10.5000   21.0310 C   0  0  0  0  0  0  0  0  0  0  0  0
  -24.4000   -9.5520   21.9820 C   0  0  0  0  0  3  0  0  0  0  0  0
  -23.6850   -8.3500   22.1590 C   0  0  0  0  0  3  0  0  0  0  0  0
  -22.5300   -8.0910   21.3830 C   0  0  0  0  0  0  0  0  0  0  0  0
  -22.1290   -9.0280   20.4150 C   0  0  0  0  0  3  0  0  0  0  0  0
  -22.8480  -10.2210   20.2340 C   0  0  0  0  0  3  0  0  0  0  0  0
  -21.7850   -6.9410   21.4690 O   0  0  0  0  0  0  0  0  0  0  0  0
  -21.7070   -6.2200   22.6350 C   0  0  0  0  0  0  0  0  0  0  0  0
  -21.2400   -6.7930   23.8400 C   0  0  0  0  0  3  0  0  0  0  0  0
  -21.1140   -5.9920   24.9930 C   0  0  0  0  0  3  0  0  0  0  0  0
  -21.4500   -4.6260   24.9440 C   0  0  0  0  0  0  0  0  0  0  0  0
  -21.9090   -4.0550   23.7430 C   0  0  0  0  0  3  0  0  0  0  0  0
  -22.0370   -4.8510   22.5910 C   0  0  0  0  0  0  0  0  0  0  0  0
  -22.4580   -4.2940   21.4310 F   0  0  0  0  0  0  0  0  0  0  0  0
  -21.3220   -3.8570   26.0470 F   0  0  0  0  0  0  0  0  0  0  0  0
  -22.8150  -13.5810   21.0650 C   0  0  0  0  0  0  0  0  0  0  0  0
  -22.0760  -12.8850   21.9220 N   0  0  0  0  0  0  0  0  0  0  0  0
  -22.3780  -14.5900   20.5110 O   0  0  0  0  0  0  0  0  0  0  0  0
  -22.4540  -12.0730   22.3880 H   0  0  0  0  0  0  0  0  0  0  0  0
  -21.1200  -13.1490   22.1160 H   0  0  0  0  0  0  0  0  0  0  0  0
  -25.4660  -15.2430   20.2790 N   0  0  0  0  0  0  0  0  0  0  0  0
  -24.7090  -15.9090   20.3680 H   0  0  0  0  0  0  0  0  0  0  0  0
  -26.3360  -15.6720   19.9860 H   0  0  0  0  0  0  0  0  0  0  0  0
  -29.2990  -22.6260   20.3550 C   0  0  0  0  0  3  0  0  0  0  0  0
  -28.4540  -23.9590   20.6800 C   0  0  0  0  0  2  0  0  0  0  0  0
  -28.4680  -25.2070   19.6860 C   0  0  0  0  0  2  0  0  0  0  0  0
  -28.3540  -26.5800   20.2380 O   0  0  0  0  0  0  0  0  0  0  0  0
  -24.5980  -31.9080   23.2740 C   0  0  0  0  0  0  0  0  0  0  0  0
  -27.1990  -27.3740   20.1840 C   0  0  0  0  0  0  0  0  0  0  0  0
  -23.3830  -30.5210   21.6240 C   0  0  0  0  0  3  0  0  0  0  0  0
  -24.8280  -28.9790   20.1850 C   0  0  0  0  0  0  0  0  0  0  0  0
  -25.9190  -30.8450   21.4340 C   0  0  0  0  0  2  0  0  0  0  0  0
  -25.9940  -29.4720   20.7770 C   0  0  0  0  0  0  0  0  0  0  0  0
  -27.1790  -28.6800   20.7660 C   0  0  0  0  0  3  0  0  0  0  0  0
  -26.0040  -26.9260   19.5790 C   0  0  0  0  0  3  0  0  0  0  0  0
  -24.8360  -27.7140   19.5760 C   0  0  0  0  0  3  0  0  0  0  0  0
  -23.5930  -29.8530   20.2400 C   0  0  0  0  0  2  0  0  0  0  0  0
  -24.6520  -31.1060   22.1700 N   0  0  0  0  0  0  0  0  0  0  0  0
  -23.5190  -32.1840   23.8190 O   0  0  0  0  0  0  0  0  0  0  0  0
  -22.7190  -29.5040   22.5830 C   0  0  0  0  0  0  0  0  0  0  0  0
  -21.3920  -29.3250   22.4530 N   0  0  0  0  0  0  0  0  0  0  0  0
  -23.3950  -28.8800   23.4040 O   0  0  0  0  0  0  0  0  0  0  0  0
  -20.9080  -29.8740   21.7590 H   0  0  0  0  0  0  0  0  0  0  0  0
  -18.0230  -28.1060   22.9280 C   0  0  0  0  0  0  0  0  0  0  0  0
  -20.5770  -28.3830   23.2210 C   0  0  0  0  0  3  0  0  0  0  0  0
  -20.6950  -26.9520   22.6500 C   0  0  0  0  0  2  0  0  0  0  0  0
  -19.6040  -26.6180   21.6290 C   0  0  0  0  0  2  0  0  0  0  0  0
  -18.2140  -26.7570   22.2570 C   0  0  0  0  0  2  0  0  0  0  0  0
  -19.1310  -28.8770   23.3660 C   0  0  0  0  0  0  0  0  0  0  0  0
  -18.9000  -30.1390   23.9520 C   0  0  0  0  0  3  0  0  0  0  0  0
  -17.5890  -30.6320   24.1060 C   0  0  0  0  0  3  0  0  0  0  0  0
  -16.4950  -29.8580   23.6830 C   0  0  0  0  0  3  0  0  0  0  0  0
  -16.7110  -28.5970   23.1000 C   0  0  0  0  0  3  0  0  0  0  0  0
  -25.8880  -32.5320   23.8940 C   0  0  0  0  0  3  0  0  0  0  0  0
  -25.5920  -33.9330   24.2200 N   0  0  0  0  0  0  0  0  0  0  0  0
  -25.9370  -34.9800   23.4580 C   0  0  0  0  0  0  0  0  0  0  0  0
  -26.6090  -34.8680   22.4300 O   0  0  0  0  0  0  0  0  0  0  0  0
  -24.9970  -34.0960   25.0180 H   0  0  0  0  0  0  0  0  0  0  0  0
  -24.2350  -36.7950   23.0820 C   0  0  0  0  0  1  0  0  0  0  0  0
  -25.4590  -36.3720   23.9100 C   0  0  0  0  0  3  0  0  0  0  0  0
  -27.5890  -37.2340   24.7730 C   0  0  0  0  0  1  0  0  0  0  0  0
  -26.5040  -37.4150   23.8110 N   0  0  0  0  0  0  0  0  0  0  0  0
  -26.1070  -38.3390   23.9540 H   0  0  0  0  0  0  0  0  0  0  0  0
  -26.3950  -31.7600   25.1740 C   0  0  1  0  0  0  0  0  0  0  0  0
  -25.2960  -31.5420   26.2390 C   0  0  0  0  0  1  0  0  0  0  0  0
  -26.9660  -30.3730   24.7940 C   0  0  0  0  0  1  0  0  0  0  0  0
  -27.5490  -32.5460   25.8360 C   0  0  0  0  0  1  0  0  0  0  0  0
  1  6  1  0
  2  4  2  0
  2  6  1  0
  4  5  1  0
  5  3  2  0
  6  3  1  0
  9  7  1  6
  8  9  1  0
  9 10  1  0
  9  4  1  0
 10 16  1  0
 10 17  2  0
 11 16  1  0
 12 13  1  0
 12 11  1  0
 14 13  1  0
 14 21  1  0
 14 15  1  0
 16 15  1  0
 18 19  2  0
 19 20  1  0
 19 38  1  0
 20 23  1  0
 21 18  1  0
 21 22  1  0
 22 20  2  0
 23 24  1  0
 24 25  2  0
 26 29  1  0
 26 25  1  0
 27 26  2  0
 28 27  1  0
 28 23  2  0
 29 30  1  0
 30 31  1  0
 31 32  2  0
 33 32  1  0
 33 37  1  0
 34 33  2  0
 35 30  2  0
 35 34  1  0
 36 35  1  0
 38 39  1  0
 39 42  1  0
 39 41  1  0
 40 38  2  0
 43 44  1  0
 43 18  1  0
 45 43  1  0
 46  1  2  0
 46 47  1  0
 48 49  1  0
 48 47  1  0
 50 61  2  0
 51 49  1  0
 51 56  1  0
 52 60  1  0
 52 62  1  0
 53 59  1  0
 53 55  1  0
 54 60  1  0
 55 54  1  0
 56 55  2  0
 57 51  2  0
 58 57  1  0
 58 53  2  0
 59 52  1  0
 60 50  1  0
 62 64  2  0
 63 62  1  0
 65 63  1  0
 66 75  2  0
 66 71  1  0
 67 63  1  0
 67 71  1  0
 68 67  1  0
 69 70  1  0
 69 68  1  0
 70 66  1  0
 71 72  2  0
 72 73  1  0
 74 73  2  0
 75 74  1  0
 76 50  1  0
 76 77  1  0
 76 86  1  0
 77 80  1  0
 78 82  1  0
 78 77  1  0
 79 78  2  0
 82 81  1  0
 84 82  1  0
 84 85  1  0
 84 83  1  0
 86 89  1  1
 86 87  1  0
 88 86  1  0
M  ISO  4   9 100  10 100  48 101  49 101
M  END
>  <TORSDO>  (93) 
F 21

>  <SCORE>  (93) 
-13.023

>  <name>  (93) 
93

>  <ligand_id>  (93) 
93

>  <original_smiles>  (93) 
[H]c1c([H])c([H])c2c(c1[H])C([H])([H])C([H])([H])C([H])([H])C2([H])N([H])C(=O)C1([H])N(C(=O)C([H])(N([H])C(=O)C([H])(N([H])C([H])([H])[H])C([H])([H])[H])C(C([H])([H])[H])(C([H])([H])[H])C([H])([H])[H])C([H])([H])c2c([H])c(OC([H])([H])C([H])([H])C([H])([H])C([H])([H])n3c([H])nc(C(C(=O)N4C([H])([H])C([H])([H])C([H])([H])C([H])(n5nc(-c6c([H])c([H])c(Oc7c([H])c([H])c(F)c([H])c7F)c([H])c6[H])c(C(=O)N([H])[H])c5N([H])[H])C4([H])[H])(C([H])([H])[H])C([H])([H])[H])c3[H])c([H])c([H])c2C1([H])[H]

>  <smiles>  (93) 
[H]c1c([H])c([H])c2c(c1[H])C([H])([H])C([H])([H])C([H])([H])C2([H])N([H])C(=O)C1([H])N(C(=O)C([H])(N([H])C(=O)C([H])(N([H])C([H])([H])[H])C([H])([H])[H])C(C([H])([H])[H])(C([H])([H])[H])C([H])([H])[H])C([H])([H])c2c([H])c(OC([H])([H])C([H])([H])C([H])([H])C([H])([H])n3c([H])nc(C(C(=O)N4C([H])([H])C([H])([H])C([H])([H])C([H])(n5nc(-c6c([H])c([H])c(Oc7c([H])c([H])c(F)c([H])c7F)c([H])c6[H])c(C(=O)N([H])[H])c5N([H])[H])C4([H])[H])(C([H])([H])[H])C([H])([H])[H])c3[H])c([H])c([H])c2C1([H])[H]

$$$$
94:0:0
     RDKit          3D

 88 96  0  0  1  0  0  0  0  0999 V2000
  -29.0660  -21.8860   19.8840 C   0  0  0  0  0  2  0  0  0  0  0  0
  -28.5780  -23.3440   20.5810 C   0  0  0  0  0  3  0  0  0  0  0  0
  -28.3160  -24.7830   19.7410 C   0  0  0  0  0  3  0  0  0  0  0  0
  -28.2760  -26.2480   20.2730 O   0  0  0  0  0  0  0  0  0  0  0  0
  -24.6060  -31.8850   23.2400 C   0  0  0  0  0  0  0  0  0  0  0  0
  -27.1900  -27.1940   20.1760 C   0  0  0  0  0  0  0  0  0  0  0  0
  -23.4040  -30.4850   21.6050 C   0  0  0  0  0  3  0  0  0  0  0  0
  -24.8500  -28.9260   20.1640 C   0  0  0  0  0  0  0  0  0  0  0  0
  -25.9540  -30.7670   21.4240 C   0  0  0  0  0  2  0  0  0  0  0  0
  -26.0270  -29.3770   20.7700 C   0  0  0  0  0  0  0  0  0  0  0  0
  -27.1950  -28.5250   20.7630 C   0  0  0  0  0  3  0  0  0  0  0  0
  -25.9830  -26.8440   19.5310 C   0  0  0  0  0  3  0  0  0  0  0  0
  -24.8400  -27.6740   19.5320 C   0  0  0  0  0  3  0  0  0  0  0  0
  -23.6200  -29.8170   20.2200 C   0  0  0  0  0  2  0  0  0  0  0  0
  -24.6750  -31.0680   22.1450 N   0  0  0  0  0  0  0  0  0  0  0  0
  -23.5220  -32.1630   23.7750 O   0  0  0  0  0  0  0  0  0  0  0  0
  -22.7390  -29.4720   22.5680 C   0  0  0  0  0  0  0  0  0  0  0  0
  -21.4120  -29.2900   22.4430 N   0  0  0  0  0  0  0  0  0  0  0  0
  -23.4170  -28.8550   23.3940 O   0  0  0  0  0  0  0  0  0  0  0  0
  -20.9220  -29.8410   21.7530 H   0  0  0  0  0  0  0  0  0  0  0  0
  -18.0430  -28.0590   22.9440 C   0  0  0  0  0  0  0  0  0  0  0  0
  -20.5990  -28.3470   23.2150 C   0  0  0  0  0  3  0  0  0  0  0  0
  -20.7140  -26.9150   22.6460 C   0  0  0  0  0  2  0  0  0  0  0  0
  -19.6170  -26.5770   21.6310 C   0  0  0  0  0  2  0  0  0  0  0  0
  -18.2330  -26.7110   22.2720 C   0  0  0  0  0  2  0  0  0  0  0  0
  -19.1520  -28.8350   23.3730 C   0  0  0  0  0  0  0  0  0  0  0  0
  -18.9180  -30.0960   23.9640 C   0  0  0  0  0  3  0  0  0  0  0  0
  -17.6080  -30.5810   24.1310 C   0  0  0  0  0  3  0  0  0  0  0  0
  -16.5120  -29.8030   23.7180 C   0  0  0  0  0  3  0  0  0  0  0  0
  -16.7300  -28.5450   23.1300 C   0  0  0  0  0  3  0  0  0  0  0  0
  -25.8850  -32.5250   23.8600 C   0  0  0  0  0  3  0  0  0  0  0  0
  -25.5720  -33.9260   24.1850 N   0  0  0  0  0  0  0  0  0  0  0  0
  -25.9020  -34.9790   23.4250 C   0  0  0  0  0  0  0  0  0  0  0  0
  -26.5700  -34.8740   22.3940 O   0  0  0  0  0  0  0  0  0  0  0  0
  -24.9790  -34.0820   24.9870 H   0  0  0  0  0  0  0  0  0  0  0  0
  -24.1790  -36.7800   23.0680 C   0  0  0  0  0  1  0  0  0  0  0  0
  -25.4180  -36.3710   23.8820 C   0  0  0  0  0  3  0  0  0  0  0  0
  -27.5510  -37.2570   24.7180 C   0  0  0  0  0  1  0  0  0  0  0  0
  -26.4530  -37.4220   23.7690 N   0  0  0  0  0  0  0  0  0  0  0  0
  -26.0470  -38.3430   23.9100 H   0  0  0  0  0  0  0  0  0  0  0  0
  -26.3970  -31.7650   25.1460 C   0  0  1  0  0  0  0  0  0  0  0  0
  -25.3020  -31.5360   26.2140 C   0  0  0  0  0  1  0  0  0  0  0  0
  -26.9810  -30.3830   24.7720 C   0  0  0  0  0  1  0  0  0  0  0  0
  -27.5460  -32.5640   25.8050 C   0  0  0  0  0  1  0  0  0  0  0  0
  -28.8540  -20.2910   20.4270 C   0  0  0  0  0  2  0  0  0  0  0  0
  -32.1410  -18.9880   21.4350 C   0  0  0  0  0  3  0  0  0  0  0  0
  -31.1880  -19.9270   21.1740 C   0  0  0  0  0  3  0  0  0  0  0  0
  -30.3680  -17.8870   20.7120 C   0  0  0  0  0  0  0  0  0  0  0  0
  -31.6180  -17.7410   21.1590 N   0  0  0  0  0  0  0  0  0  0  0  0
  -30.0370  -19.3040   20.6940 N   0  0  0  0  0  0  0  0  0  0  0  0
  -29.0190  -16.7390   18.9100 C   0  0  0  0  0  1  0  0  0  0  0  0
  -29.6240  -16.4920   20.3060 C   0  0  0  0  0  3  0  0  0  0  0  0
  -30.4450  -15.0170   20.2520 C   0  0  0  0  0  0  0  0  0  0  0  0
  -30.3150  -12.6630   19.3230 C   0  0  0  0  0  2  0  0  0  0  0  0
  -29.3860  -12.6620   18.0870 C   0  0  0  0  0  2  0  0  0  0  0  0
  -27.9190  -12.4490   18.5110 C   0  0  0  0  0  2  0  0  0  0  0  0
  -27.5150  -13.3400   19.7150 C   0  0  0  0  0  3  0  0  0  0  0  0
  -28.5750  -13.3430   20.8350 C   0  0  0  0  0  2  0  0  0  0  0  0
  -29.8560  -13.7480   20.2400 N   0  0  0  0  0  0  0  0  0  0  0  0
  -31.6530  -15.0230   19.9820 O   0  0  0  0  0  0  0  0  0  0  0  0
  -25.1310  -13.8970   20.4510 C   0  0  0  0  0  0  0  0  0  0  0  0
  -24.0740  -13.1140   20.8200 C   0  0  0  0  0  0  0  0  0  0  0  0
  -24.5530  -11.7670   20.7990 C   0  0  0  0  0  0  0  0  0  0  0  0
  -26.1830  -13.0290   20.2150 N   0  0  0  0  0  0  0  0  0  0  0  0
  -25.8450  -11.7430   20.4910 N   0  0  0  0  0  0  0  0  0  0  0  0
  -23.8400  -10.5000   20.9920 C   0  0  0  0  0  0  0  0  0  0  0  0
  -24.2710   -9.5440   21.9390 C   0  0  0  0  0  3  0  0  0  0  0  0
  -23.5530   -8.3430   22.1210 C   0  0  0  0  0  3  0  0  0  0  0  0
  -22.3910   -8.0870   21.3550 C   0  0  0  0  0  0  0  0  0  0  0  0
  -21.9800   -9.0300   20.3980 C   0  0  0  0  0  3  0  0  0  0  0  0
  -22.6980  -10.2230   20.2140 C   0  0  0  0  0  3  0  0  0  0  0  0
  -21.6450   -6.9370   21.4460 O   0  0  0  0  0  0  0  0  0  0  0  0
  -21.5840   -6.2080   22.6070 C   0  0  0  0  0  0  0  0  0  0  0  0
  -21.1150   -6.7670   23.8150 C   0  0  0  0  0  3  0  0  0  0  0  0
  -21.0060   -5.9630   24.9670 C   0  0  0  0  0  3  0  0  0  0  0  0
  -21.3540   -4.6000   24.9120 C   0  0  0  0  0  0  0  0  0  0  0  0
  -21.8160   -4.0400   23.7090 C   0  0  0  0  0  3  0  0  0  0  0  0
  -21.9280   -4.8410   22.5580 C   0  0  0  0  0  0  0  0  0  0  0  0
  -22.3540   -4.2910   21.3950 F   0  0  0  0  0  0  0  0  0  0  0  0
  -21.2420   -3.8250   26.0170 F   0  0  0  0  0  0  0  0  0  0  0  0
  -22.6700  -13.5790   21.0800 C   0  0  0  0  0  0  0  0  0  0  0  0
  -21.9420  -12.8810   21.9430 N   0  0  0  0  0  0  0  0  0  0  0  0
  -22.2290  -14.5990   20.5520 O   0  0  0  0  0  0  0  0  0  0  0  0
  -22.3120  -12.0570   22.3940 H   0  0  0  0  0  0  0  0  0  0  0  0
  -21.0000  -13.1750   22.1580 H   0  0  0  0  0  0  0  0  0  0  0  0
  -25.2820  -15.2710   20.2700 N   0  0  0  0  0  0  0  0  0  0  0  0
  -24.5100  -15.9180   20.3840 H   0  0  0  0  0  0  0  0  0  0  0  0
  -26.1260  -15.7190   19.9390 H   0  0  0  0  0  0  0  0  0  0  0  0
  1 45  1  0
  1  2  1  0
  3  4  1  0
  3  2  2  0
  5 16  2  0
  6  4  1  0
  6 11  1  0
  7 15  1  0
  7 17  1  0
  8 14  1  0
  8 10  1  0
  9 15  1  0
 10  9  1  0
 11 10  2  0
 12 13  1  0
 12  6  2  0
 13  8  2  0
 14  7  1  0
 15  5  1  0
 17 19  2  0
 18 17  1  0
 20 18  1  0
 21 30  2  0
 21 26  1  0
 22 18  1  0
 22 26  1  0
 23 22  1  0
 24 25  1  0
 24 23  1  0
 25 21  1  0
 26 27  2  0
 27 28  1  0
 29 28  2  0
 30 29  1  0
 31  5  1  0
 31 32  1  0
 31 41  1  0
 32 35  1  0
 33 37  1  0
 33 32  1  0
 34 33  2  0
 37 36  1  0
 39 37  1  0
 39 40  1  0
 39 38  1  0
 41 44  1  1
 41 42  1  0
 43 41  1  0
 45 50  1  0
 47 46  2  0
 48 49  2  0
 49 46  1  0
 50 48  1  0
 50 47  1  0
 52 51  1  0
 52 48  1  0
 53 52  1  0
 54 59  1  0
 55 56  1  0
 55 54  1  0
 57 56  1  0
 57 64  1  0
 57 58  1  0
 59 53  1  0
 59 58  1  0
 60 53  2  0
 61 62  2  0
 62 81  1  0
 63 62  1  0
 63 66  1  0
 64 61  1  0
 64 65  1  0
 65 63  2  0
 66 67  1  0
 67 68  2  0
 69 72  1  0
 69 68  1  0
 70 69  2  0
 71 70  1  0
 71 66  2  0
 72 73  1  0
 73 74  1  0
 74 75  2  0
 76 75  1  0
 76 80  1  0
 77 76  2  0
 78 73  2  0
 78 77  1  0
 79 78  1  0
 81 82  1  0
 82 85  1  0
 82 84  1  0
 83 81  2  0
 86 87  1  0
 86 61  1  0
 88 86  1  0
M  ISO  4   3 101   4 101  52 100  53 100
M  END
>  <TORSDO>  (94) 
F 21

>  <SCORE>  (94) 
-14.221

>  <name>  (94) 
94

>  <ligand_id>  (94) 
94

>  <original_smiles>  (94) 
[H]c1nc(C([H])(C(=O)N2C([H])([H])C([H])([H])C([H])([H])C([H])(n3nc(-c4c([H])c([H])c(Oc5c([H])c([H])c(F)c([H])c5F)c([H])c4[H])c(C(=O)N([H])[H])c3N([H])[H])C2([H])[H])C([H])([H])[H])n(C([H])([H])C([H])([H])C([H])([H])C([H])([H])Oc2c([H])c([H])c3c(c2[H])C([H])([H])N(C(=O)C([H])(N([H])C(=O)C([H])(N([H])C([H])([H])[H])C([H])([H])[H])C(C([H])([H])[H])(C([H])([H])[H])C([H])([H])[H])C([H])(C(=O)N([H])C2([H])c4c([H])c([H])c([H])c([H])c4C([H])([H])C([H])([H])C2([H])[H])C3([H])[H])c1[H]

>  <smiles>  (94) 
[H]c1nc(C([H])(C(=O)N2C([H])([H])C([H])([H])C([H])([H])C([H])(n3nc(-c4c([H])c([H])c(Oc5c([H])c([H])c(F)c([H])c5F)c([H])c4[H])c(C(=O)N([H])[H])c3N([H])[H])C2([H])[H])C([H])([H])[H])n(C([H])([H])C([H])([H])C([H])([H])C([H])([H])Oc2c([H])c([H])c3c(c2[H])C([H])([H])N(C(=O)C([H])(N([H])C(=O)C([H])(N([H])C([H])([H])[H])C([H])([H])[H])C(C([H])([H])[H])(C([H])([H])[H])C([H])([H])[H])C([H])(C(=O)N([H])C2([H])c4c([H])c([H])c([H])c([H])c4C([H])([H])C([H])([H])C2([H])[H])C3([H])[H])c1[H]

$$$$
95:0:0
     RDKit          3D

 92100  0  0  1  0  0  0  0  0999 V2000
  -29.2740  -22.2190   19.5840 C   0  0  0  0  0  3  0  0  0  0  0  0
  -28.2750  -23.2190   19.6560 C   0  0  0  0  0  0  0  0  0  0  0  0
  -28.9050  -20.8690   19.7860 C   0  0  0  0  0  0  0  0  0  0  0  0
  -26.9680  -22.7760   20.0090 C   0  0  0  0  0  0  0  0  0  0  0  0
  -27.6350  -20.5290   20.1110 N   0  0  0  0  0  0  0  0  0  0  0  0
  -26.6980  -21.4710   20.2590 N   0  0  0  0  0  0  0  0  0  0  0  0
  -25.4810  -24.1870   21.5170 C   0  0  0  0  0  1  0  0  0  0  0  0
  -25.7530  -23.6900   20.0890 C   0  0  0  0  0  2  0  0  0  0  0  0
  -28.6010  -24.6520   19.2050 C   0  0  0  0  0  2  0  0  0  0  0  0
  -28.6090  -25.7450   20.3020 C   0  0  0  0  0  2  0  0  0  0  0  0
  -28.6850  -27.0950   19.8000 O   0  0  0  0  0  0  0  0  0  0  0  0
  -24.6410  -31.8480   23.2270 C   0  0  0  0  0  0  0  0  0  0  0  0
  -27.4990  -27.7940   19.8320 C   0  0  0  0  0  0  0  0  0  0  0  0
  -23.5120  -30.5350   21.4630 C   0  0  0  0  0  3  0  0  0  0  0  0
  -25.0450  -29.1920   19.9380 C   0  0  0  0  0  0  0  0  0  0  0  0
  -26.0250  -31.0200   21.3290 C   0  0  0  0  0  2  0  0  0  0  0  0
  -26.1760  -29.7170   20.5750 C   0  0  0  0  0  0  0  0  0  0  0  0
  -27.4120  -29.0330   20.5090 C   0  0  0  0  0  3  0  0  0  0  0  0
  -26.3500  -27.2880   19.1910 C   0  0  0  0  0  3  0  0  0  0  0  0
  -25.1270  -27.9760   19.2420 C   0  0  0  0  0  3  0  0  0  0  0  0
  -23.7640  -29.9840   20.0360 C   0  0  0  0  0  2  0  0  0  0  0  0
  -24.7420  -31.1440   22.0670 N   0  0  0  0  0  0  0  0  0  0  0  0
  -23.5430  -32.0270   23.7730 O   0  0  0  0  0  0  0  0  0  0  0  0
  -22.8980  -29.4100   22.3260 C   0  0  0  0  0  0  0  0  0  0  0  0
  -21.5820  -29.1900   22.1790 N   0  0  0  0  0  0  0  0  0  0  0  0
  -23.6030  -28.7420   23.0870 O   0  0  0  0  0  0  0  0  0  0  0  0
  -21.0700  -29.7880   21.5450 H   0  0  0  0  0  0  0  0  0  0  0  0
  -18.2520  -27.8470   22.5720 C   0  0  0  0  0  0  0  0  0  0  0  0
  -20.8030  -28.1580   22.8600 C   0  0  0  0  0  3  0  0  0  0  0  0
  -20.9480  -26.7880   22.1540 C   0  0  0  0  0  2  0  0  0  0  0  0
  -19.8460  -26.5100   21.1270 C   0  0  0  0  0  2  0  0  0  0  0  0
  -18.4650  -26.5620   21.7870 C   0  0  0  0  0  2  0  0  0  0  0  0
  -19.3500  -28.5980   23.0680 C   0  0  0  0  0  0  0  0  0  0  0  0
  -19.0970  -29.7940   23.7740 C   0  0  0  0  0  3  0  0  0  0  0  0
  -17.7800  -30.2360   23.9940 C   0  0  0  0  0  3  0  0  0  0  0  0
  -16.6960  -29.4830   23.5100 C   0  0  0  0  0  3  0  0  0  0  0  0
  -16.9320  -28.2910   22.8030 C   0  0  0  0  0  3  0  0  0  0  0  0
  -25.8940  -32.4780   23.9110 C   0  0  0  0  0  3  0  0  0  0  0  0
  -25.5480  -33.8580   24.2750 N   0  0  0  0  0  0  0  0  0  0  0  0
  -25.8770  -34.9390   23.5540 C   0  0  0  0  0  0  0  0  0  0  0  0
  -26.5760  -34.8790   22.5370 O   0  0  0  0  0  0  0  0  0  0  0  0
  -24.9340  -33.9800   25.0670 H   0  0  0  0  0  0  0  0  0  0  0  0
  -24.1170  -36.7010   23.2040 C   0  0  0  0  0  1  0  0  0  0  0  0
  -25.3470  -36.3030   24.0360 C   0  0  0  0  0  3  0  0  0  0  0  0
  -27.4330  -37.2190   24.9520 C   0  0  0  0  0  1  0  0  0  0  0  0
  -26.3570  -37.3820   23.9780 N   0  0  0  0  0  0  0  0  0  0  0  0
  -25.9220  -38.2880   24.1340 H   0  0  0  0  0  0  0  0  0  0  0  0
  -26.3810  -31.6740   25.1790 C   0  0  1  0  0  0  0  0  0  0  0  0
  -25.2520  -31.3680   26.1890 C   0  0  0  0  0  1  0  0  0  0  0  0
  -27.0160  -30.3250   24.7630 C   0  0  0  0  0  1  0  0  0  0  0  0
  -27.4780  -32.4750   25.9170 C   0  0  0  0  0  1  0  0  0  0  0  0
  -29.8480  -19.7240   19.4000 C   0  0  0  0  0  2  0  0  0  0  0  0
  -29.9350  -18.5240   20.3820 C   0  0  0  0  0  2  0  0  0  0  0  0
  -30.6800  -17.2960   19.7730 C   0  0  0  0  0  2  0  0  0  0  0  0
  -31.3520  -14.9580   20.0740 C   0  0  0  0  0  0  0  0  0  0  0  0
  -31.0090  -12.7610   18.9960 C   0  0  0  0  0  2  0  0  0  0  0  0
  -30.0440  -12.9400   17.8050 C   0  0  0  0  0  2  0  0  0  0  0  0
  -28.5710  -12.8390   18.2570 C   0  0  0  0  0  2  0  0  0  0  0  0
  -28.2680  -13.6880   19.5200 C   0  0  0  0  0  3  0  0  0  0  0  0
  -29.3500  -13.4780   20.6000 C   0  0  0  0  0  2  0  0  0  0  0  0
  -30.6620  -13.7830   20.0000 N   0  0  0  0  0  0  0  0  0  0  0  0
  -32.4310  -15.1170   19.4890 O   0  0  0  0  0  0  0  0  0  0  0  0
  -30.4960  -16.1730   22.0150 C   0  0  0  0  0  1  0  0  0  0  0  0
  -30.6860  -16.0380   20.5660 N   0  0  0  0  0  0  0  0  0  0  0  0
  -25.9120  -14.3190   20.3380 C   0  0  0  0  0  0  0  0  0  0  0  0
  -24.8400  -13.5550   20.7170 C   0  0  0  0  0  0  0  0  0  0  0  0
  -25.2740  -12.1970   20.6330 C   0  0  0  0  0  0  0  0  0  0  0  0
  -26.9280  -13.4250   20.0390 N   0  0  0  0  0  0  0  0  0  0  0  0
  -26.5500  -12.1430   20.2720 N   0  0  0  0  0  0  0  0  0  0  0  0
  -24.5290  -10.9440   20.8200 C   0  0  0  0  0  0  0  0  0  0  0  0
  -24.9010  -10.0030   21.8060 C   0  0  0  0  0  3  0  0  0  0  0  0
  -24.1580   -8.8150   21.9790 C   0  0  0  0  0  3  0  0  0  0  0  0
  -23.0300   -8.5600   21.1660 C   0  0  0  0  0  0  0  0  0  0  0  0
  -22.6760   -9.4890   20.1730 C   0  0  0  0  0  3  0  0  0  0  0  0
  -23.4190  -10.6680   19.9970 C   0  0  0  0  0  3  0  0  0  0  0  0
  -22.2650   -7.4220   21.2450 O   0  0  0  0  0  0  0  0  0  0  0  0
  -22.0360   -6.7890   22.4400 C   0  0  0  0  0  0  0  0  0  0  0  0
  -21.3980   -7.4410   23.5180 C   0  0  0  0  0  3  0  0  0  0  0  0
  -21.1160   -6.7330   24.7020 C   0  0  0  0  0  3  0  0  0  0  0  0
  -21.4640   -5.3730   24.8110 C   0  0  0  0  0  0  0  0  0  0  0  0
  -22.0960   -4.7200   23.7380 C   0  0  0  0  0  3  0  0  0  0  0  0
  -22.3780   -5.4260   22.5540 C   0  0  0  0  0  0  0  0  0  0  0  0
  -22.9660   -4.7860   21.5140 F   0  0  0  0  0  0  0  0  0  0  0  0
  -21.1880   -4.6900   25.9460 F   0  0  0  0  0  0  0  0  0  0  0  0
  -23.4650  -14.0530   21.0530 C   0  0  0  0  0  0  0  0  0  0  0  0
  -22.7580  -13.3570   21.9340 N   0  0  0  0  0  0  0  0  0  0  0  0
  -23.0300  -15.0980   20.5690 O   0  0  0  0  0  0  0  0  0  0  0  0
  -23.1230  -12.5170   22.3580 H   0  0  0  0  0  0  0  0  0  0  0  0
  -21.8380  -13.6800   22.1990 H   0  0  0  0  0  0  0  0  0  0  0  0
  -26.1030  -15.6910   20.2070 N   0  0  0  0  0  0  0  0  0  0  0  0
  -25.3750  -16.3620   20.4330 H   0  0  0  0  0  0  0  0  0  0  0  0
  -26.9810  -16.1330   19.9660 H   0  0  0  0  0  0  0  0  0  0  0  0
  1  2  2  0
  1  3  1  0
  2  4  1  0
  3  5  2  0
  4  8  1  0
  4  6  2  0
  5  6  1  0
  8  7  1  0
  9  2  1  0
  9 10  1  0
 11 13  1  0
 11 10  1  0
 12 23  2  0
 13 18  1  0
 14 22  1  0
 14 24  1  0
 15 21  1  0
 15 17  1  0
 16 22  1  0
 17 16  1  0
 18 17  2  0
 19 20  1  0
 19 13  2  0
 20 15  2  0
 21 14  1  0
 22 12  1  0
 24 26  2  0
 25 24  1  0
 27 25  1  0
 28 37  2  0
 28 33  1  0
 29 25  1  0
 29 33  1  0
 30 29  1  0
 31 32  1  0
 31 30  1  0
 32 28  1  0
 33 34  2  0
 34 35  1  0
 36 35  2  0
 37 36  1  0
 38 12  1  0
 38 39  1  0
 38 48  1  0
 39 42  1  0
 40 44  1  0
 40 39  1  0
 41 40  2  0
 44 43  1  0
 46 44  1  0
 46 47  1  0
 46 45  1  0
 48 51  1  1
 48 49  1  0
 50 48  1  0
 52  3  1  0
 52 53  1  0
 54 53  1  0
 54 64  1  0
 55 64  1  0
 56 61  1  0
 57 58  1  0
 57 56  1  0
 59 58  1  0
 59 68  1  0
 59 60  1  0
 61 55  1  0
 61 60  1  0
 62 55  2  0
 64 63  1  0
 65 66  2  0
 66 85  1  0
 67 66  1  0
 67 70  1  0
 68 69  1  0
 68 65  1  0
 69 67  2  0
 70 71  1  0
 71 72  2  0
 73 76  1  0
 73 72  1  0
 74 73  2  0
 75 74  1  0
 75 70  2  0
 76 77  1  0
 77 82  2  0
 77 78  1  0
 78 79  2  0
 79 80  1  0
 80 84  1  0
 81 80  2  0
 82 81  1  0
 83 82  1  0
 85 86  1  0
 86 89  1  0
 86 88  1  0
 87 85  2  0
 90 65  1  0
 90 91  1  0
 92 90  1  0
M  ISO  4  10 101  11 101  55 100  64 100
M  END
>  <TORSDO>  (95) 
F 22

>  <SCORE>  (95) 
-11.394

>  <name>  (95) 
95

>  <ligand_id>  (95) 
95

>  <original_smiles>  (95) 
[H]c1c([H])c([H])c2c(c1[H])C([H])([H])C([H])([H])C([H])([H])C2([H])N([H])C(=O)C1([H])N(C(=O)C([H])(N([H])C(=O)C([H])(N([H])C([H])([H])[H])C([H])([H])[H])C(C([H])([H])[H])(C([H])([H])[H])C([H])([H])[H])C([H])([H])c2c([H])c(OC([H])([H])C([H])([H])c3c(C([H])([H])C([H])([H])[H])nnc(C([H])([H])C([H])([H])C([H])([H])N(C(=O)N4C([H])([H])C([H])([H])C([H])([H])C([H])(n5nc(-c6c([H])c([H])c(Oc7c([H])c([H])c(F)c([H])c7F)c([H])c6[H])c(C(=O)N([H])[H])c5N([H])[H])C4([H])[H])C([H])([H])[H])c3[H])c([H])c([H])c2C1([H])[H]

>  <smiles>  (95) 
[H]c1c([H])c([H])c2c(c1[H])C([H])([H])C([H])([H])C([H])([H])C2([H])N([H])C(=O)C1([H])N(C(=O)C([H])(N([H])C(=O)C([H])(N([H])C([H])([H])[H])C([H])([H])[H])C(C([H])([H])[H])(C([H])([H])[H])C([H])([H])[H])C([H])([H])c2c([H])c(OC([H])([H])C([H])([H])c3c(C([H])([H])C([H])([H])[H])nnc(C([H])([H])C([H])([H])C([H])([H])N(C(=O)N4C([H])([H])C([H])([H])C([H])([H])C([H])(n5nc(-c6c([H])c([H])c(Oc7c([H])c([H])c(F)c([H])c7F)c([H])c6[H])c(C(=O)N([H])[H])c5N([H])[H])C4([H])[H])C([H])([H])[H])c3[H])c([H])c([H])c2C1([H])[H]

$$$$
96:0:0
     RDKit          3D

 90 98  0  0  1  0  0  0  0  0999 V2000
  -27.2730  -20.9830   18.8140 C   0  0  0  0  0  1  0  0  0  0  0  0
  -28.7080  -21.1710   19.3550 C   0  0  0  0  0  3  0  0  0  0  0  0
  -30.6430  -14.6040   20.0150 C   0  0  0  0  0  0  0  0  0  0  0  0
  -30.3710  -12.3770   18.9400 C   0  0  0  0  0  2  0  0  0  0  0  0
  -29.3520  -12.5230   17.7880 C   0  0  0  0  0  2  0  0  0  0  0  0
  -27.9070  -12.3740   18.3030 C   0  0  0  0  0  2  0  0  0  0  0  0
  -27.6350  -13.2280   19.5700 C   0  0  0  0  0  3  0  0  0  0  0  0
  -28.7550  -13.0360   20.6180 C   0  0  0  0  0  2  0  0  0  0  0  0
  -30.0330  -13.3770   19.9740 N   0  0  0  0  0  0  0  0  0  0  0  0
  -31.7560  -14.7830   19.5060 O   0  0  0  0  0  0  0  0  0  0  0  0
  -30.1960  -19.0260   19.0690 C   0  0  0  0  0  3  0  0  0  0  0  0
  -28.8870  -17.8040   21.0570 C   0  0  0  0  0  3  0  0  0  0  0  0
  -29.2400  -19.7650   19.8270 C   0  0  0  0  0  0  0  0  0  0  0  0
  -29.8120  -17.0420   20.2790 C   0  0  0  0  0  0  0  0  0  0  0  0
  -28.6040  -19.1300   20.8490 N   0  0  0  0  0  0  0  0  0  0  0  0
  -30.4790  -17.7000   19.2880 N   0  0  0  0  0  0  0  0  0  0  0  0
  -29.8970  -15.6140   20.5600 N   0  0  0  0  0  0  0  0  0  0  0  0
  -29.1300  -15.2670   21.1140 H   0  0  0  0  0  0  0  0  0  0  0  0
  -25.3030  -13.8500   20.4570 C   0  0  0  0  0  0  0  0  0  0  0  0
  -24.2510  -13.0800   20.8780 C   0  0  0  0  0  0  0  0  0  0  0  0
  -24.6880  -11.7230   20.7810 C   0  0  0  0  0  0  0  0  0  0  0  0
  -26.3140  -12.9590   20.1320 N   0  0  0  0  0  0  0  0  0  0  0  0
  -25.9530  -11.6750   20.3850 N   0  0  0  0  0  0  0  0  0  0  0  0
  -23.9590  -10.4660   20.9850 C   0  0  0  0  0  0  0  0  0  0  0  0
  -24.4240   -9.4800   21.8830 C   0  0  0  0  0  3  0  0  0  0  0  0
  -23.6930   -8.2880   22.0790 C   0  0  0  0  0  3  0  0  0  0  0  0
  -22.4840   -8.0740   21.3760 C   0  0  0  0  0  0  0  0  0  0  0  0
  -22.0390   -9.0490   20.4660 C   0  0  0  0  0  3  0  0  0  0  0  0
  -22.7690  -10.2330   20.2690 C   0  0  0  0  0  3  0  0  0  0  0  0
  -21.7210   -6.9360   21.4820 O   0  0  0  0  0  0  0  0  0  0  0  0
  -21.6990   -6.1890   22.6320 C   0  0  0  0  0  0  0  0  0  0  0  0
  -21.3150   -6.7460   23.8720 C   0  0  0  0  0  3  0  0  0  0  0  0
  -21.2360   -5.9280   25.0170 C   0  0  0  0  0  3  0  0  0  0  0  0
  -21.5320   -4.5540   24.9240 C   0  0  0  0  0  0  0  0  0  0  0  0
  -21.9070   -3.9980   23.6870 C   0  0  0  0  0  3  0  0  0  0  0  0
  -21.9870   -4.8130   22.5450 C   0  0  0  0  0  0  0  0  0  0  0  0
  -22.3290   -4.2680   21.3530 F   0  0  0  0  0  0  0  0  0  0  0  0
  -21.4470   -3.7660   26.0210 F   0  0  0  0  0  0  0  0  0  0  0  0
  -22.8830  -13.5680   21.2540 C   0  0  0  0  0  0  0  0  0  0  0  0
  -22.2080  -12.8590   22.1540 N   0  0  0  0  0  0  0  0  0  0  0  0
  -22.4240  -14.6080   20.7860 O   0  0  0  0  0  0  0  0  0  0  0  0
  -22.5940  -12.0110   22.5450 H   0  0  0  0  0  0  0  0  0  0  0  0
  -21.2940  -13.1670   22.4540 H   0  0  0  0  0  0  0  0  0  0  0  0
  -25.4820  -15.2220   20.3020 N   0  0  0  0  0  0  0  0  0  0  0  0
  -24.7410  -15.8910   20.4810 H   0  0  0  0  0  0  0  0  0  0  0  0
  -26.3010  -15.6480   19.8890 H   0  0  0  0  0  0  0  0  0  0  0  0
  -28.7960  -22.4340   20.3250 C   0  0  0  0  0  2  0  0  0  0  0  0
  -28.5260  -23.8830   19.6910 C   0  0  0  0  0  3  0  0  0  0  0  0
  -28.2980  -25.1270   20.6560 C   0  0  0  0  0  3  0  0  0  0  0  0
  -28.4350  -26.4950   20.1210 O   0  0  0  0  0  0  0  0  0  0  0  0
  -24.5280  -31.7440   23.1240 C   0  0  0  0  0  0  0  0  0  0  0  0
  -27.2960  -27.2970   20.0870 C   0  0  0  0  0  0  0  0  0  0  0  0
  -23.3890  -30.3390   21.4390 C   0  0  0  0  0  3  0  0  0  0  0  0
  -24.8990  -28.8350   20.0310 C   0  0  0  0  0  0  0  0  0  0  0  0
  -25.9190  -30.7270   21.3060 C   0  0  0  0  0  2  0  0  0  0  0  0
  -26.0420  -29.3580   20.6500 C   0  0  0  0  0  0  0  0  0  0  0  0
  -27.2490  -28.6010   20.6600 C   0  0  0  0  0  3  0  0  0  0  0  0
  -26.1390  -26.8160   19.4450 C   0  0  0  0  0  3  0  0  0  0  0  0
  -24.9500  -27.5720   19.4140 C   0  0  0  0  0  3  0  0  0  0  0  0
  -23.6420  -29.6790   20.0580 C   0  0  0  0  0  2  0  0  0  0  0  0
  -24.6300  -30.9520   22.0160 N   0  0  0  0  0  0  0  0  0  0  0  0
  -23.4280  -31.9890   23.6390 O   0  0  0  0  0  0  0  0  0  0  0  0
  -22.7310  -29.2980   22.3750 C   0  0  0  0  0  0  0  0  0  0  0  0
  -21.4060  -29.1110   22.2310 N   0  0  0  0  0  0  0  0  0  0  0  0
  -23.4100  -28.6600   23.1820 O   0  0  0  0  0  0  0  0  0  0  0  0
  -20.9220  -29.6680   21.5430 H   0  0  0  0  0  0  0  0  0  0  0  0
  -18.0290  -27.9150   22.7050 C   0  0  0  0  0  0  0  0  0  0  0  0
  -20.5900  -28.1570   22.9820 C   0  0  0  0  0  3  0  0  0  0  0  0
  -20.6850  -26.7380   22.3730 C   0  0  0  0  0  2  0  0  0  0  0  0
  -19.5860  -26.4540   21.3430 C   0  0  0  0  0  2  0  0  0  0  0  0
  -18.2010  -26.5890   21.9840 C   0  0  0  0  0  2  0  0  0  0  0  0
  -19.1510  -28.6580   23.1590 C   0  0  0  0  0  0  0  0  0  0  0  0
  -18.9380  -29.9030   23.7880 C   0  0  0  0  0  3  0  0  0  0  0  0
  -17.6350  -30.4050   23.9710 C   0  0  0  0  0  3  0  0  0  0  0  0
  -16.5260  -29.6570   23.5380 C   0  0  0  0  0  3  0  0  0  0  0  0
  -16.7230  -28.4130   22.9120 C   0  0  0  0  0  3  0  0  0  0  0  0
  -25.7840  -32.3920   23.7830 C   0  0  0  0  0  3  0  0  0  0  0  0
  -26.2970  -31.6030   25.0500 C   0  0  1  0  0  0  0  0  0  0  0  0
  -25.1930  -31.3160   26.0950 C   0  0  0  0  0  1  0  0  0  0  0  0
  -26.9170  -30.2480   24.6350 C   0  0  0  0  0  1  0  0  0  0  0  0
  -27.4210  -32.4070   25.7450 C   0  0  0  0  0  1  0  0  0  0  0  0
  -25.4330  -33.7730   24.1380 N   0  0  0  0  0  0  0  0  0  0  0  0
  -25.7470  -34.8490   23.4050 C   0  0  0  0  0  0  0  0  0  0  0  0
  -26.4320  -34.7850   22.3800 O   0  0  0  0  0  0  0  0  0  0  0  0
  -24.8180  -33.8960   24.9300 H   0  0  0  0  0  0  0  0  0  0  0  0
  -23.9730  -36.6010   23.0690 C   0  0  0  0  0  1  0  0  0  0  0  0
  -25.2190  -36.2160   23.8840 C   0  0  0  0  0  3  0  0  0  0  0  0
  -27.3220  -37.1430   24.7450 C   0  0  0  0  0  1  0  0  0  0  0  0
  -26.2240  -37.2980   23.7950 N   0  0  0  0  0  0  0  0  0  0  0  0
  -25.7930  -38.2070   23.9510 H   0  0  0  0  0  0  0  0  0  0  0  0
  2  1  1  0
  2 13  1  0
  2 47  1  0
  3 17  1  0
  4  9  1  0
  5  6  1  0
  5  4  1  0
  7  6  1  0
  7 22  1  0
  7  8  1  0
  9  3  1  0
  9  8  1  0
 10  3  2  0
 11 16  2  0
 11 13  1  0
 13 15  2  0
 14 17  1  0
 14 12  2  0
 15 12  1  0
 16 14  1  0
 17 18  1  0
 19 20  2  0
 20 39  1  0
 21 20  1  0
 21 24  1  0
 22 23  1  0
 22 19  1  0
 23 21  2  0
 24 25  1  0
 25 26  2  0
 27 30  1  0
 27 26  1  0
 28 27  2  0
 29 28  1  0
 29 24  2  0
 30 31  1  0
 31 32  1  0
 32 33  2  0
 34 33  1  0
 34 38  1  0
 35 34  2  0
 36 31  2  0
 36 35  1  0
 37 36  1  0
 39 40  1  0
 40 43  1  0
 40 42  1  0
 41 39  2  0
 44 19  1  0
 44 45  1  0
 46 44  1  0
 48 47  1  0
 48 49  2  0
 50 49  1  0
 51 62  2  0
 52 50  1  0
 52 57  1  0
 53 61  1  0
 53 63  1  0
 54 60  1  0
 54 56  1  0
 55 61  1  0
 56 57  2  0
 56 55  1  0
 58 52  2  0
 59 58  1  0
 59 54  2  0
 60 53  1  0
 61 51  1  0
 63 65  2  0
 64 63  1  0
 66 64  1  0
 67 76  2  0
 67 72  1  0
 68 64  1  0
 68 72  1  0
 69 68  1  0
 70 71  1  0
 70 69  1  0
 71 67  1  0
 72 73  2  0
 73 74  1  0
 75 74  2  0
 76 75  1  0
 77 51  1  0
 77 82  1  0
 77 78  1  0
 78 81  1  1
 78 79  1  0
 80 78  1  0
 82 85  1  0
 83 87  1  0
 83 82  1  0
 84 83  2  0
 87 86  1  0
 89 87  1  0
 89 90  1  0
 89 88  1  0
M  ISO  4   3 100  17 100  49 101  50 101
M  END
>  <TORSDO>  (96) 
F 19

>  <SCORE>  (96) 
-13.688

>  <name>  (96) 
96

>  <ligand_id>  (96) 
96

>  <original_smiles>  (96) 
[H]c1nc(C([H])(C([H])([H])[H])C([H])([H])C([H])([H])C([H])([H])Oc2c([H])c([H])c3c(c2[H])C([H])([H])N(C(=O)C([H])(N([H])C(=O)C([H])(N([H])C([H])([H])[H])C([H])([H])[H])C(C([H])([H])[H])(C([H])([H])[H])C([H])([H])[H])C([H])(C(=O)N([H])C2([H])c4c([H])c([H])c([H])c([H])c4C([H])([H])C([H])([H])C2([H])[H])C3([H])[H])c([H])nc1N([H])C(=O)N1C([H])([H])C([H])([H])C([H])([H])C([H])(n2nc(-c3c([H])c([H])c(Oc4c([H])c([H])c(F)c([H])c4F)c([H])c3[H])c(C(=O)N([H])[H])c2N([H])[H])C1([H])[H]

>  <smiles>  (96) 
[H]c1nc(C([H])(C([H])([H])[H])C([H])([H])C([H])([H])C([H])([H])Oc2c([H])c([H])c3c(c2[H])C([H])([H])N(C(=O)C([H])(N([H])C(=O)C([H])(N([H])C([H])([H])[H])C([H])([H])[H])C(C([H])([H])[H])(C([H])([H])[H])C([H])([H])[H])C([H])(C(=O)N([H])C2([H])c4c([H])c([H])c([H])c([H])c4C([H])([H])C([H])([H])C2([H])[H])C3([H])[H])c([H])nc1N([H])C(=O)N1C([H])([H])C([H])([H])C([H])([H])C([H])(n2nc(-c3c([H])c([H])c(Oc4c([H])c([H])c(F)c([H])c4F)c([H])c3[H])c(C(=O)N([H])[H])c2N([H])[H])C1([H])[H]

$$$$
97:0:0
     RDKit          3D

 91 99  0  0  1  0  0  0  0  0999 V2000
  -31.0870  -18.8040   21.6150 C   0  0  0  0  0  3  0  0  0  0  0  0
  -30.1770  -18.6310   20.5490 C   0  0  0  0  0  0  0  0  0  0  0  0
  -30.7250  -21.1130   21.6580 C   0  0  0  0  0  0  0  0  0  0  0  0
  -29.7940  -21.0350   20.5780 C   0  0  0  0  0  0  0  0  0  0  0  0
  -31.1610  -22.4040   22.3300 C   0  0  0  0  0  1  0  0  0  0  0  0
  -31.3450  -20.0140   22.1610 N   0  0  0  0  0  0  0  0  0  0  0  0
  -29.5540  -19.7710   20.0380 N   0  0  0  0  0  0  0  0  0  0  0  0
  -28.7220  -17.1620   19.0190 C   0  0  0  0  0  1  0  0  0  0  0  0
  -30.0310  -17.2090   19.8310 C   0  0  0  0  0  3  0  0  0  0  0  0
  -30.8030  -14.7290   20.0830 C   0  0  0  0  0  0  0  0  0  0  0  0
  -30.4620  -12.5300   18.9290 C   0  0  0  0  0  2  0  0  0  0  0  0
  -29.4530  -12.6850   17.7680 C   0  0  0  0  0  2  0  0  0  0  0  0
  -28.0060  -12.5180   18.2680 C   0  0  0  0  0  2  0  0  0  0  0  0
  -27.7290  -13.3330   19.5590 C   0  0  0  0  0  3  0  0  0  0  0  0
  -28.8470  -13.1340   20.6030 C   0  0  0  0  0  2  0  0  0  0  0  0
  -30.1200  -13.5290   19.9740 N   0  0  0  0  0  0  0  0  0  0  0  0
  -31.9000  -14.8440   19.5260 O   0  0  0  0  0  0  0  0  0  0  0  0
  -29.7720  -15.9090   21.9890 C   0  0  0  0  0  1  0  0  0  0  0  0
  -30.1520  -15.8640   20.5700 N   0  0  0  0  0  0  0  0  0  0  0  0
  -25.3840  -13.9400   20.4020 C   0  0  0  0  0  0  0  0  0  0  0  0
  -24.3300  -13.1700   20.8160 C   0  0  0  0  0  0  0  0  0  0  0  0
  -24.7780  -11.8150   20.7410 C   0  0  0  0  0  0  0  0  0  0  0  0
  -26.4070  -13.0540   20.1070 N   0  0  0  0  0  0  0  0  0  0  0  0
  -26.0520  -11.7700   20.3680 N   0  0  0  0  0  0  0  0  0  0  0  0
  -24.0490  -10.5570   20.9480 C   0  0  0  0  0  0  0  0  0  0  0  0
  -24.5030   -9.5850   21.8670 C   0  0  0  0  0  3  0  0  0  0  0  0
  -23.7740   -8.3920   22.0620 C   0  0  0  0  0  3  0  0  0  0  0  0
  -22.5790   -8.1640   21.3390 C   0  0  0  0  0  0  0  0  0  0  0  0
  -22.1460   -9.1240   20.4070 C   0  0  0  0  0  3  0  0  0  0  0  0
  -22.8740  -10.3100   20.2100 C   0  0  0  0  0  3  0  0  0  0  0  0
  -21.8210   -7.0240   21.4450 O   0  0  0  0  0  0  0  0  0  0  0  0
  -21.7690   -6.2980   22.6090 C   0  0  0  0  0  0  0  0  0  0  0  0
  -21.3470   -6.8720   23.8280 C   0  0  0  0  0  3  0  0  0  0  0  0
  -21.2430   -6.0740   24.9830 C   0  0  0  0  0  3  0  0  0  0  0  0
  -21.5500   -4.7010   24.9240 C   0  0  0  0  0  0  0  0  0  0  0  0
  -21.9630   -4.1270   23.7080 C   0  0  0  0  0  3  0  0  0  0  0  0
  -22.0690   -4.9220   22.5540 C   0  0  0  0  0  0  0  0  0  0  0  0
  -22.4450   -4.3580   21.3810 F   0  0  0  0  0  0  0  0  0  0  0  0
  -21.4450   -3.9320   26.0310 F   0  0  0  0  0  0  0  0  0  0  0  0
  -22.9530  -13.6560   21.1680 C   0  0  0  0  0  0  0  0  0  0  0  0
  -22.2680  -12.9550   22.0660 N   0  0  0  0  0  0  0  0  0  0  0  0
  -22.4960  -14.6890   20.6820 O   0  0  0  0  0  0  0  0  0  0  0  0
  -22.6530  -12.1190   22.4820 H   0  0  0  0  0  0  0  0  0  0  0  0
  -21.3460  -13.2600   22.3410 H   0  0  0  0  0  0  0  0  0  0  0  0
  -25.5480  -15.3110   20.2330 N   0  0  0  0  0  0  0  0  0  0  0  0
  -24.7980  -15.9720   20.4030 H   0  0  0  0  0  0  0  0  0  0  0  0
  -26.3890  -15.7460   19.8760 H   0  0  0  0  0  0  0  0  0  0  0  0
  -29.0590  -22.2940   19.9130 C   0  0  0  0  0  2  0  0  0  0  0  0
  -29.0690  -23.8000   20.5160 C   0  0  0  0  0  3  0  0  0  0  0  0
  -28.1280  -24.9380   19.8760 C   0  0  0  0  0  3  0  0  0  0  0  0
  -28.3030  -26.3920   20.2050 O   0  0  0  0  0  0  0  0  0  0  0  0
  -24.6140  -31.8620   23.1960 C   0  0  0  0  0  0  0  0  0  0  0  0
  -27.1980  -27.2710   20.1310 C   0  0  0  0  0  0  0  0  0  0  0  0
  -23.3980  -30.4610   21.5670 C   0  0  0  0  0  3  0  0  0  0  0  0
  -24.8390  -28.9070   20.1330 C   0  0  0  0  0  0  0  0  0  0  0  0
  -25.9400  -30.7700   21.3720 C   0  0  0  0  0  2  0  0  0  0  0  0
  -26.0150  -29.3890   20.7230 C   0  0  0  0  0  0  0  0  0  0  0  0
  -27.1960  -28.5820   20.7130 C   0  0  0  0  0  3  0  0  0  0  0  0
  -26.0030  -26.8620   19.4980 C   0  0  0  0  0  3  0  0  0  0  0  0
  -24.8370  -27.6500   19.5120 C   0  0  0  0  0  3  0  0  0  0  0  0
  -23.6050  -29.7830   20.1870 C   0  0  0  0  0  2  0  0  0  0  0  0
  -24.6700  -31.0510   22.1000 N   0  0  0  0  0  0  0  0  0  0  0  0
  -23.5350  -32.1390   23.7380 O   0  0  0  0  0  0  0  0  0  0  0  0
  -22.7410  -29.4450   22.5350 C   0  0  0  0  0  0  0  0  0  0  0  0
  -21.4130  -29.2680   22.4200 N   0  0  0  0  0  0  0  0  0  0  0  0
  -23.4250  -28.8230   23.3510 O   0  0  0  0  0  0  0  0  0  0  0  0
  -20.9200  -29.8250   21.7370 H   0  0  0  0  0  0  0  0  0  0  0  0
  -18.0410  -28.0700   22.9520 C   0  0  0  0  0  0  0  0  0  0  0  0
  -20.6020  -28.3310   23.1980 C   0  0  0  0  0  3  0  0  0  0  0  0
  -20.6980  -26.8990   22.6250 C   0  0  0  0  0  2  0  0  0  0  0  0
  -19.5880  -26.5740   21.6200 C   0  0  0  0  0  2  0  0  0  0  0  0
  -18.2120  -26.7210   22.2750 C   0  0  0  0  0  2  0  0  0  0  0  0
  -19.1630  -28.8330   23.3700 C   0  0  0  0  0  0  0  0  0  0  0  0
  -18.9490  -30.0960   23.9650 C   0  0  0  0  0  3  0  0  0  0  0  0
  -17.6460  -30.5970   24.1410 C   0  0  0  0  0  3  0  0  0  0  0  0
  -16.5390  -29.8330   23.7380 C   0  0  0  0  0  3  0  0  0  0  0  0
  -16.7360  -28.5690   23.1520 C   0  0  0  0  0  3  0  0  0  0  0  0
  -25.9000  -32.4970   23.8080 C   0  0  0  0  0  3  0  0  0  0  0  0
  -26.4340  -31.7220   25.0760 C   0  0  1  0  0  0  0  0  0  0  0  0
  -25.3530  -31.4760   26.1530 C   0  0  0  0  0  1  0  0  0  0  0  0
  -27.0200  -30.3490   24.6760 C   0  0  0  0  0  1  0  0  0  0  0  0
  -27.5870  -32.5200   25.7300 C   0  0  0  0  0  1  0  0  0  0  0  0
  -25.5870  -33.8920   24.1510 N   0  0  0  0  0  0  0  0  0  0  0  0
  -25.9060  -34.9530   23.3960 C   0  0  0  0  0  0  0  0  0  0  0  0
  -26.5640  -34.8600   22.3570 O   0  0  0  0  0  0  0  0  0  0  0  0
  -25.0020  -34.0390   24.9600 H   0  0  0  0  0  0  0  0  0  0  0  0
  -24.1680  -36.7440   23.0760 C   0  0  0  0  0  1  0  0  0  0  0  0
  -25.4190  -36.3370   23.8710 C   0  0  0  0  0  3  0  0  0  0  0  0
  -27.5580  -37.2220   24.6890 C   0  0  0  0  0  1  0  0  0  0  0  0
  -26.4460  -37.3940   23.7580 N   0  0  0  0  0  0  0  0  0  0  0  0
  -26.0370  -38.3110   23.9180 H   0  0  0  0  0  0  0  0  0  0  0  0
  1  6  1  0
  2  1  2  0
  3  6  2  0
  3  5  1  0
  4  3  1  0
  7  2  1  0
  7  4  2  0
  9  8  1  0
  9  2  1  0
  9 19  1  0
 10 19  1  0
 11 16  1  0
 12 13  1  0
 12 11  1  0
 14 13  1  0
 14 23  1  0
 14 15  1  0
 16 10  1  0
 16 15  1  0
 17 10  2  0
 19 18  1  0
 20 21  2  0
 21 40  1  0
 22 21  1  0
 22 25  1  0
 23 24  1  0
 23 20  1  0
 24 22  2  0
 25 26  1  0
 26 27  2  0
 28 31  1  0
 28 27  1  0
 29 28  2  0
 30 29  1  0
 30 25  2  0
 31 32  1  0
 32 33  1  0
 33 34  2  0
 35 34  1  0
 35 39  1  0
 36 35  2  0
 37 32  2  0
 37 36  1  0
 38 37  1  0
 40 41  1  0
 41 44  1  0
 41 43  1  0
 42 40  2  0
 45 20  1  0
 45 46  1  0
 47 45  1  0
 48 49  1  0
 48  4  1  0
 50 51  1  0
 50 49  2  0
 52 63  2  0
 53 51  1  0
 53 58  1  0
 54 62  1  0
 54 64  1  0
 55 61  1  0
 55 57  1  0
 56 62  1  0
 57 56  1  0
 58 57  2  0
 59 60  1  0
 59 53  2  0
 60 55  2  0
 61 54  1  0
 62 52  1  0
 64 66  2  0
 65 64  1  0
 67 65  1  0
 68 77  2  0
 68 73  1  0
 69 65  1  0
 69 73  1  0
 70 69  1  0
 71 72  1  0
 71 70  1  0
 72 68  1  0
 73 74  2  0
 74 75  1  0
 76 75  2  0
 77 76  1  0
 78 52  1  0
 78 83  1  0
 78 79  1  0
 79 82  1  1
 79 80  1  0
 81 79  1  0
 83 86  1  0
 84 88  1  0
 84 83  1  0
 85 84  2  0
 88 87  1  0
 90 88  1  0
 90 91  1  0
 90 89  1  0
M  ISO  4  10 100  19 100  50 101  51 101
M  END
>  <TORSDO>  (97) 
F 20

>  <SCORE>  (97) 
-13.374

>  <name>  (97) 
97

>  <ligand_id>  (97) 
97

>  <original_smiles>  (97) 
[H]c1nc(C([H])([H])[H])c(C([H])([H])C([H])([H])C([H])([H])Oc2c([H])c([H])c3c(c2[H])C([H])([H])N(C(=O)C([H])(N([H])C(=O)C([H])(N([H])C([H])([H])[H])C([H])([H])[H])C(C([H])([H])[H])(C([H])([H])[H])C([H])([H])[H])C([H])(C(=O)N([H])C2([H])c4c([H])c([H])c([H])c([H])c4C([H])([H])C([H])([H])C2([H])[H])C3([H])[H])nc1C([H])(N(C(=O)N1C([H])([H])C([H])([H])C([H])([H])C([H])(n2nc(-c3c([H])c([H])c(Oc4c([H])c([H])c(F)c([H])c4F)c([H])c3[H])c(C(=O)N([H])[H])c2N([H])[H])C1([H])[H])C([H])([H])[H])C([H])([H])[H]

>  <smiles>  (97) 
[H]c1nc(C([H])([H])[H])c(C([H])([H])C([H])([H])C([H])([H])Oc2c([H])c([H])c3c(c2[H])C([H])([H])N(C(=O)C([H])(N([H])C(=O)C([H])(N([H])C([H])([H])[H])C([H])([H])[H])C(C([H])([H])[H])(C([H])([H])[H])C([H])([H])[H])C([H])(C(=O)N([H])C2([H])c4c([H])c([H])c([H])c([H])c4C([H])([H])C([H])([H])C2([H])[H])C3([H])[H])nc1C([H])(N(C(=O)N1C([H])([H])C([H])([H])C([H])([H])C([H])(n2nc(-c3c([H])c([H])c(Oc4c([H])c([H])c(F)c([H])c4F)c([H])c3[H])c(C(=O)N([H])[H])c2N([H])[H])C1([H])[H])C([H])([H])[H])C([H])([H])[H]

$$$$
98:0:0
     RDKit          3D

 94102  0  0  1  0  0  0  0  0999 V2000
  -29.8110  -21.1590   20.4900 C   0  0  0  0  0  2  0  0  0  0  0  0
  -30.6680  -20.8130   18.1600 C   0  0  0  0  0  3  0  0  0  0  0  0
  -31.1930  -19.8370   17.3650 C   0  0  0  0  0  0  0  0  0  0  0  0
  -30.6670  -18.9070   19.3560 C   0  0  0  0  0  3  0  0  0  0  0  0
  -31.7060  -19.8860   15.9590 C   0  0  0  0  0  1  0  0  0  0  0  0
  -30.3310  -20.2600   19.3790 N   0  0  0  0  0  0  0  0  0  0  0  0
  -31.2060  -18.7130   18.1390 N   0  0  0  0  0  0  0  0  0  0  0  0
  -31.5830  -17.8230   17.8350 H   0  0  0  0  0  0  0  0  0  0  0  0
  -30.6620  -17.7140   20.3860 C   0  0  0  0  0  2  0  0  0  0  0  0
  -29.3280  -16.3750   18.6470 C   0  0  0  0  0  1  0  0  0  0  0  0
  -28.7100  -16.3730   21.1160 C   0  0  0  0  0  1  0  0  0  0  0  0
  -29.8690  -16.3020   20.0990 C   0  0  2  0  0  0  0  0  0  0  0  0
  -30.6580  -14.8680   20.2040 C   0  0  0  0  0  0  0  0  0  0  0  0
  -30.4780  -12.5790   19.2340 C   0  0  0  0  0  2  0  0  0  0  0  0
  -29.5100  -12.6190   18.0310 C   0  0  0  0  0  2  0  0  0  0  0  0
  -28.0420  -12.4290   18.4760 C   0  0  0  0  0  2  0  0  0  0  0  0
  -27.6690  -13.2810   19.7160 C   0  0  0  0  0  3  0  0  0  0  0  0
  -28.7700  -13.2010   20.8000 C   0  0  0  0  0  2  0  0  0  0  0  0
  -30.0460  -13.6220   20.1950 N   0  0  0  0  0  0  0  0  0  0  0  0
  -31.8700  -14.9120   19.9870 O   0  0  0  0  0  0  0  0  0  0  0  0
  -25.2830  -13.8990   20.4390 C   0  0  0  0  0  0  0  0  0  0  0  0
  -24.2210  -13.1330   20.8320 C   0  0  0  0  0  0  0  0  0  0  0  0
  -24.6850  -11.7830   20.8110 C   0  0  0  0  0  0  0  0  0  0  0  0
  -26.3290  -13.0110   20.2210 N   0  0  0  0  0  0  0  0  0  0  0  0
  -25.9740  -11.7350   20.5010 N   0  0  0  0  0  0  0  0  0  0  0  0
  -23.9580  -10.5250   21.0090 C   0  0  0  0  0  0  0  0  0  0  0  0
  -24.3950   -9.5610   21.9430 C   0  0  0  0  0  3  0  0  0  0  0  0
  -23.6690   -8.3670   22.1290 C   0  0  0  0  0  3  0  0  0  0  0  0
  -22.4930   -8.1260   21.3800 C   0  0  0  0  0  0  0  0  0  0  0  0
  -22.0740   -9.0820   20.4380 C   0  0  0  0  0  3  0  0  0  0  0  0
  -22.8010  -10.2680   20.2500 C   0  0  0  0  0  3  0  0  0  0  0  0
  -21.7410   -6.9820   21.4770 O   0  0  0  0  0  0  0  0  0  0  0  0
  -21.7040   -6.2420   22.6320 C   0  0  0  0  0  0  0  0  0  0  0  0
  -21.2940   -6.8020   23.8620 C   0  0  0  0  0  3  0  0  0  0  0  0
  -21.1990   -5.9880   25.0070 C   0  0  0  0  0  3  0  0  0  0  0  0
  -21.5100   -4.6180   24.9280 C   0  0  0  0  0  0  0  0  0  0  0  0
  -21.9170   -4.0590   23.7040 C   0  0  0  0  0  3  0  0  0  0  0  0
  -22.0100   -4.8700   22.5580 C   0  0  0  0  0  0  0  0  0  0  0  0
  -22.3810   -4.3220   21.3760 F   0  0  0  0  0  0  0  0  0  0  0  0
  -21.4130   -3.8350   26.0270 F   0  0  0  0  0  0  0  0  0  0  0  0
  -22.8260  -13.6170   21.1060 C   0  0  0  0  0  0  0  0  0  0  0  0
  -22.1010  -12.9320   21.9840 N   0  0  0  0  0  0  0  0  0  0  0  0
  -22.3870  -14.6370   20.5770 O   0  0  0  0  0  0  0  0  0  0  0  0
  -22.4660  -12.1050   22.4320 H   0  0  0  0  0  0  0  0  0  0  0  0
  -21.1650  -13.2360   22.2050 H   0  0  0  0  0  0  0  0  0  0  0  0
  -25.4300  -15.2650   20.2260 N   0  0  0  0  0  0  0  0  0  0  0  0
  -24.6620  -15.9180   20.3230 H   0  0  0  0  0  0  0  0  0  0  0  0
  -26.2730  -15.6930   19.8630 H   0  0  0  0  0  0  0  0  0  0  0  0
  -28.9110  -22.4440   20.0720 C   0  0  0  0  0  2  0  0  0  0  0  0
  -29.1130  -23.9770   22.1040 C   0  0  0  0  0  1  0  0  0  0  0  0
  -30.6530  -24.3440   20.1500 C   0  0  0  0  0  1  0  0  0  0  0  0
  -29.2230  -23.9490   20.5660 C   0  0  1  0  0  0  0  0  0  0  0  0
  -28.2030  -25.0430   19.9770 C   0  0  0  0  0  2  0  0  0  0  0  0
  -28.3420  -26.4920   20.2880 O   0  0  0  0  0  0  0  0  0  0  0  0
  -24.6120  -31.9020   23.2540 C   0  0  0  0  0  0  0  0  0  0  0  0
  -27.2120  -27.3320   20.2110 C   0  0  0  0  0  0  0  0  0  0  0  0
  -23.3950  -30.5020   21.6210 C   0  0  0  0  0  3  0  0  0  0  0  0
  -24.8400  -28.9450   20.1960 C   0  0  0  0  0  0  0  0  0  0  0  0
  -25.9300  -30.8230   21.4200 C   0  0  0  0  0  2  0  0  0  0  0  0
  -26.0100  -29.4370   20.7860 C   0  0  0  0  0  0  0  0  0  0  0  0
  -27.1940  -28.6410   20.7880 C   0  0  0  0  0  3  0  0  0  0  0  0
  -26.0180  -26.9000   19.5860 C   0  0  0  0  0  3  0  0  0  0  0  0
  -24.8460  -27.6820   19.5850 C   0  0  0  0  0  3  0  0  0  0  0  0
  -23.6040  -29.8220   20.2420 C   0  0  0  0  0  2  0  0  0  0  0  0
  -24.6650  -31.0920   22.1570 N   0  0  0  0  0  0  0  0  0  0  0  0
  -23.5320  -32.1830   23.7950 O   0  0  0  0  0  0  0  0  0  0  0  0
  -22.7360  -29.4900   22.5880 C   0  0  0  0  0  0  0  0  0  0  0  0
  -21.4090  -29.3120   22.4670 N   0  0  0  0  0  0  0  0  0  0  0  0
  -23.4170  -28.8680   23.4080 O   0  0  0  0  0  0  0  0  0  0  0  0
  -20.9180  -29.8690   21.7820 H   0  0  0  0  0  0  0  0  0  0  0  0
  -18.0350  -28.1080   22.9710 C   0  0  0  0  0  0  0  0  0  0  0  0
  -20.5920  -28.3800   23.2460 C   0  0  0  0  0  3  0  0  0  0  0  0
  -20.6990  -26.9420   22.6860 C   0  0  0  0  0  2  0  0  0  0  0  0
  -19.6010  -26.6040   21.6720 C   0  0  0  0  0  2  0  0  0  0  0  0
  -18.2170  -26.7510   22.3110 C   0  0  0  0  0  2  0  0  0  0  0  0
  -19.1500  -28.8780   23.3950 C   0  0  0  0  0  0  0  0  0  0  0  0
  -18.9240  -30.1450   23.9750 C   0  0  0  0  0  3  0  0  0  0  0  0
  -17.6170  -30.6450   24.1300 C   0  0  0  0  0  3  0  0  0  0  0  0
  -16.5170  -29.8730   23.7190 C   0  0  0  0  0  3  0  0  0  0  0  0
  -16.7270  -28.6060   23.1460 C   0  0  0  0  0  3  0  0  0  0  0  0
  -25.9000  -32.5330   23.8680 C   0  0  0  0  0  3  0  0  0  0  0  0
  -25.5980  -33.9350   24.1880 N   0  0  0  0  0  0  0  0  0  0  0  0
  -25.9340  -34.9790   23.4190 C   0  0  0  0  0  0  0  0  0  0  0  0
  -26.5980  -34.8630   22.3850 O   0  0  0  0  0  0  0  0  0  0  0  0
  -25.0060  -34.1010   24.9890 H   0  0  0  0  0  0  0  0  0  0  0  0
  -24.2130  -36.7800   23.0570 C   0  0  0  0  0  1  0  0  0  0  0  0
  -25.4570  -36.3740   23.8660 C   0  0  0  0  0  3  0  0  0  0  0  0
  -27.6010  -37.2520   24.6770 C   0  0  0  0  0  1  0  0  0  0  0  0
  -26.4940  -37.4210   23.7410 N   0  0  0  0  0  0  0  0  0  0  0  0
  -26.0930  -38.3430   23.8870 H   0  0  0  0  0  0  0  0  0  0  0  0
  -26.4190  -31.7700   25.1490 C   0  0  1  0  0  0  0  0  0  0  0  0
  -25.3300  -31.5510   26.2250 C   0  0  0  0  0  1  0  0  0  0  0  0
  -26.9940  -30.3850   24.7660 C   0  0  0  0  0  1  0  0  0  0  0  0
  -27.5790  -32.5620   25.7980 C   0  0  0  0  0  1  0  0  0  0  0  0
  2  6  1  0
  3  7  1  0
  3  2  2  0
  4  6  1  0
  4  9  1  0
  5  3  1  0
  6  1  1  0
  7  4  1  0
  8  7  1  0
 12 10  1  6
 12 13  1  0
 12  9  1  0
 12 11  1  0
 14 19  1  0
 15 16  1  0
 15 14  1  0
 17 16  1  0
 17 24  1  0
 17 18  1  0
 19 13  1  0
 19 18  1  0
 20 13  2  0
 21 22  2  0
 22 41  1  0
 23 22  1  0
 23 26  1  0
 24 21  1  0
 24 25  1  0
 25 23  2  0
 26 27  1  0
 27 28  2  0
 29 32  1  0
 29 28  1  0
 30 29  2  0
 31 30  1  0
 31 26  2  0
 32 33  1  0
 33 34  1  0
 34 35  2  0
 36 35  1  0
 36 40  1  0
 37 36  2  0
 38 33  2  0
 38 37  1  0
 39 38  1  0
 41 42  1  0
 42 45  1  0
 42 44  1  0
 43 41  2  0
 46 47  1  0
 46 21  1  0
 48 46  1  0
 49  1  1  0
 49 52  1  0
 52 51  1  1
 52 50  1  0
 53 54  1  0
 53 52  1  0
 55 66  2  0
 56 54  1  0
 56 61  1  0
 57 65  1  0
 57 67  1  0
 58 64  1  0
 58 60  1  0
 59 65  1  0
 60 61  2  0
 60 59  1  0
 62 56  2  0
 63 62  1  0
 63 58  2  0
 64 57  1  0
 65 55  1  0
 67 69  2  0
 68 67  1  0
 70 68  1  0
 71 80  2  0
 71 76  1  0
 72 68  1  0
 72 76  1  0
 73 72  1  0
 74 75  1  0
 74 73  1  0
 75 71  1  0
 76 77  2  0
 77 78  1  0
 79 78  2  0
 80 79  1  0
 81 55  1  0
 81 82  1  0
 81 91  1  0
 82 85  1  0
 83 87  1  0
 83 82  1  0
 84 83  2  0
 87 86  1  0
 89 87  1  0
 89 90  1  0
 89 88  1  0
 91 94  1  1
 91 92  1  0
 93 91  1  0
M  ISO  4  12 100  13 100  53 101  54 101
M  END
>  <TORSDO>  (98) 
F 22

>  <SCORE>  (98) 
-12.824

>  <name>  (98) 
98

>  <ligand_id>  (98) 
98

>  <original_smiles>  (98) 
[H]c1c([H])c([H])c2c(c1[H])C([H])([H])C([H])([H])C([H])([H])C2([H])N([H])C(=O)C1([H])N(C(=O)C([H])(N([H])C(=O)C([H])(N([H])C([H])([H])[H])C([H])([H])[H])C(C([H])([H])[H])(C([H])([H])[H])C([H])([H])[H])C([H])([H])c2c([H])c(OC([H])([H])C(C([H])([H])[H])(C([H])([H])[H])C([H])([H])C([H])([H])n3c([H])c(C([H])([H])[H])[n+]([H])c3C([H])([H])C(C(=O)N3C([H])([H])C([H])([H])C([H])([H])C([H])(n4nc(-c5c([H])c([H])c(Oc6c([H])c([H])c(F)c([H])c6F)c([H])c5[H])c(C(=O)N([H])[H])c4N([H])[H])C3([H])[H])(C([H])([H])[H])C([H])([H])[H])c([H])c([H])c2C1([H])[H]

>  <smiles>  (98) 
[H]c1c([H])c([H])c2c(c1[H])C([H])([H])C([H])([H])C([H])([H])C2([H])N([H])C(=O)C1([H])N(C(=O)C([H])(N([H])C(=O)C([H])(N([H])C([H])([H])[H])C([H])([H])[H])C(C([H])([H])[H])(C([H])([H])[H])C([H])([H])[H])C([H])([H])c2c([H])c(OC([H])([H])C(C([H])([H])[H])(C([H])([H])[H])C([H])([H])C([H])([H])n3c([H])c(C([H])([H])[H])[n+]([H])c3C([H])([H])C(C(=O)N3C([H])([H])C([H])([H])C([H])([H])C([H])(n4nc(-c5c([H])c([H])c(Oc6c([H])c([H])c(F)c([H])c6F)c([H])c5[H])c(C(=O)N([H])[H])c4N([H])[H])C3([H])[H])(C([H])([H])[H])C([H])([H])[H])c([H])c([H])c2C1([H])[H]

$$$$
99:0:0
     RDKit          3D

 98106  0  0  1  0  0  0  0  0999 V2000
  -28.3560  -19.1090   18.9660 C   0  0  0  0  0  0  0  0  0  0  0  0
  -29.2050  -20.1600   19.3460 C   0  0  0  0  0  0  0  0  0  0  0  0
  -30.0260  -17.9250   19.9010 C   0  0  0  0  0  0  0  0  0  0  0  0
  -28.8770  -17.8240   19.2420 N   0  0  0  0  0  0  0  0  0  0  0  0
  -30.2310  -19.3420   20.0370 N   0  0  0  0  0  0  0  0  0  0  0  0
  -29.8950  -16.3270   21.8900 C   0  0  0  0  0  1  0  0  0  0  0  0
  -32.1420  -16.8730   21.1370 C   0  0  0  0  0  1  0  0  0  0  0  0
  -30.7200  -16.5660   20.6100 C   0  0  2  0  0  0  0  0  0  0  0  0
  -31.0540  -15.0990   19.8390 C   0  0  0  0  0  0  0  0  0  0  0  0
  -30.7950  -12.7280   18.9460 C   0  0  0  0  0  2  0  0  0  0  0  0
  -29.7960  -12.6800   17.7670 C   0  0  0  0  0  2  0  0  0  0  0  0
  -28.3500  -12.5320   18.2740 C   0  0  0  0  0  2  0  0  0  0  0  0
  -28.0430  -13.4710   19.4720 C   0  0  0  0  0  3  0  0  0  0  0  0
  -29.1620  -13.4160   20.5310 C   0  0  0  0  0  2  0  0  0  0  0  0
  -30.4100  -13.8460   19.8740 N   0  0  0  0  0  0  0  0  0  0  0  0
  -32.1200  -15.0830   19.2050 O   0  0  0  0  0  0  0  0  0  0  0  0
  -25.7500  -14.1130   20.4120 C   0  0  0  0  0  0  0  0  0  0  0  0
  -24.6810  -13.3640   20.8280 C   0  0  0  0  0  0  0  0  0  0  0  0
  -25.0770  -11.9990   20.6920 C   0  0  0  0  0  0  0  0  0  0  0  0
  -26.7290  -13.2030   20.0500 N   0  0  0  0  0  0  0  0  0  0  0  0
  -26.3380  -11.9210   20.2820 N   0  0  0  0  0  0  0  0  0  0  0  0
  -24.3060  -10.7610   20.8750 C   0  0  0  0  0  0  0  0  0  0  0  0
  -24.7090   -9.7700   21.7940 C   0  0  0  0  0  3  0  0  0  0  0  0
  -23.9430   -8.5970   21.9680 C   0  0  0  0  0  3  0  0  0  0  0  0
  -22.7580   -8.4090   21.2190 C   0  0  0  0  0  0  0  0  0  0  0  0
  -22.3700   -9.3900   20.2900 C   0  0  0  0  0  3  0  0  0  0  0  0
  -23.1360  -10.5550   20.1160 C   0  0  0  0  0  3  0  0  0  0  0  0
  -21.9640   -7.2910   21.3000 O   0  0  0  0  0  0  0  0  0  0  0  0
  -21.8110   -6.6020   22.4770 C   0  0  0  0  0  0  0  0  0  0  0  0
  -21.3150   -7.2210   23.6430 C   0  0  0  0  0  3  0  0  0  0  0  0
  -21.1050   -6.4580   24.8110 C   0  0  0  0  0  3  0  0  0  0  0  0
  -21.3830   -5.0780   24.8090 C   0  0  0  0  0  0  0  0  0  0  0  0
  -21.8710   -4.4580   23.6440 C   0  0  0  0  0  3  0  0  0  0  0  0
  -22.0790   -5.2190   22.4800 C   0  0  0  0  0  0  0  0  0  0  0  0
  -22.5280   -4.6130   21.3550 F   0  0  0  0  0  0  0  0  0  0  0  0
  -21.1750   -4.3430   25.9270 F   0  0  0  0  0  0  0  0  0  0  0  0
  -23.3320  -13.8890   21.2250 C   0  0  0  0  0  0  0  0  0  0  0  0
  -22.6470  -13.1970   22.1310 N   0  0  0  0  0  0  0  0  0  0  0  0
  -22.8940  -14.9410   20.7670 O   0  0  0  0  0  0  0  0  0  0  0  0
  -23.0210  -12.3490   22.5330 H   0  0  0  0  0  0  0  0  0  0  0  0
  -21.7380  -13.5210   22.4270 H   0  0  0  0  0  0  0  0  0  0  0  0
  -25.9650  -15.4790   20.2880 N   0  0  0  0  0  0  0  0  0  0  0  0
  -25.2450  -16.1620   20.4970 H   0  0  0  0  0  0  0  0  0  0  0  0
  -26.8000  -15.8960   19.8930 H   0  0  0  0  0  0  0  0  0  0  0  0
  -30.4890  -22.2670   18.3950 C   0  0  0  0  0  1  0  0  0  0  0  0
  -28.2100  -21.9170   17.7030 C   0  0  0  0  0  1  0  0  0  0  0  0
  -29.1150  -21.8110   18.9460 C   0  0  1  0  0  0  0  0  0  0  0  0
  -28.5370  -23.1380   19.8550 C   0  0  0  0  0  2  0  0  0  0  0  0
  -28.2180  -24.6870   19.2010 C   0  0  0  0  0  2  0  0  0  0  0  0
  -28.2160  -26.1310   19.8240 O   0  0  0  0  0  0  0  0  0  0  0  0
  -24.6550  -31.7310   23.0760 C   0  0  0  0  0  0  0  0  0  0  0  0
  -27.1580  -27.1180   19.7850 C   0  0  0  0  0  0  0  0  0  0  0  0
  -23.4250  -30.3990   21.4110 C   0  0  0  0  0  3  0  0  0  0  0  0
  -24.8380  -28.8850   19.8850 C   0  0  0  0  0  0  0  0  0  0  0  0
  -25.9770  -30.6600   21.2060 C   0  0  0  0  0  2  0  0  0  0  0  0
  -26.0300  -29.2930   20.4930 C   0  0  0  0  0  0  0  0  0  0  0  0
  -27.1850  -28.4230   20.4340 C   0  0  0  0  0  3  0  0  0  0  0  0
  -25.9350  -26.8170   19.1450 C   0  0  0  0  0  3  0  0  0  0  0  0
  -24.8050  -27.6620   19.1970 C   0  0  0  0  0  3  0  0  0  0  0  0
  -23.6140  -29.7800   20.0010 C   0  0  0  0  0  2  0  0  0  0  0  0
  -24.7080  -30.9510   21.9530 N   0  0  0  0  0  0  0  0  0  0  0  0
  -23.5800  -31.9950   23.6350 O   0  0  0  0  0  0  0  0  0  0  0  0
  -22.7650  -29.3530   22.3460 C   0  0  0  0  0  0  0  0  0  0  0  0
  -21.4310  -29.2000   22.2550 N   0  0  0  0  0  0  0  0  0  0  0  0
  -23.4550  -28.6840   23.1200 O   0  0  0  0  0  0  0  0  0  0  0  0
  -20.9310  -29.7900   21.6050 H   0  0  0  0  0  0  0  0  0  0  0  0
  -18.0590  -27.9900   22.8040 C   0  0  0  0  0  0  0  0  0  0  0  0
  -20.6250  -28.2340   23.0080 C   0  0  0  0  0  3  0  0  0  0  0  0
  -20.7040  -26.8270   22.3690 C   0  0  0  0  0  2  0  0  0  0  0  0
  -19.5710  -26.5520   21.3750 C   0  0  0  0  0  2  0  0  0  0  0  0
  -18.2090  -26.6720   22.0620 C   0  0  0  0  0  2  0  0  0  0  0  0
  -19.1920  -28.7300   23.2330 C   0  0  0  0  0  0  0  0  0  0  0  0
  -18.9920  -29.9640   23.8910 C   0  0  0  0  0  3  0  0  0  0  0  0
  -17.6940  -30.4590   24.1150 C   0  0  0  0  0  3  0  0  0  0  0  0
  -16.5770  -29.7160   23.6980 C   0  0  0  0  0  3  0  0  0  0  0  0
  -16.7600  -28.4820   23.0510 C   0  0  0  0  0  3  0  0  0  0  0  0
  -25.9430  -32.3450   23.7040 C   0  0  0  0  0  3  0  0  0  0  0  0
  -25.6410  -33.7360   24.0840 N   0  0  0  0  0  0  0  0  0  0  0  0
  -25.9750  -34.8140   23.3620 C   0  0  0  0  0  0  0  0  0  0  0  0
  -26.6330  -34.7400   22.3210 O   0  0  0  0  0  0  0  0  0  0  0  0
  -25.0560  -33.8680   24.8980 H   0  0  0  0  0  0  0  0  0  0  0  0
  -24.2530  -36.6260   23.0950 C   0  0  0  0  0  1  0  0  0  0  0  0
  -25.5070  -36.1930   23.8710 C   0  0  0  0  0  3  0  0  0  0  0  0
  -27.6610  -37.0390   24.6890 C   0  0  0  0  0  1  0  0  0  0  0  0
  -26.5460  -37.2410   23.7680 N   0  0  0  0  0  0  0  0  0  0  0  0
  -26.1530  -38.1620   23.9420 H   0  0  0  0  0  0  0  0  0  0  0  0
  -26.4670  -31.5370   24.9540 C   0  0  1  0  0  0  0  0  0  0  0  0
  -25.3850  -31.2900   26.0330 C   0  0  0  0  0  1  0  0  0  0  0  0
  -27.0240  -30.1620   24.5260 C   0  0  0  0  0  1  0  0  0  0  0  0
  -27.6450  -32.2970   25.6080 C   0  0  0  0  0  1  0  0  0  0  0  0
  -26.9610  -19.1030   18.3940 C   0  0  0  0  0  2  0  0  0  0  0  0
  -24.5000  -18.6980   19.0300 C   0  0  0  0  0  1  0  0  0  0  0  0
  -25.9290  -18.9460   19.5250 C   0  0  0  0  0  2  0  0  0  0  0  0
  -31.3380  -19.9800   20.7500 C   0  0  0  0  0  2  0  0  0  0  0  0
  -29.4560  -21.0530   22.2290 C   0  0  0  0  0  1  0  0  0  0  0  0
  -31.5360  -20.1900   23.2910 C   0  0  0  0  0  1  0  0  0  0  0  0
  -31.6620  -22.2180   21.9130 C   0  0  0  0  0  1  0  0  0  0  0  0
  -30.9740  -20.8420   22.0150 C   0  0  1  0  0  0  0  0  0  0  0  0
  1  4  1  0
  1  2  2  0
  2  5  1  0
  3  5  1  0
  3  8  1  0
  4  3  2  0
  5 94  1  0
  8  7  1  1
  8  6  1  0
  9 15  1  0
  9  8  1  0
 10 15  1  0
 11 12  1  0
 11 10  1  0
 13 12  1  0
 13 20  1  0
 13 14  1  0
 15 14  1  0
 16  9  2  0
 17 18  2  0
 18 37  1  0
 19 18  1  0
 19 22  1  0
 20 21  1  0
 20 17  1  0
 21 19  2  0
 22 23  1  0
 23 24  2  0
 25 28  1  0
 25 24  1  0
 26 25  2  0
 27 26  1  0
 27 22  2  0
 28 29  1  0
 29 34  2  0
 29 30  1  0
 30 31  2  0
 32 31  1  0
 32 36  1  0
 33 32  2  0
 34 33  1  0
 35 34  1  0
 37 38  1  0
 38 41  1  0
 38 40  1  0
 39 37  2  0
 42 17  1  0
 42 43  1  0
 44 42  1  0
 47 45  1  6
 46 47  1  0
 47  2  1  0
 47 48  1  0
 49 50  1  0
 49 48  1  0
 51 62  2  0
 52 50  1  0
 52 57  1  0
 53 61  1  0
 53 63  1  0
 54 60  1  0
 54 56  1  0
 55 61  1  0
 56 55  1  0
 57 56  2  0
 58 59  1  0
 58 52  2  0
 59 54  2  0
 60 53  1  0
 61 51  1  0
 63 65  2  0
 64 63  1  0
 66 64  1  0
 67 76  2  0
 67 72  1  0
 68 64  1  0
 68 72  1  0
 69 68  1  0
 70 71  1  0
 70 69  1  0
 71 67  1  0
 72 73  2  0
 73 74  1  0
 75 74  2  0
 76 75  1  0
 77 51  1  0
 77 78  1  0
 77 87  1  0
 78 81  1  0
 79 83  1  0
 79 78  1  0
 80 79  2  0
 83 82  1  0
 85 83  1  0
 85 86  1  0
 85 84  1  0
 87 90  1  1
 87 88  1  0
 89 87  1  0
 91  1  1  0
 91 93  1  0
 92 93  1  0
 94 98  1  0
 98 97  1  6
 98 95  1  0
 98 96  1  0
M  ISO  4   8 100   9 100  49 101  50 101
M  END
>  <TORSDO>  (99) 
F 24

>  <SCORE>  (99) 
-11.310

>  <name>  (99) 
99

>  <ligand_id>  (99) 
99

>  <original_smiles>  (99) 
[H]c1c([H])c([H])c2c(c1[H])C([H])([H])C([H])([H])C([H])([H])C2([H])N([H])C(=O)C1([H])N(C(=O)C([H])(N([H])C(=O)C([H])(N([H])C([H])([H])[H])C([H])([H])[H])C(C([H])([H])[H])(C([H])([H])[H])C([H])([H])[H])C([H])([H])c2c([H])c(OC([H])([H])C([H])([H])C(c3c(C([H])([H])C([H])([H])C([H])([H])[H])nc(C(C(=O)N4C([H])([H])C([H])([H])C([H])([H])C([H])(n5nc(-c6c([H])c([H])c(Oc7c([H])c([H])c(F)c([H])c7F)c([H])c6[H])c(C(=O)N([H])[H])c5N([H])[H])C4([H])[H])(C([H])([H])[H])C([H])([H])[H])n3C([H])([H])C(C([H])([H])[H])(C([H])([H])[H])C([H])([H])[H])(C([H])([H])[H])C([H])([H])[H])c([H])c([H])c2C1([H])[H]

>  <smiles>  (99) 
[H]c1c([H])c([H])c2c(c1[H])C([H])([H])C([H])([H])C([H])([H])C2([H])N([H])C(=O)C1([H])N(C(=O)C([H])(N([H])C(=O)C([H])(N([H])C([H])([H])[H])C([H])([H])[H])C(C([H])([H])[H])(C([H])([H])[H])C([H])([H])[H])C([H])([H])c2c([H])c(OC([H])([H])C([H])([H])C(c3c(C([H])([H])C([H])([H])C([H])([H])[H])nc(C(C(=O)N4C([H])([H])C([H])([H])C([H])([H])C([H])(n5nc(-c6c([H])c([H])c(Oc7c([H])c([H])c(F)c([H])c7F)c([H])c6[H])c(C(=O)N([H])[H])c5N([H])[H])C4([H])[H])(C([H])([H])[H])C([H])([H])[H])n3C([H])([H])C(C([H])([H])[H])(C([H])([H])[H])C([H])([H])[H])(C([H])([H])[H])C([H])([H])[H])c([H])c([H])c2C1([H])[H]

$$$$
