0:0:0
     RDKit          3D

 92100  0  0  1  0  0  0  0  0999 V2000
  -30.5540  -21.0110   19.2980 C   0  0  0  0  0  3  0  0  0  0  0  0
  -30.8700  -19.5830   19.3870 C   0  0  0  0  0  3  0  0  0  0  0  0
  -29.1000  -20.7550   21.0470 C   0  0  0  0  0  3  0  0  0  0  0  0
  -29.5700  -21.7310   20.0860 C   0  0  0  0  0  0  0  0  0  0  0  0
  -30.2630  -18.6340   20.2910 C   0  0  0  0  0  0  0  0  0  0  0  0
  -29.4390  -19.3790   21.1530 N   0  0  0  0  0  0  0  0  0  0  0  0
  -27.7250  -23.0120   18.8350 C   0  0  0  0  0  1  0  0  0  0  0  0
  -30.0310  -23.9560   18.7350 C   0  0  0  0  0  1  0  0  0  0  0  0
  -28.9900  -23.3040   19.6750 C   0  0  2  0  0  0  0  0  0  0  0  0
  -28.4790  -24.6660   20.6200 C   0  0  0  0  0  2  0  0  0  0  0  0
  -28.4610  -26.2130   20.2170 O   0  0  0  0  0  0  0  0  0  0  0  0
  -24.6700  -31.8870   23.2260 C   0  0  0  0  0  0  0  0  0  0  0  0
  -27.3450  -27.1580   20.2370 C   0  0  0  0  0  0  0  0  0  0  0  0
  -23.5040  -30.4790   21.5750 C   0  0  0  0  0  3  0  0  0  0  0  0
  -24.9830  -28.9020   20.1770 C   0  0  0  0  0  0  0  0  0  0  0  0
  -26.0580  -30.7640   21.4300 C   0  0  0  0  0  2  0  0  0  0  0  0
  -26.1550  -29.3640   20.7860 C   0  0  0  0  0  0  0  0  0  0  0  0
  -27.3330  -28.5130   20.7880 C   0  0  0  0  0  3  0  0  0  0  0  0
  -26.1340  -26.7970   19.6050 C   0  0  0  0  0  3  0  0  0  0  0  0
  -24.9860  -27.6320   19.5710 C   0  0  0  0  0  3  0  0  0  0  0  0
  -23.7480  -29.7970   20.2030 C   0  0  0  0  0  2  0  0  0  0  0  0
  -24.7650  -31.0680   22.1310 N   0  0  0  0  0  0  0  0  0  0  0  0
  -23.5760  -32.1540   23.7450 O   0  0  0  0  0  0  0  0  0  0  0  0
  -22.8250  -29.4690   22.5350 C   0  0  0  0  0  0  0  0  0  0  0  0
  -21.4960  -29.2970   22.4110 N   0  0  0  0  0  0  0  0  0  0  0  0
  -23.4990  -28.8410   23.3550 O   0  0  0  0  0  0  0  0  0  0  0  0
  -21.0080  -29.8520   21.7220 H   0  0  0  0  0  0  0  0  0  0  0  0
  -18.1150  -28.1040   22.9420 C   0  0  0  0  0  0  0  0  0  0  0  0
  -20.6790  -28.3520   23.1790 C   0  0  0  0  0  3  0  0  0  0  0  0
  -20.7680  -26.9280   22.5800 C   0  0  0  0  0  2  0  0  0  0  0  0
  -19.6510  -26.6260   21.5760 C   0  0  0  0  0  2  0  0  0  0  0  0
  -18.2770  -26.7660   22.2400 C   0  0  0  0  0  2  0  0  0  0  0  0
  -19.2410  -28.8550   23.3690 C   0  0  0  0  0  0  0  0  0  0  0  0
  -19.0330  -30.1070   23.9870 C   0  0  0  0  0  3  0  0  0  0  0  0
  -17.7300  -30.6010   24.1900 C   0  0  0  0  0  3  0  0  0  0  0  0
  -16.6180  -29.8460   23.7760 C   0  0  0  0  0  3  0  0  0  0  0  0
  -16.8120  -28.6030   23.1520 C   0  0  0  0  0  3  0  0  0  0  0  0
  -25.9300  -32.5420   23.8670 C   0  0  0  0  0  3  0  0  0  0  0  0
  -26.4200  -31.7940   25.1690 C   0  0  1  0  0  0  0  0  0  0  0  0
  -25.3070  -31.5690   26.2200 C   0  0  0  0  0  1  0  0  0  0  0  0
  -27.0170  -30.4140   24.8160 C   0  0  0  0  0  1  0  0  0  0  0  0
  -27.5530  -32.6050   25.8390 C   0  0  0  0  0  1  0  0  0  0  0  0
  -25.5980  -33.9420   24.1800 N   0  0  0  0  0  0  0  0  0  0  0  0
  -25.9490  -34.9980   23.4340 C   0  0  0  0  0  0  0  0  0  0  0  0
  -26.6470  -34.8960   22.4210 O   0  0  0  0  0  0  0  0  0  0  0  0
  -24.9780  -34.0940   24.9610 H   0  0  0  0  0  0  0  0  0  0  0  0
  -24.2390  -36.8020   23.0240 C   0  0  0  0  0  1  0  0  0  0  0  0
  -25.4470  -36.3880   23.8790 C   0  0  0  0  0  3  0  0  0  0  0  0
  -27.5480  -37.2720   24.7920 C   0  0  0  0  0  1  0  0  0  0  0  0
  -26.4840  -37.4400   23.8060 N   0  0  0  0  0  0  0  0  0  0  0  0
  -26.0750  -38.3620   23.9330 H   0  0  0  0  0  0  0  0  0  0  0  0
  -30.5550  -16.8310   18.4850 C   0  0  0  0  0  1  0  0  0  0  0  0
  -30.0200  -16.9360   19.9460 C   0  0  1  0  0  0  0  0  0  0  0  0
  -30.7190  -15.3970   20.5220 C   0  0  0  0  0  0  0  0  0  0  0  0
  -30.7520  -12.9230   19.7550 C   0  0  0  0  0  2  0  0  0  0  0  0
  -29.8500  -12.6680   18.5210 C   0  0  0  0  0  2  0  0  0  0  0  0
  -28.3790  -12.4270   18.9190 C   0  0  0  0  0  2  0  0  0  0  0  0
  -27.8990  -13.3500   20.0660 C   0  0  0  0  0  3  0  0  0  0  0  0
  -28.9600  -13.4900   21.1780 C   0  0  0  0  0  2  0  0  0  0  0  0
  -30.1700  -14.0680   20.5380 N   0  0  0  0  0  0  0  0  0  0  0  0
  -31.9570  -15.3510   20.5730 O   0  0  0  0  0  0  0  0  0  0  0  0
  -25.4540  -13.8860   20.6560 C   0  0  0  0  0  0  0  0  0  0  0  0
  -24.3980  -13.1130   21.0130 C   0  0  0  0  0  0  0  0  0  0  0  0
  -24.8870  -11.7790   21.0100 C   0  0  0  0  0  0  0  0  0  0  0  0
  -26.5450  -13.0380   20.5150 N   0  0  0  0  0  0  0  0  0  0  0  0
  -26.1970  -11.7540   20.7700 N   0  0  0  0  0  0  0  0  0  0  0  0
  -24.1620  -10.5180   21.1460 C   0  0  0  0  0  0  0  0  0  0  0  0
  -24.5420   -9.5490   22.0960 C   0  0  0  0  0  3  0  0  0  0  0  0
  -23.8080   -8.3510   22.2250 C   0  0  0  0  0  3  0  0  0  0  0  0
  -22.6820   -8.1160   21.4020 C   0  0  0  0  0  0  0  0  0  0  0  0
  -22.3210   -9.0760   20.4390 C   0  0  0  0  0  3  0  0  0  0  0  0
  -23.0560  -10.2650   20.3060 C   0  0  0  0  0  3  0  0  0  0  0  0
  -21.9220   -6.9720   21.4500 O   0  0  0  0  0  0  0  0  0  0  0  0
  -21.7930   -6.2530   22.6100 C   0  0  0  0  0  0  0  0  0  0  0  0
  -21.2330   -6.8140   23.7800 C   0  0  0  0  0  3  0  0  0  0  0  0
  -21.0570   -6.0170   24.9270 C   0  0  0  0  0  3  0  0  0  0  0  0
  -21.4300   -4.6590   24.9040 C   0  0  0  0  0  0  0  0  0  0  0  0
  -21.9790   -4.0970   23.7390 C   0  0  0  0  0  3  0  0  0  0  0  0
  -22.1590   -4.8920   22.5950 C   0  0  0  0  0  0  0  0  0  0  0  0
  -22.6710   -4.3430   21.4660 F   0  0  0  0  0  0  0  0  0  0  0  0
  -21.2450   -3.8890   26.0020 F   0  0  0  0  0  0  0  0  0  0  0  0
  -22.9890  -13.5950   21.2140 C   0  0  0  0  0  0  0  0  0  0  0  0
  -22.2260  -12.9100   22.0570 N   0  0  0  0  0  0  0  0  0  0  0  0
  -22.5730  -14.6170   20.6690 O   0  0  0  0  0  0  0  0  0  0  0  0
  -22.5820  -12.1010   22.5430 H   0  0  0  0  0  0  0  0  0  0  0  0
  -21.2790  -13.2140   22.2380 H   0  0  0  0  0  0  0  0  0  0  0  0
  -25.4970  -15.2340   20.3960 N   0  0  0  0  0  0  0  0  0  0  0  0
  -24.6650  -15.8100   20.4730 H   0  0  0  0  0  0  0  0  0  0  0  0
  -26.3120  -15.7330   20.0580 H   0  0  0  0  0  0  0  0  0  0  0  0
  -27.7600  -16.4930   18.5220 C   0  0  0  0  0  1  0  0  0  0  0  0
  -27.8010  -16.7280   21.2240 C   0  0  0  0  0  1  0  0  0  0  0  0
  -28.4490  -16.9600   19.8420 C   0  0  0  0  0  3  0  0  0  0  0  0
  1  2  2  0
  1  4  1  0
  2  5  1  0
  3  6  1  0
  4  3  2  0
  5  6  2  0
  9  7  1  6
  8  9  1  0
  9  4  1  0
  9 10  1  0
 11 13  1  0
 11 10  1  0
 12 23  2  0
 13 18  1  0
 14 22  1  0
 14 24  1  0
 15 21  1  0
 15 17  1  0
 16 22  1  0
 17 18  2  0
 17 16  1  0
 19 13  2  0
 20 19  1  0
 20 15  2  0
 21 14  1  0
 22 12  1  0
 24 26  2  0
 25 24  1  0
 27 25  1  0
 28 37  2  0
 28 33  1  0
 29 25  1  0
 29 33  1  0
 30 29  1  0
 31 32  1  0
 31 30  1  0
 32 28  1  0
 33 34  2  0
 34 35  1  0
 36 35  2  0
 37 36  1  0
 38 12  1  0
 38 43  1  0
 38 39  1  0
 39 42  1  1
 39 40  1  0
 41 39  1  0
 43 46  1  0
 44 48  1  0
 44 43  1  0
 45 44  2  0
 48 47  1  0
 50 48  1  0
 50 51  1  0
 50 49  1  0
 53 52  1  6
 53  5  1  0
 53 54  1  0
 54 60  1  0
 54 61  2  0
 55 60  1  0
 56 57  1  0
 56 55  1  0
 58 57  1  0
 58 65  1  0
 58 59  1  0
 60 59  1  0
 62 63  2  0
 63 82  1  0
 64 63  1  0
 64 67  1  0
 65 62  1  0
 65 66  1  0
 66 64  2  0
 67 68  1  0
 68 69  2  0
 70 73  1  0
 70 69  1  0
 71 70  2  0
 72 71  1  0
 72 67  2  0
 73 74  1  0
 74 75  1  0
 75 76  2  0
 77 76  1  0
 77 81  1  0
 78 77  2  0
 79 74  2  0
 79 78  1  0
 80 79  1  0
 82 83  1  0
 83 86  1  0
 83 85  1  0
 84 82  2  0
 87 88  1  0
 87 62  1  0
 89 87  1  0
 90 92  1  0
 92 53  1  0
 92 91  1  0
M  ISO  4  10 101  11 101  53 100  54 100
M  END
>  <TORSDO>  (1) 
F 20

>  <SCORE>  (1) 
-14.097

>  <name>  (1) 
0

>  <ligand_id>  (1) 
0

>  <original_smiles>  (1) 
[H]c1nc(C(C(=O)N2C([H])([H])C([H])([H])C([H])([H])C([H])(n3nc(-c4c([H])c([H])c(Oc5c([H])c([H])c(F)c([H])c5F)c([H])c4[H])c(C(=O)N([H])[H])c3N([H])[H])C2([H])[H])(C([H])([H])[H])C([H])(C([H])([H])[H])C([H])([H])[H])c([H])c([H])c1C(C([H])([H])[H])(C([H])([H])[H])C([H])([H])Oc1c([H])c([H])c2c(c1[H])C([H])([H])N(C(=O)C([H])(N([H])C(=O)C([H])(N([H])C([H])([H])[H])C([H])([H])[H])C(C([H])([H])[H])(C([H])([H])[H])C([H])([H])[H])C([H])(C(=O)N([H])C1([H])c3c([H])c([H])c([H])c([H])c3C([H])([H])C([H])([H])C1([H])[H])C2([H])[H]

>  <smiles>  (1) 
[H]c1nc(C(C(=O)N2C([H])([H])C([H])([H])C([H])([H])C([H])(n3nc(-c4c([H])c([H])c(Oc5c([H])c([H])c(F)c([H])c5F)c([H])c4[H])c(C(=O)N([H])[H])c3N([H])[H])C2([H])[H])(C([H])([H])[H])C([H])(C([H])([H])[H])C([H])([H])[H])c([H])c([H])c1C(C([H])([H])[H])(C([H])([H])[H])C([H])([H])Oc1c([H])c([H])c2c(c1[H])C([H])([H])N(C(=O)C([H])(N([H])C(=O)C([H])(N([H])C([H])([H])[H])C([H])([H])[H])C(C([H])([H])[H])(C([H])([H])[H])C([H])([H])[H])C([H])(C(=O)N([H])C1([H])c3c([H])c([H])c([H])c([H])c3C([H])([H])C([H])([H])C1([H])[H])C2([H])[H]

$$$$
1:0:0
     RDKit          3D

 91 99  0  0  1  0  0  0  0  0999 V2000
  -27.9140  -20.9580   20.4250 C   0  0  0  0  0  3  0  0  0  0  0  0
  -29.0890  -21.7620   20.3230 C   0  0  0  0  0  0  0  0  0  0  0  0
  -28.2650  -19.6180   20.3000 C   0  0  0  0  0  0  0  0  0  0  0  0
  -27.3420  -18.4490   20.3450 C   0  0  0  0  0  1  0  0  0  0  0  0
  -30.0950  -20.8130   20.1110 N   0  0  0  0  0  0  0  0  0  0  0  0
  -29.6390  -19.4490   20.1010 N   0  0  0  0  0  0  0  0  0  0  0  0
  -29.2540  -23.3930   20.6250 C   0  0  0  0  0  2  0  0  0  0  0  0
  -28.6960  -24.7110   18.4760 C   0  0  0  0  0  1  0  0  0  0  0  0
  -28.3850  -24.7060   19.9850 C   0  0  0  0  0  3  0  0  0  0  0  0
  -28.4890  -26.2130   20.4400 O   0  0  0  0  0  0  0  0  0  0  0  0
  -24.6880  -31.9110   23.2660 C   0  0  0  0  0  0  0  0  0  0  0  0
  -27.4140  -27.1850   20.3480 C   0  0  0  0  0  0  0  0  0  0  0  0
  -23.5570  -30.4870   21.6070 C   0  0  0  0  0  3  0  0  0  0  0  0
  -25.0670  -28.9200   20.2450 C   0  0  0  0  0  0  0  0  0  0  0  0
  -26.1140  -30.7810   21.5130 C   0  0  0  0  0  2  0  0  0  0  0  0
  -26.2280  -29.3800   20.8760 C   0  0  0  0  0  0  0  0  0  0  0  0
  -27.4050  -28.5350   20.9040 C   0  0  0  0  0  3  0  0  0  0  0  0
  -26.2060  -26.8210   19.7110 C   0  0  0  0  0  3  0  0  0  0  0  0
  -25.0690  -27.6530   19.6490 C   0  0  0  0  0  3  0  0  0  0  0  0
  -23.8310  -29.8060   20.2430 C   0  0  0  0  0  2  0  0  0  0  0  0
  -24.8050  -31.0800   22.1850 N   0  0  0  0  0  0  0  0  0  0  0  0
  -23.5800  -32.1880   23.7550 O   0  0  0  0  0  0  0  0  0  0  0  0
  -22.8590  -29.4790   22.5580 C   0  0  0  0  0  0  0  0  0  0  0  0
  -21.5410  -29.2770   22.3780 N   0  0  0  0  0  0  0  0  0  0  0  0
  -23.5090  -28.8800   23.4190 O   0  0  0  0  0  0  0  0  0  0  0  0
  -21.0700  -29.8140   21.6620 H   0  0  0  0  0  0  0  0  0  0  0  0
  -18.1680  -28.0140   22.7730 C   0  0  0  0  0  0  0  0  0  0  0  0
  -20.7090  -28.3340   23.1310 C   0  0  0  0  0  3  0  0  0  0  0  0
  -20.8630  -26.8980   22.5800 C   0  0  0  0  0  2  0  0  0  0  0  0
  -19.8070  -26.5380   21.5300 C   0  0  0  0  0  2  0  0  0  0  0  0
  -18.3980  -26.6620   22.1170 C   0  0  0  0  0  2  0  0  0  0  0  0
  -19.2530  -28.8070   23.2330 C   0  0  0  0  0  0  0  0  0  0  0  0
  -18.9850  -30.0710   23.8020 C   0  0  0  0  0  3  0  0  0  0  0  0
  -17.6640  -30.5460   23.9130 C   0  0  0  0  0  3  0  0  0  0  0  0
  -16.5930  -29.7500   23.4710 C   0  0  0  0  0  3  0  0  0  0  0  0
  -16.8450  -28.4860   22.9070 C   0  0  0  0  0  3  0  0  0  0  0  0
  -25.9370  -32.5680   23.9320 C   0  0  0  0  0  3  0  0  0  0  0  0
  -25.6060  -33.9730   24.2220 N   0  0  0  0  0  0  0  0  0  0  0  0
  -25.9510  -35.0130   23.4510 C   0  0  0  0  0  0  0  0  0  0  0  0
  -26.6480  -34.8910   22.4420 O   0  0  0  0  0  0  0  0  0  0  0  0
  -24.9920  -34.1440   25.0050 H   0  0  0  0  0  0  0  0  0  0  0  0
  -24.2250  -36.7970   23.0260 C   0  0  0  0  0  1  0  0  0  0  0  0
  -25.4510  -36.4110   23.8680 C   0  0  0  0  0  3  0  0  0  0  0  0
  -27.5570  -37.3380   24.7290 C   0  0  0  0  0  1  0  0  0  0  0  0
  -26.4810  -37.4660   23.7510 N   0  0  0  0  0  0  0  0  0  0  0  0
  -26.0680  -38.3870   23.8510 H   0  0  0  0  0  0  0  0  0  0  0  0
  -26.3970  -31.8290   25.2480 C   0  0  1  0  0  0  0  0  0  0  0  0
  -25.2510  -31.5970   26.2610 C   0  0  0  0  0  1  0  0  0  0  0  0
  -27.0160  -30.4500   24.9190 C   0  0  0  0  0  1  0  0  0  0  0  0
  -27.5030  -32.6510   25.9520 C   0  0  0  0  0  1  0  0  0  0  0  0
  -30.4300  -18.0970   19.6740 C   0  0  0  0  0  3  0  0  0  0  0  0
  -32.2040  -17.6360   17.8630 C   0  0  0  0  0  1  0  0  0  0  0  0
  -32.5930  -19.6490   19.2420 C   0  0  0  0  0  1  0  0  0  0  0  0
  -31.9400  -18.2580   19.2560 C   0  0  0  0  0  3  0  0  0  0  0  0
  -30.2230  -16.5570   20.3980 C   0  0  0  0  0  2  0  0  0  0  0  0
  -30.9210  -15.0880   19.9710 C   0  0  0  0  0  0  0  0  0  0  0  0
  -30.7000  -12.7780   18.9350 C   0  0  0  0  0  2  0  0  0  0  0  0
  -29.7230  -12.8380   17.7380 C   0  0  0  0  0  2  0  0  0  0  0  0
  -28.2730  -12.6360   18.2160 C   0  0  0  0  0  2  0  0  0  0  0  0
  -27.9360  -13.5010   19.4580 C   0  0  0  0  0  3  0  0  0  0  0  0
  -29.0360  -13.4330   20.5380 C   0  0  0  0  0  2  0  0  0  0  0  0
  -30.2960  -13.8380   19.9050 N   0  0  0  0  0  0  0  0  0  0  0  0
  -32.1050  -15.0890   19.6190 O   0  0  0  0  0  0  0  0  0  0  0  0
  -25.5830  -14.0810   20.2790 C   0  0  0  0  0  0  0  0  0  0  0  0
  -24.5310  -13.3060   20.6880 C   0  0  0  0  0  0  0  0  0  0  0  0
  -24.9940  -11.9560   20.6400 C   0  0  0  0  0  0  0  0  0  0  0  0
  -26.6160  -13.2010   19.9980 N   0  0  0  0  0  0  0  0  0  0  0  0
  -26.2740  -11.9170   20.2830 N   0  0  0  0  0  0  0  0  0  0  0  0
  -24.2680  -10.6950   20.8530 C   0  0  0  0  0  0  0  0  0  0  0  0
  -24.6550   -9.7810   21.8570 C   0  0  0  0  0  3  0  0  0  0  0  0
  -23.9310   -8.5840   22.0550 C   0  0  0  0  0  3  0  0  0  0  0  0
  -22.8040   -8.2970   21.2470 C   0  0  0  0  0  0  0  0  0  0  0  0
  -22.4400   -9.1970   20.2300 C   0  0  0  0  0  3  0  0  0  0  0  0
  -23.1660  -10.3840   20.0330 C   0  0  0  0  0  3  0  0  0  0  0  0
  -22.0560   -7.1490   21.3500 O   0  0  0  0  0  0  0  0  0  0  0  0
  -21.8430   -6.5320   22.5580 C   0  0  0  0  0  0  0  0  0  0  0  0
  -21.2170   -7.1970   23.6320 C   0  0  0  0  0  3  0  0  0  0  0  0
  -20.9600   -6.5080   24.8340 C   0  0  0  0  0  3  0  0  0  0  0  0
  -21.3170   -5.1500   24.9570 C   0  0  0  0  0  0  0  0  0  0  0  0
  -21.9360   -4.4840   23.8850 C   0  0  0  0  0  3  0  0  0  0  0  0
  -22.1980   -5.1740   22.6870 C   0  0  0  0  0  0  0  0  0  0  0  0
  -22.7760   -4.5220   21.6500 F   0  0  0  0  0  0  0  0  0  0  0  0
  -21.0640   -4.4850   26.1060 F   0  0  0  0  0  0  0  0  0  0  0  0
  -23.1470  -13.7880   21.0060 C   0  0  0  0  0  0  0  0  0  0  0  0
  -22.4500  -13.1020   21.9070 N   0  0  0  0  0  0  0  0  0  0  0  0
  -22.6890  -14.8060   20.4900 O   0  0  0  0  0  0  0  0  0  0  0  0
  -22.8270  -12.2750   22.3440 H   0  0  0  0  0  0  0  0  0  0  0  0
  -21.5270  -13.4160   22.1660 H   0  0  0  0  0  0  0  0  0  0  0  0
  -25.7350  -15.4510   20.0960 N   0  0  0  0  0  0  0  0  0  0  0  0
  -24.9480  -16.0840   20.1920 H   0  0  0  0  0  0  0  0  0  0  0  0
  -26.5500  -15.8860   19.6840 H   0  0  0  0  0  0  0  0  0  0  0  0
  2  1  1  0
  2  7  1  0
  3  4  1  0
  3  1  2  0
  5  2  2  0
  6  5  1  0
  6  3  1  0
  9  8  1  0
  9 10  1  0
  9  7  1  0
 11 22  2  0
 12 10  1  0
 12 17  1  0
 13 21  1  0
 13 23  1  0
 14 16  1  0
 15 21  1  0
 16 17  2  0
 16 15  1  0
 18 12  2  0
 19 18  1  0
 19 14  2  0
 20 14  1  0
 20 13  1  0
 21 11  1  0
 23 25  2  0
 24 23  1  0
 26 24  1  0
 27 36  2  0
 27 32  1  0
 28 24  1  0
 28 32  1  0
 29 28  1  0
 30 31  1  0
 30 29  1  0
 31 27  1  0
 32 33  2  0
 33 34  1  0
 35 34  2  0
 36 35  1  0
 37 11  1  0
 37 38  1  0
 37 47  1  0
 38 41  1  0
 39 43  1  0
 39 38  1  0
 40 39  2  0
 43 42  1  0
 45 46  1  0
 45 43  1  0
 45 44  1  0
 47 50  1  1
 47 48  1  0
 49 47  1  0
 51  6  1  0
 51 55  1  0
 52 54  1  0
 53 54  1  0
 54 51  1  0
 56 55  1  0
 57 62  1  0
 58 59  1  0
 58 57  1  0
 60 59  1  0
 60 67  1  0
 60 61  1  0
 62 56  1  0
 62 61  1  0
 63 56  2  0
 64 65  2  0
 65 84  1  0
 66 65  1  0
 66 69  1  0
 67 64  1  0
 67 68  1  0
 68 66  2  0
 69 70  1  0
 70 71  2  0
 72 75  1  0
 72 71  1  0
 73 72  2  0
 74 73  1  0
 74 69  2  0
 75 76  1  0
 76 81  2  0
 76 77  1  0
 77 78  2  0
 78 79  1  0
 79 83  1  0
 80 79  2  0
 81 80  1  0
 82 81  1  0
 84 85  1  0
 85 88  1  0
 85 87  1  0
 86 84  2  0
 89 90  1  0
 89 64  1  0
 91 89  1  0
M  ISO  4   9 101  10 101  55 100  56 100
M  END
>  <TORSDO>  (2) 
F 21

>  <SCORE>  (2) 
-14.023

>  <name>  (2) 
1

>  <ligand_id>  (2) 
1

>  <original_smiles>  (2) 
[H]c1c([H])c([H])c2c(c1[H])C([H])([H])C([H])([H])C([H])([H])C2([H])N([H])C(=O)C1([H])N(C(=O)C([H])(N([H])C(=O)C([H])(N([H])C([H])([H])[H])C([H])([H])[H])C(C([H])([H])[H])(C([H])([H])[H])C([H])([H])[H])C([H])([H])c2c([H])c(OC([H])(C([H])([H])[H])C([H])([H])c3nn(C([H])(C([H])([H])C(=O)N4C([H])([H])C([H])([H])C([H])([H])C([H])(n5nc(-c6c([H])c([H])c(Oc7c([H])c([H])c(F)c([H])c7F)c([H])c6[H])c(C(=O)N([H])[H])c5N([H])[H])C4([H])[H])C([H])(C([H])([H])[H])C([H])([H])[H])c(C([H])([H])[H])c3[H])c([H])c([H])c2C1([H])[H]

>  <smiles>  (2) 
[H]c1c([H])c([H])c2c(c1[H])C([H])([H])C([H])([H])C([H])([H])C2([H])N([H])C(=O)C1([H])N(C(=O)C([H])(N([H])C(=O)C([H])(N([H])C([H])([H])[H])C([H])([H])[H])C(C([H])([H])[H])(C([H])([H])[H])C([H])([H])[H])C([H])([H])c2c([H])c(OC([H])(C([H])([H])[H])C([H])([H])c3nn(C([H])(C([H])([H])C(=O)N4C([H])([H])C([H])([H])C([H])([H])C([H])(n5nc(-c6c([H])c([H])c(Oc7c([H])c([H])c(F)c([H])c7F)c([H])c6[H])c(C(=O)N([H])[H])c5N([H])[H])C4([H])[H])C([H])(C([H])([H])[H])C([H])([H])[H])c(C([H])([H])[H])c3[H])c([H])c([H])c2C1([H])[H]

$$$$
2:0:0
     RDKit          3D

 90 98  0  0  1  0  0  0  0  0999 V2000
  -31.4460  -18.3300   19.4820 C   0  0  0  0  0  3  0  0  0  0  0  0
  -31.7290  -19.6680   19.1460 C   0  0  0  0  0  0  0  0  0  0  0  0
  -30.2930  -18.0300   20.2170 C   0  0  0  0  0  0  0  0  0  0  0  0
  -29.8260  -20.4830   20.1850 C   0  0  0  0  0  0  0  0  0  0  0  0
  -32.9810  -20.0020   18.3650 C   0  0  0  0  0  1  0  0  0  0  0  0
  -30.9260  -20.7090   19.4760 N   0  0  0  0  0  0  0  0  0  0  0  0
  -29.5140  -19.1750   20.5580 N   0  0  0  0  0  0  0  0  0  0  0  0
  -28.3870  -16.4610   20.4650 C   0  0  0  0  0  1  0  0  0  0  0  0
  -30.1880  -16.4420   22.2070 C   0  0  0  0  0  1  0  0  0  0  0  0
  -29.9050  -16.4810   20.6910 C   0  0  2  0  0  0  0  0  0  0  0  0
  -30.5880  -15.0330   20.1030 C   0  0  0  0  0  0  0  0  0  0  0  0
  -30.3950  -12.7380   18.9850 C   0  0  0  0  0  2  0  0  0  0  0  0
  -29.3840  -12.7620   17.8110 C   0  0  0  0  0  2  0  0  0  0  0  0
  -27.9460  -12.5100   18.3100 C   0  0  0  0  0  2  0  0  0  0  0  0
  -27.6170  -13.3520   19.5650 C   0  0  0  0  0  3  0  0  0  0  0  0
  -28.7460  -13.2570   20.6230 C   0  0  0  0  0  2  0  0  0  0  0  0
  -29.9790  -13.7650   19.9920 N   0  0  0  0  0  0  0  0  0  0  0  0
  -31.7510  -15.0640   19.6810 O   0  0  0  0  0  0  0  0  0  0  0  0
  -25.2530  -13.9290   20.3930 C   0  0  0  0  0  0  0  0  0  0  0  0
  -24.2130  -13.1470   20.8090 C   0  0  0  0  0  0  0  0  0  0  0  0
  -24.6850  -11.8000   20.7480 C   0  0  0  0  0  0  0  0  0  0  0  0
  -26.2980  -13.0570   20.1140 N   0  0  0  0  0  0  0  0  0  0  0  0
  -25.9640  -11.7730   20.3890 N   0  0  0  0  0  0  0  0  0  0  0  0
  -23.9730  -10.5340   20.9510 C   0  0  0  0  0  0  0  0  0  0  0  0
  -24.4280   -9.5740   21.8800 C   0  0  0  0  0  3  0  0  0  0  0  0
  -23.7150   -8.3720   22.0690 C   0  0  0  0  0  3  0  0  0  0  0  0
  -22.5330   -8.1240   21.3320 C   0  0  0  0  0  0  0  0  0  0  0  0
  -22.0980   -9.0750   20.3930 C   0  0  0  0  0  3  0  0  0  0  0  0
  -22.8120  -10.2690   20.2000 C   0  0  0  0  0  3  0  0  0  0  0  0
  -21.7890   -6.9740   21.4340 O   0  0  0  0  0  0  0  0  0  0  0  0
  -21.7390   -6.2520   22.5990 C   0  0  0  0  0  0  0  0  0  0  0  0
  -21.2780   -6.8140   23.8100 C   0  0  0  0  0  3  0  0  0  0  0  0
  -21.1800   -6.0140   24.9660 C   0  0  0  0  0  3  0  0  0  0  0  0
  -21.5350   -4.6530   24.9110 C   0  0  0  0  0  0  0  0  0  0  0  0
  -21.9880   -4.0890   23.7060 C   0  0  0  0  0  3  0  0  0  0  0  0
  -22.0880   -4.8870   22.5530 C   0  0  0  0  0  0  0  0  0  0  0  0
  -22.5050   -4.3350   21.3880 F   0  0  0  0  0  0  0  0  0  0  0  0
  -21.4360   -3.8810   26.0200 F   0  0  0  0  0  0  0  0  0  0  0  0
  -22.8250  -13.6160   21.1400 C   0  0  0  0  0  0  0  0  0  0  0  0
  -22.1380  -12.9140   22.0320 N   0  0  0  0  0  0  0  0  0  0  0  0
  -22.3620  -14.6420   20.6440 O   0  0  0  0  0  0  0  0  0  0  0  0
  -22.5260  -12.0860   22.4590 H   0  0  0  0  0  0  0  0  0  0  0  0
  -21.2080  -13.2100   22.2950 H   0  0  0  0  0  0  0  0  0  0  0  0
  -25.3720  -15.3000   20.2020 N   0  0  0  0  0  0  0  0  0  0  0  0
  -24.5900  -15.9270   20.3520 H   0  0  0  0  0  0  0  0  0  0  0  0
  -26.1900  -15.7690   19.8360 H   0  0  0  0  0  0  0  0  0  0  0  0
  -28.8090  -21.7710   20.3360 C   0  0  0  0  0  2  0  0  0  0  0  0
  -29.2080  -23.4100   20.4170 C   0  0  0  0  0  3  0  0  0  0  0  0
  -28.1030  -24.6760   20.2520 C   0  0  0  0  0  3  0  0  0  0  0  0
  -28.3370  -26.2120   20.3480 O   0  0  0  0  0  0  0  0  0  0  0  0
  -24.6370  -31.8850   23.2590 C   0  0  0  0  0  0  0  0  0  0  0  0
  -27.2550  -27.1670   20.2770 C   0  0  0  0  0  0  0  0  0  0  0  0
  -23.4460  -30.4740   21.6270 C   0  0  0  0  0  3  0  0  0  0  0  0
  -24.9050  -28.8890   20.2230 C   0  0  0  0  0  0  0  0  0  0  0  0
  -25.9980  -30.7490   21.4660 C   0  0  0  0  0  2  0  0  0  0  0  0
  -26.0810  -29.3520   20.8260 C   0  0  0  0  0  0  0  0  0  0  0  0
  -27.2550  -28.5090   20.8300 C   0  0  0  0  0  3  0  0  0  0  0  0
  -26.0460  -26.7990   19.6400 C   0  0  0  0  0  3  0  0  0  0  0  0
  -24.9000  -27.6250   19.6130 C   0  0  0  0  0  3  0  0  0  0  0  0
  -23.6720  -29.7800   20.2560 C   0  0  0  0  0  2  0  0  0  0  0  0
  -24.7140  -31.0580   22.1720 N   0  0  0  0  0  0  0  0  0  0  0  0
  -23.5490  -32.1720   23.7810 O   0  0  0  0  0  0  0  0  0  0  0  0
  -22.7640  -29.4760   22.5970 C   0  0  0  0  0  0  0  0  0  0  0  0
  -21.4410  -29.2870   22.4520 N   0  0  0  0  0  0  0  0  0  0  0  0
  -23.4300  -28.8720   23.4420 O   0  0  0  0  0  0  0  0  0  0  0  0
  -20.9590  -29.8230   21.7450 H   0  0  0  0  0  0  0  0  0  0  0  0
  -18.0690  -28.0390   22.9080 C   0  0  0  0  0  0  0  0  0  0  0  0
  -20.6180  -28.3530   23.2250 C   0  0  0  0  0  3  0  0  0  0  0  0
  -20.7560  -26.9100   22.6880 C   0  0  0  0  0  2  0  0  0  0  0  0
  -19.6830  -26.5440   21.6570 C   0  0  0  0  0  2  0  0  0  0  0  0
  -18.2840  -26.6790   22.2670 C   0  0  0  0  0  2  0  0  0  0  0  0
  -19.1650  -28.8320   23.3440 C   0  0  0  0  0  0  0  0  0  0  0  0
  -18.9100  -30.1020   23.9040 C   0  0  0  0  0  3  0  0  0  0  0  0
  -17.5920  -30.5810   24.0330 C   0  0  0  0  0  3  0  0  0  0  0  0
  -16.5110  -29.7860   23.6120 C   0  0  0  0  0  3  0  0  0  0  0  0
  -16.7500  -28.5170   23.0560 C   0  0  0  0  0  3  0  0  0  0  0  0
  -25.9140  -32.5270   23.8850 C   0  0  0  0  0  3  0  0  0  0  0  0
  -26.4220  -31.7680   25.1720 C   0  0  1  0  0  0  0  0  0  0  0  0
  -25.3200  -31.5390   26.2350 C   0  0  0  0  0  1  0  0  0  0  0  0
  -27.0090  -30.3870   24.8020 C   0  0  0  0  0  1  0  0  0  0  0  0
  -27.5650  -32.5720   25.8360 C   0  0  0  0  0  1  0  0  0  0  0  0
  -25.5980  -33.9280   24.2080 N   0  0  0  0  0  0  0  0  0  0  0  0
  -25.9200  -34.9810   23.4450 C   0  0  0  0  0  0  0  0  0  0  0  0
  -26.5810  -34.8760   22.4080 O   0  0  0  0  0  0  0  0  0  0  0  0
  -25.0090  -34.0830   25.0150 H   0  0  0  0  0  0  0  0  0  0  0  0
  -24.1820  -36.7690   23.1080 C   0  0  0  0  0  1  0  0  0  0  0  0
  -25.4350  -36.3700   23.9030 C   0  0  0  0  0  3  0  0  0  0  0  0
  -27.5730  -37.2720   24.7070 C   0  0  0  0  0  1  0  0  0  0  0  0
  -26.4610  -37.4270   23.7710 N   0  0  0  0  0  0  0  0  0  0  0  0
  -26.0530  -38.3470   23.9140 H   0  0  0  0  0  0  0  0  0  0  0  0
  1  3  1  0
  2  6  1  0
  2  1  2  0
  3  7  2  0
  3 10  1  0
  4 47  1  0
  4  7  1  0
  5  2  1  0
  6  4  2  0
 10  8  1  1
 10  9  1  0
 11 10  1  0
 12 17  1  0
 13 14  1  0
 13 12  1  0
 15 14  1  0
 15 22  1  0
 15 16  1  0
 17 11  1  0
 17 16  1  0
 18 11  2  0
 19 20  2  0
 20 39  1  0
 21 20  1  0
 21 24  1  0
 22 23  1  0
 22 19  1  0
 23 21  2  0
 24 25  1  0
 25 26  2  0
 27 30  1  0
 27 26  1  0
 28 27  2  0
 29 28  1  0
 29 24  2  0
 30 31  1  0
 31 32  1  0
 32 33  2  0
 34 33  1  0
 34 38  1  0
 35 34  2  0
 36 31  2  0
 36 35  1  0
 37 36  1  0
 39 40  1  0
 40 43  1  0
 40 42  1  0
 41 39  2  0
 44 45  1  0
 44 19  1  0
 46 44  1  0
 47 48  1  0
 49 50  1  0
 49 48  2  0
 51 62  2  0
 52 50  1  0
 52 57  1  0
 53 61  1  0
 53 63  1  0
 54 60  1  0
 54 56  1  0
 55 61  1  0
 56 57  2  0
 56 55  1  0
 58 52  2  0
 59 58  1  0
 59 54  2  0
 60 53  1  0
 61 51  1  0
 63 65  2  0
 64 63  1  0
 66 64  1  0
 67 76  2  0
 67 72  1  0
 68 64  1  0
 68 72  1  0
 69 68  1  0
 70 71  1  0
 70 69  1  0
 71 67  1  0
 72 73  2  0
 73 74  1  0
 75 74  2  0
 76 75  1  0
 77 51  1  0
 77 82  1  0
 77 78  1  0
 78 81  1  1
 78 79  1  0
 80 78  1  0
 82 85  1  0
 83 87  1  0
 83 82  1  0
 84 83  2  0
 87 86  1  0
 89 87  1  0
 89 90  1  0
 89 88  1  0
M  ISO  4  10 100  11 100  49 101  50 101
M  END
>  <TORSDO>  (3) 
F 20

>  <SCORE>  (3) 
-14.119

>  <name>  (3) 
2

>  <ligand_id>  (3) 
2

>  <original_smiles>  (3) 
[H]c1c(C([H])([H])[H])nc(C([H])([H])C([H])([H])C([H])([H])Oc2c([H])c([H])c3c(c2[H])C([H])([H])N(C(=O)C([H])(N([H])C(=O)C([H])(N([H])C([H])([H])[H])C([H])([H])[H])C(C([H])([H])[H])(C([H])([H])[H])C([H])([H])[H])C([H])(C(=O)N([H])C2([H])c4c([H])c([H])c([H])c([H])c4C([H])([H])C([H])([H])C2([H])[H])C3([H])[H])nc1C(C(=O)N1C([H])([H])C([H])([H])C([H])([H])C([H])(n2nc(-c3c([H])c([H])c(Oc4c([H])c([H])c(F)c([H])c4F)c([H])c3[H])c(C(=O)N([H])[H])c2N([H])[H])C1([H])[H])(C([H])([H])[H])C([H])([H])[H]

>  <smiles>  (3) 
[H]c1c(C([H])([H])[H])nc(C([H])([H])C([H])([H])C([H])([H])Oc2c([H])c([H])c3c(c2[H])C([H])([H])N(C(=O)C([H])(N([H])C(=O)C([H])(N([H])C([H])([H])[H])C([H])([H])[H])C(C([H])([H])[H])(C([H])([H])[H])C([H])([H])[H])C([H])(C(=O)N([H])C2([H])c4c([H])c([H])c([H])c([H])c4C([H])([H])C([H])([H])C2([H])[H])C3([H])[H])nc1C(C(=O)N1C([H])([H])C([H])([H])C([H])([H])C([H])(n2nc(-c3c([H])c([H])c(Oc4c([H])c([H])c(F)c([H])c4F)c([H])c3[H])c(C(=O)N([H])[H])c2N([H])[H])C1([H])[H])(C([H])([H])[H])C([H])([H])[H]

$$$$
3:0:0
     RDKit          3D

 93100  0  0  1  0  0  0  0  0999 V2000
  -29.0740  -22.0690   22.3050 C   0  0  0  0  0  1  0  0  0  0  0  0
  -31.2860  -21.8790   21.0800 C   0  0  0  0  0  1  0  0  0  0  0  0
  -29.7520  -22.0970   20.9150 C   0  0  2  0  0  0  0  0  0  0  0  0
  -30.2720  -24.7190   21.4680 C   0  0  0  0  0  1  0  0  0  0  0  0
  -30.2730  -23.9750   19.0640 C   0  0  0  0  0  1  0  0  0  0  0  0
  -29.5610  -23.7790   20.4200 C   0  0  1  0  0  0  0  0  0  0  0  0
  -28.1990  -24.7570   20.3130 C   0  0  0  0  0  2  0  0  0  0  0  0
  -28.3420  -26.3080   20.2660 O   0  0  0  0  0  0  0  0  0  0  0  0
  -24.6410  -31.9130   23.2400 C   0  0  0  0  0  0  0  0  0  0  0  0
  -27.2450  -27.2310   20.2230 C   0  0  0  0  0  0  0  0  0  0  0  0
  -23.4450  -30.5100   21.6020 C   0  0  0  0  0  3  0  0  0  0  0  0
  -24.8990  -28.9340   20.1830 C   0  0  0  0  0  0  0  0  0  0  0  0
  -25.9940  -30.7970   21.4300 C   0  0  0  0  0  2  0  0  0  0  0  0
  -26.0740  -29.4020   20.7850 C   0  0  0  0  0  0  0  0  0  0  0  0
  -27.2470  -28.5670   20.7820 C   0  0  0  0  0  3  0  0  0  0  0  0
  -26.0410  -26.8480   19.5960 C   0  0  0  0  0  3  0  0  0  0  0  0
  -24.8930  -27.6690   19.5750 C   0  0  0  0  0  3  0  0  0  0  0  0
  -23.6700  -29.8260   20.2270 C   0  0  0  0  0  2  0  0  0  0  0  0
  -24.7130  -31.0950   22.1470 N   0  0  0  0  0  0  0  0  0  0  0  0
  -23.5540  -32.1930   23.7690 O   0  0  0  0  0  0  0  0  0  0  0  0
  -22.7690  -29.5030   22.5670 C   0  0  0  0  0  0  0  0  0  0  0  0
  -21.4470  -29.3090   22.4220 N   0  0  0  0  0  0  0  0  0  0  0  0
  -23.4380  -28.8970   23.4050 O   0  0  0  0  0  0  0  0  0  0  0  0
  -20.9620  -29.8480   21.7190 H   0  0  0  0  0  0  0  0  0  0  0  0
  -18.0830  -28.0480   22.8780 C   0  0  0  0  0  0  0  0  0  0  0  0
  -20.6290  -28.3680   23.1930 C   0  0  0  0  0  3  0  0  0  0  0  0
  -20.7730  -26.9300   22.6440 C   0  0  0  0  0  2  0  0  0  0  0  0
  -19.6980  -26.5670   21.6140 C   0  0  0  0  0  2  0  0  0  0  0  0
  -18.3010  -26.6920   22.2270 C   0  0  0  0  0  2  0  0  0  0  0  0
  -19.1760  -28.8410   23.3180 C   0  0  0  0  0  0  0  0  0  0  0  0
  -18.9180  -30.1060   23.8890 C   0  0  0  0  0  3  0  0  0  0  0  0
  -17.6000  -30.5810   24.0210 C   0  0  0  0  0  3  0  0  0  0  0  0
  -16.5210  -29.7870   23.5980 C   0  0  0  0  0  3  0  0  0  0  0  0
  -16.7620  -28.5210   23.0320 C   0  0  0  0  0  3  0  0  0  0  0  0
  -25.9170  -32.5550   23.8660 C   0  0  0  0  0  3  0  0  0  0  0  0
  -25.6050  -33.9560   24.1860 N   0  0  0  0  0  0  0  0  0  0  0  0
  -25.9470  -35.0080   23.4290 C   0  0  0  0  0  0  0  0  0  0  0  0
  -26.6270  -34.8970   22.4040 O   0  0  0  0  0  0  0  0  0  0  0  0
  -25.0030  -34.1130   24.9800 H   0  0  0  0  0  0  0  0  0  0  0  0
  -24.2330  -36.8090   23.0520 C   0  0  0  0  0  1  0  0  0  0  0  0
  -25.4620  -36.4000   23.8780 C   0  0  0  0  0  3  0  0  0  0  0  0
  -27.5900  -37.2780   24.7310 C   0  0  0  0  0  1  0  0  0  0  0  0
  -26.5010  -37.4480   23.7740 N   0  0  0  0  0  0  0  0  0  0  0  0
  -26.0990  -38.3710   23.9110 H   0  0  0  0  0  0  0  0  0  0  0  0
  -26.4210  -31.7940   25.1540 C   0  0  1  0  0  0  0  0  0  0  0  0
  -25.3180  -31.5670   26.2150 C   0  0  0  0  0  1  0  0  0  0  0  0
  -27.0090  -30.4130   24.7840 C   0  0  0  0  0  1  0  0  0  0  0  0
  -27.5670  -32.5930   25.8190 C   0  0  0  0  0  1  0  0  0  0  0  0
  -29.3820  -20.5650   20.1840 C   0  0  0  0  0  3  0  0  0  0  0  0
  -31.6240  -19.0150   19.8840 C   0  0  0  0  0  1  0  0  0  0  0  0
  -30.2490  -18.7470   21.9610 C   0  0  0  0  0  1  0  0  0  0  0  0
  -30.1780  -19.0310   20.4470 C   0  0  1  0  0  0  0  0  0  0  0  0
  -29.6130  -17.5930   19.7890 C   0  0  0  0  0  2  0  0  0  0  0  0
  -30.6190  -15.0070   19.9850 C   0  0  0  0  0  0  0  0  0  0  0  0
  -30.4750  -12.6770   19.0240 C   0  0  0  0  0  2  0  0  0  0  0  0
  -29.4920  -12.6910   17.8310 C   0  0  0  0  0  2  0  0  0  0  0  0
  -28.0410  -12.4920   18.3100 C   0  0  0  0  0  2  0  0  0  0  0  0
  -27.6920  -13.3740   19.5400 C   0  0  0  0  0  3  0  0  0  0  0  0
  -28.7940  -13.3270   20.6230 C   0  0  0  0  0  2  0  0  0  0  0  0
  -30.0530  -13.7370   19.9840 N   0  0  0  0  0  0  0  0  0  0  0  0
  -31.7600  -15.1300   19.5220 O   0  0  0  0  0  0  0  0  0  0  0  0
  -29.8340  -16.1290   20.3340 N   0  0  0  0  0  0  0  0  0  0  0  0
  -29.0270  -15.8300   20.8610 H   0  0  0  0  0  0  0  0  0  0  0  0
  -25.3330  -13.9320   20.3710 C   0  0  0  0  0  0  0  0  0  0  0  0
  -24.2880  -13.1480   20.7760 C   0  0  0  0  0  0  0  0  0  0  0  0
  -24.7560  -11.8010   20.7140 C   0  0  0  0  0  0  0  0  0  0  0  0
  -26.3720  -13.0630   20.0800 N   0  0  0  0  0  0  0  0  0  0  0  0
  -26.0330  -11.7730   20.3450 N   0  0  0  0  0  0  0  0  0  0  0  0
  -24.0410  -10.5350   20.9200 C   0  0  0  0  0  0  0  0  0  0  0  0
  -24.4910   -9.5770   21.8520 C   0  0  0  0  0  3  0  0  0  0  0  0
  -23.7760   -8.3750   22.0470 C   0  0  0  0  0  3  0  0  0  0  0  0
  -22.5960   -8.1220   21.3090 C   0  0  0  0  0  0  0  0  0  0  0  0
  -22.1640   -9.0710   20.3660 C   0  0  0  0  0  3  0  0  0  0  0  0
  -22.8790  -10.2630   20.1700 C   0  0  0  0  0  3  0  0  0  0  0  0
  -21.8500   -6.9730   21.4150 O   0  0  0  0  0  0  0  0  0  0  0  0
  -21.7840   -6.2620   22.5860 C   0  0  0  0  0  0  0  0  0  0  0  0
  -21.3180   -6.8420   23.7860 C   0  0  0  0  0  3  0  0  0  0  0  0
  -21.2020   -6.0560   24.9500 C   0  0  0  0  0  3  0  0  0  0  0  0
  -21.5390   -4.6890   24.9130 C   0  0  0  0  0  0  0  0  0  0  0  0
  -21.9950   -4.1070   23.7180 C   0  0  0  0  0  3  0  0  0  0  0  0
  -22.1140   -4.8920   22.5570 C   0  0  0  0  0  0  0  0  0  0  0  0
  -22.5340   -4.3220   21.4020 F   0  0  0  0  0  0  0  0  0  0  0  0
  -21.4200   -3.9310   26.0290 F   0  0  0  0  0  0  0  0  0  0  0  0
  -22.9020  -13.6160   21.1120 C   0  0  0  0  0  0  0  0  0  0  0  0
  -22.2130  -12.9170   22.0090 N   0  0  0  0  0  0  0  0  0  0  0  0
  -22.4390  -14.6420   20.6150 O   0  0  0  0  0  0  0  0  0  0  0  0
  -22.6010  -12.0910   22.4410 H   0  0  0  0  0  0  0  0  0  0  0  0
  -21.2830  -13.2170   22.2650 H   0  0  0  0  0  0  0  0  0  0  0  0
  -25.4820  -15.3060   20.2050 N   0  0  0  0  0  0  0  0  0  0  0  0
  -24.7080  -15.9460   20.3430 H   0  0  0  0  0  0  0  0  0  0  0  0
  -26.3030  -15.7600   19.8280 H   0  0  0  0  0  0  0  0  0  0  0  0
  -27.7060  -21.1750   18.3470 C   0  0  0  0  0  1  0  0  0  0  0  0
  -29.1440  -20.7390   18.6700 C   0  0  0  0  0  2  0  0  0  0  0  0
  3  2  1  1
  3  1  1  0
  6  5  1  6
  6  3  1  0
  6  4  1  0
  7  6  1  0
  8  7  1  0
  9 20  2  0
 10  8  1  0
 10 15  1  0
 11 19  1  0
 11 21  1  0
 12 18  1  0
 12 14  1  0
 13 19  1  0
 14 13  1  0
 15 14  2  0
 16 10  2  0
 17 16  1  0
 17 12  2  0
 18 11  1  0
 19  9  1  0
 21 23  2  0
 22 21  1  0
 24 22  1  0
 25 34  2  0
 25 30  1  0
 26 22  1  0
 26 30  1  0
 27 26  1  0
 28 29  1  0
 28 27  1  0
 29 25  1  0
 30 31  2  0
 31 32  1  0
 33 32  2  0
 34 33  1  0
 35  9  1  0
 35 36  1  0
 35 45  1  0
 36 39  1  0
 37 41  1  0
 37 36  1  0
 38 37  2  0
 41 40  1  0
 43 41  1  0
 43 44  1  0
 43 42  1  0
 45 48  1  1
 45 46  1  0
 47 45  1  0
 49 93  1  0
 49 52  1  0
 49  3  1  0
 52 50  1  6
 52 51  1  0
 53 62  1  0
 53 52  1  0
 54 62  1  0
 55 60  1  0
 56 57  1  0
 56 55  1  0
 58 57  1  0
 58 67  1  0
 58 59  1  0
 60 54  1  0
 60 59  1  0
 61 54  2  0
 62 63  1  0
 64 65  2  0
 65 84  1  0
 66 65  1  0
 66 69  1  0
 67 68  1  0
 67 64  1  0
 68 66  2  0
 69 70  1  0
 70 71  2  0
 72 75  1  0
 72 71  1  0
 73 72  2  0
 74 73  1  0
 74 69  2  0
 75 76  1  0
 76 77  1  0
 77 78  2  0
 79 78  1  0
 79 83  1  0
 80 79  2  0
 81 76  2  0
 81 80  1  0
 82 81  1  0
 84 85  1  0
 85 88  1  0
 85 87  1  0
 86 84  2  0
 89 90  1  0
 89 64  1  0
 91 89  1  0
 92 93  1  0
M  ISO  4   7 101   8 101  54 100  62 100
M  END
>  <TORSDO>  (4) 
F 22

>  <SCORE>  (4) 
-14.419

>  <name>  (4) 
3

>  <ligand_id>  (4) 
3

>  <original_smiles>  (4) 
[H]c1c([H])c([H])c2c(c1[H])C([H])([H])C([H])([H])C([H])([H])C2([H])N([H])C(=O)C1([H])N(C(=O)C([H])(N([H])C(=O)C([H])(N([H])C([H])([H])[H])C([H])([H])[H])C(C([H])([H])[H])(C([H])([H])[H])C([H])([H])[H])C([H])([H])c2c([H])c(OC([H])([H])C(C([H])([H])[H])(C([H])([H])[H])C(C([H])([H])[H])(C([H])([H])[H])C([H])(C([H])([H])C([H])([H])[H])C(C([H])([H])[H])(C([H])([H])[H])C([H])([H])N([H])C(=O)N3C([H])([H])C([H])([H])C([H])([H])C([H])(n4nc(-c5c([H])c([H])c(Oc6c([H])c([H])c(F)c([H])c6F)c([H])c5[H])c(C(=O)N([H])[H])c4N([H])[H])C3([H])[H])c([H])c([H])c2C1([H])[H]

>  <smiles>  (4) 
[H]c1c([H])c([H])c2c(c1[H])C([H])([H])C([H])([H])C([H])([H])C2([H])N([H])C(=O)C1([H])N(C(=O)C([H])(N([H])C(=O)C([H])(N([H])C([H])([H])[H])C([H])([H])[H])C(C([H])([H])[H])(C([H])([H])[H])C([H])([H])[H])C([H])([H])c2c([H])c(OC([H])([H])C(C([H])([H])[H])(C([H])([H])[H])C(C([H])([H])[H])(C([H])([H])[H])C([H])(C([H])([H])C([H])([H])[H])C(C([H])([H])[H])(C([H])([H])[H])C([H])([H])N([H])C(=O)N3C([H])([H])C([H])([H])C([H])([H])C([H])(n4nc(-c5c([H])c([H])c(Oc6c([H])c([H])c(F)c([H])c6F)c([H])c5[H])c(C(=O)N([H])[H])c4N([H])[H])C3([H])[H])c([H])c([H])c2C1([H])[H]

$$$$
4:0:0
     RDKit          3D

 92100  0  0  1  0  0  0  0  0999 V2000
  -29.2050  -21.4940   20.6740 C   0  0  0  0  0  0  0  0  0  0  0  0
  -28.8800  -20.2110   20.2630 C   0  0  0  0  0  0  0  0  0  0  0  0
  -30.5310  -20.1180   21.6910 C   0  0  0  0  0  0  0  0  0  0  0  0
  -27.7760  -19.7790   19.3460 C   0  0  0  0  0  1  0  0  0  0  0  0
  -31.5670  -19.5970   22.6330 C   0  0  0  0  0  1  0  0  0  0  0  0
  -30.2800  -21.4180   21.5510 N   0  0  0  0  0  0  0  0  0  0  0  0
  -29.6880  -19.3230   20.9970 N   0  0  0  0  0  0  0  0  0  0  0  0
  -28.3830  -22.7650   20.5450 C   0  0  0  0  0  2  0  0  0  0  0  0
  -29.1030  -24.1180   20.2530 C   0  0  0  0  0  2  0  0  0  0  0  0
  -28.1800  -25.3010   20.6610 C   0  0  0  0  0  2  0  0  0  0  0  0
  -28.4850  -26.6210   20.1470 O   0  0  0  0  0  0  0  0  0  0  0  0
  -24.6880  -31.7850   23.3010 C   0  0  0  0  0  0  0  0  0  0  0  0
  -27.3720  -27.4420   20.1010 C   0  0  0  0  0  0  0  0  0  0  0  0
  -23.5130  -30.4580   21.5790 C   0  0  0  0  0  3  0  0  0  0  0  0
  -24.9960  -28.9870   20.1130 C   0  0  0  0  0  0  0  0  0  0  0  0
  -26.0500  -30.8050   21.4600 C   0  0  0  0  0  2  0  0  0  0  0  0
  -26.1440  -29.4650   20.7580 C   0  0  0  0  0  0  0  0  0  0  0  0
  -27.3380  -28.6980   20.7540 C   0  0  0  0  0  3  0  0  0  0  0  0
  -26.2150  -27.0100   19.4130 C   0  0  0  0  0  3  0  0  0  0  0  0
  -25.0280  -27.7590   19.4340 C   0  0  0  0  0  3  0  0  0  0  0  0
  -23.7530  -29.8460   20.1740 C   0  0  0  0  0  2  0  0  0  0  0  0
  -24.7660  -31.0260   22.1720 N   0  0  0  0  0  0  0  0  0  0  0  0
  -23.5950  -32.0410   23.8250 O   0  0  0  0  0  0  0  0  0  0  0  0
  -22.8400  -29.3970   22.4770 C   0  0  0  0  0  0  0  0  0  0  0  0
  -21.5200  -29.2150   22.3030 N   0  0  0  0  0  0  0  0  0  0  0  0
  -23.5010  -28.7430   23.2870 O   0  0  0  0  0  0  0  0  0  0  0  0
  -21.0470  -29.7950   21.6250 H   0  0  0  0  0  0  0  0  0  0  0  0
  -18.1380  -27.9900   22.6510 C   0  0  0  0  0  0  0  0  0  0  0  0
  -20.6850  -28.2480   23.0150 C   0  0  0  0  0  3  0  0  0  0  0  0
  -20.8130  -26.8370   22.3950 C   0  0  0  0  0  2  0  0  0  0  0  0
  -19.7470  -26.5450   21.3350 C   0  0  0  0  0  2  0  0  0  0  0  0
  -18.3430  -26.6640   21.9380 C   0  0  0  0  0  2  0  0  0  0  0  0
  -19.2380  -28.7410   23.1430 C   0  0  0  0  0  0  0  0  0  0  0  0
  -18.9960  -29.9830   23.7680 C   0  0  0  0  0  3  0  0  0  0  0  0
  -17.6860  -30.4770   23.9060 C   0  0  0  0  0  3  0  0  0  0  0  0
  -16.5990  -29.7220   23.4330 C   0  0  0  0  0  3  0  0  0  0  0  0
  -16.8240  -28.4810   22.8110 C   0  0  0  0  0  3  0  0  0  0  0  0
  -25.9620  -32.3840   23.9700 C   0  0  0  0  0  3  0  0  0  0  0  0
  -25.6460  -33.7660   24.3590 N   0  0  0  0  0  0  0  0  0  0  0  0
  -26.0240  -34.8550   23.6750 C   0  0  0  0  0  0  0  0  0  0  0  0
  -26.7480  -34.8010   22.6760 O   0  0  0  0  0  0  0  0  0  0  0  0
  -25.0120  -33.8830   25.1370 H   0  0  0  0  0  0  0  0  0  0  0  0
  -24.3560  -36.6970   23.3020 C   0  0  0  0  0  1  0  0  0  0  0  0
  -25.5230  -36.2200   24.1800 C   0  0  0  0  0  3  0  0  0  0  0  0
  -27.5970  -37.0090   25.2300 C   0  0  0  0  0  1  0  0  0  0  0  0
  -26.5760  -37.2580   24.2170 N   0  0  0  0  0  0  0  0  0  0  0  0
  -26.1720  -38.1740   24.3910 H   0  0  0  0  0  0  0  0  0  0  0  0
  -26.4620  -31.5530   25.2160 C   0  0  1  0  0  0  0  0  0  0  0  0
  -25.3500  -31.2530   26.2460 C   0  0  0  0  0  1  0  0  0  0  0  0
  -27.0650  -30.2010   24.7660 C   0  0  0  0  0  1  0  0  0  0  0  0
  -27.5920  -32.3200   25.9410 C   0  0  0  0  0  1  0  0  0  0  0  0
  -29.5520  -17.8600   21.1570 C   0  0  0  0  0  2  0  0  0  0  0  0
  -30.2940  -16.9240   20.1510 C   0  0  0  0  0  2  0  0  0  0  0  0
  -30.2210  -15.1740   22.0560 C   0  0  0  0  0  1  0  0  0  0  0  0
  -32.3890  -15.9470   21.1850 C   0  0  0  0  0  1  0  0  0  0  0  0
  -30.9350  -15.6090   20.7490 C   0  0  2  0  0  0  0  0  0  0  0  0
  -31.0680  -14.4990   19.6250 C   0  0  0  0  0  0  0  0  0  0  0  0
  -30.5320  -12.4280   18.3570 C   0  0  0  0  0  2  0  0  0  0  0  0
  -29.4570  -12.6940   17.2810 C   0  0  0  0  0  2  0  0  0  0  0  0
  -28.0360  -12.5650   17.8680 C   0  0  0  0  0  2  0  0  0  0  0  0
  -27.8800  -13.3450   19.2000 C   0  0  0  0  0  3  0  0  0  0  0  0
  -29.0430  -12.9820   20.1420 C   0  0  0  0  0  2  0  0  0  0  0  0
  -30.3110  -13.3600   19.4900 N   0  0  0  0  0  0  0  0  0  0  0  0
  -31.9750  -14.7100   18.8110 O   0  0  0  0  0  0  0  0  0  0  0  0
  -25.6090  -13.9980   20.2300 C   0  0  0  0  0  0  0  0  0  0  0  0
  -24.5670  -13.2460   20.6990 C   0  0  0  0  0  0  0  0  0  0  0  0
  -24.9660  -11.8830   20.5480 C   0  0  0  0  0  0  0  0  0  0  0  0
  -26.5820  -13.0970   19.8270 N   0  0  0  0  0  0  0  0  0  0  0  0
  -26.2000  -11.8170   20.0670 N   0  0  0  0  0  0  0  0  0  0  0  0
  -24.2200  -10.6390   20.7780 C   0  0  0  0  0  0  0  0  0  0  0  0
  -24.6480   -9.6860   21.7290 C   0  0  0  0  0  3  0  0  0  0  0  0
  -23.9040   -8.5060   21.9430 C   0  0  0  0  0  3  0  0  0  0  0  0
  -22.7220   -8.2670   21.2040 C   0  0  0  0  0  0  0  0  0  0  0  0
  -22.3120   -9.2080   20.2440 C   0  0  0  0  0  3  0  0  0  0  0  0
  -23.0550  -10.3810   20.0300 C   0  0  0  0  0  3  0  0  0  0  0  0
  -21.9530   -7.1350   21.3210 O   0  0  0  0  0  0  0  0  0  0  0  0
  -21.8190   -6.4770   22.5160 C   0  0  0  0  0  0  0  0  0  0  0  0
  -21.3080   -7.1170   23.6660 C   0  0  0  0  0  3  0  0  0  0  0  0
  -21.1230   -6.3850   24.8550 C   0  0  0  0  0  3  0  0  0  0  0  0
  -21.4420   -5.0140   24.8950 C   0  0  0  0  0  0  0  0  0  0  0  0
  -21.9500   -4.3740   23.7510 C   0  0  0  0  0  3  0  0  0  0  0  0
  -22.1340   -5.1040   22.5630 C   0  0  0  0  0  0  0  0  0  0  0  0
  -22.6020   -4.4780   21.4560 F   0  0  0  0  0  0  0  0  0  0  0  0
  -21.2580   -4.3100   26.0370 F   0  0  0  0  0  0  0  0  0  0  0  0
  -23.2340  -13.7560   21.1700 C   0  0  0  0  0  0  0  0  0  0  0  0
  -22.6170  -13.0700   22.1260 N   0  0  0  0  0  0  0  0  0  0  0  0
  -22.7540  -14.7980   20.7260 O   0  0  0  0  0  0  0  0  0  0  0  0
  -23.0180  -12.2240   22.5050 H   0  0  0  0  0  0  0  0  0  0  0  0
  -21.7290  -13.3950   22.4820 H   0  0  0  0  0  0  0  0  0  0  0  0
  -25.8040  -15.3700   20.0970 N   0  0  0  0  0  0  0  0  0  0  0  0
  -25.0920  -16.0460   20.3490 H   0  0  0  0  0  0  0  0  0  0  0  0
  -26.6310  -15.7940   19.6930 H   0  0  0  0  0  0  0  0  0  0  0  0
  1  6  1  0
  2  1  2  0
  2  7  1  0
  3  5  1  0
  4  2  1  0
  6  3  2  0
  7 52  1  0
  7  3  1  0
  8  1  1  0
  9  8  1  0
  9 10  1  0
 11 10  1  0
 12 23  2  0
 13 11  1  0
 13 18  1  0
 14 22  1  0
 14 24  1  0
 15 21  1  0
 15 17  1  0
 16 22  1  0
 17 16  1  0
 18 17  2  0
 19 20  1  0
 19 13  2  0
 20 15  2  0
 21 14  1  0
 22 12  1  0
 24 26  2  0
 25 24  1  0
 27 25  1  0
 28 37  2  0
 28 33  1  0
 29 25  1  0
 29 33  1  0
 30 29  1  0
 31 32  1  0
 31 30  1  0
 32 28  1  0
 33 34  2  0
 34 35  1  0
 36 35  2  0
 37 36  1  0
 38 12  1  0
 38 39  1  0
 38 48  1  0
 39 42  1  0
 40 44  1  0
 40 39  1  0
 41 40  2  0
 44 43  1  0
 44 46  1  0
 46 47  1  0
 46 45  1  0
 48 51  1  1
 48 49  1  0
 50 48  1  0
 53 56  1  0
 53 52  1  0
 56 55  1  1
 56 54  1  0
 57 56  1  0
 58 63  1  0
 59 60  1  0
 59 58  1  0
 61 60  1  0
 61 68  1  0
 61 62  1  0
 63 57  1  0
 63 62  1  0
 64 57  2  0
 65 66  2  0
 66 85  1  0
 67 66  1  0
 67 70  1  0
 68 69  1  0
 68 65  1  0
 69 67  2  0
 70 71  1  0
 71 72  2  0
 73 76  1  0
 73 72  1  0
 74 73  2  0
 75 74  1  0
 75 70  2  0
 76 77  1  0
 77 82  2  0
 77 78  1  0
 78 79  2  0
 79 80  1  0
 80 84  1  0
 81 80  2  0
 82 81  1  0
 83 82  1  0
 85 86  1  0
 86 89  1  0
 86 88  1  0
 87 85  2  0
 90 65  1  0
 90 91  1  0
 92 90  1  0
M  ISO  4  10 101  11 101  56 100  57 100
M  END
>  <TORSDO>  (5) 
F 22

>  <SCORE>  (5) 
-10.782

>  <name>  (5) 
4

>  <ligand_id>  (5) 
4

>  <original_smiles>  (5) 
[H]c1c([H])c([H])c2c(c1[H])C([H])([H])C([H])([H])C([H])([H])C2([H])N([H])C(=O)C1([H])N(C(=O)C([H])(N([H])C(=O)C([H])(N([H])C([H])([H])[H])C([H])([H])[H])C(C([H])([H])[H])(C([H])([H])[H])C([H])([H])[H])C([H])([H])c2c([H])c(OC([H])([H])C([H])([H])C([H])([H])c3nc(C([H])([H])[H])n(C([H])([H])C([H])([H])C(C(=O)N4C([H])([H])C([H])([H])C([H])([H])C([H])(n5nc(-c6c([H])c([H])c(Oc7c([H])c([H])c(F)c([H])c7F)c([H])c6[H])c(C(=O)N([H])[H])c5N([H])[H])C4([H])[H])(C([H])([H])[H])C([H])([H])[H])c3C([H])([H])[H])c([H])c([H])c2C1([H])[H]

>  <smiles>  (5) 
[H]c1c([H])c([H])c2c(c1[H])C([H])([H])C([H])([H])C([H])([H])C2([H])N([H])C(=O)C1([H])N(C(=O)C([H])(N([H])C(=O)C([H])(N([H])C([H])([H])[H])C([H])([H])[H])C(C([H])([H])[H])(C([H])([H])[H])C([H])([H])[H])C([H])([H])c2c([H])c(OC([H])([H])C([H])([H])C([H])([H])c3nc(C([H])([H])[H])n(C([H])([H])C([H])([H])C(C(=O)N4C([H])([H])C([H])([H])C([H])([H])C([H])(n5nc(-c6c([H])c([H])c(Oc7c([H])c([H])c(F)c([H])c7F)c([H])c6[H])c(C(=O)N([H])[H])c5N([H])[H])C4([H])[H])(C([H])([H])[H])C([H])([H])[H])c3C([H])([H])[H])c([H])c([H])c2C1([H])[H]

$$$$
5:0:0
     RDKit          3D

 92100  0  0  1  0  0  0  0  0999 V2000
  -29.8770  -18.8480   20.5930 C   0  0  0  0  0  0  0  0  0  0  0  0
  -29.3690  -20.9790   20.4220 C   0  0  0  0  0  0  0  0  0  0  0  0
  -30.1650  -19.4280   21.7710 N   0  0  0  0  0  0  0  0  0  0  0  0
  -29.8570  -20.7890   21.6570 N   0  0  0  0  0  0  0  0  0  0  0  0
  -29.3470  -19.7850   19.7300 N   0  0  0  0  0  0  0  0  0  0  0  0
  -30.3590  -17.4010   20.1930 C   0  0  0  0  0  3  0  0  0  0  0  0
  -29.9500  -16.0550   20.9810 C   0  0  0  0  0  3  0  0  0  0  0  0
  -30.6750  -14.6960   20.5450 C   0  0  0  0  0  0  0  0  0  0  0  0
  -30.4680  -12.4300   19.5100 C   0  0  0  0  0  2  0  0  0  0  0  0
  -29.5750  -12.5460   18.2560 C   0  0  0  0  0  2  0  0  0  0  0  0
  -28.0890  -12.3900   18.6320 C   0  0  0  0  0  2  0  0  0  0  0  0
  -27.6920  -13.2720   19.8480 C   0  0  0  0  0  3  0  0  0  0  0  0
  -28.7090  -13.1580   21.0020 C   0  0  0  0  0  2  0  0  0  0  0  0
  -30.0370  -13.4790   20.4650 N   0  0  0  0  0  0  0  0  0  0  0  0
  -31.8470  -14.7800   20.1680 O   0  0  0  0  0  0  0  0  0  0  0  0
  -25.2870  -13.8900   20.4890 C   0  0  0  0  0  0  0  0  0  0  0  0
  -24.2040  -13.1280   20.8320 C   0  0  0  0  0  0  0  0  0  0  0  0
  -24.6560  -11.7730   20.8290 C   0  0  0  0  0  0  0  0  0  0  0  0
  -26.3310  -13.0000   20.2950 N   0  0  0  0  0  0  0  0  0  0  0  0
  -25.9550  -11.7220   20.5620 N   0  0  0  0  0  0  0  0  0  0  0  0
  -23.9120  -10.5180   21.0120 C   0  0  0  0  0  0  0  0  0  0  0  0
  -24.3120   -9.5560   21.9640 C   0  0  0  0  0  3  0  0  0  0  0  0
  -23.5720   -8.3670   22.1340 C   0  0  0  0  0  3  0  0  0  0  0  0
  -22.4160   -8.1300   21.3520 C   0  0  0  0  0  0  0  0  0  0  0  0
  -22.0340   -9.0830   20.3900 C   0  0  0  0  0  3  0  0  0  0  0  0
  -22.7740  -10.2650   20.2180 C   0  0  0  0  0  3  0  0  0  0  0  0
  -21.6510   -6.9910   21.4270 O   0  0  0  0  0  0  0  0  0  0  0  0
  -21.5740   -6.2520   22.5800 C   0  0  0  0  0  0  0  0  0  0  0  0
  -21.1370   -6.8160   23.7980 C   0  0  0  0  0  3  0  0  0  0  0  0
  -21.0080   -6.0040   24.9430 C   0  0  0  0  0  3  0  0  0  0  0  0
  -21.3020   -4.6290   24.8700 C   0  0  0  0  0  0  0  0  0  0  0  0
  -21.7300   -4.0660   23.6550 C   0  0  0  0  0  3  0  0  0  0  0  0
  -21.8630   -4.8740   22.5130 C   0  0  0  0  0  0  0  0  0  0  0  0
  -22.2550   -4.3220   21.3390 F   0  0  0  0  0  0  0  0  0  0  0  0
  -21.1700   -3.8460   25.9660 F   0  0  0  0  0  0  0  0  0  0  0  0
  -22.8030  -13.6170   21.0570 C   0  0  0  0  0  0  0  0  0  0  0  0
  -22.0460  -12.9390   21.9110 N   0  0  0  0  0  0  0  0  0  0  0  0
  -22.3870  -14.6380   20.5080 O   0  0  0  0  0  0  0  0  0  0  0  0
  -22.3960  -12.1150   22.3800 H   0  0  0  0  0  0  0  0  0  0  0  0
  -21.1020  -13.2470   22.0990 H   0  0  0  0  0  0  0  0  0  0  0  0
  -25.4680  -15.2580   20.3040 N   0  0  0  0  0  0  0  0  0  0  0  0
  -24.7030  -15.9180   20.3860 H   0  0  0  0  0  0  0  0  0  0  0  0
  -26.3340  -15.6890   20.0090 H   0  0  0  0  0  0  0  0  0  0  0  0
  -29.0900  -22.3760   19.7510 C   0  0  0  0  0  2  0  0  0  0  0  0
  -28.7440  -23.7350   20.5370 C   0  0  0  0  0  3  0  0  0  0  0  0
  -28.5510  -25.0470   19.6180 C   0  0  0  0  0  3  0  0  0  0  0  0
  -28.4390  -26.4320   20.1690 O   0  0  0  0  0  0  0  0  0  0  0  0
  -24.5720  -31.7610   23.1360 C   0  0  0  0  0  0  0  0  0  0  0  0
  -27.2870  -27.2430   20.0770 C   0  0  0  0  0  0  0  0  0  0  0  0
  -23.4070  -30.3500   21.4780 C   0  0  0  0  0  3  0  0  0  0  0  0
  -24.8930  -28.8330   20.0520 C   0  0  0  0  0  0  0  0  0  0  0  0
  -25.9420  -30.7100   21.3150 C   0  0  0  0  0  2  0  0  0  0  0  0
  -26.0490  -29.3350   20.6610 C   0  0  0  0  0  0  0  0  0  0  0  0
  -27.2440  -28.5520   20.6620 C   0  0  0  0  0  3  0  0  0  0  0  0
  -26.0980  -26.7950   19.4550 C   0  0  0  0  0  3  0  0  0  0  0  0
  -24.9220  -27.5710   19.4420 C   0  0  0  0  0  3  0  0  0  0  0  0
  -23.6430  -29.6890   20.0950 C   0  0  0  0  0  2  0  0  0  0  0  0
  -24.6600  -30.9590   22.0330 N   0  0  0  0  0  0  0  0  0  0  0  0
  -23.4800  -32.0170   23.6620 O   0  0  0  0  0  0  0  0  0  0  0  0
  -22.7530  -29.3170   22.4290 C   0  0  0  0  0  0  0  0  0  0  0  0
  -21.4260  -29.1370   22.3090 N   0  0  0  0  0  0  0  0  0  0  0  0
  -23.4380  -28.6810   23.2330 O   0  0  0  0  0  0  0  0  0  0  0  0
  -20.9330  -29.7040   21.6330 H   0  0  0  0  0  0  0  0  0  0  0  0
  -18.0510  -27.9430   22.8330 C   0  0  0  0  0  0  0  0  0  0  0  0
  -20.6150  -28.1850   23.0680 C   0  0  0  0  0  3  0  0  0  0  0  0
  -20.7020  -26.7680   22.4580 C   0  0  0  0  0  2  0  0  0  0  0  0
  -19.5840  -26.4730   21.4540 C   0  0  0  0  0  2  0  0  0  0  0  0
  -18.2120  -26.6090   22.1220 C   0  0  0  0  0  2  0  0  0  0  0  0
  -19.1790  -28.6910   23.2620 C   0  0  0  0  0  0  0  0  0  0  0  0
  -18.9730  -29.9410   23.8850 C   0  0  0  0  0  3  0  0  0  0  0  0
  -17.6730  -30.4420   24.0850 C   0  0  0  0  0  3  0  0  0  0  0  0
  -16.5590  -29.6880   23.6710 C   0  0  0  0  0  3  0  0  0  0  0  0
  -16.7500  -28.4420   23.0510 C   0  0  0  0  0  3  0  0  0  0  0  0
  -25.8390  -32.4140   23.7720 C   0  0  0  0  0  3  0  0  0  0  0  0
  -25.4970  -33.8000   24.1220 N   0  0  0  0  0  0  0  0  0  0  0  0
  -25.8130  -34.8720   23.3830 C   0  0  0  0  0  0  0  0  0  0  0  0
  -26.4930  -34.7990   22.3560 O   0  0  0  0  0  0  0  0  0  0  0  0
  -24.8980  -33.9290   24.9240 H   0  0  0  0  0  0  0  0  0  0  0  0
  -24.0580  -36.6420   23.0360 C   0  0  0  0  0  1  0  0  0  0  0  0
  -25.2940  -36.2430   23.8590 C   0  0  0  0  0  3  0  0  0  0  0  0
  -27.3980  -37.1510   24.7380 C   0  0  0  0  0  1  0  0  0  0  0  0
  -26.3070  -37.3170   23.7810 N   0  0  0  0  0  0  0  0  0  0  0  0
  -25.8820  -38.2260   23.9380 H   0  0  0  0  0  0  0  0  0  0  0  0
  -26.3640  -31.6380   25.0420 C   0  0  1  0  0  0  0  0  0  0  0  0
  -25.2730  -31.3620   26.1040 C   0  0  0  0  0  1  0  0  0  0  0  0
  -26.9760  -30.2780   24.6340 C   0  0  0  0  0  1  0  0  0  0  0  0
  -27.4990  -32.4440   25.7170 C   0  0  0  0  0  1  0  0  0  0  0  0
  -28.9020  -19.5980   18.3570 C   0  0  0  0  0  2  0  0  0  0  0  0
  -30.0230  -19.8630   17.3310 C   0  0  0  0  0  2  0  0  0  0  0  0
  -28.7630  -18.9710   15.2920 C   0  0  0  0  0  1  0  0  0  0  0  0
  -30.6340  -20.6520   15.0040 C   0  0  0  0  0  1  0  0  0  0  0  0
  -29.4960  -20.1710   15.9170 C   0  0  0  0  0  3  0  0  0  0  0  0
  1  3  2  0
  2  4  2  0
  4  3  1  0
  5  2  1  0
  5  1  1  0
  6  1  1  0
  6  7  2  0
  8  7  1  0
  9 14  1  0
 10 11  1  0
 10  9  1  0
 12 11  1  0
 12 19  1  0
 12 13  1  0
 14  8  1  0
 14 13  1  0
 15  8  2  0
 16 17  2  0
 17 36  1  0
 18 17  1  0
 18 21  1  0
 19 16  1  0
 19 20  1  0
 20 18  2  0
 21 22  1  0
 22 23  2  0
 24 27  1  0
 24 23  1  0
 25 24  2  0
 26 25  1  0
 26 21  2  0
 27 28  1  0
 28 29  1  0
 29 30  2  0
 31 30  1  0
 31 35  1  0
 32 31  2  0
 33 28  2  0
 33 32  1  0
 34 33  1  0
 36 37  1  0
 37 40  1  0
 37 39  1  0
 38 36  2  0
 41 42  1  0
 41 16  1  0
 43 41  1  0
 44  2  1  0
 44 45  1  0
 46 47  1  0
 46 45  2  0
 48 59  2  0
 49 47  1  0
 49 54  1  0
 50 58  1  0
 50 60  1  0
 51 57  1  0
 51 53  1  0
 52 58  1  0
 53 54  2  0
 53 52  1  0
 55 49  2  0
 56 55  1  0
 56 51  2  0
 57 50  1  0
 58 48  1  0
 60 62  2  0
 61 60  1  0
 63 61  1  0
 64 73  2  0
 64 69  1  0
 65 61  1  0
 65 69  1  0
 66 65  1  0
 67 68  1  0
 67 66  1  0
 68 64  1  0
 69 70  2  0
 70 71  1  0
 72 71  2  0
 73 72  1  0
 74 48  1  0
 74 75  1  0
 74 84  1  0
 75 78  1  0
 76 80  1  0
 76 75  1  0
 77 76  2  0
 80 79  1  0
 82 80  1  0
 82 83  1  0
 82 81  1  0
 84 87  1  1
 84 85  1  0
 86 84  1  0
 88  5  1  0
 89 88  1  0
 90 92  1  0
 91 92  1  0
 92 89  1  0
M  ISO  4   7 100   8 100  46 101  47 101
M  END
>  <TORSDO>  (6) 
F 24

>  <SCORE>  (6) 
-12.489

>  <name>  (6) 
5

>  <ligand_id>  (6) 
5

>  <original_smiles>  (6) 
[H]c1c([H])c([H])c2c(c1[H])C([H])([H])C([H])([H])C([H])([H])C2([H])N([H])C(=O)C1([H])N(C(=O)C([H])(N([H])C(=O)C([H])(N([H])C([H])([H])[H])C([H])([H])[H])C(C([H])([H])[H])(C([H])([H])[H])C([H])([H])[H])C([H])([H])c2c([H])c(OC([H])([H])C([H])([H])C([H])([H])c3nnc(C([H])([H])C([H])([H])C(=O)N4C([H])([H])C([H])([H])C([H])([H])C([H])(n5nc(-c6c([H])c([H])c(Oc7c([H])c([H])c(F)c([H])c7F)c([H])c6[H])c(C(=O)N([H])[H])c5N([H])[H])C4([H])[H])n3C([H])([H])C([H])([H])C([H])(C([H])([H])[H])C([H])([H])[H])c([H])c([H])c2C1([H])[H]

>  <smiles>  (6) 
[H]c1c([H])c([H])c2c(c1[H])C([H])([H])C([H])([H])C([H])([H])C2([H])N([H])C(=O)C1([H])N(C(=O)C([H])(N([H])C(=O)C([H])(N([H])C([H])([H])[H])C([H])([H])[H])C(C([H])([H])[H])(C([H])([H])[H])C([H])([H])[H])C([H])([H])c2c([H])c(OC([H])([H])C([H])([H])C([H])([H])c3nnc(C([H])([H])C([H])([H])C(=O)N4C([H])([H])C([H])([H])C([H])([H])C([H])(n5nc(-c6c([H])c([H])c(Oc7c([H])c([H])c(F)c([H])c7F)c([H])c6[H])c(C(=O)N([H])[H])c5N([H])[H])C4([H])[H])n3C([H])([H])C([H])([H])C([H])(C([H])([H])[H])C([H])([H])[H])c([H])c([H])c2C1([H])[H]

$$$$
6:0:0
     RDKit          3D

 93 94  0  0  1  0  0  0  0  0999 V2000
  -21.1450  -27.2620   20.7270 C   0  0  0  0  0  1  0  0  0  0  0  0
  -20.0610  -25.3250   18.2940 C   0  0  0  0  0  3  0  0  0  0  0  0
  -20.4960  -27.0430   19.5990 C   0  0  0  0  0  3  0  0  0  0  0  0
  -20.1100  -26.5530   20.1710 C   0  0  0  0  0  2  0  0  0  0  0  0
  -19.3190  -25.7830   16.9060 C   0  0  0  0  0  3  0  0  0  0  0  0
  -19.0970  -27.4010   21.4170 C   0  0  0  0  0  1  0  0  0  0  0  0
  -19.5740  -25.3080   18.5820 N   0  0  0  0  0  1  0  0  0  0  0  0
  -17.1120  -26.7130   14.9830 C   0  0  0  0  0  1  0  0  0  0  0  0
  -17.9610  -24.3890   14.5360 C   0  0  0  0  0  1  0  0  0  0  0  0
  -18.3470  -25.8740   14.6280 C   0  0  0  0  0  2  0  0  0  0  0  0
  -18.1990  -26.3680   11.9850 C   0  0  0  0  0 15  0  0  0  0  0  0
  -17.3120  -26.7830    7.7260 C   0  0  0  0  0  2  0  0  0  0  0  0
  -15.9720  -27.0820    4.9550 C   0  0  0  0  0  2  0  0  0  0  0  0
  -14.4230  -27.1070    4.4720 C   0  0  0  0  0  2  0  0  0  0  0  0
  -13.7130  -25.7810    4.7300 C   0  0  0  0  0  2  0  0  0  0  0  0
  -14.4490  -25.2130    5.9360 C   0  0  0  0  0  3  0  0  0  0  0  0
  -15.9810  -25.0820    5.8480 C   0  0  0  0  0  2  0  0  0  0  0  0
  -16.4380  -26.3710    6.4000 N   0  0  0  0  0  0  0  0  0  0  0  0
  -17.8290  -27.6590    6.8810 O   0  0  0  0  0  1  0  0  0  0  0  0
  -18.2060  -27.8310    9.7430 C   0  0  0  0  0  1  0  0  0  0  0  0
  -17.5790  -26.4910    9.6750 N   0  0  0  0  0  1  0  0  0  0  0  0
  -13.7850  -23.8750    7.8560 C   0  0  0  0  0  0  0  0  0  0  0  0
  -13.3630  -22.5980    7.9800 C   0  0  0  0  0  0  0  0  0  0  0  0
  -13.3570  -22.0500    6.6580 C   0  0  0  0  0  0  0  0  0  0  0  0
  -13.9820  -24.0300    6.5060 N   0  0  0  0  0  0  0  0  0  0  0  0
  -13.8100  -22.9200    5.7710 N   0  0  0  0  0  0  0  0  0  0  0  0
  -12.8620  -20.7740    6.1730 C   0  0  0  0  0  0  0  0  0  0  0  0
  -13.6870  -19.8880    5.4500 C   0  0  0  0  0  3  0  0  0  0  0  0
  -13.1760  -18.6490    5.0150 C   0  0  0  0  0  3  0  0  0  0  0  0
  -11.8370  -18.2960    5.3070 C   0  0  0  0  0  0  0  0  0  0  0  0
  -11.0160  -19.2000    6.0010 C   0  0  0  0  0  3  0  0  0  0  0  0
  -11.5220  -20.4340    6.4280 C   0  0  0  0  0  3  0  0  0  0  0  0
  -11.2480  -17.1220    4.9120 O   0  0  0  0  0  0  0  0  0  0  0  0
  -11.9940  -16.0030    4.6450 C   0  0  0  0  0  0  0  0  0  0  0  0
  -12.8180  -15.4050    5.6230 C   0  0  0  0  0  3  0  0  0  0  0  0
  -13.5100  -14.2150    5.3240 C   0  0  0  0  0  3  0  0  0  0  0  0
  -13.3760  -13.6200    4.0540 C   0  0  0  0  0  0  0  0  0  0  0  0
  -12.5530  -14.2150    3.0810 C   0  0  0  0  0  3  0  0  0  0  0  0
  -11.8620  -15.4030    3.3770 C   0  0  0  0  0  0  0  0  0  0  0  0
  -11.0540  -15.9630    2.4460 F   0  0  0  0  0  0  0  0  0  0  0  0
  -14.0330  -12.4720    3.7700 F   0  0  0  0  0  0  0  0  0  0  0  0
  -12.8810  -21.9820    9.2490 C   0  0  0  0  0  0  0  0  0  0  0  0
  -13.0800  -20.6810    9.4050 N   0  0  0  0  0  0  0  0  0  0  0  0
  -12.3740  -22.6730   10.1320 O   0  0  0  0  0  0  0  0  0  0  0  0
  -13.5210  -20.1270    8.6860 H   0  0  0  0  0  0  0  0  0  0  0  0
  -12.7900  -20.2290   10.2590 H   0  0  0  0  0  0  0  0  0  0  0  0
  -13.9940  -24.9200    8.7610 N   0  0  0  0  0  0  0  0  0  0  0  0
  -13.6730  -24.8070    9.7180 H   0  0  0  0  0  0  0  0  0  0  0  0
  -13.9800  -25.8840    8.4590 H   0  0  0  0  0  0  0  0  0  0  0  0
  -20.5050  -28.6980   18.8370 C   0  0  0  0  0  3  0  0  0  0  0  0
  -21.0230  -29.1750   17.2190 C   0  0  0  0  0  3  0  0  0  0  0  0
  -21.7830  -28.4210   15.8270 C   0  0  0  0  0  2  0  0  0  0  0  0
  -23.2400  -27.9970   15.3820 O   0  0  0  0  0  0  0  0  0  0  0  0
  -25.5640  -22.8360   19.3310 C   0  0  0  0  0  0  0  0  0  0  0  0
  -24.0640  -27.9150   16.4380 C   0  0  0  0  0  0  0  0  0  0  0  0
  -23.7040  -24.3100   19.8390 C   0  0  0  0  0  3  0  0  0  0  0  0
  -23.7660  -26.6680   18.8470 C   0  0  0  0  0  0  0  0  0  0  0  0
  -25.7350  -25.2000   18.5590 C   0  0  0  0  0  2  0  0  0  0  0  0
  -24.8120  -26.2610   18.0130 C   0  0  0  0  0  0  0  0  0  0  0  0
  -24.9380  -26.8370   16.7240 C   0  0  0  0  0  3  0  0  0  0  0  0
  -23.4300  -28.6000   17.4460 C   0  0  0  0  0  3  0  0  0  0  0  0
  -23.1520  -27.8960   18.6070 C   0  0  0  0  0  3  0  0  0  0  0  0
  -23.4500  -25.8240   20.0600 C   0  0  0  0  0  2  0  0  0  0  0  0
  -25.0600  -24.0910   19.2770 N   0  0  0  0  0  0  0  0  0  0  0  0
  -24.9740  -21.9240   19.9290 O   0  0  0  0  0  0  0  0  0  0  0  0
  -22.7260  -23.6380   18.8510 C   0  0  0  0  0  0  0  0  0  0  0  0
  -21.6060  -23.1140   19.2390 N   0  0  0  0  0  0  0  0  0  0  0  0
  -22.9890  -23.5100   17.6660 O   0  0  0  0  0  0  0  0  0  0  0  0
  -21.3420  -23.1830   20.2120 H   0  0  0  0  0  0  0  0  0  0  0  0
  -17.6610  -23.2550   19.9150 C   0  0  0  0  0  3  0  0  0  0  0  0
  -20.4770  -23.1180   18.2630 C   0  0  0  0  0  2  0  0  0  0  0  0
  -20.7480  -24.9300   16.8550 C   0  0  0  0  0  2  0  0  0  0  0  0
  -18.0490  -26.6510   17.6590 C   0  0  0  0  0  1  0  0  0  0  0  0
  -16.7090  -24.8480   18.9650 C   0  0  0  0  0 15  0  0  0  0  0  0
  -19.1410  -22.6170   19.5790 C   0  0  0  0  0  0  0  0  0  0  0  0
  -19.6950  -21.6890   20.6240 C   0  0  0  0  0  3  0  0  0  0  0  0
  -19.1250  -21.2670   21.8650 C   0  0  0  0  0  3  0  0  0  0  0  0
  -17.8610  -21.7830   22.1650 C   0  0  0  0  0  3  0  0  0  0  0  0
  -17.2130  -22.7120   21.2510 C   0  0  0  0  0  3  0  0  0  0  0  0
  -26.9110  -22.5010   18.6430 C   0  0  0  0  0  3  0  0  0  0  0  0
  -27.6240  -21.6090   19.5590 N   0  0  0  0  0  0  0  0  0  0  0  0
  -28.2550  -22.0190   20.6660 C   0  0  0  0  0  0  0  0  0  0  0  0
  -28.3720  -23.2100   20.9670 O   0  0  0  0  0  0  0  0  0  0  0  0
  -27.5220  -20.6170   19.4010 H   0  0  0  0  0  0  0  0  0  0  0  0
  -27.8940  -20.6410   22.7370 C   0  0  0  0  0  1  0  0  0  0  0  0
  -28.8580  -20.9350   21.5750 C   0  0  0  0  0  3  0  0  0  0  0  0
  -31.2200  -21.3650   21.0730 C   0  0  0  0  0  1  0  0  0  0  0  0
  -30.1900  -21.2930   22.1060 N   0  0  0  0  0  0  0  0  0  0  0  0
  -30.4920  -20.6260   22.8100 H   0  0  0  0  0  0  0  0  0  0  0  0
  -26.7370  -21.8340   17.2250 C   0  0  1  0  0  0  0  0  0  0  0  0
  -25.6550  -20.7290   17.1790 C   0  0  0  0  0  1  0  0  0  0  0  0
  -26.3800  -22.8840   16.1470 C   0  0  0  0  0  1  0  0  0  0  0  0
  -28.0830  -21.2130   16.7880 C   0  0  0  0  0  1  0  0  0  0  0  0
  2  7  1  0
  3  4  1  0
  3  1  1  0
  4  6  1  0
  5 73  1  0
  5  2  1  0
  9 10  1  0
 10  8  1  0
 13 18  1  0
 14 15  1  0
 14 13  1  0
 16 15  1  0
 16 25  1  0
 17 16  1  0
 17 18  1  0
 18 12  1  0
 19 12  1  0
 21 20  1  0
 22 23  2  0
 22 47  1  0
 23 42  1  0
 24 23  1  0
 25 22  1  0
 26 25  1  0
 26 24  2  0
 27 32  1  0
 27 24  1  0
 28 27  2  0
 29 30  2  0
 29 28  1  0
 30 31  1  0
 31 32  2  0
 33 30  1  0
 34 33  1  0
 34 35  1  0
 36 35  2  0
 37 36  1  0
 38 39  1  0
 38 37  2  0
 39 34  2  0
 40 39  1  0
 41 37  1  0
 42 43  1  0
 42 44  2  0
 43 46  1  0
 45 43  1  0
 47 48  1  0
 49 47  1  0
 50  3  1  0
 51 50  2  0
 52 51  1  0
 53 52  1  0
 53 55  1  0
 54 65  2  0
 55 60  2  0
 55 61  1  0
 56 66  1  0
 56 63  1  0
 57 63  1  0
 58 64  1  0
 59 58  1  0
 59 57  2  0
 60 59  1  0
 61 62  2  0
 62 57  1  0
 64 54  1  0
 64 56  1  0
 66 67  1  0
 67 69  1  0
 68 66  2  0
 70 79  1  0
 71 67  1  0
 71 75  1  0
 72  5  1  0
 72  2  1  0
 75 70  2  0
 75 76  1  0
 76 77  2  0
 77 78  1  0
 79 78  2  0
 80 54  1  0
 80 81  1  0
 81 82  1  0
 82 83  2  0
 82 86  1  0
 84 81  1  0
 86 88  1  0
 86 85  1  0
 87 88  1  0
 88 89  1  0
 90 80  1  0
 90 91  1  1
 92 90  1  0
 93 90  1  0
M  ISO  4  12 100  21 100  52 101  53 101
M  END
>  <TORSDO>  (7) 
F 21

>  <SCORE>  (7) 
14.157

>  <name>  (7) 
6

>  <ligand_id>  (7) 
6

>  <original_smiles>  (7) 
[H]c1c([H])c([H])c2c(c1[H])C([H])([H])C([H])([H])C([H])([H])C2([H])N([H])C(=O)C1([H])N(C(=O)C([H])(N([H])C(=O)C([H])(N([H])C([H])([H])[H])C([H])([H])[H])C(C([H])([H])[H])(C([H])([H])[H])C([H])([H])[H])C([H])([H])c2c([H])c(OC([H])([H])C([H])([H])C([H])([H])c3c([H])c(C([H])([H])[H])nc(C(C([H])([H])[H])(C([H])([H])[H])C([H])([H])N(C(=O)N4C([H])([H])C([H])([H])C([H])([H])C([H])(n5nc(-c6c([H])c([H])c(Oc7c([H])c([H])c(F)c([H])c7F)c([H])c6[H])c(C(=O)N([H])[H])c5N([H])[H])C4([H])[H])C([H])([H])[H])c3[H])c([H])c([H])c2C1([H])[H]

>  <smiles>  (7) 
[H]c1c([H])c([H])c2c(c1[H])C([H])([H])C([H])([H])C([H])([H])C2([H])N([H])C(=O)C1([H])N(C(=O)C([H])(N([H])C(=O)C([H])(N([H])C([H])([H])[H])C([H])([H])[H])C(C([H])([H])[H])(C([H])([H])[H])C([H])([H])[H])C([H])([H])c2c([H])c(OC([H])([H])C([H])([H])C([H])([H])c3c([H])c(C([H])([H])[H])nc(C(C([H])([H])[H])(C([H])([H])[H])C([H])([H])N(C(=O)N4C([H])([H])C([H])([H])C([H])([H])C([H])(n5nc(-c6c([H])c([H])c(Oc7c([H])c([H])c(F)c([H])c7F)c([H])c6[H])c(C(=O)N([H])[H])c5N([H])[H])C4([H])[H])C([H])([H])[H])c3[H])c([H])c([H])c2C1([H])[H]

$$$$
7:0:0
     RDKit          3D

 95103  0  0  1  0  0  0  0  0999 V2000
  -29.1980  -20.9410   18.2390 C   0  0  0  0  0  1  0  0  0  0  0  0
  -28.2400  -21.0280   19.4380 C   0  0  1  0  0  0  0  0  0  0  0  0
  -26.0180  -20.2420   18.1480 C   0  0  0  0  0  1  0  0  0  0  0  0
  -26.7840  -21.3280   18.9300 C   0  0  0  0  0  2  0  0  0  0  0  0
  -28.1950  -19.5960   20.1480 C   0  0  0  0  0  2  0  0  0  0  0  0
  -30.0880  -18.7850   21.6820 C   0  0  0  0  0  3  0  0  0  0  0  0
  -30.8600  -17.6120   21.8310 C   0  0  0  0  0  3  0  0  0  0  0  0
  -29.3880  -18.6950   20.5180 C   0  0  0  0  0  0  0  0  0  0  0  0
  -30.6800  -16.7660   20.7660 C   0  0  0  0  0  0  0  0  0  0  0  0
  -29.8280  -17.4950   19.8820 N   0  0  0  0  0  0  0  0  0  0  0  0
  -31.1770  -14.6260   22.0370 C   0  0  0  0  0  1  0  0  0  0  0  0
  -32.9410  -15.7230   20.7790 C   0  0  0  0  0  1  0  0  0  0  0  0
  -31.4200  -15.3780   20.7000 C   0  0  2  0  0  0  0  0  0  0  0  0
  -31.2960  -14.3650   19.4590 C   0  0  0  0  0  0  0  0  0  0  0  0
  -30.5520  -12.3240   18.2250 C   0  0  0  0  0  2  0  0  0  0  0  0
  -29.4500  -12.6480   17.1960 C   0  0  0  0  0  2  0  0  0  0  0  0
  -28.0640  -12.5520   17.8540 C   0  0  0  0  0  2  0  0  0  0  0  0
  -28.0060  -13.3280   19.1910 C   0  0  0  0  0  3  0  0  0  0  0  0
  -29.2090  -13.0070   20.0950 C   0  0  0  0  0  2  0  0  0  0  0  0
  -30.4500  -13.2810   19.3530 N   0  0  0  0  0  0  0  0  0  0  0  0
  -32.1420  -14.5170   18.5690 O   0  0  0  0  0  0  0  0  0  0  0  0
  -25.8510  -14.0390   20.3940 C   0  0  0  0  0  0  0  0  0  0  0  0
  -24.7910  -13.3220   20.8800 C   0  0  0  0  0  0  0  0  0  0  0  0
  -25.1020  -11.9490   20.6380 C   0  0  0  0  0  0  0  0  0  0  0  0
  -26.7400  -13.1060   19.8860 N   0  0  0  0  0  0  0  0  0  0  0  0
  -26.3060  -11.8340   20.0960 N   0  0  0  0  0  0  0  0  0  0  0  0
  -24.2980  -10.7360   20.8540 C   0  0  0  0  0  0  0  0  0  0  0  0
  -24.7240   -9.7090   21.7270 C   0  0  0  0  0  3  0  0  0  0  0  0
  -23.9230   -8.5660   21.9330 C   0  0  0  0  0  3  0  0  0  0  0  0
  -22.6840   -8.4400   21.2610 C   0  0  0  0  0  0  0  0  0  0  0  0
  -22.2730   -9.4560   20.3810 C   0  0  0  0  0  3  0  0  0  0  0  0
  -23.0750  -10.5900   20.1710 C   0  0  0  0  0  3  0  0  0  0  0  0
  -21.8580   -7.3490   21.3690 O   0  0  0  0  0  0  0  0  0  0  0  0
  -21.7670   -6.6310   22.5350 C   0  0  0  0  0  0  0  0  0  0  0  0
  -21.3750   -7.2290   23.7510 C   0  0  0  0  0  3  0  0  0  0  0  0
  -21.2220   -6.4420   24.9110 C   0  0  0  0  0  3  0  0  0  0  0  0
  -21.4560   -5.0520   24.8550 C   0  0  0  0  0  0  0  0  0  0  0  0
  -21.8430   -4.4550   23.6430 C   0  0  0  0  0  3  0  0  0  0  0  0
  -21.9930   -5.2410   22.4870 C   0  0  0  0  0  0  0  0  0  0  0  0
  -22.3440   -4.6530   21.3190 F   0  0  0  0  0  0  0  0  0  0  0  0
  -21.3060   -4.2930   25.9640 F   0  0  0  0  0  0  0  0  0  0  0  0
  -23.5260  -13.8780   21.4600 C   0  0  0  0  0  0  0  0  0  0  0  0
  -22.9340  -13.1600   22.4020 N   0  0  0  0  0  0  0  0  0  0  0  0
  -23.0780  -14.9710   21.1110 O   0  0  0  0  0  0  0  0  0  0  0  0
  -23.3230  -12.2750   22.6980 H   0  0  0  0  0  0  0  0  0  0  0  0
  -22.0810  -13.4900   22.8280 H   0  0  0  0  0  0  0  0  0  0  0  0
  -26.1340  -15.3980   20.3310 N   0  0  0  0  0  0  0  0  0  0  0  0
  -25.5190  -16.1040   20.7190 H   0  0  0  0  0  0  0  0  0  0  0  0
  -26.9980  -15.7750   19.9700 H   0  0  0  0  0  0  0  0  0  0  0  0
  -27.9790  -16.7330   18.3440 C   0  0  0  0  0  1  0  0  0  0  0  0
  -29.4570  -17.1080   18.5200 C   0  0  0  0  0  2  0  0  0  0  0  0
  -28.6180  -22.2760   20.3670 C   0  0  0  0  0  2  0  0  0  0  0  0
  -28.6780  -23.7570   19.7500 C   0  0  0  0  0  3  0  0  0  0  0  0
  -28.2650  -24.9670   20.6880 C   0  0  0  0  0  3  0  0  0  0  0  0
  -28.4760  -26.3510   20.2180 O   0  0  0  0  0  0  0  0  0  0  0  0
  -24.6240  -31.7240   23.1040 C   0  0  0  0  0  0  0  0  0  0  0  0
  -27.3610  -27.1840   20.1580 C   0  0  0  0  0  0  0  0  0  0  0  0
  -23.4830  -30.3110   21.4290 C   0  0  0  0  0  3  0  0  0  0  0  0
  -24.9880  -28.7630   20.0600 C   0  0  0  0  0  0  0  0  0  0  0  0
  -26.0210  -30.6490   21.3240 C   0  0  0  0  0  2  0  0  0  0  0  0
  -26.1350  -29.2690   20.6880 C   0  0  0  0  0  0  0  0  0  0  0  0
  -27.3270  -28.4930   20.7250 C   0  0  0  0  0  3  0  0  0  0  0  0
  -26.2000  -26.7250   19.5040 C   0  0  0  0  0  3  0  0  0  0  0  0
  -25.0220  -27.4950   19.4570 C   0  0  0  0  0  3  0  0  0  0  0  0
  -23.7460  -29.6270   20.0620 C   0  0  0  0  0  2  0  0  0  0  0  0
  -24.7270  -30.9110   22.0100 N   0  0  0  0  0  0  0  0  0  0  0  0
  -23.5230  -32.0000   23.5990 O   0  0  0  0  0  0  0  0  0  0  0  0
  -22.7950  -29.2970   22.3720 C   0  0  0  0  0  0  0  0  0  0  0  0
  -21.4640  -29.1640   22.2470 N   0  0  0  0  0  0  0  0  0  0  0  0
  -23.4590  -28.6320   23.1690 O   0  0  0  0  0  0  0  0  0  0  0  0
  -20.9920  -29.7560   21.5790 H   0  0  0  0  0  0  0  0  0  0  0  0
  -18.0440  -28.1330   22.8070 C   0  0  0  0  0  0  0  0  0  0  0  0
  -20.6190  -28.2380   23.0030 C   0  0  0  0  0  3  0  0  0  0  0  0
  -20.6200  -26.8320   22.3610 C   0  0  0  0  0  2  0  0  0  0  0  0
  -19.4720  -26.6170   21.3710 C   0  0  0  0  0  2  0  0  0  0  0  0
  -18.1230  -26.8070   22.0670 C   0  0  0  0  0  2  0  0  0  0  0  0
  -19.2160  -28.8130   23.2330 C   0  0  0  0  0  0  0  0  0  0  0  0
  -19.0880  -30.0560   23.8850 C   0  0  0  0  0  3  0  0  0  0  0  0
  -17.8200  -30.6220   24.1160 C   0  0  0  0  0  3  0  0  0  0  0  0
  -16.6630  -29.9390   23.7040 C   0  0  0  0  0  3  0  0  0  0  0  0
  -16.7750  -28.6960   23.0580 C   0  0  0  0  0  3  0  0  0  0  0  0
  -25.8840  -32.3660   23.7650 C   0  0  0  0  0  3  0  0  0  0  0  0
  -25.5430  -33.7510   24.1210 N   0  0  0  0  0  0  0  0  0  0  0  0
  -25.8850  -34.8270   23.4020 C   0  0  0  0  0  0  0  0  0  0  0  0
  -26.5890  -34.7600   22.3890 O   0  0  0  0  0  0  0  0  0  0  0  0
  -24.9170  -33.8770   24.9040 H   0  0  0  0  0  0  0  0  0  0  0  0
  -24.1570  -36.6140   23.0190 C   0  0  0  0  0  1  0  0  0  0  0  0
  -25.3630  -36.1970   23.8770 C   0  0  0  0  0  3  0  0  0  0  0  0
  -27.4450  -37.0750   24.8380 C   0  0  0  0  0  1  0  0  0  0  0  0
  -26.3900  -37.2620   23.8440 N   0  0  0  0  0  0  0  0  0  0  0  0
  -25.9690  -38.1750   23.9960 H   0  0  0  0  0  0  0  0  0  0  0  0
  -26.3920  -31.5750   25.0320 C   0  0  1  0  0  0  0  0  0  0  0  0
  -25.2840  -31.2870   26.0720 C   0  0  0  0  0  1  0  0  0  0  0  0
  -27.0100  -30.2190   24.6160 C   0  0  0  0  0  1  0  0  0  0  0  0
  -27.5140  -32.3740   25.7350 C   0  0  0  0  0  1  0  0  0  0  0  0
  2  1  1  6
  2  5  1  0
  2 52  1  0
  3  4  1  0
  4  2  1  0
  5  8  1  0
  6  7  1  0
  8  6  2  0
  9  7  2  0
 10  8  1  0
 10  9  1  0
 13  9  1  0
 13 12  1  1
 13 11  1  0
 14 13  1  0
 15 20  1  0
 16 17  1  0
 16 15  1  0
 18 17  1  0
 18 25  1  0
 18 19  1  0
 20 14  1  0
 20 19  1  0
 21 14  2  0
 22 23  2  0
 23 42  1  0
 24 27  1  0
 24 23  1  0
 25 26  1  0
 25 22  1  0
 26 24  2  0
 27 28  1  0
 28 29  2  0
 30 33  1  0
 30 29  1  0
 31 30  2  0
 32 31  1  0
 32 27  2  0
 33 34  1  0
 34 35  1  0
 35 36  2  0
 37 36  1  0
 37 41  1  0
 38 37  2  0
 39 34  2  0
 39 38  1  0
 40 39  1  0
 42 43  1  0
 43 45  1  0
 43 46  1  0
 44 42  2  0
 47 22  1  0
 47 48  1  0
 49 47  1  0
 50 51  1  0
 51 10  1  0
 53 52  1  0
 53 54  2  0
 55 54  1  0
 56 67  2  0
 57 55  1  0
 57 62  1  0
 58 66  1  0
 58 68  1  0
 59 65  1  0
 59 61  1  0
 60 66  1  0
 61 62  2  0
 61 60  1  0
 63 57  2  0
 64 63  1  0
 64 59  2  0
 65 58  1  0
 66 56  1  0
 68 70  2  0
 69 68  1  0
 71 69  1  0
 72 81  2  0
 72 77  1  0
 73 69  1  0
 73 77  1  0
 74 73  1  0
 75 76  1  0
 75 74  1  0
 76 72  1  0
 77 78  2  0
 78 79  1  0
 80 79  2  0
 81 80  1  0
 82 56  1  0
 82 83  1  0
 82 92  1  0
 83 86  1  0
 84 88  1  0
 84 83  1  0
 85 84  2  0
 88 87  1  0
 90 88  1  0
 90 91  1  0
 90 89  1  0
 92 95  1  1
 92 93  1  0
 94 92  1  0
M  ISO  4  13 100  14 100  54 101  55 101
M  END
>  <TORSDO>  (8) 
F 24

>  <SCORE>  (8) 
-9.485

>  <name>  (8) 
7

>  <ligand_id>  (8) 
7

>  <original_smiles>  (8) 
[H]c1c([H])c([H])c2c(c1[H])C([H])([H])C([H])([H])C([H])([H])C2([H])N([H])C(=O)C1([H])N(C(=O)C([H])(N([H])C(=O)C([H])(N([H])C([H])([H])[H])C([H])([H])[H])C(C([H])([H])[H])(C([H])([H])[H])C([H])([H])[H])C([H])([H])c2c([H])c(OC([H])([H])C([H])([H])C([H])([H])C(C([H])([H])[H])(C([H])([H])c3c([H])c([H])c(C(C(=O)N4C([H])([H])C([H])([H])C([H])([H])C([H])(n5nc(-c6c([H])c([H])c(Oc7c([H])c([H])c(F)c([H])c7F)c([H])c6[H])c(C(=O)N([H])[H])c5N([H])[H])C4([H])[H])(C([H])([H])[H])C([H])([H])[H])n3C([H])([H])C([H])([H])[H])C([H])([H])C([H])([H])[H])c([H])c([H])c2C1([H])[H]

>  <smiles>  (8) 
[H]c1c([H])c([H])c2c(c1[H])C([H])([H])C([H])([H])C([H])([H])C2([H])N([H])C(=O)C1([H])N(C(=O)C([H])(N([H])C(=O)C([H])(N([H])C([H])([H])[H])C([H])([H])[H])C(C([H])([H])[H])(C([H])([H])[H])C([H])([H])[H])C([H])([H])c2c([H])c(OC([H])([H])C([H])([H])C([H])([H])C(C([H])([H])[H])(C([H])([H])c3c([H])c([H])c(C(C(=O)N4C([H])([H])C([H])([H])C([H])([H])C([H])(n5nc(-c6c([H])c([H])c(Oc7c([H])c([H])c(F)c([H])c7F)c([H])c6[H])c(C(=O)N([H])[H])c5N([H])[H])C4([H])[H])(C([H])([H])[H])C([H])([H])[H])n3C([H])([H])C([H])([H])[H])C([H])([H])C([H])([H])[H])c([H])c([H])c2C1([H])[H]

$$$$
8:0:0
     RDKit          3D

 93101  0  0  1  0  0  0  0  0999 V2000
  -27.5220  -20.9370   19.4850 C   0  0  0  0  0  1  0  0  0  0  0  0
  -27.5900  -22.1170   21.6810 C   0  0  0  0  0  1  0  0  0  0  0  0
  -28.4630  -21.6570   20.4890 C   0  0  2  0  0  0  0  0  0  0  0  0
  -29.1180  -22.9630   19.8770 C   0  0  0  0  0  2  0  0  0  0  0  0
  -28.2900  -24.2570   19.5500 C   0  0  0  0  0  2  0  0  0  0  0  0
  -28.4250  -25.4320   20.5660 C   0  0  0  0  0  2  0  0  0  0  0  0
  -28.4650  -26.7280   19.9410 O   0  0  0  0  0  0  0  0  0  0  0  0
  -24.5920  -31.7690   23.0820 C   0  0  0  0  0  0  0  0  0  0  0  0
  -27.2900  -27.4410   19.9300 C   0  0  0  0  0  0  0  0  0  0  0  0
  -23.4080  -30.3980   21.3970 C   0  0  0  0  0  3  0  0  0  0  0  0
  -24.8840  -28.9190   19.9340 C   0  0  0  0  0  0  0  0  0  0  0  0
  -25.9270  -30.8030   21.2080 C   0  0  0  0  0  2  0  0  0  0  0  0
  -26.0320  -29.4510   20.5350 C   0  0  0  0  0  0  0  0  0  0  0  0
  -27.2420  -28.7260   20.5140 C   0  0  0  0  0  3  0  0  0  0  0  0
  -26.1270  -26.9130   19.3280 C   0  0  0  0  0  3  0  0  0  0  0  0
  -24.9300  -27.6570   19.3100 C   0  0  0  0  0  3  0  0  0  0  0  0
  -23.6310  -29.7680   19.9930 C   0  0  0  0  0  2  0  0  0  0  0  0
  -24.6610  -31.0030   21.9550 N   0  0  0  0  0  0  0  0  0  0  0  0
  -23.5110  -32.0060   23.6330 O   0  0  0  0  0  0  0  0  0  0  0  0
  -22.7740  -29.3370   22.3300 C   0  0  0  0  0  0  0  0  0  0  0  0
  -21.4540  -29.1260   22.1940 N   0  0  0  0  0  0  0  0  0  0  0  0
  -23.4670  -28.7120   23.1360 O   0  0  0  0  0  0  0  0  0  0  0  0
  -20.9500  -29.6910   21.5270 H   0  0  0  0  0  0  0  0  0  0  0  0
  -18.1090  -27.8950   22.6710 C   0  0  0  0  0  0  0  0  0  0  0  0
  -20.6580  -28.1730   22.9620 C   0  0  0  0  0  3  0  0  0  0  0  0
  -20.7750  -26.7450   22.3870 C   0  0  0  0  0  2  0  0  0  0  0  0
  -19.7000  -26.4420   21.3370 C   0  0  0  0  0  2  0  0  0  0  0  0
  -18.3090  -26.5680   21.9550 C   0  0  0  0  0  2  0  0  0  0  0  0
  -19.2180  -28.6500   23.1340 C   0  0  0  0  0  0  0  0  0  0  0  0
  -18.9890  -29.8870   23.7770 C   0  0  0  0  0  3  0  0  0  0  0  0
  -17.6840  -30.3670   23.9620 C   0  0  0  0  0  3  0  0  0  0  0  0
  -16.5880  -29.6170   23.4990 C   0  0  0  0  0  3  0  0  0  0  0  0
  -16.8000  -28.3800   22.8590 C   0  0  0  0  0  3  0  0  0  0  0  0
  -25.8710  -32.4030   23.7200 C   0  0  0  0  0  3  0  0  0  0  0  0
  -25.5370  -33.7840   24.0970 N   0  0  0  0  0  0  0  0  0  0  0  0
  -25.8450  -34.8650   23.3680 C   0  0  0  0  0  0  0  0  0  0  0  0
  -26.5060  -34.8080   22.3290 O   0  0  0  0  0  0  0  0  0  0  0  0
  -24.9390  -33.8970   24.9020 H   0  0  0  0  0  0  0  0  0  0  0  0
  -24.0750  -36.6350   23.0830 C   0  0  0  0  0  1  0  0  0  0  0  0
  -25.3310  -36.2270   23.8720 C   0  0  0  0  0  3  0  0  0  0  0  0
  -27.4560  -37.1350   24.7060 C   0  0  0  0  0  1  0  0  0  0  0  0
  -26.3400  -37.3030   23.7780 N   0  0  0  0  0  0  0  0  0  0  0  0
  -25.9170  -38.2120   23.9470 H   0  0  0  0  0  0  0  0  0  0  0  0
  -26.4100  -31.5970   24.9640 C   0  0  1  0  0  0  0  0  0  0  0  0
  -25.3310  -31.3120   26.0370 C   0  0  0  0  0  1  0  0  0  0  0  0
  -27.0160  -30.2420   24.5220 C   0  0  0  0  0  1  0  0  0  0  0  0
  -27.5520  -32.3890   25.6420 C   0  0  0  0  0  1  0  0  0  0  0  0
  -29.6280  -20.6740   20.9990 C   0  0  0  0  0  2  0  0  0  0  0  0
  -29.5090  -18.0680   21.1240 C   0  0  0  0  0  3  0  0  0  0  0  0
  -29.9440  -17.0380   20.3110 C   0  0  0  0  0  0  0  0  0  0  0  0
  -30.2700  -18.9650   19.2260 C   0  0  0  0  0  3  0  0  0  0  0  0
  -30.7560  -19.8920   18.1430 C   0  0  0  0  0  1  0  0  0  0  0  0
  -29.7570  -19.2640   20.4470 N   0  0  0  0  0  0  0  0  0  0  0  0
  -30.3500  -17.6190   19.1370 N   0  0  0  0  0  0  0  0  0  0  0  0
  -30.6800  -17.1250   18.3180 H   0  0  0  0  0  0  0  0  0  0  0  0
  -30.7060  -14.6170   20.1440 C   0  0  0  0  0  0  0  0  0  0  0  0
  -30.4780  -12.4310   19.0250 C   0  0  0  0  0  2  0  0  0  0  0  0
  -29.4750  -12.5560   17.8530 C   0  0  0  0  0  2  0  0  0  0  0  0
  -28.0130  -12.4520   18.3400 C   0  0  0  0  0  2  0  0  0  0  0  0
  -27.7200  -13.3060   19.6020 C   0  0  0  0  0  3  0  0  0  0  0  0
  -28.8030  -13.0550   20.6750 C   0  0  0  0  0  2  0  0  0  0  0  0
  -30.1020  -13.3980   20.0760 N   0  0  0  0  0  0  0  0  0  0  0  0
  -31.8280  -14.8190   19.6690 O   0  0  0  0  0  0  0  0  0  0  0  0
  -29.9380  -15.6240   20.6350 N   0  0  0  0  0  0  0  0  0  0  0  0
  -29.1810  -15.2950   21.2140 H   0  0  0  0  0  0  0  0  0  0  0  0
  -25.3470  -13.9480   20.3590 C   0  0  0  0  0  0  0  0  0  0  0  0
  -24.2810  -13.1830   20.7600 C   0  0  0  0  0  0  0  0  0  0  0  0
  -24.7340  -11.8300   20.7220 C   0  0  0  0  0  0  0  0  0  0  0  0
  -26.3790  -13.0540   20.1160 N   0  0  0  0  0  0  0  0  0  0  0  0
  -26.0130  -11.7780   20.3860 N   0  0  0  0  0  0  0  0  0  0  0  0
  -24.0000  -10.5750   20.9290 C   0  0  0  0  0  0  0  0  0  0  0  0
  -24.4490   -9.6040   21.8510 C   0  0  0  0  0  3  0  0  0  0  0  0
  -23.7160   -8.4140   22.0490 C   0  0  0  0  0  3  0  0  0  0  0  0
  -22.5220   -8.1880   21.3270 C   0  0  0  0  0  0  0  0  0  0  0  0
  -22.0970   -9.1430   20.3870 C   0  0  0  0  0  3  0  0  0  0  0  0
  -22.8290  -10.3250   20.1860 C   0  0  0  0  0  3  0  0  0  0  0  0
  -21.7600   -7.0470   21.4390 O   0  0  0  0  0  0  0  0  0  0  0  0
  -21.7310   -6.3090   22.5950 C   0  0  0  0  0  0  0  0  0  0  0  0
  -21.3470   -6.8730   23.8310 C   0  0  0  0  0  3  0  0  0  0  0  0
  -21.2620   -6.0640   24.9800 C   0  0  0  0  0  3  0  0  0  0  0  0
  -21.5510   -4.6900   24.8970 C   0  0  0  0  0  0  0  0  0  0  0  0
  -21.9300   -4.1230   23.6670 C   0  0  0  0  0  3  0  0  0  0  0  0
  -22.0160   -4.9300   22.5200 C   0  0  0  0  0  0  0  0  0  0  0  0
  -22.3580   -4.3740   21.3320 F   0  0  0  0  0  0  0  0  0  0  0  0
  -21.4650   -3.9110   26.0010 F   0  0  0  0  0  0  0  0  0  0  0  0
  -22.8950  -13.6660   21.0690 C   0  0  0  0  0  0  0  0  0  0  0  0
  -22.1940  -12.9680   21.9630 N   0  0  0  0  0  0  0  0  0  0  0  0
  -22.4440  -14.6890   20.5560 O   0  0  0  0  0  0  0  0  0  0  0  0
  -22.5830  -12.1420   22.3950 H   0  0  0  0  0  0  0  0  0  0  0  0
  -21.2590  -13.2500   22.2130 H   0  0  0  0  0  0  0  0  0  0  0  0
  -25.5050  -15.3140   20.1600 N   0  0  0  0  0  0  0  0  0  0  0  0
  -24.7300  -15.9540   20.2810 H   0  0  0  0  0  0  0  0  0  0  0  0
  -26.3310  -15.7730   19.7930 H   0  0  0  0  0  0  0  0  0  0  0  0
  3  1  1  6
  3 48  1  0
  3  2  1  0
  4  3  1  0
  5  4  1  0
  5  6  1  0
  7  6  1  0
  8 19  2  0
  9  7  1  0
  9 14  1  0
 10 18  1  0
 10 20  1  0
 11 17  1  0
 11 13  1  0
 12 18  1  0
 13 12  1  0
 14 13  2  0
 15  9  2  0
 16 15  1  0
 16 11  2  0
 17 10  1  0
 18  8  1  0
 20 22  2  0
 21 20  1  0
 23 21  1  0
 24 33  2  0
 24 29  1  0
 25 21  1  0
 25 29  1  0
 26 25  1  0
 27 28  1  0
 27 26  1  0
 28 24  1  0
 29 30  2  0
 30 31  1  0
 32 31  2  0
 33 32  1  0
 34  8  1  0
 34 35  1  0
 34 44  1  0
 35 38  1  0
 36 40  1  0
 36 35  1  0
 37 36  2  0
 40 39  1  0
 42 40  1  0
 42 43  1  0
 42 41  1  0
 44 47  1  1
 44 45  1  0
 46 44  1  0
 50 64  1  0
 50 49  2  0
 51 52  1  0
 51 53  1  0
 53 48  1  0
 53 49  1  0
 54 51  1  0
 54 50  1  0
 55 54  1  0
 56 64  1  0
 57 62  1  0
 58 59  1  0
 58 57  1  0
 60 59  1  0
 60 69  1  0
 60 61  1  0
 62 56  1  0
 62 61  1  0
 63 56  2  0
 64 65  1  0
 66 67  2  0
 67 86  1  0
 68 67  1  0
 68 71  1  0
 69 66  1  0
 69 70  1  0
 70 68  2  0
 71 72  1  0
 72 73  2  0
 74 77  1  0
 74 73  1  0
 75 74  2  0
 76 75  1  0
 76 71  2  0
 77 78  1  0
 78 79  1  0
 79 80  2  0
 81 80  1  0
 81 85  1  0
 82 81  2  0
 83 78  2  0
 83 82  1  0
 84 83  1  0
 86 87  1  0
 87 90  1  0
 87 89  1  0
 88 86  2  0
 91 92  1  0
 91 66  1  0
 93 91  1  0
M  ISO  4   6 101   7 101  56 100  64 100
M  END
>  <TORSDO>  (9) 
F 21

>  <SCORE>  (9) 
-13.145

>  <name>  (9) 
8

>  <ligand_id>  (9) 
8

>  <original_smiles>  (9) 
[H]c1c([H])c([H])c2c(c1[H])C([H])([H])C([H])([H])C([H])([H])C2([H])N([H])C(=O)C1([H])N(C(=O)C([H])(N([H])C(=O)C([H])(N([H])C([H])([H])[H])C([H])([H])[H])C(C([H])([H])[H])(C([H])([H])[H])C([H])([H])[H])C([H])([H])c2c([H])c(OC([H])([H])C([H])([H])C([H])([H])C(C([H])([H])[H])(C([H])([H])[H])C([H])([H])n3c([H])c(N([H])C(=O)N4C([H])([H])C([H])([H])C([H])([H])C([H])(n5nc(-c6c([H])c([H])c(Oc7c([H])c([H])c(F)c([H])c7F)c([H])c6[H])c(C(=O)N([H])[H])c5N([H])[H])C4([H])[H])[n+]([H])c3C([H])([H])[H])c([H])c([H])c2C1([H])[H]

>  <smiles>  (9) 
[H]c1c([H])c([H])c2c(c1[H])C([H])([H])C([H])([H])C([H])([H])C2([H])N([H])C(=O)C1([H])N(C(=O)C([H])(N([H])C(=O)C([H])(N([H])C([H])([H])[H])C([H])([H])[H])C(C([H])([H])[H])(C([H])([H])[H])C([H])([H])[H])C([H])([H])c2c([H])c(OC([H])([H])C([H])([H])C([H])([H])C(C([H])([H])[H])(C([H])([H])[H])C([H])([H])n3c([H])c(N([H])C(=O)N4C([H])([H])C([H])([H])C([H])([H])C([H])(n5nc(-c6c([H])c([H])c(Oc7c([H])c([H])c(F)c([H])c7F)c([H])c6[H])c(C(=O)N([H])[H])c5N([H])[H])C4([H])[H])[n+]([H])c3C([H])([H])[H])c([H])c([H])c2C1([H])[H]

$$$$
9:0:0
     RDKit          3D

 88 96  0  0  1  0  0  0  0  0999 V2000
  -26.8910  -22.7820   19.5000 C   0  0  0  0  0  1  0  0  0  0  0  0
  -27.9180  -23.3400   21.7010 C   0  0  0  0  0  1  0  0  0  0  0  0
  -28.1930  -23.2280   20.1910 C   0  0  1  0  0  0  0  0  0  0  0  0
  -29.3290  -21.9760   19.9700 C   0  0  0  0  0  2  0  0  0  0  0  0
  -29.8520  -19.2980   20.6670 C   0  0  0  0  0  3  0  0  0  0  0  0
  -28.4450  -19.6100   19.1100 C   0  0  0  0  0  3  0  0  0  0  0  0
  -29.5260  -17.9660   20.2190 C   0  0  0  0  0  0  0  0  0  0  0  0
  -28.5950  -18.2630   19.2050 N   0  0  0  0  0  0  0  0  0  0  0  0
  -29.1580  -20.3800   19.9650 N   0  0  0  0  0  0  0  0  0  0  0  0
  -29.7250  -16.4250   20.8340 C   0  0  0  0  0  2  0  0  0  0  0  0
  -30.5080  -15.0410   20.2850 C   0  0  0  0  0  0  0  0  0  0  0  0
  -30.4320  -12.6760   19.3310 C   0  0  0  0  0  2  0  0  0  0  0  0
  -29.4960  -12.6360   18.0980 C   0  0  0  0  0  2  0  0  0  0  0  0
  -28.0350  -12.4090   18.5300 C   0  0  0  0  0  2  0  0  0  0  0  0
  -27.6280  -13.3300   19.7090 C   0  0  0  0  0  3  0  0  0  0  0  0
  -28.6820  -13.3230   20.8360 C   0  0  0  0  0  2  0  0  0  0  0  0
  -29.9540  -13.7550   20.2430 N   0  0  0  0  0  0  0  0  0  0  0  0
  -31.6800  -15.1230   19.8940 O   0  0  0  0  0  0  0  0  0  0  0  0
  -25.2430  -13.9070   20.4340 C   0  0  0  0  0  0  0  0  0  0  0  0
  -24.1800  -13.1330   20.8060 C   0  0  0  0  0  0  0  0  0  0  0  0
  -24.6490  -11.7830   20.7910 C   0  0  0  0  0  0  0  0  0  0  0  0
  -26.2890  -13.0300   20.2040 N   0  0  0  0  0  0  0  0  0  0  0  0
  -25.9420  -11.7480   20.4880 N   0  0  0  0  0  0  0  0  0  0  0  0
  -23.9240  -10.5210   20.9880 C   0  0  0  0  0  0  0  0  0  0  0  0
  -24.3510   -9.5610   21.9320 C   0  0  0  0  0  3  0  0  0  0  0  0
  -23.6240   -8.3640   22.1160 C   0  0  0  0  0  3  0  0  0  0  0  0
  -22.4560   -8.1180   21.3530 C   0  0  0  0  0  0  0  0  0  0  0  0
  -22.0470   -9.0680   20.4010 C   0  0  0  0  0  3  0  0  0  0  0  0
  -22.7760  -10.2550   20.2160 C   0  0  0  0  0  3  0  0  0  0  0  0
  -21.7020   -6.9740   21.4450 O   0  0  0  0  0  0  0  0  0  0  0  0
  -21.6450   -6.2410   22.6040 C   0  0  0  0  0  0  0  0  0  0  0  0
  -21.2070   -6.8060   23.8210 C   0  0  0  0  0  3  0  0  0  0  0  0
  -21.0950   -5.9990   24.9710 C   0  0  0  0  0  3  0  0  0  0  0  0
  -21.4160   -4.6300   24.9070 C   0  0  0  0  0  0  0  0  0  0  0  0
  -21.8500   -4.0660   23.6930 C   0  0  0  0  0  3  0  0  0  0  0  0
  -21.9610   -4.8690   22.5460 C   0  0  0  0  0  0  0  0  0  0  0  0
  -22.3580   -4.3150   21.3740 F   0  0  0  0  0  0  0  0  0  0  0  0
  -21.3040   -3.8520   26.0090 F   0  0  0  0  0  0  0  0  0  0  0  0
  -22.7820  -13.6090   21.0630 C   0  0  0  0  0  0  0  0  0  0  0  0
  -22.0490  -12.9220   21.9330 N   0  0  0  0  0  0  0  0  0  0  0  0
  -22.3460  -14.6290   20.5290 O   0  0  0  0  0  0  0  0  0  0  0  0
  -22.4090  -12.0920   22.3810 H   0  0  0  0  0  0  0  0  0  0  0  0
  -21.1130  -13.2280   22.1540 H   0  0  0  0  0  0  0  0  0  0  0  0
  -25.4050  -15.2760   20.2450 N   0  0  0  0  0  0  0  0  0  0  0  0
  -24.6370  -15.9300   20.3570 H   0  0  0  0  0  0  0  0  0  0  0  0
  -26.2600  -15.7230   19.9330 H   0  0  0  0  0  0  0  0  0  0  0  0
  -28.4880  -24.8130   19.6400 C   0  0  0  0  0  2  0  0  0  0  0  0
  -28.2830  -26.2300   20.2630 O   0  0  0  0  0  0  0  0  0  0  0  0
  -24.5920  -31.8650   23.1870 C   0  0  0  0  0  0  0  0  0  0  0  0
  -27.1960  -27.1670   20.1370 C   0  0  0  0  0  0  0  0  0  0  0  0
  -23.3960  -30.4610   21.5460 C   0  0  0  0  0  3  0  0  0  0  0  0
  -24.8480  -28.8870   20.1140 C   0  0  0  0  0  0  0  0  0  0  0  0
  -25.9450  -30.7360   21.3790 C   0  0  0  0  0  2  0  0  0  0  0  0
  -26.0210  -29.3450   20.7260 C   0  0  0  0  0  0  0  0  0  0  0  0
  -27.1860  -28.4940   20.7270 C   0  0  0  0  0  3  0  0  0  0  0  0
  -26.0010  -26.8040   19.4860 C   0  0  0  0  0  3  0  0  0  0  0  0
  -24.8500  -27.6310   19.4810 C   0  0  0  0  0  3  0  0  0  0  0  0
  -23.6140  -29.7750   20.1670 C   0  0  0  0  0  2  0  0  0  0  0  0
  -24.6650  -31.0460   22.0910 N   0  0  0  0  0  0  0  0  0  0  0  0
  -23.5050  -32.1440   23.7160 O   0  0  0  0  0  0  0  0  0  0  0  0
  -22.7220  -29.4580   22.5140 C   0  0  0  0  0  0  0  0  0  0  0  0
  -21.3920  -29.2960   22.3970 N   0  0  0  0  0  0  0  0  0  0  0  0
  -23.3960  -28.8260   23.3320 O   0  0  0  0  0  0  0  0  0  0  0  0
  -20.9100  -29.8410   21.6960 H   0  0  0  0  0  0  0  0  0  0  0  0
  -18.0140  -28.1230   22.9340 C   0  0  0  0  0  0  0  0  0  0  0  0
  -20.5770  -28.3650   23.1790 C   0  0  0  0  0  3  0  0  0  0  0  0
  -20.6620  -26.9360   22.5960 C   0  0  0  0  0  2  0  0  0  0  0  0
  -19.5530  -26.6280   21.5900 C   0  0  0  0  0  2  0  0  0  0  0  0
  -18.1750  -26.7800   22.2420 C   0  0  0  0  0  2  0  0  0  0  0  0
  -19.1410  -28.8750   23.3590 C   0  0  0  0  0  0  0  0  0  0  0  0
  -18.9330  -30.1330   23.9690 C   0  0  0  0  0  3  0  0  0  0  0  0
  -17.6340  -30.6370   24.1540 C   0  0  0  0  0  3  0  0  0  0  0  0
  -16.5200  -29.8800   23.7470 C   0  0  0  0  0  3  0  0  0  0  0  0
  -16.7110  -28.6250   23.1430 C   0  0  0  0  0  3  0  0  0  0  0  0
  -25.8680  -32.5070   23.8160 C   0  0  0  0  0  3  0  0  0  0  0  0
  -26.3810  -31.7420   25.0990 C   0  0  1  0  0  0  0  0  0  0  0  0
  -25.2860  -31.5060   26.1670 C   0  0  0  0  0  1  0  0  0  0  0  0
  -26.9650  -30.3630   24.7180 C   0  0  0  0  0  1  0  0  0  0  0  0
  -27.5360  -32.5340   25.7600 C   0  0  0  0  0  1  0  0  0  0  0  0
  -25.5510  -33.9060   24.1490 N   0  0  0  0  0  0  0  0  0  0  0  0
  -25.8930  -34.9640   23.4020 C   0  0  0  0  0  0  0  0  0  0  0  0
  -26.5690  -34.8680   22.3760 O   0  0  0  0  0  0  0  0  0  0  0  0
  -24.9520  -34.0560   24.9450 H   0  0  0  0  0  0  0  0  0  0  0  0
  -24.1730  -36.7670   23.0470 C   0  0  0  0  0  1  0  0  0  0  0  0
  -25.4050  -36.3520   23.8670 C   0  0  0  0  0  3  0  0  0  0  0  0
  -27.5340  -37.2280   24.7230 C   0  0  0  0  0  1  0  0  0  0  0  0
  -26.4430  -37.4040   23.7690 N   0  0  0  0  0  0  0  0  0  0  0  0
  -26.0350  -38.3250   23.9110 H   0  0  0  0  0  0  0  0  0  0  0  0
  3  1  1  6
  3  2  1  0
  4  3  1  0
  6  8  2  0
  6  9  1  0
  7  5  2  0
  7 10  1  0
  8  7  1  0
  9  4  1  0
  9  5  1  0
 11 10  1  0
 12 17  1  0
 13 14  1  0
 13 12  1  0
 15 14  1  0
 15 22  1  0
 15 16  1  0
 17 11  1  0
 17 16  1  0
 18 11  2  0
 19 20  2  0
 20 39  1  0
 21 20  1  0
 21 24  1  0
 22 19  1  0
 22 23  1  0
 23 21  2  0
 24 25  1  0
 25 26  2  0
 27 30  1  0
 27 26  1  0
 28 27  2  0
 29 28  1  0
 29 24  2  0
 30 31  1  0
 31 32  1  0
 32 33  2  0
 34 33  1  0
 34 38  1  0
 35 34  2  0
 36 31  2  0
 36 35  1  0
 37 36  1  0
 39 40  1  0
 40 43  1  0
 40 42  1  0
 41 39  2  0
 44 45  1  0
 44 19  1  0
 46 44  1  0
 47  3  1  0
 47 48  1  0
 49 60  2  0
 50 48  1  0
 50 55  1  0
 51 59  1  0
 51 61  1  0
 52 58  1  0
 52 54  1  0
 53 59  1  0
 54 55  2  0
 54 53  1  0
 56 50  2  0
 57 56  1  0
 57 52  2  0
 58 51  1  0
 59 49  1  0
 61 63  2  0
 62 61  1  0
 64 62  1  0
 65 74  2  0
 65 70  1  0
 66 62  1  0
 66 70  1  0
 67 66  1  0
 68 69  1  0
 68 67  1  0
 69 65  1  0
 70 71  2  0
 71 72  1  0
 73 72  2  0
 74 73  1  0
 75 49  1  0
 75 80  1  0
 75 76  1  0
 76 79  1  1
 76 77  1  0
 78 76  1  0
 80 83  1  0
 81 85  1  0
 81 80  1  0
 82 81  2  0
 85 84  1  0
 87 85  1  0
 87 88  1  0
 87 86  1  0
M  ISO  4  10 100  11 100  47 101  48 101
M  END
>  <TORSDO>  (10) 
F 20

>  <SCORE>  (10) 
-15.061

>  <name>  (10) 
9

>  <ligand_id>  (10) 
9

>  <original_smiles>  (10) 
[H]c1c([H])c([H])c2c(c1[H])C([H])([H])C([H])([H])C([H])([H])C2([H])N([H])C(=O)C1([H])N(C(=O)C([H])(N([H])C(=O)C([H])(N([H])C([H])([H])[H])C([H])([H])[H])C(C([H])([H])[H])(C([H])([H])[H])C([H])([H])[H])C([H])([H])c2c([H])c(OC([H])([H])C(C([H])([H])[H])(C([H])([H])[H])C([H])([H])n3c([H])nc(C([H])([H])C(=O)N4C([H])([H])C([H])([H])C([H])([H])C([H])(n5nc(-c6c([H])c([H])c(Oc7c([H])c([H])c(F)c([H])c7F)c([H])c6[H])c(C(=O)N([H])[H])c5N([H])[H])C4([H])[H])c3[H])c([H])c([H])c2C1([H])[H]

>  <smiles>  (10) 
[H]c1c([H])c([H])c2c(c1[H])C([H])([H])C([H])([H])C([H])([H])C2([H])N([H])C(=O)C1([H])N(C(=O)C([H])(N([H])C(=O)C([H])(N([H])C([H])([H])[H])C([H])([H])[H])C(C([H])([H])[H])(C([H])([H])[H])C([H])([H])[H])C([H])([H])c2c([H])c(OC([H])([H])C(C([H])([H])[H])(C([H])([H])[H])C([H])([H])n3c([H])nc(C([H])([H])C(=O)N4C([H])([H])C([H])([H])C([H])([H])C([H])(n5nc(-c6c([H])c([H])c(Oc7c([H])c([H])c(F)c([H])c7F)c([H])c6[H])c(C(=O)N([H])[H])c5N([H])[H])C4([H])[H])c3[H])c([H])c([H])c2C1([H])[H]

$$$$
10:0:0
     RDKit          3D

 90 98  0  0  1  0  0  0  0  0999 V2000
  -31.3990  -18.2060   19.4470 C   0  0  0  0  0  3  0  0  0  0  0  0
  -30.2620  -17.9830   20.2520 C   0  0  0  0  0  0  0  0  0  0  0  0
  -31.0090  -20.5310   19.3220 C   0  0  0  0  0  0  0  0  0  0  0  0
  -29.8330  -20.4660   20.1220 C   0  0  0  0  0  0  0  0  0  0  0  0
  -31.5280  -21.8190   18.7160 C   0  0  0  0  0  1  0  0  0  0  0  0
  -31.7600  -19.4390   19.0060 N   0  0  0  0  0  0  0  0  0  0  0  0
  -29.5080  -19.1580   20.5800 N   0  0  0  0  0  0  0  0  0  0  0  0
  -28.3600  -16.4350   20.6670 C   0  0  0  0  0  1  0  0  0  0  0  0
  -30.2370  -16.4900   22.3140 C   0  0  0  0  0  1  0  0  0  0  0  0
  -29.8910  -16.4680   20.8110 C   0  0  2  0  0  0  0  0  0  0  0  0
  -30.5850  -15.0190   20.2540 C   0  0  0  0  0  0  0  0  0  0  0  0
  -30.4420  -12.7090   19.1650 C   0  0  0  0  0  2  0  0  0  0  0  0
  -29.4650  -12.7140   17.9630 C   0  0  0  0  0  2  0  0  0  0  0  0
  -28.0120  -12.4740   18.4200 C   0  0  0  0  0  2  0  0  0  0  0  0
  -27.6460  -13.3320   19.6550 C   0  0  0  0  0  3  0  0  0  0  0  0
  -28.7430  -13.2400   20.7450 C   0  0  0  0  0  2  0  0  0  0  0  0
  -29.9910  -13.7470   20.1460 N   0  0  0  0  0  0  0  0  0  0  0  0
  -31.7570  -15.0590   19.8600 O   0  0  0  0  0  0  0  0  0  0  0  0
  -25.2590  -13.9170   20.4010 C   0  0  0  0  0  0  0  0  0  0  0  0
  -24.2060  -13.1420   20.7950 C   0  0  0  0  0  0  0  0  0  0  0  0
  -24.6790  -11.7950   20.7660 C   0  0  0  0  0  0  0  0  0  0  0  0
  -26.3120  -13.0440   20.1660 N   0  0  0  0  0  0  0  0  0  0  0  0
  -25.9680  -11.7610   20.4460 N   0  0  0  0  0  0  0  0  0  0  0  0
  -23.9610  -10.5320   20.9670 C   0  0  0  0  0  0  0  0  0  0  0  0
  -24.4020   -9.5730   21.9040 C   0  0  0  0  0  3  0  0  0  0  0  0
  -23.6810   -8.3750   22.0930 C   0  0  0  0  0  3  0  0  0  0  0  0
  -22.5060   -8.1270   21.3440 C   0  0  0  0  0  0  0  0  0  0  0  0
  -22.0850   -9.0760   20.3950 C   0  0  0  0  0  3  0  0  0  0  0  0
  -22.8060  -10.2650   20.2050 C   0  0  0  0  0  3  0  0  0  0  0  0
  -21.7580   -6.9810   21.4420 O   0  0  0  0  0  0  0  0  0  0  0  0
  -21.7090   -6.2510   22.6030 C   0  0  0  0  0  0  0  0  0  0  0  0
  -21.2720   -6.8160   23.8210 C   0  0  0  0  0  3  0  0  0  0  0  0
  -21.1730   -6.0120   24.9740 C   0  0  0  0  0  3  0  0  0  0  0  0
  -21.4990   -4.6450   24.9100 C   0  0  0  0  0  0  0  0  0  0  0  0
  -21.9290   -4.0790   23.6970 C   0  0  0  0  0  3  0  0  0  0  0  0
  -22.0310   -4.8800   22.5470 C   0  0  0  0  0  0  0  0  0  0  0  0
  -22.4260   -4.3260   21.3740 F   0  0  0  0  0  0  0  0  0  0  0  0
  -21.3960   -3.8700   26.0150 F   0  0  0  0  0  0  0  0  0  0  0  0
  -22.8100  -13.6160   21.0790 C   0  0  0  0  0  0  0  0  0  0  0  0
  -22.0980  -12.9270   21.9630 N   0  0  0  0  0  0  0  0  0  0  0  0
  -22.3620  -14.6350   20.5550 O   0  0  0  0  0  0  0  0  0  0  0  0
  -22.4740  -12.1040   22.4110 H   0  0  0  0  0  0  0  0  0  0  0  0
  -21.1620  -13.2270   22.1970 H   0  0  0  0  0  0  0  0  0  0  0  0
  -25.3870  -15.2860   20.1980 N   0  0  0  0  0  0  0  0  0  0  0  0
  -24.6060  -15.9210   20.3180 H   0  0  0  0  0  0  0  0  0  0  0  0
  -26.2270  -15.7480   19.8760 H   0  0  0  0  0  0  0  0  0  0  0  0
  -28.8510  -21.7780   20.3810 C   0  0  0  0  0  2  0  0  0  0  0  0
  -29.2030  -23.4340   20.2920 C   0  0  0  0  0  3  0  0  0  0  0  0
  -28.0680  -24.6760   20.3150 C   0  0  0  0  0  3  0  0  0  0  0  0
  -28.3140  -26.2130   20.3150 O   0  0  0  0  0  0  0  0  0  0  0  0
  -24.6200  -31.8800   23.2510 C   0  0  0  0  0  0  0  0  0  0  0  0
  -27.2300  -27.1650   20.2610 C   0  0  0  0  0  0  0  0  0  0  0  0
  -23.4260  -30.4670   21.6230 C   0  0  0  0  0  3  0  0  0  0  0  0
  -24.8820  -28.8860   20.2160 C   0  0  0  0  0  0  0  0  0  0  0  0
  -25.9780  -30.7440   21.4570 C   0  0  0  0  0  2  0  0  0  0  0  0
  -26.0600  -29.3480   20.8170 C   0  0  0  0  0  0  0  0  0  0  0  0
  -27.2340  -28.5060   20.8190 C   0  0  0  0  0  3  0  0  0  0  0  0
  -26.0210  -26.7990   19.6260 C   0  0  0  0  0  3  0  0  0  0  0  0
  -24.8740  -27.6230   19.6060 C   0  0  0  0  0  3  0  0  0  0  0  0
  -23.6510  -29.7770   20.2510 C   0  0  0  0  0  2  0  0  0  0  0  0
  -24.6950  -31.0520   22.1650 N   0  0  0  0  0  0  0  0  0  0  0  0
  -23.5320  -32.1650   23.7760 O   0  0  0  0  0  0  0  0  0  0  0  0
  -22.7490  -29.4650   22.5930 C   0  0  0  0  0  0  0  0  0  0  0  0
  -21.4230  -29.2890   22.4650 N   0  0  0  0  0  0  0  0  0  0  0  0
  -23.4220  -28.8490   23.4230 O   0  0  0  0  0  0  0  0  0  0  0  0
  -20.9370  -29.8360   21.7680 H   0  0  0  0  0  0  0  0  0  0  0  0
  -18.0440  -28.0830   22.9710 C   0  0  0  0  0  0  0  0  0  0  0  0
  -20.6020  -28.3570   23.2430 C   0  0  0  0  0  3  0  0  0  0  0  0
  -20.7100  -26.9200   22.6840 C   0  0  0  0  0  2  0  0  0  0  0  0
  -19.6120  -26.5820   21.6690 C   0  0  0  0  0  2  0  0  0  0  0  0
  -18.2280  -26.7270   22.3080 C   0  0  0  0  0  2  0  0  0  0  0  0
  -19.1590  -28.8550   23.3960 C   0  0  0  0  0  0  0  0  0  0  0  0
  -18.9330  -30.1200   23.9760 C   0  0  0  0  0  3  0  0  0  0  0  0
  -17.6250  -30.6160   24.1370 C   0  0  0  0  0  3  0  0  0  0  0  0
  -16.5240  -29.8430   23.7280 C   0  0  0  0  0  3  0  0  0  0  0  0
  -16.7360  -28.5770   23.1510 C   0  0  0  0  0  3  0  0  0  0  0  0
  -25.8950  -32.5250   23.8750 C   0  0  0  0  0  3  0  0  0  0  0  0
  -26.4070  -31.7680   25.1620 C   0  0  1  0  0  0  0  0  0  0  0  0
  -25.3090  -31.5390   26.2270 C   0  0  0  0  0  1  0  0  0  0  0  0
  -26.9940  -30.3870   24.7900 C   0  0  0  0  0  1  0  0  0  0  0  0
  -27.5530  -32.5710   25.8210 C   0  0  0  0  0  1  0  0  0  0  0  0
  -25.5780  -33.9240   24.1960 N   0  0  0  0  0  0  0  0  0  0  0  0
  -25.9010  -34.9770   23.4330 C   0  0  0  0  0  0  0  0  0  0  0  0
  -26.5660  -34.8730   22.3990 O   0  0  0  0  0  0  0  0  0  0  0  0
  -24.9860  -34.0800   24.9990 H   0  0  0  0  0  0  0  0  0  0  0  0
  -24.1620  -36.7630   23.0870 C   0  0  0  0  0  1  0  0  0  0  0  0
  -25.4120  -36.3670   23.8880 C   0  0  0  0  0  3  0  0  0  0  0  0
  -27.5500  -37.2680   24.6970 C   0  0  0  0  0  1  0  0  0  0  0  0
  -26.4390  -37.4240   23.7610 N   0  0  0  0  0  0  0  0  0  0  0  0
  -26.0300  -38.3430   23.9050 H   0  0  0  0  0  0  0  0  0  0  0  0
  1  2  1  0
  2  7  2  0
  2 10  1  0
  3  4  2  0
  4 47  1  0
  4  7  1  0
  5  3  1  0
  6  3  1  0
  6  1  2  0
 10  8  1  1
 10  9  1  0
 11 10  1  0
 12 17  1  0
 13 14  1  0
 13 12  1  0
 15 14  1  0
 15 22  1  0
 15 16  1  0
 17 11  1  0
 17 16  1  0
 18 11  2  0
 19 20  2  0
 20 39  1  0
 21 20  1  0
 21 24  1  0
 22 19  1  0
 22 23  1  0
 23 21  2  0
 24 25  1  0
 25 26  2  0
 27 30  1  0
 27 26  1  0
 28 27  2  0
 29 28  1  0
 29 24  2  0
 30 31  1  0
 31 32  1  0
 32 33  2  0
 34 33  1  0
 34 38  1  0
 35 34  2  0
 36 31  2  0
 36 35  1  0
 37 36  1  0
 39 40  1  0
 40 43  1  0
 40 42  1  0
 41 39  2  0
 44 45  1  0
 44 19  1  0
 46 44  1  0
 48 49  2  0
 48 47  1  0
 49 50  1  0
 51 62  2  0
 52 50  1  0
 52 57  1  0
 53 61  1  0
 53 63  1  0
 54 60  1  0
 54 56  1  0
 55 61  1  0
 56 57  2  0
 56 55  1  0
 58 52  2  0
 59 58  1  0
 59 54  2  0
 60 53  1  0
 61 51  1  0
 63 65  2  0
 64 63  1  0
 66 64  1  0
 67 76  2  0
 67 72  1  0
 68 64  1  0
 68 72  1  0
 69 68  1  0
 70 71  1  0
 70 69  1  0
 71 67  1  0
 72 73  2  0
 73 74  1  0
 75 74  2  0
 76 75  1  0
 77 51  1  0
 77 82  1  0
 77 78  1  0
 78 81  1  1
 78 79  1  0
 80 78  1  0
 82 85  1  0
 83 87  1  0
 83 82  1  0
 84 83  2  0
 87 86  1  0
 89 87  1  0
 89 90  1  0
 89 88  1  0
M  ISO  4  10 100  11 100  49 101  50 101
M  END
>  <TORSDO>  (11) 
F 20

>  <SCORE>  (11) 
-14.937

>  <name>  (11) 
10

>  <ligand_id>  (11) 
10

>  <original_smiles>  (11) 
[H]c1nc(C([H])([H])[H])c(C([H])([H])C([H])([H])C([H])([H])Oc2c([H])c([H])c3c(c2[H])C([H])([H])N(C(=O)C([H])(N([H])C(=O)C([H])(N([H])C([H])([H])[H])C([H])([H])[H])C(C([H])([H])[H])(C([H])([H])[H])C([H])([H])[H])C([H])(C(=O)N([H])C2([H])c4c([H])c([H])c([H])c([H])c4C([H])([H])C([H])([H])C2([H])[H])C3([H])[H])nc1C(C(=O)N1C([H])([H])C([H])([H])C([H])([H])C([H])(n2nc(-c3c([H])c([H])c(Oc4c([H])c([H])c(F)c([H])c4F)c([H])c3[H])c(C(=O)N([H])[H])c2N([H])[H])C1([H])[H])(C([H])([H])[H])C([H])([H])[H]

>  <smiles>  (11) 
[H]c1nc(C([H])([H])[H])c(C([H])([H])C([H])([H])C([H])([H])Oc2c([H])c([H])c3c(c2[H])C([H])([H])N(C(=O)C([H])(N([H])C(=O)C([H])(N([H])C([H])([H])[H])C([H])([H])[H])C(C([H])([H])[H])(C([H])([H])[H])C([H])([H])[H])C([H])(C(=O)N([H])C2([H])c4c([H])c([H])c([H])c([H])c4C([H])([H])C([H])([H])C2([H])[H])C3([H])[H])nc1C(C(=O)N1C([H])([H])C([H])([H])C([H])([H])C([H])(n2nc(-c3c([H])c([H])c(Oc4c([H])c([H])c(F)c([H])c4F)c([H])c3[H])c(C(=O)N([H])[H])c2N([H])[H])C1([H])[H])(C([H])([H])[H])C([H])([H])[H]

$$$$
11:0:0
     RDKit          3D

 91 99  0  0  1  0  0  0  0  0999 V2000
  -30.7530  -14.5870   20.0860 C   0  0  0  0  0  0  0  0  0  0  0  0
  -30.7020  -12.0910   19.8000 C   0  0  0  0  0  2  0  0  0  0  0  0
  -29.9010  -11.6770   18.5480 C   0  0  0  0  0  2  0  0  0  0  0  0
  -28.4170  -11.5060   18.9090 C   0  0  0  0  0  2  0  0  0  0  0  0
  -27.8690  -12.7010   19.7380 C   0  0  0  0  0  3  0  0  0  0  0  0
  -28.8110  -13.1070   20.8940 C   0  0  0  0  0  2  0  0  0  0  0  0
  -30.1320  -13.3690   20.3150 N   0  0  0  0  0  0  0  0  0  0  0  0
  -31.9220  -14.5550   19.6760 O   0  0  0  0  0  0  0  0  0  0  0  0
  -27.2170  -18.5370   19.2930 C   0  0  0  0  0  0  0  0  0  0  0  0
  -27.0340  -17.4000   20.1100 C   0  0  0  0  0  0  0  0  0  0  0  0
  -28.5090  -18.7660   18.7530 C   0  0  0  0  0  0  0  0  0  0  0  0
  -29.1800  -16.6420   19.7370 C   0  0  0  0  0  0  0  0  0  0  0  0
  -26.0350  -19.4560   19.0150 C   0  0  0  0  0  1  0  0  0  0  0  0
  -25.7670  -17.1900   20.9240 C   0  0  0  0  0  1  0  0  0  0  0  0
  -31.0540  -16.6650   21.2330 C   0  0  0  0  0  1  0  0  0  0  0  0
  -27.9850  -16.4650   20.2800 N   0  0  0  0  0  0  0  0  0  0  0  0
  -29.4720  -17.7920   19.0280 N   0  0  0  0  0  0  0  0  0  0  0  0
  -30.1890  -15.8410   20.3730 N   0  0  0  0  0  0  0  0  0  0  0  0
  -25.4910  -13.3620   20.4100 C   0  0  0  0  0  0  0  0  0  0  0  0
  -24.3940  -12.6310   20.7660 C   0  0  0  0  0  0  0  0  0  0  0  0
  -24.8050  -11.2630   20.7280 C   0  0  0  0  0  0  0  0  0  0  0  0
  -26.5100  -12.4500   20.2030 N   0  0  0  0  0  0  0  0  0  0  0  0
  -26.1010  -11.1780   20.4480 N   0  0  0  0  0  0  0  0  0  0  0  0
  -24.0210  -10.0310   20.8830 C   0  0  0  0  0  0  0  0  0  0  0  0
  -24.4480   -8.9870   21.7330 C   0  0  0  0  0  3  0  0  0  0  0  0
  -23.6660   -7.8220   21.8810 C   0  0  0  0  0  3  0  0  0  0  0  0
  -22.4440   -7.6910   21.1790 C   0  0  0  0  0  0  0  0  0  0  0  0
  -22.0360   -8.7250   20.3160 C   0  0  0  0  0  3  0  0  0  0  0  0
  -22.8170   -9.8820   20.1660 C   0  0  0  0  0  3  0  0  0  0  0  0
  -21.6340   -6.5840   21.2400 O   0  0  0  0  0  0  0  0  0  0  0  0
  -21.4750   -5.8740   22.4010 C   0  0  0  0  0  0  0  0  0  0  0  0
  -20.9860   -6.4760   23.5820 C   0  0  0  0  0  3  0  0  0  0  0  0
  -20.7720   -5.6930   24.7340 C   0  0  0  0  0  3  0  0  0  0  0  0
  -21.0340   -4.3100   24.7060 C   0  0  0  0  0  0  0  0  0  0  0  0
  -21.5160   -3.7080   23.5300 C   0  0  0  0  0  3  0  0  0  0  0  0
  -21.7320   -4.4880   22.3810 C   0  0  0  0  0  0  0  0  0  0  0  0
  -22.1760   -3.8990   21.2440 F   0  0  0  0  0  0  0  0  0  0  0  0
  -20.8210   -3.5560   25.8100 F   0  0  0  0  0  0  0  0  0  0  0  0
  -23.0170  -13.1660   21.0280 C   0  0  0  0  0  0  0  0  0  0  0  0
  -22.2650  -12.5170   21.9100 N   0  0  0  0  0  0  0  0  0  0  0  0
  -22.6180  -14.1990   20.4890 O   0  0  0  0  0  0  0  0  0  0  0  0
  -22.5970  -11.6820   22.3670 H   0  0  0  0  0  0  0  0  0  0  0  0
  -21.3410  -12.8610   22.1310 H   0  0  0  0  0  0  0  0  0  0  0  0
  -25.7020  -14.7170   20.2140 N   0  0  0  0  0  0  0  0  0  0  0  0
  -24.9570  -15.3970   20.2860 H   0  0  0  0  0  0  0  0  0  0  0  0
  -26.6210  -15.1240   20.0830 H   0  0  0  0  0  0  0  0  0  0  0  0
  -28.8480  -20.0320   17.8020 C   0  0  0  0  0  2  0  0  0  0  0  0
  -28.7610  -21.6170   18.2410 C   0  0  0  0  0  2  0  0  0  0  0  0
  -28.4320  -22.8290   17.1990 C   0  0  0  0  0  3  0  0  0  0  0  0
  -28.0800  -24.3140   17.7700 C   0  0  0  0  0  3  0  0  0  0  0  0
  -27.7230  -25.5010   16.9080 O   0  0  0  0  0  0  0  0  0  0  0  0
  -25.8670  -29.7340   22.5240 C   0  0  0  0  0  0  0  0  0  0  0  0
  -26.8990  -26.5100   17.4560 C   0  0  0  0  0  0  0  0  0  0  0  0
  -24.1910  -29.4380   20.7370 C   0  0  0  0  0  3  0  0  0  0  0  0
  -25.0490  -28.4140   18.5520 C   0  0  0  0  0  0  0  0  0  0  0  0
  -26.6960  -29.3170   20.1920 C   0  0  0  0  0  2  0  0  0  0  0  0
  -26.3590  -28.3600   19.0480 C   0  0  0  0  0  0  0  0  0  0  0  0
  -27.2910  -27.4240   18.4920 C   0  0  0  0  0  3  0  0  0  0  0  0
  -25.5870  -26.6500   16.9540 C   0  0  0  0  0  3  0  0  0  0  0  0
  -24.6690  -27.5710   17.4960 C   0  0  0  0  0  3  0  0  0  0  0  0
  -24.0870  -29.3990   19.1890 C   0  0  0  0  0  2  0  0  0  0  0  0
  -25.6140  -29.4850   21.2050 N   0  0  0  0  0  0  0  0  0  0  0  0
  -24.9480  -29.9490   23.3280 O   0  0  0  0  0  0  0  0  0  0  0  0
  -23.3910  -28.2500   21.3240 C   0  0  0  0  0  0  0  0  0  0  0  0
  -22.0520  -28.3730   21.3500 N   0  0  0  0  0  0  0  0  0  0  0  0
  -23.9710  -27.2370   21.7220 O   0  0  0  0  0  0  0  0  0  0  0  0
  -21.6500  -29.2390   21.0190 H   0  0  0  0  0  0  0  0  0  0  0  0
  -18.5370  -27.6550   21.8090 C   0  0  0  0  0  0  0  0  0  0  0  0
  -21.1050  -27.3580   21.8170 C   0  0  0  0  0  3  0  0  0  0  0  0
  -20.8790  -26.2710   20.7410 C   0  0  0  0  0  2  0  0  0  0  0  0
  -19.6790  -26.5600   19.8340 C   0  0  0  0  0  2  0  0  0  0  0  0
  -18.3940  -26.6690   20.6620 C   0  0  0  0  0  2  0  0  0  0  0  0
  -19.8100  -27.9910   22.3410 C   0  0  0  0  0  0  0  0  0  0  0  0
  -19.8880  -28.9390   23.3830 C   0  0  0  0  0  3  0  0  0  0  0  0
  -18.7240  -29.5440   23.8950 C   0  0  0  0  0  3  0  0  0  0  0  0
  -17.4650  -29.1960   23.3760 C   0  0  0  0  0  3  0  0  0  0  0  0
  -17.3720  -28.2510   22.3390 C   0  0  0  0  0  3  0  0  0  0  0  0
  -27.3220  -29.7820   23.0810 C   0  0  0  0  0  3  0  0  0  0  0  0
  -27.8450  -28.3770   23.5760 C   0  0  1  0  0  0  0  0  0  0  0  0
  -26.8820  -27.6630   24.5520 C   0  0  0  0  0  1  0  0  0  0  0  0
  -28.0890  -27.4320   22.3770 C   0  0  0  0  0  1  0  0  0  0  0  0
  -29.2070  -28.5470   24.2910 C   0  0  0  0  0  1  0  0  0  0  0  0
  -27.3470  -30.7590   24.1790 N   0  0  0  0  0  0  0  0  0  0  0  0
  -27.8460  -31.9980   24.0870 C   0  0  0  0  0  0  0  0  0  0  0  0
  -28.4040  -32.4200   23.0700 O   0  0  0  0  0  0  0  0  0  0  0  0
  -26.8600  -30.4990   25.0240 H   0  0  0  0  0  0  0  0  0  0  0  0
  -26.5630  -33.9150   25.0900 C   0  0  0  0  0  1  0  0  0  0  0  0
  -27.7070  -32.9160   25.3180 C   0  0  0  0  0  3  0  0  0  0  0  0
  -30.0110  -32.7860   26.1560 C   0  0  0  0  0  1  0  0  0  0  0  0
  -28.9470  -33.6490   25.6500 N   0  0  0  0  0  0  0  0  0  0  0  0
  -28.7640  -34.3680   26.3450 H   0  0  0  0  0  0  0  0  0  0  0  0
  1  7  1  0
  1 18  1  0
  2  7  1  0
  3  4  1  0
  3  2  1  0
  5  4  1  0
  5 22  1  0
  5  6  1  0
  7  6  1  0
  8  1  2  0
  9 10  2  0
 10 16  1  0
 10 14  1  0
 11 17  2  0
 11  9  1  0
 12 16  2  0
 12 18  1  0
 13  9  1  0
 17 12  1  0
 18 15  1  0
 19 20  2  0
 20 39  1  0
 21 20  1  0
 21 24  1  0
 22 19  1  0
 22 23  1  0
 23 21  2  0
 24 25  1  0
 25 26  2  0
 27 30  1  0
 27 26  1  0
 28 27  2  0
 29 28  1  0
 29 24  2  0
 30 31  1  0
 31 32  1  0
 32 33  2  0
 34 33  1  0
 34 38  1  0
 35 34  2  0
 36 31  2  0
 36 35  1  0
 37 36  1  0
 39 40  1  0
 40 43  1  0
 40 42  1  0
 41 39  2  0
 44 45  1  0
 44 19  1  0
 46 44  1  0
 47 48  1  0
 47 11  1  0
 49 50  2  0
 49 48  1  0
 51 53  1  0
 51 50  1  0
 52 63  2  0
 53 58  1  0
 54 62  1  0
 54 64  1  0
 55 57  1  0
 55 61  1  0
 56 62  1  0
 57 56  1  0
 58 57  2  0
 59 53  2  0
 59 60  1  0
 60 55  2  0
 61 54  1  0
 62 52  1  0
 64 65  1  0
 64 66  2  0
 67 65  1  0
 68 77  2  0
 68 73  1  0
 69 65  1  0
 69 73  1  0
 70 69  1  0
 71 72  1  0
 71 70  1  0
 72 68  1  0
 73 74  2  0
 74 75  1  0
 76 75  2  0
 77 76  1  0
 78 52  1  0
 78 79  1  0
 78 83  1  0
 79 82  1  1
 79 80  1  0
 81 79  1  0
 83 86  1  0
 84 83  1  0
 84 88  1  0
 85 84  2  0
 88 87  1  0
 88 90  1  0
 90 89  1  0
 90 91  1  0
M  ISO  4   1 100  18 100  50 101  51 101
M  END
>  <TORSDO>  (12) 
F 19

>  <SCORE>  (12) 
-8.705

>  <name>  (12) 
11

>  <ligand_id>  (12) 
11

>  <original_smiles>  (12) 
[H]c1c([H])c([H])c2c(c1[H])C([H])([H])C([H])([H])C([H])([H])C2([H])N([H])C(=O)C1([H])N(C(=O)C([H])(N([H])C(=O)C([H])(N([H])C([H])([H])[H])C([H])([H])[H])C(C([H])([H])[H])(C([H])([H])[H])C([H])([H])[H])C([H])([H])c2c([H])c(OC([H])([H])C([H])([H])C([H])([H])C([H])([H])c3nc(N(C(=O)N4C([H])([H])C([H])([H])C([H])([H])C([H])(n5nc(-c6c([H])c([H])c(Oc7c([H])c([H])c(F)c([H])c7F)c([H])c6[H])c(C(=O)N([H])[H])c5N([H])[H])C4([H])[H])C([H])([H])[H])nc(C([H])([H])[H])c3C([H])([H])[H])c([H])c([H])c2C1([H])[H]

>  <smiles>  (12) 
[H]c1c([H])c([H])c2c(c1[H])C([H])([H])C([H])([H])C([H])([H])C2([H])N([H])C(=O)C1([H])N(C(=O)C([H])(N([H])C(=O)C([H])(N([H])C([H])([H])[H])C([H])([H])[H])C(C([H])([H])[H])(C([H])([H])[H])C([H])([H])[H])C([H])([H])c2c([H])c(OC([H])([H])C([H])([H])C([H])([H])C([H])([H])c3nc(N(C(=O)N4C([H])([H])C([H])([H])C([H])([H])C([H])(n5nc(-c6c([H])c([H])c(Oc7c([H])c([H])c(F)c([H])c7F)c([H])c6[H])c(C(=O)N([H])[H])c5N([H])[H])C4([H])[H])C([H])([H])[H])nc(C([H])([H])[H])c3C([H])([H])[H])c([H])c([H])c2C1([H])[H]

$$$$
12:0:0
     RDKit          3D

 93101  0  0  1  0  0  0  0  0999 V2000
  -29.6020  -21.7440   19.8270 C   0  0  0  0  0  3  0  0  0  0  0  0
  -29.2800  -20.5260   19.1650 C   0  0  0  0  0  0  0  0  0  0  0  0
  -28.5720  -22.7030   20.0260 C   0  0  0  0  0  0  0  0  0  0  0  0
  -27.9280  -20.3740   18.7580 C   0  0  0  0  0  0  0  0  0  0  0  0
  -27.2980  -22.4570   19.6380 N   0  0  0  0  0  0  0  0  0  0  0  0
  -26.9880  -21.3220   19.0060 N   0  0  0  0  0  0  0  0  0  0  0  0
  -27.5840  -19.3920   16.4360 C   0  0  0  0  0  1  0  0  0  0  0  0
  -27.4190  -19.1880   17.9500 C   0  0  0  0  0  2  0  0  0  0  0  0
  -30.3730  -19.4980   18.7970 C   0  0  0  0  0  3  0  0  0  0  0  0
  -30.3750  -18.1320   19.5920 C   0  0  0  0  0  3  0  0  0  0  0  0
  -31.5600  -17.0990   19.7360 C   0  0  0  0  0  2  0  0  0  0  0  0
  -31.7070  -14.6200   19.7280 C   0  0  0  0  0  0  0  0  0  0  0  0
  -31.2500  -12.4070   18.7110 C   0  0  0  0  0  2  0  0  0  0  0  0
  -30.2750  -12.5580   17.5210 C   0  0  0  0  0  2  0  0  0  0  0  0
  -28.8080  -12.5300   17.9990 C   0  0  0  0  0  2  0  0  0  0  0  0
  -28.5570  -13.4540   19.2220 C   0  0  0  0  0  3  0  0  0  0  0  0
  -29.6350  -13.2250   20.3000 C   0  0  0  0  0  2  0  0  0  0  0  0
  -30.9510  -13.4770   19.6850 N   0  0  0  0  0  0  0  0  0  0  0  0
  -32.7820  -14.6890   19.1160 O   0  0  0  0  0  0  0  0  0  0  0  0
  -30.8200  -15.8300   21.6840 C   0  0  0  0  0  1  0  0  0  0  0  0
  -31.1560  -15.7600   20.2540 N   0  0  0  0  0  0  0  0  0  0  0  0
  -26.2390  -14.2350   20.0250 C   0  0  0  0  0  0  0  0  0  0  0  0
  -25.1420  -13.5460   20.4670 C   0  0  0  0  0  0  0  0  0  0  0  0
  -25.5080  -12.1660   20.4450 C   0  0  0  0  0  0  0  0  0  0  0  0
  -27.2090  -13.2790   19.7650 N   0  0  0  0  0  0  0  0  0  0  0  0
  -26.7750  -12.0310   20.0740 N   0  0  0  0  0  0  0  0  0  0  0  0
  -24.7100  -10.9620   20.7000 C   0  0  0  0  0  0  0  0  0  0  0  0
  -25.0580  -10.0500   21.7190 C   0  0  0  0  0  3  0  0  0  0  0  0
  -24.2630   -8.9090   21.9600 C   0  0  0  0  0  3  0  0  0  0  0  0
  -23.1070   -8.6720   21.1770 C   0  0  0  0  0  0  0  0  0  0  0  0
  -22.7790   -9.5710   20.1470 C   0  0  0  0  0  3  0  0  0  0  0  0
  -23.5730  -10.7030   19.9060 C   0  0  0  0  0  3  0  0  0  0  0  0
  -22.2920   -7.5750   21.3210 O   0  0  0  0  0  0  0  0  0  0  0  0
  -22.0620   -7.0020   22.5470 C   0  0  0  0  0  0  0  0  0  0  0  0
  -21.5020   -7.7330   23.6170 C   0  0  0  0  0  3  0  0  0  0  0  0
  -21.2190   -7.0890   24.8370 C   0  0  0  0  0  3  0  0  0  0  0  0
  -21.4850   -5.7140   24.9860 C   0  0  0  0  0  0  0  0  0  0  0  0
  -22.0350   -4.9830   23.9190 C   0  0  0  0  0  3  0  0  0  0  0  0
  -22.3200   -5.6250   22.7020 C   0  0  0  0  0  0  0  0  0  0  0  0
  -22.8330   -4.9120   21.6700 F   0  0  0  0  0  0  0  0  0  0  0  0
  -21.2040   -5.0930   26.1560 F   0  0  0  0  0  0  0  0  0  0  0  0
  -23.7980  -14.1270   20.7940 C   0  0  0  0  0  0  0  0  0  0  0  0
  -23.0730  -13.5180   21.7270 N   0  0  0  0  0  0  0  0  0  0  0  0
  -23.4010  -15.1590   20.2550 O   0  0  0  0  0  0  0  0  0  0  0  0
  -23.4110  -12.6890   22.1930 H   0  0  0  0  0  0  0  0  0  0  0  0
  -22.1690  -13.8920   21.9790 H   0  0  0  0  0  0  0  0  0  0  0  0
  -26.4880  -15.5860   19.8090 N   0  0  0  0  0  0  0  0  0  0  0  0
  -25.7790  -16.2970   19.9490 H   0  0  0  0  0  0  0  0  0  0  0  0
  -27.3610  -15.9550   19.4540 H   0  0  0  0  0  0  0  0  0  0  0  0
  -28.8010  -24.0680   20.7010 C   0  0  0  0  0  2  0  0  0  0  0  0
  -29.8600  -25.4540   18.8130 C   0  0  0  0  0  1  0  0  0  0  0  0
  -28.6530  -25.2950   19.7500 C   0  0  0  0  0  3  0  0  0  0  0  0
  -28.5180  -26.5560   20.4650 O   0  0  0  0  0  0  0  0  0  0  0  0
  -24.6100  -31.7950   23.3530 C   0  0  0  0  0  0  0  0  0  0  0  0
  -27.3620  -27.3260   20.3510 C   0  0  0  0  0  0  0  0  0  0  0  0
  -23.4880  -30.4420   21.6150 C   0  0  0  0  0  3  0  0  0  0  0  0
  -25.0000  -28.9110   20.2530 C   0  0  0  0  0  0  0  0  0  0  0  0
  -26.0320  -30.7500   21.5860 C   0  0  0  0  0  2  0  0  0  0  0  0
  -26.1320  -29.3870   20.9250 C   0  0  0  0  0  0  0  0  0  0  0  0
  -27.3090  -28.5990   20.9780 C   0  0  0  0  0  3  0  0  0  0  0  0
  -26.2130  -26.8980   19.6420 C   0  0  0  0  0  3  0  0  0  0  0  0
  -25.0370  -27.6650   19.6110 C   0  0  0  0  0  3  0  0  0  0  0  0
  -23.7710  -29.7910   20.2380 C   0  0  0  0  0  2  0  0  0  0  0  0
  -24.7250  -31.0090   22.2430 N   0  0  0  0  0  0  0  0  0  0  0  0
  -23.4990  -32.0760   23.8280 O   0  0  0  0  0  0  0  0  0  0  0  0
  -22.7640  -29.4110   22.5130 C   0  0  0  0  0  0  0  0  0  0  0  0
  -21.4420  -29.2690   22.3160 N   0  0  0  0  0  0  0  0  0  0  0  0
  -23.3890  -28.7470   23.3430 O   0  0  0  0  0  0  0  0  0  0  0  0
  -21.0020  -29.8590   21.6240 H   0  0  0  0  0  0  0  0  0  0  0  0
  -18.0040  -28.2110   22.6720 C   0  0  0  0  0  0  0  0  0  0  0  0
  -20.5640  -28.3340   23.0210 C   0  0  0  0  0  3  0  0  0  0  0  0
  -20.6160  -26.9290   22.3770 C   0  0  0  0  0  2  0  0  0  0  0  0
  -19.5270  -26.7070   21.3230 C   0  0  0  0  0  2  0  0  0  0  0  0
  -18.1350  -26.8870   21.9380 C   0  0  0  0  0  2  0  0  0  0  0  0
  -19.1450  -28.8970   23.1670 C   0  0  0  0  0  0  0  0  0  0  0  0
  -18.9690  -30.1410   23.8110 C   0  0  0  0  0  3  0  0  0  0  0  0
  -17.6850  -30.6950   23.9680 C   0  0  0  0  0  3  0  0  0  0  0  0
  -16.5580  -30.0040   23.4890 C   0  0  0  0  0  3  0  0  0  0  0  0
  -16.7190  -28.7630   22.8470 C   0  0  0  0  0  3  0  0  0  0  0  0
  -25.8610  -32.3970   24.0610 C   0  0  0  0  0  3  0  0  0  0  0  0
  -25.5680  -33.8060   24.3570 N   0  0  0  0  0  0  0  0  0  0  0  0
  -25.9790  -34.8410   23.6130 C   0  0  0  0  0  0  0  0  0  0  0  0
  -26.7150  -34.7060   22.6300 O   0  0  0  0  0  0  0  0  0  0  0  0
  -24.9250  -33.9850   25.1150 H   0  0  0  0  0  0  0  0  0  0  0  0
  -24.3250  -36.6680   23.1200 C   0  0  0  0  0  1  0  0  0  0  0  0
  -25.4970  -36.2450   24.0200 C   0  0  0  0  0  3  0  0  0  0  0  0
  -27.5940  -37.0860   24.9810 C   0  0  0  0  0  1  0  0  0  0  0  0
  -26.5620  -37.2710   23.9640 N   0  0  0  0  0  0  0  0  0  0  0  0
  -26.1720  -38.2040   24.0720 H   0  0  0  0  0  0  0  0  0  0  0  0
  -26.2620  -31.6200   25.3750 C   0  0  1  0  0  0  0  0  0  0  0  0
  -25.0840  -31.3970   26.3510 C   0  0  0  0  0  1  0  0  0  0  0  0
  -26.8600  -30.2360   25.0290 C   0  0  0  0  0  1  0  0  0  0  0  0
  -27.3610  -32.4060   26.1280 C   0  0  0  0  0  1  0  0  0  0  0  0
  1  3  1  0
  2  1  2  0
  3 50  1  0
  4  6  2  0
  4  2  1  0
  5  3  2  0
  6  5  1  0
  7  8  1  0
  8  4  1  0
  9  2  1  0
  9 10  2  0
 10 11  1  0
 11 21  1  0
 12 21  1  0
 13 18  1  0
 14 15  1  0
 14 13  1  0
 16 15  1  0
 16 25  1  0
 16 17  1  0
 18 12  1  0
 18 17  1  0
 19 12  2  0
 21 20  1  0
 22 23  2  0
 23 42  1  0
 24 23  1  0
 24 27  1  0
 25 22  1  0
 25 26  1  0
 26 24  2  0
 27 28  1  0
 28 29  2  0
 30 33  1  0
 30 29  1  0
 31 30  2  0
 32 31  1  0
 32 27  2  0
 33 34  1  0
 34 39  2  0
 34 35  1  0
 35 36  2  0
 36 37  1  0
 37 41  1  0
 38 37  2  0
 39 38  1  0
 40 39  1  0
 42 43  1  0
 43 46  1  0
 43 45  1  0
 44 42  2  0
 47 48  1  0
 47 22  1  0
 49 47  1  0
 52 51  1  0
 52 53  1  0
 52 50  1  0
 54 65  2  0
 55 53  1  0
 55 60  1  0
 56 64  1  0
 56 66  1  0
 57 59  1  0
 58 64  1  0
 59 60  2  0
 59 58  1  0
 61 55  2  0
 62 61  1  0
 62 57  2  0
 63 57  1  0
 63 56  1  0
 64 54  1  0
 66 68  2  0
 67 66  1  0
 69 67  1  0
 70 79  2  0
 70 75  1  0
 71 67  1  0
 71 75  1  0
 72 71  1  0
 73 74  1  0
 73 72  1  0
 74 70  1  0
 75 76  2  0
 76 77  1  0
 78 77  2  0
 79 78  1  0
 80 54  1  0
 80 81  1  0
 80 90  1  0
 81 84  1  0
 82 86  1  0
 82 81  1  0
 83 82  2  0
 86 85  1  0
 88 86  1  0
 88 89  1  0
 88 87  1  0
 90 93  1  1
 90 91  1  0
 92 90  1  0
M  ISO  4  12 100  21 100  52 101  53 101
M  END
>  <TORSDO>  (13) 
F 22

>  <SCORE>  (13) 
-11.647

>  <name>  (13) 
12

>  <ligand_id>  (13) 
12

>  <original_smiles>  (13) 
[H]c1c([H])c([H])c2c(c1[H])C([H])([H])C([H])([H])C([H])([H])C2([H])N([H])C(=O)C1([H])N(C(=O)C([H])(N([H])C(=O)C([H])(N([H])C([H])([H])[H])C([H])([H])[H])C(C([H])([H])[H])(C([H])([H])[H])C([H])([H])[H])C([H])([H])c2c([H])c(OC([H])(C([H])([H])[H])C([H])([H])c3nnc(C([H])([H])C([H])([H])[H])c(C([H])([H])C([H])([H])C([H])([H])N(C(=O)N4C([H])([H])C([H])([H])C([H])([H])C([H])(n5nc(-c6c([H])c([H])c(Oc7c([H])c([H])c(F)c([H])c7F)c([H])c6[H])c(C(=O)N([H])[H])c5N([H])[H])C4([H])[H])C([H])([H])[H])c3[H])c([H])c([H])c2C1([H])[H]

>  <smiles>  (13) 
[H]c1c([H])c([H])c2c(c1[H])C([H])([H])C([H])([H])C([H])([H])C2([H])N([H])C(=O)C1([H])N(C(=O)C([H])(N([H])C(=O)C([H])(N([H])C([H])([H])[H])C([H])([H])[H])C(C([H])([H])[H])(C([H])([H])[H])C([H])([H])[H])C([H])([H])c2c([H])c(OC([H])(C([H])([H])[H])C([H])([H])c3nnc(C([H])([H])C([H])([H])[H])c(C([H])([H])C([H])([H])C([H])([H])N(C(=O)N4C([H])([H])C([H])([H])C([H])([H])C([H])(n5nc(-c6c([H])c([H])c(Oc7c([H])c([H])c(F)c([H])c7F)c([H])c6[H])c(C(=O)N([H])[H])c5N([H])[H])C4([H])[H])C([H])([H])[H])c3[H])c([H])c([H])c2C1([H])[H]

$$$$
13:0:0
     RDKit          3D

 95103  0  0  1  0  0  0  0  0999 V2000
  -28.1030  -20.5480   19.4910 C   0  0  0  0  0  1  0  0  0  0  0  0
  -28.7840  -20.6820   21.8850 C   0  0  0  0  0  1  0  0  0  0  0  0
  -29.2470  -20.9650   20.4420 C   0  0  1  0  0  0  0  0  0  0  0  0
  -30.4790  -18.6340   20.2150 C   0  0  0  0  0  3  0  0  0  0  0  0
  -30.4120  -20.0180   20.1560 C   0  0  0  0  0  0  0  0  0  0  0  0
  -32.3690  -19.3340   19.3120 C   0  0  0  0  0  3  0  0  0  0  0  0
  -33.7120  -19.4420   18.6570 C   0  0  0  0  0  1  0  0  0  0  0  0
  -31.6290  -18.2290   19.5630 N   0  0  0  0  0  0  0  0  0  0  0  0
  -31.6210  -20.3990   19.6390 N   0  0  0  0  0  0  0  0  0  0  0  0
  -31.8960  -21.3580   19.4600 H   0  0  0  0  0  0  0  0  0  0  0  0
  -31.9500  -16.8720   18.9800 C   0  0  0  0  0  3  0  0  0  0  0  0
  -32.4340  -15.6510   19.8860 C   0  0  0  0  0  0  0  0  0  0  0  0
  -32.1470  -13.2790   19.3420 C   0  0  0  0  0  2  0  0  0  0  0  0
  -31.2520  -13.1260   18.0990 C   0  0  0  0  0  2  0  0  0  0  0  0
  -29.7520  -13.1510   18.4760 C   0  0  0  0  0  2  0  0  0  0  0  0
  -29.3540  -14.2020   19.5580 C   0  0  0  0  0  3  0  0  0  0  0  0
  -30.4040  -14.3150   20.6770 C   0  0  0  0  0  2  0  0  0  0  0  0
  -31.7210  -14.4950   20.0510 N   0  0  0  0  0  0  0  0  0  0  0  0
  -33.6540  -15.6240   20.0430 O   0  0  0  0  0  0  0  0  0  0  0  0
  -27.0190  -14.9210   20.3340 C   0  0  0  0  0  0  0  0  0  0  0  0
  -25.9060  -14.2030   20.6720 C   0  0  0  0  0  0  0  0  0  0  0  0
  -26.2820  -12.8290   20.5810 C   0  0  0  0  0  0  0  0  0  0  0  0
  -28.0040  -13.9850   20.0600 N   0  0  0  0  0  0  0  0  0  0  0  0
  -27.5670  -12.7190   20.2730 N   0  0  0  0  0  0  0  0  0  0  0  0
  -25.4770  -11.6090   20.7100 C   0  0  0  0  0  0  0  0  0  0  0  0
  -25.8920  -10.5370   21.5300 C   0  0  0  0  0  3  0  0  0  0  0  0
  -25.0930   -9.3810   21.6570 C   0  0  0  0  0  3  0  0  0  0  0  0
  -23.8620   -9.2930   20.9630 C   0  0  0  0  0  0  0  0  0  0  0  0
  -23.4650  -10.3520   20.1290 C   0  0  0  0  0  3  0  0  0  0  0  0
  -24.2640  -11.4990   20.0000 C   0  0  0  0  0  3  0  0  0  0  0  0
  -23.0320   -8.1980   21.0050 O   0  0  0  0  0  0  0  0  0  0  0  0
  -22.5970   -7.6700   22.1960 C   0  0  0  0  0  0  0  0  0  0  0  0
  -21.8870   -8.4430   23.1380 C   0  0  0  0  0  3  0  0  0  0  0  0
  -21.4030   -7.8430   24.3200 C   0  0  0  0  0  3  0  0  0  0  0  0
  -21.6190   -6.4710   24.5520 C   0  0  0  0  0  0  0  0  0  0  0  0
  -22.3210   -5.6990   23.6100 C   0  0  0  0  0  3  0  0  0  0  0  0
  -22.8060   -6.2970   22.4340 C   0  0  0  0  0  0  0  0  0  0  0  0
  -23.4660   -5.5440   21.5200 F   0  0  0  0  0  0  0  0  0  0  0  0
  -21.1480   -5.8910   25.6800 F   0  0  0  0  0  0  0  0  0  0  0  0
  -24.5390  -14.7560   20.9570 C   0  0  0  0  0  0  0  0  0  0  0  0
  -23.8060  -14.1390   21.8760 N   0  0  0  0  0  0  0  0  0  0  0  0
  -24.1330  -15.7730   20.3980 O   0  0  0  0  0  0  0  0  0  0  0  0
  -24.1450  -13.3190   22.3550 H   0  0  0  0  0  0  0  0  0  0  0  0
  -22.8840  -14.4870   22.1000 H   0  0  0  0  0  0  0  0  0  0  0  0
  -27.2620  -16.2860   20.2010 N   0  0  0  0  0  0  0  0  0  0  0  0
  -26.5090  -16.9600   20.3010 H   0  0  0  0  0  0  0  0  0  0  0  0
  -28.0600  -16.6520   19.7010 H   0  0  0  0  0  0  0  0  0  0  0  0
  -30.3470  -17.6750   17.0180 C   0  0  0  0  0  1  0  0  0  0  0  0
  -32.3540  -16.2720   16.4690 C   0  0  0  0  0  1  0  0  0  0  0  0
  -31.3090  -16.6010   17.5620 C   0  0  0  0  0  3  0  0  0  0  0  0
  -29.5700  -22.5160   20.3170 C   0  0  0  0  0  3  0  0  0  0  0  0
  -28.6300  -23.4260   19.4510 C   0  0  0  0  0  3  0  0  0  0  0  0
  -28.7120  -24.9570   19.7330 C   0  0  0  0  0  2  0  0  0  0  0  0
  -27.9330  -25.8360   18.7090 C   0  0  0  0  0  2  0  0  0  0  0  0
  -27.9440  -27.2530   19.0040 O   0  0  0  0  0  0  0  0  0  0  0  0
  -24.6800  -31.7290   23.5030 C   0  0  0  0  0  0  0  0  0  0  0  0
  -26.7760  -27.9550   19.2790 C   0  0  0  0  0  0  0  0  0  0  0  0
  -23.2370  -30.6930   21.7840 C   0  0  0  0  0  3  0  0  0  0  0  0
  -24.4520  -29.4690   19.9080 C   0  0  0  0  0  0  0  0  0  0  0  0
  -25.7300  -31.0680   21.3350 C   0  0  0  0  0  2  0  0  0  0  0  0
  -25.6930  -29.8510   20.4280 C   0  0  0  0  0  0  0  0  0  0  0  0
  -26.8540  -29.1060   20.1070 C   0  0  0  0  0  3  0  0  0  0  0  0
  -25.5050  -27.5880   18.7770 C   0  0  0  0  0  3  0  0  0  0  0  0
  -24.3540  -28.3360   19.0840 C   0  0  0  0  0  3  0  0  0  0  0  0
  -23.2550  -30.3120   20.2800 C   0  0  0  0  0  2  0  0  0  0  0  0
  -24.5760  -31.1670   22.2650 N   0  0  0  0  0  0  0  0  0  0  0  0
  -23.6830  -31.8900   24.2200 O   0  0  0  0  0  0  0  0  0  0  0  0
  -22.6830  -29.4980   22.5940 C   0  0  0  0  0  0  0  0  0  0  0  0
  -21.3720  -29.2410   22.4620 N   0  0  0  0  0  0  0  0  0  0  0  0
  -23.4280  -28.8150   23.3000 O   0  0  0  0  0  0  0  0  0  0  0  0
  -20.8290  -29.8580   21.8730 H   0  0  0  0  0  0  0  0  0  0  0  0
  -18.1890  -27.5310   22.5620 C   0  0  0  0  0  0  0  0  0  0  0  0
  -20.6410  -28.1460   23.0990 C   0  0  0  0  0  3  0  0  0  0  0  0
  -21.0130  -26.7850   22.4670 C   0  0  0  0  0  2  0  0  0  0  0  0
  -20.0720  -26.3670   21.3340 C   0  0  0  0  0  2  0  0  0  0  0  0
  -18.6310  -26.2670   21.8410 C   0  0  0  0  0  2  0  0  0  0  0  0
  -19.1340  -28.4200   23.1380 C   0  0  0  0  0  0  0  0  0  0  0  0
  -18.6730  -29.5960   23.7680 C   0  0  0  0  0  3  0  0  0  0  0  0
  -17.2990  -29.8900   23.8260 C   0  0  0  0  0  3  0  0  0  0  0  0
  -16.3660  -29.0000   23.2680 C   0  0  0  0  0  3  0  0  0  0  0  0
  -16.8110  -27.8210   22.6420 C   0  0  0  0  0  3  0  0  0  0  0  0
  -26.0500  -32.2200   24.0650 C   0  0  0  0  0  3  0  0  0  0  0  0
  -25.8910  -33.6290   24.4510 N   0  0  0  0  0  0  0  0  0  0  0  0
  -26.3420  -34.6680   23.7370 C   0  0  0  0  0  0  0  0  0  0  0  0
  -27.0090  -34.5330   22.7070 O   0  0  0  0  0  0  0  0  0  0  0  0
  -25.3080  -33.8140   25.2560 H   0  0  0  0  0  0  0  0  0  0  0  0
  -24.8700  -36.6780   23.3960 C   0  0  0  0  0  1  0  0  0  0  0  0
  -26.0020  -36.0820   24.2470 C   0  0  0  0  0  3  0  0  0  0  0  0
  -28.1620  -36.6670   25.2580 C   0  0  0  0  0  1  0  0  0  0  0  0
  -27.1600  -37.0010   24.2500 N   0  0  0  0  0  0  0  0  0  0  0  0
  -26.8600  -37.9590   24.4070 H   0  0  0  0  0  0  0  0  0  0  0  0
  -26.5650  -31.3600   25.2850 C   0  0  1  0  0  0  0  0  0  0  0  0
  -25.5460  -31.2470   26.4420 C   0  0  0  0  0  1  0  0  0  0  0  0
  -26.9220  -29.9270   24.8300 C   0  0  0  0  0  1  0  0  0  0  0  0
  -27.8630  -31.9810   25.8520 C   0  0  0  0  0  1  0  0  0  0  0  0
  3  1  1  6
  3  2  1  0
  5  4  2  0
  5  3  1  0
  6  7  1  0
  6  8  1  0
  6  9  1  0
  8  4  1  0
  9  5  1  0
 10  9  1  0
 11 50  1  0
 11  8  1  0
 11 12  1  0
 12 19  2  0
 12 18  1  0
 13 18  1  0
 14 15  1  0
 14 13  1  0
 16 15  1  0
 16 23  1  0
 16 17  1  0
 18 17  1  0
 20 21  2  0
 21 40  1  0
 22 21  1  0
 22 25  1  0
 23 24  1  0
 23 20  1  0
 24 22  2  0
 25 26  1  0
 26 27  2  0
 28 31  1  0
 28 27  1  0
 29 28  2  0
 30 29  1  0
 30 25  2  0
 31 32  1  0
 32 37  2  0
 32 33  1  0
 33 34  2  0
 34 35  1  0
 35 39  1  0
 36 35  2  0
 37 36  1  0
 38 37  1  0
 40 41  1  0
 41 44  1  0
 41 43  1  0
 42 40  2  0
 45 46  1  0
 45 20  1  0
 47 45  1  0
 48 50  1  0
 49 50  1  0
 51  3  1  0
 52 53  1  0
 52 51  2  0
 54 55  1  0
 54 53  1  0
 55 57  1  0
 56 67  2  0
 57 62  1  0
 58 66  1  0
 58 68  1  0
 59 65  1  0
 59 61  1  0
 60 66  1  0
 61 60  1  0
 62 61  2  0
 63 64  1  0
 63 57  2  0
 64 59  2  0
 65 58  1  0
 66 56  1  0
 68 70  2  0
 69 68  1  0
 71 69  1  0
 72 81  2  0
 72 77  1  0
 73 69  1  0
 73 77  1  0
 74 73  1  0
 75 76  1  0
 75 74  1  0
 76 72  1  0
 77 78  2  0
 78 79  1  0
 80 79  2  0
 81 80  1  0
 82 56  1  0
 82 83  1  0
 82 92  1  0
 83 86  1  0
 84 88  1  0
 84 83  1  0
 85 84  2  0
 88 87  1  0
 88 90  1  0
 90 91  1  0
 90 89  1  0
 92 95  1  1
 92 93  1  0
 94 92  1  0
M  ISO  4  11 100  12 100  54 101  55 101
M  END
>  <TORSDO>  (14) 
F 23

>  <SCORE>  (14) 
-8.720

>  <name>  (14) 
13

>  <ligand_id>  (14) 
13

>  <original_smiles>  (14) 
[H]c1c([H])c([H])c2c(c1[H])C([H])([H])C([H])([H])C([H])([H])C2([H])N([H])C(=O)C1([H])N(C(=O)C([H])(N([H])C(=O)C([H])(N([H])C([H])([H])[H])C([H])([H])[H])C(C([H])([H])[H])(C([H])([H])[H])C([H])([H])[H])C([H])([H])c2c([H])c(OC([H])([H])C([H])([H])C([H])([H])C([H])([H])C(c3c([H])n(C([H])(C(=O)N4C([H])([H])C([H])([H])C([H])([H])C([H])(n5nc(-c6c([H])c([H])c(Oc7c([H])c([H])c(F)c([H])c7F)c([H])c6[H])c(C(=O)N([H])[H])c5N([H])[H])C4([H])[H])C([H])(C([H])([H])[H])C([H])([H])[H])c(C([H])([H])[H])[n+]3[H])(C([H])([H])[H])C([H])([H])[H])c([H])c([H])c2C1([H])[H]

>  <smiles>  (14) 
[H]c1c([H])c([H])c2c(c1[H])C([H])([H])C([H])([H])C([H])([H])C2([H])N([H])C(=O)C1([H])N(C(=O)C([H])(N([H])C(=O)C([H])(N([H])C([H])([H])[H])C([H])([H])[H])C(C([H])([H])[H])(C([H])([H])[H])C([H])([H])[H])C([H])([H])c2c([H])c(OC([H])([H])C([H])([H])C([H])([H])C([H])([H])C(c3c([H])n(C([H])(C(=O)N4C([H])([H])C([H])([H])C([H])([H])C([H])(n5nc(-c6c([H])c([H])c(Oc7c([H])c([H])c(F)c([H])c7F)c([H])c6[H])c(C(=O)N([H])[H])c5N([H])[H])C4([H])[H])C([H])(C([H])([H])[H])C([H])([H])[H])c(C([H])([H])[H])[n+]3[H])(C([H])([H])[H])C([H])([H])[H])c([H])c([H])c2C1([H])[H]

$$$$
14:0:0
     RDKit          3D

 92100  0  0  1  0  0  0  0  0999 V2000
  -28.7920  -19.8480   21.2440 C   0  0  0  0  0  3  0  0  0  0  0  0
  -30.5370  -21.0540   20.8490 C   0  0  0  0  0  3  0  0  0  0  0  0
  -29.9020  -18.9920   21.3220 C   0  0  0  0  0  0  0  0  0  0  0  0
  -31.0060  -19.8250   21.0860 N   0  0  0  0  0  0  0  0  0  0  0  0
  -29.2060  -21.1750   20.9260 N   0  0  0  0  0  0  0  0  0  0  0  0
  -31.1790  -17.3230   22.7580 C   0  0  0  0  0  1  0  0  0  0  0  0
  -30.0750  -17.4520   21.6850 C   0  0  0  0  0  3  0  0  0  0  0  0
  -30.1870  -16.2700   20.5560 C   0  0  0  0  0  3  0  0  0  0  0  0
  -30.9600  -14.8830   20.9180 C   0  0  0  0  0  0  0  0  0  0  0  0
  -30.8770  -12.4710   20.2880 C   0  0  0  0  0  2  0  0  0  0  0  0
  -30.0910  -12.2400   18.9770 C   0  0  0  0  0  2  0  0  0  0  0  0
  -28.5680  -12.2130   19.2040 C   0  0  0  0  0  2  0  0  0  0  0  0
  -28.0540  -13.2760   20.2160 C   0  0  0  0  0  3  0  0  0  0  0  0
  -28.9660  -13.3930   21.4530 C   0  0  0  0  0  2  0  0  0  0  0  0
  -30.3310  -13.6580   20.9880 N   0  0  0  0  0  0  0  0  0  0  0  0
  -32.1920  -14.9020   20.8620 O   0  0  0  0  0  0  0  0  0  0  0  0
  -25.6290  -13.9580   20.6920 C   0  0  0  0  0  0  0  0  0  0  0  0
  -24.5110  -13.2150   20.9620 C   0  0  0  0  0  0  0  0  0  0  0  0
  -24.9390  -11.8550   21.0070 C   0  0  0  0  0  0  0  0  0  0  0  0
  -26.6640  -13.0430   20.5820 N   0  0  0  0  0  0  0  0  0  0  0  0
  -26.2500  -11.7770   20.8410 N   0  0  0  0  0  0  0  0  0  0  0  0
  -24.1650  -10.6160   21.1370 C   0  0  0  0  0  0  0  0  0  0  0  0
  -24.5100   -9.6310   22.0880 C   0  0  0  0  0  3  0  0  0  0  0  0
  -23.7440   -8.4530   22.2090 C   0  0  0  0  0  3  0  0  0  0  0  0
  -22.6170   -8.2530   21.3750 C   0  0  0  0  0  0  0  0  0  0  0  0
  -22.2890   -9.2260   20.4150 C   0  0  0  0  0  3  0  0  0  0  0  0
  -23.0580  -10.3950   20.2930 C   0  0  0  0  0  3  0  0  0  0  0  0
  -21.8200   -7.1360   21.4100 O   0  0  0  0  0  0  0  0  0  0  0  0
  -21.7070   -6.3690   22.5420 C   0  0  0  0  0  0  0  0  0  0  0  0
  -21.2450   -6.9040   23.7640 C   0  0  0  0  0  3  0  0  0  0  0  0
  -21.0710   -6.0600   24.8790 C   0  0  0  0  0  3  0  0  0  0  0  0
  -21.3590   -4.6860   24.7760 C   0  0  0  0  0  0  0  0  0  0  0  0
  -21.8180   -4.1540   23.5590 C   0  0  0  0  0  3  0  0  0  0  0  0
  -21.9880   -4.9920   22.4440 C   0  0  0  0  0  0  0  0  0  0  0  0
  -22.4080   -4.4690   21.2650 F   0  0  0  0  0  0  0  0  0  0  0  0
  -21.1870   -3.8730   25.8450 F   0  0  0  0  0  0  0  0  0  0  0  0
  -23.1060  -13.7290   21.0710 C   0  0  0  0  0  0  0  0  0  0  0  0
  -22.2780  -13.0800   21.8840 N   0  0  0  0  0  0  0  0  0  0  0  0
  -22.7470  -14.7400   20.4720 O   0  0  0  0  0  0  0  0  0  0  0  0
  -22.5760  -12.2620   22.3940 H   0  0  0  0  0  0  0  0  0  0  0  0
  -21.3290  -13.4080   21.9920 H   0  0  0  0  0  0  0  0  0  0  0  0
  -25.8480  -15.3180   20.5100 N   0  0  0  0  0  0  0  0  0  0  0  0
  -25.0930  -15.9960   20.5680 H   0  0  0  0  0  0  0  0  0  0  0  0
  -26.7400  -15.7360   20.2780 H   0  0  0  0  0  0  0  0  0  0  0  0
  -30.8020  -15.6920   18.0730 C   0  0  0  0  0  1  0  0  0  0  0  0
  -31.8560  -17.6300   19.0400 C   0  0  0  0  0  1  0  0  0  0  0  0
  -29.3770  -17.6510   18.5080 C   0  0  0  0  0  1  0  0  0  0  0  0
  -30.5460  -16.8130   19.0960 C   0  0  2  0  0  0  0  0  0  0  0  0
  -28.3570  -22.3990   20.6890 C   0  0  0  0  0  2  0  0  0  0  0  0
  -29.0060  -23.8600   20.5350 C   0  0  0  0  0  3  0  0  0  0  0  0
  -27.9770  -25.0250   20.1530 C   0  0  0  0  0  3  0  0  0  0  0  0
  -28.3100  -26.4780   20.1130 O   0  0  0  0  0  0  0  0  0  0  0  0
  -24.5950  -31.8720   23.1590 C   0  0  0  0  0  0  0  0  0  0  0  0
  -27.2170  -27.3640   20.0360 C   0  0  0  0  0  0  0  0  0  0  0  0
  -23.3990  -30.4950   21.4960 C   0  0  0  0  0  3  0  0  0  0  0  0
  -24.8550  -28.9870   20.0380 C   0  0  0  0  0  0  0  0  0  0  0  0
  -25.9410  -30.8270   21.3240 C   0  0  0  0  0  2  0  0  0  0  0  0
  -26.0260  -29.4640   20.6430 C   0  0  0  0  0  0  0  0  0  0  0  0
  -27.2120  -28.6680   20.6270 C   0  0  0  0  0  3  0  0  0  0  0  0
  -26.0260  -26.9570   19.3910 C   0  0  0  0  0  3  0  0  0  0  0  0
  -24.8610  -27.7420   19.3960 C   0  0  0  0  0  3  0  0  0  0  0  0
  -23.6140  -29.8500   20.1050 C   0  0  0  0  0  2  0  0  0  0  0  0
  -24.6640  -31.0810   22.0480 N   0  0  0  0  0  0  0  0  0  0  0  0
  -23.5080  -32.1330   23.6980 O   0  0  0  0  0  0  0  0  0  0  0  0
  -22.7420  -29.4560   22.4390 C   0  0  0  0  0  0  0  0  0  0  0  0
  -21.4130  -29.2910   22.3250 N   0  0  0  0  0  0  0  0  0  0  0  0
  -23.4270  -28.8060   23.2320 O   0  0  0  0  0  0  0  0  0  0  0  0
  -20.9210  -29.8670   21.6570 H   0  0  0  0  0  0  0  0  0  0  0  0
  -18.0300  -28.1250   22.8680 C   0  0  0  0  0  0  0  0  0  0  0  0
  -20.5970  -28.3410   23.0840 C   0  0  0  0  0  3  0  0  0  0  0  0
  -20.6640  -26.9260   22.4630 C   0  0  0  0  0  2  0  0  0  0  0  0
  -19.5340  -26.6510   21.4660 C   0  0  0  0  0  2  0  0  0  0  0  0
  -18.1710  -26.7950   22.1450 C   0  0  0  0  0  2  0  0  0  0  0  0
  -19.1690  -28.8570   23.2950 C   0  0  0  0  0  0  0  0  0  0  0  0
  -18.9810  -30.1040   23.9300 C   0  0  0  0  0  3  0  0  0  0  0  0
  -17.6880  -30.6170   24.1420 C   0  0  0  0  0  3  0  0  0  0  0  0
  -16.5640  -29.8800   23.7300 C   0  0  0  0  0  3  0  0  0  0  0  0
  -16.7360  -28.6360   23.1000 C   0  0  0  0  0  3  0  0  0  0  0  0
  -25.8740  -32.5010   23.7910 C   0  0  0  0  0  3  0  0  0  0  0  0
  -25.5560  -33.8950   24.1370 N   0  0  0  0  0  0  0  0  0  0  0  0
  -25.8910  -34.9580   23.3960 C   0  0  0  0  0  0  0  0  0  0  0  0
  -26.5700  -34.8720   22.3690 O   0  0  0  0  0  0  0  0  0  0  0  0
  -24.9550  -34.0380   24.9360 H   0  0  0  0  0  0  0  0  0  0  0  0
  -24.1680  -36.7580   23.0480 C   0  0  0  0  0  1  0  0  0  0  0  0
  -25.3990  -36.3400   23.8700 C   0  0  0  0  0  3  0  0  0  0  0  0
  -27.5170  -37.2120   24.7500 C   0  0  0  0  0  1  0  0  0  0  0  0
  -26.4330  -37.3940   23.7900 N   0  0  0  0  0  0  0  0  0  0  0  0
  -26.0240  -38.3120   23.9430 H   0  0  0  0  0  0  0  0  0  0  0  0
  -26.3890  -31.7180   25.0590 C   0  0  1  0  0  0  0  0  0  0  0  0
  -25.2950  -31.4670   26.1220 C   0  0  0  0  0  1  0  0  0  0  0  0
  -26.9760  -30.3440   24.6590 C   0  0  0  0  0  1  0  0  0  0  0  0
  -27.5360  -32.5090   25.7310 C   0  0  0  0  0  1  0  0  0  0  0  0
  1  3  2  0
  2  5  1  0
  2  4  2  0
  3  7  1  0
  4  3  1  0
  5  1  1  0
  7  6  1  0
  8  9  1  0
  8  7  1  0
  9 15  1  0
 10 15  1  0
 11 12  1  0
 11 10  1  0
 13 12  1  0
 13 20  1  0
 13 14  1  0
 15 14  1  0
 16  9  2  0
 17 18  2  0
 18 19  1  0
 18 37  1  0
 19 22  1  0
 20 17  1  0
 20 21  1  0
 21 19  2  0
 22 23  1  0
 23 24  2  0
 25 28  1  0
 25 24  1  0
 26 25  2  0
 27 26  1  0
 27 22  2  0
 28 29  1  0
 29 30  1  0
 30 31  2  0
 32 31  1  0
 32 36  1  0
 33 32  2  0
 34 29  2  0
 34 33  1  0
 35 34  1  0
 37 38  1  0
 38 41  1  0
 38 40  1  0
 39 37  2  0
 42 43  1  0
 42 17  1  0
 44 42  1  0
 48 45  1  6
 46 48  1  0
 47 48  1  0
 48  8  1  0
 49  5  1  0
 50 49  1  0
 51 50  2  0
 52 51  1  0
 53 64  2  0
 54 52  1  0
 54 59  1  0
 55 63  1  0
 55 65  1  0
 56 62  1  0
 56 58  1  0
 57 63  1  0
 58 57  1  0
 59 58  2  0
 60 61  1  0
 60 54  2  0
 61 56  2  0
 62 55  1  0
 63 53  1  0
 65 67  2  0
 66 65  1  0
 68 66  1  0
 69 78  2  0
 69 74  1  0
 70 66  1  0
 70 74  1  0
 71 70  1  0
 72 73  1  0
 72 71  1  0
 73 69  1  0
 74 75  2  0
 75 76  1  0
 77 76  2  0
 78 77  1  0
 79 53  1  0
 79 80  1  0
 79 89  1  0
 80 83  1  0
 81 85  1  0
 81 80  1  0
 82 81  2  0
 85 84  1  0
 87 85  1  0
 87 88  1  0
 87 86  1  0
 89 92  1  1
 89 90  1  0
 91 89  1  0
M  ISO  4   8 100   9 100  51 101  52 101
M  END
>  <TORSDO>  (15) 
F 22

>  <SCORE>  (15) 
-11.726

>  <name>  (15) 
14

>  <ligand_id>  (15) 
14

>  <original_smiles>  (15) 
[H]c1c([H])c([H])c2c(c1[H])C([H])([H])C([H])([H])C([H])([H])C2([H])N([H])C(=O)C1([H])N(C(=O)C([H])(N([H])C(=O)C([H])(N([H])C([H])([H])[H])C([H])([H])[H])C(C([H])([H])[H])(C([H])([H])[H])C([H])([H])[H])C([H])([H])c2c([H])c(OC([H])([H])C([H])([H])C([H])([H])n3c([H])nc(C([H])(C([H])([H])[H])C([H])(C(=O)N4C([H])([H])C([H])([H])C([H])([H])C([H])(n5nc(-c6c([H])c([H])c(Oc7c([H])c([H])c(F)c([H])c7F)c([H])c6[H])c(C(=O)N([H])[H])c5N([H])[H])C4([H])[H])C(C([H])([H])[H])(C([H])([H])[H])C([H])([H])[H])c3[H])c([H])c([H])c2C1([H])[H]

>  <smiles>  (15) 
[H]c1c([H])c([H])c2c(c1[H])C([H])([H])C([H])([H])C([H])([H])C2([H])N([H])C(=O)C1([H])N(C(=O)C([H])(N([H])C(=O)C([H])(N([H])C([H])([H])[H])C([H])([H])[H])C(C([H])([H])[H])(C([H])([H])[H])C([H])([H])[H])C([H])([H])c2c([H])c(OC([H])([H])C([H])([H])C([H])([H])n3c([H])nc(C([H])(C([H])([H])[H])C([H])(C(=O)N4C([H])([H])C([H])([H])C([H])([H])C([H])(n5nc(-c6c([H])c([H])c(Oc7c([H])c([H])c(F)c([H])c7F)c([H])c6[H])c(C(=O)N([H])[H])c5N([H])[H])C4([H])[H])C(C([H])([H])[H])(C([H])([H])[H])C([H])([H])[H])c3[H])c([H])c([H])c2C1([H])[H]

$$$$
15:0:0
     RDKit          3D

 90 98  0  0  1  0  0  0  0  0999 V2000
  -28.6740  -21.3710   20.5970 C   0  0  0  0  0  3  0  0  0  0  0  0
  -28.8600  -22.8280   20.1720 C   0  0  0  0  0  0  0  0  0  0  0  0
  -29.5300  -20.1820   20.1760 C   0  0  0  0  0  0  0  0  0  0  0  0
  -30.6660  -21.8910   19.0080 C   0  0  0  0  0  0  0  0  0  0  0  0
  -31.8350  -22.1780   18.0900 C   0  0  0  0  0  1  0  0  0  0  0  0
  -29.9220  -22.9600   19.3490 N   0  0  0  0  0  0  0  0  0  0  0  0
  -30.5290  -20.6010   19.3680 N   0  0  0  0  0  0  0  0  0  0  0  0
  -30.8540  -18.5060   21.7090 C   0  0  0  0  0  1  0  0  0  0  0  0
  -29.6880  -18.5200   20.7130 C   0  0  0  0  0  3  0  0  0  0  0  0
  -28.2870  -16.7310   19.4590 C   0  0  0  0  0  1  0  0  0  0  0  0
  -30.4600  -17.3540   18.5130 C   0  0  0  0  0  1  0  0  0  0  0  0
  -29.7540  -16.9540   19.8290 C   0  0  1  0  0  0  0  0  0  0  0  0
  -30.4430  -15.3370   20.1560 C   0  0  0  0  0  0  0  0  0  0  0  0
  -30.3820  -12.8760   19.3230 C   0  0  0  0  0  2  0  0  0  0  0  0
  -29.4480  -12.6440   18.1090 C   0  0  0  0  0  2  0  0  0  0  0  0
  -28.0100  -12.3510   18.5730 C   0  0  0  0  0  2  0  0  0  0  0  0
  -27.5580  -13.3240   19.6850 C   0  0  0  0  0  3  0  0  0  0  0  0
  -28.6230  -13.5380   20.7830 C   0  0  0  0  0  2  0  0  0  0  0  0
  -29.8510  -14.0340   20.1320 N   0  0  0  0  0  0  0  0  0  0  0  0
  -31.6770  -15.2470   20.0770 O   0  0  0  0  0  0  0  0  0  0  0  0
  -25.2010  -13.9000   20.4700 C   0  0  0  0  0  0  0  0  0  0  0  0
  -24.1420  -13.1280   20.8530 C   0  0  0  0  0  0  0  0  0  0  0  0
  -24.6080  -11.7780   20.8230 C   0  0  0  0  0  0  0  0  0  0  0  0
  -26.2400  -13.0200   20.2200 N   0  0  0  0  0  0  0  0  0  0  0  0
  -25.8970  -11.7390   20.5020 N   0  0  0  0  0  0  0  0  0  0  0  0
  -23.8820  -10.5200   21.0180 C   0  0  0  0  0  0  0  0  0  0  0  0
  -24.3200   -9.5500   21.9470 C   0  0  0  0  0  3  0  0  0  0  0  0
  -23.5910   -8.3570   22.1320 C   0  0  0  0  0  3  0  0  0  0  0  0
  -22.4090   -8.1250   21.3890 C   0  0  0  0  0  0  0  0  0  0  0  0
  -21.9910   -9.0830   20.4480 C   0  0  0  0  0  3  0  0  0  0  0  0
  -22.7200  -10.2680   20.2610 C   0  0  0  0  0  3  0  0  0  0  0  0
  -21.6490   -6.9840   21.4850 O   0  0  0  0  0  0  0  0  0  0  0  0
  -21.6130   -6.2400   22.6370 C   0  0  0  0  0  0  0  0  0  0  0  0
  -21.2150   -6.7990   23.8720 C   0  0  0  0  0  3  0  0  0  0  0  0
  -21.1240   -5.9820   25.0160 C   0  0  0  0  0  3  0  0  0  0  0  0
  -21.4230   -4.6090   24.9280 C   0  0  0  0  0  0  0  0  0  0  0  0
  -21.8160   -4.0510   23.6980 C   0  0  0  0  0  3  0  0  0  0  0  0
  -21.9080   -4.8650   22.5560 C   0  0  0  0  0  0  0  0  0  0  0  0
  -22.2660   -4.3190   21.3690 F   0  0  0  0  0  0  0  0  0  0  0  0
  -21.3290   -3.8220   26.0260 F   0  0  0  0  0  0  0  0  0  0  0  0
  -22.7480  -13.6110   21.1260 C   0  0  0  0  0  0  0  0  0  0  0  0
  -22.0240  -12.9210   22.0000 N   0  0  0  0  0  0  0  0  0  0  0  0
  -22.3120  -14.6350   20.6020 O   0  0  0  0  0  0  0  0  0  0  0  0
  -22.3910  -12.0920   22.4440 H   0  0  0  0  0  0  0  0  0  0  0  0
  -21.0890  -13.2260   22.2300 H   0  0  0  0  0  0  0  0  0  0  0  0
  -25.3490  -15.2690   20.2790 N   0  0  0  0  0  0  0  0  0  0  0  0
  -24.5740  -15.9140   20.3830 H   0  0  0  0  0  0  0  0  0  0  0  0
  -26.1800  -15.7040   19.9020 H   0  0  0  0  0  0  0  0  0  0  0  0
  -27.9220  -24.2770   20.4310 C   0  0  0  0  0  2  0  0  0  0  0  0
  -28.2380  -25.8860   20.2870 O   0  0  0  0  0  0  0  0  0  0  0  0
  -24.6380  -31.8700   23.1880 C   0  0  0  0  0  0  0  0  0  0  0  0
  -27.2190  -26.9740   20.2430 C   0  0  0  0  0  0  0  0  0  0  0  0
  -23.4560  -30.4570   21.5560 C   0  0  0  0  0  3  0  0  0  0  0  0
  -24.9150  -28.8430   20.1610 C   0  0  0  0  0  0  0  0  0  0  0  0
  -26.0220  -30.6740   21.4220 C   0  0  0  0  0  2  0  0  0  0  0  0
  -26.0990  -29.2580   20.7840 C   0  0  0  0  0  0  0  0  0  0  0  0
  -27.2480  -28.3460   20.7960 C   0  0  0  0  0  3  0  0  0  0  0  0
  -26.0030  -26.7100   19.5700 C   0  0  0  0  0  3  0  0  0  0  0  0
  -24.8910  -27.5890   19.5350 C   0  0  0  0  0  3  0  0  0  0  0  0
  -23.6950  -29.7620   20.1890 C   0  0  0  0  0  2  0  0  0  0  0  0
  -24.7260  -31.0270   22.1090 N   0  0  0  0  0  0  0  0  0  0  0  0
  -23.5450  -32.1640   23.7000 O   0  0  0  0  0  0  0  0  0  0  0  0
  -22.7560  -29.4700   22.5260 C   0  0  0  0  0  0  0  0  0  0  0  0
  -21.4250  -29.3130   22.4010 N   0  0  0  0  0  0  0  0  0  0  0  0
  -23.4180  -28.8450   23.3580 O   0  0  0  0  0  0  0  0  0  0  0  0
  -20.9440  -29.8670   21.7060 H   0  0  0  0  0  0  0  0  0  0  0  0
  -18.0340  -28.1300   22.9150 C   0  0  0  0  0  0  0  0  0  0  0  0
  -20.5950  -28.3840   23.1770 C   0  0  0  0  0  3  0  0  0  0  0  0
  -20.6890  -26.9480   22.6100 C   0  0  0  0  0  2  0  0  0  0  0  0
  -19.5850  -26.6260   21.5980 C   0  0  0  0  0  2  0  0  0  0  0  0
  -18.2040  -26.7780   22.2420 C   0  0  0  0  0  2  0  0  0  0  0  0
  -19.1560  -28.8900   23.3390 C   0  0  0  0  0  0  0  0  0  0  0  0
  -18.9400  -30.1530   23.9320 C   0  0  0  0  0  3  0  0  0  0  0  0
  -17.6360  -30.6560   24.1030 C   0  0  0  0  0  3  0  0  0  0  0  0
  -16.5290  -29.8940   23.6910 C   0  0  0  0  0  3  0  0  0  0  0  0
  -16.7290  -28.6320   23.1040 C   0  0  0  0  0  3  0  0  0  0  0  0
  -25.9050  -32.5190   23.8240 C   0  0  0  0  0  3  0  0  0  0  0  0
  -26.4090  -31.7580   25.1130 C   0  0  1  0  0  0  0  0  0  0  0  0
  -25.3060  -31.5280   26.1730 C   0  0  0  0  0  1  0  0  0  0  0  0
  -26.9960  -30.3770   24.7430 C   0  0  0  0  0  1  0  0  0  0  0  0
  -27.5540  -32.5570   25.7790 C   0  0  0  0  0  1  0  0  0  0  0  0
  -25.5810  -33.9170   24.1560 N   0  0  0  0  0  0  0  0  0  0  0  0
  -25.9140  -34.9800   23.4120 C   0  0  0  0  0  0  0  0  0  0  0  0
  -26.5890  -34.8860   22.3830 O   0  0  0  0  0  0  0  0  0  0  0  0
  -24.9810  -34.0620   24.9550 H   0  0  0  0  0  0  0  0  0  0  0  0
  -24.1830  -36.7770   23.0690 C   0  0  0  0  0  1  0  0  0  0  0  0
  -25.4240  -36.3660   23.8790 C   0  0  0  0  0  3  0  0  0  0  0  0
  -27.5540  -37.2530   24.7210 C   0  0  0  0  0  1  0  0  0  0  0  0
  -26.4550  -37.4210   23.7740 N   0  0  0  0  0  0  0  0  0  0  0  0
  -26.0480  -38.3400   23.9240 H   0  0  0  0  0  0  0  0  0  0  0  0
  2 49  1  0
  2  1  2  0
  3  1  1  0
  3  9  1  0
  4  6  2  0
  4  7  1  0
  5  4  1  0
  6  2  1  0
  7  3  2  0
  9  8  1  0
 12 10  1  6
 11 12  1  0
 12 13  1  0
 12  9  1  0
 14 19  1  0
 15 16  1  0
 15 14  1  0
 17 16  1  0
 17 24  1  0
 17 18  1  0
 19 13  1  0
 19 18  1  0
 20 13  2  0
 21 22  2  0
 22 41  1  0
 23 22  1  0
 23 26  1  0
 24 21  1  0
 24 25  1  0
 25 23  2  0
 26 27  1  0
 27 28  2  0
 29 32  1  0
 29 28  1  0
 30 29  2  0
 31 30  1  0
 31 26  2  0
 32 33  1  0
 33 34  1  0
 34 35  2  0
 36 35  1  0
 36 40  1  0
 37 36  2  0
 38 33  2  0
 38 37  1  0
 39 38  1  0
 41 42  1  0
 42 45  1  0
 42 44  1  0
 43 41  2  0
 46 47  1  0
 46 21  1  0
 48 46  1  0
 50 49  1  0
 51 62  2  0
 52 50  1  0
 52 57  1  0
 53 61  1  0
 53 63  1  0
 54 60  1  0
 54 56  1  0
 55 61  1  0
 56 57  2  0
 56 55  1  0
 58 52  2  0
 59 58  1  0
 59 54  2  0
 60 53  1  0
 61 51  1  0
 63 65  2  0
 64 63  1  0
 66 64  1  0
 67 76  2  0
 67 72  1  0
 68 64  1  0
 68 72  1  0
 69 68  1  0
 70 71  1  0
 70 69  1  0
 71 67  1  0
 72 73  2  0
 73 74  1  0
 75 74  2  0
 76 75  1  0
 77 51  1  0
 77 82  1  0
 77 78  1  0
 78 81  1  1
 78 79  1  0
 80 78  1  0
 82 85  1  0
 83 87  1  0
 83 82  1  0
 84 83  2  0
 87 86  1  0
 89 87  1  0
 89 90  1  0
 89 88  1  0
M  ISO  4  12 100  13 100  49 101  50 101
M  END
>  <TORSDO>  (16) 
F 19

>  <SCORE>  (16) 
-16.458

>  <name>  (16) 
15

>  <ligand_id>  (16) 
15

>  <original_smiles>  (16) 
[H]c1c(C([H])([H])Oc2c([H])c([H])c3c(c2[H])C([H])([H])N(C(=O)C([H])(N([H])C(=O)C([H])(N([H])C([H])([H])[H])C([H])([H])[H])C(C([H])([H])[H])(C([H])([H])[H])C([H])([H])[H])C([H])(C(=O)N([H])C2([H])c4c([H])c([H])c([H])c([H])c4C([H])([H])C([H])([H])C2([H])[H])C3([H])[H])nc(C([H])([H])[H])nc1C([H])(C([H])([H])[H])C(C(=O)N1C([H])([H])C([H])([H])C([H])([H])C([H])(n2nc(-c3c([H])c([H])c(Oc4c([H])c([H])c(F)c([H])c4F)c([H])c3[H])c(C(=O)N([H])[H])c2N([H])[H])C1([H])[H])(C([H])([H])[H])C([H])([H])[H]

>  <smiles>  (16) 
[H]c1c(C([H])([H])Oc2c([H])c([H])c3c(c2[H])C([H])([H])N(C(=O)C([H])(N([H])C(=O)C([H])(N([H])C([H])([H])[H])C([H])([H])[H])C(C([H])([H])[H])(C([H])([H])[H])C([H])([H])[H])C([H])(C(=O)N([H])C2([H])c4c([H])c([H])c([H])c([H])c4C([H])([H])C([H])([H])C2([H])[H])C3([H])[H])nc(C([H])([H])[H])nc1C([H])(C([H])([H])[H])C(C(=O)N1C([H])([H])C([H])([H])C([H])([H])C([H])(n2nc(-c3c([H])c([H])c(Oc4c([H])c([H])c(F)c([H])c4F)c([H])c3[H])c(C(=O)N([H])[H])c2N([H])[H])C1([H])[H])(C([H])([H])[H])C([H])([H])[H]

$$$$
16:0:0
     RDKit          3D

 90 98  0  0  1  0  0  0  0  0999 V2000
  -30.6590  -21.0230   21.3450 C   0  0  0  0  0  3  0  0  0  0  0  0
  -29.5470  -21.0690   20.4620 C   0  0  0  0  0  0  0  0  0  0  0  0
  -31.1270  -19.7270   21.3210 C   0  0  0  0  0  0  0  0  0  0  0  0
  -32.3390  -19.1890   22.0100 C   0  0  0  0  0  1  0  0  0  0  0  0
  -29.3490  -19.8150   19.9700 N   0  0  0  0  0  0  0  0  0  0  0  0
  -30.3120  -18.9580   20.4910 N   0  0  0  0  0  0  0  0  0  0  0  0
  -28.6430  -22.3000   20.0710 C   0  0  0  0  0  2  0  0  0  0  0  0
  -29.0480  -23.8170   20.4450 C   0  0  0  0  0  3  0  0  0  0  0  0
  -28.0240  -24.9790   20.0050 C   0  0  0  0  0  3  0  0  0  0  0  0
  -28.2600  -26.4380   20.2470 O   0  0  0  0  0  0  0  0  0  0  0  0
  -24.5690  -31.9060   23.2420 C   0  0  0  0  0  0  0  0  0  0  0  0
  -27.1560  -27.3190   20.1790 C   0  0  0  0  0  0  0  0  0  0  0  0
  -23.3540  -30.5050   21.6130 C   0  0  0  0  0  3  0  0  0  0  0  0
  -24.7950  -28.9540   20.1790 C   0  0  0  0  0  0  0  0  0  0  0  0
  -25.8960  -30.8160   21.4160 C   0  0  0  0  0  2  0  0  0  0  0  0
  -25.9710  -29.4360   20.7690 C   0  0  0  0  0  0  0  0  0  0  0  0
  -27.1530  -28.6300   20.7580 C   0  0  0  0  0  3  0  0  0  0  0  0
  -25.9570  -26.9070   19.5500 C   0  0  0  0  0  3  0  0  0  0  0  0
  -24.7920  -27.6970   19.5590 C   0  0  0  0  0  3  0  0  0  0  0  0
  -23.5590  -29.8300   20.2330 C   0  0  0  0  0  2  0  0  0  0  0  0
  -24.6260  -31.0940   22.1470 N   0  0  0  0  0  0  0  0  0  0  0  0
  -23.4890  -32.1860   23.7820 O   0  0  0  0  0  0  0  0  0  0  0  0
  -22.6960  -29.4910   22.5790 C   0  0  0  0  0  0  0  0  0  0  0  0
  -21.3680  -29.3110   22.4570 N   0  0  0  0  0  0  0  0  0  0  0  0
  -23.3780  -28.8700   23.3970 O   0  0  0  0  0  0  0  0  0  0  0  0
  -20.8770  -29.8670   21.7710 H   0  0  0  0  0  0  0  0  0  0  0  0
  -17.9960  -28.1080   22.9740 C   0  0  0  0  0  0  0  0  0  0  0  0
  -20.5540  -28.3750   23.2350 C   0  0  0  0  0  3  0  0  0  0  0  0
  -20.6580  -26.9410   22.6680 C   0  0  0  0  0  2  0  0  0  0  0  0
  -19.5550  -26.6090   21.6580 C   0  0  0  0  0  2  0  0  0  0  0  0
  -18.1740  -26.7550   22.3040 C   0  0  0  0  0  2  0  0  0  0  0  0
  -19.1140  -28.8750   23.3970 C   0  0  0  0  0  0  0  0  0  0  0  0
  -18.8930  -30.1400   23.9820 C   0  0  0  0  0  3  0  0  0  0  0  0
  -17.5870  -30.6400   24.1490 C   0  0  0  0  0  3  0  0  0  0  0  0
  -16.4840  -29.8690   23.7430 C   0  0  0  0  0  3  0  0  0  0  0  0
  -16.6900  -28.6060   23.1610 C   0  0  0  0  0  3  0  0  0  0  0  0
  -25.8540  -32.5410   23.8550 C   0  0  0  0  0  3  0  0  0  0  0  0
  -25.5440  -33.9370   24.1940 N   0  0  0  0  0  0  0  0  0  0  0  0
  -25.8620  -34.9940   23.4350 C   0  0  0  0  0  0  0  0  0  0  0  0
  -26.5180  -34.8960   22.3950 O   0  0  0  0  0  0  0  0  0  0  0  0
  -24.9590  -34.0850   25.0020 H   0  0  0  0  0  0  0  0  0  0  0  0
  -24.1210  -36.7820   23.1170 C   0  0  0  0  0  1  0  0  0  0  0  0
  -25.3770  -36.3790   23.9050 C   0  0  0  0  0  3  0  0  0  0  0  0
  -27.5240  -37.2700   24.7000 C   0  0  0  0  0  1  0  0  0  0  0  0
  -26.4040  -37.4380   23.7770 N   0  0  0  0  0  0  0  0  0  0  0  0
  -25.9970  -38.3550   23.9350 H   0  0  0  0  0  0  0  0  0  0  0  0
  -26.3830  -31.7670   25.1250 C   0  0  1  0  0  0  0  0  0  0  0  0
  -25.2990  -31.5250   26.2020 C   0  0  0  0  0  1  0  0  0  0  0  0
  -26.9660  -30.3910   24.7280 C   0  0  0  0  0  1  0  0  0  0  0  0
  -27.5370  -32.5630   25.7800 C   0  0  0  0  0  1  0  0  0  0  0  0
  -30.5310  -17.5280   19.9900 C   0  0  0  0  0  2  0  0  0  0  0  0
  -30.6230  -16.2850   22.2630 C   0  0  0  0  0  1  0  0  0  0  0  0
  -28.5400  -16.3660   20.9150 C   0  0  0  0  0  1  0  0  0  0  0  0
  -30.0720  -16.2110   20.8230 C   0  0  1  0  0  0  0  0  0  0  0  0
  -30.6340  -14.8060   20.2100 C   0  0  0  0  0  0  0  0  0  0  0  0
  -30.3790  -12.5720   19.0900 C   0  0  0  0  0  2  0  0  0  0  0  0
  -29.3930  -12.6720   17.9030 C   0  0  0  0  0  2  0  0  0  0  0  0
  -27.9370  -12.4760   18.3740 C   0  0  0  0  0  2  0  0  0  0  0  0
  -27.6130  -13.3160   19.6360 C   0  0  0  0  0  3  0  0  0  0  0  0
  -28.7170  -13.1540   20.7090 C   0  0  0  0  0  2  0  0  0  0  0  0
  -29.9840  -13.5860   20.1040 N   0  0  0  0  0  0  0  0  0  0  0  0
  -31.7720  -14.8710   19.7330 O   0  0  0  0  0  0  0  0  0  0  0  0
  -25.2370  -13.9050   20.4190 C   0  0  0  0  0  0  0  0  0  0  0  0
  -24.1850  -13.1270   20.8170 C   0  0  0  0  0  0  0  0  0  0  0  0
  -24.6550  -11.7790   20.7720 C   0  0  0  0  0  0  0  0  0  0  0  0
  -26.2820  -13.0300   20.1600 N   0  0  0  0  0  0  0  0  0  0  0  0
  -25.9370  -11.7470   20.4310 N   0  0  0  0  0  0  0  0  0  0  0  0
  -23.9400  -10.5120   20.9740 C   0  0  0  0  0  0  0  0  0  0  0  0
  -24.3960   -9.5480   21.8980 C   0  0  0  0  0  3  0  0  0  0  0  0
  -23.6810   -8.3470   22.0900 C   0  0  0  0  0  3  0  0  0  0  0  0
  -22.4950   -8.1030   21.3570 C   0  0  0  0  0  0  0  0  0  0  0  0
  -22.0580   -9.0560   20.4200 C   0  0  0  0  0  3  0  0  0  0  0  0
  -22.7750  -10.2490   20.2270 C   0  0  0  0  0  3  0  0  0  0  0  0
  -21.7500   -6.9530   21.4580 O   0  0  0  0  0  0  0  0  0  0  0  0
  -21.7170   -6.2170   22.6150 C   0  0  0  0  0  0  0  0  0  0  0  0
  -21.3100   -6.7790   23.8440 C   0  0  0  0  0  3  0  0  0  0  0  0
  -21.2240   -5.9690   24.9940 C   0  0  0  0  0  3  0  0  0  0  0  0
  -21.5350   -4.5990   24.9160 C   0  0  0  0  0  0  0  0  0  0  0  0
  -21.9350   -4.0350   23.6910 C   0  0  0  0  0  3  0  0  0  0  0  0
  -22.0230   -4.8430   22.5430 C   0  0  0  0  0  0  0  0  0  0  0  0
  -22.3890   -4.2920   21.3610 F   0  0  0  0  0  0  0  0  0  0  0  0
  -21.4460   -3.8180   26.0180 F   0  0  0  0  0  0  0  0  0  0  0  0
  -22.7930  -13.5970   21.1250 C   0  0  0  0  0  0  0  0  0  0  0  0
  -22.0930  -12.8970   22.0110 N   0  0  0  0  0  0  0  0  0  0  0  0
  -22.3350  -14.6200   20.6180 O   0  0  0  0  0  0  0  0  0  0  0  0
  -22.4760  -12.0700   22.4460 H   0  0  0  0  0  0  0  0  0  0  0  0
  -21.1600  -13.1920   22.2610 H   0  0  0  0  0  0  0  0  0  0  0  0
  -25.3820  -15.2770   20.2380 N   0  0  0  0  0  0  0  0  0  0  0  0
  -24.6120  -15.9210   20.3790 H   0  0  0  0  0  0  0  0  0  0  0  0
  -26.2270  -15.7310   19.9190 H   0  0  0  0  0  0  0  0  0  0  0  0
  2  1  1  0
  3  1  2  0
  3  4  1  0
  5  2  2  0
  5  6  1  0
  6  3  1  0
  7  8  1  0
  7  2  1  0
  9 10  1  0
  9  8  2  0
 11 22  2  0
 12 10  1  0
 12 17  1  0
 13 21  1  0
 13 23  1  0
 14 20  1  0
 14 16  1  0
 15 21  1  0
 16 15  1  0
 17 16  2  0
 18 19  1  0
 18 12  2  0
 19 14  2  0
 20 13  1  0
 21 11  1  0
 23 25  2  0
 24 23  1  0
 26 24  1  0
 27 36  2  0
 27 32  1  0
 28 24  1  0
 28 32  1  0
 29 28  1  0
 30 31  1  0
 30 29  1  0
 31 27  1  0
 32 33  2  0
 33 34  1  0
 35 34  2  0
 36 35  1  0
 37 11  1  0
 37 38  1  0
 37 47  1  0
 38 41  1  0
 39 43  1  0
 39 38  1  0
 40 39  2  0
 43 42  1  0
 45 43  1  0
 45 46  1  0
 45 44  1  0
 47 50  1  1
 47 48  1  0
 49 47  1  0
 51  6  1  0
 51 54  1  0
 54 53  1  1
 54 52  1  0
 55 54  1  0
 56 61  1  0
 57 58  1  0
 57 56  1  0
 59 58  1  0
 59 66  1  0
 59 60  1  0
 61 55  1  0
 61 60  1  0
 62 55  2  0
 63 64  2  0
 64 83  1  0
 65 64  1  0
 65 68  1  0
 66 63  1  0
 66 67  1  0
 67 65  2  0
 68 69  1  0
 69 70  2  0
 71 74  1  0
 71 70  1  0
 72 71  2  0
 73 72  1  0
 73 68  2  0
 74 75  1  0
 75 76  1  0
 76 77  2  0
 78 77  1  0
 78 82  1  0
 79 78  2  0
 80 75  2  0
 80 79  1  0
 81 80  1  0
 83 84  1  0
 84 87  1  0
 84 86  1  0
 85 83  2  0
 88 89  1  0
 88 63  1  0
 90 88  1  0
M  ISO  4   9 101  10 101  54 100  55 100
M  END
>  <TORSDO>  (17) 
F 21

>  <SCORE>  (17) 
-13.403

>  <name>  (17) 
16

>  <ligand_id>  (17) 
16

>  <original_smiles>  (17) 
[H]c1c([H])c([H])c2c(c1[H])C([H])([H])C([H])([H])C([H])([H])C2([H])N([H])C(=O)C1([H])N(C(=O)C([H])(N([H])C(=O)C([H])(N([H])C([H])([H])[H])C([H])([H])[H])C(C([H])([H])[H])(C([H])([H])[H])C([H])([H])[H])C([H])([H])c2c([H])c(OC([H])([H])C([H])([H])C([H])([H])c3nn(C([H])([H])C(C(=O)N4C([H])([H])C([H])([H])C([H])([H])C([H])(n5nc(-c6c([H])c([H])c(Oc7c([H])c([H])c(F)c([H])c7F)c([H])c6[H])c(C(=O)N([H])[H])c5N([H])[H])C4([H])[H])(C([H])([H])[H])C([H])([H])[H])c(C([H])([H])[H])c3[H])c([H])c([H])c2C1([H])[H]

>  <smiles>  (17) 
[H]c1c([H])c([H])c2c(c1[H])C([H])([H])C([H])([H])C([H])([H])C2([H])N([H])C(=O)C1([H])N(C(=O)C([H])(N([H])C(=O)C([H])(N([H])C([H])([H])[H])C([H])([H])[H])C(C([H])([H])[H])(C([H])([H])[H])C([H])([H])[H])C([H])([H])c2c([H])c(OC([H])([H])C([H])([H])C([H])([H])c3nn(C([H])([H])C(C(=O)N4C([H])([H])C([H])([H])C([H])([H])C([H])(n5nc(-c6c([H])c([H])c(Oc7c([H])c([H])c(F)c([H])c7F)c([H])c6[H])c(C(=O)N([H])[H])c5N([H])[H])C4([H])[H])(C([H])([H])[H])C([H])([H])[H])c(C([H])([H])[H])c3[H])c([H])c([H])c2C1([H])[H]

$$$$
17:0:0
     RDKit          3D

 93101  0  0  1  0  0  0  0  0999 V2000
  -28.3200  -21.2100   19.9070 C   0  0  0  0  0  3  0  0  0  0  0  0
  -29.2900  -19.0040   18.9620 C   0  0  0  0  0  3  0  0  0  0  0  0
  -29.8930  -18.1700   21.4600 C   0  0  0  0  0  3  0  0  0  0  0  0
  -29.7650  -17.6710   19.1240 C   0  0  0  0  0  0  0  0  0  0  0  0
  -30.1060  -17.2020   20.4340 C   0  0  0  0  0  0  0  0  0  0  0  0
  -29.1090  -19.8720   20.0630 C   0  0  0  0  0  0  0  0  0  0  0  0
  -29.8460  -16.8280   17.8640 C   0  0  0  0  0  1  0  0  0  0  0  0
  -29.4030  -19.4300   21.3030 N   0  0  0  0  0  0  0  0  0  0  0  0
  -30.1370  -15.3220   22.1940 C   0  0  0  0  0  1  0  0  0  0  0  0
  -32.2230  -16.1440   21.2310 C   0  0  0  0  0  1  0  0  0  0  0  0
  -30.7500  -15.8000   20.8550 C   0  0  2  0  0  0  0  0  0  0  0  0
  -30.8900  -14.6100   19.7780 C   0  0  0  0  0  0  0  0  0  0  0  0
  -30.3170  -12.5340   18.5070 C   0  0  0  0  0  2  0  0  0  0  0  0
  -29.2700  -12.7940   17.4030 C   0  0  0  0  0  2  0  0  0  0  0  0
  -27.8410  -12.6790   17.9640 C   0  0  0  0  0  2  0  0  0  0  0  0
  -27.6680  -13.4650   19.2880 C   0  0  0  0  0  3  0  0  0  0  0  0
  -28.8120  -13.1380   20.2640 C   0  0  0  0  0  2  0  0  0  0  0  0
  -30.0900  -13.4930   19.6210 N   0  0  0  0  0  0  0  0  0  0  0  0
  -31.8650  -14.7160   19.0270 O   0  0  0  0  0  0  0  0  0  0  0  0
  -25.4020  -14.1380   20.3000 C   0  0  0  0  0  0  0  0  0  0  0  0
  -24.3370  -13.3980   20.7380 C   0  0  0  0  0  0  0  0  0  0  0  0
  -24.7130  -12.0300   20.5740 C   0  0  0  0  0  0  0  0  0  0  0  0
  -26.3610  -13.2230   19.8960 N   0  0  0  0  0  0  0  0  0  0  0  0
  -25.9580  -11.9450   20.1190 N   0  0  0  0  0  0  0  0  0  0  0  0
  -23.9400  -10.7970   20.7680 C   0  0  0  0  0  0  0  0  0  0  0  0
  -24.4090   -9.7530   21.5960 C   0  0  0  0  0  3  0  0  0  0  0  0
  -23.6390   -8.5840   21.7790 C   0  0  0  0  0  3  0  0  0  0  0  0
  -22.3840   -8.4530   21.1370 C   0  0  0  0  0  0  0  0  0  0  0  0
  -21.9330   -9.4860   20.2970 C   0  0  0  0  0  3  0  0  0  0  0  0
  -22.7040  -10.6450   20.1110 C   0  0  0  0  0  3  0  0  0  0  0  0
  -21.5790   -7.3440   21.2370 O   0  0  0  0  0  0  0  0  0  0  0  0
  -21.5960   -6.5390   22.3480 C   0  0  0  0  0  0  0  0  0  0  0  0
  -21.3450   -7.0480   23.6410 C   0  0  0  0  0  3  0  0  0  0  0  0
  -21.3040   -6.1740   24.7460 C   0  0  0  0  0  3  0  0  0  0  0  0
  -21.5050   -4.7930   24.5600 C   0  0  0  0  0  0  0  0  0  0  0  0
  -21.7490   -4.2830   23.2730 C   0  0  0  0  0  3  0  0  0  0  0  0
  -21.7920   -5.1540   22.1690 C   0  0  0  0  0  0  0  0  0  0  0  0
  -22.0070   -4.6560   20.9280 F   0  0  0  0  0  0  0  0  0  0  0  0
  -21.4570   -3.9520   25.6200 F   0  0  0  0  0  0  0  0  0  0  0  0
  -23.0080  -13.9280   21.1930 C   0  0  0  0  0  0  0  0  0  0  0  0
  -22.3460  -13.2210   22.1040 N   0  0  0  0  0  0  0  0  0  0  0  0
  -22.5710  -15.0000   20.7780 O   0  0  0  0  0  0  0  0  0  0  0  0
  -22.7150  -12.3530   22.4610 H   0  0  0  0  0  0  0  0  0  0  0  0
  -21.4570  -13.5550   22.4490 H   0  0  0  0  0  0  0  0  0  0  0  0
  -25.6280  -15.5070   20.1930 N   0  0  0  0  0  0  0  0  0  0  0  0
  -24.9210  -16.1910   20.4410 H   0  0  0  0  0  0  0  0  0  0  0  0
  -26.4720  -15.9250   19.8240 H   0  0  0  0  0  0  0  0  0  0  0  0
  -28.8560  -22.5920   20.4780 C   0  0  0  0  0  3  0  0  0  0  0  0
  -26.5490  -23.5980   20.3430 C   0  0  0  0  0  1  0  0  0  0  0  0
  -28.2750  -24.1530   18.5520 C   0  0  0  0  0  1  0  0  0  0  0  0
  -28.0390  -23.9060   20.0570 C   0  0  2  0  0  0  0  0  0  0  0  0
  -28.4460  -25.2370   20.8430 C   0  0  0  0  0  2  0  0  0  0  0  0
  -28.4360  -26.5570   20.1880 O   0  0  0  0  0  0  0  0  0  0  0  0
  -24.5950  -31.8640   23.1980 C   0  0  0  0  0  0  0  0  0  0  0  0
  -27.2860  -27.3410   20.2040 C   0  0  0  0  0  0  0  0  0  0  0  0
  -23.4240  -30.4490   21.5450 C   0  0  0  0  0  3  0  0  0  0  0  0
  -24.9060  -28.9050   20.1530 C   0  0  0  0  0  0  0  0  0  0  0  0
  -25.9570  -30.7940   21.3980 C   0  0  0  0  0  2  0  0  0  0  0  0
  -26.0560  -29.4110   20.7710 C   0  0  0  0  0  0  0  0  0  0  0  0
  -27.2500  -28.6360   20.7980 C   0  0  0  0  0  3  0  0  0  0  0  0
  -26.1310  -26.8980   19.5310 C   0  0  0  0  0  3  0  0  0  0  0  0
  -24.9410  -27.6500   19.5290 C   0  0  0  0  0  3  0  0  0  0  0  0
  -23.6620  -29.7680   20.1730 C   0  0  0  0  0  2  0  0  0  0  0  0
  -24.6760  -31.0530   22.1050 N   0  0  0  0  0  0  0  0  0  0  0  0
  -23.5030  -32.1380   23.7160 O   0  0  0  0  0  0  0  0  0  0  0  0
  -22.7550  -29.4320   22.5010 C   0  0  0  0  0  0  0  0  0  0  0  0
  -21.4340  -29.2470   22.3540 N   0  0  0  0  0  0  0  0  0  0  0  0
  -23.4260  -28.8110   23.3290 O   0  0  0  0  0  0  0  0  0  0  0  0
  -20.9530  -29.7980   21.6570 H   0  0  0  0  0  0  0  0  0  0  0  0
  -18.0540  -28.0370   22.8010 C   0  0  0  0  0  0  0  0  0  0  0  0
  -20.6060  -28.3090   23.1150 C   0  0  0  0  0  3  0  0  0  0  0  0
  -20.7260  -26.8760   22.5490 C   0  0  0  0  0  2  0  0  0  0  0  0
  -19.6440  -26.5410   21.5180 C   0  0  0  0  0  2  0  0  0  0  0  0
  -18.2500  -26.6840   22.1360 C   0  0  0  0  0  2  0  0  0  0  0  0
  -19.1620  -28.8060   23.2450 C   0  0  0  0  0  0  0  0  0  0  0  0
  -18.9270  -30.0720   23.8270 C   0  0  0  0  0  3  0  0  0  0  0  0
  -17.6180  -30.5680   23.9660 C   0  0  0  0  0  3  0  0  0  0  0  0
  -16.5230  -29.7950   23.5380 C   0  0  0  0  0  3  0  0  0  0  0  0
  -16.7430  -28.5300   22.9620 C   0  0  0  0  0  3  0  0  0  0  0  0
  -25.8660  -32.5050   23.8350 C   0  0  0  0  0  3  0  0  0  0  0  0
  -25.5430  -33.9010   24.1630 N   0  0  0  0  0  0  0  0  0  0  0  0
  -25.8710  -34.9550   23.4050 C   0  0  0  0  0  0  0  0  0  0  0  0
  -26.5480  -34.8550   22.3780 O   0  0  0  0  0  0  0  0  0  0  0  0
  -24.9420  -34.0500   24.9610 H   0  0  0  0  0  0  0  0  0  0  0  0
  -24.1260  -36.7290   23.0430 C   0  0  0  0  0  1  0  0  0  0  0  0
  -25.3690  -36.3390   23.8570 C   0  0  0  0  0  3  0  0  0  0  0  0
  -27.4960  -37.2430   24.6860 C   0  0  0  0  0  1  0  0  0  0  0  0
  -26.3910  -37.4020   23.7440 N   0  0  0  0  0  0  0  0  0  0  0  0
  -25.9770  -38.3170   23.8960 H   0  0  0  0  0  0  0  0  0  0  0  0
  -26.3730  -31.7350   25.1160 C   0  0  1  0  0  0  0  0  0  0  0  0
  -25.2680  -31.4860   26.1700 C   0  0  0  0  0  1  0  0  0  0  0  0
  -26.9720  -30.3630   24.7270 C   0  0  0  0  0  1  0  0  0  0  0  0
  -27.5110  -32.5360   25.7920 C   0  0  0  0  0  1  0  0  0  0  0  0
  1  6  1  0
  1 48  2  0
  2  4  2  0
  2  6  1  0
  4  5  1  0
  5 11  1  0
  5  3  2  0
  6  8  2  0
  7  4  1  0
  8  3  1  0
 11 10  1  1
 11  9  1  0
 12 11  1  0
 13 18  1  0
 14 15  1  0
 14 13  1  0
 16 15  1  0
 16 23  1  0
 16 17  1  0
 18 12  1  0
 18 17  1  0
 19 12  2  0
 20 21  2  0
 21 40  1  0
 22 21  1  0
 22 25  1  0
 23 24  1  0
 23 20  1  0
 24 22  2  0
 25 26  1  0
 26 27  2  0
 28 31  1  0
 28 27  1  0
 29 28  2  0
 30 29  1  0
 30 25  2  0
 31 32  1  0
 32 33  1  0
 33 34  2  0
 35 34  1  0
 35 39  1  0
 36 35  2  0
 37 32  2  0
 37 36  1  0
 38 37  1  0
 40 41  1  0
 41 44  1  0
 41 43  1  0
 42 40  2  0
 45 20  1  0
 45 46  1  0
 47 45  1  0
 51 50  1  6
 51 49  1  0
 51 48  1  0
 51 52  1  0
 53 55  1  0
 53 52  1  0
 54 65  2  0
 55 60  1  0
 56 64  1  0
 56 66  1  0
 57 63  1  0
 57 59  1  0
 58 64  1  0
 59 60  2  0
 59 58  1  0
 61 55  2  0
 62 61  1  0
 62 57  2  0
 63 56  1  0
 64 54  1  0
 66 68  2  0
 67 66  1  0
 69 67  1  0
 70 79  2  0
 70 75  1  0
 71 67  1  0
 71 75  1  0
 72 71  1  0
 73 74  1  0
 73 72  1  0
 74 70  1  0
 75 76  2  0
 76 77  1  0
 78 77  2  0
 79 78  1  0
 80 54  1  0
 80 81  1  0
 80 90  1  0
 81 84  1  0
 82 86  1  0
 82 81  1  0
 83 82  2  0
 86 85  1  0
 88 86  1  0
 88 89  1  0
 88 87  1  0
 90 93  1  1
 90 91  1  0
 92 90  1  0
M  ISO  4  11 100  12 100  52 101  53 101
M  END
>  <TORSDO>  (18) 
F 21

>  <SCORE>  (18) 
-10.397

>  <name>  (18) 
17

>  <ligand_id>  (18) 
17

>  <original_smiles>  (18) 
[H]c1nc(C([H])([H])C([H])([H])C(C([H])([H])[H])(C([H])([H])[H])C([H])([H])Oc2c([H])c([H])c3c(c2[H])C([H])([H])N(C(=O)C([H])(N([H])C(=O)C([H])(N([H])C([H])([H])[H])C([H])([H])[H])C(C([H])([H])[H])(C([H])([H])[H])C([H])([H])[H])C([H])(C(=O)N([H])C2([H])c4c([H])c([H])c([H])c([H])c4C([H])([H])C([H])([H])C2([H])[H])C3([H])[H])c([H])c(C([H])([H])[H])c1C(C(=O)N1C([H])([H])C([H])([H])C([H])([H])C([H])(n2nc(-c3c([H])c([H])c(Oc4c([H])c([H])c(F)c([H])c4F)c([H])c3[H])c(C(=O)N([H])[H])c2N([H])[H])C1([H])[H])(C([H])([H])[H])C([H])([H])[H]

>  <smiles>  (18) 
[H]c1nc(C([H])([H])C([H])([H])C(C([H])([H])[H])(C([H])([H])[H])C([H])([H])Oc2c([H])c([H])c3c(c2[H])C([H])([H])N(C(=O)C([H])(N([H])C(=O)C([H])(N([H])C([H])([H])[H])C([H])([H])[H])C(C([H])([H])[H])(C([H])([H])[H])C([H])([H])[H])C([H])(C(=O)N([H])C2([H])c4c([H])c([H])c([H])c([H])c4C([H])([H])C([H])([H])C2([H])[H])C3([H])[H])c([H])c(C([H])([H])[H])c1C(C(=O)N1C([H])([H])C([H])([H])C([H])([H])C([H])(n2nc(-c3c([H])c([H])c(Oc4c([H])c([H])c(F)c([H])c4F)c([H])c3[H])c(C(=O)N([H])[H])c2N([H])[H])C1([H])[H])(C([H])([H])[H])C([H])([H])[H]

$$$$
18:0:0
     RDKit          3D

 97105  0  0  1  0  0  0  0  0999 V2000
  -29.6780  -21.5810   21.2120 C   0  0  0  0  0  0  0  0  0  0  0  0
  -30.1250  -21.9440   22.4710 C   0  0  0  0  0  0  0  0  0  0  0  0
  -31.4300  -20.3490   21.6690 C   0  0  0  0  0  3  0  0  0  0  0  0
  -30.2620  -20.2940   21.0090 N   0  0  0  0  0  0  0  0  0  0  0  0
  -31.2410  -21.1870   22.6820 N   0  0  0  0  0  0  0  0  0  0  0  0
  -31.8970  -21.3270   23.4450 H   0  0  0  0  0  0  0  0  0  0  0  0
  -30.1710  -22.8030   24.8710 C   0  0  0  0  0  1  0  0  0  0  0  0
  -29.7470  -23.0490   23.4170 C   0  0  0  0  0  2  0  0  0  0  0  0
  -28.8220  -22.4840   20.2800 C   0  0  0  0  0  3  0  0  0  0  0  0
  -27.0050  -20.6940   19.7460 C   0  0  0  0  0  1  0  0  0  0  0  0
  -27.3290  -22.0770   20.3200 C   0  0  0  0  0  2  0  0  0  0  0  0
  -29.0170  -24.0590   20.6000 C   0  0  0  0  0  3  0  0  0  0  0  0
  -28.3200  -25.1710   19.7200 C   0  0  0  0  0  3  0  0  0  0  0  0
  -28.3910  -26.5950   20.1470 O   0  0  0  0  0  0  0  0  0  0  0  0
  -24.5260  -31.8980   23.1950 C   0  0  0  0  0  0  0  0  0  0  0  0
  -27.2490  -27.4160   20.0890 C   0  0  0  0  0  0  0  0  0  0  0  0
  -23.3660  -30.4960   21.5290 C   0  0  0  0  0  3  0  0  0  0  0  0
  -24.8600  -28.9980   20.0930 C   0  0  0  0  0  0  0  0  0  0  0  0
  -25.9100  -30.8540   21.3840 C   0  0  0  0  0  2  0  0  0  0  0  0
  -26.0140  -29.4860   20.7150 C   0  0  0  0  0  0  0  0  0  0  0  0
  -27.2070  -28.7040   20.7100 C   0  0  0  0  0  3  0  0  0  0  0  0
  -26.0740  -27.0000   19.4200 C   0  0  0  0  0  3  0  0  0  0  0  0
  -24.8930  -27.7600   19.4420 C   0  0  0  0  0  3  0  0  0  0  0  0
  -23.6060  -29.8490   20.1400 C   0  0  0  0  0  2  0  0  0  0  0  0
  -24.6190  -31.0990   22.0910 N   0  0  0  0  0  0  0  0  0  0  0  0
  -23.4300  -32.1540   23.7150 O   0  0  0  0  0  0  0  0  0  0  0  0
  -22.7200  -29.4460   22.4670 C   0  0  0  0  0  0  0  0  0  0  0  0
  -21.4020  -29.2310   22.3110 N   0  0  0  0  0  0  0  0  0  0  0  0
  -23.4020  -28.8310   23.2920 O   0  0  0  0  0  0  0  0  0  0  0  0
  -20.9130  -29.7870   21.6250 H   0  0  0  0  0  0  0  0  0  0  0  0
  -18.0560  -27.9170   22.7160 C   0  0  0  0  0  0  0  0  0  0  0  0
  -20.5950  -28.2640   23.0580 C   0  0  0  0  0  3  0  0  0  0  0  0
  -20.7580  -26.8350   22.4890 C   0  0  0  0  0  2  0  0  0  0  0  0
  -19.6970  -26.4740   21.4420 C   0  0  0  0  0  2  0  0  0  0  0  0
  -18.2950  -26.5720   22.0500 C   0  0  0  0  0  2  0  0  0  0  0  0
  -19.1370  -28.7180   23.1750 C   0  0  0  0  0  0  0  0  0  0  0  0
  -18.8600  -29.9730   23.7620 C   0  0  0  0  0  3  0  0  0  0  0  0
  -17.5370  -30.4320   23.8890 C   0  0  0  0  0  3  0  0  0  0  0  0
  -16.4690  -29.6310   23.4450 C   0  0  0  0  0  3  0  0  0  0  0  0
  -16.7300  -28.3740   22.8690 C   0  0  0  0  0  3  0  0  0  0  0  0
  -25.7910  -32.5470   23.8380 C   0  0  0  0  0  3  0  0  0  0  0  0
  -26.2840  -31.7770   25.1240 C   0  0  1  0  0  0  0  0  0  0  0  0
  -25.1700  -31.5290   26.1690 C   0  0  0  0  0  1  0  0  0  0  0  0
  -26.8820  -30.4000   24.7480 C   0  0  0  0  0  1  0  0  0  0  0  0
  -27.4070  -32.5800   25.8190 C   0  0  0  0  0  1  0  0  0  0  0  0
  -25.4510  -33.9410   24.1580 N   0  0  0  0  0  0  0  0  0  0  0  0
  -25.7650  -34.9950   23.3950 C   0  0  0  0  0  0  0  0  0  0  0  0
  -26.4420  -34.8990   22.3680 O   0  0  0  0  0  0  0  0  0  0  0  0
  -24.8420  -34.0860   24.9490 H   0  0  0  0  0  0  0  0  0  0  0  0
  -23.9940  -36.7490   23.0280 C   0  0  0  0  0  1  0  0  0  0  0  0
  -25.2490  -36.3800   23.8380 C   0  0  0  0  0  3  0  0  0  0  0  0
  -27.3670  -37.3250   24.6490 C   0  0  0  0  0  1  0  0  0  0  0  0
  -26.2610  -37.4530   23.7060 N   0  0  0  0  0  0  0  0  0  0  0  0
  -25.8360  -38.3680   23.8350 H   0  0  0  0  0  0  0  0  0  0  0  0
  -29.9870  -19.0710   20.1310 C   0  0  0  0  0  3  0  0  0  0  0  0
  -30.0860  -17.5840   20.8080 C   0  0  0  0  0  3  0  0  0  0  0  0
  -28.5050  -16.3080   19.2860 C   0  0  0  0  0  1  0  0  0  0  0  0
  -29.9290  -16.3030   19.8480 C   0  0  0  0  0  3  0  0  0  0  0  0
  -30.6180  -14.8430   20.0800 C   0  0  0  0  0  0  0  0  0  0  0  0
  -30.3710  -12.5220   19.1960 C   0  0  0  0  0  2  0  0  0  0  0  0
  -29.4020  -12.5200   17.9930 C   0  0  0  0  0  2  0  0  0  0  0  0
  -27.9630  -12.2680   18.4790 C   0  0  0  0  0  2  0  0  0  0  0  0
  -27.5810  -13.2030   19.6510 C   0  0  0  0  0  3  0  0  0  0  0  0
  -28.6790  -13.3020   20.7360 C   0  0  0  0  0  2  0  0  0  0  0  0
  -29.9570  -13.6260   20.0920 N   0  0  0  0  0  0  0  0  0  0  0  0
  -31.8370  -14.8280   19.9000 O   0  0  0  0  0  0  0  0  0  0  0  0
  -25.2640  -13.8070   20.5460 C   0  0  0  0  0  0  0  0  0  0  0  0
  -24.2090  -13.0420   20.9350 C   0  0  0  0  0  0  0  0  0  0  0  0
  -24.6540  -11.6870   20.8460 C   0  0  0  0  0  0  0  0  0  0  0  0
  -26.2800  -12.9190   20.2200 N   0  0  0  0  0  0  0  0  0  0  0  0
  -25.9260  -11.6360   20.4680 N   0  0  0  0  0  0  0  0  0  0  0  0
  -23.9250  -10.4320   21.0220 C   0  0  0  0  0  0  0  0  0  0  0  0
  -24.3740   -9.4400   21.9210 C   0  0  0  0  0  3  0  0  0  0  0  0
  -23.6430   -8.2450   22.0830 C   0  0  0  0  0  3  0  0  0  0  0  0
  -22.4550   -8.0400   21.3470 C   0  0  0  0  0  0  0  0  0  0  0  0
  -22.0270   -9.0160   20.4330 C   0  0  0  0  0  3  0  0  0  0  0  0
  -22.7590  -10.2020   20.2660 C   0  0  0  0  0  3  0  0  0  0  0  0
  -21.6950   -6.8980   21.4230 O   0  0  0  0  0  0  0  0  0  0  0  0
  -21.6580   -6.1370   22.5630 C   0  0  0  0  0  0  0  0  0  0  0  0
  -21.2280   -6.6670   23.7990 C   0  0  0  0  0  3  0  0  0  0  0  0
  -21.1380   -5.8350   24.9300 C   0  0  0  0  0  3  0  0  0  0  0  0
  -21.4730   -4.4700   24.8270 C   0  0  0  0  0  0  0  0  0  0  0  0
  -21.9080   -3.9410   23.5990 C   0  0  0  0  0  3  0  0  0  0  0  0
  -21.9970   -4.7710   22.4710 C   0  0  0  0  0  0  0  0  0  0  0  0
  -22.3940   -4.2550   21.2830 F   0  0  0  0  0  0  0  0  0  0  0  0
  -21.3820   -3.6670   25.9110 F   0  0  0  0  0  0  0  0  0  0  0  0
  -22.8320  -13.5360   21.2760 C   0  0  0  0  0  0  0  0  0  0  0  0
  -22.1340  -12.8350   22.1590 N   0  0  0  0  0  0  0  0  0  0  0  0
  -22.3890  -14.5790   20.7970 O   0  0  0  0  0  0  0  0  0  0  0  0
  -22.5050  -11.9940   22.5790 H   0  0  0  0  0  0  0  0  0  0  0  0
  -21.2110  -13.1490   22.4260 H   0  0  0  0  0  0  0  0  0  0  0  0
  -25.4300  -15.1820   20.4090 N   0  0  0  0  0  0  0  0  0  0  0  0
  -24.6660  -15.8260   20.5830 H   0  0  0  0  0  0  0  0  0  0  0  0
  -26.2520  -15.6290   20.0320 H   0  0  0  0  0  0  0  0  0  0  0  0
  -32.7620  -19.7930   21.2450 C   0  0  0  0  0  2  0  0  0  0  0  0
  -34.6940  -20.1480   19.5850 C   0  0  0  0  0  1  0  0  0  0  0  0
  -33.4520  -20.7500   20.2390 C   0  0  0  0  0  2  0  0  0  0  0  0
  1  2  2  0
  2  5  1  0
  2  8  1  0
  3 95  1  0
  3  5  1  0
  4  1  1  0
  4  3  1  0
  5  6  1  0
  8  7  1  0
  9 11  1  0
  9 12  1  0
  9  1  1  0
 10 11  1  0
 13 14  1  0
 13 12  2  0
 15 26  2  0
 16 14  1  0
 16 21  1  0
 17 25  1  0
 17 27  1  0
 18 24  1  0
 18 20  1  0
 19 25  1  0
 20 19  1  0
 21 20  2  0
 22 23  1  0
 22 16  2  0
 23 18  2  0
 24 17  1  0
 25 15  1  0
 27 29  2  0
 28 27  1  0
 30 28  1  0
 31 40  2  0
 31 36  1  0
 32 28  1  0
 32 36  1  0
 33 32  1  0
 34 35  1  0
 34 33  1  0
 35 31  1  0
 36 37  2  0
 37 38  1  0
 39 38  2  0
 40 39  1  0
 41 15  1  0
 41 46  1  0
 41 42  1  0
 42 45  1  1
 42 43  1  0
 44 42  1  0
 46 49  1  0
 47 51  1  0
 47 46  1  0
 48 47  2  0
 51 50  1  0
 53 54  1  0
 53 51  1  0
 53 52  1  0
 55 56  2  0
 55  4  1  0
 58 57  1  0
 58 59  1  0
 58 56  1  0
 59 65  1  0
 60 65  1  0
 61 62  1  0
 61 60  1  0
 63 62  1  0
 63 70  1  0
 63 64  1  0
 65 64  1  0
 66 59  2  0
 67 68  2  0
 68 87  1  0
 69 68  1  0
 69 72  1  0
 70 71  1  0
 70 67  1  0
 71 69  2  0
 72 73  1  0
 73 74  2  0
 75 78  1  0
 75 74  1  0
 76 75  2  0
 77 76  1  0
 77 72  2  0
 78 79  1  0
 79 80  1  0
 80 81  2  0
 82 81  1  0
 82 86  1  0
 83 82  2  0
 84 79  2  0
 84 83  1  0
 85 84  1  0
 87 88  1  0
 88 91  1  0
 88 90  1  0
 89 87  2  0
 92 67  1  0
 92 93  1  0
 94 92  1  0
 96 97  1  0
 97 95  1  0
M  ISO  4  13 101  14 101  58 100  59 100
M  END
>  <TORSDO>  (19) 
F 26

>  <SCORE>  (19) 
-11.675

>  <name>  (19) 
18

>  <ligand_id>  (19) 
18

>  <original_smiles>  (19) 
[H]c1c([H])c([H])c2c(c1[H])C([H])([H])C([H])([H])C([H])([H])C2([H])N([H])C(=O)C1([H])N(C(=O)C([H])(N([H])C(=O)C([H])(N([H])C([H])([H])[H])C([H])([H])[H])C(C([H])([H])[H])(C([H])([H])[H])C([H])([H])[H])C([H])([H])c2c([H])c(OC([H])([H])C([H])([H])C([H])(c3c(C([H])([H])C([H])([H])[H])[n+]([H])c(C([H])([H])C([H])([H])C([H])([H])[H])n3C([H])([H])C([H])([H])C([H])(C(=O)N3C([H])([H])C([H])([H])C([H])([H])C([H])(n4nc(-c5c([H])c([H])c(Oc6c([H])c([H])c(F)c([H])c6F)c([H])c5[H])c(C(=O)N([H])[H])c4N([H])[H])C3([H])[H])C([H])([H])[H])C([H])([H])C([H])([H])[H])c([H])c([H])c2C1([H])[H]

>  <smiles>  (19) 
[H]c1c([H])c([H])c2c(c1[H])C([H])([H])C([H])([H])C([H])([H])C2([H])N([H])C(=O)C1([H])N(C(=O)C([H])(N([H])C(=O)C([H])(N([H])C([H])([H])[H])C([H])([H])[H])C(C([H])([H])[H])(C([H])([H])[H])C([H])([H])[H])C([H])([H])c2c([H])c(OC([H])([H])C([H])([H])C([H])(c3c(C([H])([H])C([H])([H])[H])[n+]([H])c(C([H])([H])C([H])([H])C([H])([H])[H])n3C([H])([H])C([H])([H])C([H])(C(=O)N3C([H])([H])C([H])([H])C([H])([H])C([H])(n4nc(-c5c([H])c([H])c(Oc6c([H])c([H])c(F)c([H])c6F)c([H])c5[H])c(C(=O)N([H])[H])c4N([H])[H])C3([H])[H])C([H])([H])[H])C([H])([H])C([H])([H])[H])c([H])c([H])c2C1([H])[H]

$$$$
19:0:0
     RDKit          3D

 91 99  0  0  1  0  0  0  0  0999 V2000
  -27.8710  -20.6960   18.7070 C   0  0  0  0  0  3  0  0  0  0  0  0
  -27.7560  -19.5520   17.9780 C   0  0  0  0  0  3  0  0  0  0  0  0
  -29.3350  -19.1750   19.5390 C   0  0  0  0  0  3  0  0  0  0  0  0
  -28.8960  -20.5460   19.6150 N   0  0  0  0  0  0  0  0  0  0  0  0
  -28.6790  -18.6870   18.4750 N   0  0  0  0  0  0  0  0  0  0  0  0
  -28.8270  -17.7580   18.1020 H   0  0  0  0  0  0  0  0  0  0  0  0
  -31.6690  -18.1390   19.3000 C   0  0  0  0  0  1  0  0  0  0  0  0
  -30.3980  -18.1040   20.1600 C   0  0  0  0  0  3  0  0  0  0  0  0
  -28.4700  -16.4370   20.5470 C   0  0  0  0  0  1  0  0  0  0  0  0
  -30.3520  -16.4490   22.1220 C   0  0  0  0  0  1  0  0  0  0  0  0
  -30.0040  -16.4860   20.6150 C   0  0  2  0  0  0  0  0  0  0  0  0
  -30.6930  -15.0330   20.0530 C   0  0  0  0  0  0  0  0  0  0  0  0
  -30.5150  -12.7110   18.9850 C   0  0  0  0  0  2  0  0  0  0  0  0
  -29.5080  -12.7010   17.8080 C   0  0  0  0  0  2  0  0  0  0  0  0
  -28.0680  -12.4690   18.3080 C   0  0  0  0  0  2  0  0  0  0  0  0
  -27.7370  -13.3470   19.5350 C   0  0  0  0  0  3  0  0  0  0  0  0
  -28.8590  -13.2680   20.5990 C   0  0  0  0  0  2  0  0  0  0  0  0
  -30.0930  -13.7610   19.9650 N   0  0  0  0  0  0  0  0  0  0  0  0
  -31.8550  -15.0680   19.6310 O   0  0  0  0  0  0  0  0  0  0  0  0
  -25.3860  -13.9660   20.3640 C   0  0  0  0  0  0  0  0  0  0  0  0
  -24.3370  -13.2030   20.7880 C   0  0  0  0  0  0  0  0  0  0  0  0
  -24.7860  -11.8500   20.7290 C   0  0  0  0  0  0  0  0  0  0  0  0
  -26.4170  -13.0780   20.0870 N   0  0  0  0  0  0  0  0  0  0  0  0
  -26.0630  -11.8000   20.3670 N   0  0  0  0  0  0  0  0  0  0  0  0
  -24.0570  -10.5950   20.9310 C   0  0  0  0  0  0  0  0  0  0  0  0
  -24.5050   -9.6240   21.8520 C   0  0  0  0  0  3  0  0  0  0  0  0
  -23.7710   -8.4350   22.0460 C   0  0  0  0  0  3  0  0  0  0  0  0
  -22.5780   -8.2120   21.3200 C   0  0  0  0  0  0  0  0  0  0  0  0
  -22.1500   -9.1720   20.3860 C   0  0  0  0  0  3  0  0  0  0  0  0
  -22.8840  -10.3520   20.1900 C   0  0  0  0  0  3  0  0  0  0  0  0
  -21.8120   -7.0780   21.4270 O   0  0  0  0  0  0  0  0  0  0  0  0
  -21.7600   -6.3540   22.5900 C   0  0  0  0  0  0  0  0  0  0  0  0
  -21.3540   -6.9330   23.8110 C   0  0  0  0  0  3  0  0  0  0  0  0
  -21.2470   -6.1340   24.9680 C   0  0  0  0  0  3  0  0  0  0  0  0
  -21.5380   -4.7580   24.9030 C   0  0  0  0  0  0  0  0  0  0  0  0
  -21.9410   -4.1800   23.6870 C   0  0  0  0  0  3  0  0  0  0  0  0
  -22.0490   -4.9750   22.5340 C   0  0  0  0  0  0  0  0  0  0  0  0
  -22.4150   -4.4090   21.3590 F   0  0  0  0  0  0  0  0  0  0  0  0
  -21.4280   -3.9890   26.0120 F   0  0  0  0  0  0  0  0  0  0  0  0
  -22.9590  -13.6960   21.1200 C   0  0  0  0  0  0  0  0  0  0  0  0
  -22.2620  -13.0110   22.0190 N   0  0  0  0  0  0  0  0  0  0  0  0
  -22.5100  -14.7260   20.6170 O   0  0  0  0  0  0  0  0  0  0  0  0
  -22.6440  -12.1850   22.4570 H   0  0  0  0  0  0  0  0  0  0  0  0
  -21.3370  -13.3240   22.2810 H   0  0  0  0  0  0  0  0  0  0  0  0
  -25.5180  -15.3350   20.1650 N   0  0  0  0  0  0  0  0  0  0  0  0
  -24.7310  -15.9590   20.3060 H   0  0  0  0  0  0  0  0  0  0  0  0
  -26.3240  -15.7940   19.7680 H   0  0  0  0  0  0  0  0  0  0  0  0
  -29.1820  -21.8370   20.4850 C   0  0  0  0  0  2  0  0  0  0  0  0
  -29.0290  -23.4120   19.8640 C   0  0  0  0  0  3  0  0  0  0  0  0
  -28.2400  -24.7240   20.5510 C   0  0  0  0  0  3  0  0  0  0  0  0
  -28.4230  -26.2230   20.1990 O   0  0  0  0  0  0  0  0  0  0  0  0
  -24.6610  -31.8060   23.1940 C   0  0  0  0  0  0  0  0  0  0  0  0
  -27.3310  -27.1560   20.1810 C   0  0  0  0  0  0  0  0  0  0  0  0
  -23.4940  -30.4070   21.5310 C   0  0  0  0  0  3  0  0  0  0  0  0
  -24.9770  -28.8540   20.1220 C   0  0  0  0  0  0  0  0  0  0  0  0
  -26.0440  -30.7080   21.3970 C   0  0  0  0  0  2  0  0  0  0  0  0
  -26.1410  -29.3200   20.7450 C   0  0  0  0  0  0  0  0  0  0  0  0
  -27.3210  -28.4890   20.7530 C   0  0  0  0  0  3  0  0  0  0  0  0
  -26.1410  -26.7810   19.5240 C   0  0  0  0  0  3  0  0  0  0  0  0
  -24.9880  -27.5970   19.4960 C   0  0  0  0  0  3  0  0  0  0  0  0
  -23.7380  -29.7370   20.1520 C   0  0  0  0  0  2  0  0  0  0  0  0
  -24.7510  -30.9950   22.0960 N   0  0  0  0  0  0  0  0  0  0  0  0
  -23.5660  -32.0770   23.7090 O   0  0  0  0  0  0  0  0  0  0  0  0
  -22.8140  -29.3890   22.4790 C   0  0  0  0  0  0  0  0  0  0  0  0
  -21.4900  -29.2000   22.3290 N   0  0  0  0  0  0  0  0  0  0  0  0
  -23.4800  -28.7700   23.3130 O   0  0  0  0  0  0  0  0  0  0  0  0
  -21.0110  -29.7500   21.6290 H   0  0  0  0  0  0  0  0  0  0  0  0
  -18.1230  -27.9390   22.7480 C   0  0  0  0  0  0  0  0  0  0  0  0
  -20.6680  -28.2510   23.0820 C   0  0  0  0  0  3  0  0  0  0  0  0
  -20.8120  -26.8190   22.5170 C   0  0  0  0  0  2  0  0  0  0  0  0
  -19.7430  -26.4710   21.4770 C   0  0  0  0  0  2  0  0  0  0  0  0
  -18.3420  -26.5920   22.0830 C   0  0  0  0  0  2  0  0  0  0  0  0
  -19.2150  -28.7240   23.2040 C   0  0  0  0  0  0  0  0  0  0  0  0
  -18.9560  -29.9840   23.7870 C   0  0  0  0  0  3  0  0  0  0  0  0
  -17.6370  -30.4590   23.9190 C   0  0  0  0  0  3  0  0  0  0  0  0
  -16.5590  -29.6720   23.4780 C   0  0  0  0  0  3  0  0  0  0  0  0
  -16.8030  -28.4130   22.9000 C   0  0  0  0  0  3  0  0  0  0  0  0
  -25.9260  -32.4470   23.8420 C   0  0  0  0  0  3  0  0  0  0  0  0
  -25.5960  -33.8400   24.1830 N   0  0  0  0  0  0  0  0  0  0  0  0
  -25.9250  -34.9060   23.4420 C   0  0  0  0  0  0  0  0  0  0  0  0
  -26.6050  -34.8210   22.4160 O   0  0  0  0  0  0  0  0  0  0  0  0
  -24.9900  -33.9790   24.9790 H   0  0  0  0  0  0  0  0  0  0  0  0
  -24.1800  -36.6880   23.1000 C   0  0  0  0  0  1  0  0  0  0  0  0
  -25.4210  -36.2860   23.9130 C   0  0  0  0  0  3  0  0  0  0  0  0
  -27.5430  -37.1830   24.7630 C   0  0  0  0  0  1  0  0  0  0  0  0
  -26.4430  -37.3510   23.8170 N   0  0  0  0  0  0  0  0  0  0  0  0
  -26.0270  -38.2660   23.9700 H   0  0  0  0  0  0  0  0  0  0  0  0
  -26.4290  -31.6710   25.1220 C   0  0  1  0  0  0  0  0  0  0  0  0
  -25.3230  -31.4180   26.1710 C   0  0  0  0  0  1  0  0  0  0  0  0
  -27.0270  -30.2980   24.7330 C   0  0  0  0  0  1  0  0  0  0  0  0
  -27.5650  -32.4680   25.8050 C   0  0  0  0  0  1  0  0  0  0  0  0
  1  4  1  0
  2  5  1  0
  2  1  2  0
  3  4  1  0
  3  8  1  0
  4 48  1  0
  5  3  1  0
  6  5  1  0
  8  7  1  0
  8 11  1  0
 11  9  1  1
 11 10  1  0
 12 11  1  0
 13 18  1  0
 14 15  1  0
 14 13  1  0
 16 15  1  0
 16 23  1  0
 16 17  1  0
 18 12  1  0
 18 17  1  0
 19 12  2  0
 20 21  2  0
 21 40  1  0
 22 21  1  0
 22 25  1  0
 23 20  1  0
 23 24  1  0
 24 22  2  0
 25 26  1  0
 26 27  2  0
 28 31  1  0
 28 27  1  0
 29 28  2  0
 30 29  1  0
 30 25  2  0
 31 32  1  0
 32 33  1  0
 33 34  2  0
 35 34  1  0
 35 39  1  0
 36 35  2  0
 37 32  2  0
 37 36  1  0
 38 37  1  0
 40 41  1  0
 41 44  1  0
 41 43  1  0
 42 40  2  0
 45 46  1  0
 45 20  1  0
 47 45  1  0
 49 48  1  0
 49 50  2  0
 51 50  1  0
 52 63  2  0
 53 51  1  0
 53 58  1  0
 54 62  1  0
 54 64  1  0
 55 61  1  0
 55 57  1  0
 56 62  1  0
 57 58  2  0
 57 56  1  0
 59 53  2  0
 60 59  1  0
 60 55  2  0
 61 54  1  0
 62 52  1  0
 64 66  2  0
 65 64  1  0
 67 65  1  0
 68 77  2  0
 68 73  1  0
 69 65  1  0
 69 73  1  0
 70 69  1  0
 71 72  1  0
 71 70  1  0
 72 68  1  0
 73 74  2  0
 74 75  1  0
 76 75  2  0
 77 76  1  0
 78 52  1  0
 78 79  1  0
 78 88  1  0
 79 82  1  0
 80 84  1  0
 80 79  1  0
 81 80  2  0
 84 83  1  0
 86 84  1  0
 86 87  1  0
 86 85  1  0
 88 91  1  1
 88 89  1  0
 90 88  1  0
M  ISO  4  11 100  12 100  50 101  51 101
M  END
>  <TORSDO>  (20) 
F 21

>  <SCORE>  (20) 
-15.064

>  <name>  (20) 
19

>  <ligand_id>  (20) 
19

>  <original_smiles>  (20) 
[H]c1c([H])c([H])c2c(c1[H])C([H])([H])C([H])([H])C([H])([H])C2([H])N([H])C(=O)C1([H])N(C(=O)C([H])(N([H])C(=O)C([H])(N([H])C([H])([H])[H])C([H])([H])[H])C(C([H])([H])[H])(C([H])([H])[H])C([H])([H])[H])C([H])([H])c2c([H])c(OC([H])([H])C([H])([H])C([H])([H])n3c([H])c([H])[n+]([H])c3C([H])(C([H])([H])[H])C(C(=O)N3C([H])([H])C([H])([H])C([H])([H])C([H])(n4nc(-c5c([H])c([H])c(Oc6c([H])c([H])c(F)c([H])c6F)c([H])c5[H])c(C(=O)N([H])[H])c4N([H])[H])C3([H])[H])(C([H])([H])[H])C([H])([H])[H])c([H])c([H])c2C1([H])[H]

>  <smiles>  (20) 
[H]c1c([H])c([H])c2c(c1[H])C([H])([H])C([H])([H])C([H])([H])C2([H])N([H])C(=O)C1([H])N(C(=O)C([H])(N([H])C(=O)C([H])(N([H])C([H])([H])[H])C([H])([H])[H])C(C([H])([H])[H])(C([H])([H])[H])C([H])([H])[H])C([H])([H])c2c([H])c(OC([H])([H])C([H])([H])C([H])([H])n3c([H])c([H])[n+]([H])c3C([H])(C([H])([H])[H])C(C(=O)N3C([H])([H])C([H])([H])C([H])([H])C([H])(n4nc(-c5c([H])c([H])c(Oc6c([H])c([H])c(F)c([H])c6F)c([H])c5[H])c(C(=O)N([H])[H])c4N([H])[H])C3([H])[H])(C([H])([H])[H])C([H])([H])[H])c([H])c([H])c2C1([H])[H]

$$$$
20:0:0
     RDKit          3D

 99107  0  0  1  0  0  0  0  0999 V2000
  -29.0520  -17.8630   18.3900 C   0  0  0  0  0  0  0  0  0  0  0  0
  -28.6890  -18.6440   19.4610 C   0  0  0  0  0  0  0  0  0  0  0  0
  -29.7890  -16.8480   20.1760 C   0  0  0  0  0  0  0  0  0  0  0  0
  -28.7760  -18.0680   16.9320 C   0  0  0  0  0  1  0  0  0  0  0  0
  -29.7300  -16.7440   18.8460 N   0  0  0  0  0  0  0  0  0  0  0  0
  -29.2290  -18.0160   20.5970 N   0  0  0  0  0  0  0  0  0  0  0  0
  -31.5910  -16.3370   21.9470 C   0  0  0  0  0  1  0  0  0  0  0  0
  -30.4110  -15.8000   21.1080 C   0  0  0  0  0  3  0  0  0  0  0  0
  -30.9110  -14.5640   20.3010 C   0  0  0  0  0  0  0  0  0  0  0  0
  -30.5140  -12.4130   19.1520 C   0  0  0  0  0  2  0  0  0  0  0  0
  -29.5770  -12.6330   17.9480 C   0  0  0  0  0  2  0  0  0  0  0  0
  -28.1010  -12.5410   18.3820 C   0  0  0  0  0  2  0  0  0  0  0  0
  -27.7930  -13.3990   19.6390 C   0  0  0  0  0  3  0  0  0  0  0  0
  -28.8460  -13.1540   20.7410 C   0  0  0  0  0  2  0  0  0  0  0  0
  -30.1750  -13.4220   20.1710 N   0  0  0  0  0  0  0  0  0  0  0  0
  -32.0110  -14.6740   19.7460 O   0  0  0  0  0  0  0  0  0  0  0  0
  -25.4310  -14.0760   20.4000 C   0  0  0  0  0  0  0  0  0  0  0  0
  -24.3370  -13.3340   20.7580 C   0  0  0  0  0  0  0  0  0  0  0  0
  -24.7420  -11.9670   20.6760 C   0  0  0  0  0  0  0  0  0  0  0  0
  -26.4360  -13.1620   20.1260 N   0  0  0  0  0  0  0  0  0  0  0  0
  -26.0260  -11.8860   20.3480 N   0  0  0  0  0  0  0  0  0  0  0  0
  -23.9680  -10.7280   20.8350 C   0  0  0  0  0  0  0  0  0  0  0  0
  -24.3570   -9.7270   21.7520 C   0  0  0  0  0  3  0  0  0  0  0  0
  -23.5850   -8.5530   21.8990 C   0  0  0  0  0  3  0  0  0  0  0  0
  -22.4120   -8.3740   21.1300 C   0  0  0  0  0  0  0  0  0  0  0  0
  -22.0420   -9.3640   20.2030 C   0  0  0  0  0  3  0  0  0  0  0  0
  -22.8130  -10.5290   20.0530 C   0  0  0  0  0  3  0  0  0  0  0  0
  -21.6150   -7.2560   21.1880 O   0  0  0  0  0  0  0  0  0  0  0  0
  -21.4840   -6.5240   22.3410 C   0  0  0  0  0  0  0  0  0  0  0  0
  -21.0220   -7.1040   23.5420 C   0  0  0  0  0  3  0  0  0  0  0  0
  -20.8350   -6.3000   24.6850 C   0  0  0  0  0  3  0  0  0  0  0  0
  -21.1000   -4.9180   24.6260 C   0  0  0  0  0  0  0  0  0  0  0  0
  -21.5550   -4.3390   23.4290 C   0  0  0  0  0  3  0  0  0  0  0  0
  -21.7420   -5.1390   22.2890 C   0  0  0  0  0  0  0  0  0  0  0  0
  -22.1600   -4.5720   21.1320 F   0  0  0  0  0  0  0  0  0  0  0  0
  -20.9140   -4.1460   25.7220 F   0  0  0  0  0  0  0  0  0  0  0  0
  -22.9640  -13.8570   21.0680 C   0  0  0  0  0  0  0  0  0  0  0  0
  -22.2350  -13.1790   21.9470 N   0  0  0  0  0  0  0  0  0  0  0  0
  -22.5490  -14.9010   20.5660 O   0  0  0  0  0  0  0  0  0  0  0  0
  -22.5830  -12.3340   22.3740 H   0  0  0  0  0  0  0  0  0  0  0  0
  -21.3140  -13.5110   22.1980 H   0  0  0  0  0  0  0  0  0  0  0  0
  -25.6510  -15.4430   20.2660 N   0  0  0  0  0  0  0  0  0  0  0  0
  -24.9170  -16.1270   20.4080 H   0  0  0  0  0  0  0  0  0  0  0  0
  -26.5190  -15.8540   19.9430 H   0  0  0  0  0  0  0  0  0  0  0  0
  -27.8200  -19.8850   19.4410 C   0  0  0  0  0  3  0  0  0  0  0  0
  -28.4470  -21.2240   19.9040 C   0  0  0  0  0  3  0  0  0  0  0  0
  -26.1520  -22.2720   19.2480 C   0  0  0  0  0  1  0  0  0  0  0  0
  -27.6040  -22.5200   19.6940 C   0  0  0  0  0  3  0  0  0  0  0  0
  -28.3000  -23.5680   18.7870 C   0  0  0  0  0  2  0  0  0  0  0  0
  -29.2510  -24.5160   19.5490 C   0  0  0  0  0  2  0  0  0  0  0  0
  -28.5350  -25.6050   20.3800 C   0  0  0  0  0  2  0  0  0  0  0  0
  -28.4870  -26.8520   19.6790 O   0  0  0  0  0  0  0  0  0  0  0  0
  -24.5130  -31.7020   23.0650 C   0  0  0  0  0  0  0  0  0  0  0  0
  -27.2930  -27.5270   19.7560 C   0  0  0  0  0  0  0  0  0  0  0  0
  -23.3470  -30.3450   21.3560 C   0  0  0  0  0  3  0  0  0  0  0  0
  -24.8470  -28.9310   19.8530 C   0  0  0  0  0  0  0  0  0  0  0  0
  -25.8560  -30.8050   21.1670 C   0  0  0  0  0  2  0  0  0  0  0  0
  -25.9870  -29.4710   20.4620 C   0  0  0  0  0  0  0  0  0  0  0  0
  -27.2160  -28.7760   20.4090 C   0  0  0  0  0  3  0  0  0  0  0  0
  -26.1390  -26.9960   19.1450 C   0  0  0  0  0  3  0  0  0  0  0  0
  -24.9160  -27.6930   19.1920 C   0  0  0  0  0  3  0  0  0  0  0  0
  -23.5730  -29.7410   19.9440 C   0  0  0  0  0  2  0  0  0  0  0  0
  -24.5900  -30.9650   21.9210 N   0  0  0  0  0  0  0  0  0  0  0  0
  -23.4240  -31.9080   23.6220 O   0  0  0  0  0  0  0  0  0  0  0  0
  -22.7350  -29.2550   22.2640 C   0  0  0  0  0  0  0  0  0  0  0  0
  -21.4160  -29.0440   22.1410 N   0  0  0  0  0  0  0  0  0  0  0  0
  -23.4450  -28.6030   23.0360 O   0  0  0  0  0  0  0  0  0  0  0  0
  -20.9040  -29.6240   21.4900 H   0  0  0  0  0  0  0  0  0  0  0  0
  -18.0810  -27.7250   22.5890 C   0  0  0  0  0  0  0  0  0  0  0  0
  -20.6320  -28.0430   22.8650 C   0  0  0  0  0  3  0  0  0  0  0  0
  -20.7740  -26.6480   22.2120 C   0  0  0  0  0  2  0  0  0  0  0  0
  -19.6760  -26.3470   21.1880 C   0  0  0  0  0  2  0  0  0  0  0  0
  -18.2940  -26.4170   21.8430 C   0  0  0  0  0  2  0  0  0  0  0  0
  -19.1800  -28.4950   23.0540 C   0  0  0  0  0  0  0  0  0  0  0  0
  -18.9280  -29.7200   23.7090 C   0  0  0  0  0  3  0  0  0  0  0  0
  -17.6100  -30.1730   23.9060 C   0  0  0  0  0  3  0  0  0  0  0  0
  -16.5260  -29.3980   23.4590 C   0  0  0  0  0  3  0  0  0  0  0  0
  -16.7630  -28.1760   22.8050 C   0  0  0  0  0  3  0  0  0  0  0  0
  -25.7790  -32.3430   23.7130 C   0  0  0  0  0  3  0  0  0  0  0  0
  -25.4440  -33.7300   24.0600 N   0  0  0  0  0  0  0  0  0  0  0  0
  -25.7690  -34.7980   23.3200 C   0  0  0  0  0  0  0  0  0  0  0  0
  -26.4550  -34.7220   22.2970 O   0  0  0  0  0  0  0  0  0  0  0  0
  -24.8390  -33.8630   24.8570 H   0  0  0  0  0  0  0  0  0  0  0  0
  -24.0070  -36.5600   22.9760 C   0  0  0  0  0  1  0  0  0  0  0  0
  -25.2510  -36.1710   23.7910 C   0  0  0  0  0  3  0  0  0  0  0  0
  -27.3610  -37.0880   24.6460 C   0  0  0  0  0  1  0  0  0  0  0  0
  -26.2610  -37.2460   23.6970 N   0  0  0  0  0  0  0  0  0  0  0  0
  -25.8360  -38.1550   23.8530 H   0  0  0  0  0  0  0  0  0  0  0  0
  -26.2930  -31.5580   24.9820 C   0  0  1  0  0  0  0  0  0  0  0  0
  -25.1950  -31.2940   26.0390 C   0  0  0  0  0  1  0  0  0  0  0  0
  -26.8890  -30.1910   24.5710 C   0  0  0  0  0  1  0  0  0  0  0  0
  -27.4330  -32.3520   25.6640 C   0  0  0  0  0  1  0  0  0  0  0  0
  -29.1890  -18.5580   21.9490 C   0  0  0  0  0  2  0  0  0  0  0  0
  -30.2010  -19.7190   22.0980 C   0  0  0  0  0  2  0  0  0  0  0  0
  -29.8100  -20.7540   23.1650 C   0  0  0  0  0  2  0  0  0  0  0  0
  -30.3250  -22.1610   22.8120 C   0  0  0  0  0  2  0  0  0  0  0  0
  -29.9990  -24.6610   23.0670 C   0  0  0  0  0  1  0  0  0  0  0  0
  -30.2510  -23.2220   25.1280 C   0  0  0  0  0  1  0  0  0  0  0  0
  -29.7270  -23.2800   23.6840 C   0  0  0  0  0  3  0  0  0  0  0  0
  1  5  1  0
  1  2  2  0
  2  6  1  0
  3  6  1  0
  3  8  1  0
  4  1  1  0
  5  3  2  0
  6 93  1  0
  8  7  1  0
  9  8  1  0
 10 15  1  0
 11 12  1  0
 11 10  1  0
 13 12  1  0
 13 20  1  0
 13 14  1  0
 15  9  1  0
 15 14  1  0
 16  9  2  0
 17 18  2  0
 18 37  1  0
 19 18  1  0
 19 22  1  0
 20 21  1  0
 20 17  1  0
 21 19  2  0
 22 23  1  0
 23 24  2  0
 25 28  1  0
 25 24  1  0
 26 25  2  0
 27 26  1  0
 27 22  2  0
 28 29  1  0
 29 30  1  0
 30 31  2  0
 32 31  1  0
 32 36  1  0
 33 32  2  0
 34 29  2  0
 34 33  1  0
 35 34  1  0
 37 38  1  0
 38 41  1  0
 38 40  1  0
 39 37  2  0
 42 17  1  0
 42 43  1  0
 44 42  1  0
 45  2  1  0
 45 46  2  0
 48 47  1  0
 48 46  1  0
 49 50  1  0
 49 48  1  0
 50 51  1  0
 52 54  1  0
 52 51  1  0
 53 64  2  0
 54 59  1  0
 55 63  1  0
 55 65  1  0
 56 62  1  0
 56 58  1  0
 57 63  1  0
 58 57  1  0
 59 58  2  0
 60 61  1  0
 60 54  2  0
 61 56  2  0
 62 55  1  0
 63 53  1  0
 65 67  2  0
 66 65  1  0
 68 66  1  0
 69 78  2  0
 69 74  1  0
 70 66  1  0
 70 74  1  0
 71 70  1  0
 72 73  1  0
 72 71  1  0
 73 69  1  0
 74 75  2  0
 75 76  1  0
 77 76  2  0
 78 77  1  0
 79 53  1  0
 79 80  1  0
 79 89  1  0
 80 83  1  0
 81 85  1  0
 81 80  1  0
 82 81  2  0
 85 84  1  0
 87 85  1  0
 87 88  1  0
 87 86  1  0
 89 92  1  1
 89 90  1  0
 91 89  1  0
 93 94  1  0
 94 95  1  0
 96 95  1  0
 96 99  1  0
 97 99  1  0
 99 98  1  0
M  ISO  4   8 100   9 100  51 101  52 101
M  END
>  <TORSDO>  (21) 
F 28

>  <SCORE>  (21) 
-7.889

>  <name>  (21) 
20

>  <ligand_id>  (21) 
20

>  <original_smiles>  (21) 
[H]c1c([H])c([H])c2c(c1[H])C([H])([H])C([H])([H])C([H])([H])C2([H])N([H])C(=O)C1([H])N(C(=O)C([H])(N([H])C(=O)C([H])(N([H])C([H])([H])[H])C([H])([H])[H])C(C([H])([H])[H])(C([H])([H])[H])C([H])([H])[H])C([H])([H])c2c([H])c(OC([H])([H])C([H])([H])C([H])([H])C([H])(C([H])([H])[H])C([H])([H])C([H])([H])c3c(C([H])([H])[H])nc(C([H])(C(=O)N4C([H])([H])C([H])([H])C([H])([H])C([H])(n5nc(-c6c([H])c([H])c(Oc7c([H])c([H])c(F)c([H])c7F)c([H])c6[H])c(C(=O)N([H])[H])c5N([H])[H])C4([H])[H])C([H])([H])[H])n3C([H])([H])C([H])([H])C([H])([H])C([H])([H])C([H])(C([H])([H])[H])C([H])([H])[H])c([H])c([H])c2C1([H])[H]

>  <smiles>  (21) 
[H]c1c([H])c([H])c2c(c1[H])C([H])([H])C([H])([H])C([H])([H])C2([H])N([H])C(=O)C1([H])N(C(=O)C([H])(N([H])C(=O)C([H])(N([H])C([H])([H])[H])C([H])([H])[H])C(C([H])([H])[H])(C([H])([H])[H])C([H])([H])[H])C([H])([H])c2c([H])c(OC([H])([H])C([H])([H])C([H])([H])C([H])(C([H])([H])[H])C([H])([H])C([H])([H])c3c(C([H])([H])[H])nc(C([H])(C(=O)N4C([H])([H])C([H])([H])C([H])([H])C([H])(n5nc(-c6c([H])c([H])c(Oc7c([H])c([H])c(F)c([H])c7F)c([H])c6[H])c(C(=O)N([H])[H])c5N([H])[H])C4([H])[H])C([H])([H])[H])n3C([H])([H])C([H])([H])C([H])([H])C([H])([H])C([H])(C([H])([H])[H])C([H])([H])[H])c([H])c([H])c2C1([H])[H]

$$$$
21:0:0
     RDKit          3D

 90 98  0  0  1  0  0  0  0  0999 V2000
  -28.4170  -22.3040   20.2840 C   0  0  0  0  0  3  0  0  0  0  0  0
  -26.4070  -22.2840   18.6640 C   0  0  0  0  0  1  0  0  0  0  0  0
  -27.9250  -22.1040   18.8350 C   0  0  0  0  0  2  0  0  0  0  0  0
  -29.5700  -21.2420   20.6440 C   0  0  0  0  0  2  0  0  0  0  0  0
  -29.2840  -19.6510   20.7790 C   0  0  0  0  0  2  0  0  0  0  0  0
  -30.2850  -19.0820   18.4830 C   0  0  0  0  0  3  0  0  0  0  0  0
  -30.5880  -16.9720   18.5300 C   0  0  0  0  0  3  0  0  0  0  0  0
  -29.8910  -18.6720   19.7390 C   0  0  0  0  0  0  0  0  0  0  0  0
  -30.7190  -18.0100   17.7200 N   0  0  0  0  0  0  0  0  0  0  0  0
  -30.1370  -17.2380   19.7720 N   0  0  0  0  0  0  0  0  0  0  0  0
  -29.9400  -16.1350   20.7950 C   0  0  0  0  0  2  0  0  0  0  0  0
  -30.6980  -14.7440   20.5280 C   0  0  0  0  0  0  0  0  0  0  0  0
  -30.4960  -12.4780   19.5150 C   0  0  0  0  0  2  0  0  0  0  0  0
  -29.6020  -12.5870   18.2600 C   0  0  0  0  0  2  0  0  0  0  0  0
  -28.1140  -12.4370   18.6380 C   0  0  0  0  0  2  0  0  0  0  0  0
  -27.7150  -13.3270   19.8450 C   0  0  0  0  0  3  0  0  0  0  0  0
  -28.7340  -13.2120   20.9990 C   0  0  0  0  0  2  0  0  0  0  0  0
  -30.0610  -13.5280   20.4610 N   0  0  0  0  0  0  0  0  0  0  0  0
  -31.8910  -14.8090   20.2140 O   0  0  0  0  0  0  0  0  0  0  0  0
  -25.3040  -13.9390   20.4770 C   0  0  0  0  0  0  0  0  0  0  0  0
  -24.2240  -13.1740   20.8240 C   0  0  0  0  0  0  0  0  0  0  0  0
  -24.6850  -11.8230   20.8380 C   0  0  0  0  0  0  0  0  0  0  0  0
  -26.3530  -13.0530   20.2940 N   0  0  0  0  0  0  0  0  0  0  0  0
  -25.9850  -11.7760   20.5740 N   0  0  0  0  0  0  0  0  0  0  0  0
  -23.9490  -10.5650   21.0290 C   0  0  0  0  0  0  0  0  0  0  0  0
  -24.3550   -9.6080   21.9840 C   0  0  0  0  0  3  0  0  0  0  0  0
  -23.6190   -8.4160   22.1630 C   0  0  0  0  0  3  0  0  0  0  0  0
  -22.4630   -8.1730   21.3830 C   0  0  0  0  0  0  0  0  0  0  0  0
  -22.0770   -9.1180   20.4170 C   0  0  0  0  0  3  0  0  0  0  0  0
  -22.8130  -10.3010   20.2380 C   0  0  0  0  0  3  0  0  0  0  0  0
  -21.7020   -7.0320   21.4680 O   0  0  0  0  0  0  0  0  0  0  0  0
  -21.6300   -6.3000   22.6260 C   0  0  0  0  0  0  0  0  0  0  0  0
  -21.1980   -6.8710   23.8420 C   0  0  0  0  0  3  0  0  0  0  0  0
  -21.0720   -6.0670   24.9930 C   0  0  0  0  0  3  0  0  0  0  0  0
  -21.3690   -4.6920   24.9270 C   0  0  0  0  0  0  0  0  0  0  0  0
  -21.7930   -4.1200   23.7140 C   0  0  0  0  0  3  0  0  0  0  0  0
  -21.9210   -4.9220   22.5670 C   0  0  0  0  0  0  0  0  0  0  0  0
  -22.3110   -4.3630   21.3950 F   0  0  0  0  0  0  0  0  0  0  0  0
  -21.2400   -3.9170   26.0280 F   0  0  0  0  0  0  0  0  0  0  0  0
  -22.8200  -13.6590   21.0360 C   0  0  0  0  0  0  0  0  0  0  0  0
  -22.0610  -12.9840   21.8910 N   0  0  0  0  0  0  0  0  0  0  0  0
  -22.4030  -14.6730   20.4770 O   0  0  0  0  0  0  0  0  0  0  0  0
  -22.4110  -12.1630   22.3640 H   0  0  0  0  0  0  0  0  0  0  0  0
  -21.1170  -13.2920   22.0770 H   0  0  0  0  0  0  0  0  0  0  0  0
  -25.4790  -15.3050   20.2780 N   0  0  0  0  0  0  0  0  0  0  0  0
  -24.7100  -15.9620   20.3510 H   0  0  0  0  0  0  0  0  0  0  0  0
  -26.3390  -15.7380   19.9690 H   0  0  0  0  0  0  0  0  0  0  0  0
  -28.6440  -23.8640   20.6870 C   0  0  0  0  0  3  0  0  0  0  0  0
  -28.3600  -25.0920   19.6890 C   0  0  0  0  0  3  0  0  0  0  0  0
  -28.3300  -26.5010   20.1870 O   0  0  0  0  0  0  0  0  0  0  0  0
  -24.6110  -31.9080   23.2230 C   0  0  0  0  0  0  0  0  0  0  0  0
  -27.1870  -27.3280   20.1370 C   0  0  0  0  0  0  0  0  0  0  0  0
  -23.3900  -30.5100   21.5960 C   0  0  0  0  0  3  0  0  0  0  0  0
  -24.8220  -28.9610   20.1560 C   0  0  0  0  0  0  0  0  0  0  0  0
  -25.9290  -30.8220   21.3880 C   0  0  0  0  0  2  0  0  0  0  0  0
  -25.9990  -29.4420   20.7390 C   0  0  0  0  0  0  0  0  0  0  0  0
  -27.1800  -28.6380   20.7200 C   0  0  0  0  0  3  0  0  0  0  0  0
  -25.9750  -26.9030   19.5410 C   0  0  0  0  0  3  0  0  0  0  0  0
  -24.8140  -27.6970   19.5500 C   0  0  0  0  0  3  0  0  0  0  0  0
  -23.5890  -29.8380   20.2130 C   0  0  0  0  0  2  0  0  0  0  0  0
  -24.6640  -31.0990   22.1250 N   0  0  0  0  0  0  0  0  0  0  0  0
  -23.5320  -32.1870   23.7660 O   0  0  0  0  0  0  0  0  0  0  0  0
  -22.7360  -29.4930   22.5630 C   0  0  0  0  0  0  0  0  0  0  0  0
  -21.4090  -29.3160   22.4460 N   0  0  0  0  0  0  0  0  0  0  0  0
  -23.4210  -28.8680   23.3750 O   0  0  0  0  0  0  0  0  0  0  0  0
  -20.9150  -29.8720   21.7630 H   0  0  0  0  0  0  0  0  0  0  0  0
  -18.0370  -28.1140   22.9710 C   0  0  0  0  0  0  0  0  0  0  0  0
  -20.5960  -28.3790   23.2250 C   0  0  0  0  0  3  0  0  0  0  0  0
  -20.6980  -26.9450   22.6560 C   0  0  0  0  0  2  0  0  0  0  0  0
  -19.5900  -26.6160   21.6490 C   0  0  0  0  0  2  0  0  0  0  0  0
  -18.2120  -26.7630   22.3000 C   0  0  0  0  0  2  0  0  0  0  0  0
  -19.1570  -28.8800   23.3910 C   0  0  0  0  0  0  0  0  0  0  0  0
  -18.9390  -30.1450   23.9800 C   0  0  0  0  0  3  0  0  0  0  0  0
  -17.6330  -30.6450   24.1500 C   0  0  0  0  0  3  0  0  0  0  0  0
  -16.5280  -29.8750   23.7460 C   0  0  0  0  0  3  0  0  0  0  0  0
  -16.7310  -28.6120   23.1630 C   0  0  0  0  0  3  0  0  0  0  0  0
  -25.8990  -32.5410   23.8320 C   0  0  0  0  0  3  0  0  0  0  0  0
  -25.5910  -33.9390   24.1670 N   0  0  0  0  0  0  0  0  0  0  0  0
  -25.9210  -34.9940   23.4100 C   0  0  0  0  0  0  0  0  0  0  0  0
  -26.5850  -34.8930   22.3750 O   0  0  0  0  0  0  0  0  0  0  0  0
  -25.0000  -34.0920   24.9710 H   0  0  0  0  0  0  0  0  0  0  0  0
  -24.1950  -36.7930   23.0680 C   0  0  0  0  0  1  0  0  0  0  0  0
  -25.4360  -36.3810   23.8740 C   0  0  0  0  0  3  0  0  0  0  0  0
  -27.5760  -37.2560   24.7050 C   0  0  0  0  0  1  0  0  0  0  0  0
  -26.4710  -37.4320   23.7660 N   0  0  0  0  0  0  0  0  0  0  0  0
  -26.0680  -38.3530   23.9190 H   0  0  0  0  0  0  0  0  0  0  0  0
  -26.4280  -31.7700   25.1040 C   0  0  1  0  0  0  0  0  0  0  0  0
  -25.3450  -31.5330   26.1830 C   0  0  0  0  0  1  0  0  0  0  0  0
  -27.0060  -30.3920   24.7080 C   0  0  0  0  0  1  0  0  0  0  0  0
  -27.5850  -32.5630   25.7540 C   0  0  0  0  0  1  0  0  0  0  0  0
  1  3  1  0
  1  4  1  0
  1 48  1  0
  2  3  1  0
  4  5  1  0
  6  8  2  0
  7 10  1  0
  8 10  1  0
  8  5  1  0
  9  6  1  0
  9  7  2  0
 10 11  1  0
 12 11  1  0
 13 18  1  0
 14 15  1  0
 14 13  1  0
 16 15  1  0
 16 23  1  0
 16 17  1  0
 18 12  1  0
 18 17  1  0
 19 12  2  0
 20 21  2  0
 21 22  1  0
 21 40  1  0
 22 25  1  0
 23 20  1  0
 23 24  1  0
 24 22  2  0
 25 26  1  0
 26 27  2  0
 28 31  1  0
 28 27  1  0
 29 28  2  0
 30 29  1  0
 30 25  2  0
 31 32  1  0
 32 33  1  0
 33 34  2  0
 35 34  1  0
 35 39  1  0
 36 35  2  0
 37 32  2  0
 37 36  1  0
 38 37  1  0
 40 41  1  0
 41 44  1  0
 41 43  1  0
 42 40  2  0
 45 46  1  0
 45 20  1  0
 47 45  1  0
 49 50  1  0
 49 48  2  0
 51 62  2  0
 52 50  1  0
 52 57  1  0
 53 61  1  0
 53 63  1  0
 54 60  1  0
 54 56  1  0
 55 61  1  0
 56 55  1  0
 57 56  2  0
 58 59  1  0
 58 52  2  0
 59 54  2  0
 60 53  1  0
 61 51  1  0
 63 65  2  0
 64 63  1  0
 66 64  1  0
 67 76  2  0
 67 72  1  0
 68 64  1  0
 68 72  1  0
 69 68  1  0
 70 71  1  0
 70 69  1  0
 71 67  1  0
 72 73  2  0
 73 74  1  0
 75 74  2  0
 76 75  1  0
 77 51  1  0
 77 78  1  0
 77 87  1  0
 78 81  1  0
 79 83  1  0
 79 78  1  0
 80 79  2  0
 83 82  1  0
 85 83  1  0
 85 86  1  0
 85 84  1  0
 87 90  1  1
 87 88  1  0
 89 87  1  0
M  ISO  4  11 100  12 100  49 101  50 101
M  END
>  <TORSDO>  (22) 
F 23

>  <SCORE>  (22) 
-12.755

>  <name>  (22) 
21

>  <ligand_id>  (22) 
21

>  <original_smiles>  (22) 
[H]c1nc([H])n(C([H])([H])C(=O)N2C([H])([H])C([H])([H])C([H])([H])C([H])(n3nc(-c4c([H])c([H])c(Oc5c([H])c([H])c(F)c([H])c5F)c([H])c4[H])c(C(=O)N([H])[H])c3N([H])[H])C2([H])[H])c1C([H])([H])C([H])([H])C([H])(C([H])([H])C([H])([H])[H])C([H])([H])C([H])([H])Oc1c([H])c([H])c2c(c1[H])C([H])([H])N(C(=O)C([H])(N([H])C(=O)C([H])(N([H])C([H])([H])[H])C([H])([H])[H])C(C([H])([H])[H])(C([H])([H])[H])C([H])([H])[H])C([H])(C(=O)N([H])C1([H])c3c([H])c([H])c([H])c([H])c3C([H])([H])C([H])([H])C1([H])[H])C2([H])[H]

>  <smiles>  (22) 
[H]c1nc([H])n(C([H])([H])C(=O)N2C([H])([H])C([H])([H])C([H])([H])C([H])(n3nc(-c4c([H])c([H])c(Oc5c([H])c([H])c(F)c([H])c5F)c([H])c4[H])c(C(=O)N([H])[H])c3N([H])[H])C2([H])[H])c1C([H])([H])C([H])([H])C([H])(C([H])([H])C([H])([H])[H])C([H])([H])C([H])([H])Oc1c([H])c([H])c2c(c1[H])C([H])([H])N(C(=O)C([H])(N([H])C(=O)C([H])(N([H])C([H])([H])[H])C([H])([H])[H])C(C([H])([H])[H])(C([H])([H])[H])C([H])([H])[H])C([H])(C(=O)N([H])C1([H])c3c([H])c([H])c([H])c([H])c3C([H])([H])C([H])([H])C1([H])[H])C2([H])[H]

$$$$
22:0:0
     RDKit          3D

 93101  0  0  1  0  0  0  0  0999 V2000
  -29.1860  -21.0200   20.4130 C   0  0  0  0  0  0  0  0  0  0  0  0
  -28.1570  -20.5300   19.6510 C   0  0  0  0  0  0  0  0  0  0  0  0
  -29.6110  -18.8320   19.9210 C   0  0  0  0  0  0  0  0  0  0  0  0
  -26.9470  -21.2890   19.1890 C   0  0  0  0  0  1  0  0  0  0  0  0
  -30.1010  -19.9310   20.5720 N   0  0  0  0  0  0  0  0  0  0  0  0
  -28.3980  -19.1640   19.3950 N   0  0  0  0  0  0  0  0  0  0  0  0
  -26.2280  -17.9420   19.4590 C   0  0  0  0  0  1  0  0  0  0  0  0
  -27.4850  -18.3160   18.6460 C   0  0  0  0  0  2  0  0  0  0  0  0
  -29.1980  -22.4230   21.1270 C   0  0  0  0  0  2  0  0  0  0  0  0
  -29.0910  -23.8350   20.3460 C   0  0  0  0  0  2  0  0  0  0  0  0
  -29.0430  -25.3510   22.4890 C   0  0  0  0  0  1  0  0  0  0  0  0
  -28.4500  -25.1250   21.0860 C   0  0  0  0  0  3  0  0  0  0  0  0
  -28.5450  -26.4660   20.4560 O   0  0  0  0  0  0  0  0  0  0  0  0
  -24.6080  -31.8940   23.2190 C   0  0  0  0  0  0  0  0  0  0  0  0
  -27.4110  -27.2930   20.4160 C   0  0  0  0  0  0  0  0  0  0  0  0
  -23.5030  -30.4620   21.5350 C   0  0  0  0  0  3  0  0  0  0  0  0
  -25.0400  -28.8850   20.2290 C   0  0  0  0  0  0  0  0  0  0  0  0
  -26.0450  -30.7920   21.4870 C   0  0  0  0  0  2  0  0  0  0  0  0
  -26.1690  -29.3980   20.8810 C   0  0  0  0  0  0  0  0  0  0  0  0
  -27.3600  -28.6140   20.9600 C   0  0  0  0  0  3  0  0  0  0  0  0
  -26.2590  -26.8230   19.7530 C   0  0  0  0  0  3  0  0  0  0  0  0
  -25.0860  -27.6020   19.6580 C   0  0  0  0  0  3  0  0  0  0  0  0
  -23.8010  -29.7590   20.1830 C   0  0  0  0  0  2  0  0  0  0  0  0
  -24.7340  -31.0690   22.1390 N   0  0  0  0  0  0  0  0  0  0  0  0
  -23.4960  -32.1770   23.6880 O   0  0  0  0  0  0  0  0  0  0  0  0
  -22.7880  -29.4630   22.4760 C   0  0  0  0  0  0  0  0  0  0  0  0
  -21.4640  -29.3030   22.2960 N   0  0  0  0  0  0  0  0  0  0  0  0
  -23.4240  -28.8360   23.3260 O   0  0  0  0  0  0  0  0  0  0  0  0
  -21.0140  -29.8620   21.5860 H   0  0  0  0  0  0  0  0  0  0  0  0
  -18.0460  -28.2010   22.7080 C   0  0  0  0  0  0  0  0  0  0  0  0
  -20.6030  -28.3820   23.0380 C   0  0  0  0  0  3  0  0  0  0  0  0
  -20.6780  -26.9540   22.4490 C   0  0  0  0  0  2  0  0  0  0  0  0
  -19.5900  -26.6760   21.4070 C   0  0  0  0  0  2  0  0  0  0  0  0
  -18.1990  -26.8540   22.0210 C   0  0  0  0  0  2  0  0  0  0  0  0
  -19.1760  -28.9250   23.1720 C   0  0  0  0  0  0  0  0  0  0  0  0
  -18.9810  -30.1870   23.7730 C   0  0  0  0  0  3  0  0  0  0  0  0
  -17.6880  -30.7230   23.9190 C   0  0  0  0  0  3  0  0  0  0  0  0
  -16.5710  -29.9950   23.4730 C   0  0  0  0  0  3  0  0  0  0  0  0
  -16.7510  -28.7370   22.8710 C   0  0  0  0  0  3  0  0  0  0  0  0
  -25.8540  -32.5390   23.9030 C   0  0  0  0  0  3  0  0  0  0  0  0
  -25.5260  -33.9430   24.1920 N   0  0  0  0  0  0  0  0  0  0  0  0
  -25.8880  -34.9830   23.4300 C   0  0  0  0  0  0  0  0  0  0  0  0
  -26.6030  -34.8630   22.4320 O   0  0  0  0  0  0  0  0  0  0  0  0
  -24.8940  -34.1090   24.9630 H   0  0  0  0  0  0  0  0  0  0  0  0
  -24.1710  -36.7640   22.9720 C   0  0  0  0  0  1  0  0  0  0  0  0
  -25.3790  -36.3780   23.8420 C   0  0  0  0  0  3  0  0  0  0  0  0
  -27.4760  -37.2840   24.7400 C   0  0  0  0  0  1  0  0  0  0  0  0
  -26.4110  -37.4320   23.7530 N   0  0  0  0  0  0  0  0  0  0  0  0
  -25.9960  -38.3540   23.8710 H   0  0  0  0  0  0  0  0  0  0  0  0
  -26.2980  -31.7900   25.2200 C   0  0  1  0  0  0  0  0  0  0  0  0
  -25.1420  -31.5530   26.2190 C   0  0  0  0  0  1  0  0  0  0  0  0
  -26.9230  -30.4170   24.8820 C   0  0  0  0  0  1  0  0  0  0  0  0
  -27.3920  -32.6090   25.9440 C   0  0  0  0  0  1  0  0  0  0  0  0
  -30.3540  -17.4510   19.6160 C   0  0  0  0  0  2  0  0  0  0  0  0
  -29.1830  -16.0620   21.4780 C   0  0  0  0  0  1  0  0  0  0  0  0
  -31.5760  -16.5020   21.6100 C   0  0  0  0  0  1  0  0  0  0  0  0
  -30.4460  -16.1610   20.6050 C   0  0  2  0  0  0  0  0  0  0  0  0
  -30.8940  -14.7450   19.9110 C   0  0  0  0  0  0  0  0  0  0  0  0
  -30.5850  -12.4710   18.8710 C   0  0  0  0  0  2  0  0  0  0  0  0
  -29.5730  -12.5450   17.7030 C   0  0  0  0  0  2  0  0  0  0  0  0
  -28.1300  -12.3760   18.2150 C   0  0  0  0  0  2  0  0  0  0  0  0
  -27.8460  -13.2540   19.4620 C   0  0  0  0  0  3  0  0  0  0  0  0
  -28.9680  -13.1070   20.5060 C   0  0  0  0  0  2  0  0  0  0  0  0
  -30.2290  -13.5220   19.8700 N   0  0  0  0  0  0  0  0  0  0  0  0
  -31.9750  -14.7940   19.3140 O   0  0  0  0  0  0  0  0  0  0  0  0
  -25.5270  -13.8640   20.3680 C   0  0  0  0  0  0  0  0  0  0  0  0
  -24.4800  -13.1040   20.8050 C   0  0  0  0  0  0  0  0  0  0  0  0
  -24.9130  -11.7470   20.7050 C   0  0  0  0  0  0  0  0  0  0  0  0
  -26.5350  -12.9760   20.0370 N   0  0  0  0  0  0  0  0  0  0  0  0
  -26.1760  -11.6930   20.2980 N   0  0  0  0  0  0  0  0  0  0  0  0
  -24.1780  -10.4960   20.9160 C   0  0  0  0  0  0  0  0  0  0  0  0
  -24.6170   -9.5280   21.8470 C   0  0  0  0  0  3  0  0  0  0  0  0
  -23.8810   -8.3400   22.0440 C   0  0  0  0  0  3  0  0  0  0  0  0
  -22.6920   -8.1130   21.3120 C   0  0  0  0  0  0  0  0  0  0  0  0
  -22.2710   -9.0680   20.3700 C   0  0  0  0  0  3  0  0  0  0  0  0
  -23.0080  -10.2470   20.1700 C   0  0  0  0  0  3  0  0  0  0  0  0
  -21.9270   -6.9760   21.4190 O   0  0  0  0  0  0  0  0  0  0  0  0
  -21.8300   -6.2830   22.6000 C   0  0  0  0  0  0  0  0  0  0  0  0
  -21.3680   -6.8930   23.7860 C   0  0  0  0  0  3  0  0  0  0  0  0
  -21.2190   -6.1260   24.9590 C   0  0  0  0  0  3  0  0  0  0  0  0
  -21.5210   -4.7500   24.9440 C   0  0  0  0  0  0  0  0  0  0  0  0
  -21.9750   -4.1410   23.7620 C   0  0  0  0  0  3  0  0  0  0  0  0
  -22.1260   -4.9050   22.5910 C   0  0  0  0  0  0  0  0  0  0  0  0
  -22.5440   -4.3090   21.4480 F   0  0  0  0  0  0  0  0  0  0  0  0
  -21.3700   -4.0120   26.0680 F   0  0  0  0  0  0  0  0  0  0  0  0
  -23.1180  -13.6020   21.1940 C   0  0  0  0  0  0  0  0  0  0  0  0
  -22.4490  -12.9090   22.1080 N   0  0  0  0  0  0  0  0  0  0  0  0
  -22.6580  -14.6410   20.7230 O   0  0  0  0  0  0  0  0  0  0  0  0
  -22.8400  -12.0720   22.5160 H   0  0  0  0  0  0  0  0  0  0  0  0
  -21.5370  -13.2220   22.4080 H   0  0  0  0  0  0  0  0  0  0  0  0
  -25.6930  -15.2280   20.1950 N   0  0  0  0  0  0  0  0  0  0  0  0
  -24.9370  -15.8840   20.3550 H   0  0  0  0  0  0  0  0  0  0  0  0
  -26.5060  -15.6460   19.7650 H   0  0  0  0  0  0  0  0  0  0  0  0
  1  5  1  0
  1  9  1  0
  2  1  2  0
  3  5  2  0
  4  2  1  0
  6  2  1  0
  6  3  1  0
  8  6  1  0
  8  7  1  0
 10 12  1  0
 10  9  1  0
 12 11  1  0
 13 12  1  0
 14 25  2  0
 15 13  1  0
 15 20  1  0
 16 24  1  0
 16 26  1  0
 17 19  1  0
 18 24  1  0
 19 20  2  0
 19 18  1  0
 21 15  2  0
 22 21  1  0
 22 17  2  0
 23 17  1  0
 23 16  1  0
 24 14  1  0
 26 28  2  0
 27 26  1  0
 29 27  1  0
 30 39  2  0
 30 35  1  0
 31 27  1  0
 31 35  1  0
 32 31  1  0
 33 34  1  0
 33 32  1  0
 34 30  1  0
 35 36  2  0
 36 37  1  0
 38 37  2  0
 39 38  1  0
 40 14  1  0
 40 41  1  0
 40 50  1  0
 41 44  1  0
 42 46  1  0
 42 41  1  0
 43 42  2  0
 46 45  1  0
 48 46  1  0
 48 49  1  0
 48 47  1  0
 50 53  1  1
 50 51  1  0
 52 50  1  0
 54  3  1  0
 54 57  1  0
 57 55  1  1
 57 56  1  0
 58 57  1  0
 59 64  1  0
 60 61  1  0
 60 59  1  0
 62 61  1  0
 62 69  1  0
 62 63  1  0
 64 58  1  0
 64 63  1  0
 65 58  2  0
 66 67  2  0
 67 86  1  0
 68 67  1  0
 68 71  1  0
 69 70  1  0
 69 66  1  0
 70 68  2  0
 71 72  1  0
 72 73  2  0
 74 77  1  0
 74 73  1  0
 75 74  2  0
 76 75  1  0
 76 71  2  0
 77 78  1  0
 78 79  1  0
 79 80  2  0
 81 80  1  0
 81 85  1  0
 82 81  2  0
 83 78  2  0
 83 82  1  0
 84 83  1  0
 86 87  1  0
 87 90  1  0
 87 89  1  0
 88 86  2  0
 91 92  1  0
 91 66  1  0
 93 91  1  0
M  ISO  4  12 101  13 101  57 100  58 100
M  END
>  <TORSDO>  (23) 
F 22

>  <SCORE>  (23) 
-12.351

>  <name>  (23) 
22

>  <ligand_id>  (23) 
22

>  <original_smiles>  (23) 
[H]c1c([H])c([H])c2c(c1[H])C([H])([H])C([H])([H])C([H])([H])C2([H])N([H])C(=O)C1([H])N(C(=O)C([H])(N([H])C(=O)C([H])(N([H])C([H])([H])[H])C([H])([H])[H])C(C([H])([H])[H])(C([H])([H])[H])C([H])([H])[H])C([H])([H])c2c([H])c(OC([H])(C([H])([H])[H])C([H])([H])C([H])([H])c3nc(C([H])([H])C(C(=O)N4C([H])([H])C([H])([H])C([H])([H])C([H])(n5nc(-c6c([H])c([H])c(Oc7c([H])c([H])c(F)c([H])c7F)c([H])c6[H])c(C(=O)N([H])[H])c5N([H])[H])C4([H])[H])(C([H])([H])[H])C([H])([H])[H])n(C([H])([H])C([H])([H])[H])c3C([H])([H])[H])c([H])c([H])c2C1([H])[H]

>  <smiles>  (23) 
[H]c1c([H])c([H])c2c(c1[H])C([H])([H])C([H])([H])C([H])([H])C2([H])N([H])C(=O)C1([H])N(C(=O)C([H])(N([H])C(=O)C([H])(N([H])C([H])([H])[H])C([H])([H])[H])C(C([H])([H])[H])(C([H])([H])[H])C([H])([H])[H])C([H])([H])c2c([H])c(OC([H])(C([H])([H])[H])C([H])([H])C([H])([H])c3nc(C([H])([H])C(C(=O)N4C([H])([H])C([H])([H])C([H])([H])C([H])(n5nc(-c6c([H])c([H])c(Oc7c([H])c([H])c(F)c([H])c7F)c([H])c6[H])c(C(=O)N([H])[H])c5N([H])[H])C4([H])[H])(C([H])([H])[H])C([H])([H])[H])n(C([H])([H])C([H])([H])[H])c3C([H])([H])[H])c([H])c([H])c2C1([H])[H]

$$$$
23:0:0
     RDKit          3D

 94102  0  0  1  0  0  0  0  0999 V2000
  -29.9760  -22.3980   19.4360 C   0  0  0  0  0  3  0  0  0  0  0  0
  -28.9880  -23.1500   21.8670 C   0  0  0  0  0  3  0  0  0  0  0  0
  -29.4740  -23.7160   19.5770 C   0  0  0  0  0  0  0  0  0  0  0  0
  -28.9610  -24.1200   20.8380 C   0  0  0  0  0  0  0  0  0  0  0  0
  -29.9610  -21.5090   20.5270 C   0  0  0  0  0  0  0  0  0  0  0  0
  -29.5250  -24.6480   18.3810 C   0  0  0  0  0  1  0  0  0  0  0  0
  -29.4620  -21.8870   21.7220 N   0  0  0  0  0  0  0  0  0  0  0  0
  -30.5110  -20.2170   20.3970 N   0  0  0  0  0  0  0  0  0  0  0  0
  -30.8830  -19.9910   19.4810 H   0  0  0  0  0  0  0  0  0  0  0  0
  -28.4720  -25.5440   21.1950 C   0  0  0  0  0  2  0  0  0  0  0  0
  -28.3020  -26.4660   20.1070 O   0  0  0  0  0  0  0  0  0  0  0  0
  -24.6290  -31.7610   23.2460 C   0  0  0  0  0  0  0  0  0  0  0  0
  -27.1740  -27.2560   20.1650 C   0  0  0  0  0  0  0  0  0  0  0  0
  -23.3990  -30.4020   21.5860 C   0  0  0  0  0  3  0  0  0  0  0  0
  -24.8230  -28.8280   20.1680 C   0  0  0  0  0  0  0  0  0  0  0  0
  -25.9350  -30.6880   21.4120 C   0  0  0  0  0  2  0  0  0  0  0  0
  -25.9890  -29.3150   20.7740 C   0  0  0  0  0  0  0  0  0  0  0  0
  -27.1710  -28.5330   20.7760 C   0  0  0  0  0  3  0  0  0  0  0  0
  -25.9960  -26.7850   19.5540 C   0  0  0  0  0  3  0  0  0  0  0  0
  -24.8200  -27.5600   19.5590 C   0  0  0  0  0  3  0  0  0  0  0  0
  -23.6020  -29.7200   20.2060 C   0  0  0  0  0  2  0  0  0  0  0  0
  -24.6720  -30.9670   22.1390 N   0  0  0  0  0  0  0  0  0  0  0  0
  -23.5510  -32.0600   23.7790 O   0  0  0  0  0  0  0  0  0  0  0  0
  -22.7100  -29.3970   22.5370 C   0  0  0  0  0  0  0  0  0  0  0  0
  -21.3850  -29.2410   22.3890 N   0  0  0  0  0  0  0  0  0  0  0  0
  -23.3680  -28.7560   23.3630 O   0  0  0  0  0  0  0  0  0  0  0  0
  -20.9180  -29.8060   21.6940 H   0  0  0  0  0  0  0  0  0  0  0  0
  -17.9850  -28.0880   22.8030 C   0  0  0  0  0  0  0  0  0  0  0  0
  -20.5360  -28.3210   23.1460 C   0  0  0  0  0  3  0  0  0  0  0  0
  -20.6400  -26.8830   22.5860 C   0  0  0  0  0  2  0  0  0  0  0  0
  -19.5630  -26.5620   21.5440 C   0  0  0  0  0  2  0  0  0  0  0  0
  -18.1650  -26.7300   22.1460 C   0  0  0  0  0  2  0  0  0  0  0  0
  -19.0990  -28.8420   23.2580 C   0  0  0  0  0  0  0  0  0  0  0  0
  -18.8770  -30.1160   23.8260 C   0  0  0  0  0  3  0  0  0  0  0  0
  -17.5740  -30.6330   23.9500 C   0  0  0  0  0  3  0  0  0  0  0  0
  -16.4740  -29.8750   23.5120 C   0  0  0  0  0  3  0  0  0  0  0  0
  -16.6800  -28.6050   22.9430 C   0  0  0  0  0  3  0  0  0  0  0  0
  -25.9280  -32.3520   23.8800 C   0  0  0  0  0  3  0  0  0  0  0  0
  -26.4250  -31.5460   25.1430 C   0  0  1  0  0  0  0  0  0  0  0  0
  -25.3250  -31.3080   26.2030 C   0  0  0  0  0  1  0  0  0  0  0  0
  -26.9840  -30.1660   24.7220 C   0  0  0  0  0  1  0  0  0  0  0  0
  -27.5910  -32.3030   25.8220 C   0  0  0  0  0  1  0  0  0  0  0  0
  -25.6530  -33.7510   24.2330 N   0  0  0  0  0  0  0  0  0  0  0  0
  -26.0070  -34.8070   23.4860 C   0  0  0  0  0  0  0  0  0  0  0  0
  -26.6710  -34.7030   22.4530 O   0  0  0  0  0  0  0  0  0  0  0  0
  -25.0670  -33.9080   25.0400 H   0  0  0  0  0  0  0  0  0  0  0  0
  -24.3120  -36.6360   23.1670 C   0  0  0  0  0  1  0  0  0  0  0  0
  -25.5510  -36.1980   23.9650 C   0  0  0  0  0  3  0  0  0  0  0  0
  -27.7070  -37.0310   24.7930 C   0  0  0  0  0  1  0  0  0  0  0  0
  -26.6040  -37.2320   23.8560 N   0  0  0  0  0  0  0  0  0  0  0  0
  -26.2170  -38.1580   24.0160 H   0  0  0  0  0  0  0  0  0  0  0  0
  -29.9150  -19.0920   21.1290 C   0  0  0  0  0  2  0  0  0  0  0  0
  -32.2510  -18.2360   21.7050 C   0  0  0  0  0  1  0  0  0  0  0  0
  -30.2140  -17.0810   22.5650 C   0  0  0  0  0  1  0  0  0  0  0  0
  -30.8130  -17.8190   21.3440 C   0  0  1  0  0  0  0  0  0  0  0  0
  -30.8560  -16.8550   20.1090 C   0  0  0  0  0  2  0  0  0  0  0  0
  -31.4350  -14.3730   20.0040 C   0  0  0  0  0  0  0  0  0  0  0  0
  -31.0380  -12.1800   18.9460 C   0  0  0  0  0  2  0  0  0  0  0  0
  -30.0720  -12.3990   17.7620 C   0  0  0  0  0  2  0  0  0  0  0  0
  -28.6030  -12.3550   18.2300 C   0  0  0  0  0  2  0  0  0  0  0  0
  -28.3450  -13.2400   19.4790 C   0  0  0  0  0  3  0  0  0  0  0  0
  -29.4150  -12.9750   20.5650 C   0  0  0  0  0  2  0  0  0  0  0  0
  -30.7400  -13.2020   19.9600 N   0  0  0  0  0  0  0  0  0  0  0  0
  -32.5520  -14.5130   19.4980 O   0  0  0  0  0  0  0  0  0  0  0  0
  -30.7160  -15.4210   20.4480 N   0  0  0  0  0  0  0  0  0  0  0  0
  -29.8350  -15.1700   20.8700 H   0  0  0  0  0  0  0  0  0  0  0  0
  -26.0130  -14.0110   20.2530 C   0  0  0  0  0  0  0  0  0  0  0  0
  -24.9070  -13.3140   20.6570 C   0  0  0  0  0  0  0  0  0  0  0  0
  -25.2750  -11.9340   20.6160 C   0  0  0  0  0  0  0  0  0  0  0  0
  -26.9890  -13.0610   19.9960 N   0  0  0  0  0  0  0  0  0  0  0  0
  -26.5500  -11.8060   20.2700 N   0  0  0  0  0  0  0  0  0  0  0  0
  -24.4720  -10.7240   20.8310 C   0  0  0  0  0  0  0  0  0  0  0  0
  -24.8250   -9.7680   21.8100 C   0  0  0  0  0  3  0  0  0  0  0  0
  -24.0270   -8.6210   22.0100 C   0  0  0  0  0  3  0  0  0  0  0  0
  -22.8630   -8.4220   21.2320 C   0  0  0  0  0  0  0  0  0  0  0  0
  -22.5290   -9.3640   20.2430 C   0  0  0  0  0  3  0  0  0  0  0  0
  -23.3280  -10.5030   20.0410 C   0  0  0  0  0  3  0  0  0  0  0  0
  -22.0430   -7.3250   21.3380 O   0  0  0  0  0  0  0  0  0  0  0  0
  -21.8600   -6.6760   22.5330 C   0  0  0  0  0  0  0  0  0  0  0  0
  -21.3680   -7.3450   23.6760 C   0  0  0  0  0  3  0  0  0  0  0  0
  -21.1300   -6.6250   24.8640 C   0  0  0  0  0  3  0  0  0  0  0  0
  -21.3720   -5.2390   24.9090 C   0  0  0  0  0  0  0  0  0  0  0  0
  -21.8570   -4.5720   23.7710 C   0  0  0  0  0  3  0  0  0  0  0  0
  -22.0970   -5.2880   22.5860 C   0  0  0  0  0  0  0  0  0  0  0  0
  -22.5440   -4.6370   21.4840 F   0  0  0  0  0  0  0  0  0  0  0  0
  -21.1360   -4.5450   26.0470 F   0  0  0  0  0  0  0  0  0  0  0  0
  -23.5540  -13.8840   20.9710 C   0  0  0  0  0  0  0  0  0  0  0  0
  -22.8180  -13.2530   21.8800 N   0  0  0  0  0  0  0  0  0  0  0  0
  -23.1600  -14.9230   20.4430 O   0  0  0  0  0  0  0  0  0  0  0  0
  -23.1520  -12.4120   22.3280 H   0  0  0  0  0  0  0  0  0  0  0  0
  -21.9100  -13.6160   22.1310 H   0  0  0  0  0  0  0  0  0  0  0  0
  -26.2650  -15.3670   20.0660 N   0  0  0  0  0  0  0  0  0  0  0  0
  -25.5430  -16.0700   20.1860 H   0  0  0  0  0  0  0  0  0  0  0  0
  -27.1270  -15.7460   19.6960 H   0  0  0  0  0  0  0  0  0  0  0  0
  1  3  2  0
  1  5  1  0
  3  4  1  0
  4 10  1  0
  4  2  2  0
  5  7  2  0
  6  3  1  0
  7  2  1  0
  8  5  1  0
  8 52  1  0
  9  8  1  0
 11 13  1  0
 11 10  1  0
 12 23  2  0
 13 18  1  0
 14 22  1  0
 14 24  1  0
 15 21  1  0
 15 17  1  0
 16 22  1  0
 17 18  2  0
 17 16  1  0
 19 20  1  0
 19 13  2  0
 20 15  2  0
 21 14  1  0
 22 12  1  0
 24 26  2  0
 25 24  1  0
 27 25  1  0
 28 37  2  0
 28 33  1  0
 29 25  1  0
 29 33  1  0
 30 29  1  0
 31 32  1  0
 31 30  1  0
 32 28  1  0
 33 34  2  0
 34 35  1  0
 36 35  2  0
 37 36  1  0
 38 12  1  0
 38 43  1  0
 38 39  1  0
 39 42  1  1
 39 40  1  0
 41 39  1  0
 43 46  1  0
 44 48  1  0
 44 43  1  0
 45 44  2  0
 48 47  1  0
 50 48  1  0
 50 51  1  0
 50 49  1  0
 52 55  1  0
 55 53  1  1
 55 54  1  0
 56 65  1  0
 56 55  1  0
 57 65  1  0
 58 63  1  0
 59 60  1  0
 59 58  1  0
 61 60  1  0
 61 70  1  0
 61 62  1  0
 63 57  1  0
 63 62  1  0
 64 57  2  0
 65 66  1  0
 67 68  2  0
 68 87  1  0
 69 68  1  0
 69 72  1  0
 70 67  1  0
 70 71  1  0
 71 69  2  0
 72 73  1  0
 73 74  2  0
 75 78  1  0
 75 74  1  0
 76 75  2  0
 77 76  1  0
 77 72  2  0
 78 79  1  0
 79 84  2  0
 79 80  1  0
 80 81  2  0
 81 82  1  0
 82 86  1  0
 83 82  2  0
 84 83  1  0
 85 84  1  0
 87 88  1  0
 88 91  1  0
 88 90  1  0
 89 87  2  0
 92 93  1  0
 92 67  1  0
 94 92  1  0
M  ISO  4  10 101  11 101  57 100  65 100
M  END
>  <TORSDO>  (24) 
F 20

>  <SCORE>  (24) 
-12.669

>  <name>  (24) 
23

>  <ligand_id>  (24) 
23

>  <original_smiles>  (24) 
[H]c1nc(N([H])C([H])([H])C(C([H])([H])[H])(C([H])([H])[H])C([H])([H])N([H])C(=O)N2C([H])([H])C([H])([H])C([H])([H])C([H])(n3nc(-c4c([H])c([H])c(Oc5c([H])c([H])c(F)c([H])c5F)c([H])c4[H])c(C(=O)N([H])[H])c3N([H])[H])C2([H])[H])c([H])c(C([H])([H])[H])c1C([H])([H])Oc1c([H])c([H])c2c(c1[H])C([H])([H])N(C(=O)C([H])(N([H])C(=O)C([H])(N([H])C([H])([H])[H])C([H])([H])[H])C(C([H])([H])[H])(C([H])([H])[H])C([H])([H])[H])C([H])(C(=O)N([H])C1([H])c3c([H])c([H])c([H])c([H])c3C([H])([H])C([H])([H])C1([H])[H])C2([H])[H]

>  <smiles>  (24) 
[H]c1nc(N([H])C([H])([H])C(C([H])([H])[H])(C([H])([H])[H])C([H])([H])N([H])C(=O)N2C([H])([H])C([H])([H])C([H])([H])C([H])(n3nc(-c4c([H])c([H])c(Oc5c([H])c([H])c(F)c([H])c5F)c([H])c4[H])c(C(=O)N([H])[H])c3N([H])[H])C2([H])[H])c([H])c(C([H])([H])[H])c1C([H])([H])Oc1c([H])c([H])c2c(c1[H])C([H])([H])N(C(=O)C([H])(N([H])C(=O)C([H])(N([H])C([H])([H])[H])C([H])([H])[H])C(C([H])([H])[H])(C([H])([H])[H])C([H])([H])[H])C([H])(C(=O)N([H])C1([H])c3c([H])c([H])c([H])c([H])c3C([H])([H])C([H])([H])C1([H])[H])C2([H])[H]

$$$$
24:0:0
     RDKit          3D

 93101  0  0  1  0  0  0  0  0999 V2000
  -29.2390  -21.1870   20.0280 C   0  0  0  0  0  3  0  0  0  0  0  0
  -30.3120  -19.8660   22.0250 C   0  0  0  0  0  3  0  0  0  0  0  0
  -29.8150  -19.8940   20.7080 C   0  0  0  0  0  0  0  0  0  0  0  0
  -30.7530  -17.5640   21.8690 C   0  0  0  0  0  0  0  0  0  0  0  0
  -30.2540  -17.5260   20.5320 C   0  0  0  0  0  0  0  0  0  0  0  0
  -31.3050  -16.3650   22.6210 C   0  0  0  0  0  1  0  0  0  0  0  0
  -30.7740  -18.7210   22.5910 N   0  0  0  0  0  0  0  0  0  0  0  0
  -29.8000  -18.7220   19.9900 N   0  0  0  0  0  0  0  0  0  0  0  0
  -31.0900  -16.6570   18.3450 C   0  0  0  0  0  1  0  0  0  0  0  0
  -28.7540  -16.2530   18.9790 C   0  0  0  0  0  1  0  0  0  0  0  0
  -30.1780  -16.2690   19.5500 C   0  0  2  0  0  0  0  0  0  0  0  0
  -30.6970  -14.7760   19.9640 C   0  0  0  0  0  0  0  0  0  0  0  0
  -30.3180  -12.5100   19.0300 C   0  0  0  0  0  2  0  0  0  0  0  0
  -29.3290  -12.5460   17.8480 C   0  0  0  0  0  2  0  0  0  0  0  0
  -27.8890  -12.3520   18.3570 C   0  0  0  0  0  2  0  0  0  0  0  0
  -27.5480  -13.2710   19.5540 C   0  0  0  0  0  3  0  0  0  0  0  0
  -28.6740  -13.3240   20.6150 C   0  0  0  0  0  2  0  0  0  0  0  0
  -29.9510  -13.6120   19.9460 N   0  0  0  0  0  0  0  0  0  0  0  0
  -31.9200  -14.6480   19.9190 O   0  0  0  0  0  0  0  0  0  0  0  0
  -25.2230  -13.9050   20.4090 C   0  0  0  0  0  0  0  0  0  0  0  0
  -24.1650  -13.1410   20.8150 C   0  0  0  0  0  0  0  0  0  0  0  0
  -24.6170  -11.7880   20.7610 C   0  0  0  0  0  0  0  0  0  0  0  0
  -26.2420  -13.0080   20.1270 N   0  0  0  0  0  0  0  0  0  0  0  0
  -25.8920  -11.7330   20.4070 N   0  0  0  0  0  0  0  0  0  0  0  0
  -23.8940  -10.5300   20.9650 C   0  0  0  0  0  0  0  0  0  0  0  0
  -24.3540   -9.5570   21.8780 C   0  0  0  0  0  3  0  0  0  0  0  0
  -23.6300   -8.3620   22.0690 C   0  0  0  0  0  3  0  0  0  0  0  0
  -22.4350   -8.1340   21.3450 C   0  0  0  0  0  0  0  0  0  0  0  0
  -21.9970   -9.0960   20.4180 C   0  0  0  0  0  3  0  0  0  0  0  0
  -22.7220  -10.2830   20.2250 C   0  0  0  0  0  3  0  0  0  0  0  0
  -21.6790   -6.9920   21.4500 O   0  0  0  0  0  0  0  0  0  0  0  0
  -21.6490   -6.2540   22.6040 C   0  0  0  0  0  0  0  0  0  0  0  0
  -21.2590   -6.8160   23.8400 C   0  0  0  0  0  3  0  0  0  0  0  0
  -21.1790   -6.0040   24.9880 C   0  0  0  0  0  3  0  0  0  0  0  0
  -21.4770   -4.6300   24.9020 C   0  0  0  0  0  0  0  0  0  0  0  0
  -21.8590   -4.0680   23.6710 C   0  0  0  0  0  3  0  0  0  0  0  0
  -21.9440   -4.8770   22.5260 C   0  0  0  0  0  0  0  0  0  0  0  0
  -22.2940   -4.3280   21.3380 F   0  0  0  0  0  0  0  0  0  0  0  0
  -21.3910   -3.8470   26.0030 F   0  0  0  0  0  0  0  0  0  0  0  0
  -22.7830  -13.6280   21.1350 C   0  0  0  0  0  0  0  0  0  0  0  0
  -22.0830  -12.9360   22.0270 N   0  0  0  0  0  0  0  0  0  0  0  0
  -22.3330  -14.6570   20.6310 O   0  0  0  0  0  0  0  0  0  0  0  0
  -22.4610  -12.1060   22.4560 H   0  0  0  0  0  0  0  0  0  0  0  0
  -21.1550  -13.2430   22.2820 H   0  0  0  0  0  0  0  0  0  0  0  0
  -25.3870  -15.2760   20.2290 N   0  0  0  0  0  0  0  0  0  0  0  0
  -24.6290  -15.9330   20.3800 H   0  0  0  0  0  0  0  0  0  0  0  0
  -26.2240  -15.7130   19.8650 H   0  0  0  0  0  0  0  0  0  0  0  0
  -29.1640  -22.5950   20.7940 C   0  0  0  0  0  3  0  0  0  0  0  0
  -26.9360  -23.3170   19.8930 C   0  0  0  0  0  1  0  0  0  0  0  0
  -29.0110  -24.1090   18.7220 C   0  0  0  0  0  1  0  0  0  0  0  0
  -28.3810  -23.8180   20.0950 C   0  0  2  0  0  0  0  0  0  0  0  0
  -28.3480  -25.2000   20.9240 C   0  0  0  0  0  2  0  0  0  0  0  0
  -28.4040  -26.5230   20.2520 O   0  0  0  0  0  0  0  0  0  0  0  0
  -24.6220  -31.9050   23.2480 C   0  0  0  0  0  0  0  0  0  0  0  0
  -27.2720  -27.3480   20.2520 C   0  0  0  0  0  0  0  0  0  0  0  0
  -23.4320  -30.4880   21.6130 C   0  0  0  0  0  3  0  0  0  0  0  0
  -24.8990  -28.9380   20.2020 C   0  0  0  0  0  0  0  0  0  0  0  0
  -25.9660  -30.8260   21.4350 C   0  0  0  0  0  2  0  0  0  0  0  0
  -26.0590  -29.4400   20.8060 C   0  0  0  0  0  0  0  0  0  0  0  0
  -27.2500  -28.6550   20.8210 C   0  0  0  0  0  3  0  0  0  0  0  0
  -26.1010  -26.9070   19.6030 C   0  0  0  0  0  3  0  0  0  0  0  0
  -24.9210  -27.6770   19.5890 C   0  0  0  0  0  3  0  0  0  0  0  0
  -23.6540  -29.8020   20.2380 C   0  0  0  0  0  2  0  0  0  0  0  0
  -24.6920  -31.0900   22.1560 N   0  0  0  0  0  0  0  0  0  0  0  0
  -23.5340  -32.1830   23.7770 O   0  0  0  0  0  0  0  0  0  0  0  0
  -22.7740  -29.4730   22.5770 C   0  0  0  0  0  0  0  0  0  0  0  0
  -21.4500  -29.2850   22.4430 N   0  0  0  0  0  0  0  0  0  0  0  0
  -23.4520  -28.8570   23.4030 O   0  0  0  0  0  0  0  0  0  0  0  0
  -20.9640  -29.8380   21.7510 H   0  0  0  0  0  0  0  0  0  0  0  0
  -18.0790  -28.0700   22.9180 C   0  0  0  0  0  0  0  0  0  0  0  0
  -20.6330  -28.3500   23.2170 C   0  0  0  0  0  3  0  0  0  0  0  0
  -20.7510  -26.9130   22.6610 C   0  0  0  0  0  2  0  0  0  0  0  0
  -19.6650  -26.5700   21.6370 C   0  0  0  0  0  2  0  0  0  0  0  0
  -18.2730  -26.7130   22.2610 C   0  0  0  0  0  2  0  0  0  0  0  0
  -19.1860  -28.8440   23.3520 C   0  0  0  0  0  0  0  0  0  0  0  0
  -18.9510  -30.1130   23.9220 C   0  0  0  0  0  3  0  0  0  0  0  0
  -17.6400  -30.6060   24.0690 C   0  0  0  0  0  3  0  0  0  0  0  0
  -16.5470  -29.8270   23.6550 C   0  0  0  0  0  3  0  0  0  0  0  0
  -16.7680  -28.5610   23.0820 C   0  0  0  0  0  3  0  0  0  0  0  0
  -25.8990  -32.5460   23.8730 C   0  0  0  0  0  3  0  0  0  0  0  0
  -25.5780  -33.9410   24.2070 N   0  0  0  0  0  0  0  0  0  0  0  0
  -25.8970  -34.9980   23.4460 C   0  0  0  0  0  0  0  0  0  0  0  0
  -26.5640  -34.9020   22.4120 O   0  0  0  0  0  0  0  0  0  0  0  0
  -24.9860  -34.0860   25.0120 H   0  0  0  0  0  0  0  0  0  0  0  0
  -24.1490  -36.7740   23.1020 C   0  0  0  0  0  1  0  0  0  0  0  0
  -25.3990  -36.3830   23.9050 C   0  0  0  0  0  3  0  0  0  0  0  0
  -27.5310  -37.2880   24.7230 C   0  0  0  0  0  1  0  0  0  0  0  0
  -26.4200  -37.4460   23.7860 N   0  0  0  0  0  0  0  0  0  0  0  0
  -26.0060  -38.3610   23.9410 H   0  0  0  0  0  0  0  0  0  0  0  0
  -26.4200  -31.7760   25.1490 C   0  0  1  0  0  0  0  0  0  0  0  0
  -25.3290  -31.5260   26.2170 C   0  0  0  0  0  1  0  0  0  0  0  0
  -27.0160  -30.4070   24.7510 C   0  0  0  0  0  1  0  0  0  0  0  0
  -27.5640  -32.5770   25.8140 C   0  0  0  0  0  1  0  0  0  0  0  0
  1  3  1  0
  1 48  2  0
  2  7  1  0
  3  2  2  0
  4  7  2  0
  4  6  1  0
  5  4  1  0
  8  5  2  0
  8  3  1  0
 11  9  1  6
 10 11  1  0
 11 12  1  0
 11  5  1  0
 13 18  1  0
 14 15  1  0
 14 13  1  0
 16 15  1  0
 16 23  1  0
 16 17  1  0
 18 12  1  0
 18 17  1  0
 19 12  2  0
 20 21  2  0
 21 40  1  0
 22 21  1  0
 22 25  1  0
 23 24  1  0
 23 20  1  0
 24 22  2  0
 25 26  1  0
 26 27  2  0
 28 31  1  0
 28 27  1  0
 29 28  2  0
 30 29  1  0
 30 25  2  0
 31 32  1  0
 32 33  1  0
 33 34  2  0
 35 34  1  0
 35 39  1  0
 36 35  2  0
 37 32  2  0
 37 36  1  0
 38 37  1  0
 40 41  1  0
 41 44  1  0
 41 43  1  0
 42 40  2  0
 45 46  1  0
 45 20  1  0
 47 45  1  0
 51 49  1  6
 50 51  1  0
 51 48  1  0
 51 52  1  0
 53 52  1  0
 54 65  2  0
 55 53  1  0
 55 60  1  0
 56 64  1  0
 56 66  1  0
 57 63  1  0
 57 59  1  0
 58 64  1  0
 59 60  2  0
 59 58  1  0
 61 55  2  0
 62 61  1  0
 62 57  2  0
 63 56  1  0
 64 54  1  0
 66 68  2  0
 67 66  1  0
 69 67  1  0
 70 79  2  0
 70 75  1  0
 71 67  1  0
 71 75  1  0
 72 71  1  0
 73 74  1  0
 73 72  1  0
 74 70  1  0
 75 76  2  0
 76 77  1  0
 78 77  2  0
 79 78  1  0
 80 54  1  0
 80 81  1  0
 80 90  1  0
 81 84  1  0
 82 86  1  0
 82 81  1  0
 83 82  2  0
 86 85  1  0
 88 86  1  0
 88 89  1  0
 88 87  1  0
 90 93  1  1
 90 91  1  0
 92 90  1  0
M  ISO  4  11 100  12 100  52 101  53 101
M  END
>  <TORSDO>  (25) 
F 21

>  <SCORE>  (25) 
-12.742

>  <name>  (25) 
24

>  <ligand_id>  (25) 
24

>  <original_smiles>  (25) 
[H]c1nc(C([H])([H])[H])c(C(C(=O)N2C([H])([H])C([H])([H])C([H])([H])C([H])(n3nc(-c4c([H])c([H])c(Oc5c([H])c([H])c(F)c([H])c5F)c([H])c4[H])c(C(=O)N([H])[H])c3N([H])[H])C2([H])[H])(C([H])([H])[H])C([H])([H])[H])nc1C([H])([H])C([H])([H])C(C([H])([H])[H])(C([H])([H])[H])C([H])([H])Oc1c([H])c([H])c2c(c1[H])C([H])([H])N(C(=O)C([H])(N([H])C(=O)C([H])(N([H])C([H])([H])[H])C([H])([H])[H])C(C([H])([H])[H])(C([H])([H])[H])C([H])([H])[H])C([H])(C(=O)N([H])C1([H])c3c([H])c([H])c([H])c([H])c3C([H])([H])C([H])([H])C1([H])[H])C2([H])[H]

>  <smiles>  (25) 
[H]c1nc(C([H])([H])[H])c(C(C(=O)N2C([H])([H])C([H])([H])C([H])([H])C([H])(n3nc(-c4c([H])c([H])c(Oc5c([H])c([H])c(F)c([H])c5F)c([H])c4[H])c(C(=O)N([H])[H])c3N([H])[H])C2([H])[H])(C([H])([H])[H])C([H])([H])[H])nc1C([H])([H])C([H])([H])C(C([H])([H])[H])(C([H])([H])[H])C([H])([H])Oc1c([H])c([H])c2c(c1[H])C([H])([H])N(C(=O)C([H])(N([H])C(=O)C([H])(N([H])C([H])([H])[H])C([H])([H])[H])C(C([H])([H])[H])(C([H])([H])[H])C([H])([H])[H])C([H])(C(=O)N([H])C1([H])c3c([H])c([H])c([H])c([H])c3C([H])([H])C([H])([H])C1([H])[H])C2([H])[H]

$$$$
25:0:0
     RDKit          3D

 93101  0  0  1  0  0  0  0  0999 V2000
  -28.6630  -18.2930   20.2970 C   0  0  0  0  0  3  0  0  0  0  0  0
  -30.0210  -17.8310   20.2360 C   0  0  0  0  0  0  0  0  0  0  0  0
  -29.2090  -20.6380   20.2620 C   0  0  0  0  0  0  0  0  0  0  0  0
  -30.5650  -20.1850   20.1150 C   0  0  0  0  0  0  0  0  0  0  0  0
  -28.2770  -19.6290   20.3100 N   0  0  0  0  0  0  0  0  0  0  0  0
  -30.9460  -18.8460   20.1070 N   0  0  0  0  0  0  0  0  0  0  0  0
  -29.9760  -16.1070   22.1930 C   0  0  0  0  0  1  0  0  0  0  0  0
  -30.5060  -16.3630   20.7730 C   0  0  0  0  0  3  0  0  0  0  0  0
  -30.9040  -15.0090   19.9230 C   0  0  0  0  0  0  0  0  0  0  0  0
  -30.5940  -12.7280   18.8620 C   0  0  0  0  0  2  0  0  0  0  0  0
  -29.5740  -12.7850   17.7010 C   0  0  0  0  0  2  0  0  0  0  0  0
  -28.1360  -12.6060   18.2200 C   0  0  0  0  0  2  0  0  0  0  0  0
  -27.8510  -13.4770   19.4710 C   0  0  0  0  0  3  0  0  0  0  0  0
  -28.9830  -13.3670   20.5110 C   0  0  0  0  0  2  0  0  0  0  0  0
  -30.2390  -13.7810   19.8600 N   0  0  0  0  0  0  0  0  0  0  0  0
  -31.9700  -15.0730   19.3000 O   0  0  0  0  0  0  0  0  0  0  0  0
  -25.5390  -14.0720   20.4050 C   0  0  0  0  0  0  0  0  0  0  0  0
  -24.4930  -13.3010   20.8350 C   0  0  0  0  0  0  0  0  0  0  0  0
  -24.9290  -11.9450   20.7200 C   0  0  0  0  0  0  0  0  0  0  0  0
  -26.5440  -13.1860   20.0540 N   0  0  0  0  0  0  0  0  0  0  0  0
  -26.1910  -11.8990   20.3050 N   0  0  0  0  0  0  0  0  0  0  0  0
  -24.1960  -10.6870   20.9200 C   0  0  0  0  0  0  0  0  0  0  0  0
  -24.6330   -9.7130   21.8460 C   0  0  0  0  0  3  0  0  0  0  0  0
  -23.8970   -8.5230   22.0360 C   0  0  0  0  0  3  0  0  0  0  0  0
  -22.7110   -8.2970   21.2990 C   0  0  0  0  0  0  0  0  0  0  0  0
  -22.2910   -9.2600   20.3650 C   0  0  0  0  0  3  0  0  0  0  0  0
  -23.0280  -10.4410   20.1720 C   0  0  0  0  0  3  0  0  0  0  0  0
  -21.9460   -7.1600   21.3990 O   0  0  0  0  0  0  0  0  0  0  0  0
  -21.8430   -6.4630   22.5750 C   0  0  0  0  0  0  0  0  0  0  0  0
  -21.3420   -7.0580   23.7530 C   0  0  0  0  0  3  0  0  0  0  0  0
  -21.1870   -6.2850   24.9210 C   0  0  0  0  0  3  0  0  0  0  0  0
  -21.5250   -4.9190   24.9130 C   0  0  0  0  0  0  0  0  0  0  0  0
  -22.0190   -4.3240   23.7400 C   0  0  0  0  0  3  0  0  0  0  0  0
  -22.1750   -5.0930   22.5730 C   0  0  0  0  0  0  0  0  0  0  0  0
  -22.6310   -4.5100   21.4390 F   0  0  0  0  0  0  0  0  0  0  0  0
  -21.3700   -4.1740   26.0320 F   0  0  0  0  0  0  0  0  0  0  0  0
  -23.1300  -13.7890   21.2310 C   0  0  0  0  0  0  0  0  0  0  0  0
  -22.4640  -13.0810   22.1370 N   0  0  0  0  0  0  0  0  0  0  0  0
  -22.6670  -14.8340   20.7750 O   0  0  0  0  0  0  0  0  0  0  0  0
  -22.8520  -12.2350   22.5280 H   0  0  0  0  0  0  0  0  0  0  0  0
  -21.5550  -13.3920   22.4460 H   0  0  0  0  0  0  0  0  0  0  0  0
  -25.7130  -15.4440   20.2580 N   0  0  0  0  0  0  0  0  0  0  0  0
  -24.9670  -16.1050   20.4480 H   0  0  0  0  0  0  0  0  0  0  0  0
  -26.5260  -15.8710   19.8360 H   0  0  0  0  0  0  0  0  0  0  0  0
  -28.7640  -22.1340   20.7410 C   0  0  0  0  0  3  0  0  0  0  0  0
  -28.5630  -23.5320   19.8810 C   0  0  0  0  0  3  0  0  0  0  0  0
  -26.8060  -24.7170   21.4110 C   0  0  0  0  0  1  0  0  0  0  0  0
  -28.1390  -24.9340   20.6590 C   0  0  0  0  0  3  0  0  0  0  0  0
  -28.2650  -26.3540   20.0860 O   0  0  0  0  0  0  0  0  0  0  0  0
  -24.5850  -31.8620   23.1950 C   0  0  0  0  0  0  0  0  0  0  0  0
  -27.1880  -27.2880   20.0720 C   0  0  0  0  0  0  0  0  0  0  0  0
  -23.3890  -30.4930   21.5280 C   0  0  0  0  0  3  0  0  0  0  0  0
  -24.8450  -28.9640   20.0690 C   0  0  0  0  0  0  0  0  0  0  0  0
  -25.9340  -30.7940   21.3600 C   0  0  0  0  0  2  0  0  0  0  0  0
  -26.0160  -29.4210   20.6880 C   0  0  0  0  0  0  0  0  0  0  0  0
  -27.1920  -28.5960   20.6770 C   0  0  0  0  0  3  0  0  0  0  0  0
  -26.0060  -26.9220   19.3960 C   0  0  0  0  0  3  0  0  0  0  0  0
  -24.8480  -27.7250   19.4090 C   0  0  0  0  0  3  0  0  0  0  0  0
  -23.6090  -29.8430   20.1360 C   0  0  0  0  0  2  0  0  0  0  0  0
  -24.6560  -31.0710   22.0830 N   0  0  0  0  0  0  0  0  0  0  0  0
  -23.5000  -32.1300   23.7310 O   0  0  0  0  0  0  0  0  0  0  0  0
  -22.7230  -29.4590   22.4720 C   0  0  0  0  0  0  0  0  0  0  0  0
  -21.4010  -29.2630   22.3240 N   0  0  0  0  0  0  0  0  0  0  0  0
  -23.3970  -28.8380   23.2970 O   0  0  0  0  0  0  0  0  0  0  0  0
  -20.9140  -29.8180   21.6340 H   0  0  0  0  0  0  0  0  0  0  0  0
  -18.0460  -27.9680   22.7400 C   0  0  0  0  0  0  0  0  0  0  0  0
  -20.5870  -28.3050   23.0770 C   0  0  0  0  0  3  0  0  0  0  0  0
  -20.7460  -26.8730   22.5120 C   0  0  0  0  0  2  0  0  0  0  0  0
  -19.6830  -26.5180   21.4680 C   0  0  0  0  0  2  0  0  0  0  0  0
  -18.2800  -26.6240   22.0720 C   0  0  0  0  0  2  0  0  0  0  0  0
  -19.1300  -28.7640   23.1980 C   0  0  0  0  0  0  0  0  0  0  0  0
  -18.8580  -30.0210   23.7800 C   0  0  0  0  0  3  0  0  0  0  0  0
  -17.5360  -30.4840   23.9100 C   0  0  0  0  0  3  0  0  0  0  0  0
  -16.4650  -29.6860   23.4690 C   0  0  0  0  0  3  0  0  0  0  0  0
  -16.7210  -28.4290   22.8900 C   0  0  0  0  0  3  0  0  0  0  0  0
  -25.8640  -32.4900   23.8290 C   0  0  0  0  0  3  0  0  0  0  0  0
  -25.5550  -33.8890   24.1670 N   0  0  0  0  0  0  0  0  0  0  0  0
  -25.8900  -34.9480   23.4180 C   0  0  0  0  0  0  0  0  0  0  0  0
  -26.5610  -34.8510   22.3860 O   0  0  0  0  0  0  0  0  0  0  0  0
  -24.9600  -34.0370   24.9680 H   0  0  0  0  0  0  0  0  0  0  0  0
  -24.1680  -36.7510   23.0750 C   0  0  0  0  0  1  0  0  0  0  0  0
  -25.4060  -36.3350   23.8860 C   0  0  0  0  0  3  0  0  0  0  0  0
  -27.5360  -37.2110   24.7360 C   0  0  0  0  0  1  0  0  0  0  0  0
  -26.4410  -37.3860   23.7840 N   0  0  0  0  0  0  0  0  0  0  0  0
  -26.0370  -38.3070   23.9330 H   0  0  0  0  0  0  0  0  0  0  0  0
  -26.3700  -31.7110   25.1060 C   0  0  1  0  0  0  0  0  0  0  0  0
  -25.2690  -31.4670   26.1650 C   0  0  0  0  0  1  0  0  0  0  0  0
  -26.9560  -30.3350   24.7150 C   0  0  0  0  0  1  0  0  0  0  0  0
  -27.5170  -32.5020   25.7800 C   0  0  0  0  0  1  0  0  0  0  0  0
  -31.7010  -21.1940   20.0020 C   0  0  0  0  0  2  0  0  0  0  0  0
  -31.7420  -21.8920   18.6290 C   0  0  0  0  0  2  0  0  0  0  0  0
  -32.7340  -23.7890   17.2330 C   0  0  0  0  0  1  0  0  0  0  0  0
  -32.7170  -23.0810   18.5930 C   0  0  0  0  0  2  0  0  0  0  0  0
  1  5  1  0
  2  1  2  0
  2  8  1  0
  3  5  2  0
  3 45  1  0
  4  3  1  0
  6  4  2  0
  6  2  1  0
  8  7  1  0
  9  8  1  0
 10 15  1  0
 11 12  1  0
 11 10  1  0
 13 12  1  0
 13 20  1  0
 13 14  1  0
 15  9  1  0
 15 14  1  0
 16  9  2  0
 17 18  2  0
 18 37  1  0
 19 18  1  0
 19 22  1  0
 20 21  1  0
 20 17  1  0
 21 19  2  0
 22 23  1  0
 23 24  2  0
 25 28  1  0
 25 24  1  0
 26 25  2  0
 27 26  1  0
 27 22  2  0
 28 29  1  0
 29 30  1  0
 30 31  2  0
 32 31  1  0
 32 36  1  0
 33 32  2  0
 34 29  2  0
 34 33  1  0
 35 34  1  0
 37 38  1  0
 38 41  1  0
 38 40  1  0
 39 37  2  0
 42 17  1  0
 42 43  1  0
 44 42  1  0
 46 48  1  0
 46 45  2  0
 48 47  1  0
 49 48  1  0
 50 61  2  0
 51 49  1  0
 51 56  1  0
 52 60  1  0
 52 62  1  0
 53 59  1  0
 53 55  1  0
 54 60  1  0
 55 54  1  0
 56 55  2  0
 57 58  1  0
 57 51  2  0
 58 53  2  0
 59 52  1  0
 60 50  1  0
 62 64  2  0
 63 62  1  0
 65 63  1  0
 66 75  2  0
 66 71  1  0
 67 63  1  0
 67 71  1  0
 68 67  1  0
 69 70  1  0
 69 68  1  0
 70 66  1  0
 71 72  2  0
 72 73  1  0
 74 73  2  0
 75 74  1  0
 76 50  1  0
 76 77  1  0
 76 86  1  0
 77 80  1  0
 78 82  1  0
 78 77  1  0
 79 78  2  0
 82 81  1  0
 84 82  1  0
 84 85  1  0
 84 83  1  0
 86 89  1  1
 86 87  1  0
 88 86  1  0
 90  4  1  0
 91 90  1  0
 92 93  1  0
 93 91  1  0
M  ISO  4   8 100   9 100  48 101  49 101
M  END
>  <TORSDO>  (26) 
F 23

>  <SCORE>  (26) 
-12.349

>  <name>  (26) 
25

>  <ligand_id>  (26) 
25

>  <original_smiles>  (26) 
[H]c1nc(C([H])([H])C([H])([H])C([H])(Oc2c([H])c([H])c3c(c2[H])C([H])([H])N(C(=O)C([H])(N([H])C(=O)C([H])(N([H])C([H])([H])[H])C([H])([H])[H])C(C([H])([H])[H])(C([H])([H])[H])C([H])([H])[H])C([H])(C(=O)N([H])C2([H])c4c([H])c([H])c([H])c([H])c4C([H])([H])C([H])([H])C2([H])[H])C3([H])[H])C([H])([H])[H])c(C([H])([H])C([H])([H])C([H])([H])C([H])([H])[H])nc1C([H])(C(=O)N1C([H])([H])C([H])([H])C([H])([H])C([H])(n2nc(-c3c([H])c([H])c(Oc4c([H])c([H])c(F)c([H])c4F)c([H])c3[H])c(C(=O)N([H])[H])c2N([H])[H])C1([H])[H])C([H])([H])[H]

>  <smiles>  (26) 
[H]c1nc(C([H])([H])C([H])([H])C([H])(Oc2c([H])c([H])c3c(c2[H])C([H])([H])N(C(=O)C([H])(N([H])C(=O)C([H])(N([H])C([H])([H])[H])C([H])([H])[H])C(C([H])([H])[H])(C([H])([H])[H])C([H])([H])[H])C([H])(C(=O)N([H])C2([H])c4c([H])c([H])c([H])c([H])c4C([H])([H])C([H])([H])C2([H])[H])C3([H])[H])C([H])([H])[H])c(C([H])([H])C([H])([H])C([H])([H])C([H])([H])[H])nc1C([H])(C(=O)N1C([H])([H])C([H])([H])C([H])([H])C([H])(n2nc(-c3c([H])c([H])c(Oc4c([H])c([H])c(F)c([H])c4F)c([H])c3[H])c(C(=O)N([H])[H])c2N([H])[H])C1([H])[H])C([H])([H])[H]

$$$$
26:0:0
     RDKit          3D

 91 99  0  0  1  0  0  0  0  0999 V2000
  -29.7190  -21.4760   19.9380 C   0  0  0  0  0  3  0  0  0  0  0  0
  -31.1180  -19.2980   18.7770 C   0  0  0  0  0  3  0  0  0  0  0  0
  -31.4710  -17.8770   18.6650 C   0  0  0  0  0  3  0  0  0  0  0  0
  -29.9610  -19.8250   19.4690 C   0  0  0  0  0  0  0  0  0  0  0  0
  -30.7200  -16.7630   19.2010 C   0  0  0  0  0  0  0  0  0  0  0  0
  -29.2390  -18.6420   19.9630 C   0  0  0  0  0  0  0  0  0  0  0  0
  -29.5990  -17.2700   19.8470 N   0  0  0  0  0  0  0  0  0  0  0  0
  -31.3410  -15.2190   19.3050 C   0  0  0  0  0  0  0  0  0  0  0  0
  -31.1510  -12.7300   18.7330 C   0  0  0  0  0  2  0  0  0  0  0  0
  -30.1730  -12.5040   17.5550 C   0  0  0  0  0  2  0  0  0  0  0  0
  -28.7340  -12.3280   18.0800 C   0  0  0  0  0  2  0  0  0  0  0  0
  -28.3730  -13.3920   19.1510 C   0  0  0  0  0  3  0  0  0  0  0  0
  -29.4840  -13.6060   20.1950 C   0  0  0  0  0  2  0  0  0  0  0  0
  -30.7090  -13.9640   19.4690 N   0  0  0  0  0  0  0  0  0  0  0  0
  -32.5350  -15.1110   18.9930 O   0  0  0  0  0  0  0  0  0  0  0  0
  -26.1130  -14.0700   20.1160 C   0  0  0  0  0  0  0  0  0  0  0  0
  -25.0490  -13.3500   20.5820 C   0  0  0  0  0  0  0  0  0  0  0  0
  -25.4410  -11.9770   20.5140 C   0  0  0  0  0  0  0  0  0  0  0  0
  -27.0800  -13.1430   19.7760 N   0  0  0  0  0  0  0  0  0  0  0  0
  -26.6970  -11.8760   20.0880 N   0  0  0  0  0  0  0  0  0  0  0  0
  -24.6690  -10.7530   20.7710 C   0  0  0  0  0  0  0  0  0  0  0  0
  -25.0240   -9.8560   21.8030 C   0  0  0  0  0  3  0  0  0  0  0  0
  -24.2480   -8.7010   22.0470 C   0  0  0  0  0  3  0  0  0  0  0  0
  -23.1040   -8.4310   21.2570 C   0  0  0  0  0  0  0  0  0  0  0  0
  -22.7680   -9.3160   20.2190 C   0  0  0  0  0  3  0  0  0  0  0  0
  -23.5420  -10.4620   19.9720 C   0  0  0  0  0  3  0  0  0  0  0  0
  -22.3070   -7.3220   21.4080 O   0  0  0  0  0  0  0  0  0  0  0  0
  -22.0360   -6.7890   22.6440 C   0  0  0  0  0  0  0  0  0  0  0  0
  -21.4120   -7.5460   23.6620 C   0  0  0  0  0  3  0  0  0  0  0  0
  -21.0880   -6.9390   24.8920 C   0  0  0  0  0  3  0  0  0  0  0  0
  -21.3800   -5.5780   25.1010 C   0  0  0  0  0  0  0  0  0  0  0  0
  -21.9920   -4.8210   24.0860 C   0  0  0  0  0  3  0  0  0  0  0  0
  -22.3170   -5.4270   22.8600 C   0  0  0  0  0  0  0  0  0  0  0  0
  -22.8920   -4.6880   21.8780 F   0  0  0  0  0  0  0  0  0  0  0  0
  -21.0590   -4.9900   26.2770 F   0  0  0  0  0  0  0  0  0  0  0  0
  -23.7070  -13.9030   20.9600 C   0  0  0  0  0  0  0  0  0  0  0  0
  -23.0270  -13.2760   21.9170 N   0  0  0  0  0  0  0  0  0  0  0  0
  -23.2680  -14.9250   20.4390 O   0  0  0  0  0  0  0  0  0  0  0  0
  -23.3930  -12.4520   22.3690 H   0  0  0  0  0  0  0  0  0  0  0  0
  -22.1240  -13.6260   22.1970 H   0  0  0  0  0  0  0  0  0  0  0  0
  -26.3250  -15.4330   19.9190 N   0  0  0  0  0  0  0  0  0  0  0  0
  -25.6100  -16.1230   20.1140 H   0  0  0  0  0  0  0  0  0  0  0  0
  -27.1770  -15.8350   19.5500 H   0  0  0  0  0  0  0  0  0  0  0  0
  -26.7290  -18.1280   20.2200 C   0  0  0  0  0  1  0  0  0  0  0  0
  -27.9810  -18.7950   20.8220 C   0  0  0  0  0  2  0  0  0  0  0  0
  -31.4800  -21.1530   21.8430 C   0  0  0  0  0  1  0  0  0  0  0  0
  -31.0530  -21.9240   20.5860 C   0  0  0  0  0  2  0  0  0  0  0  0
  -28.0430  -22.5200   18.1430 C   0  0  0  0  0  1  0  0  0  0  0  0
  -29.1190  -22.9300   19.1630 C   0  0  0  0  0  3  0  0  0  0  0  0
  -28.5820  -24.4130   19.9560 C   0  0  0  0  0  2  0  0  0  0  0  0
  -28.5980  -25.9940   19.6450 O   0  0  0  0  0  0  0  0  0  0  0  0
  -24.5970  -31.4620   22.8970 C   0  0  0  0  0  0  0  0  0  0  0  0
  -27.4790  -26.9370   19.7250 C   0  0  0  0  0  0  0  0  0  0  0  0
  -23.5030  -30.0580   21.1960 C   0  0  0  0  0  3  0  0  0  0  0  0
  -25.0580  -28.6040   19.7400 C   0  0  0  0  0  0  0  0  0  0  0  0
  -26.0480  -30.4540   21.0750 C   0  0  0  0  0  2  0  0  0  0  0  0
  -26.2130  -29.0820   20.3730 C   0  0  0  0  0  0  0  0  0  0  0  0
  -27.4250  -28.2730   20.3370 C   0  0  0  0  0  3  0  0  0  0  0  0
  -26.2800  -26.5720   19.0740 C   0  0  0  0  0  3  0  0  0  0  0  0
  -25.1090  -27.3680   19.0750 C   0  0  0  0  0  3  0  0  0  0  0  0
  -23.7870  -29.4450   19.7990 C   0  0  0  0  0  2  0  0  0  0  0  0
  -24.7360  -30.6810   21.7770 N   0  0  0  0  0  0  0  0  0  0  0  0
  -23.4880  -31.6600   23.4190 O   0  0  0  0  0  0  0  0  0  0  0  0
  -22.8720  -28.9800   22.1140 C   0  0  0  0  0  0  0  0  0  0  0  0
  -21.5520  -28.7520   21.9870 N   0  0  0  0  0  0  0  0  0  0  0  0
  -23.5780  -28.3510   22.9080 O   0  0  0  0  0  0  0  0  0  0  0  0
  -21.0420  -29.3090   21.3160 H   0  0  0  0  0  0  0  0  0  0  0  0
  -18.2240  -27.4160   22.5100 C   0  0  0  0  0  0  0  0  0  0  0  0
  -20.7810  -27.7450   22.7220 C   0  0  0  0  0  3  0  0  0  0  0  0
  -20.9100  -26.3580   22.0550 C   0  0  0  0  0  2  0  0  0  0  0  0
  -19.7920  -26.0630   21.0510 C   0  0  0  0  0  2  0  0  0  0  0  0
  -18.4240  -26.1220   21.7370 C   0  0  0  0  0  2  0  0  0  0  0  0
  -19.3320  -28.1860   22.9580 C   0  0  0  0  0  0  0  0  0  0  0  0
  -19.0900  -29.3950   23.6470 C   0  0  0  0  0  3  0  0  0  0  0  0
  -17.7750  -29.8360   23.8860 C   0  0  0  0  0  3  0  0  0  0  0  0
  -16.6830  -29.0650   23.4520 C   0  0  0  0  0  3  0  0  0  0  0  0
  -16.9090  -27.8550   22.7700 C   0  0  0  0  0  3  0  0  0  0  0  0
  -25.8190  -32.1570   23.5660 C   0  0  0  0  0  3  0  0  0  0  0  0
  -25.4000  -33.5090   23.9740 N   0  0  0  0  0  0  0  0  0  0  0  0
  -25.6950  -34.6370   23.3150 C   0  0  0  0  0  0  0  0  0  0  0  0
  -26.4100  -34.6540   22.3110 O   0  0  0  0  0  0  0  0  0  0  0  0
  -24.7540  -33.5590   24.7480 H   0  0  0  0  0  0  0  0  0  0  0  0
  -23.8860  -36.3650   23.0060 C   0  0  0  0  0  1  0  0  0  0  0  0
  -25.1030  -35.9590   23.8530 C   0  0  0  0  0  3  0  0  0  0  0  0
  -27.1310  -36.8890   24.8820 C   0  0  0  0  0  1  0  0  0  0  0  0
  -26.0780  -37.0710   23.8880 N   0  0  0  0  0  0  0  0  0  0  0  0
  -25.6100  -37.9550   24.0730 H   0  0  0  0  0  0  0  0  0  0  0  0
  -26.3840  -31.3600   24.8060 C   0  0  1  0  0  0  0  0  0  0  0  0
  -25.2970  -30.9620   25.8330 C   0  0  0  0  0  1  0  0  0  0  0  0
  -27.0890  -30.0630   24.3490 C   0  0  0  0  0  1  0  0  0  0  0  0
  -27.4530  -32.2080   25.5350 C   0  0  0  0  0  1  0  0  0  0  0  0
  1 47  1  0
  2  4  1  0
  3  2  2  0
  3  5  1  0
  4  1  1  0
  4  6  2  0
  5  8  1  0
  5  7  2  0
  6 45  1  0
  7  6  1  0
  8 14  1  0
  9 14  1  0
 10 11  1  0
 10  9  1  0
 12 11  1  0
 12 19  1  0
 12 13  1  0
 14 13  1  0
 15  8  2  0
 16 17  2  0
 17 36  1  0
 18 17  1  0
 18 21  1  0
 19 20  1  0
 19 16  1  0
 20 18  2  0
 21 22  1  0
 22 23  2  0
 24 27  1  0
 24 23  1  0
 25 24  2  0
 26 25  1  0
 26 21  2  0
 27 28  1  0
 28 33  2  0
 28 29  1  0
 29 30  2  0
 30 31  1  0
 31 35  1  0
 32 31  2  0
 33 32  1  0
 34 33  1  0
 36 37  1  0
 37 40  1  0
 37 39  1  0
 38 36  2  0
 41 42  1  0
 41 16  1  0
 43 41  1  0
 44 45  1  0
 47 46  1  0
 49 48  1  0
 49  1  1  0
 49 50  1  0
 51 53  1  0
 51 50  1  0
 52 63  2  0
 53 58  1  0
 54 62  1  0
 54 64  1  0
 55 61  1  0
 55 57  1  0
 56 62  1  0
 57 56  1  0
 58 57  2  0
 59 60  1  0
 59 53  2  0
 60 55  2  0
 61 54  1  0
 62 52  1  0
 64 66  2  0
 65 64  1  0
 67 65  1  0
 68 77  2  0
 68 73  1  0
 69 65  1  0
 69 73  1  0
 70 69  1  0
 71 72  1  0
 71 70  1  0
 72 68  1  0
 73 74  2  0
 74 75  1  0
 76 75  2  0
 77 76  1  0
 78 52  1  0
 78 79  1  0
 78 88  1  0
 79 82  1  0
 80 84  1  0
 80 79  1  0
 81 80  2  0
 84 83  1  0
 84 86  1  0
 86 87  1  0
 86 85  1  0
 88 91  1  1
 88 89  1  0
 90 88  1  0
M  ISO  4   5 100   8 100  50 101  51 101
M  END
>  <TORSDO>  (27) 
F 21

>  <SCORE>  (27) 
-12.354

>  <name>  (27) 
26

>  <ligand_id>  (27) 
26

>  <original_smiles>  (27) 
[H]c1c(C(=O)N2C([H])([H])C([H])([H])C([H])([H])C([H])(n3nc(-c4c([H])c([H])c(Oc5c([H])c([H])c(F)c([H])c5F)c([H])c4[H])c(C(=O)N([H])[H])c3N([H])[H])C2([H])[H])nc(C([H])([H])C([H])([H])[H])c(C([H])(C([H])([H])C([H])([H])[H])C([H])(C([H])([H])[H])C([H])([H])Oc2c([H])c([H])c3c(c2[H])C([H])([H])N(C(=O)C([H])(N([H])C(=O)C([H])(N([H])C([H])([H])[H])C([H])([H])[H])C(C([H])([H])[H])(C([H])([H])[H])C([H])([H])[H])C([H])(C(=O)N([H])C2([H])c4c([H])c([H])c([H])c([H])c4C([H])([H])C([H])([H])C2([H])[H])C3([H])[H])c1[H]

>  <smiles>  (27) 
[H]c1c(C(=O)N2C([H])([H])C([H])([H])C([H])([H])C([H])(n3nc(-c4c([H])c([H])c(Oc5c([H])c([H])c(F)c([H])c5F)c([H])c4[H])c(C(=O)N([H])[H])c3N([H])[H])C2([H])[H])nc(C([H])([H])C([H])([H])[H])c(C([H])(C([H])([H])C([H])([H])[H])C([H])(C([H])([H])[H])C([H])([H])Oc2c([H])c([H])c3c(c2[H])C([H])([H])N(C(=O)C([H])(N([H])C(=O)C([H])(N([H])C([H])([H])[H])C([H])([H])[H])C(C([H])([H])[H])(C([H])([H])[H])C([H])([H])[H])C([H])(C(=O)N([H])C2([H])c4c([H])c([H])c([H])c([H])c4C([H])([H])C([H])([H])C2([H])[H])C3([H])[H])c1[H]

$$$$
27:0:0
     RDKit          3D

 93101  0  0  1  0  0  0  0  0999 V2000
  -29.7500  -20.1370   20.6440 C   0  0  0  0  0  0  0  0  0  0  0  0
  -29.1740  -21.3460   20.3370 C   0  0  0  0  0  0  0  0  0  0  0  0
  -31.0950  -20.1960   20.2790 N   0  0  0  0  0  0  0  0  0  0  0  0
  -31.3580  -21.3660   19.7770 N   0  0  0  0  0  0  0  0  0  0  0  0
  -30.2050  -22.0790   19.7590 N   0  0  0  0  0  0  0  0  0  0  0  0
  -27.4340  -22.5600   21.7340 C   0  0  0  0  0  1  0  0  0  0  0  0
  -27.7500  -21.8050   20.4360 C   0  0  0  0  0  2  0  0  0  0  0  0
  -29.0560  -18.8750   21.1240 C   0  0  0  0  0  2  0  0  0  0  0  0
  -29.9140  -17.7730   21.8120 C   0  0  0  0  0  2  0  0  0  0  0  0
  -30.8010  -16.8260   20.9460 C   0  0  0  0  0  2  0  0  0  0  0  0
  -30.7740  -14.5860   19.9560 C   0  0  0  0  0  0  0  0  0  0  0  0
  -30.3610  -12.3920   18.9020 C   0  0  0  0  0  2  0  0  0  0  0  0
  -29.3450  -12.5680   17.7540 C   0  0  0  0  0  2  0  0  0  0  0  0
  -27.8980  -12.4630   18.2780 C   0  0  0  0  0  2  0  0  0  0  0  0
  -27.6490  -13.2990   19.5620 C   0  0  0  0  0  3  0  0  0  0  0  0
  -28.7900  -13.1540   20.5950 C   0  0  0  0  0  2  0  0  0  0  0  0
  -30.0610  -13.4240   19.9080 N   0  0  0  0  0  0  0  0  0  0  0  0
  -31.9370  -14.6610   19.5540 O   0  0  0  0  0  0  0  0  0  0  0  0
  -29.3060  -16.2780   19.1250 C   0  0  0  0  0  1  0  0  0  0  0  0
  -30.0920  -15.7300   20.2410 N   0  0  0  0  0  0  0  0  0  0  0  0
  -25.3370  -13.9180   20.4930 C   0  0  0  0  0  0  0  0  0  0  0  0
  -24.2860  -13.1510   20.9100 C   0  0  0  0  0  0  0  0  0  0  0  0
  -24.7160  -11.7930   20.7910 C   0  0  0  0  0  0  0  0  0  0  0  0
  -26.3420  -13.0270   20.1460 N   0  0  0  0  0  0  0  0  0  0  0  0
  -25.9780  -11.7430   20.3850 N   0  0  0  0  0  0  0  0  0  0  0  0
  -23.9830  -10.5380   20.9860 C   0  0  0  0  0  0  0  0  0  0  0  0
  -24.4420   -9.5480   21.8820 C   0  0  0  0  0  3  0  0  0  0  0  0
  -23.7090   -8.3560   22.0630 C   0  0  0  0  0  3  0  0  0  0  0  0
  -22.5050   -8.1460   21.3520 C   0  0  0  0  0  0  0  0  0  0  0  0
  -22.0650   -9.1250   20.4430 C   0  0  0  0  0  3  0  0  0  0  0  0
  -22.7970  -10.3090   20.2590 C   0  0  0  0  0  3  0  0  0  0  0  0
  -21.7410   -7.0070   21.4470 O   0  0  0  0  0  0  0  0  0  0  0  0
  -21.7000   -6.2630   22.5990 C   0  0  0  0  0  0  0  0  0  0  0  0
  -21.2750   -6.8140   23.8270 C   0  0  0  0  0  3  0  0  0  0  0  0
  -21.1800   -5.9960   24.9710 C   0  0  0  0  0  3  0  0  0  0  0  0
  -21.5010   -4.6270   24.8870 C   0  0  0  0  0  0  0  0  0  0  0  0
  -21.9200   -4.0760   23.6640 C   0  0  0  0  0  3  0  0  0  0  0  0
  -22.0170   -4.8920   22.5230 C   0  0  0  0  0  0  0  0  0  0  0  0
  -22.4000   -4.3510   21.3410 F   0  0  0  0  0  0  0  0  0  0  0  0
  -21.4020   -3.8400   25.9830 F   0  0  0  0  0  0  0  0  0  0  0  0
  -22.9230  -13.6390   21.3060 C   0  0  0  0  0  0  0  0  0  0  0  0
  -22.2550  -12.9210   22.2010 N   0  0  0  0  0  0  0  0  0  0  0  0
  -22.4660  -14.6900   20.8600 O   0  0  0  0  0  0  0  0  0  0  0  0
  -22.6440  -12.0720   22.5840 H   0  0  0  0  0  0  0  0  0  0  0  0
  -21.3420  -13.2240   22.5090 H   0  0  0  0  0  0  0  0  0  0  0  0
  -25.5150  -15.2930   20.3590 N   0  0  0  0  0  0  0  0  0  0  0  0
  -24.7670  -15.9510   20.5410 H   0  0  0  0  0  0  0  0  0  0  0  0
  -26.3580  -15.7320   20.0140 H   0  0  0  0  0  0  0  0  0  0  0  0
  -30.1510  -23.3370   19.0080 C   0  0  0  0  0  2  0  0  0  0  0  0
  -29.9470  -24.6310   19.8430 C   0  0  0  0  0  2  0  0  0  0  0  0
  -29.6660  -26.2160   17.8150 C   0  0  0  0  0  1  0  0  0  0  0  0
  -29.0540  -25.6690   19.1150 C   0  0  0  0  0  3  0  0  0  0  0  0
  -28.7880  -26.8100   19.9500 O   0  0  0  0  0  0  0  0  0  0  0  0
  -24.5850  -31.6410   23.0660 C   0  0  0  0  0  0  0  0  0  0  0  0
  -27.5620  -27.4610   19.8940 C   0  0  0  0  0  0  0  0  0  0  0  0
  -23.5060  -30.2280   21.3520 C   0  0  0  0  0  3  0  0  0  0  0  0
  -25.0800  -28.8410   19.9060 C   0  0  0  0  0  0  0  0  0  0  0  0
  -26.0140  -30.7360   21.2340 C   0  0  0  0  0  2  0  0  0  0  0  0
  -26.1910  -29.3970   20.5470 C   0  0  0  0  0  0  0  0  0  0  0  0
  -27.4300  -28.7130   20.5430 C   0  0  0  0  0  3  0  0  0  0  0  0
  -26.4200  -26.9270   19.2450 C   0  0  0  0  0  3  0  0  0  0  0  0
  -25.1910  -27.6070   19.2530 C   0  0  0  0  0  3  0  0  0  0  0  0
  -23.7870  -29.6220   19.9520 C   0  0  0  0  0  2  0  0  0  0  0  0
  -24.7180  -30.8830   21.9420 N   0  0  0  0  0  0  0  0  0  0  0  0
  -23.4760  -31.8280   23.5870 O   0  0  0  0  0  0  0  0  0  0  0  0
  -22.9010  -29.1300   22.2580 C   0  0  0  0  0  0  0  0  0  0  0  0
  -21.5870  -28.8930   22.1150 N   0  0  0  0  0  0  0  0  0  0  0  0
  -23.6100  -28.5010   23.0480 O   0  0  0  0  0  0  0  0  0  0  0  0
  -21.0760  -29.4590   21.4510 H   0  0  0  0  0  0  0  0  0  0  0  0
  -18.2620  -27.5470   22.5580 C   0  0  0  0  0  0  0  0  0  0  0  0
  -20.8100  -27.8860   22.8370 C   0  0  0  0  0  3  0  0  0  0  0  0
  -20.9640  -26.4920   22.1870 C   0  0  0  0  0  2  0  0  0  0  0  0
  -19.8700  -26.1810   21.1610 C   0  0  0  0  0  2  0  0  0  0  0  0
  -18.4860  -26.2410   21.8140 C   0  0  0  0  0  2  0  0  0  0  0  0
  -19.3540  -28.3270   23.0250 C   0  0  0  0  0  0  0  0  0  0  0  0
  -19.0920  -29.5490   23.6810 C   0  0  0  0  0  3  0  0  0  0  0  0
  -17.7700  -29.9910   23.8780 C   0  0  0  0  0  3  0  0  0  0  0  0
  -16.6930  -29.2090   23.4270 C   0  0  0  0  0  3  0  0  0  0  0  0
  -16.9400  -27.9900   22.7710 C   0  0  0  0  0  3  0  0  0  0  0  0
  -25.8150  -32.3290   23.7370 C   0  0  0  0  0  3  0  0  0  0  0  0
  -25.4230  -33.7040   24.0730 N   0  0  0  0  0  0  0  0  0  0  0  0
  -25.7260  -34.7830   23.3370 C   0  0  0  0  0  0  0  0  0  0  0  0
  -26.4370  -34.7280   22.3290 O   0  0  0  0  0  0  0  0  0  0  0  0
  -24.7930  -33.8190   24.8520 H   0  0  0  0  0  0  0  0  0  0  0  0
  -23.9150  -36.4820   22.9450 C   0  0  0  0  0  1  0  0  0  0  0  0
  -25.1490  -36.1350   23.7940 C   0  0  0  0  0  3  0  0  0  0  0  0
  -27.1980  -37.1210   24.7150 C   0  0  0  0  0  1  0  0  0  0  0  0
  -26.1260  -37.2430   23.7320 N   0  0  0  0  0  0  0  0  0  0  0  0
  -25.6650  -38.1380   23.8740 H   0  0  0  0  0  0  0  0  0  0  0  0
  -26.3300  -31.5690   25.0200 C   0  0  1  0  0  0  0  0  0  0  0  0
  -25.2170  -31.2620   26.0500 C   0  0  0  0  0  1  0  0  0  0  0  0
  -26.9930  -30.2290   24.6290 C   0  0  0  0  0  1  0  0  0  0  0  0
  -27.4160  -32.4130   25.7280 C   0  0  0  0  0  1  0  0  0  0  0  0
  1  8  1  0
  2  7  1  0
  2  1  2  0
  3  1  1  0
  4  3  2  0
  5  4  1  0
  5  2  1  0
  7  6  1  0
  8  9  1  0
 10  9  1  0
 11 20  1  0
 12 17  1  0
 13 14  1  0
 13 12  1  0
 15 14  1  0
 15 24  1  0
 15 16  1  0
 17 11  1  0
 17 16  1  0
 18 11  2  0
 19 20  1  0
 20 10  1  0
 21 22  2  0
 22 41  1  0
 23 22  1  0
 23 26  1  0
 24 25  1  0
 24 21  1  0
 25 23  2  0
 26 27  1  0
 27 28  2  0
 29 32  1  0
 29 28  1  0
 30 29  2  0
 31 30  1  0
 31 26  2  0
 32 33  1  0
 33 34  1  0
 34 35  2  0
 36 35  1  0
 36 40  1  0
 37 36  2  0
 38 33  2  0
 38 37  1  0
 39 38  1  0
 41 42  1  0
 42 45  1  0
 42 44  1  0
 43 41  2  0
 46 21  1  0
 46 47  1  0
 48 46  1  0
 49  5  1  0
 49 50  1  0
 52 51  1  0
 52 50  1  0
 52 53  1  0
 54 65  2  0
 55 53  1  0
 55 60  1  0
 56 64  1  0
 56 66  1  0
 57 63  1  0
 57 59  1  0
 58 64  1  0
 59 58  1  0
 60 59  2  0
 61 62  1  0
 61 55  2  0
 62 57  2  0
 63 56  1  0
 64 54  1  0
 66 68  2  0
 67 66  1  0
 69 67  1  0
 70 79  2  0
 70 75  1  0
 71 67  1  0
 71 75  1  0
 72 71  1  0
 73 74  1  0
 73 72  1  0
 74 70  1  0
 75 76  2  0
 76 77  1  0
 78 77  2  0
 79 78  1  0
 80 54  1  0
 80 81  1  0
 80 90  1  0
 81 84  1  0
 82 86  1  0
 82 81  1  0
 83 82  2  0
 86 85  1  0
 88 86  1  0
 88 89  1  0
 88 87  1  0
 90 93  1  1
 90 91  1  0
 92 90  1  0
M  ISO  4  11 100  20 100  52 101  53 101
M  END
>  <TORSDO>  (28) 
F 23

>  <SCORE>  (28) 
-11.678

>  <name>  (28) 
27

>  <ligand_id>  (28) 
27

>  <original_smiles>  (28) 
[H]c1c([H])c([H])c2c(c1[H])C([H])([H])C([H])([H])C([H])([H])C2([H])N([H])C(=O)C1([H])N(C(=O)C([H])(N([H])C(=O)C([H])(N([H])C([H])([H])[H])C([H])([H])[H])C(C([H])([H])[H])(C([H])([H])[H])C([H])([H])[H])C([H])([H])c2c([H])c(OC([H])(C([H])([H])[H])C([H])([H])C([H])([H])n3nnc(C([H])([H])C([H])([H])C([H])([H])N(C(=O)N4C([H])([H])C([H])([H])C([H])([H])C([H])(n5nc(-c6c([H])c([H])c(Oc7c([H])c([H])c(F)c([H])c7F)c([H])c6[H])c(C(=O)N([H])[H])c5N([H])[H])C4([H])[H])C([H])([H])[H])c3C([H])([H])C([H])([H])[H])c([H])c([H])c2C1([H])[H]

>  <smiles>  (28) 
[H]c1c([H])c([H])c2c(c1[H])C([H])([H])C([H])([H])C([H])([H])C2([H])N([H])C(=O)C1([H])N(C(=O)C([H])(N([H])C(=O)C([H])(N([H])C([H])([H])[H])C([H])([H])[H])C(C([H])([H])[H])(C([H])([H])[H])C([H])([H])[H])C([H])([H])c2c([H])c(OC([H])(C([H])([H])[H])C([H])([H])C([H])([H])n3nnc(C([H])([H])C([H])([H])C([H])([H])N(C(=O)N4C([H])([H])C([H])([H])C([H])([H])C([H])(n5nc(-c6c([H])c([H])c(Oc7c([H])c([H])c(F)c([H])c7F)c([H])c6[H])c(C(=O)N([H])[H])c5N([H])[H])C4([H])[H])C([H])([H])[H])c3C([H])([H])C([H])([H])[H])c([H])c([H])c2C1([H])[H]

$$$$
28:0:0
     RDKit          3D

 92100  0  0  1  0  0  0  0  0999 V2000
  -30.2280  -19.5920   21.5490 C   0  0  0  0  0  3  0  0  0  0  0  0
  -30.4650  -18.4500   20.8060 C   0  0  0  0  0  0  0  0  0  0  0  0
  -29.5990  -20.0390   19.4790 C   0  0  0  0  0  3  0  0  0  0  0  0
  -29.0040  -20.6840   18.2700 C   0  0  0  0  0  1  0  0  0  0  0  0
  -29.6990  -20.5600   20.7150 N   0  0  0  0  0  0  0  0  0  0  0  0
  -30.1090  -18.7980   19.5260 N   0  0  0  0  0  0  0  0  0  0  0  0
  -30.1800  -18.1840   18.7210 H   0  0  0  0  0  0  0  0  0  0  0  0
  -32.4970  -17.0050   20.8170 C   0  0  0  0  0  1  0  0  0  0  0  0
  -31.0080  -17.0750   21.2150 C   0  0  0  0  0  3  0  0  0  0  0  0
  -28.6170  -16.2760   20.6060 C   0  0  0  0  0  1  0  0  0  0  0  0
  -30.0440  -15.8030   20.9930 C   0  0  0  0  0  3  0  0  0  0  0  0
  -30.5510  -14.5860   20.1120 C   0  0  0  0  0  0  0  0  0  0  0  0
  -30.2010  -12.4050   18.9630 C   0  0  0  0  0  2  0  0  0  0  0  0
  -29.2040  -12.5830   17.7990 C   0  0  0  0  0  2  0  0  0  0  0  0
  -27.7550  -12.4160   18.2980 C   0  0  0  0  0  2  0  0  0  0  0  0
  -27.4700  -13.2480   19.5760 C   0  0  0  0  0  3  0  0  0  0  0  0
  -28.5890  -13.0410   20.6290 C   0  0  0  0  0  2  0  0  0  0  0  0
  -29.8700  -13.3970   20.0060 N   0  0  0  0  0  0  0  0  0  0  0  0
  -31.5840  -14.7340   19.4600 O   0  0  0  0  0  0  0  0  0  0  0  0
  -25.1060  -13.8480   20.4170 C   0  0  0  0  0  0  0  0  0  0  0  0
  -24.0630  -13.0690   20.8400 C   0  0  0  0  0  0  0  0  0  0  0  0
  -24.5290  -11.7210   20.7730 C   0  0  0  0  0  0  0  0  0  0  0  0
  -26.1440  -12.9720   20.1250 N   0  0  0  0  0  0  0  0  0  0  0  0
  -25.8010  -11.6880   20.3960 N   0  0  0  0  0  0  0  0  0  0  0  0
  -23.8190  -10.4560   20.9900 C   0  0  0  0  0  0  0  0  0  0  0  0
  -24.2800   -9.5060   21.9270 C   0  0  0  0  0  3  0  0  0  0  0  0
  -23.5720   -8.3030   22.1290 C   0  0  0  0  0  3  0  0  0  0  0  0
  -22.3910   -8.0420   21.3940 C   0  0  0  0  0  0  0  0  0  0  0  0
  -21.9500   -8.9800   20.4450 C   0  0  0  0  0  3  0  0  0  0  0  0
  -22.6570  -10.1770   20.2420 C   0  0  0  0  0  3  0  0  0  0  0  0
  -21.6530   -6.8890   21.5080 O   0  0  0  0  0  0  0  0  0  0  0  0
  -21.6030   -6.1770   22.6800 C   0  0  0  0  0  0  0  0  0  0  0  0
  -21.1540   -6.7570   23.8850 C   0  0  0  0  0  3  0  0  0  0  0  0
  -21.0520   -5.9720   25.0500 C   0  0  0  0  0  3  0  0  0  0  0  0
  -21.3890   -4.6060   25.0110 C   0  0  0  0  0  0  0  0  0  0  0  0
  -21.8320   -4.0230   23.8090 C   0  0  0  0  0  3  0  0  0  0  0  0
  -21.9360   -4.8070   22.6460 C   0  0  0  0  0  0  0  0  0  0  0  0
  -22.3420   -4.2370   21.4870 F   0  0  0  0  0  0  0  0  0  0  0  0
  -21.2860   -3.8480   26.1280 F   0  0  0  0  0  0  0  0  0  0  0  0
  -22.6810  -13.5370   21.1950 C   0  0  0  0  0  0  0  0  0  0  0  0
  -22.0020  -12.8280   22.0880 N   0  0  0  0  0  0  0  0  0  0  0  0
  -22.2150  -14.5700   20.7160 O   0  0  0  0  0  0  0  0  0  0  0  0
  -22.3930  -11.9970   22.5080 H   0  0  0  0  0  0  0  0  0  0  0  0
  -21.0800  -13.1300   22.3710 H   0  0  0  0  0  0  0  0  0  0  0  0
  -25.2460  -15.2210   20.2400 N   0  0  0  0  0  0  0  0  0  0  0  0
  -24.4720  -15.8550   20.4040 H   0  0  0  0  0  0  0  0  0  0  0  0
  -26.0800  -15.6850   19.9060 H   0  0  0  0  0  0  0  0  0  0  0  0
  -29.2120  -21.9270   21.1040 C   0  0  0  0  0  3  0  0  0  0  0  0
  -29.9520  -23.1360   20.4520 C   0  0  0  0  0  3  0  0  0  0  0  0
  -29.5450  -24.5850   20.8950 C   0  0  0  0  0  2  0  0  0  0  0  0
  -28.3370  -25.2800   20.1920 C   0  0  0  0  0  2  0  0  0  0  0  0
  -28.4000  -26.7220   20.3410 O   0  0  0  0  0  0  0  0  0  0  0  0
  -24.6130  -32.0000   23.3030 C   0  0  0  0  0  0  0  0  0  0  0  0
  -27.2300  -27.4680   20.2830 C   0  0  0  0  0  0  0  0  0  0  0  0
  -23.4030  -30.5880   21.6720 C   0  0  0  0  0  3  0  0  0  0  0  0
  -24.8470  -29.0210   20.2630 C   0  0  0  0  0  0  0  0  0  0  0  0
  -25.9320  -30.9180   21.4760 C   0  0  0  0  0  2  0  0  0  0  0  0
  -26.0090  -29.5360   20.8500 C   0  0  0  0  0  0  0  0  0  0  0  0
  -27.1990  -28.7670   20.8550 C   0  0  0  0  0  3  0  0  0  0  0  0
  -26.0470  -26.9820   19.6810 C   0  0  0  0  0  3  0  0  0  0  0  0
  -24.8620  -27.7440   19.6750 C   0  0  0  0  0  3  0  0  0  0  0  0
  -23.6120  -29.8930   20.3000 C   0  0  0  0  0  2  0  0  0  0  0  0
  -24.6670  -31.1870   22.2080 N   0  0  0  0  0  0  0  0  0  0  0  0
  -23.5320  -32.2850   23.8360 O   0  0  0  0  0  0  0  0  0  0  0  0
  -22.7360  -29.5870   22.6420 C   0  0  0  0  0  0  0  0  0  0  0  0
  -21.4140  -29.3990   22.4990 N   0  0  0  0  0  0  0  0  0  0  0  0
  -23.4090  -28.9770   23.4780 O   0  0  0  0  0  0  0  0  0  0  0  0
  -20.9310  -29.9440   21.7970 H   0  0  0  0  0  0  0  0  0  0  0  0
  -18.0390  -28.1910   22.9600 C   0  0  0  0  0  0  0  0  0  0  0  0
  -20.5890  -28.4700   23.2720 C   0  0  0  0  0  3  0  0  0  0  0  0
  -20.7090  -27.0290   22.7260 C   0  0  0  0  0  2  0  0  0  0  0  0
  -19.6290  -26.6810   21.6970 C   0  0  0  0  0  2  0  0  0  0  0  0
  -18.2360  -26.8290   22.3150 C   0  0  0  0  0  2  0  0  0  0  0  0
  -19.1450  -28.9680   23.3960 C   0  0  0  0  0  0  0  0  0  0  0  0
  -18.9100  -30.2400   23.9620 C   0  0  0  0  0  3  0  0  0  0  0  0
  -17.6010  -30.7380   24.0900 C   0  0  0  0  0  3  0  0  0  0  0  0
  -16.5080  -29.9590   23.6720 C   0  0  0  0  0  3  0  0  0  0  0  0
  -16.7270  -28.6860   23.1150 C   0  0  0  0  0  3  0  0  0  0  0  0
  -25.9010  -32.6260   23.9200 C   0  0  0  0  0  3  0  0  0  0  0  0
  -25.6010  -34.0280   24.2380 N   0  0  0  0  0  0  0  0  0  0  0  0
  -25.9450  -35.0720   23.4710 C   0  0  0  0  0  0  0  0  0  0  0  0
  -26.6170  -34.9540   22.4430 O   0  0  0  0  0  0  0  0  0  0  0  0
  -24.9990  -34.1910   25.0300 H   0  0  0  0  0  0  0  0  0  0  0  0
  -24.2290  -36.8750   23.0980 C   0  0  0  0  0  1  0  0  0  0  0  0
  -25.4650  -36.4670   23.9160 C   0  0  0  0  0  3  0  0  0  0  0  0
  -27.6040  -37.3460   24.7410 C   0  0  0  0  0  1  0  0  0  0  0  0
  -26.5050  -37.5110   23.7950 N   0  0  0  0  0  0  0  0  0  0  0  0
  -26.1040  -38.4360   23.9320 H   0  0  0  0  0  0  0  0  0  0  0  0
  -26.4130  -31.8610   25.2030 C   0  0  1  0  0  0  0  0  0  0  0  0
  -25.3160  -31.6240   26.2670 C   0  0  0  0  0  1  0  0  0  0  0  0
  -27.0050  -30.4850   24.8160 C   0  0  0  0  0  1  0  0  0  0  0  0
  -27.5550  -32.6610   25.8710 C   0  0  0  0  0  1  0  0  0  0  0  0
  2  9  1  0
  2  1  2  0
  3  4  1  0
  3  6  1  0
  3  5  1  0
  5 48  1  0
  5  1  1  0
  6  2  1  0
  7  6  1  0
  9  8  1  0
 11 10  1  0
 11  9  1  0
 12 11  1  0
 13 18  1  0
 14 15  1  0
 14 13  1  0
 16 15  1  0
 16 23  1  0
 16 17  1  0
 18 12  1  0
 18 17  1  0
 19 12  2  0
 20 21  2  0
 21 40  1  0
 22 21  1  0
 22 25  1  0
 23 24  1  0
 23 20  1  0
 24 22  2  0
 25 26  1  0
 26 27  2  0
 28 31  1  0
 28 27  1  0
 29 28  2  0
 30 29  1  0
 30 25  2  0
 31 32  1  0
 32 33  1  0
 33 34  2  0
 35 34  1  0
 35 39  1  0
 36 35  2  0
 37 32  2  0
 37 36  1  0
 38 37  1  0
 40 41  1  0
 41 44  1  0
 41 43  1  0
 42 40  2  0
 45 46  1  0
 45 20  1  0
 47 45  1  0
 49 50  1  0
 49 48  2  0
 51 52  1  0
 51 50  1  0
 53 64  2  0
 54 52  1  0
 54 59  1  0
 55 63  1  0
 55 65  1  0
 56 62  1  0
 56 58  1  0
 57 63  1  0
 58 59  2  0
 58 57  1  0
 60 54  2  0
 61 60  1  0
 61 56  2  0
 62 55  1  0
 63 53  1  0
 65 67  2  0
 66 65  1  0
 68 66  1  0
 69 78  2  0
 69 74  1  0
 70 66  1  0
 70 74  1  0
 71 70  1  0
 72 73  1  0
 72 71  1  0
 73 69  1  0
 74 75  2  0
 75 76  1  0
 77 76  2  0
 78 77  1  0
 79 53  1  0
 79 80  1  0
 79 89  1  0
 80 83  1  0
 81 85  1  0
 81 80  1  0
 82 81  2  0
 85 84  1  0
 87 85  1  0
 87 88  1  0
 87 86  1  0
 89 92  1  1
 89 90  1  0
 91 89  1  0
M  ISO  4  11 100  12 100  51 101  52 101
M  END
>  <TORSDO>  (29) 
F 22

>  <SCORE>  (29) 
-12.759

>  <name>  (29) 
28

>  <ligand_id>  (29) 
28

>  <original_smiles>  (29) 
[H]c1c([H])c([H])c2c(c1[H])C([H])([H])C([H])([H])C([H])([H])C2([H])N([H])C(=O)C1([H])N(C(=O)C([H])(N([H])C(=O)C([H])(N([H])C([H])([H])[H])C([H])([H])[H])C(C([H])([H])[H])(C([H])([H])[H])C([H])([H])[H])C([H])([H])c2c([H])c(OC([H])([H])C([H])([H])C([H])([H])C([H])([H])n3c([H])c(C([H])(C([H])([H])[H])C([H])(C(=O)N4C([H])([H])C([H])([H])C([H])([H])C([H])(n5nc(-c6c([H])c([H])c(Oc7c([H])c([H])c(F)c([H])c7F)c([H])c6[H])c(C(=O)N([H])[H])c5N([H])[H])C4([H])[H])C([H])([H])[H])[n+]([H])c3C([H])([H])[H])c([H])c([H])c2C1([H])[H]

>  <smiles>  (29) 
[H]c1c([H])c([H])c2c(c1[H])C([H])([H])C([H])([H])C([H])([H])C2([H])N([H])C(=O)C1([H])N(C(=O)C([H])(N([H])C(=O)C([H])(N([H])C([H])([H])[H])C([H])([H])[H])C(C([H])([H])[H])(C([H])([H])[H])C([H])([H])[H])C([H])([H])c2c([H])c(OC([H])([H])C([H])([H])C([H])([H])C([H])([H])n3c([H])c(C([H])(C([H])([H])[H])C([H])(C(=O)N4C([H])([H])C([H])([H])C([H])([H])C([H])(n5nc(-c6c([H])c([H])c(Oc7c([H])c([H])c(F)c([H])c7F)c([H])c6[H])c(C(=O)N([H])[H])c5N([H])[H])C4([H])[H])C([H])([H])[H])[n+]([H])c3C([H])([H])[H])c([H])c([H])c2C1([H])[H]

$$$$
29:0:0
     RDKit          3D

 91 99  0  0  1  0  0  0  0  0999 V2000
  -29.2530  -20.9750   19.1260 C   0  0  0  0  0  3  0  0  0  0  0  0
  -29.7370  -20.4170   20.3550 C   0  0  0  0  0  0  0  0  0  0  0  0
  -28.9000  -23.1750   20.0550 C   0  0  0  0  0  0  0  0  0  0  0  0
  -29.1110  -20.1150   17.8880 C   0  0  0  0  0  1  0  0  0  0  0  0
  -28.8520  -22.3070   18.9990 N   0  0  0  0  0  0  0  0  0  0  0  0
  -29.7770  -21.3680   21.3640 N   0  0  0  0  0  0  0  0  0  0  0  0
  -29.3630  -22.6770   21.2370 N   0  0  0  0  0  2  0  0  0  0  0  0
  -29.2920  -18.3970   21.8920 C   0  0  0  0  0  1  0  0  0  0  0  0
  -31.6430  -18.9490   21.2610 C   0  0  0  0  0  1  0  0  0  0  0  0
  -30.1990  -18.8570   20.7300 C   0  0  2  0  0  0  0  0  0  0  0  0
  -30.2660  -17.5470   19.6910 C   0  0  0  0  0  2  0  0  0  0  0  0
  -30.9490  -14.8840   19.8420 C   0  0  0  0  0  0  0  0  0  0  0  0
  -30.7040  -12.5660   18.8690 C   0  0  0  0  0  2  0  0  0  0  0  0
  -29.7090  -12.6190   17.6840 C   0  0  0  0  0  2  0  0  0  0  0  0
  -28.2620  -12.4530   18.1870 C   0  0  0  0  0  2  0  0  0  0  0  0
  -27.9550  -13.3540   19.4140 C   0  0  0  0  0  3  0  0  0  0  0  0
  -29.0660  -13.2740   20.4850 C   0  0  0  0  0  2  0  0  0  0  0  0
  -30.3290  -13.6400   19.8320 N   0  0  0  0  0  0  0  0  0  0  0  0
  -32.0950  -14.9610   19.3920 O   0  0  0  0  0  0  0  0  0  0  0  0
  -30.2070  -16.0430   20.1590 N   0  0  0  0  0  0  0  0  0  0  0  0
  -29.3270  -15.8120   20.5940 H   0  0  0  0  0  0  0  0  0  0  0  0
  -25.6270  -13.9890   20.2730 C   0  0  0  0  0  0  0  0  0  0  0  0
  -24.5620  -13.2370   20.6890 C   0  0  0  0  0  0  0  0  0  0  0  0
  -24.9880  -11.8740   20.6160 C   0  0  0  0  0  0  0  0  0  0  0  0
  -26.6330  -13.0860   19.9680 N   0  0  0  0  0  0  0  0  0  0  0  0
  -26.2590  -11.8080   20.2370 N   0  0  0  0  0  0  0  0  0  0  0  0
  -24.2360  -10.6300   20.8260 C   0  0  0  0  0  0  0  0  0  0  0  0
  -24.6360   -9.6780   21.7910 C   0  0  0  0  0  3  0  0  0  0  0  0
  -23.8850   -8.4970   21.9850 C   0  0  0  0  0  3  0  0  0  0  0  0
  -22.7210   -8.2620   21.2170 C   0  0  0  0  0  0  0  0  0  0  0  0
  -22.3410   -9.2020   20.2420 C   0  0  0  0  0  3  0  0  0  0  0  0
  -23.0920  -10.3720   20.0450 C   0  0  0  0  0  3  0  0  0  0  0  0
  -21.9420   -7.1330   21.3210 O   0  0  0  0  0  0  0  0  0  0  0  0
  -21.7860   -6.4750   22.5150 C   0  0  0  0  0  0  0  0  0  0  0  0
  -21.2390   -7.1110   23.6500 C   0  0  0  0  0  3  0  0  0  0  0  0
  -21.0290   -6.3780   24.8350 C   0  0  0  0  0  3  0  0  0  0  0  0
  -21.3590   -5.0100   24.8850 C   0  0  0  0  0  0  0  0  0  0  0  0
  -21.9000   -4.3740   23.7550 C   0  0  0  0  0  3  0  0  0  0  0  0
  -22.1100   -5.1040   22.5710 C   0  0  0  0  0  0  0  0  0  0  0  0
  -22.6120   -4.4810   21.4780 F   0  0  0  0  0  0  0  0  0  0  0  0
  -21.1530   -4.3050   26.0210 F   0  0  0  0  0  0  0  0  0  0  0  0
  -23.1940  -13.7480   21.0410 C   0  0  0  0  0  0  0  0  0  0  0  0
  -22.4980  -13.0680   21.9450 N   0  0  0  0  0  0  0  0  0  0  0  0
  -22.7530  -14.7840   20.5450 O   0  0  0  0  0  0  0  0  0  0  0  0
  -22.8690  -12.2270   22.3650 H   0  0  0  0  0  0  0  0  0  0  0  0
  -21.5840  -13.3940   22.2220 H   0  0  0  0  0  0  0  0  0  0  0  0
  -25.8170  -15.3570   20.1010 N   0  0  0  0  0  0  0  0  0  0  0  0
  -25.0620  -16.0220   20.2220 H   0  0  0  0  0  0  0  0  0  0  0  0
  -26.6420  -15.7710   19.6870 H   0  0  0  0  0  0  0  0  0  0  0  0
  -28.0080  -24.5680   19.9860 C   0  0  0  0  0  2  0  0  0  0  0  0
  -28.3760  -26.0650   20.2210 O   0  0  0  0  0  0  0  0  0  0  0  0
  -24.7080  -31.7970   23.0860 C   0  0  0  0  0  0  0  0  0  0  0  0
  -27.3300  -27.0600   20.1230 C   0  0  0  0  0  0  0  0  0  0  0  0
  -23.5230  -30.3640   21.4700 C   0  0  0  0  0  3  0  0  0  0  0  0
  -24.9870  -28.7910   20.0700 C   0  0  0  0  0  0  0  0  0  0  0  0
  -26.0770  -30.6520   21.3030 C   0  0  0  0  0  2  0  0  0  0  0  0
  -26.1650  -29.2520   20.6720 C   0  0  0  0  0  0  0  0  0  0  0  0
  -27.3380  -28.4020   20.6840 C   0  0  0  0  0  3  0  0  0  0  0  0
  -26.1210  -26.7110   19.4730 C   0  0  0  0  0  3  0  0  0  0  0  0
  -24.9770  -27.5330   19.4570 C   0  0  0  0  0  3  0  0  0  0  0  0
  -23.7520  -29.6740   20.1030 C   0  0  0  0  0  2  0  0  0  0  0  0
  -24.7900  -30.9590   22.0070 N   0  0  0  0  0  0  0  0  0  0  0  0
  -23.6190  -32.0780   23.6090 O   0  0  0  0  0  0  0  0  0  0  0  0
  -22.8560  -29.3620   22.4460 C   0  0  0  0  0  0  0  0  0  0  0  0
  -21.5300  -29.1770   22.3260 N   0  0  0  0  0  0  0  0  0  0  0  0
  -23.5350  -28.7540   23.2770 O   0  0  0  0  0  0  0  0  0  0  0  0
  -21.0360  -29.7200   21.6310 H   0  0  0  0  0  0  0  0  0  0  0  0
  -18.1660  -27.9380   22.8440 C   0  0  0  0  0  0  0  0  0  0  0  0
  -20.7200  -28.2410   23.1100 C   0  0  0  0  0  3  0  0  0  0  0  0
  -20.8430  -26.8010   22.5590 C   0  0  0  0  0  2  0  0  0  0  0  0
  -19.7470  -26.4460   21.5490 C   0  0  0  0  0  2  0  0  0  0  0  0
  -18.3630  -26.5810   22.1920 C   0  0  0  0  0  2  0  0  0  0  0  0
  -19.2730  -28.7250   23.2600 C   0  0  0  0  0  0  0  0  0  0  0  0
  -19.0340  -29.9920   23.8320 C   0  0  0  0  0  3  0  0  0  0  0  0
  -17.7220  -30.4770   23.9880 C   0  0  0  0  0  3  0  0  0  0  0  0
  -16.6290  -29.6910   23.5830 C   0  0  0  0  0  3  0  0  0  0  0  0
  -16.8520  -28.4220   23.0180 C   0  0  0  0  0  3  0  0  0  0  0  0
  -25.9780  -32.4580   23.7010 C   0  0  0  0  0  3  0  0  0  0  0  0
  -26.5440  -31.6710   24.9470 C   0  0  1  0  0  0  0  0  0  0  0  0
  -25.4790  -31.3640   26.0250 C   0  0  0  0  0  1  0  0  0  0  0  0
  -27.1700  -30.3270   24.5100 C   0  0  0  0  0  1  0  0  0  0  0  0
  -27.6760  -32.4890   25.6120 C   0  0  0  0  0  1  0  0  0  0  0  0
  -25.6260  -33.8350   24.0830 N   0  0  0  0  0  0  0  0  0  0  0  0
  -25.8980  -34.9240   23.3520 C   0  0  0  0  0  0  0  0  0  0  0  0
  -26.5390  -34.8770   22.2990 O   0  0  0  0  0  0  0  0  0  0  0  0
  -25.0500  -33.9430   24.9060 H   0  0  0  0  0  0  0  0  0  0  0  0
  -24.0990  -36.6690   23.1110 C   0  0  0  0  0  1  0  0  0  0  0  0
  -25.3780  -36.2810   23.8700 C   0  0  0  0  0  3  0  0  0  0  0  0
  -27.5010  -37.2200   24.6730 C   0  0  0  0  0  1  0  0  0  0  0  0
  -26.3710  -37.3720   23.7610 N   0  0  0  0  0  0  0  0  0  0  0  0
  -25.9370  -38.2730   23.9400 H   0  0  0  0  0  0  0  0  0  0  0  0
  1  4  1  0
  1  2  1  0
  2 10  1  0
  2  6  2  0
  3  7  1  0
  5  1  1  0
  5  3  2  0
  7  6  1  0
 10  9  1  1
 10  8  1  0
 11 20  1  0
 11 10  1  0
 12 20  1  0
 13 18  1  0
 14 15  1  0
 14 13  1  0
 16 15  1  0
 16 25  1  0
 16 17  1  0
 18 12  1  0
 18 17  1  0
 19 12  2  0
 20 21  1  0
 22 23  2  0
 23 42  1  0
 24 23  1  0
 24 27  1  0
 25 26  1  0
 25 22  1  0
 26 24  2  0
 27 28  1  0
 28 29  2  0
 30 33  1  0
 30 29  1  0
 31 30  2  0
 32 31  1  0
 32 27  2  0
 33 34  1  0
 34 39  2  0
 34 35  1  0
 35 36  2  0
 36 37  1  0
 37 41  1  0
 38 37  2  0
 39 38  1  0
 40 39  1  0
 42 43  1  0
 43 46  1  0
 43 45  1  0
 44 42  2  0
 47 48  1  0
 47 22  1  0
 49 47  1  0
 50  3  1  0
 50 51  1  0
 52 63  2  0
 53 51  1  0
 53 58  1  0
 54 62  1  0
 54 64  1  0
 55 61  1  0
 55 57  1  0
 56 62  1  0
 57 58  2  0
 57 56  1  0
 59 53  2  0
 60 59  1  0
 60 55  2  0
 61 54  1  0
 62 52  1  0
 64 66  2  0
 65 64  1  0
 67 65  1  0
 68 77  2  0
 68 73  1  0
 69 65  1  0
 69 73  1  0
 70 69  1  0
 71 72  1  0
 71 70  1  0
 72 68  1  0
 73 74  2  0
 74 75  1  0
 76 75  2  0
 77 76  1  0
 78 52  1  0
 78 83  1  0
 78 79  1  0
 79 82  1  1
 79 80  1  0
 81 79  1  0
 83 86  1  0
 84 88  1  0
 84 83  1  0
 85 84  2  0
 88 87  1  0
 90 88  1  0
 90 91  1  0
 90 89  1  0
M  ISO  4  12 100  20 100  50 101  51 101
M  END
>  <TORSDO>  (30) 
F 19

>  <SCORE>  (30) 
-12.838

>  <name>  (30) 
29

>  <ligand_id>  (30) 
29

>  <original_smiles>  (30) 
[H]c1c([H])c([H])c2c(c1[H])C([H])([H])C([H])([H])C([H])([H])C2([H])N([H])C(=O)C1([H])N(C(=O)C([H])(N([H])C(=O)C([H])(N([H])C([H])([H])[H])C([H])([H])[H])C(C([H])([H])[H])(C([H])([H])[H])C([H])([H])[H])C([H])([H])c2c([H])c(OC([H])([H])c3nnc(C(C([H])([H])[H])(C([H])([H])[H])C([H])([H])N([H])C(=O)N4C([H])([H])C([H])([H])C([H])([H])C([H])(n5nc(-c6c([H])c([H])c(Oc7c([H])c([H])c(F)c([H])c7F)c([H])c6[H])c(C(=O)N([H])[H])c5N([H])[H])C4([H])[H])c(C([H])([H])[H])n3)c([H])c([H])c2C1([H])[H]

>  <smiles>  (30) 
[H]c1c([H])c([H])c2c(c1[H])C([H])([H])C([H])([H])C([H])([H])C2([H])N([H])C(=O)C1([H])N(C(=O)C([H])(N([H])C(=O)C([H])(N([H])C([H])([H])[H])C([H])([H])[H])C(C([H])([H])[H])(C([H])([H])[H])C([H])([H])[H])C([H])([H])c2c([H])c(OC([H])([H])c3nnc(C(C([H])([H])[H])(C([H])([H])[H])C([H])([H])N([H])C(=O)N4C([H])([H])C([H])([H])C([H])([H])C([H])(n5nc(-c6c([H])c([H])c(Oc7c([H])c([H])c(F)c([H])c7F)c([H])c6[H])c(C(=O)N([H])[H])c5N([H])[H])C4([H])[H])c(C([H])([H])[H])n3)c([H])c([H])c2C1([H])[H]

$$$$
30:0:0
     RDKit          3D

 91 99  0  0  1  0  0  0  0  0999 V2000
  -29.7100  -20.6150   21.5180 C   0  0  0  0  0  3  0  0  0  0  0  0
  -30.0400  -19.9880   20.2850 C   0  0  0  0  0  0  0  0  0  0  0  0
  -29.7140  -22.0710   19.2340 C   0  0  0  0  0  0  0  0  0  0  0  0
  -29.4500  -22.7150   20.4750 C   0  0  0  0  0  0  0  0  0  0  0  0
  -29.7950  -22.8390   17.9270 C   0  0  0  0  0  1  0  0  0  0  0  0
  -29.4110  -21.9530   21.6090 N   0  0  0  0  0  0  0  0  0  0  0  0
  -29.9900  -20.7370   19.1460 N   0  0  0  0  0  0  0  0  0  0  0  0
  -32.2930  -18.9660   20.4610 C   0  0  0  0  0  1  0  0  0  0  0  0
  -30.8070  -18.6260   20.1430 C   0  0  0  0  0  3  0  0  0  0  0  0
  -30.3210  -17.2560   20.8650 C   0  0  0  0  0  2  0  0  0  0  0  0
  -30.6940  -14.7080   20.3790 C   0  0  0  0  0  0  0  0  0  0  0  0
  -30.4200  -12.4440   19.4110 C   0  0  0  0  0  2  0  0  0  0  0  0
  -29.5030  -12.4940   18.1730 C   0  0  0  0  0  2  0  0  0  0  0  0
  -28.0140  -12.4210   18.5800 C   0  0  0  0  0  2  0  0  0  0  0  0
  -27.6370  -13.3090   19.8020 C   0  0  0  0  0  3  0  0  0  0  0  0
  -28.6950  -13.2370   20.9220 C   0  0  0  0  0  2  0  0  0  0  0  0
  -29.9980  -13.5290   20.3150 N   0  0  0  0  0  0  0  0  0  0  0  0
  -31.9230  -14.7100   20.2630 O   0  0  0  0  0  0  0  0  0  0  0  0
  -29.5700  -16.1210   18.7870 C   0  0  0  0  0  1  0  0  0  0  0  0
  -30.0030  -15.9070   20.1910 N   0  0  0  0  0  0  0  0  0  0  0  0
  -25.2430  -13.9120   20.4890 C   0  0  0  0  0  0  0  0  0  0  0  0
  -24.1710  -13.1410   20.8470 C   0  0  0  0  0  0  0  0  0  0  0  0
  -24.6380  -11.7910   20.8450 C   0  0  0  0  0  0  0  0  0  0  0  0
  -26.2920  -13.0290   20.2860 N   0  0  0  0  0  0  0  0  0  0  0  0
  -25.9330  -11.7500   20.5650 N   0  0  0  0  0  0  0  0  0  0  0  0
  -23.9130  -10.5290   21.0340 C   0  0  0  0  0  0  0  0  0  0  0  0
  -24.3360   -9.5670   21.9770 C   0  0  0  0  0  3  0  0  0  0  0  0
  -23.6080   -8.3710   22.1540 C   0  0  0  0  0  3  0  0  0  0  0  0
  -22.4450   -8.1280   21.3870 C   0  0  0  0  0  0  0  0  0  0  0  0
  -22.0430   -9.0780   20.4300 C   0  0  0  0  0  3  0  0  0  0  0  0
  -22.7710  -10.2650   20.2520 C   0  0  0  0  0  3  0  0  0  0  0  0
  -21.6890   -6.9830   21.4740 O   0  0  0  0  0  0  0  0  0  0  0  0
  -21.6320   -6.2460   22.6290 C   0  0  0  0  0  0  0  0  0  0  0  0
  -21.1920   -6.8050   23.8490 C   0  0  0  0  0  3  0  0  0  0  0  0
  -21.0820   -5.9930   24.9960 C   0  0  0  0  0  3  0  0  0  0  0  0
  -21.4010   -4.6240   24.9240 C   0  0  0  0  0  0  0  0  0  0  0  0
  -21.8330   -4.0650   23.7090 C   0  0  0  0  0  3  0  0  0  0  0  0
  -21.9450   -4.8730   22.5650 C   0  0  0  0  0  0  0  0  0  0  0  0
  -22.3420   -4.3230   21.3910 F   0  0  0  0  0  0  0  0  0  0  0  0
  -21.2880   -3.8430   26.0240 F   0  0  0  0  0  0  0  0  0  0  0  0
  -22.7680  -13.6190   21.0810 C   0  0  0  0  0  0  0  0  0  0  0  0
  -22.0200  -12.9330   21.9390 N   0  0  0  0  0  0  0  0  0  0  0  0
  -22.3400  -14.6360   20.5380 O   0  0  0  0  0  0  0  0  0  0  0  0
  -22.3750  -12.1090   22.4010 H   0  0  0  0  0  0  0  0  0  0  0  0
  -21.0790  -13.2400   22.1400 H   0  0  0  0  0  0  0  0  0  0  0  0
  -25.4100  -15.2810   20.2960 N   0  0  0  0  0  0  0  0  0  0  0  0
  -24.6480  -15.9440   20.3880 H   0  0  0  0  0  0  0  0  0  0  0  0
  -26.2790  -15.7160   20.0140 H   0  0  0  0  0  0  0  0  0  0  0  0
  -29.4280  -24.2750   20.6400 C   0  0  0  0  0  3  0  0  0  0  0  0
  -28.1990  -25.1220   20.1380 C   0  0  0  0  0  3  0  0  0  0  0  0
  -28.3500  -26.5810   20.2620 O   0  0  0  0  0  0  0  0  0  0  0  0
  -24.5730  -31.9010   23.2540 C   0  0  0  0  0  0  0  0  0  0  0  0
  -27.2070  -27.3820   20.2000 C   0  0  0  0  0  0  0  0  0  0  0  0
  -23.3730  -30.5010   21.6110 C   0  0  0  0  0  3  0  0  0  0  0  0
  -24.8280  -28.9570   20.1860 C   0  0  0  0  0  0  0  0  0  0  0  0
  -25.9070  -30.8360   21.4250 C   0  0  0  0  0  2  0  0  0  0  0  0
  -25.9920  -29.4610   20.7800 C   0  0  0  0  0  0  0  0  0  0  0  0
  -27.1840  -28.6850   20.7760 C   0  0  0  0  0  3  0  0  0  0  0  0
  -26.0200  -26.9180   19.5860 C   0  0  0  0  0  3  0  0  0  0  0  0
  -24.8420  -27.6900   19.5810 C   0  0  0  0  0  3  0  0  0  0  0  0
  -23.5870  -29.8220   20.2320 C   0  0  0  0  0  2  0  0  0  0  0  0
  -24.6370  -31.0960   22.1540 N   0  0  0  0  0  0  0  0  0  0  0  0
  -23.4900  -32.1750   23.7890 O   0  0  0  0  0  0  0  0  0  0  0  0
  -22.7130  -29.4820   22.5700 C   0  0  0  0  0  0  0  0  0  0  0  0
  -21.3890  -29.2960   22.4340 N   0  0  0  0  0  0  0  0  0  0  0  0
  -23.3910  -28.8610   23.3930 O   0  0  0  0  0  0  0  0  0  0  0  0
  -20.9020  -29.8490   21.7420 H   0  0  0  0  0  0  0  0  0  0  0  0
  -18.0170  -28.0840   22.9080 C   0  0  0  0  0  0  0  0  0  0  0  0
  -20.5700  -28.3590   23.2030 C   0  0  0  0  0  3  0  0  0  0  0  0
  -20.6870  -26.9250   22.6360 C   0  0  0  0  0  2  0  0  0  0  0  0
  -19.5980  -26.5910   21.6130 C   0  0  0  0  0  2  0  0  0  0  0  0
  -18.2080  -26.7330   22.2420 C   0  0  0  0  0  2  0  0  0  0  0  0
  -19.1270  -28.8560   23.3450 C   0  0  0  0  0  0  0  0  0  0  0  0
  -18.8950  -30.1200   23.9270 C   0  0  0  0  0  3  0  0  0  0  0  0
  -17.5860  -30.6150   24.0780 C   0  0  0  0  0  3  0  0  0  0  0  0
  -16.4900  -29.8410   23.6580 C   0  0  0  0  0  3  0  0  0  0  0  0
  -16.7070  -28.5780   23.0780 C   0  0  0  0  0  3  0  0  0  0  0  0
  -25.8560  -32.5330   23.8780 C   0  0  0  0  0  3  0  0  0  0  0  0
  -26.3630  -31.7720   25.1630 C   0  0  1  0  0  0  0  0  0  0  0  0
  -25.2630  -31.5480   26.2270 C   0  0  0  0  0  1  0  0  0  0  0  0
  -26.9410  -30.3880   24.7860 C   0  0  0  0  0  1  0  0  0  0  0  0
  -27.5120  -32.5680   25.8260 C   0  0  0  0  0  1  0  0  0  0  0  0
  -25.5510  -33.9360   24.1930 N   0  0  0  0  0  0  0  0  0  0  0  0
  -25.8940  -34.9800   23.4290 C   0  0  0  0  0  0  0  0  0  0  0  0
  -26.5710  -34.8670   22.4040 O   0  0  0  0  0  0  0  0  0  0  0  0
  -24.9490  -34.0990   24.9860 H   0  0  0  0  0  0  0  0  0  0  0  0
  -24.1780  -36.7790   23.0480 C   0  0  0  0  0  1  0  0  0  0  0  0
  -25.4090  -36.3750   23.8720 C   0  0  0  0  0  3  0  0  0  0  0  0
  -27.5400  -37.2560   24.7190 C   0  0  0  0  0  1  0  0  0  0  0  0
  -26.4480  -37.4220   23.7630 N   0  0  0  0  0  0  0  0  0  0  0  0
  -26.0450  -38.3450   23.9010 H   0  0  0  0  0  0  0  0  0  0  0  0
  1  6  1  0
  2  1  2  0
  3  4  1  0
  4 49  1  0
  4  6  2  0
  5  3  1  0
  7  3  2  0
  7  2  1  0
  9  2  1  0
  9  8  1  0
  9 10  1  0
 12 17  1  0
 13 14  1  0
 13 12  1  0
 15 14  1  0
 15 24  1  0
 15 16  1  0
 17 11  1  0
 17 16  1  0
 18 11  2  0
 19 20  1  0
 20 11  1  0
 20 10  1  0
 21 22  2  0
 22 41  1  0
 23 22  1  0
 23 26  1  0
 24 21  1  0
 24 25  1  0
 25 23  2  0
 26 27  1  0
 27 28  2  0
 29 32  1  0
 29 28  1  0
 30 29  2  0
 31 30  1  0
 31 26  2  0
 32 33  1  0
 33 34  1  0
 34 35  2  0
 36 35  1  0
 36 40  1  0
 37 36  2  0
 38 33  2  0
 38 37  1  0
 39 38  1  0
 41 42  1  0
 42 45  1  0
 42 44  1  0
 43 41  2  0
 46 47  1  0
 46 21  1  0
 48 46  1  0
 50 51  1  0
 50 49  2  0
 52 63  2  0
 53 51  1  0
 53 58  1  0
 54 62  1  0
 54 64  1  0
 55 61  1  0
 55 57  1  0
 56 62  1  0
 57 56  1  0
 58 57  2  0
 59 53  2  0
 60 59  1  0
 60 55  2  0
 61 54  1  0
 62 52  1  0
 64 66  2  0
 65 64  1  0
 67 65  1  0
 68 77  2  0
 68 73  1  0
 69 65  1  0
 69 73  1  0
 70 69  1  0
 71 72  1  0
 71 70  1  0
 72 68  1  0
 73 74  2  0
 74 75  1  0
 76 75  2  0
 77 76  1  0
 78 52  1  0
 78 83  1  0
 78 79  1  0
 79 82  1  1
 79 80  1  0
 81 79  1  0
 83 86  1  0
 84 88  1  0
 84 83  1  0
 85 84  2  0
 88 87  1  0
 90 88  1  0
 90 91  1  0
 90 89  1  0
M  ISO  4  11 100  20 100  50 101  51 101
M  END
>  <TORSDO>  (31) 
F 20

>  <SCORE>  (31) 
-13.698

>  <name>  (31) 
30

>  <ligand_id>  (31) 
30

>  <original_smiles>  (31) 
[H]c1nc(C([H])([H])C([H])([H])Oc2c([H])c([H])c3c(c2[H])C([H])([H])N(C(=O)C([H])(N([H])C(=O)C([H])(N([H])C([H])([H])[H])C([H])([H])[H])C(C([H])([H])[H])(C([H])([H])[H])C([H])([H])[H])C([H])(C(=O)N([H])C2([H])c4c([H])c([H])c([H])c([H])c4C([H])([H])C([H])([H])C2([H])[H])C3([H])[H])c(C([H])([H])[H])nc1C([H])(C([H])([H])[H])C([H])([H])N(C(=O)N1C([H])([H])C([H])([H])C([H])([H])C([H])(n2nc(-c3c([H])c([H])c(Oc4c([H])c([H])c(F)c([H])c4F)c([H])c3[H])c(C(=O)N([H])[H])c2N([H])[H])C1([H])[H])C([H])([H])[H]

>  <smiles>  (31) 
[H]c1nc(C([H])([H])C([H])([H])Oc2c([H])c([H])c3c(c2[H])C([H])([H])N(C(=O)C([H])(N([H])C(=O)C([H])(N([H])C([H])([H])[H])C([H])([H])[H])C(C([H])([H])[H])(C([H])([H])[H])C([H])([H])[H])C([H])(C(=O)N([H])C2([H])c4c([H])c([H])c([H])c([H])c4C([H])([H])C([H])([H])C2([H])[H])C3([H])[H])c(C([H])([H])[H])nc1C([H])(C([H])([H])[H])C([H])([H])N(C(=O)N1C([H])([H])C([H])([H])C([H])([H])C([H])(n2nc(-c3c([H])c([H])c(Oc4c([H])c([H])c(F)c([H])c4F)c([H])c3[H])c(C(=O)N([H])[H])c2N([H])[H])C1([H])[H])C([H])([H])[H]

$$$$
31:0:0
     RDKit          3D

 90 98  0  0  1  0  0  0  0  0999 V2000
  -29.0880  -22.5130   20.4980 C   0  0  0  0  0  3  0  0  0  0  0  0
  -28.6050  -23.9550   18.4160 C   0  0  0  0  0  1  0  0  0  0  0  0
  -29.0900  -24.0000   19.8750 C   0  0  0  0  0  3  0  0  0  0  0  0
  -28.2650  -25.1340   20.6410 C   0  0  0  0  0  2  0  0  0  0  0  0
  -28.3960  -26.5450   20.2010 O   0  0  0  0  0  0  0  0  0  0  0  0
  -24.5910  -31.8860   23.2430 C   0  0  0  0  0  0  0  0  0  0  0  0
  -27.2550  -27.3600   20.1940 C   0  0  0  0  0  0  0  0  0  0  0  0
  -23.4030  -30.4900   21.5880 C   0  0  0  0  0  3  0  0  0  0  0  0
  -24.8700  -28.9370   20.1760 C   0  0  0  0  0  0  0  0  0  0  0  0
  -25.9400  -30.8210   21.4200 C   0  0  0  0  0  2  0  0  0  0  0  0
  -26.0310  -29.4420   20.7760 C   0  0  0  0  0  0  0  0  0  0  0  0
  -27.2280  -28.6670   20.7710 C   0  0  0  0  0  3  0  0  0  0  0  0
  -26.0750  -26.9020   19.5720 C   0  0  0  0  0  3  0  0  0  0  0  0
  -24.8920  -27.6710   19.5650 C   0  0  0  0  0  3  0  0  0  0  0  0
  -23.6290  -29.8100   20.2120 C   0  0  0  0  0  2  0  0  0  0  0  0
  -24.6630  -31.0820   22.1420 N   0  0  0  0  0  0  0  0  0  0  0  0
  -23.5030  -32.1600   23.7700 O   0  0  0  0  0  0  0  0  0  0  0  0
  -22.7330  -29.4740   22.5430 C   0  0  0  0  0  0  0  0  0  0  0  0
  -21.4100  -29.2880   22.3970 N   0  0  0  0  0  0  0  0  0  0  0  0
  -23.4030  -28.8540   23.3720 O   0  0  0  0  0  0  0  0  0  0  0  0
  -20.9260  -29.8430   21.7050 H   0  0  0  0  0  0  0  0  0  0  0  0
  -18.0370  -28.0540   22.8360 C   0  0  0  0  0  0  0  0  0  0  0  0
  -20.5870  -28.3440   23.1550 C   0  0  0  0  0  3  0  0  0  0  0  0
  -20.7170  -26.9120   22.5890 C   0  0  0  0  0  2  0  0  0  0  0  0
  -19.6380  -26.5700   21.5560 C   0  0  0  0  0  2  0  0  0  0  0  0
  -18.2410  -26.7020   22.1700 C   0  0  0  0  0  2  0  0  0  0  0  0
  -19.1390  -28.8310   23.2830 C   0  0  0  0  0  0  0  0  0  0  0  0
  -18.8960  -30.0940   23.8640 C   0  0  0  0  0  3  0  0  0  0  0  0
  -17.5830  -30.5820   24.0030 C   0  0  0  0  0  3  0  0  0  0  0  0
  -16.4960  -29.8040   23.5710 C   0  0  0  0  0  3  0  0  0  0  0  0
  -16.7220  -28.5420   22.9930 C   0  0  0  0  0  3  0  0  0  0  0  0
  -25.8670  -32.5180   23.8790 C   0  0  0  0  0  3  0  0  0  0  0  0
  -25.5620  -33.9220   24.1910 N   0  0  0  0  0  0  0  0  0  0  0  0
  -25.9190  -34.9670   23.4310 C   0  0  0  0  0  0  0  0  0  0  0  0
  -26.6090  -34.8500   22.4140 O   0  0  0  0  0  0  0  0  0  0  0  0
  -24.9590  -34.0890   24.9820 H   0  0  0  0  0  0  0  0  0  0  0  0
  -24.2160  -36.7720   23.0270 C   0  0  0  0  0  1  0  0  0  0  0  0
  -25.4350  -36.3630   23.8680 C   0  0  0  0  0  3  0  0  0  0  0  0
  -27.5570  -37.2320   24.7410 C   0  0  0  0  0  1  0  0  0  0  0  0
  -26.4800  -37.4060   23.7710 N   0  0  0  0  0  0  0  0  0  0  0  0
  -26.0810  -38.3300   23.9040 H   0  0  0  0  0  0  0  0  0  0  0  0
  -26.3600  -31.7570   25.1720 C   0  0  1  0  0  0  0  0  0  0  0  0
  -25.2490  -31.5340   26.2260 C   0  0  0  0  0  1  0  0  0  0  0  0
  -26.9420  -30.3740   24.8000 C   0  0  0  0  0  1  0  0  0  0  0  0
  -27.5080  -32.5520   25.8380 C   0  0  0  0  0  1  0  0  0  0  0  0
  -30.1370  -21.4560   19.9170 C   0  0  0  0  0  3  0  0  0  0  0  0
  -30.6160  -18.9210   19.5490 C   0  0  0  0  0  3  0  0  0  0  0  0
  -29.6360  -19.3640   21.3980 C   0  0  0  0  0  3  0  0  0  0  0  0
  -30.3750  -17.6880   20.1710 C   0  0  0  0  0  0  0  0  0  0  0  0
  -29.7380  -18.0180   21.3800 N   0  0  0  0  0  0  0  0  0  0  0  0
  -30.0940  -19.9950   20.3000 N   0  0  0  0  0  0  0  0  0  0  0  0
  -31.4000  -16.3870   18.2780 C   0  0  0  0  0  1  0  0  0  0  0  0
  -29.0330  -16.1860   18.8220 C   0  0  0  0  0  1  0  0  0  0  0  0
  -30.4110  -16.2640   19.4760 C   0  0  2  0  0  0  0  0  0  0  0  0
  -30.8880  -14.8840   20.2260 C   0  0  0  0  0  0  0  0  0  0  0  0
  -30.6160  -12.5630   19.3920 C   0  0  0  0  0  2  0  0  0  0  0  0
  -29.6910  -12.5250   18.1570 C   0  0  0  0  0  2  0  0  0  0  0  0
  -28.2240  -12.3310   18.5900 C   0  0  0  0  0  2  0  0  0  0  0  0
  -27.8060  -13.2780   19.7410 C   0  0  0  0  0  3  0  0  0  0  0  0
  -28.8760  -13.3970   20.8540 C   0  0  0  0  0  2  0  0  0  0  0  0
  -30.1770  -13.6960   20.2320 N   0  0  0  0  0  0  0  0  0  0  0  0
  -32.1080  -14.7970   20.3550 O   0  0  0  0  0  0  0  0  0  0  0  0
  -25.4360  -13.9190   20.4510 C   0  0  0  0  0  0  0  0  0  0  0  0
  -24.3560  -13.1610   20.8110 C   0  0  0  0  0  0  0  0  0  0  0  0
  -24.8160  -11.8080   20.8120 C   0  0  0  0  0  0  0  0  0  0  0  0
  -26.4730  -13.0200   20.2500 N   0  0  0  0  0  0  0  0  0  0  0  0
  -26.1090  -11.7500   20.5350 N   0  0  0  0  0  0  0  0  0  0  0  0
  -24.0840  -10.5550   21.0010 C   0  0  0  0  0  0  0  0  0  0  0  0
  -24.5010   -9.5990   21.9530 C   0  0  0  0  0  3  0  0  0  0  0  0
  -23.7720   -8.4050   22.1320 C   0  0  0  0  0  3  0  0  0  0  0  0
  -22.6130   -8.1590   21.3570 C   0  0  0  0  0  0  0  0  0  0  0  0
  -22.2180   -9.1030   20.3930 C   0  0  0  0  0  3  0  0  0  0  0  0
  -22.9470  -10.2900   20.2120 C   0  0  0  0  0  3  0  0  0  0  0  0
  -21.8560   -7.0180   21.4470 O   0  0  0  0  0  0  0  0  0  0  0  0
  -21.7870   -6.2920   22.6080 C   0  0  0  0  0  0  0  0  0  0  0  0
  -21.3340   -6.8630   23.8180 C   0  0  0  0  0  3  0  0  0  0  0  0
  -21.2120   -6.0630   24.9710 C   0  0  0  0  0  3  0  0  0  0  0  0
  -21.5310   -4.6930   24.9150 C   0  0  0  0  0  0  0  0  0  0  0  0
  -21.9760   -4.1220   23.7100 C   0  0  0  0  0  3  0  0  0  0  0  0
  -22.1010   -4.9200   22.5600 C   0  0  0  0  0  0  0  0  0  0  0  0
  -22.5120   -4.3610   21.3960 F   0  0  0  0  0  0  0  0  0  0  0  0
  -21.4050   -3.9220   26.0210 F   0  0  0  0  0  0  0  0  0  0  0  0
  -22.9570  -13.6500   21.0410 C   0  0  0  0  0  0  0  0  0  0  0  0
  -22.2030  -12.9680   21.8950 N   0  0  0  0  0  0  0  0  0  0  0  0
  -22.5400  -14.6740   20.4990 O   0  0  0  0  0  0  0  0  0  0  0  0
  -22.5510  -12.1390   22.3540 H   0  0  0  0  0  0  0  0  0  0  0  0
  -21.2620  -13.2780   22.0930 H   0  0  0  0  0  0  0  0  0  0  0  0
  -25.6070  -15.2860   20.2530 N   0  0  0  0  0  0  0  0  0  0  0  0
  -24.8410  -15.9440   20.3400 H   0  0  0  0  0  0  0  0  0  0  0  0
  -26.4740  -15.7210   19.9680 H   0  0  0  0  0  0  0  0  0  0  0  0
  3  2  1  0
  3  1  1  0
  3  4  1  0
  5  4  1  0
  6 17  2  0
  7  5  1  0
  7 12  1  0
  8 16  1  0
  8 18  1  0
  9 15  1  0
  9 11  1  0
 10 16  1  0
 11 10  1  0
 12 11  2  0
 13  7  2  0
 14 13  1  0
 14  9  2  0
 15  8  1  0
 16  6  1  0
 18 20  2  0
 19 18  1  0
 21 19  1  0
 22 31  2  0
 22 27  1  0
 23 19  1  0
 23 27  1  0
 24 23  1  0
 25 26  1  0
 25 24  1  0
 26 22  1  0
 27 28  2  0
 28 29  1  0
 30 29  2  0
 31 30  1  0
 32  6  1  0
 32 33  1  0
 32 42  1  0
 33 36  1  0
 34 38  1  0
 34 33  1  0
 35 34  2  0
 38 37  1  0
 40 38  1  0
 40 41  1  0
 40 39  1  0
 42 45  1  1
 42 43  1  0
 44 42  1  0
 46 51  1  0
 46  1  2  0
 47 49  2  0
 47 51  1  0
 49 50  1  0
 50 48  2  0
 51 48  1  0
 54 52  1  6
 53 54  1  0
 54 49  1  0
 54 55  1  0
 55 61  1  0
 55 62  2  0
 56 61  1  0
 57 58  1  0
 57 56  1  0
 59 58  1  0
 59 66  1  0
 59 60  1  0
 61 60  1  0
 63 64  2  0
 64 65  1  0
 64 83  1  0
 65 68  1  0
 66 63  1  0
 66 67  1  0
 67 65  2  0
 68 69  1  0
 69 70  2  0
 71 74  1  0
 71 70  1  0
 72 71  2  0
 73 72  1  0
 73 68  2  0
 74 75  1  0
 75 76  1  0
 76 77  2  0
 78 77  1  0
 78 82  1  0
 79 78  2  0
 80 75  2  0
 80 79  1  0
 81 80  1  0
 83 84  1  0
 84 87  1  0
 84 86  1  0
 85 83  2  0
 88 89  1  0
 88 63  1  0
 90 88  1  0
M  ISO  4   4 101   5 101  54 100  55 100
M  END
>  <TORSDO>  (32) 
F 21

>  <SCORE>  (32) 
-12.883

>  <name>  (32) 
31

>  <ligand_id>  (32) 
31

>  <original_smiles>  (32) 
[H]c1c([H])c([H])c2c(c1[H])C([H])([H])C([H])([H])C([H])([H])C2([H])N([H])C(=O)C1([H])N(C(=O)C([H])(N([H])C(=O)C([H])(N([H])C([H])([H])[H])C([H])([H])[H])C(C([H])([H])[H])(C([H])([H])[H])C([H])([H])[H])C([H])([H])c2c([H])c(OC([H])([H])C([H])(C([H])([H])[H])C([H])([H])C([H])([H])n3c([H])nc(C(C(=O)N4C([H])([H])C([H])([H])C([H])([H])C([H])(n5nc(-c6c([H])c([H])c(Oc7c([H])c([H])c(F)c([H])c7F)c([H])c6[H])c(C(=O)N([H])[H])c5N([H])[H])C4([H])[H])(C([H])([H])[H])C([H])([H])[H])c3[H])c([H])c([H])c2C1([H])[H]

>  <smiles>  (32) 
[H]c1c([H])c([H])c2c(c1[H])C([H])([H])C([H])([H])C([H])([H])C2([H])N([H])C(=O)C1([H])N(C(=O)C([H])(N([H])C(=O)C([H])(N([H])C([H])([H])[H])C([H])([H])[H])C(C([H])([H])[H])(C([H])([H])[H])C([H])([H])[H])C([H])([H])c2c([H])c(OC([H])([H])C([H])(C([H])([H])[H])C([H])([H])C([H])([H])n3c([H])nc(C(C(=O)N4C([H])([H])C([H])([H])C([H])([H])C([H])(n5nc(-c6c([H])c([H])c(Oc7c([H])c([H])c(F)c([H])c7F)c([H])c6[H])c(C(=O)N([H])[H])c5N([H])[H])C4([H])[H])(C([H])([H])[H])C([H])([H])[H])c3[H])c([H])c([H])c2C1([H])[H]

$$$$
32:0:0
     RDKit          3D

 91 99  0  0  1  0  0  0  0  0999 V2000
  -28.8190  -20.4850   20.8870 C   0  0  0  0  0  3  0  0  0  0  0  0
  -31.1110  -19.7890   19.6740 C   0  0  0  0  0  3  0  0  0  0  0  0
  -29.4840  -21.4110   20.0330 C   0  0  0  0  0  0  0  0  0  0  0  0
  -30.4530  -18.8330   20.5150 C   0  0  0  0  0  0  0  0  0  0  0  0
  -30.6510  -21.0510   19.4460 N   0  0  0  0  0  0  0  0  0  0  0  0
  -29.3010  -19.2280   21.1360 N   0  0  0  0  0  0  0  0  0  0  0  0
  -31.4060  -17.3280   22.3580 C   0  0  0  0  0  1  0  0  0  0  0  0
  -32.4670  -17.3360   20.1850 C   0  0  0  0  0  1  0  0  0  0  0  0
  -31.0600  -17.3960   20.8430 C   0  0  2  0  0  0  0  0  0  0  0  0
  -28.9330  -16.0300   21.4340 C   0  0  0  0  0  1  0  0  0  0  0  0
  -30.0990  -16.1350   20.4300 C   0  0  0  0  0  3  0  0  0  0  0  0
  -30.7180  -14.6890   20.0550 C   0  0  0  0  0  0  0  0  0  0  0  0
  -30.4010  -12.4640   18.9840 C   0  0  0  0  0  2  0  0  0  0  0  0
  -29.4010  -12.5560   17.8120 C   0  0  0  0  0  2  0  0  0  0  0  0
  -27.9510  -12.3790   18.2960 C   0  0  0  0  0  2  0  0  0  0  0  0
  -27.6470  -13.2590   19.5360 C   0  0  0  0  0  3  0  0  0  0  0  0
  -28.7510  -13.0890   20.6030 C   0  0  0  0  0  2  0  0  0  0  0  0
  -30.0300  -13.4900   19.9910 N   0  0  0  0  0  0  0  0  0  0  0  0
  -31.8550  -14.6880   19.5870 O   0  0  0  0  0  0  0  0  0  0  0  0
  -25.2830  -13.8770   20.3320 C   0  0  0  0  0  0  0  0  0  0  0  0
  -24.2280  -13.1060   20.7480 C   0  0  0  0  0  0  0  0  0  0  0  0
  -24.6860  -11.7550   20.7060 C   0  0  0  0  0  0  0  0  0  0  0  0
  -26.3160  -12.9890   20.0710 N   0  0  0  0  0  0  0  0  0  0  0  0
  -25.9640  -11.7100   20.3530 N   0  0  0  0  0  0  0  0  0  0  0  0
  -23.9630  -10.4960   20.9260 C   0  0  0  0  0  0  0  0  0  0  0  0
  -24.4170   -9.5380   21.8570 C   0  0  0  0  0  3  0  0  0  0  0  0
  -23.6970   -8.3410   22.0600 C   0  0  0  0  0  3  0  0  0  0  0  0
  -22.5070   -8.0970   21.3350 C   0  0  0  0  0  0  0  0  0  0  0  0
  -22.0720   -9.0460   20.3920 C   0  0  0  0  0  3  0  0  0  0  0  0
  -22.7940  -10.2340   20.1870 C   0  0  0  0  0  3  0  0  0  0  0  0
  -21.7520   -6.9560   21.4530 O   0  0  0  0  0  0  0  0  0  0  0  0
  -21.7150   -6.2360   22.6210 C   0  0  0  0  0  0  0  0  0  0  0  0
  -21.3080   -6.8180   23.8410 C   0  0  0  0  0  3  0  0  0  0  0  0
  -21.2170   -6.0260   25.0030 C   0  0  0  0  0  3  0  0  0  0  0  0
  -21.5240   -4.6530   24.9450 C   0  0  0  0  0  0  0  0  0  0  0  0
  -21.9210   -4.0710   23.7290 C   0  0  0  0  0  3  0  0  0  0  0  0
  -22.0170   -4.8610   22.5710 C   0  0  0  0  0  0  0  0  0  0  0  0
  -22.3820   -4.2920   21.3970 F   0  0  0  0  0  0  0  0  0  0  0  0
  -21.4300   -3.8890   26.0590 F   0  0  0  0  0  0  0  0  0  0  0  0
  -22.8450  -13.5920   21.0700 C   0  0  0  0  0  0  0  0  0  0  0  0
  -22.1480  -12.9040   21.9680 N   0  0  0  0  0  0  0  0  0  0  0  0
  -22.3910  -14.6140   20.5610 O   0  0  0  0  0  0  0  0  0  0  0  0
  -22.5260  -12.0810   22.4130 H   0  0  0  0  0  0  0  0  0  0  0  0
  -21.2180  -13.2090   22.2180 H   0  0  0  0  0  0  0  0  0  0  0  0
  -25.4350  -15.2450   20.1380 N   0  0  0  0  0  0  0  0  0  0  0  0
  -24.6650  -15.8940   20.2710 H   0  0  0  0  0  0  0  0  0  0  0  0
  -26.2810  -15.7020   19.8250 H   0  0  0  0  0  0  0  0  0  0  0  0
  -28.8200  -22.7230   19.5280 C   0  0  0  0  0  2  0  0  0  0  0  0
  -29.1030  -24.1200   20.2100 C   0  0  0  0  0  2  0  0  0  0  0  0
  -28.0700  -25.2240   19.7490 C   0  0  0  0  0  2  0  0  0  0  0  0
  -28.1800  -26.6020   20.2440 O   0  0  0  0  0  0  0  0  0  0  0  0
  -24.4860  -31.9540   23.3390 C   0  0  0  0  0  0  0  0  0  0  0  0
  -27.0420  -27.4230   20.2100 C   0  0  0  0  0  0  0  0  0  0  0  0
  -23.2530  -30.5810   21.6970 C   0  0  0  0  0  3  0  0  0  0  0  0
  -24.6790  -29.0320   20.2540 C   0  0  0  0  0  0  0  0  0  0  0  0
  -25.7940  -30.8840   21.4940 C   0  0  0  0  0  2  0  0  0  0  0  0
  -25.8560  -29.5120   20.8380 C   0  0  0  0  0  0  0  0  0  0  0  0
  -27.0350  -28.7140   20.8160 C   0  0  0  0  0  3  0  0  0  0  0  0
  -25.8380  -26.9980   19.5950 C   0  0  0  0  0  3  0  0  0  0  0  0
  -24.6670  -27.7760   19.6320 C   0  0  0  0  0  3  0  0  0  0  0  0
  -23.4460  -29.9070   20.3150 C   0  0  0  0  0  2  0  0  0  0  0  0
  -24.5310  -31.1530   22.2350 N   0  0  0  0  0  0  0  0  0  0  0  0
  -23.4100  -32.2350   23.8890 O   0  0  0  0  0  0  0  0  0  0  0  0
  -22.5860  -29.5650   22.6530 C   0  0  0  0  0  0  0  0  0  0  0  0
  -21.2640  -29.3720   22.5140 N   0  0  0  0  0  0  0  0  0  0  0  0
  -23.2610  -28.9460   23.4810 O   0  0  0  0  0  0  0  0  0  0  0  0
  -20.7700  -29.9160   21.8170 H   0  0  0  0  0  0  0  0  0  0  0  0
  -17.9060  -28.1190   22.9580 C   0  0  0  0  0  0  0  0  0  0  0  0
  -20.4480  -28.4360   23.2910 C   0  0  0  0  0  3  0  0  0  0  0  0
  -20.5970  -26.9910   22.7580 C   0  0  0  0  0  2  0  0  0  0  0  0
  -19.5340  -26.6240   21.7210 C   0  0  0  0  0  2  0  0  0  0  0  0
  -18.1300  -26.7570   22.3220 C   0  0  0  0  0  2  0  0  0  0  0  0
  -18.9960  -28.9130   23.4010 C   0  0  0  0  0  0  0  0  0  0  0  0
  -18.7360  -30.1840   23.9550 C   0  0  0  0  0  3  0  0  0  0  0  0
  -17.4170  -30.6630   24.0740 C   0  0  0  0  0  3  0  0  0  0  0  0
  -16.3390  -29.8660   23.6500 C   0  0  0  0  0  3  0  0  0  0  0  0
  -16.5840  -28.5970   23.0950 C   0  0  0  0  0  3  0  0  0  0  0  0
  -25.7810  -32.5720   23.9480 C   0  0  0  0  0  3  0  0  0  0  0  0
  -25.4970  -33.9780   24.2690 N   0  0  0  0  0  0  0  0  0  0  0  0
  -25.8250  -35.0160   23.4900 C   0  0  0  0  0  0  0  0  0  0  0  0
  -26.4680  -34.8930   22.4440 O   0  0  0  0  0  0  0  0  0  0  0  0
  -24.9250  -34.1510   25.0830 H   0  0  0  0  0  0  0  0  0  0  0  0
  -24.1000  -36.8170   23.1750 C   0  0  0  0  0  1  0  0  0  0  0  0
  -25.3670  -36.4150   23.9450 C   0  0  0  0  0  3  0  0  0  0  0  0
  -27.5330  -37.2950   24.6850 C   0  0  0  0  0  1  0  0  0  0  0  0
  -26.4000  -37.4590   23.7780 N   0  0  0  0  0  0  0  0  0  0  0  0
  -26.0040  -38.3790   23.9410 H   0  0  0  0  0  0  0  0  0  0  0  0
  -26.2970  -31.8010   25.2240 C   0  0  1  0  0  0  0  0  0  0  0  0
  -25.2070  -31.5830   26.2970 C   0  0  0  0  0  1  0  0  0  0  0  0
  -26.8590  -30.4130   24.8400 C   0  0  0  0  0  1  0  0  0  0  0  0
  -27.4620  -32.5800   25.8790 C   0  0  0  0  0  1  0  0  0  0  0  0
  1  6  1  0
  2  4  1  0
  3  1  2  0
  4  9  1  0
  4  6  2  0
  5  2  2  0
  5  3  1  0
  9  8  1  6
  9  7  1  0
 11  9  1  0
 11 10  1  0
 12 11  1  0
 13 18  1  0
 14 15  1  0
 14 13  1  0
 16 15  1  0
 16 23  1  0
 16 17  1  0
 18 12  1  0
 18 17  1  0
 19 12  2  0
 20 21  2  0
 21 40  1  0
 22 21  1  0
 22 25  1  0
 23 20  1  0
 23 24  1  0
 24 22  2  0
 25 26  1  0
 26 27  2  0
 28 31  1  0
 28 27  1  0
 29 28  2  0
 30 29  1  0
 30 25  2  0
 31 32  1  0
 32 33  1  0
 33 34  2  0
 35 34  1  0
 35 39  1  0
 36 35  2  0
 37 32  2  0
 37 36  1  0
 38 37  1  0
 40 41  1  0
 41 44  1  0
 41 43  1  0
 42 40  2  0
 45 46  1  0
 45 20  1  0
 47 45  1  0
 48  3  1  0
 48 49  1  0
 50 49  1  0
 50 51  1  0
 52 63  2  0
 53 51  1  0
 53 58  1  0
 54 62  1  0
 54 64  1  0
 55 61  1  0
 55 57  1  0
 56 62  1  0
 57 56  1  0
 58 57  2  0
 59 60  1  0
 59 53  2  0
 60 55  2  0
 61 54  1  0
 62 52  1  0
 64 66  2  0
 65 64  1  0
 67 65  1  0
 68 77  2  0
 68 73  1  0
 69 65  1  0
 69 73  1  0
 70 69  1  0
 71 72  1  0
 71 70  1  0
 72 68  1  0
 73 74  2  0
 74 75  1  0
 76 75  2  0
 77 76  1  0
 78 52  1  0
 78 79  1  0
 78 88  1  0
 79 82  1  0
 80 84  1  0
 80 79  1  0
 81 80  2  0
 84 83  1  0
 86 87  1  0
 86 84  1  0
 86 85  1  0
 88 91  1  1
 88 89  1  0
 90 88  1  0
M  ISO  4  11 100  12 100  50 101  51 101
M  END
>  <TORSDO>  (33) 
F 21

>  <SCORE>  (33) 
-12.513

>  <name>  (33) 
32

>  <ligand_id>  (33) 
32

>  <original_smiles>  (33) 
[H]c1nc(C(C([H])([H])[H])(C([H])([H])[H])C([H])(C(=O)N2C([H])([H])C([H])([H])C([H])([H])C([H])(n3nc(-c4c([H])c([H])c(Oc5c([H])c([H])c(F)c([H])c5F)c([H])c4[H])c(C(=O)N([H])[H])c3N([H])[H])C2([H])[H])C([H])([H])[H])c([H])nc1C([H])([H])C([H])([H])C([H])([H])Oc1c([H])c([H])c2c(c1[H])C([H])([H])N(C(=O)C([H])(N([H])C(=O)C([H])(N([H])C([H])([H])[H])C([H])([H])[H])C(C([H])([H])[H])(C([H])([H])[H])C([H])([H])[H])C([H])(C(=O)N([H])C1([H])c3c([H])c([H])c([H])c([H])c3C([H])([H])C([H])([H])C1([H])[H])C2([H])[H]

>  <smiles>  (33) 
[H]c1nc(C(C([H])([H])[H])(C([H])([H])[H])C([H])(C(=O)N2C([H])([H])C([H])([H])C([H])([H])C([H])(n3nc(-c4c([H])c([H])c(Oc5c([H])c([H])c(F)c([H])c5F)c([H])c4[H])c(C(=O)N([H])[H])c3N([H])[H])C2([H])[H])C([H])([H])[H])c([H])nc1C([H])([H])C([H])([H])C([H])([H])Oc1c([H])c([H])c2c(c1[H])C([H])([H])N(C(=O)C([H])(N([H])C(=O)C([H])(N([H])C([H])([H])[H])C([H])([H])[H])C(C([H])([H])[H])(C([H])([H])[H])C([H])([H])[H])C([H])(C(=O)N([H])C1([H])c3c([H])c([H])c([H])c([H])c3C([H])([H])C([H])([H])C1([H])[H])C2([H])[H]

$$$$
33:0:0
     RDKit          3D

 92100  0  0  1  0  0  0  0  0999 V2000
  -32.7300  -18.9110   20.3280 C   0  0  0  0  0  2  0  0  0  0  0  0
  -30.5590  -19.4060   20.2770 C   0  0  0  0  0  2  0  0  0  0  0  0
  -32.6130  -20.1550   19.7600 C   0  0  0  0  0  0  0  0  0  0  0  0
  -31.2090  -20.4020   19.6040 C   0  0  0  0  0  0  0  0  0  0  0  0
  -33.7570  -21.0450   19.3200 C   0  0  0  0  0  1  0  0  0  0  0  0
  -31.4650  -18.4100   20.5930 N   0  0  0  0  0  0  0  0  0  0  0  0
  -30.5200  -21.4840   18.8060 C   0  0  0  0  0  2  0  0  0  0  0  0
  -30.2160  -22.7810   19.5690 C   0  0  0  0  0  2  0  0  0  0  0  0
  -30.3540  -24.0000   18.6330 C   0  0  0  0  0  2  0  0  0  0  0  0
  -30.0680  -25.3570   19.2870 C   0  0  0  0  0  2  0  0  0  0  0  0
  -28.5800  -25.6390   19.4980 C   0  0  0  0  0  2  0  0  0  0  0  0
  -28.4780  -26.8770   20.1790 O   0  0  0  0  0  0  0  0  0  0  0  0
  -24.5760  -31.9240   23.2560 C   0  0  0  0  0  0  0  0  0  0  0  0
  -27.2610  -27.5140   20.1920 C   0  0  0  0  0  0  0  0  0  0  0  0
  -23.3750  -30.5010   21.6260 C   0  0  0  0  0  3  0  0  0  0  0  0
  -24.8380  -28.9680   20.2140 C   0  0  0  0  0  0  0  0  0  0  0  0
  -25.8990  -30.8830   21.4210 C   0  0  0  0  0  2  0  0  0  0  0  0
  -25.9910  -29.5130   20.7930 C   0  0  0  0  0  0  0  0  0  0  0  0
  -27.2000  -28.7970   20.7720 C   0  0  0  0  0  3  0  0  0  0  0  0
  -26.0810  -26.9600   19.6360 C   0  0  0  0  0  3  0  0  0  0  0  0
  -24.8760  -27.6890   19.6390 C   0  0  0  0  0  3  0  0  0  0  0  0
  -23.5870  -29.8160   20.2550 C   0  0  0  0  0  2  0  0  0  0  0  0
  -24.6350  -31.1190   22.1580 N   0  0  0  0  0  0  0  0  0  0  0  0
  -23.4950  -32.1950   23.7970 O   0  0  0  0  0  0  0  0  0  0  0  0
  -22.7360  -29.4810   22.5970 C   0  0  0  0  0  0  0  0  0  0  0  0
  -21.4150  -29.2810   22.4620 N   0  0  0  0  0  0  0  0  0  0  0  0
  -23.4260  -28.8740   23.4200 O   0  0  0  0  0  0  0  0  0  0  0  0
  -20.9150  -29.8240   21.7720 H   0  0  0  0  0  0  0  0  0  0  0  0
  -18.0610  -28.0560   22.9430 C   0  0  0  0  0  0  0  0  0  0  0  0
  -20.6090  -28.3440   23.2410 C   0  0  0  0  0  3  0  0  0  0  0  0
  -20.7380  -26.9070   22.6840 C   0  0  0  0  0  2  0  0  0  0  0  0
  -19.6510  -26.5580   21.6620 C   0  0  0  0  0  2  0  0  0  0  0  0
  -18.2580  -26.6990   22.2880 C   0  0  0  0  0  2  0  0  0  0  0  0
  -19.1640  -28.8360   23.3750 C   0  0  0  0  0  0  0  0  0  0  0  0
  -18.9230  -30.1070   23.9390 C   0  0  0  0  0  3  0  0  0  0  0  0
  -17.6090  -30.5950   24.0830 C   0  0  0  0  0  3  0  0  0  0  0  0
  -16.5200  -29.8090   23.6700 C   0  0  0  0  0  3  0  0  0  0  0  0
  -16.7450  -28.5440   23.1020 C   0  0  0  0  0  3  0  0  0  0  0  0
  -25.8590  -32.5610   23.8750 C   0  0  0  0  0  3  0  0  0  0  0  0
  -25.5450  -33.9600   24.1900 N   0  0  0  0  0  0  0  0  0  0  0  0
  -25.8950  -35.0080   23.4320 C   0  0  0  0  0  0  0  0  0  0  0  0
  -26.5810  -34.8970   22.4120 O   0  0  0  0  0  0  0  0  0  0  0  0
  -24.9240  -34.1320   24.9670 H   0  0  0  0  0  0  0  0  0  0  0  0
  -24.1800  -36.8060   23.0360 C   0  0  0  0  0  1  0  0  0  0  0  0
  -25.4050  -36.4000   23.8730 C   0  0  0  0  0  3  0  0  0  0  0  0
  -27.5250  -37.2790   24.7450 C   0  0  0  0  0  1  0  0  0  0  0  0
  -26.4430  -37.4480   23.7800 N   0  0  0  0  0  0  0  0  0  0  0  0
  -26.0380  -38.3680   23.9180 H   0  0  0  0  0  0  0  0  0  0  0  0
  -26.3900  -31.7950   25.1470 C   0  0  1  0  0  0  0  0  0  0  0  0
  -25.3030  -31.5480   26.2210 C   0  0  0  0  0  1  0  0  0  0  0  0
  -26.9750  -30.4210   24.7480 C   0  0  0  0  0  1  0  0  0  0  0  0
  -27.5440  -32.5990   25.7930 C   0  0  0  0  0  1  0  0  0  0  0  0
  -31.1420  -17.0830   21.1370 C   0  0  0  0  0  2  0  0  0  0  0  0
  -28.8230  -16.3810   20.4060 C   0  0  0  0  0  1  0  0  0  0  0  0
  -30.6260  -16.4690   18.6720 C   0  0  0  0  0  1  0  0  0  0  0  0
  -30.3230  -16.1190   20.1710 C   0  0  1  0  0  0  0  0  0  0  0  0
  -30.7910  -14.6140   20.3470 C   0  0  0  0  0  0  0  0  0  0  0  0
  -30.3930  -12.3910   19.3900 C   0  0  0  0  0  2  0  0  0  0  0  0
  -29.4810  -12.5270   18.1560 C   0  0  0  0  0  2  0  0  0  0  0  0
  -28.0030  -12.3800   18.5640 C   0  0  0  0  0  2  0  0  0  0  0  0
  -27.6280  -13.2440   19.7940 C   0  0  0  0  0  3  0  0  0  0  0  0
  -28.7040  -13.1810   20.9080 C   0  0  0  0  0  2  0  0  0  0  0  0
  -30.0190  -13.4780   20.3130 N   0  0  0  0  0  0  0  0  0  0  0  0
  -32.0000  -14.5040   20.1760 O   0  0  0  0  0  0  0  0  0  0  0  0
  -25.2380  -13.8630   20.5050 C   0  0  0  0  0  0  0  0  0  0  0  0
  -24.1600  -13.1000   20.8620 C   0  0  0  0  0  0  0  0  0  0  0  0
  -24.6170  -11.7460   20.8440 C   0  0  0  0  0  0  0  0  0  0  0  0
  -26.2800  -12.9750   20.2840 N   0  0  0  0  0  0  0  0  0  0  0  0
  -25.9110  -11.6970   20.5500 N   0  0  0  0  0  0  0  0  0  0  0  0
  -23.8890  -10.4860   21.0340 C   0  0  0  0  0  0  0  0  0  0  0  0
  -24.3130   -9.5210   21.9760 C   0  0  0  0  0  3  0  0  0  0  0  0
  -23.5880   -8.3240   22.1500 C   0  0  0  0  0  3  0  0  0  0  0  0
  -22.4210   -8.0820   21.3850 C   0  0  0  0  0  0  0  0  0  0  0  0
  -22.0150   -9.0350   20.4350 C   0  0  0  0  0  3  0  0  0  0  0  0
  -22.7410  -10.2250   20.2580 C   0  0  0  0  0  3  0  0  0  0  0  0
  -21.6710   -6.9350   21.4670 O   0  0  0  0  0  0  0  0  0  0  0  0
  -21.6170   -6.1940   22.6210 C   0  0  0  0  0  0  0  0  0  0  0  0
  -21.1870   -6.7510   23.8450 C   0  0  0  0  0  3  0  0  0  0  0  0
  -21.0790   -5.9360   24.9900 C   0  0  0  0  0  3  0  0  0  0  0  0
  -21.3920   -4.5660   24.9100 C   0  0  0  0  0  0  0  0  0  0  0  0
  -21.8130   -4.0100   23.6900 C   0  0  0  0  0  3  0  0  0  0  0  0
  -21.9220   -4.8210   22.5480 C   0  0  0  0  0  0  0  0  0  0  0  0
  -22.3010   -4.2740   21.3680 F   0  0  0  0  0  0  0  0  0  0  0  0
  -21.2850   -3.7790   26.0060 F   0  0  0  0  0  0  0  0  0  0  0  0
  -22.7580  -13.5790   21.1140 C   0  0  0  0  0  0  0  0  0  0  0  0
  -22.0240  -12.8820   21.9710 N   0  0  0  0  0  0  0  0  0  0  0  0
  -22.3240  -14.6060   20.5900 O   0  0  0  0  0  0  0  0  0  0  0  0
  -22.3940  -12.0580   22.4220 H   0  0  0  0  0  0  0  0  0  0  0  0
  -21.0800  -13.1750   22.1820 H   0  0  0  0  0  0  0  0  0  0  0  0
  -25.4210  -15.2350   20.3200 N   0  0  0  0  0  0  0  0  0  0  0  0
  -24.6720  -15.9100   20.3710 H   0  0  0  0  0  0  0  0  0  0  0  0
  -26.2960  -15.6320   20.0090 H   0  0  0  0  0  0  0  0  0  0  0  0
  1  6  1  0
  2  6  1  0
  3  1  1  0
  4  3  2  0
  4  2  1  0
  5  3  1  0
  6 53  1  0
  7  8  1  0
  7  4  1  0
  9 10  1  0
  9  8  1  0
 10 11  1  0
 11 12  1  0
 12 14  1  0
 13 24  2  0
 14 19  1  0
 15 23  1  0
 15 25  1  0
 16 22  1  0
 16 18  1  0
 17 23  1  0
 18 17  1  0
 19 18  2  0
 20 21  1  0
 20 14  2  0
 21 16  2  0
 22 15  1  0
 23 13  1  0
 25 27  2  0
 26 25  1  0
 28 26  1  0
 29 38  2  0
 29 34  1  0
 30 26  1  0
 30 34  1  0
 31 30  1  0
 32 33  1  0
 32 31  1  0
 33 29  1  0
 34 35  2  0
 35 36  1  0
 37 36  2  0
 38 37  1  0
 39 13  1  0
 39 40  1  0
 39 49  1  0
 40 43  1  0
 41 45  1  0
 41 40  1  0
 42 41  2  0
 45 44  1  0
 47 45  1  0
 47 48  1  0
 47 46  1  0
 49 52  1  1
 49 50  1  0
 51 49  1  0
 56 55  1  6
 56 57  1  0
 56 54  1  0
 56 53  1  0
 58 63  1  0
 59 60  1  0
 59 58  1  0
 61 60  1  0
 61 68  1  0
 61 62  1  0
 63 57  1  0
 63 62  1  0
 64 57  2  0
 65 66  2  0
 66 85  1  0
 67 66  1  0
 67 70  1  0
 68 65  1  0
 68 69  1  0
 69 67  2  0
 70 71  1  0
 71 72  2  0
 73 76  1  0
 73 72  1  0
 74 73  2  0
 75 74  1  0
 75 70  2  0
 76 77  1  0
 77 78  1  0
 78 79  2  0
 80 79  1  0
 80 84  1  0
 81 80  2  0
 82 77  2  0
 82 81  1  0
 83 82  1  0
 85 86  1  0
 86 89  1  0
 86 88  1  0
 87 85  2  0
 90 91  1  0
 90 65  1  0
 92 90  1  0
M  ISO  4  11 101  12 101  56 100  57 100
M  END
>  <TORSDO>  (34) 
F 23

>  <SCORE>  (34) 
-12.759

>  <name>  (34) 
33

>  <ligand_id>  (34) 
33

>  <original_smiles>  (34) 
[H]c1c([H])c([H])c2c(c1[H])C([H])([H])C([H])([H])C([H])([H])C2([H])N([H])C(=O)C1([H])N(C(=O)C([H])(N([H])C(=O)C([H])(N([H])C([H])([H])[H])C([H])([H])[H])C(C([H])([H])[H])(C([H])([H])[H])C([H])([H])[H])C([H])([H])c2c([H])c(OC([H])([H])C([H])([H])C([H])([H])C([H])([H])C([H])([H])c3c(C([H])([H])[H])c([H])n(C([H])([H])C(C(=O)N4C([H])([H])C([H])([H])C([H])([H])C([H])(n5nc(-c6c([H])c([H])c(Oc7c([H])c([H])c(F)c([H])c7F)c([H])c6[H])c(C(=O)N([H])[H])c5N([H])[H])C4([H])[H])(C([H])([H])[H])C([H])([H])[H])c3[H])c([H])c([H])c2C1([H])[H]

>  <smiles>  (34) 
[H]c1c([H])c([H])c2c(c1[H])C([H])([H])C([H])([H])C([H])([H])C2([H])N([H])C(=O)C1([H])N(C(=O)C([H])(N([H])C(=O)C([H])(N([H])C([H])([H])[H])C([H])([H])[H])C(C([H])([H])[H])(C([H])([H])[H])C([H])([H])[H])C([H])([H])c2c([H])c(OC([H])([H])C([H])([H])C([H])([H])C([H])([H])C([H])([H])c3c(C([H])([H])[H])c([H])n(C([H])([H])C(C(=O)N4C([H])([H])C([H])([H])C([H])([H])C([H])(n5nc(-c6c([H])c([H])c(Oc7c([H])c([H])c(F)c([H])c7F)c([H])c6[H])c(C(=O)N([H])[H])c5N([H])[H])C4([H])[H])(C([H])([H])[H])C([H])([H])[H])c3[H])c([H])c([H])c2C1([H])[H]

$$$$
34:0:0
     RDKit          3D

 94102  0  0  1  0  0  0  0  0999 V2000
  -29.3520  -21.0860   18.8750 C   0  0  0  0  0  0  0  0  0  0  0  0
  -29.8710  -20.2130   19.8640 C   0  0  0  0  0  0  0  0  0  0  0  0
  -30.0760  -22.0120   21.3310 C   0  0  0  0  0  0  0  0  0  0  0  0
  -29.5910  -22.8920   20.3210 C   0  0  0  0  0  0  0  0  0  0  0  0
  -28.9150  -20.5990   17.5060 C   0  0  0  0  0  1  0  0  0  0  0  0
  -29.2260  -22.4170   19.1010 N   0  0  0  0  0  0  0  0  0  0  0  0
  -30.1900  -20.6780   21.0960 N   0  0  0  0  0  0  0  0  0  0  0  0
  -31.2740  -21.4440   23.5400 C   0  0  0  0  0  1  0  0  0  0  0  0
  -30.4540  -22.4720   22.7400 C   0  0  0  0  0  2  0  0  0  0  0  0
  -30.2510  -18.7540   19.5950 C   0  0  0  0  0  2  0  0  0  0  0  0
  -29.5450  -17.6930   20.4860 C   0  0  0  0  0  2  0  0  0  0  0  0
  -30.4820  -16.5400   20.9380 C   0  0  0  0  0  2  0  0  0  0  0  0
  -30.5250  -14.1210   20.3520 C   0  0  0  0  0  0  0  0  0  0  0  0
  -30.1950  -11.9300   19.2810 C   0  0  0  0  0  2  0  0  0  0  0  0
  -29.2240  -12.0790   18.0940 C   0  0  0  0  0  2  0  0  0  0  0  0
  -27.7700  -11.9130   18.5730 C   0  0  0  0  0  2  0  0  0  0  0  0
  -27.4440  -12.7800   19.8200 C   0  0  0  0  0  3  0  0  0  0  0  0
  -28.5370  -12.6480   20.9040 C   0  0  0  0  0  2  0  0  0  0  0  0
  -29.8340  -12.9520   20.2780 N   0  0  0  0  0  0  0  0  0  0  0  0
  -31.6390  -14.2560   19.8450 O   0  0  0  0  0  0  0  0  0  0  0  0
  -29.8890  -15.1850   20.8800 N   0  0  0  0  0  0  0  0  0  0  0  0
  -28.9660  -15.0470   21.2660 H   0  0  0  0  0  0  0  0  0  0  0  0
  -25.0580  -13.3300   20.6030 C   0  0  0  0  0  0  0  0  0  0  0  0
  -24.0200  -12.5330   21.0040 C   0  0  0  0  0  0  0  0  0  0  0  0
  -24.5120  -11.1930   20.9630 C   0  0  0  0  0  0  0  0  0  0  0  0
  -26.1160  -12.4730   20.3440 N   0  0  0  0  0  0  0  0  0  0  0  0
  -25.7910  -11.1830   20.6150 N   0  0  0  0  0  0  0  0  0  0  0  0
  -23.8200   -9.9140   21.1760 C   0  0  0  0  0  0  0  0  0  0  0  0
  -24.2580   -8.9910   22.1520 C   0  0  0  0  0  3  0  0  0  0  0  0
  -23.5650   -7.7770   22.3490 C   0  0  0  0  0  3  0  0  0  0  0  0
  -22.4220   -7.4770   21.5710 C   0  0  0  0  0  0  0  0  0  0  0  0
  -22.0060   -8.3870   20.5830 C   0  0  0  0  0  3  0  0  0  0  0  0
  -22.7000   -9.5930   20.3840 C   0  0  0  0  0  3  0  0  0  0  0  0
  -21.7010   -6.3110   21.6750 O   0  0  0  0  0  0  0  0  0  0  0  0
  -21.6330   -5.6140   22.8540 C   0  0  0  0  0  0  0  0  0  0  0  0
  -21.0520   -6.1680   24.0160 C   0  0  0  0  0  3  0  0  0  0  0  0
  -20.9370   -5.3890   25.1840 C   0  0  0  0  0  3  0  0  0  0  0  0
  -21.3950   -4.0570   25.1910 C   0  0  0  0  0  0  0  0  0  0  0  0
  -21.9710   -3.5040   24.0330 C   0  0  0  0  0  3  0  0  0  0  0  0
  -22.0850   -4.2800   22.8680 C   0  0  0  0  0  0  0  0  0  0  0  0
  -22.6210   -3.7340   21.7490 F   0  0  0  0  0  0  0  0  0  0  0  0
  -21.2790   -3.3070   26.3120 F   0  0  0  0  0  0  0  0  0  0  0  0
  -22.6220  -12.9760   21.3180 C   0  0  0  0  0  0  0  0  0  0  0  0
  -21.9320  -12.2500   22.1910 N   0  0  0  0  0  0  0  0  0  0  0  0
  -22.1480  -14.0010   20.8280 O   0  0  0  0  0  0  0  0  0  0  0  0
  -22.3310  -11.4200   22.6050 H   0  0  0  0  0  0  0  0  0  0  0  0
  -20.9940  -12.5260   22.4480 H   0  0  0  0  0  0  0  0  0  0  0  0
  -25.1840  -14.7040   20.4160 N   0  0  0  0  0  0  0  0  0  0  0  0
  -24.4030  -15.3390   20.5330 H   0  0  0  0  0  0  0  0  0  0  0  0
  -26.0110  -15.1590   20.0520 H   0  0  0  0  0  0  0  0  0  0  0  0
  -29.4880  -24.4140   20.4900 C   0  0  0  0  0  2  0  0  0  0  0  0
  -27.2310  -24.5590   21.7030 C   0  0  0  0  0  1  0  0  0  0  0  0
  -28.0540  -24.9780   20.4660 C   0  0  0  0  0  3  0  0  0  0  0  0
  -28.1740  -26.4090   20.4020 O   0  0  0  0  0  0  0  0  0  0  0  0
  -24.5340  -31.8380   23.1750 C   0  0  0  0  0  0  0  0  0  0  0  0
  -27.0230  -27.1660   20.3260 C   0  0  0  0  0  0  0  0  0  0  0  0
  -23.2860  -30.4030   21.5960 C   0  0  0  0  0  3  0  0  0  0  0  0
  -24.6870  -28.7560   20.2510 C   0  0  0  0  0  0  0  0  0  0  0  0
  -25.8230  -30.6650   21.3960 C   0  0  0  0  0  2  0  0  0  0  0  0
  -25.8630  -29.2670   20.8140 C   0  0  0  0  0  0  0  0  0  0  0  0
  -27.0360  -28.4800   20.8400 C   0  0  0  0  0  3  0  0  0  0  0  0
  -25.8300  -26.6710   19.7510 C   0  0  0  0  0  3  0  0  0  0  0  0
  -24.6660  -27.4600   19.7110 C   0  0  0  0  0  3  0  0  0  0  0  0
  -23.4740  -29.6560   20.2510 C   0  0  0  0  0  2  0  0  0  0  0  0
  -24.5660  -30.9840   22.1150 N   0  0  0  0  0  0  0  0  0  0  0  0
  -23.4610  -32.1760   23.6940 O   0  0  0  0  0  0  0  0  0  0  0  0
  -22.5960  -29.4510   22.5990 C   0  0  0  0  0  0  0  0  0  0  0  0
  -21.2660  -29.3050   22.4660 N   0  0  0  0  0  0  0  0  0  0  0  0
  -23.2490  -28.8450   23.4520 O   0  0  0  0  0  0  0  0  0  0  0  0
  -20.8010  -29.8430   21.7500 H   0  0  0  0  0  0  0  0  0  0  0  0
  -17.8430  -28.3020   23.0240 C   0  0  0  0  0  0  0  0  0  0  0  0
  -20.4110  -28.4360   23.2750 C   0  0  0  0  0  3  0  0  0  0  0  0
  -20.4370  -26.9820   22.7480 C   0  0  0  0  0  2  0  0  0  0  0  0
  -19.3120  -26.6830   21.7500 C   0  0  0  0  0  2  0  0  0  0  0  0
  -17.9450  -26.9220   22.3970 C   0  0  0  0  0  2  0  0  0  0  0  0
  -19.0010  -29.0190   23.4210 C   0  0  0  0  0  0  0  0  0  0  0  0
  -18.8510  -30.3130   23.9660 C   0  0  0  0  0  3  0  0  0  0  0  0
  -17.5760  -30.8860   24.1240 C   0  0  0  0  0  3  0  0  0  0  0  0
  -16.4310  -30.1640   23.7440 C   0  0  0  0  0  3  0  0  0  0  0  0
  -16.5660  -28.8750   23.1990 C   0  0  0  0  0  3  0  0  0  0  0  0
  -25.8400  -32.4510   23.7710 C   0  0  0  0  0  3  0  0  0  0  0  0
  -25.5440  -33.8380   24.1510 N   0  0  0  0  0  0  0  0  0  0  0  0
  -25.8330  -34.9100   23.4030 C   0  0  0  0  0  0  0  0  0  0  0  0
  -26.4490  -34.8370   22.3370 O   0  0  0  0  0  0  0  0  0  0  0  0
  -24.9950  -33.9710   24.9870 H   0  0  0  0  0  0  0  0  0  0  0  0
  -24.0750  -36.6950   23.1880 C   0  0  0  0  0  1  0  0  0  0  0  0
  -25.3630  -36.2840   23.9200 C   0  0  0  0  0  3  0  0  0  0  0  0
  -27.5250  -37.1750   24.6670 C   0  0  0  0  0  1  0  0  0  0  0  0
  -26.3810  -37.3470   23.7760 N   0  0  0  0  0  0  0  0  0  0  0  0
  -25.9760  -38.2620   23.9570 H   0  0  0  0  0  0  0  0  0  0  0  0
  -26.4040  -31.6420   25.0010 C   0  0  1  0  0  0  0  0  0  0  0  0
  -25.3410  -31.3350   26.0810 C   0  0  0  0  0  1  0  0  0  0  0  0
  -27.0070  -30.2980   24.5350 C   0  0  0  0  0  1  0  0  0  0  0  0
  -27.5550  -32.4340   25.6670 C   0  0  0  0  0  1  0  0  0  0  0  0
  1  6  2  0
  1  2  1  0
  2  7  2  0
  3  9  1  0
  4 51  1  0
  4  3  2  0
  5  1  1  0
  6  4  1  0
  7  3  1  0
  9  8  1  0
 10  2  1  0
 10 11  1  0
 11 12  1  0
 13 21  1  0
 14 19  1  0
 15 16  1  0
 15 14  1  0
 17 16  1  0
 17 26  1  0
 17 18  1  0
 19 13  1  0
 19 18  1  0
 20 13  2  0
 21 12  1  0
 21 22  1  0
 23 24  2  0
 24 43  1  0
 25 24  1  0
 25 28  1  0
 26 23  1  0
 26 27  1  0
 27 25  2  0
 28 29  1  0
 29 30  2  0
 31 34  1  0
 31 30  1  0
 32 31  2  0
 33 32  1  0
 33 28  2  0
 34 35  1  0
 35 40  2  0
 35 36  1  0
 36 37  2  0
 37 38  1  0
 38 42  1  0
 39 38  2  0
 40 39  1  0
 41 40  1  0
 43 44  1  0
 44 47  1  0
 44 46  1  0
 45 43  2  0
 48 49  1  0
 48 23  1  0
 50 48  1  0
 53 51  1  0
 53 52  1  0
 54 53  1  0
 55 66  2  0
 56 54  1  0
 56 61  1  0
 57 65  1  0
 57 67  1  0
 58 64  1  0
 58 60  1  0
 59 65  1  0
 60 61  2  0
 60 59  1  0
 62 56  2  0
 63 62  1  0
 63 58  2  0
 64 57  1  0
 65 55  1  0
 67 69  2  0
 68 67  1  0
 70 68  1  0
 71 80  2  0
 71 76  1  0
 72 68  1  0
 72 76  1  0
 73 72  1  0
 74 75  1  0
 74 73  1  0
 75 71  1  0
 76 77  2  0
 77 78  1  0
 79 78  2  0
 80 79  1  0
 81 55  1  0
 81 82  1  0
 81 91  1  0
 82 85  1  0
 83 87  1  0
 83 82  1  0
 84 83  2  0
 87 86  1  0
 89 87  1  0
 89 90  1  0
 89 88  1  0
 91 94  1  1
 91 92  1  0
 93 91  1  0
M  ISO  4  13 100  21 100  53 101  54 101
M  END
>  <TORSDO>  (35) 
F 22

>  <SCORE>  (35) 
-12.673

>  <name>  (35) 
34

>  <ligand_id>  (35) 
34

>  <original_smiles>  (35) 
[H]c1c([H])c([H])c2c(c1[H])C([H])([H])C([H])([H])C([H])([H])C2([H])N([H])C(=O)C1([H])N(C(=O)C([H])(N([H])C(=O)C([H])(N([H])C([H])([H])[H])C([H])([H])[H])C(C([H])([H])[H])(C([H])([H])[H])C([H])([H])[H])C([H])([H])c2c([H])c(OC([H])(C([H])([H])[H])C([H])([H])c3nc(C([H])([H])[H])c(C([H])([H])C([H])([H])C([H])([H])N([H])C(=O)N4C([H])([H])C([H])([H])C([H])([H])C([H])(n5nc(-c6c([H])c([H])c(Oc7c([H])c([H])c(F)c([H])c7F)c([H])c6[H])c(C(=O)N([H])[H])c5N([H])[H])C4([H])[H])nc3C([H])([H])C([H])([H])[H])c([H])c([H])c2C1([H])[H]

>  <smiles>  (35) 
[H]c1c([H])c([H])c2c(c1[H])C([H])([H])C([H])([H])C([H])([H])C2([H])N([H])C(=O)C1([H])N(C(=O)C([H])(N([H])C(=O)C([H])(N([H])C([H])([H])[H])C([H])([H])[H])C(C([H])([H])[H])(C([H])([H])[H])C([H])([H])[H])C([H])([H])c2c([H])c(OC([H])(C([H])([H])[H])C([H])([H])c3nc(C([H])([H])[H])c(C([H])([H])C([H])([H])C([H])([H])N([H])C(=O)N4C([H])([H])C([H])([H])C([H])([H])C([H])(n5nc(-c6c([H])c([H])c(Oc7c([H])c([H])c(F)c([H])c7F)c([H])c6[H])c(C(=O)N([H])[H])c5N([H])[H])C4([H])[H])nc3C([H])([H])C([H])([H])[H])c([H])c([H])c2C1([H])[H]

$$$$
35:0:0
     RDKit          3D

 93103  0  0  1  0  0  0  0  0999 V2000
  -26.9150  -14.4740   21.5990 C   0  0  1  0  0  0  0  0  0  0  0  0
  -28.2970  -14.8540   20.3080 C   0  0  0  0  0  3  0  0  0  0  0  0
  -24.9600  -16.3330   19.8480 C   0  0  0  0  0  3  0  0  0  0  0  0
  -26.3770  -16.7410   18.6400 C   0  0  0  0  0  3  0  0  0  0  0  0
  -25.2510  -15.2460   21.3380 N   0  0  0  0  0  0  0  0  0  0  0  0
  -27.9040  -15.8560   18.8560 N   0  0  0  0  0  2  0  0  0  0  0  0
  -22.5430  -16.8200   20.6760 C   0  0  0  0  0  1  0  0  0  0  0  0
  -23.8070  -17.3350   19.9720 C   0  0  0  0  0  2  0  0  0  0  0  0
  -29.8160  -14.9940   20.5320 C   0  0  0  0  0  2  0  0  0  0  0  0
  -31.6950  -13.1640   22.3060 C   0  0  0  0  0  1  0  0  0  0  0  0
  -31.0070  -15.2330   22.4100 C   0  0  0  0  0  1  0  0  0  0  0  0
  -30.4850  -13.9500   21.5940 C   0  0  1  0  0  0  0  0  0  0  0  0
  -31.0350  -13.2140   20.2810 C   0  0  0  0  0  0  0  0  0  0  0  0
  -30.7480  -11.1370   18.9200 C   0  0  0  0  0  2  0  0  0  0  0  0
  -29.7230  -11.2250   17.7630 C   0  0  0  0  0  2  0  0  0  0  0  0
  -28.2400  -11.1380   18.2250 C   0  0  0  0  0  2  0  0  0  0  0  0
  -28.0160  -12.1460   19.3580 C   0  0  0  0  0  3  0  0  0  0  0  0
  -29.0280  -11.7530   20.4890 C   0  0  0  0  0  2  0  0  0  0  0  0
  -30.3730  -12.0660   19.9850 N   0  0  0  0  0  0  0  0  0  0  0  0
  -31.9940  -13.6220   19.5900 O   0  0  0  0  0  0  0  0  0  0  0  0
  -25.8360  -13.6350   20.3340 C   0  0  0  0  0  3  0  0  0  0  0  0
  -24.6830  -12.6420   20.5220 C   0  0  0  0  0  0  0  0  0  0  0  0
  -24.9800  -11.1930   20.5660 C   0  0  0  0  0  0  0  0  0  0  0  0
  -26.6250  -12.3790   19.8680 N   0  0  0  0  0  0  0  0  0  0  0  0
  -26.1930  -11.1030   20.1820 N   0  0  0  0  0  2  0  0  0  0  0  0
  -24.2020   -9.8680   20.8590 C   0  0  0  0  0  0  0  0  0  0  0  0
  -24.6150   -8.8750   21.8080 C   0  0  0  0  0  3  0  0  0  0  0  0
  -23.8620   -7.6860   22.0760 C   0  0  0  0  0  3  0  0  0  0  0  0
  -22.6500   -7.4240   21.3880 C   0  0  0  0  0  0  0  0  0  0  0  0
  -22.2510   -8.3710   20.4210 C   0  0  0  0  0  3  0  0  0  0  0  0
  -23.0010   -9.5490   20.1710 C   0  0  0  0  0  3  0  0  0  0  0  0
  -21.8570   -6.2960   21.5400 O   0  0  0  0  0  0  0  0  0  0  0  0
  -21.7090   -5.6190   22.7320 C   0  0  0  0  0  0  0  0  0  0  0  0
  -21.2900   -6.2670   23.9160 C   0  0  0  0  0  3  0  0  0  0  0  0
  -21.1080   -5.5290   25.1060 C   0  0  0  0  0  3  0  0  0  0  0  0
  -21.3200   -4.1360   25.1140 C   0  0  0  0  0  0  0  0  0  0  0  0
  -21.7120   -3.4830   23.9340 C   0  0  0  0  0  3  0  0  0  0  0  0
  -21.8990   -4.2190   22.7500 C   0  0  0  0  0  0  0  0  0  0  0  0
  -22.2540   -3.5730   21.6140 F   0  0  0  0  0  0  0  0  0  0  0  0
  -21.1500   -3.4250   26.2540 F   0  0  0  0  0  0  0  0  0  0  0  0
  -23.2170  -12.9030   20.8160 C   0  0  0  0  0  0  0  0  0  0  0  0
  -22.6460  -12.3580   21.8950 N   0  0  0  0  0  0  0  0  0  0  0  0
  -22.5570  -13.6160   20.0730 O   0  0  0  0  0  0  0  0  0  0  0  0
  -23.1790  -11.7800   22.5280 H   0  0  0  0  0  0  0  0  0  0  0  0
  -21.6810  -12.5570   22.1050 H   0  0  0  0  0  0  0  0  0  0  0  0
  -26.6540  -15.9000   21.5240 N   0  0  0  0  0  4  0  0  0  0  0  0
  -27.1990  -16.3090   20.7650 H   0  0  0  0  0  0  0  0  0  0  0  0
  -25.8970  -16.4920   21.8400 H   0  0  0  0  0  0  0  0  0  0  0  0
  -26.6700  -18.5630   18.5790 C   0  0  0  0  0  2  0  0  0  0  0  0
  -27.9870  -19.9200   18.6830 C   0  0  0  0  0  3  0  0  0  0  0  0
  -28.2460  -21.6060   19.5320 C   0  0  0  0  0  3  0  0  0  0  0  0
  -29.3120  -23.1660   19.3550 C   0  0  0  0  0  2  0  0  0  0  0  0
  -30.0190  -24.5290   20.1760 O   0  0  0  0  0  0  0  0  0  0  0  0
  -27.3060  -30.0860   24.6190 C   0  0  0  0  0  0  0  0  0  0  0  0
  -29.5420  -25.9340   20.4200 C   0  0  0  0  0  0  0  0  0  0  0  0
  -26.3210  -29.5220   22.4550 C   0  0  0  0  0  3  0  0  0  0  0  0
  -27.8030  -28.2750   20.7620 C   0  0  0  0  0  0  0  0  0  0  0  0
  -28.8680  -29.2380   22.7770 C   0  0  0  0  0  2  0  0  0  0  0  0
  -28.8650  -28.1370   21.6610 C   0  0  0  0  0  0  0  0  0  0  0  0
  -29.7570  -26.9740   21.4820 C   0  0  0  0  0  3  0  0  0  0  0  0
  -28.5700  -26.3150   19.5050 C   0  0  0  0  0  3  0  0  0  0  0  0
  -27.7030  -27.4020   19.6780 C   0  0  0  0  0  3  0  0  0  0  0  0
  -26.7460  -29.3470   20.9780 C   0  0  0  0  0  2  0  0  0  0  0  0
  -27.5190  -29.6270   23.3440 N   0  0  0  0  0  0  0  0  0  0  0  0
  -26.1690  -30.3800   25.0280 O   0  0  0  0  0  0  0  0  0  0  0  0
  -25.3570  -28.3800   22.8750 C   0  0  0  0  0  0  0  0  0  0  0  0
  -24.0710  -28.4760   22.4890 N   0  0  0  0  0  0  0  0  0  0  0  0
  -25.7730  -27.4240   23.5340 O   0  0  0  0  0  0  0  0  0  0  0  0
  -23.7910  -29.2940   21.9650 H   0  0  0  0  0  0  0  0  0  0  0  0
  -20.5650  -27.7010   21.9780 C   0  0  0  0  0  0  0  0  0  0  0  0
  -23.0230  -27.4830   22.7520 C   0  0  0  0  0  3  0  0  0  0  0  0
  -23.1170  -26.2950   21.7660 C   0  0  0  0  0  2  0  0  0  0  0  0
  -22.2330  -26.4700   20.5280 C   0  0  0  0  0  2  0  0  0  0  0  0
  -20.7630  -26.6160   20.9330 C   0  0  0  0  0  2  0  0  0  0  0  0
  -21.6280  -28.1200   22.8220 C   0  0  0  0  0  0  0  0  0  0  0  0
  -21.3930  -29.1530   23.7540 C   0  0  0  0  0  3  0  0  0  0  0  0
  -20.1280  -29.7650   23.8490 C   0  0  0  0  0  3  0  0  0  0  0  0
  -19.0780  -29.3380   23.0170 C   0  0  0  0  0  3  0  0  0  0  0  0
  -19.2950  -28.3060   22.0880 C   0  0  0  0  0  3  0  0  0  0  0  0
  -28.4780  -30.2800   25.6240 C   0  0  0  0  0  3  0  0  0  0  0  0
  -28.1910  -31.4860   26.4230 N   0  0  0  0  0  0  0  0  0  0  0  0
  -28.7670  -32.6840   26.2510 C   0  0  0  0  0  0  0  0  0  0  0  0
  -29.6570  -32.8770   25.4200 O   0  0  0  0  0  0  0  0  0  0  0  0
  -27.4270  -31.4160   27.0800 H   0  0  0  0  0  0  0  0  0  0  0  0
  -27.3290  -34.7510   26.3400 C   0  0  0  0  0  1  0  0  0  0  0  0
  -28.2840  -33.8500   27.1390 C   0  0  0  0  0  3  0  0  0  0  0  0
  -30.1920  -33.9600   28.6820 C   0  0  0  0  0  1  0  0  0  0  0  0
  -29.3870  -34.6670   27.6910 N   0  0  0  0  0  0  0  0  0  0  0  0
  -29.0260  -35.5140   28.1210 H   0  0  0  0  0  0  0  0  0  0  0  0
  -28.6840  -29.0390   26.5800 C   0  0  1  0  0  0  0  0  0  0  0  0
  -27.3950  -28.5890   27.3070 C   0  0  0  0  0  1  0  0  0  0  0  0
  -29.2270  -27.8170   25.8040 C   0  0  0  0  0  1  0  0  0  0  0  0
  -29.7460  -29.3820   27.6500 C   0  0  0  0  0  1  0  0  0  0  0  0
  1 46  1  1
  2  9  1  0
  2  1  1  0
  3  8  1  0
  3  5  1  0
  4 49  1  0
  4  6  1  0
  4  3  1  0
  5 46  1  0
  5  1  1  0
  6  2  1  0
  8  7  1  0
  9 12  1  0
 12 10  1  6
 12 11  1  0
 13 12  1  0
 14 19  1  0
 15 16  1  0
 15 14  1  0
 17 16  1  0
 17 24  1  0
 17 18  1  0
 19 13  1  0
 19 18  1  0
 20 13  2  0
 21 22  1  0
 21  1  1  0
 22 23  2  0
 22 41  1  0
 23 26  1  0
 24 25  1  0
 24 21  1  0
 25 23  1  0
 26 27  1  0
 27 28  2  0
 29 32  1  0
 29 28  1  0
 30 29  2  0
 31 30  1  0
 31 26  2  0
 32 33  1  0
 33 38  2  0
 33 34  1  0
 34 35  2  0
 35 36  1  0
 36 40  1  0
 37 36  2  0
 38 37  1  0
 39 38  1  0
 41 42  1  0
 42 45  1  0
 42 44  1  0
 43 41  2  0
 46 48  1  0
 47 46  1  0
 49 50  1  0
 50 51  2  0
 52 51  1  0
 52 53  1  0
 53 55  1  0
 54 65  2  0
 55 60  1  0
 56 66  1  0
 56 64  1  0
 57 63  1  0
 57 59  1  0
 58 64  1  0
 59 58  1  0
 60 59  2  0
 61 62  1  0
 61 55  2  0
 62 57  2  0
 63 56  1  0
 64 54  1  0
 66 68  2  0
 67 66  1  0
 69 67  1  0
 70 79  2  0
 70 75  1  0
 71 67  1  0
 71 75  1  0
 72 71  1  0
 73 74  1  0
 73 72  1  0
 74 70  1  0
 75 76  2  0
 76 77  1  0
 78 77  2  0
 79 78  1  0
 80 54  1  0
 80 81  1  0
 80 90  1  0
 81 84  1  0
 82 81  1  0
 82 86  1  0
 83 82  2  0
 86 85  1  0
 86 88  1  0
 88 89  1  0
 88 87  1  0
 90 91  1  1
 90 93  1  0
 92 90  1  0
M  ISO  4  12 100  13 100  52 101  53 101
M  END
>  <TORSDO>  (36) 
F 23

>  <SCORE>  (36) 
1.764

>  <name>  (36) 
35

>  <ligand_id>  (36) 
35

>  <original_smiles>  (36) 
[H]c1nc(C([H])([H])C([H])([H])[H])c(C([H])([H])C([H])([H])C([H])([H])C([H])([H])Oc2c([H])c([H])c3c(c2[H])C([H])([H])N(C(=O)C([H])(N([H])C(=O)C([H])(N([H])C([H])([H])[H])C([H])([H])[H])C(C([H])([H])[H])(C([H])([H])[H])C([H])([H])[H])C([H])(C(=O)N([H])C2([H])c4c([H])c([H])c([H])c([H])c4C([H])([H])C([H])([H])C2([H])[H])C3([H])[H])nc1C([H])([H])C(C(=O)N1C([H])([H])C([H])([H])C([H])([H])C([H])(n2nc(-c3c([H])c([H])c(Oc4c([H])c([H])c(F)c([H])c4F)c([H])c3[H])c(C(=O)N([H])[H])c2N([H])[H])C1([H])[H])(C([H])([H])[H])C([H])([H])[H]

>  <smiles>  (36) 
[H]c1nc(C([H])([H])C([H])([H])[H])c(C([H])([H])C([H])([H])C([H])([H])C([H])([H])Oc2c([H])c([H])c3c(c2[H])C([H])([H])N(C(=O)C([H])(N([H])C(=O)C([H])(N([H])C([H])([H])[H])C([H])([H])[H])C(C([H])([H])[H])(C([H])([H])[H])C([H])([H])[H])C([H])(C(=O)N([H])C2([H])c4c([H])c([H])c([H])c([H])c4C([H])([H])C([H])([H])C2([H])[H])C3([H])[H])nc1C([H])([H])C(C(=O)N1C([H])([H])C([H])([H])C([H])([H])C([H])(n2nc(-c3c([H])c([H])c(Oc4c([H])c([H])c(F)c([H])c4F)c([H])c3[H])c(C(=O)N([H])[H])c2N([H])[H])C1([H])[H])(C([H])([H])[H])C([H])([H])[H]

$$$$
36:0:0
     RDKit          3D

 92100  0  0  1  0  0  0  0  0999 V2000
  -29.0760  -20.7620   19.4960 C   0  0  0  0  0  3  0  0  0  0  0  0
  -26.5730  -21.3220   19.8140 C   0  0  0  0  0  1  0  0  0  0  0  0
  -27.7580  -20.4400   20.2360 C   0  0  0  0  0  2  0  0  0  0  0  0
  -29.3460  -22.3070   19.3040 C   0  0  0  0  0  2  0  0  0  0  0  0
  -29.4410  -23.2280   20.5560 C   0  0  0  0  0  2  0  0  0  0  0  0
  -28.7110  -24.6190   20.4960 C   0  0  0  0  0  2  0  0  0  0  0  0
  -29.2740  -25.7200   19.5480 C   0  0  0  0  0  2  0  0  0  0  0  0
  -29.0360  -27.0840   19.9850 O   0  0  0  0  0  0  0  0  0  0  0  0
  -24.5410  -31.6390   23.1280 C   0  0  0  0  0  0  0  0  0  0  0  0
  -27.7830  -27.6780   19.9260 C   0  0  0  0  0  0  0  0  0  0  0  0
  -23.5750  -30.2560   21.3200 C   0  0  0  0  0  3  0  0  0  0  0  0
  -25.2520  -28.9690   19.8860 C   0  0  0  0  0  0  0  0  0  0  0  0
  -26.0630  -30.8590   21.3090 C   0  0  0  0  0  2  0  0  0  0  0  0
  -26.3190  -29.5520   20.5800 C   0  0  0  0  0  0  0  0  0  0  0  0
  -27.5830  -28.9150   20.5930 C   0  0  0  0  0  3  0  0  0  0  0  0
  -26.6930  -27.1130   19.2270 C   0  0  0  0  0  3  0  0  0  0  0  0
  -25.4360  -27.7520   19.2050 C   0  0  0  0  0  3  0  0  0  0  0  0
  -23.9290  -29.7030   19.9130 C   0  0  0  0  0  2  0  0  0  0  0  0
  -24.7400  -30.9320   21.9790 N   0  0  0  0  0  0  0  0  0  0  0  0
  -23.4100  -31.7660   23.6180 O   0  0  0  0  0  0  0  0  0  0  0  0
  -22.9750  -29.1110   22.1670 C   0  0  0  0  0  0  0  0  0  0  0  0
  -21.6820  -28.8170   21.9500 N   0  0  0  0  0  0  0  0  0  0  0  0
  -23.6720  -28.4900   22.9730 O   0  0  0  0  0  0  0  0  0  0  0  0
  -21.1750  -29.3750   21.2770 H   0  0  0  0  0  0  0  0  0  0  0  0
  -18.4030  -27.3210   22.2170 C   0  0  0  0  0  0  0  0  0  0  0  0
  -20.9230  -27.7500   22.6030 C   0  0  0  0  0  3  0  0  0  0  0  0
  -21.1580  -26.3930   21.9040 C   0  0  0  0  0  2  0  0  0  0  0  0
  -20.1160  -26.0820   20.8240 C   0  0  0  0  0  2  0  0  0  0  0  0
  -18.7080  -26.0590   21.4270 C   0  0  0  0  0  2  0  0  0  0  0  0
  -19.4440  -28.1240   22.7550 C   0  0  0  0  0  0  0  0  0  0  0  0
  -19.1060  -29.3060   23.4500 C   0  0  0  0  0  3  0  0  0  0  0  0
  -17.7620  -29.6880   23.6130 C   0  0  0  0  0  3  0  0  0  0  0  0
  -16.7350  -28.8820   23.0900 C   0  0  0  0  0  3  0  0  0  0  0  0
  -17.0560  -27.7000   22.3990 C   0  0  0  0  0  3  0  0  0  0  0  0
  -25.7200  -32.3430   23.8690 C   0  0  0  0  0  3  0  0  0  0  0  0
  -25.3110  -33.7290   24.1360 N   0  0  0  0  0  0  0  0  0  0  0  0
  -25.6880  -34.7870   23.4040 C   0  0  0  0  0  0  0  0  0  0  0  0
  -26.4810  -34.7010   22.4620 O   0  0  0  0  0  0  0  0  0  0  0  0
  -24.6150  -33.8650   24.8530 H   0  0  0  0  0  0  0  0  0  0  0  0
  -23.9360  -36.4920   22.8120 C   0  0  0  0  0  1  0  0  0  0  0  0
  -25.0880  -36.1560   23.7730 C   0  0  0  0  0  3  0  0  0  0  0  0
  -27.0540  -37.1590   24.8500 C   0  0  0  0  0  1  0  0  0  0  0  0
  -26.0800  -37.2540   23.7660 N   0  0  0  0  0  0  0  0  0  0  0  0
  -25.6180  -38.1570   23.8340 H   0  0  0  0  0  0  0  0  0  0  0  0
  -26.1350  -31.6170   25.2080 C   0  0  1  0  0  0  0  0  0  0  0  0
  -24.9460  -31.3350   26.1570 C   0  0  0  0  0  1  0  0  0  0  0  0
  -26.8270  -30.2670   24.9060 C   0  0  0  0  0  1  0  0  0  0  0  0
  -27.1690  -32.4770   25.9730 C   0  0  0  0  0  1  0  0  0  0  0  0
  -30.2710  -19.9000   20.0420 C   0  0  0  0  0  2  0  0  0  0  0  0
  -30.7050  -17.3840   20.5770 C   0  0  0  0  0  3  0  0  0  0  0  0
  -30.6090  -16.2190   19.8400 C   0  0  0  0  0  0  0  0  0  0  0  0
  -29.9190  -17.9020   18.5570 C   0  0  0  0  0  3  0  0  0  0  0  0
  -29.4910  -18.6230   17.3150 C   0  0  0  0  0  1  0  0  0  0  0  0
  -30.2440  -18.4180   19.7640 N   0  0  0  0  0  0  0  0  0  0  0  0
  -30.1460  -16.5820   18.6060 N   0  0  0  0  0  0  0  0  0  0  0  0
  -30.1060  -15.9660   17.8030 H   0  0  0  0  0  0  0  0  0  0  0  0
  -31.3560  -14.9060   20.0410 C   0  0  0  0  0  0  0  0  0  0  0  0
  -30.9970  -12.6500   19.1320 C   0  0  0  0  0  2  0  0  0  0  0  0
  -30.0570  -12.7780   17.9140 C   0  0  0  0  0  2  0  0  0  0  0  0
  -28.5820  -12.7100   18.3610 C   0  0  0  0  0  2  0  0  0  0  0  0
  -28.2640  -13.6420   19.5600 C   0  0  0  0  0  3  0  0  0  0  0  0
  -29.3330  -13.5410   20.6700 C   0  0  0  0  0  2  0  0  0  0  0  0
  -30.6540  -13.7380   20.0640 N   0  0  0  0  0  0  0  0  0  0  0  0
  -32.5630  -14.9410   19.7980 O   0  0  0  0  0  0  0  0  0  0  0  0
  -25.9320  -14.3530   20.3630 C   0  0  0  0  0  0  0  0  0  0  0  0
  -24.8320  -13.6290   20.7340 C   0  0  0  0  0  0  0  0  0  0  0  0
  -25.2170  -12.2570   20.6560 C   0  0  0  0  0  0  0  0  0  0  0  0
  -26.9190  -13.4220   20.0790 N   0  0  0  0  0  0  0  0  0  0  0  0
  -26.4970  -12.1550   20.3180 N   0  0  0  0  0  0  0  0  0  0  0  0
  -24.4270  -11.0310   20.8280 C   0  0  0  0  0  0  0  0  0  0  0  0
  -24.7770  -10.0540   21.7860 C   0  0  0  0  0  3  0  0  0  0  0  0
  -23.9910   -8.8930   21.9430 C   0  0  0  0  0  3  0  0  0  0  0  0
  -22.8400   -8.7010   21.1430 C   0  0  0  0  0  0  0  0  0  0  0  0
  -22.5080   -9.6660   20.1770 C   0  0  0  0  0  3  0  0  0  0  0  0
  -23.2950  -10.8190   20.0160 C   0  0  0  0  0  3  0  0  0  0  0  0
  -22.0310   -7.5930   21.2090 O   0  0  0  0  0  0  0  0  0  0  0  0
  -21.8460   -6.9050   22.3820 C   0  0  0  0  0  0  0  0  0  0  0  0
  -21.2620   -7.5120   23.5160 C   0  0  0  0  0  3  0  0  0  0  0  0
  -21.0260   -6.7500   24.6770 C   0  0  0  0  0  3  0  0  0  0  0  0
  -21.3650   -5.3840   24.7060 C   0  0  0  0  0  0  0  0  0  0  0  0
  -21.9430   -4.7780   23.5770 C   0  0  0  0  0  3  0  0  0  0  0  0
  -22.1800   -5.5370   22.4180 C   0  0  0  0  0  0  0  0  0  0  0  0
  -22.7180   -4.9420   21.3240 F   0  0  0  0  0  0  0  0  0  0  0  0
  -21.1310   -4.6510   25.8200 F   0  0  0  0  0  0  0  0  0  0  0  0
  -23.4700  -14.1750   21.0490 C   0  0  0  0  0  0  0  0  0  0  0  0
  -22.7240  -13.4990   21.9160 N   0  0  0  0  0  0  0  0  0  0  0  0
  -23.0780  -15.2360   20.5630 O   0  0  0  0  0  0  0  0  0  0  0  0
  -23.0520  -12.6390   22.3280 H   0  0  0  0  0  0  0  0  0  0  0  0
  -21.8120  -13.8500   22.1730 H   0  0  0  0  0  0  0  0  0  0  0  0
  -26.1680  -15.7170   20.2220 N   0  0  0  0  0  0  0  0  0  0  0  0
  -25.4400  -16.4050   20.3850 H   0  0  0  0  0  0  0  0  0  0  0  0
  -27.0400  -16.1310   19.9190 H   0  0  0  0  0  0  0  0  0  0  0  0
  1  4  1  0
  1 49  1  0
  1  3  1  0
  2  3  1  0
  4  5  1  0
  6  5  1  0
  7  8  1  0
  7  6  1  0
  9 20  2  0
 10  8  1  0
 10 15  1  0
 11 19  1  0
 11 21  1  0
 12 18  1  0
 12 14  1  0
 13 19  1  0
 14 15  2  0
 14 13  1  0
 16 10  2  0
 17 16  1  0
 17 12  2  0
 18 11  1  0
 19  9  1  0
 21 23  2  0
 22 21  1  0
 24 22  1  0
 25 34  2  0
 25 30  1  0
 26 22  1  0
 26 30  1  0
 27 26  1  0
 28 29  1  0
 28 27  1  0
 29 25  1  0
 30 31  2  0
 31 32  1  0
 33 32  2  0
 34 33  1  0
 35  9  1  0
 35 36  1  0
 35 45  1  0
 36 39  1  0
 37 41  1  0
 37 36  1  0
 38 37  2  0
 41 40  1  0
 43 41  1  0
 43 44  1  0
 43 42  1  0
 45 48  1  1
 45 46  1  0
 47 45  1  0
 51 57  1  0
 51 50  2  0
 52 53  1  0
 52 55  1  0
 52 54  1  0
 54 49  1  0
 54 50  1  0
 55 51  1  0
 56 55  1  0
 57 63  1  0
 58 63  1  0
 59 60  1  0
 59 58  1  0
 61 60  1  0
 61 68  1  0
 61 62  1  0
 63 62  1  0
 64 57  2  0
 65 66  2  0
 66 85  1  0
 67 66  1  0
 67 70  1  0
 68 69  1  0
 68 65  1  0
 69 67  2  0
 70 71  1  0
 71 72  2  0
 73 76  1  0
 73 72  1  0
 74 73  2  0
 75 74  1  0
 75 70  2  0
 76 77  1  0
 77 82  2  0
 77 78  1  0
 78 79  2  0
 79 80  1  0
 80 84  1  0
 81 80  2  0
 82 81  1  0
 83 82  1  0
 85 86  1  0
 86 89  1  0
 86 88  1  0
 87 85  2  0
 90 65  1  0
 90 91  1  0
 92 90  1  0
M  ISO  4   7 101   8 101  51 100  57 100
M  END
>  <TORSDO>  (37) 
F 23

>  <SCORE>  (37) 
-10.837

>  <name>  (37) 
36

>  <ligand_id>  (37) 
36

>  <original_smiles>  (37) 
[H]c1c([H])c([H])c2c(c1[H])C([H])([H])C([H])([H])C([H])([H])C2([H])N([H])C(=O)C1([H])N(C(=O)C([H])(N([H])C(=O)C([H])(N([H])C([H])([H])[H])C([H])([H])[H])C(C([H])([H])[H])(C([H])([H])[H])C([H])([H])[H])C([H])([H])c2c([H])c(OC([H])([H])C([H])([H])C([H])([H])C([H])([H])C([H])(C([H])([H])n3c([H])c(C(=O)N4C([H])([H])C([H])([H])C([H])([H])C([H])(n5nc(-c6c([H])c([H])c(Oc7c([H])c([H])c(F)c([H])c7F)c([H])c6[H])c(C(=O)N([H])[H])c5N([H])[H])C4([H])[H])[n+]([H])c3C([H])([H])[H])C([H])([H])C([H])([H])[H])c([H])c([H])c2C1([H])[H]

>  <smiles>  (37) 
[H]c1c([H])c([H])c2c(c1[H])C([H])([H])C([H])([H])C([H])([H])C2([H])N([H])C(=O)C1([H])N(C(=O)C([H])(N([H])C(=O)C([H])(N([H])C([H])([H])[H])C([H])([H])[H])C(C([H])([H])[H])(C([H])([H])[H])C([H])([H])[H])C([H])([H])c2c([H])c(OC([H])([H])C([H])([H])C([H])([H])C([H])([H])C([H])(C([H])([H])n3c([H])c(C(=O)N4C([H])([H])C([H])([H])C([H])([H])C([H])(n5nc(-c6c([H])c([H])c(Oc7c([H])c([H])c(F)c([H])c7F)c([H])c6[H])c(C(=O)N([H])[H])c5N([H])[H])C4([H])[H])[n+]([H])c3C([H])([H])[H])C([H])([H])C([H])([H])[H])c([H])c([H])c2C1([H])[H]

$$$$
37:0:0
     RDKit          3D

 92100  0  0  1  0  0  0  0  0999 V2000
  -29.8970  -21.4540   19.4070 C   0  0  0  0  0  3  0  0  0  0  0  0
  -29.7200  -20.1750   19.9690 C   0  0  0  0  0  0  0  0  0  0  0  0
  -28.8930  -21.8070   21.3350 C   0  0  0  0  0  3  0  0  0  0  0  0
  -28.2970  -22.4130   22.5740 C   0  0  0  0  0  1  0  0  0  0  0  0
  -29.3920  -22.4560   20.2570 N   0  0  0  0  0  0  0  0  0  0  0  0
  -29.0650  -20.4770   21.1440 N   0  0  0  0  0  0  0  0  0  0  0  0
  -28.7680  -19.7800   21.8160 H   0  0  0  0  0  0  0  0  0  0  0  0
  -31.3400  -18.7500   18.6270 C   0  0  0  0  0  1  0  0  0  0  0  0
  -28.9020  -18.2650   18.4950 C   0  0  0  0  0  1  0  0  0  0  0  0
  -30.0330  -18.6860   19.4710 C   0  0  2  0  0  0  0  0  0  0  0  0
  -30.2540  -17.5350   20.6100 C   0  0  0  0  0  2  0  0  0  0  0  0
  -30.6900  -14.9110   20.2610 C   0  0  0  0  0  0  0  0  0  0  0  0
  -30.4850  -12.6040   19.3230 C   0  0  0  0  0  2  0  0  0  0  0  0
  -29.5450  -12.6640   18.1030 C   0  0  0  0  0  2  0  0  0  0  0  0
  -28.0740  -12.4930   18.5330 C   0  0  0  0  0  2  0  0  0  0  0  0
  -27.7010  -13.3710   19.7530 C   0  0  0  0  0  3  0  0  0  0  0  0
  -28.7750  -13.3310   20.8590 C   0  0  0  0  0  2  0  0  0  0  0  0
  -30.0600  -13.6810   20.2400 N   0  0  0  0  0  0  0  0  0  0  0  0
  -31.8850  -14.9960   19.9800 O   0  0  0  0  0  0  0  0  0  0  0  0
  -29.9100  -16.0460   20.4030 N   0  0  0  0  0  0  0  0  0  0  0  0
  -28.9400  -15.8320   20.5790 H   0  0  0  0  0  0  0  0  0  0  0  0
  -25.3070  -13.9340   20.4920 C   0  0  0  0  0  0  0  0  0  0  0  0
  -24.2510  -13.1510   20.8710 C   0  0  0  0  0  0  0  0  0  0  0  0
  -24.7260  -11.8050   20.8420 C   0  0  0  0  0  0  0  0  0  0  0  0
  -26.3620  -13.0620   20.2540 N   0  0  0  0  0  0  0  0  0  0  0  0
  -26.0160  -11.7770   20.5280 N   0  0  0  0  0  0  0  0  0  0  0  0
  -24.0080  -10.5360   21.0320 C   0  0  0  0  0  0  0  0  0  0  0  0
  -24.4440   -9.5770   21.9710 C   0  0  0  0  0  3  0  0  0  0  0  0
  -23.7310   -8.3720   22.1520 C   0  0  0  0  0  3  0  0  0  0  0  0
  -22.5650   -8.1190   21.3910 C   0  0  0  0  0  0  0  0  0  0  0  0
  -22.1500   -9.0650   20.4390 C   0  0  0  0  0  3  0  0  0  0  0  0
  -22.8630  -10.2610   20.2550 C   0  0  0  0  0  3  0  0  0  0  0  0
  -21.8160   -6.9690   21.4840 O   0  0  0  0  0  0  0  0  0  0  0  0
  -21.7550   -6.2380   22.6430 C   0  0  0  0  0  0  0  0  0  0  0  0
  -21.2740   -6.7890   23.8510 C   0  0  0  0  0  3  0  0  0  0  0  0
  -21.1670   -5.9830   25.0010 C   0  0  0  0  0  3  0  0  0  0  0  0
  -21.5260   -4.6220   24.9470 C   0  0  0  0  0  0  0  0  0  0  0  0
  -21.9980   -4.0690   23.7430 C   0  0  0  0  0  3  0  0  0  0  0  0
  -22.1110   -4.8740   22.5950 C   0  0  0  0  0  0  0  0  0  0  0  0
  -22.5440   -4.3280   21.4360 F   0  0  0  0  0  0  0  0  0  0  0  0
  -21.4150   -3.8440   26.0480 F   0  0  0  0  0  0  0  0  0  0  0  0
  -22.8520  -13.6130   21.1490 C   0  0  0  0  0  0  0  0  0  0  0  0
  -22.1290  -12.9150   22.0210 N   0  0  0  0  0  0  0  0  0  0  0  0
  -22.4020  -14.6330   20.6250 O   0  0  0  0  0  0  0  0  0  0  0  0
  -22.5070  -12.1010   22.4800 H   0  0  0  0  0  0  0  0  0  0  0  0
  -21.1870  -13.2030   22.2380 H   0  0  0  0  0  0  0  0  0  0  0  0
  -25.4660  -15.3050   20.3090 N   0  0  0  0  0  0  0  0  0  0  0  0
  -24.6950  -15.9610   20.3910 H   0  0  0  0  0  0  0  0  0  0  0  0
  -26.3020  -15.7260   19.9220 H   0  0  0  0  0  0  0  0  0  0  0  0
  -29.5320  -24.0070   20.1660 C   0  0  0  0  0  3  0  0  0  0  0  0
  -28.3180  -25.0260   19.8260 C   0  0  0  0  0  3  0  0  0  0  0  0
  -28.4910  -26.5100   20.0650 O   0  0  0  0  0  0  0  0  0  0  0  0
  -24.7670  -31.8390   23.3220 C   0  0  0  0  0  0  0  0  0  0  0  0
  -27.3830  -27.3950   20.0480 C   0  0  0  0  0  0  0  0  0  0  0  0
  -23.5680  -30.5270   21.6050 C   0  0  0  0  0  3  0  0  0  0  0  0
  -25.0240  -29.0410   20.1090 C   0  0  0  0  0  0  0  0  0  0  0  0
  -26.1110  -30.8450   21.4450 C   0  0  0  0  0  2  0  0  0  0  0  0
  -26.1950  -29.4930   20.7310 C   0  0  0  0  0  0  0  0  0  0  0  0
  -27.3760  -28.6860   20.6860 C   0  0  0  0  0  3  0  0  0  0  0  0
  -26.1860  -27.0140   19.4010 C   0  0  0  0  0  3  0  0  0  0  0  0
  -25.0270  -27.8120   19.4320 C   0  0  0  0  0  3  0  0  0  0  0  0
  -23.7950  -29.9220   20.1910 C   0  0  0  0  0  2  0  0  0  0  0  0
  -24.8330  -31.0890   22.1800 N   0  0  0  0  0  0  0  0  0  0  0  0
  -23.6820  -32.0890   23.8680 O   0  0  0  0  0  0  0  0  0  0  0  0
  -22.9000  -29.4660   22.5140 C   0  0  0  0  0  0  0  0  0  0  0  0
  -21.5730  -29.2990   22.3800 N   0  0  0  0  0  0  0  0  0  0  0  0
  -23.5760  -28.8000   23.3010 O   0  0  0  0  0  0  0  0  0  0  0  0
  -21.0900  -29.9020   21.7290 H   0  0  0  0  0  0  0  0  0  0  0  0
  -18.1920  -28.0590   22.8070 C   0  0  0  0  0  0  0  0  0  0  0  0
  -20.7500  -28.3190   23.0990 C   0  0  0  0  0  3  0  0  0  0  0  0
  -20.8550  -26.9170   22.4560 C   0  0  0  0  0  2  0  0  0  0  0  0
  -19.7570  -26.6360   21.4250 C   0  0  0  0  0  2  0  0  0  0  0  0
  -18.3720  -26.7450   22.0690 C   0  0  0  0  0  2  0  0  0  0  0  0
  -19.3060  -28.8070   23.2780 C   0  0  0  0  0  0  0  0  0  0  0  0
  -19.0770  -30.0350   23.9310 C   0  0  0  0  0  3  0  0  0  0  0  0
  -17.7690  -30.5180   24.1220 C   0  0  0  0  0  3  0  0  0  0  0  0
  -16.6700  -29.7710   23.6640 C   0  0  0  0  0  3  0  0  0  0  0  0
  -16.8830  -28.5440   23.0110 C   0  0  0  0  0  3  0  0  0  0  0  0
  -26.0490  -32.4380   23.9830 C   0  0  0  0  0  3  0  0  0  0  0  0
  -26.5480  -31.6130   25.2320 C   0  0  1  0  0  0  0  0  0  0  0  0
  -25.4440  -31.3420   26.2810 C   0  0  0  0  0  1  0  0  0  0  0  0
  -27.1270  -30.2480   24.7920 C   0  0  0  0  0  1  0  0  0  0  0  0
  -27.7040  -32.3640   25.9320 C   0  0  0  0  0  1  0  0  0  0  0  0
  -25.7460  -33.8240   24.3690 N   0  0  0  0  0  0  0  0  0  0  0  0
  -26.0760  -34.9070   23.6530 C   0  0  0  0  0  0  0  0  0  0  0  0
  -26.7430  -34.8440   22.6160 O   0  0  0  0  0  0  0  0  0  0  0  0
  -25.1610  -33.9460   25.1850 H   0  0  0  0  0  0  0  0  0  0  0  0
  -24.3630  -36.7270   23.3680 C   0  0  0  0  0  1  0  0  0  0  0  0
  -25.5960  -36.2770   24.1680 C   0  0  0  0  0  3  0  0  0  0  0  0
  -27.7300  -37.1150   25.0480 C   0  0  0  0  0  1  0  0  0  0  0  0
  -26.6340  -37.3280   24.1070 N   0  0  0  0  0  0  0  0  0  0  0  0
  -26.2320  -38.2450   24.2840 H   0  0  0  0  0  0  0  0  0  0  0  0
  1  2  2  0
  1  5  1  0
  2  6  1  0
  3  4  1  0
  5  3  1  0
  6  3  1  0
  6  7  1  0
 10  8  1  6
  9 10  1  0
 10  2  1  0
 10 11  1  0
 12 20  1  0
 13 18  1  0
 14 15  1  0
 14 13  1  0
 16 15  1  0
 16 25  1  0
 16 17  1  0
 18 12  1  0
 18 17  1  0
 19 12  2  0
 20 21  1  0
 20 11  1  0
 22 23  2  0
 23 42  1  0
 24 23  1  0
 24 27  1  0
 25 22  1  0
 25 26  1  0
 26 24  2  0
 27 28  1  0
 28 29  2  0
 30 33  1  0
 30 29  1  0
 31 30  2  0
 32 31  1  0
 32 27  2  0
 33 34  1  0
 34 35  1  0
 35 36  2  0
 37 36  1  0
 37 41  1  0
 38 37  2  0
 39 34  2  0
 39 38  1  0
 40 39  1  0
 42 43  1  0
 43 46  1  0
 43 45  1  0
 44 42  2  0
 47 48  1  0
 47 22  1  0
 49 47  1  0
 50  5  1  0
 51 52  1  0
 51 50  2  0
 53 64  2  0
 54 52  1  0
 54 59  1  0
 55 63  1  0
 55 65  1  0
 56 62  1  0
 56 58  1  0
 57 63  1  0
 58 57  1  0
 59 58  2  0
 60 61  1  0
 60 54  2  0
 61 56  2  0
 62 55  1  0
 63 53  1  0
 65 67  2  0
 66 65  1  0
 68 66  1  0
 69 78  2  0
 69 74  1  0
 70 66  1  0
 70 74  1  0
 71 70  1  0
 72 73  1  0
 72 71  1  0
 73 69  1  0
 74 75  2  0
 75 76  1  0
 77 76  2  0
 78 77  1  0
 79 53  1  0
 79 84  1  0
 79 80  1  0
 80 83  1  1
 80 81  1  0
 82 80  1  0
 84 87  1  0
 85 89  1  0
 85 84  1  0
 86 85  2  0
 89 88  1  0
 91 89  1  0
 91 92  1  0
 91 90  1  0
M  ISO  4  12 100  20 100  51 101  52 101
M  END
>  <TORSDO>  (38) 
F 20

>  <SCORE>  (38) 
-13.496

>  <name>  (38) 
37

>  <ligand_id>  (38) 
37

>  <original_smiles>  (38) 
[H]c1c([H])c([H])c2c(c1[H])C([H])([H])C([H])([H])C([H])([H])C2([H])N([H])C(=O)C1([H])N(C(=O)C([H])(N([H])C(=O)C([H])(N([H])C([H])([H])[H])C([H])([H])[H])C(C([H])([H])[H])(C([H])([H])[H])C([H])([H])[H])C([H])([H])c2c([H])c(OC([H])([H])C([H])([H])n3c([H])c(C(C([H])([H])[H])(C([H])([H])[H])C([H])([H])N([H])C(=O)N4C([H])([H])C([H])([H])C([H])([H])C([H])(n5nc(-c6c([H])c([H])c(Oc7c([H])c([H])c(F)c([H])c7F)c([H])c6[H])c(C(=O)N([H])[H])c5N([H])[H])C4([H])[H])[n+]([H])c3C([H])([H])[H])c([H])c([H])c2C1([H])[H]

>  <smiles>  (38) 
[H]c1c([H])c([H])c2c(c1[H])C([H])([H])C([H])([H])C([H])([H])C2([H])N([H])C(=O)C1([H])N(C(=O)C([H])(N([H])C(=O)C([H])(N([H])C([H])([H])[H])C([H])([H])[H])C(C([H])([H])[H])(C([H])([H])[H])C([H])([H])[H])C([H])([H])c2c([H])c(OC([H])([H])C([H])([H])n3c([H])c(C(C([H])([H])[H])(C([H])([H])[H])C([H])([H])N([H])C(=O)N4C([H])([H])C([H])([H])C([H])([H])C([H])(n5nc(-c6c([H])c([H])c(Oc7c([H])c([H])c(F)c([H])c7F)c([H])c6[H])c(C(=O)N([H])[H])c5N([H])[H])C4([H])[H])[n+]([H])c3C([H])([H])[H])c([H])c([H])c2C1([H])[H]

$$$$
38:0:0
     RDKit          3D

 92100  0  0  1  0  0  0  0  0999 V2000
  -30.1070  -20.0120   20.3160 C   0  0  0  0  0  0  0  0  0  0  0  0
  -30.3640  -19.5280   19.0490 C   0  0  0  0  0  0  0  0  0  0  0  0
  -30.3070  -17.7280   20.4020 C   0  0  0  0  0  0  0  0  0  0  0  0
  -30.5810  -20.3320   17.8050 C   0  0  0  0  0  1  0  0  0  0  0  0
  -30.1010  -18.8570   21.1400 N   0  0  0  0  0  0  0  0  0  0  0  0
  -30.3820  -18.1080   19.0890 N   0  0  0  0  0  0  0  0  0  0  0  0
  -31.6920  -17.3630   17.0520 C   0  0  0  0  0  1  0  0  0  0  0  0
  -29.0960  -17.3830   17.1020 C   0  0  0  0  0  1  0  0  0  0  0  0
  -30.4050  -17.2380   17.9050 C   0  0  0  0  0  3  0  0  0  0  0  0
  -30.7210  -16.2540   22.4720 C   0  0  0  0  0  1  0  0  0  0  0  0
  -30.1930  -16.2570   21.0210 C   0  0  0  0  0  3  0  0  0  0  0  0
  -30.8850  -14.9730   20.3400 C   0  0  0  0  0  0  0  0  0  0  0  0
  -30.6350  -12.7730   19.1720 C   0  0  0  0  0  2  0  0  0  0  0  0
  -29.7010  -12.9400   17.9550 C   0  0  0  0  0  2  0  0  0  0  0  0
  -28.2380  -12.7220   18.3840 C   0  0  0  0  0  2  0  0  0  0  0  0
  -27.8630  -13.5630   19.6360 C   0  0  0  0  0  3  0  0  0  0  0  0
  -28.9240  -13.4190   20.7520 C   0  0  0  0  0  2  0  0  0  0  0  0
  -30.2330  -13.7720   20.1860 N   0  0  0  0  0  0  0  0  0  0  0  0
  -32.0340  -15.0860   19.8980 O   0  0  0  0  0  0  0  0  0  0  0  0
  -25.4710  -14.1440   20.3770 C   0  0  0  0  0  0  0  0  0  0  0  0
  -24.4110  -13.3690   20.7620 C   0  0  0  0  0  0  0  0  0  0  0  0
  -24.8830  -12.0180   20.7370 C   0  0  0  0  0  0  0  0  0  0  0  0
  -26.5200  -13.2690   20.1330 N   0  0  0  0  0  0  0  0  0  0  0  0
  -26.1710  -11.9870   20.4120 N   0  0  0  0  0  0  0  0  0  0  0  0
  -24.1660  -10.7510   20.9320 C   0  0  0  0  0  0  0  0  0  0  0  0
  -24.5890   -9.8100   21.8960 C   0  0  0  0  0  3  0  0  0  0  0  0
  -23.8780   -8.6050   22.0830 C   0  0  0  0  0  3  0  0  0  0  0  0
  -22.7280   -8.3310   21.3040 C   0  0  0  0  0  0  0  0  0  0  0  0
  -22.3220   -9.2610   20.3310 C   0  0  0  0  0  3  0  0  0  0  0  0
  -23.0350  -10.4580   20.1430 C   0  0  0  0  0  3  0  0  0  0  0  0
  -21.9890   -7.1740   21.3970 O   0  0  0  0  0  0  0  0  0  0  0  0
  -21.8880   -6.4730   22.5710 C   0  0  0  0  0  0  0  0  0  0  0  0
  -21.3780   -7.0620   23.7490 C   0  0  0  0  0  3  0  0  0  0  0  0
  -21.2240   -6.2890   24.9170 C   0  0  0  0  0  3  0  0  0  0  0  0
  -21.5690   -4.9260   24.9090 C   0  0  0  0  0  0  0  0  0  0  0  0
  -22.0700   -4.3330   23.7350 C   0  0  0  0  0  3  0  0  0  0  0  0
  -22.2270   -5.1030   22.5710 C   0  0  0  0  0  0  0  0  0  0  0  0
  -22.6910   -4.5230   21.4370 F   0  0  0  0  0  0  0  0  0  0  0  0
  -21.4120   -4.1780   26.0260 F   0  0  0  0  0  0  0  0  0  0  0  0
  -23.0080  -13.8320   21.0330 C   0  0  0  0  0  0  0  0  0  0  0  0
  -22.2870  -13.1440   21.9070 N   0  0  0  0  0  0  0  0  0  0  0  0
  -22.5520  -14.8440   20.4950 O   0  0  0  0  0  0  0  0  0  0  0  0
  -22.6550  -12.3180   22.3550 H   0  0  0  0  0  0  0  0  0  0  0  0
  -21.3440  -13.4420   22.1110 H   0  0  0  0  0  0  0  0  0  0  0  0
  -25.6440  -15.5120   20.1830 N   0  0  0  0  0  0  0  0  0  0  0  0
  -24.8910  -16.1870   20.2450 H   0  0  0  0  0  0  0  0  0  0  0  0
  -26.5010  -15.9150   19.8280 H   0  0  0  0  0  0  0  0  0  0  0  0
  -30.0010  -21.4980   20.8420 C   0  0  0  0  0  3  0  0  0  0  0  0
  -29.0500  -22.6000   20.1590 C   0  0  0  0  0  3  0  0  0  0  0  0
  -29.2070  -24.1280   20.6350 C   0  0  0  0  0  3  0  0  0  0  0  0
  -28.1360  -25.1970   20.1230 C   0  0  0  0  0  3  0  0  0  0  0  0
  -28.3290  -26.6530   20.3700 O   0  0  0  0  0  0  0  0  0  0  0  0
  -24.5680  -32.0700   23.3240 C   0  0  0  0  0  0  0  0  0  0  0  0
  -27.2070  -27.5010   20.3010 C   0  0  0  0  0  0  0  0  0  0  0  0
  -23.3730  -30.6660   21.6860 C   0  0  0  0  0  3  0  0  0  0  0  0
  -24.8350  -29.1070   20.2790 C   0  0  0  0  0  0  0  0  0  0  0  0
  -25.9200  -30.9870   21.5120 C   0  0  0  0  0  2  0  0  0  0  0  0
  -26.0020  -29.6050   20.8710 C   0  0  0  0  0  0  0  0  0  0  0  0
  -27.1940  -28.8190   20.8620 C   0  0  0  0  0  3  0  0  0  0  0  0
  -26.0140  -27.0590   19.6870 C   0  0  0  0  0  3  0  0  0  0  0  0
  -24.8450  -27.8380   19.6760 C   0  0  0  0  0  3  0  0  0  0  0  0
  -23.5980  -29.9840   20.3100 C   0  0  0  0  0  2  0  0  0  0  0  0
  -24.6400  -31.2580   22.2300 N   0  0  0  0  0  0  0  0  0  0  0  0
  -23.4810  -32.3410   23.8570 O   0  0  0  0  0  0  0  0  0  0  0  0
  -22.7070  -29.6540   22.6510 C   0  0  0  0  0  0  0  0  0  0  0  0
  -21.3850  -29.4510   22.5070 N   0  0  0  0  0  0  0  0  0  0  0  0
  -23.3820  -29.0500   23.4880 O   0  0  0  0  0  0  0  0  0  0  0  0
  -20.8960  -29.9880   21.8060 H   0  0  0  0  0  0  0  0  0  0  0  0
  -18.0310  -28.1750   22.9630 C   0  0  0  0  0  0  0  0  0  0  0  0
  -20.5750  -28.5070   23.2820 C   0  0  0  0  0  3  0  0  0  0  0  0
  -20.7260  -27.0630   22.7480 C   0  0  0  0  0  2  0  0  0  0  0  0
  -19.6570  -26.6850   21.7180 C   0  0  0  0  0  2  0  0  0  0  0  0
  -18.2550  -26.8140   22.3220 C   0  0  0  0  0  2  0  0  0  0  0  0
  -19.1190  -28.9730   23.4010 C   0  0  0  0  0  0  0  0  0  0  0  0
  -18.8540  -30.2440   23.9570 C   0  0  0  0  0  3  0  0  0  0  0  0
  -17.5350  -30.7160   24.0760 C   0  0  0  0  0  3  0  0  0  0  0  0
  -16.4600  -29.9170   23.6490 C   0  0  0  0  0  3  0  0  0  0  0  0
  -16.7080  -28.6490   23.0980 C   0  0  0  0  0  3  0  0  0  0  0  0
  -25.8450  -32.7120   23.9450 C   0  0  0  0  0  3  0  0  0  0  0  0
  -25.5300  -34.1130   24.2440 N   0  0  0  0  0  0  0  0  0  0  0  0
  -25.8720  -35.1560   23.4760 C   0  0  0  0  0  0  0  0  0  0  0  0
  -26.5550  -35.0350   22.4550 O   0  0  0  0  0  0  0  0  0  0  0  0
  -24.9300  -34.2840   25.0390 H   0  0  0  0  0  0  0  0  0  0  0  0
  -24.1530  -36.9470   23.0820 C   0  0  0  0  0  1  0  0  0  0  0  0
  -25.3860  -36.5540   23.9100 C   0  0  0  0  0  3  0  0  0  0  0  0
  -27.5150  -37.4480   24.7420 C   0  0  0  0  0  1  0  0  0  0  0  0
  -26.4230  -37.6030   23.7860 N   0  0  0  0  0  0  0  0  0  0  0  0
  -26.0190  -38.5270   23.9060 H   0  0  0  0  0  0  0  0  0  0  0  0
  -26.3430  -31.9680   25.2430 C   0  0  1  0  0  0  0  0  0  0  0  0
  -25.2350  -31.7440   26.2970 C   0  0  0  0  0  1  0  0  0  0  0  0
  -26.9430  -30.5880   24.8870 C   0  0  0  0  0  1  0  0  0  0  0  0
  -27.4800  -32.7800   25.9050 C   0  0  0  0  0  1  0  0  0  0  0  0
  1 48  1  0
  1  5  1  0
  2  6  1  0
  2  1  2  0
  3 11  1  0
  3  5  2  0
  4  2  1  0
  6  3  1  0
  7  9  1  0
  8  9  1  0
  9  6  1  0
 11 10  1  0
 12 11  1  0
 13 18  1  0
 14 15  1  0
 14 13  1  0
 16 15  1  0
 16 23  1  0
 16 17  1  0
 18 12  1  0
 18 17  1  0
 19 12  2  0
 20 21  2  0
 21 40  1  0
 22 21  1  0
 22 25  1  0
 23 20  1  0
 23 24  1  0
 24 22  2  0
 25 26  1  0
 26 27  2  0
 28 31  1  0
 28 27  1  0
 29 28  2  0
 30 29  1  0
 30 25  2  0
 31 32  1  0
 32 37  2  0
 32 33  1  0
 33 34  2  0
 35 34  1  0
 35 39  1  0
 36 35  2  0
 37 36  1  0
 38 37  1  0
 40 41  1  0
 41 44  1  0
 41 43  1  0
 42 40  2  0
 45 46  1  0
 45 20  1  0
 47 45  1  0
 49 50  1  0
 49 48  2  0
 51 52  1  0
 51 50  2  0
 53 64  2  0
 54 52  1  0
 54 59  1  0
 55 63  1  0
 55 65  1  0
 56 62  1  0
 56 58  1  0
 57 63  1  0
 58 57  1  0
 59 58  2  0
 60 54  2  0
 61 60  1  0
 61 56  2  0
 62 55  1  0
 63 53  1  0
 65 67  2  0
 66 65  1  0
 68 66  1  0
 69 78  2  0
 69 74  1  0
 70 66  1  0
 70 74  1  0
 71 70  1  0
 72 73  1  0
 72 71  1  0
 73 69  1  0
 74 75  2  0
 75 76  1  0
 77 76  2  0
 78 77  1  0
 79 53  1  0
 79 80  1  0
 79 89  1  0
 80 83  1  0
 81 85  1  0
 81 80  1  0
 82 81  2  0
 85 84  1  0
 87 88  1  0
 87 85  1  0
 87 86  1  0
 89 92  1  1
 89 90  1  0
 91 89  1  0
M  ISO  4  11 100  12 100  51 101  52 101
M  END
>  <TORSDO>  (39) 
F 22

>  <SCORE>  (39) 
-11.577

>  <name>  (39) 
38

>  <ligand_id>  (39) 
38

>  <original_smiles>  (39) 
[H]c1c([H])c([H])c2c(c1[H])C([H])([H])C([H])([H])C([H])([H])C2([H])N([H])C(=O)C1([H])N(C(=O)C([H])(N([H])C(=O)C([H])(N([H])C([H])([H])[H])C([H])([H])[H])C(C([H])([H])[H])(C([H])([H])[H])C([H])([H])[H])C([H])([H])c2c([H])c(OC([H])([H])C([H])([H])C([H])([H])C([H])([H])c3nc(C([H])(C(=O)N4C([H])([H])C([H])([H])C([H])([H])C([H])(n5nc(-c6c([H])c([H])c(Oc7c([H])c([H])c(F)c([H])c7F)c([H])c6[H])c(C(=O)N([H])[H])c5N([H])[H])C4([H])[H])C([H])([H])[H])n(C([H])(C([H])([H])[H])C([H])([H])[H])c3C([H])([H])[H])c([H])c([H])c2C1([H])[H]

>  <smiles>  (39) 
[H]c1c([H])c([H])c2c(c1[H])C([H])([H])C([H])([H])C([H])([H])C2([H])N([H])C(=O)C1([H])N(C(=O)C([H])(N([H])C(=O)C([H])(N([H])C([H])([H])[H])C([H])([H])[H])C(C([H])([H])[H])(C([H])([H])[H])C([H])([H])[H])C([H])([H])c2c([H])c(OC([H])([H])C([H])([H])C([H])([H])C([H])([H])c3nc(C([H])(C(=O)N4C([H])([H])C([H])([H])C([H])([H])C([H])(n5nc(-c6c([H])c([H])c(Oc7c([H])c([H])c(F)c([H])c7F)c([H])c6[H])c(C(=O)N([H])[H])c5N([H])[H])C4([H])[H])C([H])([H])[H])n(C([H])(C([H])([H])[H])C([H])([H])[H])c3C([H])([H])[H])c([H])c([H])c2C1([H])[H]

$$$$
39:0:0
     RDKit          3D

 95103  0  0  1  0  0  0  0  0999 V2000
  -28.5580  -20.1790   20.9060 C   0  0  0  0  0  2  0  0  0  0  0  0
  -28.7180  -18.5350   19.4530 C   0  0  0  0  0  2  0  0  0  0  0  0
  -28.1120  -19.7790   19.6340 C   0  0  0  0  0  3  0  0  0  0  0  0
  -29.7020  -19.4980   21.2040 C   0  0  0  0  0  3  0  0  0  0  0  0
  -29.7950  -18.3620   20.3350 N   0  0  0  0  0  0  0  0  0  0  0  0
  -31.2370  -19.1530   23.1910 C   0  0  0  0  0  1  0  0  0  0  0  0
  -30.3080  -21.3570   22.9020 C   0  0  0  0  0  1  0  0  0  0  0  0
  -31.8620  -20.6200   21.1430 C   0  0  0  0  0  1  0  0  0  0  0  0
  -30.7670  -20.1010   22.0980 C   0  0  2  0  0  0  0  0  0  0  0  0
  -27.2510  -20.1970   17.2650 C   0  0  0  0  0  1  0  0  0  0  0  0
  -25.7160  -20.0500   19.2560 C   0  0  0  0  0  1  0  0  0  0  0  0
  -27.0890  -20.5720   18.7570 C   0  0  1  0  0  0  0  0  0  0  0  0
  -26.9460  -22.1820   18.9180 C   0  0  0  0  0  2  0  0  0  0  0  0
  -28.0230  -23.3070   19.2270 C   0  0  0  0  0  2  0  0  0  0  0  0
  -27.3370  -24.7220   19.5690 C   0  0  0  0  0  2  0  0  0  0  0  0
  -27.6480  -26.0550   18.9730 O   0  0  0  0  0  0  0  0  0  0  0  0
  -24.6650  -31.3620   22.9850 C   0  0  0  0  0  0  0  0  0  0  0  0
  -26.6480  -27.0250   19.1890 C   0  0  0  0  0  0  0  0  0  0  0  0
  -23.2230  -30.2100   21.3640 C   0  0  0  0  0  3  0  0  0  0  0  0
  -24.4170  -28.7640   19.6190 C   0  0  0  0  0  0  0  0  0  0  0  0
  -25.7470  -30.4040   20.9350 C   0  0  0  0  0  2  0  0  0  0  0  0
  -25.6710  -29.1000   20.1480 C   0  0  0  0  0  0  0  0  0  0  0  0
  -26.7920  -28.2390   19.9460 C   0  0  0  0  0  3  0  0  0  0  0  0
  -25.3890  -26.7990   18.5960 C   0  0  0  0  0  3  0  0  0  0  0  0
  -24.2750  -27.6140   18.8410 C   0  0  0  0  0  3  0  0  0  0  0  0
  -23.2560  -29.6940   19.9020 C   0  0  0  0  0  2  0  0  0  0  0  0
  -24.5710  -30.6650   21.8180 N   0  0  0  0  0  0  0  0  0  0  0  0
  -23.6600  -31.6460   23.6550 O   0  0  0  0  0  0  0  0  0  0  0  0
  -22.5900  -29.1260   22.2720 C   0  0  0  0  0  0  0  0  0  0  0  0
  -21.2560  -28.9730   22.2110 N   0  0  0  0  0  0  0  0  0  0  0  0
  -23.2910  -28.4390   23.0160 O   0  0  0  0  0  0  0  0  0  0  0  0
  -20.7410  -29.6160   21.6240 H   0  0  0  0  0  0  0  0  0  0  0  0
  -17.9150  -27.6820   22.7220 C   0  0  0  0  0  0  0  0  0  0  0  0
  -20.4630  -27.9900   22.9630 C   0  0  0  0  0  3  0  0  0  0  0  0
  -20.5830  -26.5740   22.3650 C   0  0  0  0  0  2  0  0  0  0  0  0
  -19.4920  -26.2840   21.3350 C   0  0  0  0  0  2  0  0  0  0  0  0
  -18.1200  -26.3550   22.0110 C   0  0  0  0  0  2  0  0  0  0  0  0
  -19.0160  -28.4580   23.1530 C   0  0  0  0  0  0  0  0  0  0  0  0
  -18.7860  -29.6890   23.8020 C   0  0  0  0  0  3  0  0  0  0  0  0
  -17.4700  -30.1550   23.9840 C   0  0  0  0  0  3  0  0  0  0  0  0
  -16.3770  -29.3860   23.5500 C   0  0  0  0  0  3  0  0  0  0  0  0
  -16.5960  -28.1440   22.9340 C   0  0  0  0  0  3  0  0  0  0  0  0
  -26.0420  -31.8580   23.5200 C   0  0  0  0  0  3  0  0  0  0  0  0
  -25.8430  -33.2100   24.0620 N   0  0  0  0  0  0  0  0  0  0  0  0
  -26.1760  -34.3440   23.4290 C   0  0  0  0  0  0  0  0  0  0  0  0
  -26.7520  -34.3600   22.3390 O   0  0  0  0  0  0  0  0  0  0  0  0
  -25.3210  -33.2750   24.9230 H   0  0  0  0  0  0  0  0  0  0  0  0
  -24.5480  -36.2690   23.4650 C   0  0  0  0  0  1  0  0  0  0  0  0
  -25.8070  -35.6750   24.1170 C   0  0  0  0  0  3  0  0  0  0  0  0
  -28.0440  -36.3070   24.9120 C   0  0  0  0  0  1  0  0  0  0  0  0
  -26.8970  -36.6760   24.0870 N   0  0  0  0  0  0  0  0  0  0  0  0
  -26.5640  -37.5840   24.4000 H   0  0  0  0  0  0  0  0  0  0  0  0
  -26.6670  -30.9040   24.6110 C   0  0  1  0  0  0  0  0  0  0  0  0
  -25.7030  -30.5680   25.7720 C   0  0  0  0  0  1  0  0  0  0  0  0
  -27.1310  -29.5720   23.9780 C   0  0  0  0  0  1  0  0  0  0  0  0
  -27.9250  -31.5680   25.2210 C   0  0  0  0  0  1  0  0  0  0  0  0
  -30.8950  -17.3130   20.0920 C   0  0  0  0  0  2  0  0  0  0  0  0
  -30.6240  -15.5760   22.1810 C   0  0  0  0  0  1  0  0  0  0  0  0
  -30.9760  -15.8220   20.7020 C   0  0  0  0  0  3  0  0  0  0  0  0
  -31.3450  -14.5480   19.8170 C   0  0  0  0  0  0  0  0  0  0  0  0
  -31.0280  -12.2340   18.9420 C   0  0  0  0  0  2  0  0  0  0  0  0
  -30.0370  -12.1930   17.7550 C   0  0  0  0  0  2  0  0  0  0  0  0
  -28.5760  -12.1000   18.2440 C   0  0  0  0  0  2  0  0  0  0  0  0
  -28.2800  -13.1260   19.3650 C   0  0  0  0  0  3  0  0  0  0  0  0
  -29.3460  -13.0460   20.4530 C   0  0  0  0  0  2  0  0  0  0  0  0
  -30.6520  -13.3550   19.8360 N   0  0  0  0  0  0  0  0  0  0  0  0
  -32.3590  -14.6410   19.1120 O   0  0  0  0  0  0  0  0  0  0  0  0
  -26.0210  -13.9300   20.2940 C   0  0  0  0  0  0  0  0  0  0  0  0
  -24.9170  -13.2600   20.7240 C   0  0  0  0  0  0  0  0  0  0  0  0
  -25.2420  -11.8680   20.6280 C   0  0  0  0  0  0  0  0  0  0  0  0
  -26.9520  -12.9640   19.9380 N   0  0  0  0  0  0  0  0  0  0  0  0
  -26.4950  -11.7170   20.2130 N   0  0  0  0  0  0  0  0  0  0  0  0
  -24.4170  -10.6780   20.8430 C   0  0  0  0  0  0  0  0  0  0  0  0
  -24.7890   -9.6760   21.7690 C   0  0  0  0  0  3  0  0  0  0  0  0
  -23.9660   -8.5470   21.9700 C   0  0  0  0  0  3  0  0  0  0  0  0
  -22.7590   -8.4090   21.2450 C   0  0  0  0  0  0  0  0  0  0  0  0
  -22.4070   -9.3940   20.3060 C   0  0  0  0  0  3  0  0  0  0  0  0
  -23.2270  -10.5160   20.1010 C   0  0  0  0  0  3  0  0  0  0  0  0
  -21.9160   -7.3300   21.3470 O   0  0  0  0  0  0  0  0  0  0  0  0
  -21.7790   -6.6400   22.5220 C   0  0  0  0  0  0  0  0  0  0  0  0
  -21.3710   -7.2720   23.7160 C   0  0  0  0  0  3  0  0  0  0  0  0
  -21.1690   -6.5120   24.8860 C   0  0  0  0  0  3  0  0  0  0  0  0
  -21.3720   -5.1170   24.8620 C   0  0  0  0  0  0  0  0  0  0  0  0
  -21.7680   -4.4830   23.6690 C   0  0  0  0  0  3  0  0  0  0  0  0
  -21.9690   -5.2440   22.5040 C   0  0  0  0  0  0  0  0  0  0  0  0
  -22.3330   -4.6220   21.3580 F   0  0  0  0  0  0  0  0  0  0  0  0
  -21.1700   -4.3840   25.9830 F   0  0  0  0  0  0  0  0  0  0  0  0
  -23.5930  -13.8520   21.1130 C   0  0  0  0  0  0  0  0  0  0  0  0
  -22.8890  -13.2250   22.0400 N   0  0  0  0  0  0  0  0  0  0  0  0
  -23.2070  -14.9180   20.6270 O   0  0  0  0  0  0  0  0  0  0  0  0
  -23.2230  -12.3690   22.4560 H   0  0  0  0  0  0  0  0  0  0  0  0
  -22.0030  -13.6050   22.3440 H   0  0  0  0  0  0  0  0  0  0  0  0
  -26.3150  -15.2900   20.1580 N   0  0  0  0  0  0  0  0  0  0  0  0
  -25.6330  -16.0110   20.3640 H   0  0  0  0  0  0  0  0  0  0  0  0
  -27.1960  -15.6530   19.8240 H   0  0  0  0  0  0  0  0  0  0  0  0
  1  4  1  0
  2  3  1  0
  2  5  1  0
  3 12  1  0
  3  1  1  0
  4  9  1  0
  5  4  1  0
  9  8  1  6
  9  7  1  0
  9  6  1  0
 12 10  1  6
 12 13  1  0
 12 11  1  0
 13 14  1  0
 14 15  1  0
 16 18  1  0
 16 15  1  0
 17 28  2  0
 18 23  1  0
 19 27  1  0
 19 29  1  0
 20 26  1  0
 20 22  1  0
 21 27  1  0
 22 21  1  0
 23 22  2  0
 24 25  1  0
 24 18  2  0
 25 20  2  0
 26 19  1  0
 27 17  1  0
 29 31  2  0
 30 29  1  0
 32 30  1  0
 33 42  2  0
 33 38  1  0
 34 30  1  0
 34 38  1  0
 35 34  1  0
 36 37  1  0
 36 35  1  0
 37 33  1  0
 38 39  2  0
 39 40  1  0
 41 40  2  0
 42 41  1  0
 43 17  1  0
 43 44  1  0
 43 53  1  0
 44 47  1  0
 45 44  1  0
 45 49  1  0
 46 45  2  0
 49 48  1  0
 51 49  1  0
 51 52  1  0
 51 50  1  0
 53 56  1  1
 53 54  1  0
 55 53  1  0
 57  5  1  0
 57 59  1  0
 59 58  1  0
 60 66  1  0
 60 59  1  0
 61 66  1  0
 62 63  1  0
 62 61  1  0
 64 63  1  0
 64 71  1  0
 64 65  1  0
 66 65  1  0
 67 60  2  0
 68 69  2  0
 69 88  1  0
 70 69  1  0
 70 73  1  0
 71 72  1  0
 71 68  1  0
 72 70  2  0
 73 74  1  0
 74 75  2  0
 76 79  1  0
 76 75  1  0
 77 76  2  0
 78 77  1  0
 78 73  2  0
 79 80  1  0
 80 81  1  0
 81 82  2  0
 83 82  1  0
 83 87  1  0
 84 83  2  0
 85 80  2  0
 85 84  1  0
 86 85  1  0
 88 89  1  0
 89 92  1  0
 89 91  1  0
 90 88  2  0
 93 68  1  0
 93 94  1  0
 95 93  1  0
M  ISO  4  15 101  16 101  59 100  60 100
M  END
>  <TORSDO>  (40) 
F 23

>  <SCORE>  (40) 
-10.522

>  <name>  (40) 
39

>  <ligand_id>  (40) 
39

>  <original_smiles>  (40) 
[H]c1c([H])c([H])c2c(c1[H])C([H])([H])C([H])([H])C([H])([H])C2([H])N([H])C(=O)C1([H])N(C(=O)C([H])(N([H])C(=O)C([H])(N([H])C([H])([H])[H])C([H])([H])[H])C(C([H])([H])[H])(C([H])([H])[H])C([H])([H])[H])C([H])([H])c2c([H])c(OC([H])([H])C([H])([H])C([H])([H])C(c3c([H])c(C(C([H])([H])[H])(C([H])([H])[H])C([H])([H])[H])n(C([H])([H])C([H])(C(=O)N4C([H])([H])C([H])([H])C([H])([H])C([H])(n5nc(-c6c([H])c([H])c(Oc7c([H])c([H])c(F)c([H])c7F)c([H])c6[H])c(C(=O)N([H])[H])c5N([H])[H])C4([H])[H])C([H])([H])[H])c3[H])(C([H])([H])[H])C([H])([H])[H])c([H])c([H])c2C1([H])[H]

>  <smiles>  (40) 
[H]c1c([H])c([H])c2c(c1[H])C([H])([H])C([H])([H])C([H])([H])C2([H])N([H])C(=O)C1([H])N(C(=O)C([H])(N([H])C(=O)C([H])(N([H])C([H])([H])[H])C([H])([H])[H])C(C([H])([H])[H])(C([H])([H])[H])C([H])([H])[H])C([H])([H])c2c([H])c(OC([H])([H])C([H])([H])C([H])([H])C(c3c([H])c(C(C([H])([H])[H])(C([H])([H])[H])C([H])([H])[H])n(C([H])([H])C([H])(C(=O)N4C([H])([H])C([H])([H])C([H])([H])C([H])(n5nc(-c6c([H])c([H])c(Oc7c([H])c([H])c(F)c([H])c7F)c([H])c6[H])c(C(=O)N([H])[H])c5N([H])[H])C4([H])[H])C([H])([H])[H])c3[H])(C([H])([H])[H])C([H])([H])[H])c([H])c([H])c2C1([H])[H]

$$$$
40:0:0
     RDKit          3D

 92100  0  0  1  0  0  0  0  0999 V2000
  -30.7110  -18.5910   22.1360 C   0  0  0  0  0  3  0  0  0  0  0  0
  -30.8480  -18.0730   19.8260 C   0  0  0  0  0  3  0  0  0  0  0  0
  -30.8440  -17.5920   21.1500 C   0  0  0  0  0  0  0  0  0  0  0  0
  -30.6190  -20.2290   20.5490 C   0  0  0  0  0  0  0  0  0  0  0  0
  -30.6000  -19.8950   21.8310 N   0  0  0  0  0  0  0  0  0  0  0  0
  -30.7230  -19.3830   19.5310 N   0  0  0  0  0  0  0  0  0  0  0  0
  -32.4050  -15.6000   21.0860 C   0  0  0  0  0  1  0  0  0  0  0  0
  -30.9090  -15.8480   23.0140 C   0  0  0  0  0  1  0  0  0  0  0  0
  -30.9890  -16.0850   21.4810 C   0  0  1  0  0  0  0  0  0  0  0  0
  -29.8150  -15.2320   20.8660 C   0  0  0  0  0  2  0  0  0  0  0  0
  -29.9900  -14.3980   19.5690 C   0  0  0  0  0  0  0  0  0  0  0  0
  -29.5480  -12.2770   18.3680 C   0  0  0  0  0  2  0  0  0  0  0  0
  -28.3960  -12.3860   17.3570 C   0  0  0  0  0  2  0  0  0  0  0  0
  -27.0390  -12.1440   18.0460 C   0  0  0  0  0  2  0  0  0  0  0  0
  -26.8690  -12.9960   19.3300 C   0  0  0  0  0  3  0  0  0  0  0  0
  -28.1090  -12.8670   20.2430 C   0  0  0  0  0  2  0  0  0  0  0  0
  -29.3030  -13.2300   19.4600 N   0  0  0  0  0  0  0  0  0  0  0  0
  -30.7800  -14.7650   18.6960 O   0  0  0  0  0  0  0  0  0  0  0  0
  -24.6290  -13.4800   20.5090 C   0  0  0  0  0  0  0  0  0  0  0  0
  -23.6700  -12.6500   21.0250 C   0  0  0  0  0  0  0  0  0  0  0  0
  -24.1500  -11.3200   20.8250 C   0  0  0  0  0  0  0  0  0  0  0  0
  -25.6350  -12.6510   20.0350 N   0  0  0  0  0  0  0  0  0  0  0  0
  -25.3590  -11.3440   20.2770 N   0  0  0  0  0  0  0  0  0  0  0  0
  -23.5060  -10.0230   21.0710 C   0  0  0  0  0  0  0  0  0  0  0  0
  -24.0530   -9.0870   21.9760 C   0  0  0  0  0  3  0  0  0  0  0  0
  -23.4070   -7.8550   22.2090 C   0  0  0  0  0  3  0  0  0  0  0  0
  -22.1980   -7.5490   21.5390 C   0  0  0  0  0  0  0  0  0  0  0  0
  -21.6700   -8.4760   20.6230 C   0  0  0  0  0  3  0  0  0  0  0  0
  -22.3170   -9.7000   20.3870 C   0  0  0  0  0  3  0  0  0  0  0  0
  -21.5140   -6.3670   21.6840 O   0  0  0  0  0  0  0  0  0  0  0  0
  -21.5050   -5.6810   22.8720 C   0  0  0  0  0  0  0  0  0  0  0  0
  -21.0130   -6.2580   24.0620 C   0  0  0  0  0  3  0  0  0  0  0  0
  -20.9590   -5.4940   25.2460 C   0  0  0  0  0  3  0  0  0  0  0  0
  -21.3860   -4.1530   25.2390 C   0  0  0  0  0  0  0  0  0  0  0  0
  -21.8710   -3.5740   24.0520 C   0  0  0  0  0  3  0  0  0  0  0  0
  -21.9270   -4.3350   22.8710 C   0  0  0  0  0  0  0  0  0  0  0  0
  -22.3750   -3.7670   21.7260 F   0  0  0  0  0  0  0  0  0  0  0  0
  -21.3260   -3.4150   26.3720 F   0  0  0  0  0  0  0  0  0  0  0  0
  -22.3390  -13.0600   21.5860 C   0  0  0  0  0  0  0  0  0  0  0  0
  -21.8270  -12.3140   22.5600 N   0  0  0  0  0  0  0  0  0  0  0  0
  -21.7660  -14.0760   21.1970 O   0  0  0  0  0  0  0  0  0  0  0  0
  -22.3080  -11.4920   22.8960 H   0  0  0  0  0  0  0  0  0  0  0  0
  -20.9450  -12.5700   22.9780 H   0  0  0  0  0  0  0  0  0  0  0  0
  -24.7230  -14.8630   20.3880 N   0  0  0  0  0  0  0  0  0  0  0  0
  -23.9780  -15.4850   20.6800 H   0  0  0  0  0  0  0  0  0  0  0  0
  -25.4940  -15.3480   19.9450 H   0  0  0  0  0  0  0  0  0  0  0  0
  -30.4220  -21.7060   20.2370 C   0  0  0  0  0  2  0  0  0  0  0  0
  -28.9370  -22.0840   20.0410 C   0  0  0  0  0  2  0  0  0  0  0  0
  -28.5380  -23.4320   20.6720 C   0  0  0  0  0  2  0  0  0  0  0  0
  -28.8960  -24.6800   19.8450 C   0  0  0  0  0  2  0  0  0  0  0  0
  -28.5660  -25.9670   20.6180 C   0  0  0  0  0  2  0  0  0  0  0  0
  -28.4750  -27.0990   19.7520 O   0  0  0  0  0  0  0  0  0  0  0  0
  -24.4900  -31.8160   23.2650 C   0  0  0  0  0  0  0  0  0  0  0  0
  -27.2710  -27.7550   19.8300 C   0  0  0  0  0  0  0  0  0  0  0  0
  -23.3040  -30.4400   21.5840 C   0  0  0  0  0  3  0  0  0  0  0  0
  -24.7900  -29.0800   20.0190 C   0  0  0  0  0  0  0  0  0  0  0  0
  -25.7900  -30.9710   21.3150 C   0  0  0  0  0  2  0  0  0  0  0  0
  -25.9330  -29.6490   20.5930 C   0  0  0  0  0  0  0  0  0  0  0  0
  -27.1790  -28.9950   20.4940 C   0  0  0  0  0  3  0  0  0  0  0  0
  -26.1140  -27.1880   19.2540 C   0  0  0  0  0  3  0  0  0  0  0  0
  -24.8720  -27.8460   19.3480 C   0  0  0  0  0  3  0  0  0  0  0  0
  -23.4970  -29.8520   20.1600 C   0  0  0  0  0  2  0  0  0  0  0  0
  -24.5480  -31.0870   22.1140 N   0  0  0  0  0  0  0  0  0  0  0  0
  -23.4180  -31.9890   23.8590 O   0  0  0  0  0  0  0  0  0  0  0  0
  -22.7520  -29.3270   22.5050 C   0  0  0  0  0  0  0  0  0  0  0  0
  -21.4660  -28.9880   22.3260 N   0  0  0  0  0  0  0  0  0  0  0  0
  -23.4800  -28.7740   23.3330 O   0  0  0  0  0  0  0  0  0  0  0  0
  -20.9350  -29.4950   21.6310 H   0  0  0  0  0  0  0  0  0  0  0  0
  -18.2710  -27.3270   22.6180 C   0  0  0  0  0  0  0  0  0  0  0  0
  -20.7440  -27.9430   23.0500 C   0  0  0  0  0  3  0  0  0  0  0  0
  -21.0830  -26.5420   22.4910 C   0  0  0  0  0  2  0  0  0  0  0  0
  -20.1040  -26.0690   21.4110 C   0  0  0  0  0  2  0  0  0  0  0  0
  -18.6780  -26.0170   21.9670 C   0  0  0  0  0  2  0  0  0  0  0  0
  -19.2420  -28.2380   23.1140 C   0  0  0  0  0  0  0  0  0  0  0  0
  -18.8110  -29.4580   23.6790 C   0  0  0  0  0  3  0  0  0  0  0  0
  -17.4410  -29.7710   23.7580 C   0  0  0  0  0  3  0  0  0  0  0  0
  -16.4830  -28.8600   23.2800 C   0  0  0  0  0  3  0  0  0  0  0  0
  -16.8990  -27.6390   22.7170 C   0  0  0  0  0  3  0  0  0  0  0  0
  -25.7620  -32.4840   23.8740 C   0  0  0  0  0  3  0  0  0  0  0  0
  -25.4460  -33.8990   24.1130 N   0  0  0  0  0  0  0  0  0  0  0  0
  -25.8040  -34.9040   23.3030 C   0  0  0  0  0  0  0  0  0  0  0  0
  -26.5060  -34.7400   22.3010 O   0  0  0  0  0  0  0  0  0  0  0  0
  -24.8270  -34.1010   24.8840 H   0  0  0  0  0  0  0  0  0  0  0  0
  -24.0940  -36.6720   22.7810 C   0  0  0  0  0  1  0  0  0  0  0  0
  -25.3040  -36.3160   23.6600 C   0  0  0  0  0  3  0  0  0  0  0  0
  -27.4140  -37.2390   24.5080 C   0  0  0  0  0  1  0  0  0  0  0  0
  -26.3420  -37.3600   23.5240 N   0  0  0  0  0  0  0  0  0  0  0  0
  -25.9340  -38.2870   23.6120 H   0  0  0  0  0  0  0  0  0  0  0  0
  -26.2540  -31.7900   25.2030 C   0  0  1  0  0  0  0  0  0  0  0  0
  -25.1260  -31.5500   26.2340 C   0  0  0  0  0  1  0  0  0  0  0  0
  -26.9100  -30.4240   24.8920 C   0  0  0  0  0  1  0  0  0  0  0  0
  -27.3410  -32.6590   25.8770 C   0  0  0  0  0  1  0  0  0  0  0  0
  2  3  1  0
  3  9  1  0
  3  1  2  0
  4  5  2  0
  5  1  1  0
  6  2  2  0
  6  4  1  0
  9  7  1  6
  9  8  1  0
 10  9  1  0
 11 10  1  0
 12 17  1  0
 13 14  1  0
 13 12  1  0
 15 14  1  0
 15 22  1  0
 15 16  1  0
 17 11  1  0
 17 16  1  0
 18 11  2  0
 19 20  2  0
 20 39  1  0
 21 20  1  0
 21 24  1  0
 22 23  1  0
 22 19  1  0
 23 21  2  0
 24 25  1  0
 25 26  2  0
 27 30  1  0
 27 26  1  0
 28 27  2  0
 29 28  1  0
 29 24  2  0
 30 31  1  0
 31 32  1  0
 32 33  2  0
 34 33  1  0
 34 38  1  0
 35 34  2  0
 36 31  2  0
 36 35  1  0
 37 36  1  0
 39 40  1  0
 40 42  1  0
 40 43  1  0
 41 39  2  0
 44 19  1  0
 44 45  1  0
 46 44  1  0
 47  4  1  0
 48 47  1  0
 48 49  1  0
 50 51  1  0
 50 49  1  0
 52 54  1  0
 52 51  1  0
 53 64  2  0
 54 59  1  0
 55 63  1  0
 55 65  1  0
 56 62  1  0
 56 58  1  0
 57 63  1  0
 58 57  1  0
 59 58  2  0
 60 61  1  0
 60 54  2  0
 61 56  2  0
 62 55  1  0
 63 53  1  0
 65 67  2  0
 66 65  1  0
 68 66  1  0
 69 78  2  0
 69 74  1  0
 70 66  1  0
 70 74  1  0
 71 70  1  0
 72 73  1  0
 72 71  1  0
 73 69  1  0
 74 75  2  0
 75 76  1  0
 77 76  2  0
 78 77  1  0
 79 53  1  0
 79 80  1  0
 79 89  1  0
 80 83  1  0
 81 85  1  0
 81 80  1  0
 82 81  2  0
 85 84  1  0
 87 88  1  0
 87 85  1  0
 87 86  1  0
 89 92  1  1
 89 90  1  0
 91 89  1  0
M  ISO  4  10 100  11 100  51 101  52 101
M  END
>  <TORSDO>  (41) 
F 23

>  <SCORE>  (41) 
-8.968

>  <name>  (41) 
40

>  <ligand_id>  (41) 
40

>  <original_smiles>  (41) 
[H]c1nc(C([H])([H])C([H])([H])C([H])([H])C([H])([H])C([H])([H])Oc2c([H])c([H])c3c(c2[H])C([H])([H])N(C(=O)C([H])(N([H])C(=O)C([H])(N([H])C([H])([H])[H])C([H])([H])[H])C(C([H])([H])[H])(C([H])([H])[H])C([H])([H])[H])C([H])(C(=O)N([H])C2([H])c4c([H])c([H])c([H])c([H])c4C([H])([H])C([H])([H])C2([H])[H])C3([H])[H])nc([H])c1C(C([H])([H])[H])(C([H])([H])[H])C([H])([H])C(=O)N1C([H])([H])C([H])([H])C([H])([H])C([H])(n2nc(-c3c([H])c([H])c(Oc4c([H])c([H])c(F)c([H])c4F)c([H])c3[H])c(C(=O)N([H])[H])c2N([H])[H])C1([H])[H]

>  <smiles>  (41) 
[H]c1nc(C([H])([H])C([H])([H])C([H])([H])C([H])([H])C([H])([H])Oc2c([H])c([H])c3c(c2[H])C([H])([H])N(C(=O)C([H])(N([H])C(=O)C([H])(N([H])C([H])([H])[H])C([H])([H])[H])C(C([H])([H])[H])(C([H])([H])[H])C([H])([H])[H])C([H])(C(=O)N([H])C2([H])c4c([H])c([H])c([H])c([H])c4C([H])([H])C([H])([H])C2([H])[H])C3([H])[H])nc([H])c1C(C([H])([H])[H])(C([H])([H])[H])C([H])([H])C(=O)N1C([H])([H])C([H])([H])C([H])([H])C([H])(n2nc(-c3c([H])c([H])c(Oc4c([H])c([H])c(F)c([H])c4F)c([H])c3[H])c(C(=O)N([H])[H])c2N([H])[H])C1([H])[H]

$$$$
41:0:0
     RDKit          3D

 92100  0  0  1  0  0  0  0  0999 V2000
  -28.9910  -20.9750   20.4920 C   0  0  0  0  0  0  0  0  0  0  0  0
  -29.3620  -18.8370   20.1170 C   0  0  0  0  0  0  0  0  0  0  0  0
  -27.8030  -20.3580   20.4920 N   0  0  0  0  0  0  0  0  0  0  0  0
  -28.0360  -19.0040   20.2590 N   0  0  0  0  0  0  0  0  0  0  0  0
  -30.0020  -20.0560   20.2590 N   0  0  0  0  0  0  0  0  0  0  0  0
  -31.8620  -20.6540   18.7480 C   0  0  0  0  0  1  0  0  0  0  0  0
  -31.4330  -20.3070   20.1800 C   0  0  0  0  0  2  0  0  0  0  0  0
  -29.3710  -17.0350   18.3490 C   0  0  0  0  0  1  0  0  0  0  0  0
  -30.0180  -17.4530   19.6860 C   0  0  0  0  0  3  0  0  0  0  0  0
  -28.8480  -16.0790   21.5540 C   0  0  0  0  0  1  0  0  0  0  0  0
  -31.2310  -16.5810   21.7260 C   0  0  0  0  0  1  0  0  0  0  0  0
  -30.1320  -16.1810   20.7080 C   0  0  2  0  0  0  0  0  0  0  0  0
  -30.6480  -14.7670   20.0620 C   0  0  0  0  0  0  0  0  0  0  0  0
  -30.3440  -12.5460   18.9300 C   0  0  0  0  0  2  0  0  0  0  0  0
  -29.3400  -12.6820   17.7610 C   0  0  0  0  0  2  0  0  0  0  0  0
  -27.8880  -12.5120   18.2510 C   0  0  0  0  0  2  0  0  0  0  0  0
  -27.6020  -13.3350   19.5340 C   0  0  0  0  0  3  0  0  0  0  0  0
  -28.7170  -13.1170   20.5770 C   0  0  0  0  0  2  0  0  0  0  0  0
  -29.9840  -13.5510   19.9680 N   0  0  0  0  0  0  0  0  0  0  0  0
  -31.7640  -14.8260   19.5320 O   0  0  0  0  0  0  0  0  0  0  0  0
  -25.2550  -13.9370   20.3850 C   0  0  0  0  0  0  0  0  0  0  0  0
  -24.2030  -13.1660   20.7990 C   0  0  0  0  0  0  0  0  0  0  0  0
  -24.6510  -11.8130   20.7180 C   0  0  0  0  0  0  0  0  0  0  0  0
  -26.2780  -13.0540   20.0810 N   0  0  0  0  0  0  0  0  0  0  0  0
  -25.9240  -11.7680   20.3400 N   0  0  0  0  0  0  0  0  0  0  0  0
  -23.9230  -10.5540   20.9190 C   0  0  0  0  0  0  0  0  0  0  0  0
  -24.3640   -9.5840   21.8460 C   0  0  0  0  0  3  0  0  0  0  0  0
  -23.6340   -8.3910   22.0350 C   0  0  0  0  0  3  0  0  0  0  0  0
  -22.4500   -8.1580   21.2980 C   0  0  0  0  0  0  0  0  0  0  0  0
  -22.0270   -9.1170   20.3590 C   0  0  0  0  0  3  0  0  0  0  0  0
  -22.7580  -10.3010   20.1670 C   0  0  0  0  0  3  0  0  0  0  0  0
  -21.6910   -7.0180   21.3960 O   0  0  0  0  0  0  0  0  0  0  0  0
  -21.6160   -6.3020   22.5650 C   0  0  0  0  0  0  0  0  0  0  0  0
  -21.1660   -6.8860   23.7680 C   0  0  0  0  0  3  0  0  0  0  0  0
  -21.0390   -6.0970   24.9300 C   0  0  0  0  0  3  0  0  0  0  0  0
  -21.3520   -4.7250   24.8870 C   0  0  0  0  0  0  0  0  0  0  0  0
  -21.7960   -4.1410   23.6870 C   0  0  0  0  0  3  0  0  0  0  0  0
  -21.9250   -4.9270   22.5290 C   0  0  0  0  0  0  0  0  0  0  0  0
  -22.3330   -4.3550   21.3700 F   0  0  0  0  0  0  0  0  0  0  0  0
  -21.2230   -3.9650   25.9990 F   0  0  0  0  0  0  0  0  0  0  0  0
  -22.8270  -13.6510   21.1520 C   0  0  0  0  0  0  0  0  0  0  0  0
  -22.1390  -12.9450   22.0420 N   0  0  0  0  0  0  0  0  0  0  0  0
  -22.3730  -14.6900   20.6750 O   0  0  0  0  0  0  0  0  0  0  0  0
  -22.5220  -12.1040   22.4500 H   0  0  0  0  0  0  0  0  0  0  0  0
  -21.2180  -13.2510   22.3220 H   0  0  0  0  0  0  0  0  0  0  0  0
  -25.4130  -15.3090   20.2200 N   0  0  0  0  0  0  0  0  0  0  0  0
  -24.6570  -15.9620   20.3920 H   0  0  0  0  0  0  0  0  0  0  0  0
  -26.2480  -15.7570   19.8650 H   0  0  0  0  0  0  0  0  0  0  0  0
  -29.1490  -22.4830   20.9290 C   0  0  0  0  0  2  0  0  0  0  0  0
  -28.6560  -23.7540   20.0650 C   0  0  0  0  0  2  0  0  0  0  0  0
  -28.3580  -25.1280   20.8650 C   0  0  0  0  0  2  0  0  0  0  0  0
  -28.4550  -26.4890   20.2620 O   0  0  0  0  0  0  0  0  0  0  0  0
  -24.6060  -31.8800   23.2340 C   0  0  0  0  0  0  0  0  0  0  0  0
  -27.3270  -27.3250   20.2590 C   0  0  0  0  0  0  0  0  0  0  0  0
  -23.4520  -30.4640   21.5720 C   0  0  0  0  0  3  0  0  0  0  0  0
  -24.9490  -28.9160   20.1870 C   0  0  0  0  0  0  0  0  0  0  0  0
  -25.9910  -30.8060   21.4410 C   0  0  0  0  0  2  0  0  0  0  0  0
  -26.1010  -29.4230   20.8040 C   0  0  0  0  0  0  0  0  0  0  0  0
  -27.2960  -28.6410   20.8230 C   0  0  0  0  0  3  0  0  0  0  0  0
  -26.1530  -26.8660   19.6280 C   0  0  0  0  0  3  0  0  0  0  0  0
  -24.9770  -27.6440   19.5900 C   0  0  0  0  0  3  0  0  0  0  0  0
  -23.7030  -29.7820   20.2000 C   0  0  0  0  0  2  0  0  0  0  0  0
  -24.7010  -31.0680   22.1390 N   0  0  0  0  0  0  0  0  0  0  0  0
  -23.5090  -32.1490   23.7440 O   0  0  0  0  0  0  0  0  0  0  0  0
  -22.7760  -29.4470   22.5210 C   0  0  0  0  0  0  0  0  0  0  0  0
  -21.4500  -29.2740   22.3790 N   0  0  0  0  0  0  0  0  0  0  0  0
  -23.4440  -28.8160   23.3440 O   0  0  0  0  0  0  0  0  0  0  0  0
  -20.9710  -29.8350   21.6890 H   0  0  0  0  0  0  0  0  0  0  0  0
  -18.0590  -28.1160   22.8710 C   0  0  0  0  0  0  0  0  0  0  0  0
  -20.6220  -28.3350   23.1360 C   0  0  0  0  0  3  0  0  0  0  0  0
  -20.7020  -26.9120   22.5350 C   0  0  0  0  0  2  0  0  0  0  0  0
  -19.5920  -26.6230   21.5180 C   0  0  0  0  0  2  0  0  0  0  0  0
  -18.2140  -26.7770   22.1700 C   0  0  0  0  0  2  0  0  0  0  0  0
  -19.1900  -28.8550   23.3100 C   0  0  0  0  0  0  0  0  0  0  0  0
  -18.9900  -30.1100   23.9260 C   0  0  0  0  0  3  0  0  0  0  0  0
  -17.6930  -30.6260   24.1050 C   0  0  0  0  0  3  0  0  0  0  0  0
  -16.5760  -29.8830   23.6810 C   0  0  0  0  0  3  0  0  0  0  0  0
  -16.7600  -28.6300   23.0700 C   0  0  0  0  0  3  0  0  0  0  0  0
  -25.8690  -32.5250   23.8840 C   0  0  0  0  0  3  0  0  0  0  0  0
  -25.5390  -33.9210   24.2090 N   0  0  0  0  0  0  0  0  0  0  0  0
  -25.8660  -34.9770   23.4540 C   0  0  0  0  0  0  0  0  0  0  0  0
  -26.5470  -34.8800   22.4290 O   0  0  0  0  0  0  0  0  0  0  0  0
  -24.9340  -34.0680   25.0040 H   0  0  0  0  0  0  0  0  0  0  0  0
  -24.1190  -36.7480   23.0840 C   0  0  0  0  0  1  0  0  0  0  0  0
  -25.3590  -36.3600   23.9060 C   0  0  0  0  0  3  0  0  0  0  0  0
  -27.4740  -37.2740   24.7530 C   0  0  0  0  0  1  0  0  0  0  0  0
  -26.3800  -37.4250   23.7990 N   0  0  0  0  0  0  0  0  0  0  0  0
  -25.9610  -38.3410   23.9380 H   0  0  0  0  0  0  0  0  0  0  0  0
  -26.3650  -31.7580   25.1720 C   0  0  1  0  0  0  0  0  0  0  0  0
  -25.2510  -31.5070   26.2140 C   0  0  0  0  0  1  0  0  0  0  0  0
  -26.9740  -30.3890   24.7920 C   0  0  0  0  0  1  0  0  0  0  0  0
  -27.4910  -32.5660   25.8600 C   0  0  0  0  0  1  0  0  0  0  0  0
  1 49  1  0
  2  5  1  0
  2  4  2  0
  3  1  2  0
  4  3  1  0
  5  1  1  0
  6  7  1  0
  7  5  1  0
  9  8  1  0
  9  2  1  0
  9 12  1  0
 12 10  1  1
 12 11  1  0
 13 12  1  0
 14 19  1  0
 15 16  1  0
 15 14  1  0
 17 16  1  0
 17 24  1  0
 17 18  1  0
 19 13  1  0
 19 18  1  0
 20 13  2  0
 21 22  2  0
 22 41  1  0
 23 22  1  0
 23 26  1  0
 24 25  1  0
 24 21  1  0
 25 23  2  0
 26 27  1  0
 27 28  2  0
 29 32  1  0
 29 28  1  0
 30 29  2  0
 31 30  1  0
 31 26  2  0
 32 33  1  0
 33 34  1  0
 34 35  2  0
 36 35  1  0
 36 40  1  0
 37 36  2  0
 38 33  2  0
 38 37  1  0
 39 38  1  0
 41 42  1  0
 42 45  1  0
 42 44  1  0
 43 41  2  0
 46 21  1  0
 46 47  1  0
 48 46  1  0
 50 51  1  0
 50 49  1  0
 52 51  1  0
 53 64  2  0
 54 52  1  0
 54 59  1  0
 55 63  1  0
 55 65  1  0
 56 62  1  0
 56 58  1  0
 57 63  1  0
 58 59  2  0
 58 57  1  0
 60 54  2  0
 61 60  1  0
 61 56  2  0
 62 55  1  0
 63 53  1  0
 65 67  2  0
 66 65  1  0
 68 66  1  0
 69 78  2  0
 69 74  1  0
 70 66  1  0
 70 74  1  0
 71 70  1  0
 72 73  1  0
 72 71  1  0
 73 69  1  0
 74 75  2  0
 75 76  1  0
 77 76  2  0
 78 77  1  0
 79 53  1  0
 79 80  1  0
 79 89  1  0
 80 83  1  0
 81 85  1  0
 81 80  1  0
 82 81  2  0
 85 84  1  0
 87 85  1  0
 87 88  1  0
 87 86  1  0
 89 92  1  1
 89 90  1  0
 91 89  1  0
M  ISO  4  12 100  13 100  51 101  52 101
M  END
>  <TORSDO>  (42) 
F 22

>  <SCORE>  (42) 
-12.474

>  <name>  (42) 
41

>  <ligand_id>  (42) 
41

>  <original_smiles>  (42) 
[H]c1c([H])c([H])c2c(c1[H])C([H])([H])C([H])([H])C([H])([H])C2([H])N([H])C(=O)C1([H])N(C(=O)C([H])(N([H])C(=O)C([H])(N([H])C([H])([H])[H])C([H])([H])[H])C(C([H])([H])[H])(C([H])([H])[H])C([H])([H])[H])C([H])([H])c2c([H])c(OC([H])([H])C([H])([H])C([H])([H])c3nnc(C([H])(C([H])([H])[H])C(C(=O)N4C([H])([H])C([H])([H])C([H])([H])C([H])(n5nc(-c6c([H])c([H])c(Oc7c([H])c([H])c(F)c([H])c7F)c([H])c6[H])c(C(=O)N([H])[H])c5N([H])[H])C4([H])[H])(C([H])([H])[H])C([H])([H])[H])n3C([H])([H])C([H])([H])[H])c([H])c([H])c2C1([H])[H]

>  <smiles>  (42) 
[H]c1c([H])c([H])c2c(c1[H])C([H])([H])C([H])([H])C([H])([H])C2([H])N([H])C(=O)C1([H])N(C(=O)C([H])(N([H])C(=O)C([H])(N([H])C([H])([H])[H])C([H])([H])[H])C(C([H])([H])[H])(C([H])([H])[H])C([H])([H])[H])C([H])([H])c2c([H])c(OC([H])([H])C([H])([H])C([H])([H])c3nnc(C([H])(C([H])([H])[H])C(C(=O)N4C([H])([H])C([H])([H])C([H])([H])C([H])(n5nc(-c6c([H])c([H])c(Oc7c([H])c([H])c(F)c([H])c7F)c([H])c6[H])c(C(=O)N([H])[H])c5N([H])[H])C4([H])[H])(C([H])([H])[H])C([H])([H])[H])n3C([H])([H])C([H])([H])[H])c([H])c([H])c2C1([H])[H]

$$$$
42:0:0
     RDKit          3D

 87 95  0  0  1  0  0  0  0  0999 V2000
  -29.3720  -21.1760   19.2930 C   0  0  0  0  0  2  0  0  0  0  0  0
  -30.1550  -18.2470   19.2790 C   0  0  0  0  0  3  0  0  0  0  0  0
  -29.5860  -19.5420   19.8920 C   0  0  0  0  0  0  0  0  0  0  0  0
  -30.1120  -16.8290   19.8750 C   0  0  0  0  0  0  0  0  0  0  0  0
  -29.0260  -19.1870   21.1470 C   0  0  0  0  0  0  0  0  0  0  0  0
  -28.3450  -20.2210   22.0190 C   0  0  0  0  0  1  0  0  0  0  0  0
  -29.5120  -16.8200   21.0930 N   0  0  0  0  0  0  0  0  0  0  0  0
  -29.0130  -17.9260   21.6800 N   0  0  0  0  0  0  0  0  0  0  0  0
  -30.7620  -15.3440   19.4020 C   0  0  0  0  0  0  0  0  0  0  0  0
  -30.5450  -12.9240   18.4800 C   0  0  0  0  0  2  0  0  0  0  0  0
  -29.4690  -12.8150   17.3680 C   0  0  0  0  0  2  0  0  0  0  0  0
  -28.0750  -12.5810   17.9750 C   0  0  0  0  0  2  0  0  0  0  0  0
  -27.8120  -13.5090   19.1880 C   0  0  0  0  0  3  0  0  0  0  0  0
  -28.9980  -13.5580   20.1720 C   0  0  0  0  0  2  0  0  0  0  0  0
  -30.1700  -14.0440   19.4230 N   0  0  0  0  0  0  0  0  0  0  0  0
  -31.8970  -15.3240   18.8950 O   0  0  0  0  0  0  0  0  0  0  0  0
  -25.5840  -14.1140   20.2700 C   0  0  0  0  0  0  0  0  0  0  0  0
  -24.5500  -13.3570   20.7460 C   0  0  0  0  0  0  0  0  0  0  0  0
  -24.9560  -11.9950   20.6040 C   0  0  0  0  0  0  0  0  0  0  0  0
  -26.5510  -13.2160   19.8550 N   0  0  0  0  0  0  0  0  0  0  0  0
  -26.1940  -11.9310   20.1210 N   0  0  0  0  0  0  0  0  0  0  0  0
  -24.2110  -10.7520   20.8440 C   0  0  0  0  0  0  0  0  0  0  0  0
  -24.6590   -9.7890   21.7740 C   0  0  0  0  0  3  0  0  0  0  0  0
  -23.9150   -8.6110   22.0020 C   0  0  0  0  0  3  0  0  0  0  0  0
  -22.7060   -8.3880   21.3010 C   0  0  0  0  0  0  0  0  0  0  0  0
  -22.2750   -9.3390   20.3590 C   0  0  0  0  0  3  0  0  0  0  0  0
  -23.0200  -10.5080   20.1300 C   0  0  0  0  0  3  0  0  0  0  0  0
  -21.9280   -7.2630   21.4400 O   0  0  0  0  0  0  0  0  0  0  0  0
  -21.8160   -6.6100   22.6390 C   0  0  0  0  0  0  0  0  0  0  0  0
  -21.3380   -7.2580   23.8000 C   0  0  0  0  0  3  0  0  0  0  0  0
  -21.1720   -6.5290   24.9950 C   0  0  0  0  0  3  0  0  0  0  0  0
  -21.4730   -5.1550   25.0300 C   0  0  0  0  0  0  0  0  0  0  0  0
  -21.9440   -4.5060   23.8750 C   0  0  0  0  0  3  0  0  0  0  0  0
  -22.1120   -5.2320   22.6820 C   0  0  0  0  0  0  0  0  0  0  0  0
  -22.5450   -4.5970   21.5670 F   0  0  0  0  0  0  0  0  0  0  0  0
  -21.3070   -4.4540   26.1760 F   0  0  0  0  0  0  0  0  0  0  0  0
  -23.2200  -13.8710   21.2150 C   0  0  0  0  0  0  0  0  0  0  0  0
  -22.6040  -13.1930   22.1770 N   0  0  0  0  0  0  0  0  0  0  0  0
  -22.7420  -14.9110   20.7640 O   0  0  0  0  0  0  0  0  0  0  0  0
  -23.0080  -12.3540   22.5680 H   0  0  0  0  0  0  0  0  0  0  0  0
  -21.7180  -13.5210   22.5330 H   0  0  0  0  0  0  0  0  0  0  0  0
  -25.7770  -15.4840   20.1290 N   0  0  0  0  0  0  0  0  0  0  0  0
  -25.0760  -16.1610   20.4080 H   0  0  0  0  0  0  0  0  0  0  0  0
  -26.6390  -15.9140   19.8140 H   0  0  0  0  0  0  0  0  0  0  0  0
  -29.1410  -22.8140   20.0200 C   0  0  0  0  0  3  0  0  0  0  0  0
  -28.4220  -24.3550   19.4270 C   0  0  0  0  0  3  0  0  0  0  0  0
  -28.4600  -25.9390   19.8810 O   0  0  0  0  0  0  0  0  0  0  0  0
  -24.6640  -31.6700   22.9500 C   0  0  0  0  0  0  0  0  0  0  0  0
  -27.4080  -26.9910   19.7980 C   0  0  0  0  0  0  0  0  0  0  0  0
  -23.5280  -30.2820   21.2640 C   0  0  0  0  0  3  0  0  0  0  0  0
  -25.0390  -28.7780   19.7960 C   0  0  0  0  0  0  0  0  0  0  0  0
  -26.0830  -30.5930   21.1380 C   0  0  0  0  0  2  0  0  0  0  0  0
  -26.2060  -29.2080   20.4400 C   0  0  0  0  0  0  0  0  0  0  0  0
  -27.3810  -28.3340   20.4200 C   0  0  0  0  0  3  0  0  0  0  0  0
  -26.2100  -26.7150   19.1010 C   0  0  0  0  0  3  0  0  0  0  0  0
  -25.0650  -27.5550   19.1070 C   0  0  0  0  0  3  0  0  0  0  0  0
  -23.7860  -29.6500   19.8680 C   0  0  0  0  0  2  0  0  0  0  0  0
  -24.7790  -30.8750   21.8370 N   0  0  0  0  0  0  0  0  0  0  0  0
  -23.5640  -31.9040   23.4750 O   0  0  0  0  0  0  0  0  0  0  0  0
  -22.8670  -29.2340   22.1950 C   0  0  0  0  0  0  0  0  0  0  0  0
  -21.5420  -29.0300   22.0640 N   0  0  0  0  0  0  0  0  0  0  0  0
  -23.5520  -28.6030   23.0050 O   0  0  0  0  0  0  0  0  0  0  0  0
  -21.0410  -29.5890   21.3870 H   0  0  0  0  0  0  0  0  0  0  0  0
  -18.1970  -27.7110   22.5450 C   0  0  0  0  0  0  0  0  0  0  0  0
  -20.7500  -28.0430   22.8050 C   0  0  0  0  0  3  0  0  0  0  0  0
  -20.8900  -26.6360   22.1780 C   0  0  0  0  0  2  0  0  0  0  0  0
  -19.7910  -26.3180   21.1580 C   0  0  0  0  0  2  0  0  0  0  0  0
  -18.4100  -26.3970   21.8140 C   0  0  0  0  0  2  0  0  0  0  0  0
  -19.2950  -28.4920   22.9960 C   0  0  0  0  0  0  0  0  0  0  0  0
  -19.0400  -29.7210   23.6430 C   0  0  0  0  0  3  0  0  0  0  0  0
  -17.7210  -30.1700   23.8400 C   0  0  0  0  0  3  0  0  0  0  0  0
  -16.6380  -29.3890   23.4030 C   0  0  0  0  0  3  0  0  0  0  0  0
  -16.8770  -28.1600   22.7610 C   0  0  0  0  0  3  0  0  0  0  0  0
  -25.9100  -32.3380   23.6080 C   0  0  0  0  0  3  0  0  0  0  0  0
  -26.4520  -31.5400   24.8590 C   0  0  1  0  0  0  0  0  0  0  0  0
  -25.3640  -31.2160   25.9100 C   0  0  0  0  0  1  0  0  0  0  0  0
  -27.0950  -30.2030   24.4280 C   0  0  0  0  0  1  0  0  0  0  0  0
  -27.5650  -32.3570   25.5590 C   0  0  0  0  0  1  0  0  0  0  0  0
  -25.5340  -33.7070   24.0050 N   0  0  0  0  0  0  0  0  0  0  0  0
  -25.8250  -34.8150   23.3080 C   0  0  0  0  0  0  0  0  0  0  0  0
  -26.4990  -34.7930   22.2760 O   0  0  0  0  0  0  0  0  0  0  0  0
  -24.9330  -33.7940   24.8110 H   0  0  0  0  0  0  0  0  0  0  0  0
  -24.0240  -36.5580   23.0550 C   0  0  0  0  0  1  0  0  0  0  0  0
  -25.2840  -36.1590   23.8410 C   0  0  0  0  0  3  0  0  0  0  0  0
  -27.3810  -37.0930   24.7150 C   0  0  0  0  0  1  0  0  0  0  0  0
  -26.2730  -37.2580   23.7790 N   0  0  0  0  0  0  0  0  0  0  0  0
  -25.8290  -38.1530   23.9700 H   0  0  0  0  0  0  0  0  0  0  0  0
  1  3  1  0
  1 45  1  0
  2  4  2  0
  2  3  1  0
  3  5  2  0
  4  7  1  0
  5  8  1  0
  5  6  1  0
  7  8  2  0
  9 15  1  0
  9  4  1  0
 10 15  1  0
 11 12  1  0
 11 10  1  0
 13 12  1  0
 13 20  1  0
 13 14  1  0
 15 14  1  0
 16  9  2  0
 17 18  2  0
 18 37  1  0
 19 18  1  0
 19 22  1  0
 20 21  1  0
 20 17  1  0
 21 19  2  0
 22 23  1  0
 23 24  2  0
 25 28  1  0
 25 24  1  0
 26 25  2  0
 27 26  1  0
 27 22  2  0
 28 29  1  0
 29 34  2  0
 29 30  1  0
 30 31  2  0
 31 32  1  0
 32 36  1  0
 33 32  2  0
 34 33  1  0
 35 34  1  0
 37 38  1  0
 38 41  1  0
 38 40  1  0
 39 37  2  0
 42 17  1  0
 42 43  1  0
 44 42  1  0
 46 47  1  0
 46 45  2  0
 48 59  2  0
 49 47  1  0
 49 54  1  0
 50 58  1  0
 50 60  1  0
 51 57  1  0
 51 53  1  0
 52 58  1  0
 53 52  1  0
 54 53  2  0
 55 56  1  0
 55 49  2  0
 56 51  2  0
 57 50  1  0
 58 48  1  0
 60 62  2  0
 61 60  1  0
 63 61  1  0
 64 73  2  0
 64 69  1  0
 65 61  1  0
 65 69  1  0
 66 65  1  0
 67 68  1  0
 67 66  1  0
 68 64  1  0
 69 70  2  0
 70 71  1  0
 72 71  2  0
 73 72  1  0
 74 48  1  0
 74 79  1  0
 74 75  1  0
 75 78  1  1
 75 76  1  0
 77 75  1  0
 79 82  1  0
 80 84  1  0
 80 79  1  0
 81 80  2  0
 84 83  1  0
 86 84  1  0
 86 87  1  0
 86 85  1  0
M  ISO  4   4 100   9 100  46 101  47 101
M  END
>  <TORSDO>  (43) 
F 19

>  <SCORE>  (43) 
-10.883

>  <name>  (43) 
42

>  <ligand_id>  (43) 
42

>  <original_smiles>  (43) 
[H]c1c([H])c([H])c2c(c1[H])C([H])([H])C([H])([H])C([H])([H])C2([H])N([H])C(=O)C1([H])N(C(=O)C([H])(N([H])C(=O)C([H])(N([H])C([H])([H])[H])C([H])([H])[H])C(C([H])([H])[H])(C([H])([H])[H])C([H])([H])[H])C([H])([H])c2c([H])c(OC([H])([H])C([H])([H])C([H])([H])c3c(C([H])([H])[H])nnc(C(=O)N4C([H])([H])C([H])([H])C([H])([H])C([H])(n5nc(-c6c([H])c([H])c(Oc7c([H])c([H])c(F)c([H])c7F)c([H])c6[H])c(C(=O)N([H])[H])c5N([H])[H])C4([H])[H])c3[H])c([H])c([H])c2C1([H])[H]

>  <smiles>  (43) 
[H]c1c([H])c([H])c2c(c1[H])C([H])([H])C([H])([H])C([H])([H])C2([H])N([H])C(=O)C1([H])N(C(=O)C([H])(N([H])C(=O)C([H])(N([H])C([H])([H])[H])C([H])([H])[H])C(C([H])([H])[H])(C([H])([H])[H])C([H])([H])[H])C([H])([H])c2c([H])c(OC([H])([H])C([H])([H])C([H])([H])c3c(C([H])([H])[H])nnc(C(=O)N4C([H])([H])C([H])([H])C([H])([H])C([H])(n5nc(-c6c([H])c([H])c(Oc7c([H])c([H])c(F)c([H])c7F)c([H])c6[H])c(C(=O)N([H])[H])c5N([H])[H])C4([H])[H])c3[H])c([H])c([H])c2C1([H])[H]

$$$$
43:0:0
     RDKit          3D

 92100  0  0  1  0  0  0  0  0999 V2000
  -30.4790  -21.9740   22.4460 C   0  0  0  0  0  3  0  0  0  0  0  0
  -29.8510  -23.0190   21.7500 C   0  0  0  0  0  3  0  0  0  0  0  0
  -30.4130  -20.6410   21.9760 C   0  0  0  0  0  0  0  0  0  0  0  0
  -29.1440  -22.7390   20.5780 C   0  0  0  0  0  0  0  0  0  0  0  0
  -29.7510  -20.3500   20.7430 C   0  0  0  0  0  0  0  0  0  0  0  0
  -31.0370  -19.5930   22.8850 C   0  0  0  0  0  1  0  0  0  0  0  0
  -29.1080  -21.4240   20.1130 N   0  0  0  0  0  0  0  0  0  0  0  0
  -29.3440  -18.9110   18.6540 C   0  0  0  0  0  1  0  0  0  0  0  0
  -28.1440  -18.3910   20.7650 C   0  0  0  0  0  1  0  0  0  0  0  0
  -29.5010  -18.8360   20.1830 C   0  0  2  0  0  0  0  0  0  0  0  0
  -30.5920  -17.6120   20.4330 C   0  0  0  0  0  2  0  0  0  0  0  0
  -30.9890  -14.9770   20.0640 C   0  0  0  0  0  0  0  0  0  0  0  0
  -30.8190  -12.6170   19.1870 C   0  0  0  0  0  2  0  0  0  0  0  0
  -29.8770  -12.5600   17.9600 C   0  0  0  0  0  2  0  0  0  0  0  0
  -28.4100  -12.4200   18.4110 C   0  0  0  0  0  2  0  0  0  0  0  0
  -28.0360  -13.4210   19.5360 C   0  0  0  0  0  3  0  0  0  0  0  0
  -29.0870  -13.4140   20.6660 C   0  0  0  0  0  2  0  0  0  0  0  0
  -30.3780  -13.7400   20.0530 N   0  0  0  0  0  0  0  0  0  0  0  0
  -32.1710  -15.0640   19.7090 O   0  0  0  0  0  0  0  0  0  0  0  0
  -30.2110  -16.1140   20.3150 N   0  0  0  0  0  0  0  0  0  0  0  0
  -29.2360  -15.9140   20.4760 H   0  0  0  0  0  0  0  0  0  0  0  0
  -25.6980  -14.1160   20.3170 C   0  0  0  0  0  0  0  0  0  0  0  0
  -24.6070  -13.3890   20.7080 C   0  0  0  0  0  0  0  0  0  0  0  0
  -25.0060  -12.0180   20.6580 C   0  0  0  0  0  0  0  0  0  0  0  0
  -26.6910  -13.1890   20.0500 N   0  0  0  0  0  0  0  0  0  0  0  0
  -26.2850  -11.9210   20.3180 N   0  0  0  0  0  0  0  0  0  0  0  0
  -24.2290  -10.7890   20.8550 C   0  0  0  0  0  0  0  0  0  0  0  0
  -24.6240   -9.8030   21.7860 C   0  0  0  0  0  3  0  0  0  0  0  0
  -23.8480   -8.6380   21.9660 C   0  0  0  0  0  3  0  0  0  0  0  0
  -22.6630   -8.4520   21.2160 C   0  0  0  0  0  0  0  0  0  0  0  0
  -22.2890   -9.4240   20.2700 C   0  0  0  0  0  3  0  0  0  0  0  0
  -23.0660  -10.5790   20.0890 C   0  0  0  0  0  3  0  0  0  0  0  0
  -21.8580   -7.3420   21.3080 O   0  0  0  0  0  0  0  0  0  0  0  0
  -21.7520   -6.6230   22.4720 C   0  0  0  0  0  0  0  0  0  0  0  0
  -21.3330   -7.2210   23.6810 C   0  0  0  0  0  3  0  0  0  0  0  0
  -21.1740   -6.4310   24.8380 C   0  0  0  0  0  3  0  0  0  0  0  0
  -21.4220   -5.0470   24.7870 C   0  0  0  0  0  0  0  0  0  0  0  0
  -21.8300   -4.4490   23.5830 C   0  0  0  0  0  3  0  0  0  0  0  0
  -21.9940   -5.2350   22.4270 C   0  0  0  0  0  0  0  0  0  0  0  0
  -22.3680   -4.6500   21.2650 F   0  0  0  0  0  0  0  0  0  0  0  0
  -21.2600   -4.2860   25.8950 F   0  0  0  0  0  0  0  0  0  0  0  0
  -23.2400  -13.9290   21.0110 C   0  0  0  0  0  0  0  0  0  0  0  0
  -22.5020  -13.2680   21.8970 N   0  0  0  0  0  0  0  0  0  0  0  0
  -22.8340  -14.9700   20.4950 O   0  0  0  0  0  0  0  0  0  0  0  0
  -22.8390  -12.4250   22.3360 H   0  0  0  0  0  0  0  0  0  0  0  0
  -21.5860  -13.6140   22.1440 H   0  0  0  0  0  0  0  0  0  0  0  0
  -25.9200  -15.4790   20.1370 N   0  0  0  0  0  0  0  0  0  0  0  0
  -25.1690  -16.1550   20.2340 H   0  0  0  0  0  0  0  0  0  0  0  0
  -26.7480  -15.8650   19.7010 H   0  0  0  0  0  0  0  0  0  0  0  0
  -28.3010  -23.9000   19.8930 C   0  0  0  0  0  2  0  0  0  0  0  0
  -28.9010  -25.3670   19.5360 C   0  0  0  0  0  2  0  0  0  0  0  0
  -28.6890  -26.6640   20.2630 O   0  0  0  0  0  0  0  0  0  0  0  0
  -24.5840  -31.8160   23.2190 C   0  0  0  0  0  0  0  0  0  0  0  0
  -27.5290  -27.4570   20.1440 C   0  0  0  0  0  0  0  0  0  0  0  0
  -23.5090  -30.3940   21.5130 C   0  0  0  0  0  3  0  0  0  0  0  0
  -25.0860  -28.9600   20.0930 C   0  0  0  0  0  0  0  0  0  0  0  0
  -26.0330  -30.8560   21.4110 C   0  0  0  0  0  2  0  0  0  0  0  0
  -26.2090  -29.4970   20.7330 C   0  0  0  0  0  0  0  0  0  0  0  0
  -27.4320  -28.7570   20.7450 C   0  0  0  0  0  3  0  0  0  0  0  0
  -26.3750  -26.9790   19.4830 C   0  0  0  0  0  3  0  0  0  0  0  0
  -25.1720  -27.7070   19.4650 C   0  0  0  0  0  3  0  0  0  0  0  0
  -23.8010  -29.7660   20.1260 C   0  0  0  0  0  2  0  0  0  0  0  0
  -24.7250  -31.0380   22.1050 N   0  0  0  0  0  0  0  0  0  0  0  0
  -23.4730  -32.0160   23.7290 O   0  0  0  0  0  0  0  0  0  0  0  0
  -22.8780  -29.3160   22.4270 C   0  0  0  0  0  0  0  0  0  0  0  0
  -21.5660  -29.0720   22.2610 N   0  0  0  0  0  0  0  0  0  0  0  0
  -23.5690  -28.7010   23.2420 O   0  0  0  0  0  0  0  0  0  0  0  0
  -21.0560  -29.6320   21.5900 H   0  0  0  0  0  0  0  0  0  0  0  0
  -18.2460  -27.7040   22.6830 C   0  0  0  0  0  0  0  0  0  0  0  0
  -20.7880  -28.0710   22.9900 C   0  0  0  0  0  3  0  0  0  0  0  0
  -20.9610  -26.6660   22.3670 C   0  0  0  0  0  2  0  0  0  0  0  0
  -19.8870  -26.3320   21.3270 C   0  0  0  0  0  2  0  0  0  0  0  0
  -18.4930  -26.3910   21.9580 C   0  0  0  0  0  2  0  0  0  0  0  0
  -19.3250  -28.4980   23.1550 C   0  0  0  0  0  0  0  0  0  0  0  0
  -19.0440  -29.7280   23.7890 C   0  0  0  0  0  3  0  0  0  0  0  0
  -17.7180  -30.1650   23.9590 C   0  0  0  0  0  3  0  0  0  0  0  0
  -16.6520  -29.3680   23.5080 C   0  0  0  0  0  3  0  0  0  0  0  0
  -16.9190  -28.1390   22.8780 C   0  0  0  0  0  3  0  0  0  0  0  0
  -25.8070  -32.5110   23.8930 C   0  0  0  0  0  3  0  0  0  0  0  0
  -26.2950  -31.7680   25.1960 C   0  0  1  0  0  0  0  0  0  0  0  0
  -25.1650  -31.4860   26.2160 C   0  0  0  0  0  1  0  0  0  0  0  0
  -26.9550  -30.4120   24.8430 C   0  0  0  0  0  1  0  0  0  0  0  0
  -27.3790  -32.6170   25.9010 C   0  0  0  0  0  1  0  0  0  0  0  0
  -25.4260  -33.8940   24.2030 N   0  0  0  0  0  0  0  0  0  0  0  0
  -25.7320  -34.9550   23.4440 C   0  0  0  0  0  0  0  0  0  0  0  0
  -26.4410  -34.8720   22.4350 O   0  0  0  0  0  0  0  0  0  0  0  0
  -24.8100  -34.0280   24.9930 H   0  0  0  0  0  0  0  0  0  0  0  0
  -23.9350  -36.6630   23.0180 C   0  0  0  0  0  1  0  0  0  0  0  0
  -25.1680  -36.3260   23.8720 C   0  0  0  0  0  3  0  0  0  0  0  0
  -27.2330  -37.3180   24.7550 C   0  0  0  0  0  1  0  0  0  0  0  0
  -26.1520  -37.4230   23.7760 N   0  0  0  0  0  0  0  0  0  0  0  0
  -25.7020  -38.3250   23.9060 H   0  0  0  0  0  0  0  0  0  0  0  0
  2  1  2  0
  3  1  1  0
  3  6  1  0
  4  2  1  0
  5  3  2  0
  7  4  2  0
  7  5  1  0
 10  8  1  6
 10 11  1  0
 10  5  1  0
 10  9  1  0
 12 20  1  0
 13 18  1  0
 14 15  1  0
 14 13  1  0
 16 15  1  0
 16 25  1  0
 16 17  1  0
 18 12  1  0
 18 17  1  0
 19 12  2  0
 20 11  1  0
 20 21  1  0
 22 23  2  0
 23 42  1  0
 24 23  1  0
 24 27  1  0
 25 22  1  0
 25 26  1  0
 26 24  2  0
 27 28  1  0
 28 29  2  0
 30 33  1  0
 30 29  1  0
 31 30  2  0
 32 31  1  0
 32 27  2  0
 33 34  1  0
 34 35  1  0
 35 36  2  0
 37 36  1  0
 37 41  1  0
 38 37  2  0
 39 34  2  0
 39 38  1  0
 40 39  1  0
 42 43  1  0
 43 46  1  0
 43 45  1  0
 44 42  2  0
 47 48  1  0
 47 22  1  0
 49 47  1  0
 50  4  1  0
 51 50  1  0
 51 52  1  0
 53 64  2  0
 54 52  1  0
 54 59  1  0
 55 63  1  0
 55 65  1  0
 56 62  1  0
 56 58  1  0
 57 63  1  0
 58 59  2  0
 58 57  1  0
 60 54  2  0
 61 60  1  0
 61 56  2  0
 62 55  1  0
 63 53  1  0
 65 67  2  0
 66 65  1  0
 68 66  1  0
 69 78  2  0
 69 74  1  0
 70 66  1  0
 70 74  1  0
 71 70  1  0
 72 73  1  0
 72 71  1  0
 73 69  1  0
 74 75  2  0
 75 76  1  0
 77 76  2  0
 78 77  1  0
 79 53  1  0
 79 84  1  0
 79 80  1  0
 80 83  1  1
 80 81  1  0
 82 80  1  0
 84 87  1  0
 85 89  1  0
 85 84  1  0
 86 85  2  0
 89 88  1  0
 91 89  1  0
 91 92  1  0
 91 90  1  0
M  ISO  4  12 100  20 100  51 101  52 101
M  END
>  <TORSDO>  (44) 
F 20

>  <SCORE>  (44) 
-13.386

>  <name>  (44) 
43

>  <ligand_id>  (44) 
43

>  <original_smiles>  (44) 
[H]c1c(C([H])([H])C([H])([H])Oc2c([H])c([H])c3c(c2[H])C([H])([H])N(C(=O)C([H])(N([H])C(=O)C([H])(N([H])C([H])([H])[H])C([H])([H])[H])C(C([H])([H])[H])(C([H])([H])[H])C([H])([H])[H])C([H])(C(=O)N([H])C2([H])c4c([H])c([H])c([H])c([H])c4C([H])([H])C([H])([H])C2([H])[H])C3([H])[H])nc(C(C([H])([H])[H])(C([H])([H])[H])C([H])([H])N([H])C(=O)N2C([H])([H])C([H])([H])C([H])([H])C([H])(n3nc(-c4c([H])c([H])c(Oc5c([H])c([H])c(F)c([H])c5F)c([H])c4[H])c(C(=O)N([H])[H])c3N([H])[H])C2([H])[H])c(C([H])([H])[H])c1[H]

>  <smiles>  (44) 
[H]c1c(C([H])([H])C([H])([H])Oc2c([H])c([H])c3c(c2[H])C([H])([H])N(C(=O)C([H])(N([H])C(=O)C([H])(N([H])C([H])([H])[H])C([H])([H])[H])C(C([H])([H])[H])(C([H])([H])[H])C([H])([H])[H])C([H])(C(=O)N([H])C2([H])c4c([H])c([H])c([H])c([H])c4C([H])([H])C([H])([H])C2([H])[H])C3([H])[H])nc(C(C([H])([H])[H])(C([H])([H])[H])C([H])([H])N([H])C(=O)N2C([H])([H])C([H])([H])C([H])([H])C([H])(n3nc(-c4c([H])c([H])c(Oc5c([H])c([H])c(F)c([H])c5F)c([H])c4[H])c(C(=O)N([H])[H])c3N([H])[H])C2([H])[H])c(C([H])([H])[H])c1[H]

$$$$
44:0:0
     RDKit          3D

 98106  0  0  1  0  0  0  0  0999 V2000
  -30.1500  -24.3510   20.9390 C   0  0  0  0  0  3  0  0  0  0  0  0
  -30.9230  -23.2450   21.3170 C   0  0  0  0  0  0  0  0  0  0  0  0
  -28.9630  -24.0890   20.2470 C   0  0  0  0  0  0  0  0  0  0  0  0
  -29.3910  -21.8030   20.3720 C   0  0  0  0  0  0  0  0  0  0  0  0
  -32.2110  -23.4220   22.0930 C   0  0  0  0  0  1  0  0  0  0  0  0
  -30.5160  -21.9830   21.0680 N   0  0  0  0  0  0  0  0  0  0  0  0
  -28.6440  -22.8120   19.9100 N   0  0  0  0  0  0  0  0  0  0  0  0
  -27.5290  -20.3080   19.4160 C   0  0  0  0  0  1  0  0  0  0  0  0
  -28.8430  -20.3520   20.2370 C   0  0  0  0  0  3  0  0  0  0  0  0
  -29.8860  -19.2590   19.8210 C   0  0  1  0  0  0  0  0  0  0  0  0
  -30.1040  -19.2830   18.5050 F   0  0  0  0  0  0  0  0  0  0  0  0
  -31.0390  -19.5470   20.4270 F   0  0  0  0  0  0  0  0  0  0  0  0
  -29.5680  -17.7810   20.2320 C   0  0  2  0  0  0  0  0  0  0  0  0
  -28.4340  -17.3960   19.6500 F   0  0  0  0  0  0  0  0  0  0  0  0
  -29.4010  -17.7110   21.5530 F   0  0  0  0  0  0  0  0  0  0  0  0
  -30.6790  -16.7800   19.8130 C   0  0  0  0  0  2  0  0  0  0  0  0
  -31.2360  -14.3820   19.8450 C   0  0  0  0  0  0  0  0  0  0  0  0
  -30.8420  -12.1760   18.8210 C   0  0  0  0  0  2  0  0  0  0  0  0
  -29.8370  -12.3820   17.6670 C   0  0  0  0  0  2  0  0  0  0  0  0
  -28.3930  -12.3050   18.1900 C   0  0  0  0  0  2  0  0  0  0  0  0
  -28.1650  -13.2100   19.4290 C   0  0  0  0  0  3  0  0  0  0  0  0
  -29.2620  -12.9650   20.4870 C   0  0  0  0  0  2  0  0  0  0  0  0
  -30.5650  -13.2000   19.8420 N   0  0  0  0  0  0  0  0  0  0  0  0
  -32.3150  -14.5480   19.2660 O   0  0  0  0  0  0  0  0  0  0  0  0
  -30.5350  -15.4160   20.3380 N   0  0  0  0  0  0  0  0  0  0  0  0
  -29.6960  -15.2060   20.8570 H   0  0  0  0  0  0  0  0  0  0  0  0
  -25.8730  -13.9540   20.3370 C   0  0  0  0  0  0  0  0  0  0  0  0
  -24.7920  -13.2380   20.7710 C   0  0  0  0  0  0  0  0  0  0  0  0
  -25.1630  -11.8600   20.6690 C   0  0  0  0  0  0  0  0  0  0  0  0
  -26.8350  -13.0160   19.9980 N   0  0  0  0  0  0  0  0  0  0  0  0
  -26.4150  -11.7510   20.2550 N   0  0  0  0  0  0  0  0  0  0  0  0
  -24.3790  -10.6400   20.8840 C   0  0  0  0  0  0  0  0  0  0  0  0
  -24.7590   -9.6750   21.8440 C   0  0  0  0  0  3  0  0  0  0  0  0
  -23.9770   -8.5170   22.0430 C   0  0  0  0  0  3  0  0  0  0  0  0
  -22.8010   -8.3160   21.2820 C   0  0  0  0  0  0  0  0  0  0  0  0
  -22.4410   -9.2680   20.3120 C   0  0  0  0  0  3  0  0  0  0  0  0
  -23.2230  -10.4170   20.1110 C   0  0  0  0  0  3  0  0  0  0  0  0
  -21.9970   -7.2080   21.3900 O   0  0  0  0  0  0  0  0  0  0  0  0
  -21.8180   -6.5580   22.5850 C   0  0  0  0  0  0  0  0  0  0  0  0
  -21.3220   -7.2250   23.7270 C   0  0  0  0  0  3  0  0  0  0  0  0
  -21.0930   -6.5050   24.9160 C   0  0  0  0  0  3  0  0  0  0  0  0
  -21.3460   -5.1210   24.9620 C   0  0  0  0  0  0  0  0  0  0  0  0
  -21.8340   -4.4560   23.8230 C   0  0  0  0  0  3  0  0  0  0  0  0
  -22.0650   -5.1720   22.6370 C   0  0  0  0  0  0  0  0  0  0  0  0
  -22.5180   -4.5230   21.5360 F   0  0  0  0  0  0  0  0  0  0  0  0
  -21.1160   -4.4260   26.1000 F   0  0  0  0  0  0  0  0  0  0  0  0
  -23.4550  -13.7860   21.1740 C   0  0  0  0  0  0  0  0  0  0  0  0
  -22.7650  -13.1150   22.0870 N   0  0  0  0  0  0  0  0  0  0  0  0
  -23.0340  -14.8470   20.7070 O   0  0  0  0  0  0  0  0  0  0  0  0
  -23.1190  -12.2510   22.4700 H   0  0  0  0  0  0  0  0  0  0  0  0
  -21.8690  -13.4610   22.4070 H   0  0  0  0  0  0  0  0  0  0  0  0
  -26.1110  -15.3170   20.1900 N   0  0  0  0  0  0  0  0  0  0  0  0
  -25.3950  -16.0050   20.3850 H   0  0  0  0  0  0  0  0  0  0  0  0
  -26.9730  -15.7290   19.8560 H   0  0  0  0  0  0  0  0  0  0  0  0
  -27.8660  -25.1540   20.0640 C   0  0  0  0  0  3  0  0  0  0  0  0
  -26.1320  -23.7940   21.5460 C   0  0  0  0  0  1  0  0  0  0  0  0
  -26.8730  -25.1170   21.2820 C   0  0  0  0  0  2  0  0  0  0  0  0
  -28.3110  -26.5380   19.8260 O   0  0  0  0  0  0  0  0  0  0  0  0
  -24.5250  -31.6090   23.0840 C   0  0  0  0  0  0  0  0  0  0  0  0
  -27.2490  -27.4210   19.7000 C   0  0  0  0  0  0  0  0  0  0  0  0
  -23.3650  -30.3260   21.3180 C   0  0  0  0  0  3  0  0  0  0  0  0
  -24.8610  -28.9410   19.7870 C   0  0  0  0  0  0  0  0  0  0  0  0
  -25.8940  -30.7120   21.2030 C   0  0  0  0  0  2  0  0  0  0  0  0
  -26.0060  -29.4040   20.4450 C   0  0  0  0  0  0  0  0  0  0  0  0
  -27.2070  -28.6490   20.4100 C   0  0  0  0  0  3  0  0  0  0  0  0
  -26.1020  -27.0300   18.9690 C   0  0  0  0  0  3  0  0  0  0  0  0
  -24.9050  -27.7550   19.0400 C   0  0  0  0  0  3  0  0  0  0  0  0
  -23.6080  -29.7790   19.8890 C   0  0  0  0  0  2  0  0  0  0  0  0
  -24.6110  -30.8910   21.9290 N   0  0  0  0  0  0  0  0  0  0  0  0
  -23.4300  -31.8310   23.6180 O   0  0  0  0  0  0  0  0  0  0  0  0
  -22.7050  -29.2250   22.1770 C   0  0  0  0  0  0  0  0  0  0  0  0
  -21.3750  -29.0790   22.0480 N   0  0  0  0  0  0  0  0  0  0  0  0
  -23.3860  -28.5120   22.9210 O   0  0  0  0  0  0  0  0  0  0  0  0
  -20.8870  -29.7150   21.4330 H   0  0  0  0  0  0  0  0  0  0  0  0
  -17.9740  -27.9530   22.5490 C   0  0  0  0  0  0  0  0  0  0  0  0
  -20.5480  -28.0840   22.7300 C   0  0  0  0  0  3  0  0  0  0  0  0
  -20.5630  -26.7320   21.9800 C   0  0  0  0  0  2  0  0  0  0  0  0
  -19.4060  -26.5730   20.9870 C   0  0  0  0  0  2  0  0  0  0  0  0
  -18.0620  -26.6900   21.7100 C   0  0  0  0  0  2  0  0  0  0  0  0
  -19.1390  -28.6170   23.0180 C   0  0  0  0  0  0  0  0  0  0  0  0
  -18.9940  -29.8000   23.7750 C   0  0  0  0  0  3  0  0  0  0  0  0
  -17.7180  -30.3180   24.0630 C   0  0  0  0  0  3  0  0  0  0  0  0
  -16.5690  -29.6510   23.6020 C   0  0  0  0  0  3  0  0  0  0  0  0
  -16.6970  -28.4710   22.8530 C   0  0  0  0  0  3  0  0  0  0  0  0
  -25.7930  -32.2040   23.7720 C   0  0  0  0  0  3  0  0  0  0  0  0
  -25.4960  -33.6010   24.1170 N   0  0  0  0  0  0  0  0  0  0  0  0
  -25.8560  -34.6580   23.3760 C   0  0  0  0  0  0  0  0  0  0  0  0
  -26.5480  -34.5600   22.3590 O   0  0  0  0  0  0  0  0  0  0  0  0
  -24.8950  -33.7520   24.9130 H   0  0  0  0  0  0  0  0  0  0  0  0
  -24.1580  -36.4730   23.0050 C   0  0  0  0  0  1  0  0  0  0  0  0
  -25.3740  -36.0460   23.8420 C   0  0  0  0  0  3  0  0  0  0  0  0
  -27.4930  -36.9020   24.7380 C   0  0  0  0  0  1  0  0  0  0  0  0
  -26.4190  -37.0880   23.7640 N   0  0  0  0  0  0  0  0  0  0  0  0
  -26.0170  -38.0110   23.9070 H   0  0  0  0  0  0  0  0  0  0  0  0
  -26.2360  -31.3980   25.0560 C   0  0  1  0  0  0  0  0  0  0  0  0
  -25.0870  -31.1620   26.0650 C   0  0  0  0  0  1  0  0  0  0  0  0
  -26.8010  -30.0160   24.6550 C   0  0  0  0  0  1  0  0  0  0  0  0
  -27.3770  -32.1480   25.7890 C   0  0  0  0  0  1  0  0  0  0  0  0
  1  2  2  0
  2  5  1  0
  3  1  1  0
  4  6  2  0
  6  2  1  0
  7  3  2  0
  7  4  1  0
  9  8  1  0
  9  4  1  0
 10 13  1  0
 10  9  1  0
 10 12  1  1
 11 10  1  0
 13 15  1  1
 14 13  1  0
 16 13  1  0
 16 25  1  0
 17 25  1  0
 18 23  1  0
 19 20  1  0
 19 18  1  0
 21 20  1  0
 21 30  1  0
 21 22  1  0
 23 17  1  0
 23 22  1  0
 24 17  2  0
 25 26  1  0
 27 28  2  0
 28 47  1  0
 29 28  1  0
 29 32  1  0
 30 31  1  0
 30 27  1  0
 31 29  2  0
 32 33  1  0
 33 34  2  0
 35 38  1  0
 35 34  1  0
 36 35  2  0
 37 36  1  0
 37 32  2  0
 38 39  1  0
 39 44  2  0
 39 40  1  0
 40 41  2  0
 41 42  1  0
 42 46  1  0
 43 42  2  0
 44 43  1  0
 45 44  1  0
 47 48  1  0
 48 51  1  0
 48 50  1  0
 49 47  2  0
 52 27  1  0
 52 53  1  0
 54 52  1  0
 55  3  1  0
 55 57  1  0
 57 56  1  0
 58 55  1  0
 59 70  2  0
 60 58  1  0
 60 65  1  0
 61 69  1  0
 61 71  1  0
 62 68  1  0
 62 64  1  0
 63 69  1  0
 64 63  1  0
 65 64  2  0
 66 67  1  0
 66 60  2  0
 67 62  2  0
 68 61  1  0
 69 59  1  0
 71 73  2  0
 72 71  1  0
 74 72  1  0
 75 84  2  0
 75 80  1  0
 76 72  1  0
 76 80  1  0
 77 76  1  0
 78 79  1  0
 78 77  1  0
 79 75  1  0
 80 81  2  0
 81 82  1  0
 83 82  2  0
 84 83  1  0
 85 59  1  0
 85 86  1  0
 85 95  1  0
 86 89  1  0
 87 91  1  0
 87 86  1  0
 88 87  2  0
 91 90  1  0
 93 91  1  0
 93 94  1  0
 93 92  1  0
 95 98  1  1
 95 96  1  0
 97 95  1  0
M  ISO  4  17 100  25 100  55 101  58 101
M  END
>  <TORSDO>  (45) 
F 22

>  <SCORE>  (45) 
-10.586

>  <name>  (45) 
44

>  <ligand_id>  (45) 
44

>  <original_smiles>  (45) 
[H]c1c(C([H])([H])[H])nc(C([H])(C([H])([H])[H])C(F)(F)C(F)(F)C([H])([H])N([H])C(=O)N2C([H])([H])C([H])([H])C([H])([H])C([H])(n3nc(-c4c([H])c([H])c(Oc5c([H])c([H])c(F)c([H])c5F)c([H])c4[H])c(C(=O)N([H])[H])c3N([H])[H])C2([H])[H])nc1C([H])(Oc1c([H])c([H])c2c(c1[H])C([H])([H])N(C(=O)C([H])(N([H])C(=O)C([H])(N([H])C([H])([H])[H])C([H])([H])[H])C(C([H])([H])[H])(C([H])([H])[H])C([H])([H])[H])C([H])(C(=O)N([H])C1([H])c3c([H])c([H])c([H])c([H])c3C([H])([H])C([H])([H])C1([H])[H])C2([H])[H])C([H])([H])C([H])([H])[H]

>  <smiles>  (45) 
[H]c1c(C([H])([H])[H])nc(C([H])(C([H])([H])[H])C(F)(F)C(F)(F)C([H])([H])N([H])C(=O)N2C([H])([H])C([H])([H])C([H])([H])C([H])(n3nc(-c4c([H])c([H])c(Oc5c([H])c([H])c(F)c([H])c5F)c([H])c4[H])c(C(=O)N([H])[H])c3N([H])[H])C2([H])[H])nc1C([H])(Oc1c([H])c([H])c2c(c1[H])C([H])([H])N(C(=O)C([H])(N([H])C(=O)C([H])(N([H])C([H])([H])[H])C([H])([H])[H])C(C([H])([H])[H])(C([H])([H])[H])C([H])([H])[H])C([H])(C(=O)N([H])C1([H])c3c([H])c([H])c([H])c([H])c3C([H])([H])C([H])([H])C1([H])[H])C2([H])[H])C([H])([H])C([H])([H])[H]

$$$$
45:0:0
     RDKit          3D

 96104  0  0  1  0  0  0  0  0999 V2000
  -30.1430  -18.8920   21.3130 C   0  0  0  0  0  3  0  0  0  0  0  0
  -29.1120  -18.5630   19.2430 C   0  0  0  0  0  3  0  0  0  0  0  0
  -29.7010  -17.9240   20.3700 C   0  0  0  0  0  0  0  0  0  0  0  0
  -29.9890  -20.3230   21.1500 C   0  0  0  0  0  0  0  0  0  0  0  0
  -29.3930  -20.8800   19.9590 C   0  0  0  0  0  0  0  0  0  0  0  0
  -28.9680  -19.9300   19.0580 N   0  0  0  0  0  0  0  0  0  0  0  0
  -29.5970  -22.4470   17.9570 C   0  0  0  0  0  1  0  0  0  0  0  0
  -30.6370  -23.2050   20.0060 C   0  0  0  0  0  1  0  0  0  0  0  0
  -29.3700  -22.4760   19.4900 C   0  0  2  0  0  0  0  0  0  0  0  0
  -27.5020  -23.4570   21.1770 C   0  0  0  0  0  1  0  0  0  0  0  0
  -28.0790  -23.4950   19.7540 C   0  0  0  0  0  3  0  0  0  0  0  0
  -27.9050  -25.0330   19.1380 C   0  0  0  0  0  2  0  0  0  0  0  0
  -27.8770  -26.3900   19.8200 O   0  0  0  0  0  0  0  0  0  0  0  0
  -24.5060  -31.8850   23.2090 C   0  0  0  0  0  0  0  0  0  0  0  0
  -26.7900  -27.3130   19.8180 C   0  0  0  0  0  0  0  0  0  0  0  0
  -23.1720  -30.5960   21.5800 C   0  0  0  0  0  3  0  0  0  0  0  0
  -24.4880  -29.0540   20.0090 C   0  0  0  0  0  0  0  0  0  0  0  0
  -25.7130  -30.8220   21.2750 C   0  0  0  0  0  2  0  0  0  0  0  0
  -25.7070  -29.4640   20.5620 C   0  0  0  0  0  0  0  0  0  0  0  0
  -26.8530  -28.6040   20.4600 C   0  0  0  0  0  3  0  0  0  0  0  0
  -25.5390  -26.9750   19.2530 C   0  0  0  0  0  3  0  0  0  0  0  0
  -24.4090  -27.8170   19.3450 C   0  0  0  0  0  3  0  0  0  0  0  0
  -23.2900  -29.9720   20.1630 C   0  0  0  0  0  2  0  0  0  0  0  0
  -24.4860  -31.1200   22.0760 N   0  0  0  0  0  0  0  0  0  0  0  0
  -23.4630  -32.1710   23.8140 O   0  0  0  0  0  0  0  0  0  0  0  0
  -22.5260  -29.5630   22.5370 C   0  0  0  0  0  0  0  0  0  0  0  0
  -21.2010  -29.3690   22.4170 N   0  0  0  0  0  0  0  0  0  0  0  0
  -23.2180  -28.9410   23.3470 O   0  0  0  0  0  0  0  0  0  0  0  0
  -20.7010  -29.9280   21.7410 H   0  0  0  0  0  0  0  0  0  0  0  0
  -17.8640  -28.0280   22.8450 C   0  0  0  0  0  0  0  0  0  0  0  0
  -20.4010  -28.4080   23.1800 C   0  0  0  0  0  3  0  0  0  0  0  0
  -20.5800  -26.9710   22.6370 C   0  0  0  0  0  2  0  0  0  0  0  0
  -19.5230  -26.5810   21.5980 C   0  0  0  0  0  2  0  0  0  0  0  0
  -18.1180  -26.6760   22.2010 C   0  0  0  0  0  2  0  0  0  0  0  0
  -18.9350  -28.8490   23.2900 C   0  0  0  0  0  0  0  0  0  0  0  0
  -18.6430  -30.1100   23.8530 C   0  0  0  0  0  3  0  0  0  0  0  0
  -17.3120  -30.5540   23.9770 C   0  0  0  0  0  3  0  0  0  0  0  0
  -16.2560  -29.7310   23.5480 C   0  0  0  0  0  3  0  0  0  0  0  0
  -16.5320  -28.4720   22.9880 C   0  0  0  0  0  3  0  0  0  0  0  0
  -25.8390  -32.4560   23.7830 C   0  0  0  0  0  3  0  0  0  0  0  0
  -25.6010  -33.8630   24.1420 N   0  0  0  0  0  0  0  0  0  0  0  0
  -25.9560  -34.9140   23.3940 C   0  0  0  0  0  0  0  0  0  0  0  0
  -26.5830  -34.7980   22.3370 O   0  0  0  0  0  0  0  0  0  0  0  0
  -25.0380  -34.0250   24.9650 H   0  0  0  0  0  0  0  0  0  0  0  0
  -24.2940  -36.7900   23.1500 C   0  0  0  0  0  1  0  0  0  0  0  0
  -25.5530  -36.3140   23.8950 C   0  0  0  0  0  3  0  0  0  0  0  0
  -27.7600  -37.0980   24.6400 C   0  0  0  0  0  1  0  0  0  0  0  0
  -26.6250  -37.3240   23.7490 N   0  0  0  0  0  0  0  0  0  0  0  0
  -26.2650  -38.2580   23.9280 H   0  0  0  0  0  0  0  0  0  0  0  0
  -26.3720  -31.6520   25.0300 C   0  0  1  0  0  0  0  0  0  0  0  0
  -25.3210  -31.4630   26.1490 C   0  0  0  0  0  1  0  0  0  0  0  0
  -26.8640  -30.2480   24.6060 C   0  0  0  0  0  1  0  0  0  0  0  0
  -27.5900  -32.3850   25.6430 C   0  0  0  0  0  1  0  0  0  0  0  0
  -29.4930  -16.3610   20.7740 C   0  0  1  0  0  0  0  0  0  0  0  0
  -28.9870  -16.4320   22.0040 F   0  0  0  0  0  0  0  0  0  0  0  0
  -28.4810  -16.0290   19.9730 F   0  0  0  0  0  0  0  0  0  0  0  0
  -30.5110  -15.0620   20.7280 C   0  0  0  0  0  0  0  0  0  0  0  0
  -30.4810  -12.8030   19.6100 C   0  0  0  0  0  2  0  0  0  0  0  0
  -29.5400  -12.8930   18.3790 C   0  0  0  0  0  2  0  0  0  0  0  0
  -28.0630  -12.6620   18.7710 C   0  0  0  0  0  2  0  0  0  0  0  0
  -27.6560  -13.4670   20.0300 C   0  0  0  0  0  3  0  0  0  0  0  0
  -28.7060  -13.2980   21.1500 C   0  0  0  0  0  2  0  0  0  0  0  0
  -29.9990  -13.7720   20.6260 N   0  0  0  0  0  0  0  0  0  0  0  0
  -31.7200  -15.2210   20.5120 O   0  0  0  0  0  0  0  0  0  0  0  0
  -25.2420  -14.0240   20.6980 C   0  0  0  0  0  0  0  0  0  0  0  0
  -24.1750  -13.2300   21.0160 C   0  0  0  0  0  0  0  0  0  0  0  0
  -24.6570  -11.8860   20.9730 C   0  0  0  0  0  0  0  0  0  0  0  0
  -26.3040  -13.1580   20.4770 N   0  0  0  0  0  0  0  0  0  0  0  0
  -25.9560  -11.8680   20.7050 N   0  0  0  0  0  0  0  0  0  0  0  0
  -23.9440  -10.6120   21.1120 C   0  0  0  0  0  0  0  0  0  0  0  0
  -24.3760   -9.6190   22.0190 C   0  0  0  0  0  3  0  0  0  0  0  0
  -23.6620   -8.4080   22.1480 C   0  0  0  0  0  3  0  0  0  0  0  0
  -22.5010   -8.1820   21.3710 C   0  0  0  0  0  0  0  0  0  0  0  0
  -22.0890   -9.1650   20.4520 C   0  0  0  0  0  3  0  0  0  0  0  0
  -22.8040  -10.3670   20.3210 C   0  0  0  0  0  3  0  0  0  0  0  0
  -21.7590   -7.0270   21.4110 O   0  0  0  0  0  0  0  0  0  0  0  0
  -21.7350   -6.2260   22.5250 C   0  0  0  0  0  0  0  0  0  0  0  0
  -21.3140   -6.7110   23.7830 C   0  0  0  0  0  3  0  0  0  0  0  0
  -21.2420   -5.8360   24.8850 C   0  0  0  0  0  3  0  0  0  0  0  0
  -21.5770   -4.4780   24.7310 C   0  0  0  0  0  0  0  0  0  0  0  0
  -21.9920   -3.9930   23.4780 C   0  0  0  0  0  3  0  0  0  0  0  0
  -22.0680   -4.8650   22.3770 C   0  0  0  0  0  0  0  0  0  0  0  0
  -22.4470   -4.3880   21.1670 F   0  0  0  0  0  0  0  0  0  0  0  0
  -21.5000   -3.6360   25.7880 F   0  0  0  0  0  0  0  0  0  0  0  0
  -22.7640  -13.6830   21.2530 C   0  0  0  0  0  0  0  0  0  0  0  0
  -22.0270  -12.9770   22.1030 N   0  0  0  0  0  0  0  0  0  0  0  0
  -22.3200  -14.6990   20.7200 O   0  0  0  0  0  0  0  0  0  0  0  0
  -22.3950  -12.1540   22.5570 H   0  0  0  0  0  0  0  0  0  0  0  0
  -21.0790  -13.2640   22.3050 H   0  0  0  0  0  0  0  0  0  0  0  0
  -25.3970  -15.4000   20.5550 N   0  0  0  0  0  0  0  0  0  0  0  0
  -24.6290  -16.0530   20.6690 H   0  0  0  0  0  0  0  0  0  0  0  0
  -26.2720  -15.8570   20.3360 H   0  0  0  0  0  0  0  0  0  0  0  0
  -30.4770  -21.2320   22.2780 C   0  0  0  0  0  2  0  0  0  0  0  0
  -32.8120  -20.7100   23.1800 C   0  0  0  0  0  1  0  0  0  0  0  0
  -30.9170  -21.1900   24.7760 C   0  0  0  0  0  1  0  0  0  0  0  0
  -31.2960  -20.5750   23.4170 C   0  0  0  0  0  3  0  0  0  0  0  0
  2  3  1  0
  3 54  1  0
  3  1  2  0
  4  1  1  0
  4 93  1  0
  5  4  2  0
  6  2  2  0
  6  5  1  0
  9  7  1  6
  9 11  1  0
  9  5  1  0
  9  8  1  0
 11 10  1  0
 12 11  1  0
 12 13  1  0
 14 25  2  0
 15 13  1  0
 15 20  1  0
 16 24  1  0
 16 26  1  0
 17 23  1  0
 17 19  1  0
 18 24  1  0
 19 18  1  0
 20 19  2  0
 21 22  1  0
 21 15  2  0
 22 17  2  0
 23 16  1  0
 24 14  1  0
 26 28  2  0
 27 26  1  0
 29 27  1  0
 30 39  2  0
 30 35  1  0
 31 27  1  0
 31 35  1  0
 32 31  1  0
 33 34  1  0
 33 32  1  0
 34 30  1  0
 35 36  2  0
 36 37  1  0
 38 37  2  0
 39 38  1  0
 40 14  1  0
 40 41  1  0
 40 50  1  0
 41 44  1  0
 42 46  1  0
 42 41  1  0
 43 42  2  0
 46 45  1  0
 48 46  1  0
 48 49  1  0
 48 47  1  0
 50 53  1  1
 50 51  1  0
 52 50  1  0
 54 55  1  1
 56 54  1  0
 57 54  1  0
 58 63  1  0
 59 60  1  0
 59 58  1  0
 61 60  1  0
 61 68  1  0
 61 62  1  0
 63 57  1  0
 63 62  1  0
 64 57  2  0
 65 66  2  0
 66 85  1  0
 67 66  1  0
 67 70  1  0
 68 65  1  0
 68 69  1  0
 69 67  2  0
 70 71  1  0
 71 72  2  0
 73 76  1  0
 73 72  1  0
 74 73  2  0
 75 74  1  0
 75 70  2  0
 76 77  1  0
 77 78  1  0
 78 79  2  0
 80 79  1  0
 80 84  1  0
 81 80  2  0
 82 77  2  0
 82 81  1  0
 83 82  1  0
 85 86  1  0
 86 89  1  0
 86 88  1  0
 87 85  2  0
 90 91  1  0
 90 65  1  0
 92 90  1  0
 93 96  1  0
 94 96  1  0
 96 95  1  0
M  ISO  4  12 101  13 101  54 100  57 100
M  END
>  <TORSDO>  (46) 
F 22

>  <SCORE>  (46) 
-13.420

>  <name>  (46) 
45

>  <ligand_id>  (46) 
45

>  <original_smiles>  (46) 
[H]c1nc(C(C([H])([H])[H])(C([H])([H])[H])C([H])(C([H])([H])[H])C([H])([H])Oc2c([H])c([H])c3c(c2[H])C([H])([H])N(C(=O)C([H])(N([H])C(=O)C([H])(N([H])C([H])([H])[H])C([H])([H])[H])C(C([H])([H])[H])(C([H])([H])[H])C([H])([H])[H])C([H])(C(=O)N([H])C2([H])c4c([H])c([H])c([H])c([H])c4C([H])([H])C([H])([H])C2([H])[H])C3([H])[H])c(C([H])([H])C([H])(C([H])([H])[H])C([H])([H])[H])c([H])c1C(F)(F)C(=O)N1C([H])([H])C([H])([H])C([H])([H])C([H])(n2nc(-c3c([H])c([H])c(Oc4c([H])c([H])c(F)c([H])c4F)c([H])c3[H])c(C(=O)N([H])[H])c2N([H])[H])C1([H])[H]

>  <smiles>  (46) 
[H]c1nc(C(C([H])([H])[H])(C([H])([H])[H])C([H])(C([H])([H])[H])C([H])([H])Oc2c([H])c([H])c3c(c2[H])C([H])([H])N(C(=O)C([H])(N([H])C(=O)C([H])(N([H])C([H])([H])[H])C([H])([H])[H])C(C([H])([H])[H])(C([H])([H])[H])C([H])([H])[H])C([H])(C(=O)N([H])C2([H])c4c([H])c([H])c([H])c([H])c4C([H])([H])C([H])([H])C2([H])[H])C3([H])[H])c(C([H])([H])C([H])(C([H])([H])[H])C([H])([H])[H])c([H])c1C(F)(F)C(=O)N1C([H])([H])C([H])([H])C([H])([H])C([H])(n2nc(-c3c([H])c([H])c(Oc4c([H])c([H])c(F)c([H])c4F)c([H])c3[H])c(C(=O)N([H])[H])c2N([H])[H])C1([H])[H]

$$$$
46:0:0
     RDKit          3D

 97105  0  0  1  0  0  0  0  0999 V2000
  -31.2990  -18.1060   19.4380 C   0  0  0  0  0  3  0  0  0  0  0  0
  -29.4620  -18.7620   20.4390 C   0  0  0  0  0  3  0  0  0  0  0  0
  -30.2400  -17.6140   20.2640 C   0  0  0  0  0  0  0  0  0  0  0  0
  -31.1080  -19.4330   19.1040 C   0  0  0  0  0  0  0  0  0  0  0  0
  -29.9760  -19.9090   19.7790 N   0  0  0  0  0  0  0  0  0  0  0  0
  -28.7360  -16.1040   21.6530 C   0  0  0  0  0  1  0  0  0  0  0  0
  -31.1490  -16.1770   22.0890 C   0  0  0  0  0  1  0  0  0  0  0  0
  -30.1010  -16.1620   20.9410 C   0  0  2  0  0  0  0  0  0  0  0  0
  -30.4750  -14.8370   20.0560 C   0  0  0  0  0  0  0  0  0  0  0  0
  -30.1720  -12.6030   18.9230 C   0  0  0  0  0  2  0  0  0  0  0  0
  -29.1560  -12.7050   17.7650 C   0  0  0  0  0  2  0  0  0  0  0  0
  -27.7180  -12.4850   18.2770 C   0  0  0  0  0  2  0  0  0  0  0  0
  -27.4180  -13.3230   19.5460 C   0  0  0  0  0  3  0  0  0  0  0  0
  -28.5500  -13.1540   20.5790 C   0  0  0  0  0  2  0  0  0  0  0  0
  -29.8060  -13.6180   19.9560 N   0  0  0  0  0  0  0  0  0  0  0  0
  -31.5240  -14.9380   19.4090 O   0  0  0  0  0  0  0  0  0  0  0  0
  -25.0720  -13.8620   20.4450 C   0  0  0  0  0  0  0  0  0  0  0  0
  -24.0400  -13.0620   20.8650 C   0  0  0  0  0  0  0  0  0  0  0  0
  -24.5170  -11.7200   20.7620 C   0  0  0  0  0  0  0  0  0  0  0  0
  -26.1080  -13.0040   20.1130 N   0  0  0  0  0  0  0  0  0  0  0  0
  -25.7840  -11.7090   20.3610 N   0  0  0  0  0  0  0  0  0  0  0  0
  -23.8210  -10.4440   20.9680 C   0  0  0  0  0  0  0  0  0  0  0  0
  -24.3100   -9.4680   21.8660 C   0  0  0  0  0  3  0  0  0  0  0  0
  -23.6060   -8.2580   22.0600 C   0  0  0  0  0  3  0  0  0  0  0  0
  -22.4020   -8.0160   21.3580 C   0  0  0  0  0  0  0  0  0  0  0  0
  -21.9320   -8.9810   20.4480 C   0  0  0  0  0  3  0  0  0  0  0  0
  -22.6360  -10.1810   20.2520 C   0  0  0  0  0  3  0  0  0  0  0  0
  -21.6700   -6.8570   21.4630 O   0  0  0  0  0  0  0  0  0  0  0  0
  -21.6690   -6.1090   22.6140 C   0  0  0  0  0  0  0  0  0  0  0  0
  -21.2600   -6.6480   23.8530 C   0  0  0  0  0  3  0  0  0  0  0  0
  -21.2050   -5.8240   24.9960 C   0  0  0  0  0  3  0  0  0  0  0  0
  -21.5550   -4.4640   24.9000 C   0  0  0  0  0  0  0  0  0  0  0  0
  -21.9590   -3.9250   23.6670 C   0  0  0  0  0  3  0  0  0  0  0  0
  -22.0110   -4.7450   22.5260 C   0  0  0  0  0  0  0  0  0  0  0  0
  -22.3800   -4.2150   21.3340 F   0  0  0  0  0  0  0  0  0  0  0  0
  -21.5000   -3.6710   25.9950 F   0  0  0  0  0  0  0  0  0  0  0  0
  -22.6610  -13.5160   21.2510 C   0  0  0  0  0  0  0  0  0  0  0  0
  -22.0100  -12.7870   22.1540 N   0  0  0  0  0  0  0  0  0  0  0  0
  -22.1720  -14.5440   20.7890 O   0  0  0  0  0  0  0  0  0  0  0  0
  -22.4160  -11.9500   22.5440 H   0  0  0  0  0  0  0  0  0  0  0  0
  -21.0900  -13.0720   22.4630 H   0  0  0  0  0  0  0  0  0  0  0  0
  -25.2090  -15.2360   20.2990 N   0  0  0  0  0  0  0  0  0  0  0  0
  -24.4570  -15.8900   20.4880 H   0  0  0  0  0  0  0  0  0  0  0  0
  -26.0450  -15.6850   19.9440 H   0  0  0  0  0  0  0  0  0  0  0  0
  -31.9400  -20.2850   18.1720 C   0  0  0  0  0  2  0  0  0  0  0  0
  -33.2080  -18.8580   16.4880 C   0  0  0  0  0  1  0  0  0  0  0  0
  -30.7340  -19.1550   16.1980 C   0  0  0  0  0  1  0  0  0  0  0  0
  -32.2890  -21.0740   15.7930 C   0  0  0  0  0  1  0  0  0  0  0  0
  -32.0300  -19.8360   16.6790 C   0  0  1  0  0  0  0  0  0  0  0  0
  -29.3240  -21.2990   19.6680 C   0  0  0  0  0  2  0  0  0  0  0  0
  -31.4820  -22.6980   20.0170 C   0  0  0  0  0  1  0  0  0  0  0  0
  -29.9530  -22.6870   20.2590 C   0  0  2  0  0  0  0  0  0  0  0  0
  -30.3350  -21.6360   22.6550 C   0  0  0  0  0  1  0  0  0  0  0  0
  -29.7380  -22.7600   21.8010 C   0  0  0  0  0  2  0  0  0  0  0  0
  -29.3330  -24.0650   19.6170 C   0  0  0  0  0  2  0  0  0  0  0  0
  -28.8850  -25.3400   20.5270 C   0  0  0  0  0  2  0  0  0  0  0  0
  -28.8710  -26.7410   20.0200 O   0  0  0  0  0  0  0  0  0  0  0  0
  -24.8000  -31.7710   23.3210 C   0  0  0  0  0  0  0  0  0  0  0  0
  -27.6930  -27.5090   20.0870 C   0  0  0  0  0  0  0  0  0  0  0  0
  -23.7000  -30.4220   21.5700 C   0  0  0  0  0  3  0  0  0  0  0  0
  -25.2490  -29.0070   20.1090 C   0  0  0  0  0  0  0  0  0  0  0  0
  -26.2230  -30.8650   21.4620 C   0  0  0  0  0  2  0  0  0  0  0  0
  -26.3820  -29.5220   20.7520 C   0  0  0  0  0  0  0  0  0  0  0  0
  -27.6090  -28.7910   20.7220 C   0  0  0  0  0  3  0  0  0  0  0  0
  -26.5290  -27.0340   19.4500 C   0  0  0  0  0  3  0  0  0  0  0  0
  -25.3250  -27.7720   19.4440 C   0  0  0  0  0  3  0  0  0  0  0  0
  -23.9730  -29.8270   20.1630 C   0  0  0  0  0  2  0  0  0  0  0  0
  -24.9260  -31.0340   22.1770 N   0  0  0  0  0  0  0  0  0  0  0  0
  -23.6950  -31.9620   23.8500 O   0  0  0  0  0  0  0  0  0  0  0  0
  -23.0550  -29.3290   22.4580 C   0  0  0  0  0  0  0  0  0  0  0  0
  -21.7410  -29.1000   22.2830 N   0  0  0  0  0  0  0  0  0  0  0  0
  -23.7400  -28.6880   23.2620 O   0  0  0  0  0  0  0  0  0  0  0  0
  -21.2460  -29.6720   21.6130 H   0  0  0  0  0  0  0  0  0  0  0  0
  -18.4160  -27.7120   22.6000 C   0  0  0  0  0  0  0  0  0  0  0  0
  -20.9460  -28.0840   22.9760 C   0  0  0  0  0  3  0  0  0  0  0  0
  -21.1410  -26.6890   22.3360 C   0  0  0  0  0  2  0  0  0  0  0  0
  -20.0930  -26.3650   21.2680 C   0  0  0  0  0  2  0  0  0  0  0  0
  -18.6840  -26.4090   21.8660 C   0  0  0  0  0  2  0  0  0  0  0  0
  -19.4780  -28.5050   23.1080 C   0  0  0  0  0  0  0  0  0  0  0  0
  -19.1740  -29.7250   23.7510 C   0  0  0  0  0  3  0  0  0  0  0  0
  -17.8410  -30.1510   23.8940 C   0  0  0  0  0  3  0  0  0  0  0  0
  -16.7920  -29.3550   23.4030 C   0  0  0  0  0  3  0  0  0  0  0  0
  -17.0790  -28.1370   22.7590 C   0  0  0  0  0  3  0  0  0  0  0  0
  -26.0370  -32.4260   24.0120 C   0  0  0  0  0  3  0  0  0  0  0  0
  -25.6760  -33.8050   24.3650 N   0  0  0  0  0  0  0  0  0  0  0  0
  -26.0130  -34.8880   23.6530 C   0  0  0  0  0  0  0  0  0  0  0  0
  -26.7250  -34.8310   22.6480 O   0  0  0  0  0  0  0  0  0  0  0  0
  -25.0470  -33.9170   25.1460 H   0  0  0  0  0  0  0  0  0  0  0  0
  -24.2500  -36.6430   23.2810 C   0  0  0  0  0  1  0  0  0  0  0  0
  -25.4710  -36.2500   24.1280 C   0  0  0  0  0  3  0  0  0  0  0  0
  -27.5450  -37.1690   25.0680 C   0  0  0  0  0  1  0  0  0  0  0  0
  -26.4770  -37.3330   24.0860 N   0  0  0  0  0  0  0  0  0  0  0  0
  -26.0390  -38.2390   24.2370 H   0  0  0  0  0  0  0  0  0  0  0  0
  -26.5190  -31.6350   25.2910 C   0  0  1  0  0  0  0  0  0  0  0  0
  -25.3880  -31.3440   26.3060 C   0  0  0  0  0  1  0  0  0  0  0  0
  -27.1490  -30.2840   24.8880 C   0  0  0  0  0  1  0  0  0  0  0  0
  -27.6240  -32.4350   26.0180 C   0  0  0  0  0  1  0  0  0  0  0  0
  1  3  1  0
  3  2  2  0
  3  8  1  0
  4  1  2  0
  4  5  1  0
  5  2  1  0
  8  6  1  1
  8  7  1  0
  9  8  1  0
 10 15  1  0
 11 12  1  0
 11 10  1  0
 13 12  1  0
 13 20  1  0
 13 14  1  0
 15  9  1  0
 15 14  1  0
 16  9  2  0
 17 18  2  0
 18 37  1  0
 19 18  1  0
 19 22  1  0
 20 21  1  0
 20 17  1  0
 21 19  2  0
 22 23  1  0
 23 24  2  0
 25 28  1  0
 25 24  1  0
 26 25  2  0
 27 26  1  0
 27 22  2  0
 28 29  1  0
 29 30  1  0
 30 31  2  0
 32 31  1  0
 32 36  1  0
 33 32  2  0
 34 29  2  0
 34 33  1  0
 35 34  1  0
 37 38  1  0
 38 41  1  0
 38 40  1  0
 39 37  2  0
 42 17  1  0
 42 43  1  0
 44 42  1  0
 45  4  1  0
 49 46  1  1
 47 49  1  0
 48 49  1  0
 49 45  1  0
 50  5  1  0
 50 52  1  0
 52 51  1  1
 52 54  1  0
 54 53  1  0
 55 52  1  0
 55 56  1  0
 57 59  1  0
 57 56  1  0
 58 69  2  0
 59 64  1  0
 60 68  1  0
 60 70  1  0
 61 67  1  0
 61 63  1  0
 62 68  1  0
 63 62  1  0
 64 63  2  0
 65 59  2  0
 66 65  1  0
 66 61  2  0
 67 60  1  0
 68 58  1  0
 70 72  2  0
 71 70  1  0
 73 71  1  0
 74 83  2  0
 74 79  1  0
 75 71  1  0
 75 79  1  0
 76 75  1  0
 77 78  1  0
 77 76  1  0
 78 74  1  0
 79 80  2  0
 80 81  1  0
 82 81  2  0
 83 82  1  0
 84 58  1  0
 84 85  1  0
 84 94  1  0
 85 88  1  0
 86 90  1  0
 86 85  1  0
 87 86  2  0
 90 89  1  0
 92 90  1  0
 92 93  1  0
 92 91  1  0
 94 97  1  1
 94 95  1  0
 96 94  1  0
M  ISO  4   8 100   9 100  56 101  57 101
M  END
>  <TORSDO>  (47) 
F 24

>  <SCORE>  (47) 
-11.472

>  <name>  (47) 
46

>  <ligand_id>  (47) 
46

>  <original_smiles>  (47) 
[H]c1c([H])c([H])c2c(c1[H])C([H])([H])C([H])([H])C([H])([H])C2([H])N([H])C(=O)C1([H])N(C(=O)C([H])(N([H])C(=O)C([H])(N([H])C([H])([H])[H])C([H])([H])[H])C(C([H])([H])[H])(C([H])([H])[H])C([H])([H])[H])C([H])([H])c2c([H])c(OC([H])([H])C([H])([H])C(C([H])([H])[H])(C([H])([H])n3c([H])c(C(C(=O)N4C([H])([H])C([H])([H])C([H])([H])C([H])(n5nc(-c6c([H])c([H])c(Oc7c([H])c([H])c(F)c([H])c7F)c([H])c6[H])c(C(=O)N([H])[H])c5N([H])[H])C4([H])[H])(C([H])([H])[H])C([H])([H])[H])c([H])c3C([H])([H])C(C([H])([H])[H])(C([H])([H])[H])C([H])([H])[H])C([H])([H])C([H])([H])[H])c([H])c([H])c2C1([H])[H]

>  <smiles>  (47) 
[H]c1c([H])c([H])c2c(c1[H])C([H])([H])C([H])([H])C([H])([H])C2([H])N([H])C(=O)C1([H])N(C(=O)C([H])(N([H])C(=O)C([H])(N([H])C([H])([H])[H])C([H])([H])[H])C(C([H])([H])[H])(C([H])([H])[H])C([H])([H])[H])C([H])([H])c2c([H])c(OC([H])([H])C([H])([H])C(C([H])([H])[H])(C([H])([H])n3c([H])c(C(C(=O)N4C([H])([H])C([H])([H])C([H])([H])C([H])(n5nc(-c6c([H])c([H])c(Oc7c([H])c([H])c(F)c([H])c7F)c([H])c6[H])c(C(=O)N([H])[H])c5N([H])[H])C4([H])[H])(C([H])([H])[H])C([H])([H])[H])c([H])c3C([H])([H])C(C([H])([H])[H])(C([H])([H])[H])C([H])([H])[H])C([H])([H])C([H])([H])[H])c([H])c([H])c2C1([H])[H]

$$$$
47:0:0
     RDKit          3D

 91 99  0  0  1  0  0  0  0  0999 V2000
  -28.8990  -19.8510   20.8080 C   0  0  0  0  0  3  0  0  0  0  0  0
  -29.3510  -21.1600   21.1920 C   0  0  0  0  0  0  0  0  0  0  0  0
  -29.7740  -18.7040   20.8850 C   0  0  0  0  0  0  0  0  0  0  0  0
  -30.6610  -21.1690   21.7380 C   0  0  0  0  0  0  0  0  0  0  0  0
  -31.3110  -22.4120   22.3030 C   0  0  0  0  0  1  0  0  0  0  0  0
  -31.0300  -18.8700   21.3650 N   0  0  0  0  0  0  0  0  0  0  0  0
  -31.4420  -20.0590   21.8170 N   0  0  0  0  0  0  0  0  0  0  0  0
  -30.0600  -17.3830   18.7780 C   0  0  0  0  0  1  0  0  0  0  0  0
  -27.9670  -17.1530   20.0330 C   0  0  0  0  0  1  0  0  0  0  0  0
  -29.4900  -17.3000   20.2090 C   0  0  2  0  0  0  0  0  0  0  0  0
  -30.0340  -15.9970   21.0160 C   0  0  0  0  0  2  0  0  0  0  0  0
  -30.5990  -14.6900   20.2980 C   0  0  0  0  0  0  0  0  0  0  0  0
  -30.3480  -12.4530   19.2160 C   0  0  0  0  0  2  0  0  0  0  0  0
  -29.3940  -12.5410   18.0070 C   0  0  0  0  0  2  0  0  0  0  0  0
  -27.9330  -12.3560   18.4560 C   0  0  0  0  0  2  0  0  0  0  0  0
  -27.5750  -13.2440   19.6710 C   0  0  0  0  0  3  0  0  0  0  0  0
  -28.6390  -13.1590   20.7890 C   0  0  0  0  0  2  0  0  0  0  0  0
  -29.9440  -13.4870   20.2010 N   0  0  0  0  0  0  0  0  0  0  0  0
  -31.7250  -14.7920   19.7970 O   0  0  0  0  0  0  0  0  0  0  0  0
  -25.1840  -13.8570   20.4110 C   0  0  0  0  0  0  0  0  0  0  0  0
  -24.1200  -13.0850   20.7930 C   0  0  0  0  0  0  0  0  0  0  0  0
  -24.5860  -11.7380   20.7710 C   0  0  0  0  0  0  0  0  0  0  0  0
  -26.2300  -12.9740   20.1750 N   0  0  0  0  0  0  0  0  0  0  0  0
  -25.8750  -11.6950   20.4550 N   0  0  0  0  0  0  0  0  0  0  0  0
  -23.8650  -10.4760   20.9720 C   0  0  0  0  0  0  0  0  0  0  0  0
  -24.3010   -9.5200   21.9130 C   0  0  0  0  0  3  0  0  0  0  0  0
  -23.5760   -8.3250   22.1040 C   0  0  0  0  0  3  0  0  0  0  0  0
  -22.4030   -8.0790   21.3510 C   0  0  0  0  0  0  0  0  0  0  0  0
  -21.9870   -9.0260   20.4000 C   0  0  0  0  0  3  0  0  0  0  0  0
  -22.7120  -10.2120   20.2070 C   0  0  0  0  0  3  0  0  0  0  0  0
  -21.6520   -6.9330   21.4490 O   0  0  0  0  0  0  0  0  0  0  0  0
  -21.6030   -6.2030   22.6090 C   0  0  0  0  0  0  0  0  0  0  0  0
  -21.1730   -6.7700   23.8290 C   0  0  0  0  0  3  0  0  0  0  0  0
  -21.0710   -5.9670   24.9820 C   0  0  0  0  0  3  0  0  0  0  0  0
  -21.3860   -4.5950   24.9170 C   0  0  0  0  0  0  0  0  0  0  0  0
  -21.8110   -4.0290   23.7020 C   0  0  0  0  0  3  0  0  0  0  0  0
  -21.9150   -4.8300   22.5520 C   0  0  0  0  0  0  0  0  0  0  0  0
  -22.3010   -4.2740   21.3790 F   0  0  0  0  0  0  0  0  0  0  0  0
  -21.2810   -3.8210   26.0220 F   0  0  0  0  0  0  0  0  0  0  0  0
  -22.7260  -13.5670   21.0640 C   0  0  0  0  0  0  0  0  0  0  0  0
  -22.0010  -12.8800   21.9410 N   0  0  0  0  0  0  0  0  0  0  0  0
  -22.2870  -14.5880   20.5380 O   0  0  0  0  0  0  0  0  0  0  0  0
  -22.3660  -12.0540   22.3900 H   0  0  0  0  0  0  0  0  0  0  0  0
  -21.0660  -13.1900   22.1660 H   0  0  0  0  0  0  0  0  0  0  0  0
  -25.3240  -15.2240   20.2240 N   0  0  0  0  0  0  0  0  0  0  0  0
  -24.5460  -15.8640   20.3410 H   0  0  0  0  0  0  0  0  0  0  0  0
  -26.1610  -15.6860   19.8980 H   0  0  0  0  0  0  0  0  0  0  0  0
  -28.4140  -22.4320   21.0660 C   0  0  0  0  0  2  0  0  0  0  0  0
  -28.9470  -23.9010   20.7130 C   0  0  0  0  0  3  0  0  0  0  0  0
  -27.8280  -24.9820   20.4290 C   0  0  0  0  0  3  0  0  0  0  0  0
  -28.2030  -26.4110   20.3010 O   0  0  0  0  0  0  0  0  0  0  0  0
  -24.5730  -31.8910   23.2330 C   0  0  0  0  0  0  0  0  0  0  0  0
  -27.1310  -27.3030   20.2010 C   0  0  0  0  0  0  0  0  0  0  0  0
  -23.3670  -30.4890   21.6010 C   0  0  0  0  0  3  0  0  0  0  0  0
  -24.8030  -28.9440   20.1710 C   0  0  0  0  0  0  0  0  0  0  0  0
  -25.9050  -30.7980   21.4120 C   0  0  0  0  0  2  0  0  0  0  0  0
  -25.9740  -29.4180   20.7750 C   0  0  0  0  0  0  0  0  0  0  0  0
  -27.1480  -28.6070   20.7800 C   0  0  0  0  0  3  0  0  0  0  0  0
  -25.9400  -26.8950   19.5530 C   0  0  0  0  0  3  0  0  0  0  0  0
  -24.7880  -27.6930   19.5450 C   0  0  0  0  0  3  0  0  0  0  0  0
  -23.5790  -29.8280   20.2140 C   0  0  0  0  0  2  0  0  0  0  0  0
  -24.6350  -31.0770   22.1410 N   0  0  0  0  0  0  0  0  0  0  0  0
  -23.4890  -32.1720   23.7650 O   0  0  0  0  0  0  0  0  0  0  0  0
  -22.7020  -29.4720   22.5610 C   0  0  0  0  0  0  0  0  0  0  0  0
  -21.3760  -29.3030   22.4380 N   0  0  0  0  0  0  0  0  0  0  0  0
  -23.3800  -28.8470   23.3830 O   0  0  0  0  0  0  0  0  0  0  0  0
  -20.8920  -29.8690   21.7570 H   0  0  0  0  0  0  0  0  0  0  0  0
  -17.9850  -28.1320   22.9330 C   0  0  0  0  0  0  0  0  0  0  0  0
  -20.5440  -28.3730   23.2070 C   0  0  0  0  0  3  0  0  0  0  0  0
  -20.6350  -26.9400   22.6330 C   0  0  0  0  0  2  0  0  0  0  0  0
  -19.5300  -26.6240   21.6190 C   0  0  0  0  0  2  0  0  0  0  0  0
  -18.1500  -26.7820   22.2620 C   0  0  0  0  0  2  0  0  0  0  0  0
  -19.1080  -28.8900   23.3610 C   0  0  0  0  0  0  0  0  0  0  0  0
  -18.8940  -30.1540   23.9490 C   0  0  0  0  0  3  0  0  0  0  0  0
  -17.5910  -30.6630   24.1130 C   0  0  0  0  0  3  0  0  0  0  0  0
  -16.4830  -29.9040   23.6990 C   0  0  0  0  0  3  0  0  0  0  0  0
  -16.6820  -28.6410   23.1150 C   0  0  0  0  0  3  0  0  0  0  0  0
  -25.8570  -32.5220   23.8540 C   0  0  0  0  0  3  0  0  0  0  0  0
  -25.5530  -33.9230   24.1760 N   0  0  0  0  0  0  0  0  0  0  0  0
  -25.8950  -34.9720   23.4130 C   0  0  0  0  0  0  0  0  0  0  0  0
  -26.5690  -34.8590   22.3860 O   0  0  0  0  0  0  0  0  0  0  0  0
  -24.9620  -34.0870   24.9790 H   0  0  0  0  0  0  0  0  0  0  0  0
  -24.1840  -36.7740   23.0300 C   0  0  0  0  0  1  0  0  0  0  0  0
  -25.4120  -36.3660   23.8600 C   0  0  0  0  0  3  0  0  0  0  0  0
  -27.5450  -37.2330   24.7170 C   0  0  0  0  0  1  0  0  0  0  0  0
  -26.4560  -37.4110   23.7590 N   0  0  0  0  0  0  0  0  0  0  0  0
  -26.0530  -38.3340   23.9050 H   0  0  0  0  0  0  0  0  0  0  0  0
  -26.3640  -31.7570   25.1370 C   0  0  1  0  0  0  0  0  0  0  0  0
  -25.2690  -31.5310   26.2040 C   0  0  0  0  0  1  0  0  0  0  0  0
  -26.9360  -30.3750   24.7480 C   0  0  0  0  0  1  0  0  0  0  0  0
  -27.5180  -32.5450   25.8010 C   0  0  0  0  0  1  0  0  0  0  0  0
  1  3  2  0
  1  2  1  0
  2  4  2  0
  3  6  1  0
  4  7  1  0
  4  5  1  0
  6  7  2  0
 10  8  1  6
  9 10  1  0
 10  3  1  0
 10 11  1  0
 12 11  1  0
 13 18  1  0
 14 15  1  0
 14 13  1  0
 16 15  1  0
 16 23  1  0
 16 17  1  0
 18 12  1  0
 18 17  1  0
 19 12  2  0
 20 21  2  0
 21 40  1  0
 22 21  1  0
 22 25  1  0
 23 20  1  0
 23 24  1  0
 24 22  2  0
 25 26  1  0
 26 27  2  0
 28 31  1  0
 28 27  1  0
 29 28  2  0
 30 29  1  0
 30 25  2  0
 31 32  1  0
 32 33  1  0
 33 34  2  0
 35 34  1  0
 35 39  1  0
 36 35  2  0
 37 32  2  0
 37 36  1  0
 38 37  1  0
 40 41  1  0
 41 44  1  0
 41 43  1  0
 42 40  2  0
 45 46  1  0
 45 20  1  0
 47 45  1  0
 48  2  1  0
 49 48  1  0
 50 49  2  0
 51 50  1  0
 52 63  2  0
 53 51  1  0
 53 58  1  0
 54 62  1  0
 54 64  1  0
 55 61  1  0
 55 57  1  0
 56 62  1  0
 57 58  2  0
 57 56  1  0
 59 53  2  0
 60 59  1  0
 60 55  2  0
 61 54  1  0
 62 52  1  0
 64 66  2  0
 65 64  1  0
 67 65  1  0
 68 77  2  0
 68 73  1  0
 69 65  1  0
 69 73  1  0
 70 69  1  0
 71 72  1  0
 71 70  1  0
 72 68  1  0
 73 74  2  0
 74 75  1  0
 76 75  2  0
 77 76  1  0
 78 52  1  0
 78 79  1  0
 78 88  1  0
 79 82  1  0
 80 84  1  0
 80 79  1  0
 81 80  2  0
 84 83  1  0
 86 84  1  0
 86 87  1  0
 86 85  1  0
 88 91  1  1
 88 89  1  0
 90 88  1  0
M  ISO  4  11 100  12 100  50 101  51 101
M  END
>  <TORSDO>  (48) 
F 21

>  <SCORE>  (48) 
-13.569

>  <name>  (48) 
47

>  <ligand_id>  (48) 
47

>  <original_smiles>  (48) 
[H]c1c([H])c([H])c2c(c1[H])C([H])([H])C([H])([H])C([H])([H])C2([H])N([H])C(=O)C1([H])N(C(=O)C([H])(N([H])C(=O)C([H])(N([H])C([H])([H])[H])C([H])([H])[H])C(C([H])([H])[H])(C([H])([H])[H])C([H])([H])[H])C([H])([H])c2c([H])c(OC([H])([H])C([H])([H])C([H])([H])c3c(C([H])([H])[H])nnc(C(C([H])([H])[H])(C([H])([H])[H])C([H])([H])C(=O)N4C([H])([H])C([H])([H])C([H])([H])C([H])(n5nc(-c6c([H])c([H])c(Oc7c([H])c([H])c(F)c([H])c7F)c([H])c6[H])c(C(=O)N([H])[H])c5N([H])[H])C4([H])[H])c3[H])c([H])c([H])c2C1([H])[H]

>  <smiles>  (48) 
[H]c1c([H])c([H])c2c(c1[H])C([H])([H])C([H])([H])C([H])([H])C2([H])N([H])C(=O)C1([H])N(C(=O)C([H])(N([H])C(=O)C([H])(N([H])C([H])([H])[H])C([H])([H])[H])C(C([H])([H])[H])(C([H])([H])[H])C([H])([H])[H])C([H])([H])c2c([H])c(OC([H])([H])C([H])([H])C([H])([H])c3c(C([H])([H])[H])nnc(C(C([H])([H])[H])(C([H])([H])[H])C([H])([H])C(=O)N4C([H])([H])C([H])([H])C([H])([H])C([H])(n5nc(-c6c([H])c([H])c(Oc7c([H])c([H])c(F)c([H])c7F)c([H])c6[H])c(C(=O)N([H])[H])c5N([H])[H])C4([H])[H])c3[H])c([H])c([H])c2C1([H])[H]

$$$$
48:0:0
     RDKit          3D

 94102  0  0  1  0  0  0  0  0999 V2000
  -29.4430  -19.1990   18.9840 C   0  0  0  0  0  3  0  0  0  0  0  0
  -30.5120  -18.6870   19.7820 C   0  0  0  0  0  0  0  0  0  0  0  0
  -29.1790  -20.4500   19.4500 C   0  0  0  0  0  0  0  0  0  0  0  0
  -28.0570  -21.3570   19.0570 C   0  0  0  0  0  1  0  0  0  0  0  0
  -30.9380  -19.6530   20.6070 N   0  0  0  0  0  0  0  0  0  0  0  0
  -30.1580  -20.7550   20.3800 N   0  0  0  0  0  0  0  0  0  0  0  0
  -31.4540  -21.9470   22.1880 C   0  0  0  0  0  1  0  0  0  0  0  0
  -30.3170  -22.0120   21.1490 C   0  0  0  0  0  3  0  0  0  0  0  0
  -30.4910  -23.2750   20.2460 C   0  0  0  0  0  2  0  0  0  0  0  0
  -29.8460  -24.5820   20.7960 C   0  0  0  0  0  2  0  0  0  0  0  0
  -28.9350  -25.3340   19.7890 C   0  0  0  0  0  2  0  0  0  0  0  0
  -28.7420  -26.6900   20.2250 O   0  0  0  0  0  0  0  0  0  0  0  0
  -24.6260  -31.6790   23.1510 C   0  0  0  0  0  0  0  0  0  0  0  0
  -27.5140  -27.3250   20.1450 C   0  0  0  0  0  0  0  0  0  0  0  0
  -23.5170  -30.2480   21.4640 C   0  0  0  0  0  3  0  0  0  0  0  0
  -25.0630  -28.7600   20.0820 C   0  0  0  0  0  0  0  0  0  0  0  0
  -26.0360  -30.6790   21.3570 C   0  0  0  0  0  2  0  0  0  0  0  0
  -26.1820  -29.3160   20.7090 C   0  0  0  0  0  0  0  0  0  0  0  0
  -27.4040  -28.6070   20.7350 C   0  0  0  0  0  3  0  0  0  0  0  0
  -26.3720  -26.7850   19.5070 C   0  0  0  0  0  3  0  0  0  0  0  0
  -25.1540  -27.4950   19.4780 C   0  0  0  0  0  3  0  0  0  0  0  0
  -23.7910  -29.5790   20.0910 C   0  0  0  0  0  2  0  0  0  0  0  0
  -24.7410  -30.8860   22.0480 N   0  0  0  0  0  0  0  0  0  0  0  0
  -23.5210  -31.9170   23.6560 O   0  0  0  0  0  0  0  0  0  0  0  0
  -22.8660  -29.2030   22.3990 C   0  0  0  0  0  0  0  0  0  0  0  0
  -21.5510  -28.9890   22.2330 N   0  0  0  0  0  0  0  0  0  0  0  0
  -23.5410  -28.5900   23.2300 O   0  0  0  0  0  0  0  0  0  0  0  0
  -21.0680  -29.5370   21.5330 H   0  0  0  0  0  0  0  0  0  0  0  0
  -18.1940  -27.7130   22.6240 C   0  0  0  0  0  0  0  0  0  0  0  0
  -20.7360  -28.0250   22.9710 C   0  0  0  0  0  3  0  0  0  0  0  0
  -20.8880  -26.6030   22.3840 C   0  0  0  0  0  2  0  0  0  0  0  0
  -19.8230  -26.2650   21.3360 C   0  0  0  0  0  2  0  0  0  0  0  0
  -18.4210  -26.3740   21.9410 C   0  0  0  0  0  2  0  0  0  0  0  0
  -19.2820  -28.4950   23.0930 C   0  0  0  0  0  0  0  0  0  0  0  0
  -19.0180  -29.7490   23.6860 C   0  0  0  0  0  3  0  0  0  0  0  0
  -17.6980  -30.2190   23.8190 C   0  0  0  0  0  3  0  0  0  0  0  0
  -16.6240  -29.4320   23.3700 C   0  0  0  0  0  3  0  0  0  0  0  0
  -16.8720  -28.1800   22.7780 C   0  0  0  0  0  3  0  0  0  0  0  0
  -25.8740  -32.3430   23.8150 C   0  0  0  0  0  3  0  0  0  0  0  0
  -25.5140  -33.7290   24.1410 N   0  0  0  0  0  0  0  0  0  0  0  0
  -25.8220  -34.7940   23.3880 C   0  0  0  0  0  0  0  0  0  0  0  0
  -26.5110  -34.7140   22.3680 O   0  0  0  0  0  0  0  0  0  0  0  0
  -24.9070  -33.8610   24.9360 H   0  0  0  0  0  0  0  0  0  0  0  0
  -24.0320  -36.5170   23.0160 C   0  0  0  0  0  1  0  0  0  0  0  0
  -25.2800  -36.1630   23.8390 C   0  0  0  0  0  3  0  0  0  0  0  0
  -27.3710  -37.1290   24.6910 C   0  0  0  0  0  1  0  0  0  0  0  0
  -26.2740  -37.2540   23.7330 N   0  0  0  0  0  0  0  0  0  0  0  0
  -25.8330  -38.1590   23.8710 H   0  0  0  0  0  0  0  0  0  0  0  0
  -26.3770  -31.5790   25.1010 C   0  0  1  0  0  0  0  0  0  0  0  0
  -25.2590  -31.2950   26.1310 C   0  0  0  0  0  1  0  0  0  0  0  0
  -27.0170  -30.2250   24.7150 C   0  0  0  0  0  1  0  0  0  0  0  0
  -27.4800  -32.4040   25.8020 C   0  0  0  0  0  1  0  0  0  0  0  0
  -32.3810  -17.1850   20.7100 C   0  0  0  0  0  1  0  0  0  0  0  0
  -31.1590  -17.2690   19.7550 C   0  0  0  0  0  3  0  0  0  0  0  0
  -29.3330  -16.1170   18.4810 C   0  0  0  0  0  1  0  0  0  0  0  0
  -30.1340  -16.0280   19.8160 C   0  0  1  0  0  0  0  0  0  0  0  0
  -30.8170  -14.5950   19.7360 C   0  0  0  0  0  0  0  0  0  0  0  0
  -30.4090  -12.3570   18.7710 C   0  0  0  0  0  2  0  0  0  0  0  0
  -29.3820  -12.4700   17.6210 C   0  0  0  0  0  2  0  0  0  0  0  0
  -27.9240  -12.4400   18.1420 C   0  0  0  0  0  2  0  0  0  0  0  0
  -27.6850  -13.2920   19.4180 C   0  0  0  0  0  3  0  0  0  0  0  0
  -28.8370  -13.0980   20.4290 C   0  0  0  0  0  2  0  0  0  0  0  0
  -30.1130  -13.4120   19.7630 N   0  0  0  0  0  0  0  0  0  0  0  0
  -31.9790  -14.5940   19.3270 O   0  0  0  0  0  0  0  0  0  0  0  0
  -25.3910  -13.9810   20.3480 C   0  0  0  0  0  0  0  0  0  0  0  0
  -24.3230  -13.2440   20.7830 C   0  0  0  0  0  0  0  0  0  0  0  0
  -24.7230  -11.8770   20.6790 C   0  0  0  0  0  0  0  0  0  0  0  0
  -26.3740  -13.0620   20.0100 N   0  0  0  0  0  0  0  0  0  0  0  0
  -25.9810  -11.7900   20.2640 N   0  0  0  0  0  0  0  0  0  0  0  0
  -23.9640  -10.6430   20.8920 C   0  0  0  0  0  0  0  0  0  0  0  0
  -24.4000   -9.6560   21.8030 C   0  0  0  0  0  3  0  0  0  0  0  0
  -23.6440   -8.4810   22.0010 C   0  0  0  0  0  3  0  0  0  0  0  0
  -22.4370   -8.2860   21.2890 C   0  0  0  0  0  0  0  0  0  0  0  0
  -22.0170   -9.2620   20.3660 C   0  0  0  0  0  3  0  0  0  0  0  0
  -22.7750  -10.4280   20.1650 C   0  0  0  0  0  3  0  0  0  0  0  0
  -21.6490   -7.1680   21.4010 O   0  0  0  0  0  0  0  0  0  0  0  0
  -21.5720   -6.4560   22.5730 C   0  0  0  0  0  0  0  0  0  0  0  0
  -21.1410   -7.0540   23.7770 C   0  0  0  0  0  3  0  0  0  0  0  0
  -21.0050   -6.2720   24.9420 C   0  0  0  0  0  3  0  0  0  0  0  0
  -21.2920   -4.8950   24.9030 C   0  0  0  0  0  0  0  0  0  0  0  0
  -21.7180   -4.2970   23.7050 C   0  0  0  0  0  3  0  0  0  0  0  0
  -21.8540   -5.0770   22.5410 C   0  0  0  0  0  0  0  0  0  0  0  0
  -22.2460   -4.4910   21.3830 F   0  0  0  0  0  0  0  0  0  0  0  0
  -21.1560   -4.1430   26.0200 F   0  0  0  0  0  0  0  0  0  0  0  0
  -22.9770  -13.7770   21.1850 C   0  0  0  0  0  0  0  0  0  0  0  0
  -22.2880  -13.1020   22.0990 N   0  0  0  0  0  0  0  0  0  0  0  0
  -22.5470  -14.8340   20.7250 O   0  0  0  0  0  0  0  0  0  0  0  0
  -22.6310  -12.2370   22.4880 H   0  0  0  0  0  0  0  0  0  0  0  0
  -21.4020  -13.4680   22.4210 H   0  0  0  0  0  0  0  0  0  0  0  0
  -25.5900  -15.3500   20.1950 N   0  0  0  0  0  0  0  0  0  0  0  0
  -24.8530  -16.0220   20.3780 H   0  0  0  0  0  0  0  0  0  0  0  0
  -26.4350  -15.7770   19.8390 H   0  0  0  0  0  0  0  0  0  0  0  0
  -29.7110  -15.9840   22.4490 C   0  0  0  0  0  1  0  0  0  0  0  0
  -29.1600  -16.2220   21.0280 C   0  0  0  0  0  2  0  0  0  0  0  0
  1  3  2  0
  1  2  1  0
  2  5  2  0
  3  6  1  0
  4  3  1  0
  6  5  1  0
  6  8  1  0
  8  7  1  0
  9 10  1  0
  9  8  1  0
 11 12  1  0
 11 10  1  0
 13 24  2  0
 14 12  1  0
 14 19  1  0
 15 23  1  0
 15 25  1  0
 16 22  1  0
 16 18  1  0
 17 23  1  0
 18 19  2  0
 18 17  1  0
 20 14  2  0
 21 20  1  0
 21 16  2  0
 22 15  1  0
 23 13  1  0
 25 27  2  0
 26 25  1  0
 28 26  1  0
 29 38  2  0
 29 34  1  0
 30 26  1  0
 30 34  1  0
 31 30  1  0
 32 33  1  0
 32 31  1  0
 33 29  1  0
 34 35  2  0
 35 36  1  0
 37 36  2  0
 38 37  1  0
 39 13  1  0
 39 40  1  0
 39 49  1  0
 40 43  1  0
 41 45  1  0
 41 40  1  0
 42 41  2  0
 45 44  1  0
 47 45  1  0
 47 48  1  0
 47 46  1  0
 49 52  1  1
 49 50  1  0
 51 49  1  0
 54  2  1  0
 54 56  1  0
 54 53  1  0
 56 55  1  6
 56 94  1  0
 57 63  1  0
 57 56  1  0
 58 63  1  0
 59 60  1  0
 59 58  1  0
 61 60  1  0
 61 68  1  0
 61 62  1  0
 63 62  1  0
 64 57  2  0
 65 66  2  0
 66 85  1  0
 67 66  1  0
 67 70  1  0
 68 69  1  0
 68 65  1  0
 69 67  2  0
 70 71  1  0
 71 72  2  0
 73 76  1  0
 73 72  1  0
 74 73  2  0
 75 74  1  0
 75 70  2  0
 76 77  1  0
 77 78  1  0
 78 79  2  0
 80 79  1  0
 80 84  1  0
 81 80  2  0
 82 77  2  0
 82 81  1  0
 83 82  1  0
 85 86  1  0
 86 89  1  0
 86 88  1  0
 87 85  2  0
 90 65  1  0
 90 91  1  0
 92 90  1  0
 94 93  1  0
M  ISO  4  11 101  12 101  56 100  57 100
M  END
>  <TORSDO>  (49) 
F 23

>  <SCORE>  (49) 
-10.763

>  <name>  (49) 
48

>  <ligand_id>  (49) 
48

>  <original_smiles>  (49) 
[H]c1c([H])c([H])c2c(c1[H])C([H])([H])C([H])([H])C([H])([H])C2([H])N([H])C(=O)C1([H])N(C(=O)C([H])(N([H])C(=O)C([H])(N([H])C([H])([H])[H])C([H])([H])[H])C(C([H])([H])[H])(C([H])([H])[H])C([H])([H])[H])C([H])([H])c2c([H])c(OC([H])([H])C([H])([H])C([H])([H])C([H])(n3nc(C([H])(C([H])([H])[H])C(C(=O)N4C([H])([H])C([H])([H])C([H])([H])C([H])(n5nc(-c6c([H])c([H])c(Oc7c([H])c([H])c(F)c([H])c7F)c([H])c6[H])c(C(=O)N([H])[H])c5N([H])[H])C4([H])[H])(C([H])([H])[H])C([H])([H])C([H])([H])[H])c([H])c3C([H])([H])[H])C([H])([H])[H])c([H])c([H])c2C1([H])[H]

>  <smiles>  (49) 
[H]c1c([H])c([H])c2c(c1[H])C([H])([H])C([H])([H])C([H])([H])C2([H])N([H])C(=O)C1([H])N(C(=O)C([H])(N([H])C(=O)C([H])(N([H])C([H])([H])[H])C([H])([H])[H])C(C([H])([H])[H])(C([H])([H])[H])C([H])([H])[H])C([H])([H])c2c([H])c(OC([H])([H])C([H])([H])C([H])([H])C([H])(n3nc(C([H])(C([H])([H])[H])C(C(=O)N4C([H])([H])C([H])([H])C([H])([H])C([H])(n5nc(-c6c([H])c([H])c(Oc7c([H])c([H])c(F)c([H])c7F)c([H])c6[H])c(C(=O)N([H])[H])c5N([H])[H])C4([H])[H])(C([H])([H])[H])C([H])([H])C([H])([H])[H])c([H])c3C([H])([H])[H])C([H])([H])[H])c([H])c([H])c2C1([H])[H]

$$$$
49:0:0
     RDKit          3D

 92100  0  0  1  0  0  0  0  0999 V2000
  -29.4740  -19.5870   20.2100 C   0  0  0  0  0  0  0  0  0  0  0  0
  -29.9590  -17.4200   20.3000 C   0  0  0  0  0  0  0  0  0  0  0  0
  -29.0390  -19.0310   19.0700 N   0  0  0  0  0  0  0  0  0  0  0  0
  -29.3580  -17.6620   19.1210 N   0  0  0  0  0  0  0  0  0  0  0  0
  -30.0480  -18.6210   21.0130 N   0  0  0  0  0  0  0  0  0  0  0  0
  -31.7230  -16.0380   21.5790 C   0  0  0  0  0  1  0  0  0  0  0  0
  -29.2900  -15.5770   21.8970 C   0  0  0  0  0  1  0  0  0  0  0  0
  -30.3540  -15.9600   20.8470 C   0  0  1  0  0  0  0  0  0  0  0  0
  -30.6330  -14.7550   19.7660 C   0  0  0  0  0  0  0  0  0  0  0  0
  -30.2700  -12.6070   18.4890 C   0  0  0  0  0  2  0  0  0  0  0  0
  -29.1850  -12.7730   17.3990 C   0  0  0  0  0  2  0  0  0  0  0  0
  -27.7660  -12.5810   17.9720 C   0  0  0  0  0  2  0  0  0  0  0  0
  -27.5680  -13.3340   19.3130 C   0  0  0  0  0  3  0  0  0  0  0  0
  -28.7400  -13.0250   20.2590 C   0  0  0  0  0  2  0  0  0  0  0  0
  -29.9670  -13.5380   19.6190 N   0  0  0  0  0  0  0  0  0  0  0  0
  -31.6260  -14.9200   19.0430 O   0  0  0  0  0  0  0  0  0  0  0  0
  -25.2750  -13.9060   20.3160 C   0  0  0  0  0  0  0  0  0  0  0  0
  -24.2510  -13.1210   20.7670 C   0  0  0  0  0  0  0  0  0  0  0  0
  -24.6920  -11.7710   20.6190 C   0  0  0  0  0  0  0  0  0  0  0  0
  -26.2780  -13.0340   19.9250 N   0  0  0  0  0  0  0  0  0  0  0  0
  -25.9380  -11.7410   20.1640 N   0  0  0  0  0  0  0  0  0  0  0  0
  -23.9800  -10.5040   20.8300 C   0  0  0  0  0  0  0  0  0  0  0  0
  -24.4420   -9.5430   21.7550 C   0  0  0  0  0  3  0  0  0  0  0  0
  -23.7280   -8.3400   21.9550 C   0  0  0  0  0  3  0  0  0  0  0  0
  -22.5400   -8.0920   21.2290 C   0  0  0  0  0  0  0  0  0  0  0  0
  -22.0980   -9.0430   20.2930 C   0  0  0  0  0  3  0  0  0  0  0  0
  -22.8110  -10.2360   20.0910 C   0  0  0  0  0  3  0  0  0  0  0  0
  -21.7960   -6.9430   21.3370 O   0  0  0  0  0  0  0  0  0  0  0  0
  -21.6910   -6.2610   22.5240 C   0  0  0  0  0  0  0  0  0  0  0  0
  -21.1810   -6.8710   23.6900 C   0  0  0  0  0  3  0  0  0  0  0  0
  -21.0260   -6.1160   24.8690 C   0  0  0  0  0  3  0  0  0  0  0  0
  -21.3690   -4.7500   24.8820 C   0  0  0  0  0  0  0  0  0  0  0  0
  -21.8720   -4.1410   23.7210 C   0  0  0  0  0  3  0  0  0  0  0  0
  -22.0300   -4.8940   22.5440 C   0  0  0  0  0  0  0  0  0  0  0  0
  -22.4950   -4.2960   21.4210 F   0  0  0  0  0  0  0  0  0  0  0  0
  -21.2130   -4.0230   26.0130 F   0  0  0  0  0  0  0  0  0  0  0  0
  -22.8980  -13.5920   21.2200 C   0  0  0  0  0  0  0  0  0  0  0  0
  -22.2730  -12.8640   22.1400 N   0  0  0  0  0  0  0  0  0  0  0  0
  -22.4080  -14.6360   20.7920 O   0  0  0  0  0  0  0  0  0  0  0  0
  -22.6840  -12.0200   22.5080 H   0  0  0  0  0  0  0  0  0  0  0  0
  -21.3680  -13.1580   22.4810 H   0  0  0  0  0  0  0  0  0  0  0  0
  -25.4290  -15.2840   20.1880 N   0  0  0  0  0  0  0  0  0  0  0  0
  -24.6780  -15.9290   20.4110 H   0  0  0  0  0  0  0  0  0  0  0  0
  -26.2330  -15.7420   19.7780 H   0  0  0  0  0  0  0  0  0  0  0  0
  -31.9780  -19.5100   22.3200 C   0  0  0  0  0  1  0  0  0  0  0  0
  -30.5680  -18.9010   22.3550 C   0  0  0  0  0  2  0  0  0  0  0  0
  -29.1620  -21.0660   20.7040 C   0  0  0  0  0  3  0  0  0  0  0  0
  -29.1670  -22.3870   19.7820 C   0  0  0  0  0  3  0  0  0  0  0  0
  -28.7980  -23.8150   20.4710 C   0  0  0  0  0  2  0  0  0  0  0  0
  -29.9870  -25.3860   18.8200 C   0  0  0  0  0  1  0  0  0  0  0  0
  -28.6870  -25.1810   19.6060 C   0  0  0  0  0  3  0  0  0  0  0  0
  -28.5010  -26.5040   20.2870 O   0  0  0  0  0  0  0  0  0  0  0  0
  -24.7200  -31.9200   23.2370 C   0  0  0  0  0  0  0  0  0  0  0  0
  -27.3560  -27.3280   20.1990 C   0  0  0  0  0  0  0  0  0  0  0  0
  -23.5230  -30.5100   21.6010 C   0  0  0  0  0  3  0  0  0  0  0  0
  -24.9790  -28.9520   20.1830 C   0  0  0  0  0  0  0  0  0  0  0  0
  -26.0630  -30.8270   21.4210 C   0  0  0  0  0  2  0  0  0  0  0  0
  -26.1470  -29.4440   20.7760 C   0  0  0  0  0  0  0  0  0  0  0  0
  -27.3310  -28.6430   20.7740 C   0  0  0  0  0  3  0  0  0  0  0  0
  -26.1560  -26.8890   19.5960 C   0  0  0  0  0  3  0  0  0  0  0  0
  -24.9890  -27.6810   19.5860 C   0  0  0  0  0  3  0  0  0  0  0  0
  -23.7390  -29.8260   20.2250 C   0  0  0  0  0  2  0  0  0  0  0  0
  -24.7880  -31.1050   22.1420 N   0  0  0  0  0  0  0  0  0  0  0  0
  -23.6360  -32.1980   23.7680 O   0  0  0  0  0  0  0  0  0  0  0  0
  -22.8610  -29.4970   22.5660 C   0  0  0  0  0  0  0  0  0  0  0  0
  -21.5440  -29.2780   22.4060 N   0  0  0  0  0  0  0  0  0  0  0  0
  -23.5330  -28.9100   23.4170 O   0  0  0  0  0  0  0  0  0  0  0  0
  -21.0590  -29.8100   21.6970 H   0  0  0  0  0  0  0  0  0  0  0  0
  -18.2020  -27.9520   22.7980 C   0  0  0  0  0  0  0  0  0  0  0  0
  -20.7310  -28.3330   23.1740 C   0  0  0  0  0  3  0  0  0  0  0  0
  -20.9200  -26.8870   22.6600 C   0  0  0  0  0  2  0  0  0  0  0  0
  -19.8840  -26.4790   21.6080 C   0  0  0  0  0  2  0  0  0  0  0  0
  -18.4670  -26.5870   22.1830 C   0  0  0  0  0  2  0  0  0  0  0  0
  -19.2660  -28.7770   23.2490 C   0  0  0  0  0  0  0  0  0  0  0  0
  -18.9680  -30.0490   23.7810 C   0  0  0  0  0  3  0  0  0  0  0  0
  -17.6370  -30.5000   23.8670 C   0  0  0  0  0  3  0  0  0  0  0  0
  -16.5860  -29.6720   23.4330 C   0  0  0  0  0  3  0  0  0  0  0  0
  -16.8690  -28.4000   22.9040 C   0  0  0  0  0  3  0  0  0  0  0  0
  -26.0020  -32.5580   23.8580 C   0  0  0  0  0  3  0  0  0  0  0  0
  -25.6790  -33.9500   24.2100 N   0  0  0  0  0  0  0  0  0  0  0  0
  -25.9830  -35.0150   23.4570 C   0  0  0  0  0  0  0  0  0  0  0  0
  -26.6350  -34.9320   22.4120 O   0  0  0  0  0  0  0  0  0  0  0  0
  -25.1000  -34.0880   25.0250 H   0  0  0  0  0  0  0  0  0  0  0  0
  -24.2210  -36.7850   23.1620 C   0  0  0  0  0  1  0  0  0  0  0  0
  -25.4870  -36.3910   23.9400 C   0  0  0  0  0  3  0  0  0  0  0  0
  -27.6230  -37.3030   24.7340 C   0  0  0  0  0  1  0  0  0  0  0  0
  -26.5000  -37.4610   23.8130 N   0  0  0  0  0  0  0  0  0  0  0  0
  -26.0840  -38.3740   23.9750 H   0  0  0  0  0  0  0  0  0  0  0  0
  -26.5340  -31.7790   25.1250 C   0  0  1  0  0  0  0  0  0  0  0  0
  -25.4420  -31.4950   26.1830 C   0  0  0  0  0  1  0  0  0  0  0  0
  -27.1570  -30.4240   24.7130 C   0  0  0  0  0  1  0  0  0  0  0  0
  -27.6600  -32.5910   25.8050 C   0  0  0  0  0  1  0  0  0  0  0  0
  1 47  1  0
  1  5  1  0
  2  8  1  0
  2  5  1  0
  3  4  1  0
  3  1  2  0
  4  2  2  0
  5 46  1  0
  8  6  1  1
  8  7  1  0
  9  8  1  0
 10 15  1  0
 11 12  1  0
 11 10  1  0
 13 12  1  0
 13 20  1  0
 13 14  1  0
 15  9  1  0
 15 14  1  0
 16  9  2  0
 17 18  2  0
 18 37  1  0
 19 18  1  0
 19 22  1  0
 20 21  1  0
 20 17  1  0
 21 19  2  0
 22 23  1  0
 23 24  2  0
 25 28  1  0
 25 24  1  0
 26 25  2  0
 27 26  1  0
 27 22  2  0
 28 29  1  0
 29 34  2  0
 29 30  1  0
 30 31  2  0
 31 32  1  0
 32 36  1  0
 33 32  2  0
 34 33  1  0
 35 34  1  0
 37 38  1  0
 38 41  1  0
 38 40  1  0
 39 37  2  0
 42 17  1  0
 42 43  1  0
 44 42  1  0
 45 46  1  0
 48 49  1  0
 48 47  2  0
 51 50  1  0
 51 52  1  0
 51 49  1  0
 53 64  2  0
 54 52  1  0
 54 59  1  0
 55 63  1  0
 55 65  1  0
 56 62  1  0
 56 58  1  0
 57 63  1  0
 58 57  1  0
 59 58  2  0
 60 54  2  0
 61 60  1  0
 61 56  2  0
 62 55  1  0
 63 53  1  0
 65 67  2  0
 66 65  1  0
 68 66  1  0
 69 78  2  0
 69 74  1  0
 70 66  1  0
 70 74  1  0
 71 70  1  0
 72 73  1  0
 72 71  1  0
 73 69  1  0
 74 75  2  0
 75 76  1  0
 77 76  2  0
 78 77  1  0
 79 53  1  0
 79 80  1  0
 79 89  1  0
 80 83  1  0
 81 85  1  0
 81 80  1  0
 82 81  2  0
 85 84  1  0
 87 85  1  0
 87 88  1  0
 87 86  1  0
 89 92  1  1
 89 90  1  0
 91 89  1  0
M  ISO  4   8 100   9 100  51 101  52 101
M  END
>  <TORSDO>  (50) 
F 22

>  <SCORE>  (50) 
-11.209

>  <name>  (50) 
49

>  <ligand_id>  (50) 
49

>  <original_smiles>  (50) 
[H]c1c([H])c([H])c2c(c1[H])C([H])([H])C([H])([H])C([H])([H])C2([H])N([H])C(=O)C1([H])N(C(=O)C([H])(N([H])C(=O)C([H])(N([H])C([H])([H])[H])C([H])([H])[H])C(C([H])([H])[H])(C([H])([H])[H])C([H])([H])[H])C([H])([H])c2c([H])c(OC([H])(C([H])([H])[H])C([H])([H])C([H])([H])C([H])([H])c3nnc(C(C(=O)N4C([H])([H])C([H])([H])C([H])([H])C([H])(n5nc(-c6c([H])c([H])c(Oc7c([H])c([H])c(F)c([H])c7F)c([H])c6[H])c(C(=O)N([H])[H])c5N([H])[H])C4([H])[H])(C([H])([H])[H])C([H])([H])[H])n3C([H])([H])C([H])([H])[H])c([H])c([H])c2C1([H])[H]

>  <smiles>  (50) 
[H]c1c([H])c([H])c2c(c1[H])C([H])([H])C([H])([H])C([H])([H])C2([H])N([H])C(=O)C1([H])N(C(=O)C([H])(N([H])C(=O)C([H])(N([H])C([H])([H])[H])C([H])([H])[H])C(C([H])([H])[H])(C([H])([H])[H])C([H])([H])[H])C([H])([H])c2c([H])c(OC([H])(C([H])([H])[H])C([H])([H])C([H])([H])C([H])([H])c3nnc(C(C(=O)N4C([H])([H])C([H])([H])C([H])([H])C([H])(n5nc(-c6c([H])c([H])c(Oc7c([H])c([H])c(F)c([H])c7F)c([H])c6[H])c(C(=O)N([H])[H])c5N([H])[H])C4([H])[H])(C([H])([H])[H])C([H])([H])[H])n3C([H])([H])C([H])([H])[H])c([H])c([H])c2C1([H])[H]

$$$$
50:0:0
     RDKit          3D

 99107  0  0  1  0  0  0  0  0999 V2000
  -30.4710  -19.8430   22.0070 C   0  0  0  0  0  3  0  0  0  0  0  0
  -30.2740  -21.1120   22.5750 C   0  0  0  0  0  0  0  0  0  0  0  0
  -30.1410  -19.6630   20.6520 C   0  0  0  0  0  0  0  0  0  0  0  0
  -29.5430  -21.9420   20.5590 C   0  0  0  0  0  0  0  0  0  0  0  0
  -29.7960  -22.1280   21.8440 N   0  0  0  0  0  0  0  0  0  0  0  0
  -29.7060  -20.7520   19.9370 N   0  0  0  0  0  0  0  0  0  0  0  0
  -32.0720  -21.4540   24.2990 C   0  0  0  0  0  1  0  0  0  0  0  0
  -29.9100  -20.2700   24.8960 C   0  0  0  0  0  1  0  0  0  0  0  0
  -29.9660  -22.7500   24.5260 C   0  0  0  0  0  1  0  0  0  0  0  0
  -30.5520  -21.3930   24.0600 C   0  0  2  0  0  0  0  0  0  0  0  0
  -31.2260  -18.3000   18.7850 C   0  0  0  0  0  1  0  0  0  0  0  0
  -28.8170  -17.9050   19.4130 C   0  0  0  0  0  1  0  0  0  0  0  0
  -30.2210  -18.2440   19.9550 C   0  0  2  0  0  0  0  0  0  0  0  0
  -30.6780  -17.0430   20.9030 C   0  0  0  0  0  2  0  0  0  0  0  0
  -30.9370  -14.5770   20.1620 C   0  0  0  0  0  0  0  0  0  0  0  0
  -30.6250  -12.3520   19.1010 C   0  0  0  0  0  2  0  0  0  0  0  0
  -29.6320  -12.4630   17.9230 C   0  0  0  0  0  2  0  0  0  0  0  0
  -28.1750  -12.3260   18.4090 C   0  0  0  0  0  2  0  0  0  0  0  0
  -27.8760  -13.2160   19.6410 C   0  0  0  0  0  3  0  0  0  0  0  0
  -28.9710  -13.0790   20.7170 C   0  0  0  0  0  2  0  0  0  0  0  0
  -30.2640  -13.3880   20.0840 N   0  0  0  0  0  0  0  0  0  0  0  0
  -32.0870  -14.7080   19.7340 O   0  0  0  0  0  0  0  0  0  0  0  0
  -30.2230  -15.6490   20.5880 N   0  0  0  0  0  0  0  0  0  0  0  0
  -29.2680  -15.4520   20.8390 H   0  0  0  0  0  0  0  0  0  0  0  0
  -25.5330  -13.8480   20.4740 C   0  0  0  0  0  0  0  0  0  0  0  0
  -24.4630  -13.0870   20.8730 C   0  0  0  0  0  0  0  0  0  0  0  0
  -24.8920  -11.7290   20.7860 C   0  0  0  0  0  0  0  0  0  0  0  0
  -26.5450  -12.9480   20.1800 N   0  0  0  0  0  0  0  0  0  0  0  0
  -26.1670  -11.6660   20.4220 N   0  0  0  0  0  0  0  0  0  0  0  0
  -24.1450  -10.4770   20.9790 C   0  0  0  0  0  0  0  0  0  0  0  0
  -24.5690   -9.5020   21.9070 C   0  0  0  0  0  3  0  0  0  0  0  0
  -23.8270   -8.3140   22.0850 C   0  0  0  0  0  3  0  0  0  0  0  0
  -22.6460   -8.0980   21.3370 C   0  0  0  0  0  0  0  0  0  0  0  0
  -22.2390   -9.0630   20.3990 C   0  0  0  0  0  3  0  0  0  0  0  0
  -22.9810  -10.2430   20.2200 C   0  0  0  0  0  3  0  0  0  0  0  0
  -21.8710   -6.9670   21.4290 O   0  0  0  0  0  0  0  0  0  0  0  0
  -21.7830   -6.2490   22.5930 C   0  0  0  0  0  0  0  0  0  0  0  0
  -21.2870   -6.8210   23.7860 C   0  0  0  0  0  3  0  0  0  0  0  0
  -21.1490   -6.0260   24.9420 C   0  0  0  0  0  3  0  0  0  0  0  0
  -21.4910   -4.6610   24.9060 C   0  0  0  0  0  0  0  0  0  0  0  0
  -21.9790   -4.0900   23.7170 C   0  0  0  0  0  3  0  0  0  0  0  0
  -22.1190   -4.8810   22.5630 C   0  0  0  0  0  0  0  0  0  0  0  0
  -22.5690   -4.3200   21.4160 F   0  0  0  0  0  0  0  0  0  0  0  0
  -21.3500   -3.8960   26.0150 F   0  0  0  0  0  0  0  0  0  0  0  0
  -23.0920  -13.5890   21.2180 C   0  0  0  0  0  0  0  0  0  0  0  0
  -22.3870  -12.8850   22.0980 N   0  0  0  0  0  0  0  0  0  0  0  0
  -22.6530  -14.6360   20.7450 O   0  0  0  0  0  0  0  0  0  0  0  0
  -22.7550  -12.0400   22.5100 H   0  0  0  0  0  0  0  0  0  0  0  0
  -21.4600  -13.1940   22.3580 H   0  0  0  0  0  0  0  0  0  0  0  0
  -25.7220  -15.2160   20.3130 N   0  0  0  0  0  0  0  0  0  0  0  0
  -24.9870  -15.8960   20.4810 H   0  0  0  0  0  0  0  0  0  0  0  0
  -26.5720  -15.6310   19.9540 H   0  0  0  0  0  0  0  0  0  0  0  0
  -28.6920  -22.9580   18.3790 C   0  0  0  0  0  1  0  0  0  0  0  0
  -29.2870  -23.2810   19.7690 C   0  0  2  0  0  0  0  0  0  0  0  0
  -30.9530  -24.9290   18.4470 C   0  0  0  0  0  1  0  0  0  0  0  0
  -30.6960  -23.9580   19.6200 C   0  0  0  0  0  2  0  0  0  0  0  0
  -28.2170  -24.2080   20.5020 C   0  0  0  0  0  2  0  0  0  0  0  0
  -28.4460  -25.7540   20.6730 C   0  0  0  0  0  2  0  0  0  0  0  0
  -28.0260  -26.5850   19.5750 O   0  0  0  0  0  0  0  0  0  0  0  0
  -24.4840  -31.7290   23.1070 C   0  0  0  0  0  0  0  0  0  0  0  0
  -26.8920  -27.3530   19.7490 C   0  0  0  0  0  0  0  0  0  0  0  0
  -23.1780  -30.4340   21.4490 C   0  0  0  0  0  3  0  0  0  0  0  0
  -24.5390  -28.9210   19.9030 C   0  0  0  0  0  0  0  0  0  0  0  0
  -25.7010  -30.7320   21.1760 C   0  0  0  0  0  2  0  0  0  0  0  0
  -25.7260  -29.3840   20.4830 C   0  0  0  0  0  0  0  0  0  0  0  0
  -26.9050  -28.6020   20.4180 C   0  0  0  0  0  3  0  0  0  0  0  0
  -25.6910  -26.9060   19.1680 C   0  0  0  0  0  3  0  0  0  0  0  0
  -24.5130  -27.6770   19.2470 C   0  0  0  0  0  3  0  0  0  0  0  0
  -23.3200  -29.8090   20.0330 C   0  0  0  0  0  2  0  0  0  0  0  0
  -24.4730  -30.9810   21.9670 N   0  0  0  0  0  0  0  0  0  0  0  0
  -23.4350  -32.0000   23.7070 O   0  0  0  0  0  0  0  0  0  0  0  0
  -22.5350  -29.3900   22.3900 C   0  0  0  0  0  0  0  0  0  0  0  0
  -21.2040  -29.2400   22.3020 N   0  0  0  0  0  0  0  0  0  0  0  0
  -23.2300  -28.7190   23.1570 O   0  0  0  0  0  0  0  0  0  0  0  0
  -20.7040  -29.8260   21.6460 H   0  0  0  0  0  0  0  0  0  0  0  0
  -17.8250  -28.0740   22.8480 C   0  0  0  0  0  0  0  0  0  0  0  0
  -20.3930  -28.2860   23.0590 C   0  0  0  0  0  3  0  0  0  0  0  0
  -20.4620  -26.8770   22.4280 C   0  0  0  0  0  2  0  0  0  0  0  0
  -19.3270  -26.6070   21.4350 C   0  0  0  0  0  2  0  0  0  0  0  0
  -17.9640  -26.7490   22.1190 C   0  0  0  0  0  2  0  0  0  0  0  0
  -18.9660  -28.8050   23.2750 C   0  0  0  0  0  0  0  0  0  0  0  0
  -18.7810  -30.0480   23.9170 C   0  0  0  0  0  3  0  0  0  0  0  0
  -17.4890  -30.5620   24.1380 C   0  0  0  0  0  3  0  0  0  0  0  0
  -16.3630  -29.8270   23.7290 C   0  0  0  0  0  3  0  0  0  0  0  0
  -16.5310  -28.5880   23.0860 C   0  0  0  0  0  3  0  0  0  0  0  0
  -25.8130  -32.2980   23.6960 C   0  0  0  0  0  3  0  0  0  0  0  0
  -25.5670  -33.6960   24.0760 N   0  0  0  0  0  0  0  0  0  0  0  0
  -25.9230  -34.7580   23.3390 C   0  0  0  0  0  0  0  0  0  0  0  0
  -26.5670  -34.6610   22.2910 O   0  0  0  0  0  0  0  0  0  0  0  0
  -25.0070  -33.8470   24.9010 H   0  0  0  0  0  0  0  0  0  0  0  0
  -24.2700  -36.6310   23.0630 C   0  0  0  0  0  1  0  0  0  0  0  0
  -25.4990  -36.1480   23.8490 C   0  0  0  0  0  3  0  0  0  0  0  0
  -27.6670  -36.9260   24.6960 C   0  0  0  0  0  1  0  0  0  0  0  0
  -26.5710  -37.1620   23.7590 N   0  0  0  0  0  0  0  0  0  0  0  0
  -26.2030  -38.0930   23.9330 H   0  0  0  0  0  0  0  0  0  0  0  0
  -26.3470  -31.4720   24.9290 C   0  0  1  0  0  0  0  0  0  0  0  0
  -25.2880  -31.2390   26.0310 C   0  0  0  0  0  1  0  0  0  0  0  0
  -26.8700  -30.0870   24.4780 C   0  0  0  0  0  1  0  0  0  0  0  0
  -27.5440  -32.2090   25.5740 C   0  0  0  0  0  1  0  0  0  0  0  0
  1  2  2  0
  2 10  1  0
  3  1  1  0
  4  5  2  0
  5  2  1  0
  6  4  1  0
  6  3  2  0
 10  7  1  6
 10  9  1  0
 10  8  1  0
 13 11  1  6
 12 13  1  0
 13  3  1  0
 13 14  1  0
 15 23  1  0
 16 21  1  0
 17 18  1  0
 17 16  1  0
 19 18  1  0
 19 28  1  0
 19 20  1  0
 21 15  1  0
 21 20  1  0
 22 15  2  0
 23 24  1  0
 23 14  1  0
 25 26  2  0
 26 45  1  0
 27 26  1  0
 27 30  1  0
 28 29  1  0
 28 25  1  0
 29 27  2  0
 30 31  1  0
 31 32  2  0
 33 36  1  0
 33 32  1  0
 34 33  2  0
 35 34  1  0
 35 30  2  0
 36 37  1  0
 37 38  1  0
 38 39  2  0
 40 39  1  0
 40 44  1  0
 41 40  2  0
 42 37  2  0
 42 41  1  0
 43 42  1  0
 45 46  1  0
 46 49  1  0
 46 48  1  0
 47 45  2  0
 50 25  1  0
 50 51  1  0
 52 50  1  0
 54 53  1  6
 54 57  1  0
 54  4  1  0
 55 56  1  0
 56 54  1  0
 57 58  1  0
 59 61  1  0
 59 58  1  0
 60 71  2  0
 61 66  1  0
 62 70  1  0
 62 72  1  0
 63 69  1  0
 63 65  1  0
 64 70  1  0
 65 64  1  0
 66 65  2  0
 67 68  1  0
 67 61  2  0
 68 63  2  0
 69 62  1  0
 70 60  1  0
 72 74  2  0
 73 72  1  0
 75 73  1  0
 76 85  2  0
 76 81  1  0
 77 73  1  0
 77 81  1  0
 78 77  1  0
 79 80  1  0
 79 78  1  0
 80 76  1  0
 81 82  2  0
 82 83  1  0
 84 83  2  0
 85 84  1  0
 86 60  1  0
 86 87  1  0
 86 96  1  0
 87 90  1  0
 88 92  1  0
 88 87  1  0
 89 88  2  0
 92 91  1  0
 94 92  1  0
 94 95  1  0
 94 93  1  0
 96 99  1  1
 96 97  1  0
 98 96  1  0
M  ISO  4  15 100  23 100  58 101  59 101
M  END
>  <TORSDO>  (51) 
F 23

>  <SCORE>  (51) 
-12.282

>  <name>  (51) 
50

>  <ligand_id>  (51) 
50

>  <original_smiles>  (51) 
[H]c1c(C(C([H])([H])[H])(C([H])([H])[H])C([H])([H])[H])nc(C(C([H])([H])[H])(C([H])([H])C([H])([H])[H])C([H])([H])C([H])([H])Oc2c([H])c([H])c3c(c2[H])C([H])([H])N(C(=O)C([H])(N([H])C(=O)C([H])(N([H])C([H])([H])[H])C([H])([H])[H])C(C([H])([H])[H])(C([H])([H])[H])C([H])([H])[H])C([H])(C(=O)N([H])C2([H])c4c([H])c([H])c([H])c([H])c4C([H])([H])C([H])([H])C2([H])[H])C3([H])[H])nc1C(C([H])([H])[H])(C([H])([H])[H])C([H])([H])N([H])C(=O)N1C([H])([H])C([H])([H])C([H])([H])C([H])(n2nc(-c3c([H])c([H])c(Oc4c([H])c([H])c(F)c([H])c4F)c([H])c3[H])c(C(=O)N([H])[H])c2N([H])[H])C1([H])[H]

>  <smiles>  (51) 
[H]c1c(C(C([H])([H])[H])(C([H])([H])[H])C([H])([H])[H])nc(C(C([H])([H])[H])(C([H])([H])C([H])([H])[H])C([H])([H])C([H])([H])Oc2c([H])c([H])c3c(c2[H])C([H])([H])N(C(=O)C([H])(N([H])C(=O)C([H])(N([H])C([H])([H])[H])C([H])([H])[H])C(C([H])([H])[H])(C([H])([H])[H])C([H])([H])[H])C([H])(C(=O)N([H])C2([H])c4c([H])c([H])c([H])c([H])c4C([H])([H])C([H])([H])C2([H])[H])C3([H])[H])nc1C(C([H])([H])[H])(C([H])([H])[H])C([H])([H])N([H])C(=O)N1C([H])([H])C([H])([H])C([H])([H])C([H])(n2nc(-c3c([H])c([H])c(Oc4c([H])c([H])c(F)c([H])c4F)c([H])c3[H])c(C(=O)N([H])[H])c2N([H])[H])C1([H])[H]

$$$$
51:0:0
     RDKit          3D

 93101  0  0  1  0  0  0  0  0999 V2000
  -29.0920  -21.7990   21.9790 C   0  0  0  0  0  1  0  0  0  0  0  0
  -31.1830  -21.5120   20.7350 C   0  0  0  0  0  1  0  0  0  0  0  0
  -29.6460  -21.4420   20.5780 C   0  0  1  0  0  0  0  0  0  0  0  0
  -27.6030  -18.1270   20.0270 C   0  0  0  0  0  3  0  0  0  0  0  0
  -28.6090  -17.1510   20.0760 C   0  0  0  0  0  3  0  0  0  0  0  0
  -27.9210  -19.5000   20.0470 C   0  0  0  0  0  0  0  0  0  0  0  0
  -29.9570  -17.5370   20.0870 C   0  0  0  0  0  0  0  0  0  0  0  0
  -29.2720  -19.9070   20.2090 C   0  0  0  0  0  0  0  0  0  0  0  0
  -26.7540  -20.4650   19.8840 C   0  0  0  0  0  1  0  0  0  0  0  0
  -30.2490  -18.9060   20.1780 N   0  0  0  0  0  0  0  0  0  0  0  0
  -31.0660  -16.4740   19.6410 C   0  0  1  0  0  0  0  0  0  0  0  0
  -30.6960  -16.0750   18.4240 F   0  0  0  0  0  0  0  0  0  0  0  0
  -32.1560  -17.2240   19.4410 F   0  0  0  0  0  0  0  0  0  0  0  0
  -31.5730  -15.1430   20.4400 C   0  0  0  0  0  0  0  0  0  0  0  0
  -31.3440  -12.7430   19.8340 C   0  0  0  0  0  2  0  0  0  0  0  0
  -30.5350  -12.6270   18.5230 C   0  0  0  0  0  2  0  0  0  0  0  0
  -29.0220  -12.5780   18.8180 C   0  0  0  0  0  2  0  0  0  0  0  0
  -28.5650  -13.6500   19.8410 C   0  0  0  0  0  3  0  0  0  0  0  0
  -29.5170  -13.7400   21.0480 C   0  0  0  0  0  2  0  0  0  0  0  0
  -30.8690  -13.9580   20.5300 N   0  0  0  0  0  0  0  0  0  0  0  0
  -32.8010  -15.0600   20.5530 O   0  0  0  0  0  0  0  0  0  0  0  0
  -26.1910  -14.4250   20.4160 C   0  0  0  0  0  0  0  0  0  0  0  0
  -25.0450  -13.7420   20.7090 C   0  0  0  0  0  0  0  0  0  0  0  0
  -25.4000  -12.3580   20.7050 C   0  0  0  0  0  0  0  0  0  0  0  0
  -27.1750  -13.4660   20.2490 N   0  0  0  0  0  0  0  0  0  0  0  0
  -26.7030  -12.2160   20.4910 N   0  0  0  0  0  0  0  0  0  0  0  0
  -24.5590  -11.1620   20.8370 C   0  0  0  0  0  0  0  0  0  0  0  0
  -24.8740  -10.1350   21.7530 C   0  0  0  0  0  3  0  0  0  0  0  0
  -24.0390   -9.0020   21.8730 C   0  0  0  0  0  3  0  0  0  0  0  0
  -22.8770   -8.8910   21.0730 C   0  0  0  0  0  0  0  0  0  0  0  0
  -22.5790   -9.9070   20.1480 C   0  0  0  0  0  3  0  0  0  0  0  0
  -23.4130  -11.0310   20.0270 C   0  0  0  0  0  3  0  0  0  0  0  0
  -22.0210   -7.8150   21.1020 O   0  0  0  0  0  0  0  0  0  0  0  0
  -21.8670   -7.0500   22.2290 C   0  0  0  0  0  0  0  0  0  0  0  0
  -21.4620   -7.6090   23.4610 C   0  0  0  0  0  3  0  0  0  0  0  0
  -21.2460   -6.7750   24.5750 C   0  0  0  0  0  3  0  0  0  0  0  0
  -21.4240   -5.3830   24.4610 C   0  0  0  0  0  0  0  0  0  0  0  0
  -21.8230   -4.8240   23.2340 C   0  0  0  0  0  3  0  0  0  0  0  0
  -22.0380   -5.6540   22.1210 C   0  0  0  0  0  0  0  0  0  0  0  0
  -22.4010   -5.1070   20.9350 F   0  0  0  0  0  0  0  0  0  0  0  0
  -21.2090   -4.5830   25.5310 F   0  0  0  0  0  0  0  0  0  0  0  0
  -23.6770  -14.3350   20.8800 C   0  0  0  0  0  0  0  0  0  0  0  0
  -22.8390  -13.7170   21.7050 N   0  0  0  0  0  0  0  0  0  0  0  0
  -23.3620  -15.3810   20.3180 O   0  0  0  0  0  0  0  0  0  0  0  0
  -23.1070  -12.8720   22.1850 H   0  0  0  0  0  0  0  0  0  0  0  0
  -21.9160  -14.0980   21.8590 H   0  0  0  0  0  0  0  0  0  0  0  0
  -26.4620  -15.7790   20.2530 N   0  0  0  0  0  0  0  0  0  0  0  0
  -25.7300  -16.4730   20.3410 H   0  0  0  0  0  0  0  0  0  0  0  0
  -27.3570  -16.1800   19.9990 H   0  0  0  0  0  0  0  0  0  0  0  0
  -29.2410  -22.6370   19.5560 C   0  0  0  0  0  2  0  0  0  0  0  0
  -28.4290  -24.0130   19.8970 C   0  0  0  0  0  2  0  0  0  0  0  0
  -28.9990  -25.2960   20.6820 C   0  0  0  0  0  2  0  0  0  0  0  0
  -28.8740  -26.7340   20.2790 O   0  0  0  0  0  0  0  0  0  0  0  0
  -24.7060  -31.8810   23.2920 C   0  0  0  0  0  0  0  0  0  0  0  0
  -27.6860  -27.4810   20.3190 C   0  0  0  0  0  0  0  0  0  0  0  0
  -23.6640  -30.4620   21.5610 C   0  0  0  0  0  3  0  0  0  0  0  0
  -25.2610  -28.9980   20.2020 C   0  0  0  0  0  0  0  0  0  0  0  0
  -26.1910  -30.9010   21.5230 C   0  0  0  0  0  2  0  0  0  0  0  0
  -26.3730  -29.5300   20.8700 C   0  0  0  0  0  0  0  0  0  0  0  0
  -27.5930  -28.7870   20.9070 C   0  0  0  0  0  3  0  0  0  0  0  0
  -26.5460  -26.9950   19.6510 C   0  0  0  0  0  3  0  0  0  0  0  0
  -25.3500  -27.7400   19.5850 C   0  0  0  0  0  3  0  0  0  0  0  0
  -23.9890  -29.8250   20.1840 C   0  0  0  0  0  2  0  0  0  0  0  0
  -24.8690  -31.1000   22.1840 N   0  0  0  0  0  0  0  0  0  0  0  0
  -23.5810  -32.0930   23.7710 O   0  0  0  0  0  0  0  0  0  0  0  0
  -22.9960  -29.3970   22.4640 C   0  0  0  0  0  0  0  0  0  0  0  0
  -21.6830  -29.1860   22.2810 N   0  0  0  0  0  0  0  0  0  0  0  0
  -23.6630  -28.7650   23.2880 O   0  0  0  0  0  0  0  0  0  0  0  0
  -21.2040  -29.7490   21.5910 H   0  0  0  0  0  0  0  0  0  0  0  0
  -18.3210  -27.8990   22.6420 C   0  0  0  0  0  0  0  0  0  0  0  0
  -20.8650  -28.1990   22.9910 C   0  0  0  0  0  3  0  0  0  0  0  0
  -21.0150  -26.7980   22.3560 C   0  0  0  0  0  2  0  0  0  0  0  0
  -19.9460  -26.4950   21.3020 C   0  0  0  0  0  2  0  0  0  0  0  0
  -18.5470  -26.5840   21.9150 C   0  0  0  0  0  2  0  0  0  0  0  0
  -19.4120  -28.6630   23.1350 C   0  0  0  0  0  0  0  0  0  0  0  0
  -19.1500  -29.8940   23.7740 C   0  0  0  0  0  3  0  0  0  0  0  0
  -17.8300  -30.3600   23.9300 C   0  0  0  0  0  3  0  0  0  0  0  0
  -16.7540  -29.5900   23.4560 C   0  0  0  0  0  3  0  0  0  0  0  0
  -17.0000  -28.3620   22.8160 C   0  0  0  0  0  3  0  0  0  0  0  0
  -25.9190  -32.5620   23.9990 C   0  0  0  0  0  3  0  0  0  0  0  0
  -25.5500  -33.9600   24.2700 N   0  0  0  0  0  0  0  0  0  0  0  0
  -25.9160  -35.0040   23.5140 C   0  0  0  0  0  0  0  0  0  0  0  0
  -26.6660  -34.8940   22.5400 O   0  0  0  0  0  0  0  0  0  0  0  0
  -24.8860  -34.1130   25.0150 H   0  0  0  0  0  0  0  0  0  0  0  0
  -24.1740  -36.7470   22.9930 C   0  0  0  0  0  1  0  0  0  0  0  0
  -25.3620  -36.3890   23.9000 C   0  0  0  0  0  3  0  0  0  0  0  0
  -27.4100  -37.3480   24.8590 C   0  0  0  0  0  1  0  0  0  0  0  0
  -26.3730  -37.4660   23.8390 N   0  0  0  0  0  0  0  0  0  0  0  0
  -25.9340  -38.3770   23.9380 H   0  0  0  0  0  0  0  0  0  0  0  0
  -26.3500  -31.8340   25.3320 C   0  0  1  0  0  0  0  0  0  0  0  0
  -25.1800  -31.5970   26.3150 C   0  0  0  0  0  1  0  0  0  0  0  0
  -26.9920  -30.4590   25.0250 C   0  0  0  0  0  1  0  0  0  0  0  0
  -27.4240  -32.6720   26.0670 C   0  0  0  0  0  1  0  0  0  0  0  0
  3  2  1  1
  3  1  1  0
  4  6  2  0
  4  5  1  0
  5  7  2  0
  6  8  1  0
  7 10  1  0
  8  3  1  0
  9  6  1  0
 10  8  2  0
 11  7  1  0
 11 14  1  0
 11 12  1  6
 13 11  1  0
 14 20  1  0
 14 21  2  0
 15 20  1  0
 16 17  1  0
 16 15  1  0
 18 17  1  0
 18 25  1  0
 18 19  1  0
 20 19  1  0
 22 23  2  0
 23 42  1  0
 24 23  1  0
 24 27  1  0
 25 22  1  0
 25 26  1  0
 26 24  2  0
 27 28  1  0
 28 29  2  0
 30 33  1  0
 30 29  1  0
 31 30  2  0
 32 31  1  0
 32 27  2  0
 33 34  1  0
 34 35  1  0
 35 36  2  0
 37 36  1  0
 37 41  1  0
 38 37  2  0
 39 34  2  0
 39 38  1  0
 40 39  1  0
 42 43  1  0
 43 46  1  0
 43 45  1  0
 44 42  2  0
 47 48  1  0
 47 22  1  0
 49 47  1  0
 50 51  1  0
 50  3  1  0
 51 52  1  0
 53 55  1  0
 53 52  1  0
 54 65  2  0
 55 60  1  0
 56 64  1  0
 56 66  1  0
 57 59  1  0
 58 64  1  0
 59 60  2  0
 59 58  1  0
 61 55  2  0
 62 61  1  0
 62 57  2  0
 63 57  1  0
 63 56  1  0
 64 54  1  0
 66 68  2  0
 67 66  1  0
 69 67  1  0
 70 79  2  0
 70 75  1  0
 71 67  1  0
 71 75  1  0
 72 71  1  0
 73 74  1  0
 73 72  1  0
 74 70  1  0
 75 76  2  0
 76 77  1  0
 78 77  2  0
 79 78  1  0
 80 54  1  0
 80 81  1  0
 80 90  1  0
 81 84  1  0
 82 86  1  0
 82 81  1  0
 83 82  2  0
 86 85  1  0
 88 86  1  0
 88 89  1  0
 88 87  1  0
 90 93  1  1
 90 91  1  0
 92 90  1  0
M  ISO  4  11 100  14 100  52 101  53 101
M  END
>  <TORSDO>  (52) 
F 21

>  <SCORE>  (52) 
-11.990

>  <name>  (52) 
51

>  <ligand_id>  (52) 
51

>  <original_smiles>  (52) 
[H]c1c(C(F)(F)C(=O)N2C([H])([H])C([H])([H])C([H])([H])C([H])(n3nc(-c4c([H])c([H])c(Oc5c([H])c([H])c(F)c([H])c5F)c([H])c4[H])c(C(=O)N([H])[H])c3N([H])[H])C2([H])[H])nc(C(C([H])([H])[H])(C([H])([H])[H])C([H])([H])C([H])([H])C([H])([H])Oc2c([H])c([H])c3c(c2[H])C([H])([H])N(C(=O)C([H])(N([H])C(=O)C([H])(N([H])C([H])([H])[H])C([H])([H])[H])C(C([H])([H])[H])(C([H])([H])[H])C([H])([H])[H])C([H])(C(=O)N([H])C2([H])c4c([H])c([H])c([H])c([H])c4C([H])([H])C([H])([H])C2([H])[H])C3([H])[H])c(C([H])([H])[H])c1[H]

>  <smiles>  (52) 
[H]c1c(C(F)(F)C(=O)N2C([H])([H])C([H])([H])C([H])([H])C([H])(n3nc(-c4c([H])c([H])c(Oc5c([H])c([H])c(F)c([H])c5F)c([H])c4[H])c(C(=O)N([H])[H])c3N([H])[H])C2([H])[H])nc(C(C([H])([H])[H])(C([H])([H])[H])C([H])([H])C([H])([H])C([H])([H])Oc2c([H])c([H])c3c(c2[H])C([H])([H])N(C(=O)C([H])(N([H])C(=O)C([H])(N([H])C([H])([H])[H])C([H])([H])[H])C(C([H])([H])[H])(C([H])([H])[H])C([H])([H])[H])C([H])(C(=O)N([H])C2([H])c4c([H])c([H])c([H])c([H])c4C([H])([H])C([H])([H])C2([H])[H])C3([H])[H])c(C([H])([H])[H])c1[H]

$$$$
52:0:0
     RDKit          3D

 90 98  0  0  1  0  0  0  0  0999 V2000
  -30.8040  -19.8450   19.4230 C   0  0  0  0  0  3  0  0  0  0  0  0
  -30.3120  -19.5000   21.5160 C   0  0  0  0  0  3  0  0  0  0  0  0
  -30.4580  -20.5360   20.6240 C   0  0  0  0  0  0  0  0  0  0  0  0
  -30.8940  -18.5220   19.5820 N   0  0  0  0  0  0  0  0  0  0  0  0
  -30.5860  -18.2930   20.8810 N   0  0  0  0  0  0  0  0  0  0  0  0
  -32.1620  -16.5660   21.7320 C   0  0  0  0  0  1  0  0  0  0  0  0
  -30.6870  -16.9400   21.4930 C   0  0  0  0  0  3  0  0  0  0  0  0
  -28.4100  -16.4030   20.4010 C   0  0  0  0  0  1  0  0  0  0  0  0
  -29.7040  -15.7890   20.9820 C   0  0  0  0  0  3  0  0  0  0  0  0
  -30.2620  -14.6170   20.0790 C   0  0  0  0  0  0  0  0  0  0  0  0
  -29.9410  -12.4480   18.8930 C   0  0  0  0  0  2  0  0  0  0  0  0
  -28.8950  -12.5950   17.7690 C   0  0  0  0  0  2  0  0  0  0  0  0
  -27.4700  -12.3780   18.3110 C   0  0  0  0  0  2  0  0  0  0  0  0
  -27.1990  -13.1870   19.6030 C   0  0  0  0  0  3  0  0  0  0  0  0
  -28.3570  -13.0280   20.6220 C   0  0  0  0  0  2  0  0  0  0  0  0
  -29.6150  -13.4140   19.9630 N   0  0  0  0  0  0  0  0  0  0  0  0
  -31.2870  -14.8200   19.4250 O   0  0  0  0  0  0  0  0  0  0  0  0
  -24.8530  -13.6960   20.5400 C   0  0  0  0  0  0  0  0  0  0  0  0
  -23.8480  -12.8760   20.9760 C   0  0  0  0  0  0  0  0  0  0  0  0
  -24.3460  -11.5420   20.8560 C   0  0  0  0  0  0  0  0  0  0  0  0
  -25.9030  -12.8580   20.1890 N   0  0  0  0  0  0  0  0  0  0  0  0
  -25.6040  -11.5570   20.4340 N   0  0  0  0  0  0  0  0  0  0  0  0
  -23.6770  -10.2520   21.0590 C   0  0  0  0  0  0  0  0  0  0  0  0
  -24.1910   -9.2840   21.9500 C   0  0  0  0  0  3  0  0  0  0  0  0
  -23.5190   -8.0580   22.1400 C   0  0  0  0  0  3  0  0  0  0  0  0
  -22.3190   -7.7910   21.4380 C   0  0  0  0  0  0  0  0  0  0  0  0
  -21.8230   -8.7490   20.5370 C   0  0  0  0  0  3  0  0  0  0  0  0
  -22.4960   -9.9660   20.3450 C   0  0  0  0  0  3  0  0  0  0  0  0
  -21.6100   -6.6190   21.5410 O   0  0  0  0  0  0  0  0  0  0  0  0
  -21.6270   -5.8690   22.6880 C   0  0  0  0  0  0  0  0  0  0  0  0
  -21.2070   -6.3970   23.9300 C   0  0  0  0  0  3  0  0  0  0  0  0
  -21.1720   -5.5710   25.0710 C   0  0  0  0  0  3  0  0  0  0  0  0
  -21.5460   -4.2170   24.9730 C   0  0  0  0  0  0  0  0  0  0  0  0
  -21.9620   -3.6890   23.7370 C   0  0  0  0  0  3  0  0  0  0  0  0
  -21.9970   -4.5120   22.5970 C   0  0  0  0  0  0  0  0  0  0  0  0
  -22.3770   -3.9930   21.4050 F   0  0  0  0  0  0  0  0  0  0  0  0
  -21.5050   -3.4200   26.0670 F   0  0  0  0  0  0  0  0  0  0  0  0
  -22.4650  -13.2960   21.3870 C   0  0  0  0  0  0  0  0  0  0  0  0
  -21.8340  -12.5490   22.2860 N   0  0  0  0  0  0  0  0  0  0  0  0
  -21.9540  -14.3240   20.9450 O   0  0  0  0  0  0  0  0  0  0  0  0
  -22.2540  -11.7130   22.6650 H   0  0  0  0  0  0  0  0  0  0  0  0
  -20.9130  -12.8200   22.5990 H   0  0  0  0  0  0  0  0  0  0  0  0
  -24.9420  -15.0760   20.3910 N   0  0  0  0  0  0  0  0  0  0  0  0
  -24.1500  -15.6800   20.5800 H   0  0  0  0  0  0  0  0  0  0  0  0
  -25.7310  -15.5700   19.9920 H   0  0  0  0  0  0  0  0  0  0  0  0
  -30.3970  -22.0480   20.8970 C   0  0  0  0  0  2  0  0  0  0  0  0
  -29.4040  -22.9050   20.0490 C   0  0  0  0  0  2  0  0  0  0  0  0
  -29.3670  -24.4210   20.4570 C   0  0  0  0  0  2  0  0  0  0  0  0
  -28.2800  -25.3030   19.7670 C   0  0  0  0  0  2  0  0  0  0  0  0
  -28.3190  -26.6950   20.1810 O   0  0  0  0  0  0  0  0  0  0  0  0
  -24.5180  -31.9280   23.2350 C   0  0  0  0  0  0  0  0  0  0  0  0
  -27.1520  -27.4540   20.1370 C   0  0  0  0  0  0  0  0  0  0  0  0
  -23.3140  -30.5460   21.5760 C   0  0  0  0  0  3  0  0  0  0  0  0
  -24.7670  -29.0080   20.1430 C   0  0  0  0  0  0  0  0  0  0  0  0
  -25.8470  -30.8770   21.4010 C   0  0  0  0  0  2  0  0  0  0  0  0
  -25.9270  -29.5070   20.7500 C   0  0  0  0  0  0  0  0  0  0  0  0
  -27.1180  -28.7370   20.7450 C   0  0  0  0  0  3  0  0  0  0  0  0
  -25.9730  -26.9910   19.5060 C   0  0  0  0  0  3  0  0  0  0  0  0
  -24.7880  -27.7520   19.5150 C   0  0  0  0  0  3  0  0  0  0  0  0
  -23.5300  -29.8770   20.1920 C   0  0  0  0  0  2  0  0  0  0  0  0
  -24.5780  -31.1330   22.1290 N   0  0  0  0  0  0  0  0  0  0  0  0
  -23.4340  -32.2050   23.7690 O   0  0  0  0  0  0  0  0  0  0  0  0
  -22.6470  -29.5230   22.5240 C   0  0  0  0  0  0  0  0  0  0  0  0
  -21.3230  -29.3440   22.3780 N   0  0  0  0  0  0  0  0  0  0  0  0
  -23.3180  -28.8930   23.3460 O   0  0  0  0  0  0  0  0  0  0  0  0
  -20.8430  -29.9060   21.6900 H   0  0  0  0  0  0  0  0  0  0  0  0
  -17.9380  -28.1600   22.8300 C   0  0  0  0  0  0  0  0  0  0  0  0
  -20.4930  -28.4060   23.1350 C   0  0  0  0  0  3  0  0  0  0  0  0
  -20.5970  -26.9780   22.5520 C   0  0  0  0  0  2  0  0  0  0  0  0
  -19.5070  -26.6650   21.5210 C   0  0  0  0  0  2  0  0  0  0  0  0
  -18.1180  -26.8140   22.1490 C   0  0  0  0  0  2  0  0  0  0  0  0
  -19.0550  -28.9150   23.2780 C   0  0  0  0  0  0  0  0  0  0  0  0
  -18.8350  -30.1760   23.8730 C   0  0  0  0  0  3  0  0  0  0  0  0
  -17.5300  -30.6830   24.0250 C   0  0  0  0  0  3  0  0  0  0  0  0
  -16.4280  -29.9250   23.5940 C   0  0  0  0  0  3  0  0  0  0  0  0
  -16.6340  -28.6650   23.0020 C   0  0  0  0  0  3  0  0  0  0  0  0
  -25.8040  -32.5430   23.8690 C   0  0  0  0  0  3  0  0  0  0  0  0
  -25.5090  -33.9450   24.1960 N   0  0  0  0  0  0  0  0  0  0  0  0
  -25.8490  -34.9930   23.4330 C   0  0  0  0  0  0  0  0  0  0  0  0
  -26.5160  -34.8810   22.4000 O   0  0  0  0  0  0  0  0  0  0  0  0
  -24.9170  -34.1070   24.9960 H   0  0  0  0  0  0  0  0  0  0  0  0
  -24.1250  -36.7910   23.0810 C   0  0  0  0  0  1  0  0  0  0  0  0
  -25.3710  -36.3850   23.8860 C   0  0  0  0  0  3  0  0  0  0  0  0
  -27.5210  -37.2570   24.6910 C   0  0  0  0  0  1  0  0  0  0  0  0
  -26.4050  -37.4360   23.7650 N   0  0  0  0  0  0  0  0  0  0  0  0
  -26.0030  -38.3550   23.9320 H   0  0  0  0  0  0  0  0  0  0  0  0
  -26.3020  -31.7660   25.1480 C   0  0  1  0  0  0  0  0  0  0  0  0
  -25.1950  -31.5340   26.2030 C   0  0  0  0  0  1  0  0  0  0  0  0
  -26.8790  -30.3860   24.7560 C   0  0  0  0  0  1  0  0  0  0  0  0
  -27.4530  -32.5490   25.8230 C   0  0  0  0  0  1  0  0  0  0  0  0
  1  4  2  0
  1  3  1  0
  3 46  1  0
  3  2  2  0
  4  5  1  0
  5  7  1  0
  5  2  1  0
  7  6  1  0
  9  8  1  0
  9  7  1  0
 10  9  1  0
 11 16  1  0
 12 13  1  0
 12 11  1  0
 14 13  1  0
 14 21  1  0
 14 15  1  0
 16 10  1  0
 16 15  1  0
 17 10  2  0
 18 19  2  0
 19 38  1  0
 20 19  1  0
 20 23  1  0
 21 22  1  0
 21 18  1  0
 22 20  2  0
 23 24  1  0
 24 25  2  0
 26 29  1  0
 26 25  1  0
 27 26  2  0
 28 27  1  0
 28 23  2  0
 29 30  1  0
 30 31  1  0
 31 32  2  0
 33 32  1  0
 33 37  1  0
 34 33  2  0
 35 30  2  0
 35 34  1  0
 36 35  1  0
 38 39  1  0
 39 42  1  0
 39 41  1  0
 40 38  2  0
 43 18  1  0
 43 44  1  0
 45 43  1  0
 47 48  1  0
 47 46  1  0
 49 50  1  0
 49 48  1  0
 51 62  2  0
 52 50  1  0
 52 57  1  0
 53 61  1  0
 53 63  1  0
 54 60  1  0
 54 56  1  0
 55 61  1  0
 56 55  1  0
 57 56  2  0
 58 59  1  0
 58 52  2  0
 59 54  2  0
 60 53  1  0
 61 51  1  0
 63 65  2  0
 64 63  1  0
 66 64  1  0
 67 76  2  0
 67 72  1  0
 68 64  1  0
 68 72  1  0
 69 68  1  0
 70 71  1  0
 70 69  1  0
 71 67  1  0
 72 73  2  0
 73 74  1  0
 75 74  2  0
 76 75  1  0
 77 51  1  0
 77 78  1  0
 77 87  1  0
 78 81  1  0
 79 83  1  0
 79 78  1  0
 80 79  2  0
 83 82  1  0
 85 83  1  0
 85 86  1  0
 85 84  1  0
 87 90  1  1
 87 88  1  0
 89 87  1  0
M  ISO  4   9 100  10 100  49 101  50 101
M  END
>  <TORSDO>  (53) 
F 22

>  <SCORE>  (53) 
-11.676

>  <name>  (53) 
52

>  <ligand_id>  (53) 
52

>  <original_smiles>  (53) 
[H]c1nn(C([H])(C([H])([H])[H])C([H])(C(=O)N2C([H])([H])C([H])([H])C([H])([H])C([H])(n3nc(-c4c([H])c([H])c(Oc5c([H])c([H])c(F)c([H])c5F)c([H])c4[H])c(C(=O)N([H])[H])c3N([H])[H])C2([H])[H])C([H])([H])[H])c([H])c1C([H])([H])C([H])([H])C([H])([H])C([H])([H])Oc1c([H])c([H])c2c(c1[H])C([H])([H])N(C(=O)C([H])(N([H])C(=O)C([H])(N([H])C([H])([H])[H])C([H])([H])[H])C(C([H])([H])[H])(C([H])([H])[H])C([H])([H])[H])C([H])(C(=O)N([H])C1([H])c3c([H])c([H])c([H])c([H])c3C([H])([H])C([H])([H])C1([H])[H])C2([H])[H]

>  <smiles>  (53) 
[H]c1nn(C([H])(C([H])([H])[H])C([H])(C(=O)N2C([H])([H])C([H])([H])C([H])([H])C([H])(n3nc(-c4c([H])c([H])c(Oc5c([H])c([H])c(F)c([H])c5F)c([H])c4[H])c(C(=O)N([H])[H])c3N([H])[H])C2([H])[H])C([H])([H])[H])c([H])c1C([H])([H])C([H])([H])C([H])([H])C([H])([H])Oc1c([H])c([H])c2c(c1[H])C([H])([H])N(C(=O)C([H])(N([H])C(=O)C([H])(N([H])C([H])([H])[H])C([H])([H])[H])C(C([H])([H])[H])(C([H])([H])[H])C([H])([H])[H])C([H])(C(=O)N([H])C1([H])c3c([H])c([H])c([H])c([H])c3C([H])([H])C([H])([H])C1([H])[H])C2([H])[H]

$$$$
53:0:0
     RDKit          3D

 90 98  0  0  1  0  0  0  0  0999 V2000
  -29.3000  -19.1860   20.1210 C   0  0  0  0  0  3  0  0  0  0  0  0
  -29.6700  -20.5640   20.4830 C   0  0  0  0  0  0  0  0  0  0  0  0
  -30.0870  -17.9810   20.4630 C   0  0  0  0  0  0  0  0  0  0  0  0
  -30.8910  -20.5650   21.2090 C   0  0  0  0  0  0  0  0  0  0  0  0
  -31.5340  -21.8440   21.7080 C   0  0  0  0  0  1  0  0  0  0  0  0
  -31.2150  -18.1870   21.1790 N   0  0  0  0  0  0  0  0  0  0  0  0
  -31.5960  -19.4320   21.5190 N   0  0  0  0  0  0  0  0  0  0  0  0
  -28.9790  -16.5050   18.7880 C   0  0  0  0  0  1  0  0  0  0  0  0
  -28.4930  -16.3080   21.3020 C   0  0  0  0  0  1  0  0  0  0  0  0
  -29.5860  -16.4290   20.2140 C   0  0  2  0  0  0  0  0  0  0  0  0
  -30.5140  -15.0140   20.2100 C   0  0  0  0  0  0  0  0  0  0  0  0
  -30.4750  -12.6420   19.2930 C   0  0  0  0  0  2  0  0  0  0  0  0
  -29.5090  -12.5720   18.0800 C   0  0  0  0  0  2  0  0  0  0  0  0
  -28.0370  -12.3790   18.5160 C   0  0  0  0  0  2  0  0  0  0  0  0
  -27.6470  -13.2620   19.7310 C   0  0  0  0  0  3  0  0  0  0  0  0
  -28.7410  -13.2040   20.8220 C   0  0  0  0  0  2  0  0  0  0  0  0
  -29.9890  -13.7090   20.2180 N   0  0  0  0  0  0  0  0  0  0  0  0
  -31.7190  -15.0930   19.9370 O   0  0  0  0  0  0  0  0  0  0  0  0
  -25.2650  -13.8610   20.4650 C   0  0  0  0  0  0  0  0  0  0  0  0
  -24.2020  -13.0910   20.8460 C   0  0  0  0  0  0  0  0  0  0  0  0
  -24.6620  -11.7400   20.8040 C   0  0  0  0  0  0  0  0  0  0  0  0
  -26.3080  -12.9770   20.2300 N   0  0  0  0  0  0  0  0  0  0  0  0
  -25.9500  -11.6950   20.4880 N   0  0  0  0  0  0  0  0  0  0  0  0
  -23.9320  -10.4810   20.9900 C   0  0  0  0  0  0  0  0  0  0  0  0
  -24.3550   -9.5170   21.9310 C   0  0  0  0  0  3  0  0  0  0  0  0
  -23.6240   -8.3220   22.1060 C   0  0  0  0  0  3  0  0  0  0  0  0
  -22.4610   -8.0830   21.3380 C   0  0  0  0  0  0  0  0  0  0  0  0
  -22.0590   -9.0360   20.3850 C   0  0  0  0  0  3  0  0  0  0  0  0
  -22.7890  -10.2220   20.2080 C   0  0  0  0  0  3  0  0  0  0  0  0
  -21.7050   -6.9380   21.4230 O   0  0  0  0  0  0  0  0  0  0  0  0
  -21.6150   -6.2210   22.5880 C   0  0  0  0  0  0  0  0  0  0  0  0
  -21.1210   -6.7960   23.7800 C   0  0  0  0  0  3  0  0  0  0  0  0
  -20.9800   -6.0040   24.9370 C   0  0  0  0  0  3  0  0  0  0  0  0
  -21.3240   -4.6390   24.9040 C   0  0  0  0  0  0  0  0  0  0  0  0
  -21.8110   -4.0640   23.7170 C   0  0  0  0  0  3  0  0  0  0  0  0
  -21.9550   -4.8530   22.5620 C   0  0  0  0  0  0  0  0  0  0  0  0
  -22.4070   -4.2900   21.4150 F   0  0  0  0  0  0  0  0  0  0  0  0
  -21.1810   -3.8760   26.0130 F   0  0  0  0  0  0  0  0  0  0  0  0
  -22.8100  -13.5760   21.1320 C   0  0  0  0  0  0  0  0  0  0  0  0
  -22.0920  -12.8860   22.0130 N   0  0  0  0  0  0  0  0  0  0  0  0
  -22.3690  -14.5990   20.6120 O   0  0  0  0  0  0  0  0  0  0  0  0
  -22.4620  -12.0580   22.4550 H   0  0  0  0  0  0  0  0  0  0  0  0
  -21.1580  -13.1920   22.2500 H   0  0  0  0  0  0  0  0  0  0  0  0
  -25.4120  -15.2320   20.2750 N   0  0  0  0  0  0  0  0  0  0  0  0
  -24.6320  -15.8700   20.3840 H   0  0  0  0  0  0  0  0  0  0  0  0
  -26.2330  -15.6730   19.8850 H   0  0  0  0  0  0  0  0  0  0  0  0
  -28.7980  -21.9120   20.1020 C   0  0  0  0  0  2  0  0  0  0  0  0
  -29.0610  -23.5120   20.5370 C   0  0  0  0  0  3  0  0  0  0  0  0
  -28.0690  -24.7790   20.0920 C   0  0  0  0  0  3  0  0  0  0  0  0
  -28.2780  -26.2770   20.3980 O   0  0  0  0  0  0  0  0  0  0  0  0
  -24.6220  -31.9430   23.2830 C   0  0  0  0  0  0  0  0  0  0  0  0
  -27.2070  -27.2290   20.3010 C   0  0  0  0  0  0  0  0  0  0  0  0
  -23.4250  -30.5440   21.6440 C   0  0  0  0  0  3  0  0  0  0  0  0
  -24.8730  -28.9530   20.2410 C   0  0  0  0  0  0  0  0  0  0  0  0
  -25.9780  -30.8020   21.4940 C   0  0  0  0  0  2  0  0  0  0  0  0
  -26.0480  -29.4080   20.8530 C   0  0  0  0  0  0  0  0  0  0  0  0
  -27.2140  -28.5610   20.8680 C   0  0  0  0  0  3  0  0  0  0  0  0
  -26.0060  -26.8640   19.6500 C   0  0  0  0  0  3  0  0  0  0  0  0
  -24.8630  -27.6920   19.6260 C   0  0  0  0  0  3  0  0  0  0  0  0
  -23.6500  -29.8550   20.2710 C   0  0  0  0  0  2  0  0  0  0  0  0
  -24.6940  -31.1180   22.1950 N   0  0  0  0  0  0  0  0  0  0  0  0
  -23.5350  -32.2370   23.8020 O   0  0  0  0  0  0  0  0  0  0  0  0
  -22.7330  -29.5480   22.6070 C   0  0  0  0  0  0  0  0  0  0  0  0
  -21.4050  -29.3870   22.4700 N   0  0  0  0  0  0  0  0  0  0  0  0
  -23.3920  -28.9220   23.4400 O   0  0  0  0  0  0  0  0  0  0  0  0
  -20.9300  -29.9440   21.7730 H   0  0  0  0  0  0  0  0  0  0  0  0
  -18.0070  -28.2350   22.9620 C   0  0  0  0  0  0  0  0  0  0  0  0
  -20.5680  -28.4640   23.2400 C   0  0  0  0  0  3  0  0  0  0  0  0
  -20.6520  -27.0280   22.6700 C   0  0  0  0  0  2  0  0  0  0  0  0
  -19.5500  -26.7170   21.6530 C   0  0  0  0  0  2  0  0  0  0  0  0
  -18.1680  -26.8820   22.2910 C   0  0  0  0  0  2  0  0  0  0  0  0
  -19.1330  -28.9840   23.3950 C   0  0  0  0  0  0  0  0  0  0  0  0
  -18.9280  -30.2490   23.9850 C   0  0  0  0  0  3  0  0  0  0  0  0
  -17.6300  -30.7670   24.1470 C   0  0  0  0  0  3  0  0  0  0  0  0
  -16.5170  -30.0160   23.7300 C   0  0  0  0  0  3  0  0  0  0  0  0
  -16.7060  -28.7520   23.1440 C   0  0  0  0  0  3  0  0  0  0  0  0
  -25.9020  -32.5700   23.9160 C   0  0  0  0  0  3  0  0  0  0  0  0
  -26.3910  -31.8100   25.2100 C   0  0  1  0  0  0  0  0  0  0  0  0
  -25.2780  -31.5980   26.2650 C   0  0  0  0  0  1  0  0  0  0  0  0
  -26.9650  -30.4210   24.8480 C   0  0  0  0  0  1  0  0  0  0  0  0
  -27.5390  -32.6020   25.8790 C   0  0  0  0  0  1  0  0  0  0  0  0
  -25.6030  -33.9760   24.2290 N   0  0  0  0  0  0  0  0  0  0  0  0
  -25.9250  -35.0180   23.4510 C   0  0  0  0  0  0  0  0  0  0  0  0
  -26.5740  -34.8960   22.4080 O   0  0  0  0  0  0  0  0  0  0  0  0
  -25.0230  -34.1440   25.0390 H   0  0  0  0  0  0  0  0  0  0  0  0
  -24.1820  -36.8050   23.1280 C   0  0  0  0  0  1  0  0  0  0  0  0
  -25.4540  -36.4170   23.8990 C   0  0  0  0  0  3  0  0  0  0  0  0
  -27.6160  -37.3230   24.6330 C   0  0  0  0  0  1  0  0  0  0  0  0
  -26.4810  -37.4670   23.7250 N   0  0  0  0  0  0  0  0  0  0  0  0
  -26.0790  -38.3910   23.8630 H   0  0  0  0  0  0  0  0  0  0  0  0
  1  3  2  0
  1  2  1  0
  2  4  2  0
  3  6  1  0
  4  7  1  0
  4  5  1  0
  6  7  2  0
 10  8  1  6
 10  3  1  0
 10  9  1  0
 11 10  1  0
 11 17  1  0
 12 17  1  0
 13 14  1  0
 13 12  1  0
 15 14  1  0
 15 22  1  0
 15 16  1  0
 17 16  1  0
 18 11  2  0
 19 20  2  0
 20 39  1  0
 21 20  1  0
 21 24  1  0
 22 19  1  0
 22 23  1  0
 23 21  2  0
 24 25  1  0
 25 26  2  0
 27 30  1  0
 27 26  1  0
 28 27  2  0
 29 28  1  0
 29 24  2  0
 30 31  1  0
 31 32  1  0
 32 33  2  0
 34 33  1  0
 34 38  1  0
 35 34  2  0
 36 31  2  0
 36 35  1  0
 37 36  1  0
 39 40  1  0
 40 43  1  0
 40 42  1  0
 41 39  2  0
 44 45  1  0
 44 19  1  0
 46 44  1  0
 47  2  1  0
 47 48  1  0
 49 50  1  0
 49 48  2  0
 51 62  2  0
 52 50  1  0
 52 57  1  0
 53 61  1  0
 53 63  1  0
 54 60  1  0
 54 56  1  0
 55 61  1  0
 56 57  2  0
 56 55  1  0
 58 52  2  0
 59 58  1  0
 59 54  2  0
 60 53  1  0
 61 51  1  0
 63 65  2  0
 64 63  1  0
 66 64  1  0
 67 76  2  0
 67 72  1  0
 68 64  1  0
 68 72  1  0
 69 68  1  0
 70 71  1  0
 70 69  1  0
 71 67  1  0
 72 73  2  0
 73 74  1  0
 75 74  2  0
 76 75  1  0
 77 51  1  0
 77 82  1  0
 77 78  1  0
 78 81  1  1
 78 79  1  0
 80 78  1  0
 82 85  1  0
 83 87  1  0
 83 82  1  0
 84 83  2  0
 87 86  1  0
 89 90  1  0
 89 87  1  0
 89 88  1  0
M  ISO  4  10 100  11 100  49 101  50 101
M  END
>  <TORSDO>  (54) 
F 20

>  <SCORE>  (54) 
-13.343

>  <name>  (54) 
53

>  <ligand_id>  (54) 
53

>  <original_smiles>  (54) 
[H]c1c([H])c([H])c2c(c1[H])C([H])([H])C([H])([H])C([H])([H])C2([H])N([H])C(=O)C1([H])N(C(=O)C([H])(N([H])C(=O)C([H])(N([H])C([H])([H])[H])C([H])([H])[H])C(C([H])([H])[H])(C([H])([H])[H])C([H])([H])[H])C([H])([H])c2c([H])c(OC([H])([H])C([H])([H])C([H])([H])c3c(C([H])([H])[H])nnc(C(C(=O)N4C([H])([H])C([H])([H])C([H])([H])C([H])(n5nc(-c6c([H])c([H])c(Oc7c([H])c([H])c(F)c([H])c7F)c([H])c6[H])c(C(=O)N([H])[H])c5N([H])[H])C4([H])[H])(C([H])([H])[H])C([H])([H])[H])c3[H])c([H])c([H])c2C1([H])[H]

>  <smiles>  (54) 
[H]c1c([H])c([H])c2c(c1[H])C([H])([H])C([H])([H])C([H])([H])C2([H])N([H])C(=O)C1([H])N(C(=O)C([H])(N([H])C(=O)C([H])(N([H])C([H])([H])[H])C([H])([H])[H])C(C([H])([H])[H])(C([H])([H])[H])C([H])([H])[H])C([H])([H])c2c([H])c(OC([H])([H])C([H])([H])C([H])([H])c3c(C([H])([H])[H])nnc(C(C(=O)N4C([H])([H])C([H])([H])C([H])([H])C([H])(n5nc(-c6c([H])c([H])c(Oc7c([H])c([H])c(F)c([H])c7F)c([H])c6[H])c(C(=O)N([H])[H])c5N([H])[H])C4([H])[H])(C([H])([H])[H])C([H])([H])[H])c3[H])c([H])c([H])c2C1([H])[H]

$$$$
54:0:0
     RDKit          3D

 89 97  0  0  1  0  0  0  0  0999 V2000
  -28.4990  -17.6220   19.3050 C   0  0  0  0  0  3  0  0  0  0  0  0
  -29.6560  -17.8410   20.0810 C   0  0  0  0  0  0  0  0  0  0  0  0
  -27.9790  -19.9210   19.1900 C   0  0  0  0  0  0  0  0  0  0  0  0
  -29.1130  -20.3000   19.9570 C   0  0  0  0  0  0  0  0  0  0  0  0
  -27.0160  -20.9530   18.6250 C   0  0  0  0  0  1  0  0  0  0  0  0
  -27.6870  -18.6280   18.8790 N   0  0  0  0  0  0  0  0  0  0  0  0
  -29.9400  -19.2140   20.3880 N   0  0  0  0  0  0  0  0  0  0  0  0
  -30.1080  -16.3320   22.1920 C   0  0  0  0  0  1  0  0  0  0  0  0
  -30.4510  -16.5270   20.7010 C   0  0  0  0  0  3  0  0  0  0  0  0
  -30.8500  -15.0630   19.9750 C   0  0  0  0  0  0  0  0  0  0  0  0
  -30.5440  -12.7360   18.9730 C   0  0  0  0  0  2  0  0  0  0  0  0
  -29.5670  -12.7620   17.7710 C   0  0  0  0  0  2  0  0  0  0  0  0
  -28.1170  -12.5840   18.2620 C   0  0  0  0  0  2  0  0  0  0  0  0
  -27.7990  -13.4830   19.4840 C   0  0  0  0  0  3  0  0  0  0  0  0
  -28.9050  -13.4420   20.5590 C   0  0  0  0  0  2  0  0  0  0  0  0
  -30.1710  -13.8340   19.9240 N   0  0  0  0  0  0  0  0  0  0  0  0
  -31.9570  -15.0510   19.4240 O   0  0  0  0  0  0  0  0  0  0  0  0
  -25.4720  -14.1000   20.3430 C   0  0  0  0  0  0  0  0  0  0  0  0
  -24.4070  -13.3440   20.7480 C   0  0  0  0  0  0  0  0  0  0  0  0
  -24.8390  -11.9840   20.6880 C   0  0  0  0  0  0  0  0  0  0  0  0
  -26.4810  -13.2020   20.0460 N   0  0  0  0  0  0  0  0  0  0  0  0
  -26.1140  -11.9230   20.3190 N   0  0  0  0  0  0  0  0  0  0  0  0
  -24.0940  -10.7360   20.9060 C   0  0  0  0  0  0  0  0  0  0  0  0
  -24.5370   -9.7610   21.8250 C   0  0  0  0  0  3  0  0  0  0  0  0
  -23.7930   -8.5790   22.0310 C   0  0  0  0  0  3  0  0  0  0  0  0
  -22.5910   -8.3640   21.3150 C   0  0  0  0  0  0  0  0  0  0  0  0
  -22.1650   -9.3270   20.3840 C   0  0  0  0  0  3  0  0  0  0  0  0
  -22.9110  -10.5010   20.1770 C   0  0  0  0  0  3  0  0  0  0  0  0
  -21.8160   -7.2350   21.4270 O   0  0  0  0  0  0  0  0  0  0  0  0
  -21.7680   -6.5060   22.5890 C   0  0  0  0  0  0  0  0  0  0  0  0
  -21.3740   -7.0850   23.8160 C   0  0  0  0  0  3  0  0  0  0  0  0
  -21.2760   -6.2840   24.9720 C   0  0  0  0  0  3  0  0  0  0  0  0
  -21.5600   -4.9070   24.9010 C   0  0  0  0  0  0  0  0  0  0  0  0
  -21.9430   -4.3290   23.6800 C   0  0  0  0  0  3  0  0  0  0  0  0
  -22.0430   -5.1260   22.5260 C   0  0  0  0  0  0  0  0  0  0  0  0
  -22.3940   -4.5600   21.3460 F   0  0  0  0  0  0  0  0  0  0  0  0
  -21.4580   -4.1360   26.0100 F   0  0  0  0  0  0  0  0  0  0  0  0
  -23.0360  -13.8510   21.0870 C   0  0  0  0  0  0  0  0  0  0  0  0
  -22.3380  -13.1730   21.9920 N   0  0  0  0  0  0  0  0  0  0  0  0
  -22.5950  -14.8830   20.5850 O   0  0  0  0  0  0  0  0  0  0  0  0
  -22.7080  -12.3370   22.4210 H   0  0  0  0  0  0  0  0  0  0  0  0
  -21.4140  -13.4890   22.2460 H   0  0  0  0  0  0  0  0  0  0  0  0
  -25.6600  -15.4680   20.1730 N   0  0  0  0  0  0  0  0  0  0  0  0
  -24.9160  -16.1390   20.3400 H   0  0  0  0  0  0  0  0  0  0  0  0
  -26.5150  -15.8980   19.8440 H   0  0  0  0  0  0  0  0  0  0  0  0
  -29.5030  -21.9110   20.0680 C   0  0  0  0  0  2  0  0  0  0  0  0
  -28.5760  -23.2650   20.5280 C   0  0  0  0  0  2  0  0  0  0  0  0
  -28.3490  -24.7190   19.6810 C   0  0  0  0  0  2  0  0  0  0  0  0
  -28.2790  -26.2020   20.1810 O   0  0  0  0  0  0  0  0  0  0  0  0
  -24.6010  -31.8410   23.1320 C   0  0  0  0  0  0  0  0  0  0  0  0
  -27.1980  -27.1570   20.0630 C   0  0  0  0  0  0  0  0  0  0  0  0
  -23.4100  -30.4590   21.4790 C   0  0  0  0  0  3  0  0  0  0  0  0
  -24.8600  -28.9010   20.0370 C   0  0  0  0  0  0  0  0  0  0  0  0
  -25.9610  -30.7300   21.3190 C   0  0  0  0  0  2  0  0  0  0  0  0
  -26.0370  -29.3460   20.6490 C   0  0  0  0  0  0  0  0  0  0  0  0
  -27.2000  -28.4880   20.6450 C   0  0  0  0  0  3  0  0  0  0  0  0
  -25.9940  -26.8120   19.4100 C   0  0  0  0  0  3  0  0  0  0  0  0
  -24.8520  -27.6500   19.4010 C   0  0  0  0  0  3  0  0  0  0  0  0
  -23.6280  -29.7950   20.0930 C   0  0  0  0  0  2  0  0  0  0  0  0
  -24.6780  -31.0320   22.0310 N   0  0  0  0  0  0  0  0  0  0  0  0
  -23.5120  -32.1190   23.6570 O   0  0  0  0  0  0  0  0  0  0  0  0
  -22.7320  -29.4380   22.4280 C   0  0  0  0  0  0  0  0  0  0  0  0
  -21.4040  -29.2700   22.2950 N   0  0  0  0  0  0  0  0  0  0  0  0
  -23.4020  -28.8080   23.2480 O   0  0  0  0  0  0  0  0  0  0  0  0
  -20.9240  -29.8310   21.6070 H   0  0  0  0  0  0  0  0  0  0  0  0
  -18.0290  -28.0420   22.7700 C   0  0  0  0  0  0  0  0  0  0  0  0
  -20.5850  -28.3200   23.0520 C   0  0  0  0  0  3  0  0  0  0  0  0
  -20.6990  -26.8910   22.4700 C   0  0  0  0  0  2  0  0  0  0  0  0
  -19.6020  -26.5650   21.4480 C   0  0  0  0  0  2  0  0  0  0  0  0
  -18.2160  -26.7010   22.0830 C   0  0  0  0  0  2  0  0  0  0  0  0
  -19.1400  -28.8090   23.2090 C   0  0  0  0  0  0  0  0  0  0  0  0
  -18.9070  -30.0640   23.8130 C   0  0  0  0  0  3  0  0  0  0  0  0
  -17.5980  -30.5500   23.9790 C   0  0  0  0  0  3  0  0  0  0  0  0
  -16.5010  -29.7860   23.5460 C   0  0  0  0  0  3  0  0  0  0  0  0
  -16.7180  -28.5310   22.9510 C   0  0  0  0  0  3  0  0  0  0  0  0
  -25.8740  -32.4750   23.7720 C   0  0  0  0  0  3  0  0  0  0  0  0
  -26.3840  -31.6950   25.0480 C   0  0  1  0  0  0  0  0  0  0  0  0
  -25.2850  -31.4460   26.1090 C   0  0  0  0  0  1  0  0  0  0  0  0
  -26.9710  -30.3220   24.6500 C   0  0  0  0  0  1  0  0  0  0  0  0
  -27.5320  -32.4870   25.7180 C   0  0  0  0  0  1  0  0  0  0  0  0
  -25.5540  -33.8700   24.1240 N   0  0  0  0  0  0  0  0  0  0  0  0
  -25.8890  -34.9390   23.3870 C   0  0  0  0  0  0  0  0  0  0  0  0
  -26.5640  -34.8540   22.3570 O   0  0  0  0  0  0  0  0  0  0  0  0
  -24.9560  -34.0080   24.9240 H   0  0  0  0  0  0  0  0  0  0  0  0
  -24.1560  -36.7350   23.0650 C   0  0  0  0  0  1  0  0  0  0  0  0
  -25.3990  -36.3200   23.8680 C   0  0  0  0  0  3  0  0  0  0  0  0
  -27.5300  -37.1930   24.7150 C   0  0  0  0  0  1  0  0  0  0  0  0
  -26.4300  -37.3760   23.7720 N   0  0  0  0  0  0  0  0  0  0  0  0
  -26.0230  -38.2910   23.9420 H   0  0  0  0  0  0  0  0  0  0  0  0
  1  2  1  0
  2  7  2  0
  2  9  1  0
  3  4  2  0
  4 46  1  0
  4  7  1  0
  5  3  1  0
  6  3  1  0
  6  1  2  0
  9  8  1  0
 10  9  1  0
 11 16  1  0
 12 13  1  0
 12 11  1  0
 14 13  1  0
 14 21  1  0
 14 15  1  0
 16 10  1  0
 16 15  1  0
 17 10  2  0
 18 19  2  0
 19 38  1  0
 20 19  1  0
 20 23  1  0
 21 22  1  0
 21 18  1  0
 22 20  2  0
 23 24  1  0
 24 25  2  0
 26 29  1  0
 26 25  1  0
 27 26  2  0
 28 27  1  0
 28 23  2  0
 29 30  1  0
 30 31  1  0
 31 32  2  0
 33 32  1  0
 33 37  1  0
 34 33  2  0
 35 30  2  0
 35 34  1  0
 36 35  1  0
 38 39  1  0
 39 42  1  0
 39 41  1  0
 40 38  2  0
 43 44  1  0
 43 18  1  0
 45 43  1  0
 46 47  1  0
 48 49  1  0
 48 47  1  0
 50 61  2  0
 51 49  1  0
 51 56  1  0
 52 60  1  0
 52 62  1  0
 53 59  1  0
 53 55  1  0
 54 60  1  0
 55 54  1  0
 56 55  2  0
 57 51  2  0
 58 57  1  0
 58 53  2  0
 59 52  1  0
 60 50  1  0
 62 64  2  0
 63 62  1  0
 65 63  1  0
 66 75  2  0
 66 71  1  0
 67 63  1  0
 67 71  1  0
 68 67  1  0
 69 70  1  0
 69 68  1  0
 70 66  1  0
 71 72  2  0
 72 73  1  0
 74 73  2  0
 75 74  1  0
 76 50  1  0
 76 81  1  0
 76 77  1  0
 77 80  1  1
 77 78  1  0
 79 77  1  0
 81 84  1  0
 82 86  1  0
 82 81  1  0
 83 82  2  0
 86 85  1  0
 88 86  1  0
 88 89  1  0
 88 87  1  0
M  ISO  4   9 100  10 100  48 101  49 101
M  END
>  <TORSDO>  (55) 
F 20

>  <SCORE>  (55) 
-14.720

>  <name>  (55) 
54

>  <ligand_id>  (55) 
54

>  <original_smiles>  (55) 
[H]c1nc(C([H])([H])[H])c(C([H])([H])C([H])([H])C([H])([H])Oc2c([H])c([H])c3c(c2[H])C([H])([H])N(C(=O)C([H])(N([H])C(=O)C([H])(N([H])C([H])([H])[H])C([H])([H])[H])C(C([H])([H])[H])(C([H])([H])[H])C([H])([H])[H])C([H])(C(=O)N([H])C2([H])c4c([H])c([H])c([H])c([H])c4C([H])([H])C([H])([H])C2([H])[H])C3([H])[H])nc1C([H])(C(=O)N1C([H])([H])C([H])([H])C([H])([H])C([H])(n2nc(-c3c([H])c([H])c(Oc4c([H])c([H])c(F)c([H])c4F)c([H])c3[H])c(C(=O)N([H])[H])c2N([H])[H])C1([H])[H])C([H])([H])[H]

>  <smiles>  (55) 
[H]c1nc(C([H])([H])[H])c(C([H])([H])C([H])([H])C([H])([H])Oc2c([H])c([H])c3c(c2[H])C([H])([H])N(C(=O)C([H])(N([H])C(=O)C([H])(N([H])C([H])([H])[H])C([H])([H])[H])C(C([H])([H])[H])(C([H])([H])[H])C([H])([H])[H])C([H])(C(=O)N([H])C2([H])c4c([H])c([H])c([H])c([H])c4C([H])([H])C([H])([H])C2([H])[H])C3([H])[H])nc1C([H])(C(=O)N1C([H])([H])C([H])([H])C([H])([H])C([H])(n2nc(-c3c([H])c([H])c(Oc4c([H])c([H])c(F)c([H])c4F)c([H])c3[H])c(C(=O)N([H])[H])c2N([H])[H])C1([H])[H])C([H])([H])[H]

$$$$
55:0:0
     RDKit          3D

 91 99  0  0  1  0  0  0  0  0999 V2000
  -28.9540  -21.2950   21.4960 C   0  0  0  0  0  3  0  0  0  0  0  0
  -28.8990  -22.3700   20.6150 C   0  0  0  0  0  0  0  0  0  0  0  0
  -28.8810  -21.7840   19.3450 N   0  0  0  0  0  0  0  0  0  0  0  0
  -28.8980  -20.4760   19.4260 N   0  0  0  0  0  0  0  0  0  0  0  0
  -29.0070  -20.1070   20.7290 N   0  0  0  0  0  0  0  0  0  0  0  0
  -29.0630  -23.9250   20.8200 C   0  0  0  0  0  3  0  0  0  0  0  0
  -27.9540  -24.9660   20.3250 C   0  0  0  0  0  3  0  0  0  0  0  0
  -28.2420  -26.4380   20.3320 O   0  0  0  0  0  0  0  0  0  0  0  0
  -24.5800  -31.9370   23.2280 C   0  0  0  0  0  0  0  0  0  0  0  0
  -27.1550  -27.3260   20.2230 C   0  0  0  0  0  0  0  0  0  0  0  0
  -23.3690  -30.5290   21.6040 C   0  0  0  0  0  3  0  0  0  0  0  0
  -24.8090  -28.9680   20.1760 C   0  0  0  0  0  0  0  0  0  0  0  0
  -25.9100  -30.8370   21.4110 C   0  0  0  0  0  2  0  0  0  0  0  0
  -25.9830  -29.4550   20.7690 C   0  0  0  0  0  0  0  0  0  0  0  0
  -27.1630  -28.6480   20.7720 C   0  0  0  0  0  3  0  0  0  0  0  0
  -25.9670  -26.9080   19.5820 C   0  0  0  0  0  3  0  0  0  0  0  0
  -24.8080  -27.7070   19.5630 C   0  0  0  0  0  3  0  0  0  0  0  0
  -23.5720  -29.8410   20.2290 C   0  0  0  0  0  2  0  0  0  0  0  0
  -24.6380  -31.1210   22.1350 N   0  0  0  0  0  0  0  0  0  0  0  0
  -23.5000  -32.2210   23.7650 O   0  0  0  0  0  0  0  0  0  0  0  0
  -22.7100  -29.5220   22.5770 C   0  0  0  0  0  0  0  0  0  0  0  0
  -21.3820  -29.3470   22.4600 N   0  0  0  0  0  0  0  0  0  0  0  0
  -23.3890  -28.8980   23.3980 O   0  0  0  0  0  0  0  0  0  0  0  0
  -20.8930  -29.8960   21.7670 H   0  0  0  0  0  0  0  0  0  0  0  0
  -18.0030  -28.1620   22.9790 C   0  0  0  0  0  0  0  0  0  0  0  0
  -20.5620  -28.4180   23.2420 C   0  0  0  0  0  3  0  0  0  0  0  0
  -20.6590  -26.9830   22.6750 C   0  0  0  0  0  2  0  0  0  0  0  0
  -19.5530  -26.6560   21.6670 C   0  0  0  0  0  2  0  0  0  0  0  0
  -18.1740  -26.8080   22.3120 C   0  0  0  0  0  2  0  0  0  0  0  0
  -19.1240  -28.9260   23.4000 C   0  0  0  0  0  0  0  0  0  0  0  0
  -18.9080  -30.1950   23.9820 C   0  0  0  0  0  3  0  0  0  0  0  0
  -17.6050  -30.7010   24.1470 C   0  0  0  0  0  3  0  0  0  0  0  0
  -16.4980  -29.9330   23.7450 C   0  0  0  0  0  3  0  0  0  0  0  0
  -16.6990  -28.6660   23.1670 C   0  0  0  0  0  3  0  0  0  0  0  0
  -25.8670  -32.5700   23.8400 C   0  0  0  0  0  3  0  0  0  0  0  0
  -25.5580  -33.9680   24.1760 N   0  0  0  0  0  0  0  0  0  0  0  0
  -25.8870  -35.0250   23.4190 C   0  0  0  0  0  0  0  0  0  0  0  0
  -26.5510  -34.9250   22.3830 O   0  0  0  0  0  0  0  0  0  0  0  0
  -24.9630  -34.1190   24.9770 H   0  0  0  0  0  0  0  0  0  0  0  0
  -24.1490  -36.8140   23.0910 C   0  0  0  0  0  1  0  0  0  0  0  0
  -25.4020  -36.4110   23.8850 C   0  0  0  0  0  3  0  0  0  0  0  0
  -27.5520  -37.2950   24.6810 C   0  0  0  0  0  1  0  0  0  0  0  0
  -26.4300  -37.4690   23.7610 N   0  0  0  0  0  0  0  0  0  0  0  0
  -26.0240  -38.3860   23.9260 H   0  0  0  0  0  0  0  0  0  0  0  0
  -26.3950  -31.7960   25.1100 C   0  0  1  0  0  0  0  0  0  0  0  0
  -25.3130  -31.5550   26.1880 C   0  0  0  0  0  1  0  0  0  0  0  0
  -26.9700  -30.4180   24.7110 C   0  0  0  0  0  1  0  0  0  0  0  0
  -27.5510  -32.5910   25.7600 C   0  0  0  0  0  1  0  0  0  0  0  0
  -29.0450  -18.6420   21.1630 C   0  0  0  0  0  2  0  0  0  0  0  0
  -31.1330  -18.0740   19.8160 C   0  0  0  0  0  1  0  0  0  0  0  0
  -28.9120  -17.2310   19.0210 C   0  0  0  0  0  1  0  0  0  0  0  0
  -29.7810  -17.4870   20.2780 C   0  0  2  0  0  0  0  0  0  0  0  0
  -30.7390  -16.1240   22.3340 C   0  0  0  0  0  1  0  0  0  0  0  0
  -29.9780  -16.0180   20.9940 C   0  0  1  0  0  0  0  0  0  0  0  0
  -28.7380  -15.7210   21.3760 F   0  0  0  0  0  0  0  0  0  0  0  0
  -30.6190  -14.7570   20.1790 C   0  0  0  0  0  0  0  0  0  0  0  0
  -30.3800  -12.5860   18.9310 C   0  0  0  0  0  2  0  0  0  0  0  0
  -29.3650  -12.7680   17.7780 C   0  0  0  0  0  2  0  0  0  0  0  0
  -27.9130  -12.5900   18.2700 C   0  0  0  0  0  2  0  0  0  0  0  0
  -27.6380  -13.3730   19.5820 C   0  0  0  0  0  3  0  0  0  0  0  0
  -28.7450  -13.0790   20.6150 C   0  0  0  0  0  2  0  0  0  0  0  0
  -30.0090  -13.5260   20.0190 N   0  0  0  0  0  0  0  0  0  0  0  0
  -31.7280  -14.9080   19.6440 O   0  0  0  0  0  0  0  0  0  0  0  0
  -25.2970  -13.9750   20.4460 C   0  0  0  0  0  0  0  0  0  0  0  0
  -24.2380  -13.1960   20.8350 C   0  0  0  0  0  0  0  0  0  0  0  0
  -24.6740  -11.8440   20.7110 C   0  0  0  0  0  0  0  0  0  0  0  0
  -26.3100  -13.0910   20.1170 N   0  0  0  0  0  0  0  0  0  0  0  0
  -25.9450  -11.8020   20.3280 N   0  0  0  0  0  0  0  0  0  0  0  0
  -23.9360  -10.5860   20.8820 C   0  0  0  0  0  0  0  0  0  0  0  0
  -24.4070   -9.5550   21.7250 C   0  0  0  0  0  3  0  0  0  0  0  0
  -23.6650   -8.3630   21.8820 C   0  0  0  0  0  3  0  0  0  0  0  0
  -22.4390   -8.1960   21.1950 C   0  0  0  0  0  0  0  0  0  0  0  0
  -21.9900   -9.2130   20.3340 C   0  0  0  0  0  3  0  0  0  0  0  0
  -22.7320  -10.3960   20.1750 C   0  0  0  0  0  3  0  0  0  0  0  0
  -21.6640   -7.0640   21.2690 O   0  0  0  0  0  0  0  0  0  0  0  0
  -21.6820   -6.2500   22.3730 C   0  0  0  0  0  0  0  0  0  0  0  0
  -21.3900   -6.7410   23.6650 C   0  0  0  0  0  3  0  0  0  0  0  0
  -21.3520   -5.8570   24.7610 C   0  0  0  0  0  3  0  0  0  0  0  0
  -21.5980   -4.4850   24.5680 C   0  0  0  0  0  0  0  0  0  0  0  0
  -21.8850   -3.9920   23.2820 C   0  0  0  0  0  3  0  0  0  0  0  0
  -21.9240   -4.8730   22.1880 C   0  0  0  0  0  0  0  0  0  0  0  0
  -22.1800   -4.3930   20.9470 F   0  0  0  0  0  0  0  0  0  0  0  0
  -21.5540   -3.6340   25.6180 F   0  0  0  0  0  0  0  0  0  0  0  0
  -22.8670  -13.6830   21.2120 C   0  0  0  0  0  0  0  0  0  0  0  0
  -22.1820  -12.9560   22.0910 N   0  0  0  0  0  0  0  0  0  0  0  0
  -22.4150  -14.7370   20.7690 O   0  0  0  0  0  0  0  0  0  0  0  0
  -22.5640  -12.1060   22.4760 H   0  0  0  0  0  0  0  0  0  0  0  0
  -21.2670  -13.2600   22.3910 H   0  0  0  0  0  0  0  0  0  0  0  0
  -25.4650  -15.3480   20.3270 N   0  0  0  0  0  0  0  0  0  0  0  0
  -24.7090  -16.0000   20.5020 H   0  0  0  0  0  0  0  0  0  0  0  0
  -26.3270  -15.8020   20.0510 H   0  0  0  0  0  0  0  0  0  0  0  0
  2  6  1  0
  2  1  2  0
  3  4  2  0
  3  2  1  0
  4  5  1  0
  5 49  1  0
  5  1  1  0
  7  8  1  0
  7  6  2  0
  9 20  2  0
 10  8  1  0
 10 15  1  0
 11 19  1  0
 11 21  1  0
 12 18  1  0
 12 14  1  0
 13 19  1  0
 14 15  2  0
 14 13  1  0
 16 10  2  0
 17 16  1  0
 17 12  2  0
 18 11  1  0
 19  9  1  0
 21 23  2  0
 22 21  1  0
 24 22  1  0
 25 34  2  0
 25 30  1  0
 26 22  1  0
 26 30  1  0
 27 26  1  0
 28 29  1  0
 28 27  1  0
 29 25  1  0
 30 31  2  0
 31 32  1  0
 33 32  2  0
 34 33  1  0
 35  9  1  0
 35 36  1  0
 35 45  1  0
 36 39  1  0
 37 41  1  0
 37 36  1  0
 38 37  2  0
 41 40  1  0
 43 41  1  0
 43 44  1  0
 43 42  1  0
 45 48  1  1
 45 46  1  0
 47 45  1  0
 52 50  1  6
 51 52  1  0
 52 54  1  0
 52 49  1  0
 54 55  1  0
 54 53  1  1
 56 54  1  0
 57 62  1  0
 58 59  1  0
 58 57  1  0
 60 59  1  0
 60 67  1  0
 60 61  1  0
 62 56  1  0
 62 61  1  0
 63 56  2  0
 64 65  2  0
 65 84  1  0
 66 65  1  0
 66 69  1  0
 67 68  1  0
 67 64  1  0
 68 66  2  0
 69 70  1  0
 70 71  2  0
 72 75  1  0
 72 71  1  0
 73 72  2  0
 74 73  1  0
 74 69  2  0
 75 76  1  0
 76 77  1  0
 77 78  2  0
 79 78  1  0
 79 83  1  0
 80 79  2  0
 81 76  2  0
 81 80  1  0
 82 81  1  0
 84 85  1  0
 85 88  1  0
 85 87  1  0
 86 84  2  0
 89 64  1  0
 89 90  1  0
 91 89  1  0
M  ISO  4   7 101   8 101  54 100  56 100
M  END
>  <TORSDO>  (56) 
F 21

>  <SCORE>  (56) 
-13.023

>  <name>  (56) 
55

>  <ligand_id>  (56) 
55

>  <original_smiles>  (56) 
[H]c1c([H])c([H])c2c(c1[H])C([H])([H])C([H])([H])C([H])([H])C2([H])N([H])C(=O)C1([H])N(C(=O)C([H])(N([H])C(=O)C([H])(N([H])C([H])([H])[H])C([H])([H])[H])C(C([H])([H])[H])(C([H])([H])[H])C([H])([H])[H])C([H])([H])c2c([H])c(OC([H])([H])C([H])([H])c3nnn(C([H])([H])C(C([H])([H])[H])(C([H])([H])[H])C(F)(C(=O)N4C([H])([H])C([H])([H])C([H])([H])C([H])(n5nc(-c6c([H])c([H])c(Oc7c([H])c([H])c(F)c([H])c7F)c([H])c6[H])c(C(=O)N([H])[H])c5N([H])[H])C4([H])[H])C([H])([H])[H])c3[H])c([H])c([H])c2C1([H])[H]

>  <smiles>  (56) 
[H]c1c([H])c([H])c2c(c1[H])C([H])([H])C([H])([H])C([H])([H])C2([H])N([H])C(=O)C1([H])N(C(=O)C([H])(N([H])C(=O)C([H])(N([H])C([H])([H])[H])C([H])([H])[H])C(C([H])([H])[H])(C([H])([H])[H])C([H])([H])[H])C([H])([H])c2c([H])c(OC([H])([H])C([H])([H])c3nnn(C([H])([H])C(C([H])([H])[H])(C([H])([H])[H])C(F)(C(=O)N4C([H])([H])C([H])([H])C([H])([H])C([H])(n5nc(-c6c([H])c([H])c(Oc7c([H])c([H])c(F)c([H])c7F)c([H])c6[H])c(C(=O)N([H])[H])c5N([H])[H])C4([H])[H])C([H])([H])[H])c3[H])c([H])c([H])c2C1([H])[H]

$$$$
56:0:0
     RDKit          3D

 91 99  0  0  1  0  0  0  0  0999 V2000
  -29.3210  -19.3600   21.2210 C   0  0  0  0  0  3  0  0  0  0  0  0
  -29.2030  -21.1210   19.9500 C   0  0  0  0  0  0  0  0  0  0  0  0
  -29.6570  -20.0240   19.2080 C   0  0  0  0  0  0  0  0  0  0  0  0
  -29.9940  -20.0160   17.7480 C   0  0  0  0  0  1  0  0  0  0  0  0
  -29.0180  -20.6640   21.2500 N   0  0  0  0  0  0  0  0  0  0  0  0
  -29.6620  -18.8470   20.0210 N   0  0  0  0  0  0  0  0  0  0  0  0
  -28.8040  -17.0010   18.5890 C   0  0  0  0  0  1  0  0  0  0  0  0
  -29.9130  -17.3930   19.5980 C   0  0  0  0  0  3  0  0  0  0  0  0
  -28.8620  -16.0420   21.5460 C   0  0  0  0  0  1  0  0  0  0  0  0
  -31.2480  -16.6380   21.6720 C   0  0  0  0  0  1  0  0  0  0  0  0
  -30.1410  -16.1920   20.6840 C   0  0  2  0  0  0  0  0  0  0  0  0
  -30.6990  -14.7910   20.0590 C   0  0  0  0  0  0  0  0  0  0  0  0
  -30.4400  -12.5660   18.9390 C   0  0  0  0  0  2  0  0  0  0  0  0
  -29.4510  -12.7020   17.7580 C   0  0  0  0  0  2  0  0  0  0  0  0
  -27.9870  -12.5440   18.2250 C   0  0  0  0  0  2  0  0  0  0  0  0
  -27.6870  -13.3430   19.5200 C   0  0  0  0  0  3  0  0  0  0  0  0
  -28.7940  -13.1170   20.5720 C   0  0  0  0  0  2  0  0  0  0  0  0
  -30.0600  -13.5650   19.9750 N   0  0  0  0  0  0  0  0  0  0  0  0
  -31.8260  -14.8670   19.5540 O   0  0  0  0  0  0  0  0  0  0  0  0
  -25.3180  -13.9330   20.3210 C   0  0  0  0  0  0  0  0  0  0  0  0
  -24.2700  -13.1550   20.7250 C   0  0  0  0  0  0  0  0  0  0  0  0
  -24.7380  -11.8060   20.6750 C   0  0  0  0  0  0  0  0  0  0  0  0
  -26.3590  -13.0570   20.0510 N   0  0  0  0  0  0  0  0  0  0  0  0
  -26.0170  -11.7730   20.3210 N   0  0  0  0  0  0  0  0  0  0  0  0
  -24.0250  -10.5410   20.8850 C   0  0  0  0  0  0  0  0  0  0  0  0
  -24.4570   -9.5950   21.8410 C   0  0  0  0  0  3  0  0  0  0  0  0
  -23.7370   -8.3980   22.0380 C   0  0  0  0  0  3  0  0  0  0  0  0
  -22.5720   -8.1380   21.2770 C   0  0  0  0  0  0  0  0  0  0  0  0
  -22.1580   -9.0740   20.3140 C   0  0  0  0  0  3  0  0  0  0  0  0
  -22.8790  -10.2630   20.1150 C   0  0  0  0  0  3  0  0  0  0  0  0
  -21.8260   -6.9900   21.3810 O   0  0  0  0  0  0  0  0  0  0  0  0
  -21.7340   -6.2960   22.5600 C   0  0  0  0  0  0  0  0  0  0  0  0
  -21.2310   -6.8910   23.7380 C   0  0  0  0  0  3  0  0  0  0  0  0
  -21.0930   -6.1240   24.9120 C   0  0  0  0  0  3  0  0  0  0  0  0
  -21.4420   -4.7610   24.9070 C   0  0  0  0  0  0  0  0  0  0  0  0
  -21.9360   -4.1640   23.7350 C   0  0  0  0  0  3  0  0  0  0  0  0
  -22.0800   -4.9290   22.5630 C   0  0  0  0  0  0  0  0  0  0  0  0
  -22.5370   -4.3440   21.4300 F   0  0  0  0  0  0  0  0  0  0  0  0
  -21.3020   -4.0200   26.0320 F   0  0  0  0  0  0  0  0  0  0  0  0
  -22.8810  -13.6280   21.0440 C   0  0  0  0  0  0  0  0  0  0  0  0
  -22.1830  -12.9320   21.9340 N   0  0  0  0  0  0  0  0  0  0  0  0
  -22.4230  -14.6540   20.5410 O   0  0  0  0  0  0  0  0  0  0  0  0
  -22.5660  -12.1050   22.3670 H   0  0  0  0  0  0  0  0  0  0  0  0
  -21.2530  -13.2330   22.1900 H   0  0  0  0  0  0  0  0  0  0  0  0
  -25.4610  -15.3070   20.1450 N   0  0  0  0  0  0  0  0  0  0  0  0
  -24.7040  -15.9540   20.3270 H   0  0  0  0  0  0  0  0  0  0  0  0
  -26.3110  -15.7610   19.8400 H   0  0  0  0  0  0  0  0  0  0  0  0
  -28.6690  -22.5130   19.4850 C   0  0  0  0  0  2  0  0  0  0  0  0
  -29.0490  -23.8880   20.2000 C   0  0  0  0  0  2  0  0  0  0  0  0
  -28.0790  -25.0930   19.8100 C   0  0  0  0  0  2  0  0  0  0  0  0
  -28.2990  -26.5090   20.2050 O   0  0  0  0  0  0  0  0  0  0  0  0
  -24.6170  -31.9270   23.2680 C   0  0  0  0  0  0  0  0  0  0  0  0
  -27.1900  -27.3800   20.1520 C   0  0  0  0  0  0  0  0  0  0  0  0
  -23.3950  -30.5340   21.6400 C   0  0  0  0  0  3  0  0  0  0  0  0
  -24.8280  -29.0030   20.1810 C   0  0  0  0  0  0  0  0  0  0  0  0
  -25.9330  -30.8500   21.4330 C   0  0  0  0  0  2  0  0  0  0  0  0
  -26.0030  -29.4780   20.7750 C   0  0  0  0  0  0  0  0  0  0  0  0
  -27.1860  -28.6760   20.7590 C   0  0  0  0  0  3  0  0  0  0  0  0
  -25.9920  -26.9750   19.5120 C   0  0  0  0  0  3  0  0  0  0  0  0
  -24.8250  -27.7570   19.5400 C   0  0  0  0  0  3  0  0  0  0  0  0
  -23.5910  -29.8750   20.2510 C   0  0  0  0  0  2  0  0  0  0  0  0
  -24.6680  -31.1210   22.1690 N   0  0  0  0  0  0  0  0  0  0  0  0
  -23.5390  -32.2030   23.8150 O   0  0  0  0  0  0  0  0  0  0  0  0
  -22.7460  -29.5100   22.6010 C   0  0  0  0  0  0  0  0  0  0  0  0
  -21.4240  -29.3090   22.4680 N   0  0  0  0  0  0  0  0  0  0  0  0
  -23.4310  -28.9010   23.4260 O   0  0  0  0  0  0  0  0  0  0  0  0
  -20.9300  -29.8510   21.7720 H   0  0  0  0  0  0  0  0  0  0  0  0
  -18.0660  -28.0590   22.9600 C   0  0  0  0  0  0  0  0  0  0  0  0
  -20.6170  -28.3660   23.2430 C   0  0  0  0  0  3  0  0  0  0  0  0
  -20.7490  -26.9310   22.6830 C   0  0  0  0  0  2  0  0  0  0  0  0
  -19.6600  -26.5780   21.6670 C   0  0  0  0  0  2  0  0  0  0  0  0
  -18.2710  -26.7070   22.2990 C   0  0  0  0  0  2  0  0  0  0  0  0
  -19.1680  -28.8450   23.3890 C   0  0  0  0  0  0  0  0  0  0  0  0
  -18.9250  -30.1090   23.9700 C   0  0  0  0  0  3  0  0  0  0  0  0
  -17.6110  -30.5890   24.1240 C   0  0  0  0  0  3  0  0  0  0  0  0
  -16.5220  -29.8020   23.7100 C   0  0  0  0  0  3  0  0  0  0  0  0
  -16.7510  -28.5390   23.1340 C   0  0  0  0  0  3  0  0  0  0  0  0
  -25.9060  -32.5590   23.8770 C   0  0  0  0  0  3  0  0  0  0  0  0
  -25.6060  -33.9620   24.1950 N   0  0  0  0  0  0  0  0  0  0  0  0
  -25.9200  -35.0030   23.4130 C   0  0  0  0  0  0  0  0  0  0  0  0
  -26.5650  -34.8850   22.3680 O   0  0  0  0  0  0  0  0  0  0  0  0
  -25.0330  -34.1280   25.0100 H   0  0  0  0  0  0  0  0  0  0  0  0
  -24.1750  -36.7850   23.0840 C   0  0  0  0  0  1  0  0  0  0  0  0
  -25.4440  -36.3990   23.8600 C   0  0  0  0  0  3  0  0  0  0  0  0
  -27.6010  -37.3060   24.6070 C   0  0  0  0  0  1  0  0  0  0  0  0
  -26.4700  -37.4530   23.6930 N   0  0  0  0  0  0  0  0  0  0  0  0
  -26.0680  -38.3760   23.8340 H   0  0  0  0  0  0  0  0  0  0  0  0
  -26.4260  -31.7970   25.1580 C   0  0  1  0  0  0  0  0  0  0  0  0
  -25.3320  -31.5610   26.2250 C   0  0  0  0  0  1  0  0  0  0  0  0
  -27.0190  -30.4200   24.7780 C   0  0  0  0  0  1  0  0  0  0  0  0
  -27.5750  -32.6000   25.8110 C   0  0  0  0  0  1  0  0  0  0  0  0
  1  5  2  0
  2  5  1  0
  3  2  2  0
  3  6  1  0
  4  3  1  0
  6  1  1  0
  8  7  1  0
  8  6  1  0
  8 11  1  0
 11  9  1  1
 11 10  1  0
 12 11  1  0
 13 18  1  0
 14 15  1  0
 14 13  1  0
 16 15  1  0
 16 23  1  0
 16 17  1  0
 18 12  1  0
 18 17  1  0
 19 12  2  0
 20 21  2  0
 21 40  1  0
 22 21  1  0
 22 25  1  0
 23 20  1  0
 23 24  1  0
 24 22  2  0
 25 26  1  0
 26 27  2  0
 28 31  1  0
 28 27  1  0
 29 28  2  0
 30 29  1  0
 30 25  2  0
 31 32  1  0
 32 37  2  0
 32 33  1  0
 33 34  2  0
 35 34  1  0
 35 39  1  0
 36 35  2  0
 37 36  1  0
 38 37  1  0
 40 41  1  0
 41 44  1  0
 41 43  1  0
 42 40  2  0
 45 20  1  0
 45 46  1  0
 47 45  1  0
 48  2  1  0
 48 49  1  0
 50 49  1  0
 50 51  1  0
 52 63  2  0
 53 51  1  0
 53 58  1  0
 54 62  1  0
 54 64  1  0
 55 61  1  0
 55 57  1  0
 56 62  1  0
 57 56  1  0
 58 57  2  0
 59 60  1  0
 59 53  2  0
 60 55  2  0
 61 54  1  0
 62 52  1  0
 64 66  2  0
 65 64  1  0
 67 65  1  0
 68 77  2  0
 68 73  1  0
 69 65  1  0
 69 73  1  0
 70 69  1  0
 71 72  1  0
 71 70  1  0
 72 68  1  0
 73 74  2  0
 74 75  1  0
 76 75  2  0
 77 76  1  0
 78 52  1  0
 78 79  1  0
 78 88  1  0
 79 82  1  0
 80 84  1  0
 80 79  1  0
 81 80  2  0
 84 83  1  0
 86 87  1  0
 86 84  1  0
 86 85  1  0
 88 91  1  1
 88 89  1  0
 90 88  1  0
M  ISO  4  11 100  12 100  50 101  51 101
M  END
>  <TORSDO>  (57) 
F 21

>  <SCORE>  (57) 
-12.507

>  <name>  (57) 
56

>  <ligand_id>  (57) 
56

>  <original_smiles>  (57) 
[H]c1c([H])c([H])c2c(c1[H])C([H])([H])C([H])([H])C([H])([H])C2([H])N([H])C(=O)C1([H])N(C(=O)C([H])(N([H])C(=O)C([H])(N([H])C([H])([H])[H])C([H])([H])[H])C(C([H])([H])[H])(C([H])([H])[H])C([H])([H])[H])C([H])([H])c2c([H])c(OC([H])([H])C([H])([H])C([H])([H])c3nc([H])n(C([H])(C([H])([H])[H])C(C(=O)N4C([H])([H])C([H])([H])C([H])([H])C([H])(n5nc(-c6c([H])c([H])c(Oc7c([H])c([H])c(F)c([H])c7F)c([H])c6[H])c(C(=O)N([H])[H])c5N([H])[H])C4([H])[H])(C([H])([H])[H])C([H])([H])[H])c3C([H])([H])[H])c([H])c([H])c2C1([H])[H]

>  <smiles>  (57) 
[H]c1c([H])c([H])c2c(c1[H])C([H])([H])C([H])([H])C([H])([H])C2([H])N([H])C(=O)C1([H])N(C(=O)C([H])(N([H])C(=O)C([H])(N([H])C([H])([H])[H])C([H])([H])[H])C(C([H])([H])[H])(C([H])([H])[H])C([H])([H])[H])C([H])([H])c2c([H])c(OC([H])([H])C([H])([H])C([H])([H])c3nc([H])n(C([H])(C([H])([H])[H])C(C(=O)N4C([H])([H])C([H])([H])C([H])([H])C([H])(n5nc(-c6c([H])c([H])c(Oc7c([H])c([H])c(F)c([H])c7F)c([H])c6[H])c(C(=O)N([H])[H])c5N([H])[H])C4([H])[H])(C([H])([H])[H])C([H])([H])[H])c3C([H])([H])[H])c([H])c([H])c2C1([H])[H]

$$$$
57:0:0
     RDKit          3D

 94102  0  0  1  0  0  0  0  0999 V2000
  -30.4110  -22.3550   19.1810 C   0  0  0  0  0  3  0  0  0  0  0  0
  -29.4410  -22.7800   20.1150 C   0  0  0  0  0  0  0  0  0  0  0  0
  -28.6390  -20.5980   20.2340 C   0  0  0  0  0  0  0  0  0  0  0  0
  -29.5960  -20.1730   19.2620 C   0  0  0  0  0  0  0  0  0  0  0  0
  -27.5960  -19.6540   20.8220 C   0  0  0  0  0  1  0  0  0  0  0  0
  -30.4830  -21.0710   18.7520 N   0  0  0  0  0  0  0  0  0  0  0  0
  -28.5630  -21.8930   20.6540 N   0  0  0  0  0  0  0  0  0  0  0  0
  -29.2200  -19.0650   17.0770 C   0  0  0  0  0  1  0  0  0  0  0  0
  -29.5330  -18.7820   18.5670 C   0  0  0  0  0  3  0  0  0  0  0  0
  -30.7350  -16.6720   17.6600 C   0  0  0  0  0  1  0  0  0  0  0  0
  -32.1060  -18.4390   18.7210 C   0  0  0  0  0  1  0  0  0  0  0  0
  -30.7330  -17.7450   18.7930 C   0  0  1  0  0  0  0  0  0  0  0  0
  -30.6640  -17.0680   20.2210 C   0  0  0  0  0  2  0  0  0  0  0  0
  -31.0490  -14.5710   20.0340 C   0  0  0  0  0  0  0  0  0  0  0  0
  -30.6840  -12.4130   18.9200 C   0  0  0  0  0  2  0  0  0  0  0  0
  -29.7080  -12.6420   17.7460 C   0  0  0  0  0  2  0  0  0  0  0  0
  -28.2400  -12.5650   18.2150 C   0  0  0  0  0  2  0  0  0  0  0  0
  -27.9720  -13.4140   19.4870 C   0  0  0  0  0  3  0  0  0  0  0  0
  -29.0490  -13.1520   20.5650 C   0  0  0  0  0  2  0  0  0  0  0  0
  -30.3620  -13.4070   19.9520 N   0  0  0  0  0  0  0  0  0  0  0  0
  -32.2240  -14.6920   19.6780 O   0  0  0  0  0  0  0  0  0  0  0  0
  -30.2750  -15.6470   20.2840 N   0  0  0  0  0  0  0  0  0  0  0  0
  -29.3140  -15.4490   20.5170 H   0  0  0  0  0  0  0  0  0  0  0  0
  -25.6220  -14.1240   20.2490 C   0  0  0  0  0  0  0  0  0  0  0  0
  -24.5360  -13.3960   20.6570 C   0  0  0  0  0  0  0  0  0  0  0  0
  -24.9460  -12.0300   20.6350 C   0  0  0  0  0  0  0  0  0  0  0  0
  -26.6250  -13.1980   20.0040 N   0  0  0  0  0  0  0  0  0  0  0  0
  -26.2260  -11.9360   20.2980 N   0  0  0  0  0  0  0  0  0  0  0  0
  -24.1810  -10.7990   20.8650 C   0  0  0  0  0  0  0  0  0  0  0  0
  -24.5950   -9.8380   21.8120 C   0  0  0  0  0  3  0  0  0  0  0  0
  -23.8330   -8.6680   22.0300 C   0  0  0  0  0  3  0  0  0  0  0  0
  -22.6440   -8.4530   21.2960 C   0  0  0  0  0  0  0  0  0  0  0  0
  -22.2490   -9.4000   20.3350 C   0  0  0  0  0  3  0  0  0  0  0  0
  -23.0110  -10.5600   20.1180 C   0  0  0  0  0  3  0  0  0  0  0  0
  -21.8570   -7.3350   21.4160 O   0  0  0  0  0  0  0  0  0  0  0  0
  -21.7800   -6.6310   22.5910 C   0  0  0  0  0  0  0  0  0  0  0  0
  -21.3560   -7.2340   23.7940 C   0  0  0  0  0  3  0  0  0  0  0  0
  -21.2220   -6.4580   24.9620 C   0  0  0  0  0  3  0  0  0  0  0  0
  -21.5080   -5.0790   24.9290 C   0  0  0  0  0  0  0  0  0  0  0  0
  -21.9300   -4.4760   23.7300 C   0  0  0  0  0  3  0  0  0  0  0  0
  -22.0610   -5.2500   22.5630 C   0  0  0  0  0  0  0  0  0  0  0  0
  -22.4450   -4.6600   21.4060 F   0  0  0  0  0  0  0  0  0  0  0  0
  -21.3770   -4.3310   26.0480 F   0  0  0  0  0  0  0  0  0  0  0  0
  -23.1670  -13.9300   20.9560 C   0  0  0  0  0  0  0  0  0  0  0  0
  -22.4420  -13.2750   21.8560 N   0  0  0  0  0  0  0  0  0  0  0  0
  -22.7520  -14.9590   20.4230 O   0  0  0  0  0  0  0  0  0  0  0  0
  -22.7990  -12.4430   22.3000 H   0  0  0  0  0  0  0  0  0  0  0  0
  -21.5210  -13.6130   22.0980 H   0  0  0  0  0  0  0  0  0  0  0  0
  -25.8280  -15.4840   20.0460 N   0  0  0  0  0  0  0  0  0  0  0  0
  -25.0740  -16.1540   20.1420 H   0  0  0  0  0  0  0  0  0  0  0  0
  -26.6670  -15.8880   19.6500 H   0  0  0  0  0  0  0  0  0  0  0  0
  -29.3730  -24.2530   20.5560 C   0  0  0  0  0  2  0  0  0  0  0  0
  -28.2490  -25.0810   19.8790 C   0  0  0  0  0  2  0  0  0  0  0  0
  -28.3470  -26.5110   20.1100 O   0  0  0  0  0  0  0  0  0  0  0  0
  -24.4240  -31.6760   23.1040 C   0  0  0  0  0  0  0  0  0  0  0  0
  -27.1780  -27.2570   20.0440 C   0  0  0  0  0  0  0  0  0  0  0  0
  -23.2660  -30.2810   21.4250 C   0  0  0  0  0  3  0  0  0  0  0  0
  -24.7700  -28.7630   20.0210 C   0  0  0  0  0  0  0  0  0  0  0  0
  -25.7960  -30.6570   21.2840 C   0  0  0  0  0  2  0  0  0  0  0  0
  -25.9110  -29.2850   20.6430 C   0  0  0  0  0  0  0  0  0  0  0  0
  -27.1160  -28.5360   20.6570 C   0  0  0  0  0  3  0  0  0  0  0  0
  -26.0170  -26.7740   19.3960 C   0  0  0  0  0  3  0  0  0  0  0  0
  -24.8210  -27.5110   19.3950 C   0  0  0  0  0  3  0  0  0  0  0  0
  -23.5150  -29.6030   20.0500 C   0  0  0  0  0  2  0  0  0  0  0  0
  -24.5130  -30.8850   21.9960 N   0  0  0  0  0  0  0  0  0  0  0  0
  -23.3290  -31.9260   23.6290 O   0  0  0  0  0  0  0  0  0  0  0  0
  -22.6020  -29.2460   22.3640 C   0  0  0  0  0  0  0  0  0  0  0  0
  -21.2770  -29.0630   22.2280 N   0  0  0  0  0  0  0  0  0  0  0  0
  -23.2820  -28.5980   23.1660 O   0  0  0  0  0  0  0  0  0  0  0  0
  -20.7790  -29.6370   21.5620 H   0  0  0  0  0  0  0  0  0  0  0  0
  -17.9030  -27.8810   22.7280 C   0  0  0  0  0  0  0  0  0  0  0  0
  -20.4660  -28.1050   22.9800 C   0  0  0  0  0  3  0  0  0  0  0  0
  -20.5450  -26.6910   22.3620 C   0  0  0  0  0  2  0  0  0  0  0  0
  -19.4340  -26.4090   21.3450 C   0  0  0  0  0  2  0  0  0  0  0  0
  -18.0600  -26.5500   22.0080 C   0  0  0  0  0  2  0  0  0  0  0  0
  -19.0340  -28.6160   23.1720 C   0  0  0  0  0  0  0  0  0  0  0  0
  -18.8350  -29.8660   23.8000 C   0  0  0  0  0  3  0  0  0  0  0  0
  -17.5370  -30.3770   23.9880 C   0  0  0  0  0  3  0  0  0  0  0  0
  -16.4210  -29.6360   23.5640 C   0  0  0  0  0  3  0  0  0  0  0  0
  -16.6060  -28.3910   22.9380 C   0  0  0  0  0  3  0  0  0  0  0  0
  -25.6880  -32.3190   23.7530 C   0  0  0  0  0  3  0  0  0  0  0  0
  -25.3560  -33.7110   24.0770 N   0  0  0  0  0  0  0  0  0  0  0  0
  -25.7210  -34.7720   23.3430 C   0  0  0  0  0  0  0  0  0  0  0  0
  -26.4420  -34.6790   22.3460 O   0  0  0  0  0  0  0  0  0  0  0  0
  -24.7110  -33.8520   24.8420 H   0  0  0  0  0  0  0  0  0  0  0  0
  -24.0210  -36.5760   22.9040 C   0  0  0  0  0  1  0  0  0  0  0  0
  -25.2060  -36.1540   23.7880 C   0  0  0  0  0  3  0  0  0  0  0  0
  -27.2860  -37.0310   24.7640 C   0  0  0  0  0  1  0  0  0  0  0  0
  -26.2450  -37.2070   23.7530 N   0  0  0  0  0  0  0  0  0  0  0  0
  -25.8310  -38.1270   23.8790 H   0  0  0  0  0  0  0  0  0  0  0  0
  -26.1850  -31.5500   25.0390 C   0  0  1  0  0  0  0  0  0  0  0  0
  -25.0730  -31.2940   26.0830 C   0  0  0  0  0  1  0  0  0  0  0  0
  -26.7970  -30.1820   24.6620 C   0  0  0  0  0  1  0  0  0  0  0  0
  -27.3140  -32.3530   25.7270 C   0  0  0  0  0  1  0  0  0  0  0  0
  1  2  1  0
  2 52  1  0
  2  7  2  0
  3  7  1  0
  3  5  1  0
  4  3  2  0
  6  1  2  0
  6  4  1  0
  9  8  1  0
  9 12  1  0
  9  4  1  0
 12 10  1  6
 11 12  1  0
 12 13  1  0
 13 22  1  0
 14 22  1  0
 15 20  1  0
 16 17  1  0
 16 15  1  0
 18 17  1  0
 18 27  1  0
 18 19  1  0
 20 14  1  0
 20 19  1  0
 21 14  2  0
 22 23  1  0
 24 25  2  0
 25 44  1  0
 26 25  1  0
 26 29  1  0
 27 24  1  0
 27 28  1  0
 28 26  2  0
 29 30  1  0
 30 31  2  0
 32 35  1  0
 32 31  1  0
 33 32  2  0
 34 33  1  0
 34 29  2  0
 35 36  1  0
 36 37  1  0
 37 38  2  0
 39 38  1  0
 39 43  1  0
 40 39  2  0
 41 36  2  0
 41 40  1  0
 42 41  1  0
 44 45  1  0
 45 48  1  0
 45 47  1  0
 46 44  2  0
 49 50  1  0
 49 24  1  0
 51 49  1  0
 53 54  1  0
 53 52  1  0
 55 66  2  0
 56 54  1  0
 56 61  1  0
 57 65  1  0
 57 67  1  0
 58 64  1  0
 58 60  1  0
 59 65  1  0
 60 61  2  0
 60 59  1  0
 62 56  2  0
 63 62  1  0
 63 58  2  0
 64 57  1  0
 65 55  1  0
 67 69  2  0
 68 67  1  0
 70 68  1  0
 71 80  2  0
 71 76  1  0
 72 68  1  0
 72 76  1  0
 73 72  1  0
 74 75  1  0
 74 73  1  0
 75 71  1  0
 76 77  2  0
 77 78  1  0
 79 78  2  0
 80 79  1  0
 81 55  1  0
 81 82  1  0
 81 91  1  0
 82 85  1  0
 83 87  1  0
 83 82  1  0
 84 83  2  0
 87 86  1  0
 89 87  1  0
 89 90  1  0
 89 88  1  0
 91 94  1  1
 91 92  1  0
 93 91  1  0
M  ISO  4  14 100  22 100  53 101  54 101
M  END
>  <TORSDO>  (58) 
F 21

>  <SCORE>  (58) 
-12.105

>  <name>  (58) 
57

>  <ligand_id>  (58) 
57

>  <original_smiles>  (58) 
[H]c1nc(C([H])(C([H])([H])[H])C(C([H])([H])[H])(C([H])([H])[H])C([H])([H])N([H])C(=O)N2C([H])([H])C([H])([H])C([H])([H])C([H])(n3nc(-c4c([H])c([H])c(Oc5c([H])c([H])c(F)c([H])c5F)c([H])c4[H])c(C(=O)N([H])[H])c3N([H])[H])C2([H])[H])c(C([H])([H])[H])nc1C([H])([H])C([H])([H])Oc1c([H])c([H])c2c(c1[H])C([H])([H])N(C(=O)C([H])(N([H])C(=O)C([H])(N([H])C([H])([H])[H])C([H])([H])[H])C(C([H])([H])[H])(C([H])([H])[H])C([H])([H])[H])C([H])(C(=O)N([H])C1([H])c3c([H])c([H])c([H])c([H])c3C([H])([H])C([H])([H])C1([H])[H])C2([H])[H]

>  <smiles>  (58) 
[H]c1nc(C([H])(C([H])([H])[H])C(C([H])([H])[H])(C([H])([H])[H])C([H])([H])N([H])C(=O)N2C([H])([H])C([H])([H])C([H])([H])C([H])(n3nc(-c4c([H])c([H])c(Oc5c([H])c([H])c(F)c([H])c5F)c([H])c4[H])c(C(=O)N([H])[H])c3N([H])[H])C2([H])[H])c(C([H])([H])[H])nc1C([H])([H])C([H])([H])Oc1c([H])c([H])c2c(c1[H])C([H])([H])N(C(=O)C([H])(N([H])C(=O)C([H])(N([H])C([H])([H])[H])C([H])([H])[H])C(C([H])([H])[H])(C([H])([H])[H])C([H])([H])[H])C([H])(C(=O)N([H])C1([H])c3c([H])c([H])c([H])c([H])c3C([H])([H])C([H])([H])C1([H])[H])C2([H])[H]

$$$$
58:0:0
     RDKit          3D

 92100  0  0  1  0  0  0  0  0999 V2000
  -29.2250  -19.0960   19.0030 C   0  0  0  0  0  3  0  0  0  0  0  0
  -29.7120  -18.4510   20.1740 C   0  0  0  0  0  0  0  0  0  0  0  0
  -29.9580  -20.6020   21.1130 C   0  0  0  0  0  0  0  0  0  0  0  0
  -29.4750  -21.2410   19.9310 C   0  0  0  0  0  0  0  0  0  0  0  0
  -30.4360  -21.4110   22.3020 C   0  0  0  0  0  1  0  0  0  0  0  0
  -29.1030  -20.4540   18.8840 N   0  0  0  0  0  0  0  0  0  0  0  0
  -30.0520  -19.2370   21.2410 N   0  0  0  0  0  0  0  0  0  0  0  0
  -28.4160  -16.6010   21.2440 C   0  0  0  0  0  1  0  0  0  0  0  0
  -29.6350  -16.8770   20.3440 C   0  0  0  0  0  3  0  0  0  0  0  0
  -31.0110  -15.6320   22.2320 C   0  0  0  0  0  1  0  0  0  0  0  0
  -32.1810  -16.8890   20.5120 C   0  0  0  0  0  1  0  0  0  0  0  0
  -30.9310  -15.9780   20.7200 C   0  0  2  0  0  0  0  0  0  0  0  0
  -31.1880  -14.6280   19.8670 C   0  0  0  0  0  0  0  0  0  0  0  0
  -30.7220  -12.4140   18.8040 C   0  0  0  0  0  2  0  0  0  0  0  0
  -29.7440  -12.5720   17.6220 C   0  0  0  0  0  2  0  0  0  0  0  0
  -28.2900  -12.4650   18.1150 C   0  0  0  0  0  2  0  0  0  0  0  0
  -28.0240  -13.3470   19.3630 C   0  0  0  0  0  3  0  0  0  0  0  0
  -29.1320  -13.1780   20.4300 C   0  0  0  0  0  2  0  0  0  0  0  0
  -30.4270  -13.4750   19.8040 N   0  0  0  0  0  0  0  0  0  0  0  0
  -32.2210  -14.6400   19.1920 O   0  0  0  0  0  0  0  0  0  0  0  0
  -25.6800  -14.0130   20.1800 C   0  0  0  0  0  0  0  0  0  0  0  0
  -24.6160  -13.2780   20.6200 C   0  0  0  0  0  0  0  0  0  0  0  0
  -25.0340  -11.9130   20.5720 C   0  0  0  0  0  0  0  0  0  0  0  0
  -26.6920  -13.1050   19.9130 N   0  0  0  0  0  0  0  0  0  0  0  0
  -26.3080  -11.8350   20.2020 N   0  0  0  0  0  0  0  0  0  0  0  0
  -24.2750  -10.6770   20.7980 C   0  0  0  0  0  0  0  0  0  0  0  0
  -24.6810   -9.7250   21.7600 C   0  0  0  0  0  3  0  0  0  0  0  0
  -23.9220   -8.5560   21.9730 C   0  0  0  0  0  3  0  0  0  0  0  0
  -22.7410   -8.3290   21.2270 C   0  0  0  0  0  0  0  0  0  0  0  0
  -22.3530   -9.2690   20.2550 C   0  0  0  0  0  3  0  0  0  0  0  0
  -23.1140  -10.4300   20.0400 C   0  0  0  0  0  3  0  0  0  0  0  0
  -21.9540   -7.2100   21.3490 O   0  0  0  0  0  0  0  0  0  0  0  0
  -21.8320   -6.5430   22.5410 C   0  0  0  0  0  0  0  0  0  0  0  0
  -21.3620   -7.1840   23.7080 C   0  0  0  0  0  3  0  0  0  0  0  0
  -21.1860   -6.4450   24.8960 C   0  0  0  0  0  3  0  0  0  0  0  0
  -21.4690   -5.0660   24.9160 C   0  0  0  0  0  0  0  0  0  0  0  0
  -21.9330   -4.4250   23.7530 C   0  0  0  0  0  3  0  0  0  0  0  0
  -22.1100   -5.1610   22.5680 C   0  0  0  0  0  0  0  0  0  0  0  0
  -22.5360   -4.5350   21.4450 F   0  0  0  0  0  0  0  0  0  0  0  0
  -21.2930   -4.3540   26.0530 F   0  0  0  0  0  0  0  0  0  0  0  0
  -23.2520  -13.8040   20.9630 C   0  0  0  0  0  0  0  0  0  0  0  0
  -22.5550  -13.1450   21.8810 N   0  0  0  0  0  0  0  0  0  0  0  0
  -22.8180  -14.8370   20.4540 O   0  0  0  0  0  0  0  0  0  0  0  0
  -22.9200  -12.3100   22.3150 H   0  0  0  0  0  0  0  0  0  0  0  0
  -21.6420  -13.4800   22.1550 H   0  0  0  0  0  0  0  0  0  0  0  0
  -25.8530  -15.3730   19.9590 N   0  0  0  0  0  0  0  0  0  0  0  0
  -25.0990  -16.0370   20.0920 H   0  0  0  0  0  0  0  0  0  0  0  0
  -26.6860  -15.7910   19.5690 H   0  0  0  0  0  0  0  0  0  0  0  0
  -29.5440  -22.7880   19.6530 C   0  0  0  0  0  2  0  0  0  0  0  0
  -28.4860  -23.8320   20.2170 C   0  0  0  0  0  2  0  0  0  0  0  0
  -28.5000  -25.2480   19.4880 C   0  0  0  0  0  2  0  0  0  0  0  0
  -28.3160  -26.5010   20.2330 O   0  0  0  0  0  0  0  0  0  0  0  0
  -24.6170  -31.8560   23.2470 C   0  0  0  0  0  0  0  0  0  0  0  0
  -27.1620  -27.2870   20.1700 C   0  0  0  0  0  0  0  0  0  0  0  0
  -23.3800  -30.4630   21.6230 C   0  0  0  0  0  3  0  0  0  0  0  0
  -24.7990  -28.8910   20.1860 C   0  0  0  0  0  0  0  0  0  0  0  0
  -25.9150  -30.7640   21.4070 C   0  0  0  0  0  2  0  0  0  0  0  0
  -25.9730  -29.3830   20.7670 C   0  0  0  0  0  0  0  0  0  0  0  0
  -27.1520  -28.5880   20.7530 C   0  0  0  0  0  3  0  0  0  0  0  0
  -25.9620  -26.8300   19.5800 C   0  0  0  0  0  3  0  0  0  0  0  0
  -24.7930  -27.6190   19.5870 C   0  0  0  0  0  3  0  0  0  0  0  0
  -23.5690  -29.7750   20.2440 C   0  0  0  0  0  2  0  0  0  0  0  0
  -24.6560  -31.0450   22.1490 N   0  0  0  0  0  0  0  0  0  0  0  0
  -23.5440  -32.1470   23.7930 O   0  0  0  0  0  0  0  0  0  0  0  0
  -22.7190  -29.4580   22.5960 C   0  0  0  0  0  0  0  0  0  0  0  0
  -21.3920  -29.2880   22.4780 N   0  0  0  0  0  0  0  0  0  0  0  0
  -23.4010  -28.8340   23.4150 O   0  0  0  0  0  0  0  0  0  0  0  0
  -20.9040  -29.8440   21.7910 H   0  0  0  0  0  0  0  0  0  0  0  0
  -18.0130  -28.1090   22.9920 C   0  0  0  0  0  0  0  0  0  0  0  0
  -20.5710  -28.3620   23.2590 C   0  0  0  0  0  3  0  0  0  0  0  0
  -20.6690  -26.9240   22.6990 C   0  0  0  0  0  2  0  0  0  0  0  0
  -19.5650  -26.5950   21.6890 C   0  0  0  0  0  2  0  0  0  0  0  0
  -18.1840  -26.7520   22.3310 C   0  0  0  0  0  2  0  0  0  0  0  0
  -19.1340  -28.8720   23.4130 C   0  0  0  0  0  0  0  0  0  0  0  0
  -18.9200  -30.1420   23.9910 C   0  0  0  0  0  3  0  0  0  0  0  0
  -17.6180  -30.6500   24.1530 C   0  0  0  0  0  3  0  0  0  0  0  0
  -16.5110  -29.8840   23.7480 C   0  0  0  0  0  3  0  0  0  0  0  0
  -16.7090  -28.6150   23.1740 C   0  0  0  0  0  3  0  0  0  0  0  0
  -25.9140  -32.4770   23.8520 C   0  0  0  0  0  3  0  0  0  0  0  0
  -25.6190  -33.8730   24.2030 N   0  0  0  0  0  0  0  0  0  0  0  0
  -25.9400  -34.9320   23.4470 C   0  0  0  0  0  0  0  0  0  0  0  0
  -26.5870  -34.8350   22.4000 O   0  0  0  0  0  0  0  0  0  0  0  0
  -25.0430  -34.0220   25.0180 H   0  0  0  0  0  0  0  0  0  0  0  0
  -24.2070  -36.7320   23.1540 C   0  0  0  0  0  1  0  0  0  0  0  0
  -25.4680  -36.3190   23.9270 C   0  0  0  0  0  3  0  0  0  0  0  0
  -27.6270  -37.1920   24.7060 C   0  0  0  0  0  1  0  0  0  0  0  0
  -26.5000  -37.3700   23.7930 N   0  0  0  0  0  0  0  0  0  0  0  0
  -26.1010  -38.2900   23.9590 H   0  0  0  0  0  0  0  0  0  0  0  0
  -26.4500  -31.6900   25.1110 C   0  0  1  0  0  0  0  0  0  0  0  0
  -25.3750  -31.4430   26.1950 C   0  0  0  0  0  1  0  0  0  0  0  0
  -27.0230  -30.3150   24.6960 C   0  0  0  0  0  1  0  0  0  0  0  0
  -27.6150  -32.4730   25.7610 C   0  0  0  0  0  1  0  0  0  0  0  0
  1  2  1  0
  2  9  1  0
  2  7  2  0
  3  7  1  0
  3  5  1  0
  4  3  2  0
  6  1  2  0
  6  4  1  0
  9 12  1  0
  9  8  1  0
 12 11  1  6
 12 10  1  0
 13 12  1  0
 14 19  1  0
 15 16  1  0
 15 14  1  0
 17 16  1  0
 17 24  1  0
 17 18  1  0
 19 13  1  0
 19 18  1  0
 20 13  2  0
 21 22  2  0
 22 41  1  0
 23 22  1  0
 23 26  1  0
 24 21  1  0
 24 25  1  0
 25 23  2  0
 26 27  1  0
 27 28  2  0
 29 32  1  0
 29 28  1  0
 30 29  2  0
 31 30  1  0
 31 26  2  0
 32 33  1  0
 33 38  2  0
 33 34  1  0
 34 35  2  0
 35 36  1  0
 36 40  1  0
 37 36  2  0
 38 37  1  0
 39 38  1  0
 41 42  1  0
 42 45  1  0
 42 44  1  0
 43 41  2  0
 46 47  1  0
 46 21  1  0
 48 46  1  0
 49  4  1  0
 49 50  1  0
 51 50  1  0
 51 52  1  0
 53 64  2  0
 54 52  1  0
 54 59  1  0
 55 63  1  0
 55 65  1  0
 56 62  1  0
 56 58  1  0
 57 63  1  0
 58 57  1  0
 59 58  2  0
 60 61  1  0
 60 54  2  0
 61 56  2  0
 62 55  1  0
 63 53  1  0
 65 67  2  0
 66 65  1  0
 68 66  1  0
 69 78  2  0
 69 74  1  0
 70 66  1  0
 70 74  1  0
 71 70  1  0
 72 73  1  0
 72 71  1  0
 73 69  1  0
 74 75  2  0
 75 76  1  0
 77 76  2  0
 78 77  1  0
 79 53  1  0
 79 80  1  0
 79 89  1  0
 80 83  1  0
 81 85  1  0
 81 80  1  0
 82 81  2  0
 85 84  1  0
 87 85  1  0
 87 88  1  0
 87 86  1  0
 89 92  1  1
 89 90  1  0
 91 89  1  0
M  ISO  4  12 100  13 100  51 101  52 101
M  END
>  <TORSDO>  (59) 
F 21

>  <SCORE>  (59) 
-12.478

>  <name>  (59) 
58

>  <ligand_id>  (59) 
58

>  <original_smiles>  (59) 
[H]c1nc(C([H])([H])C([H])([H])C([H])([H])Oc2c([H])c([H])c3c(c2[H])C([H])([H])N(C(=O)C([H])(N([H])C(=O)C([H])(N([H])C([H])([H])[H])C([H])([H])[H])C(C([H])([H])[H])(C([H])([H])[H])C([H])([H])[H])C([H])(C(=O)N([H])C2([H])c4c([H])c([H])c([H])c([H])c4C([H])([H])C([H])([H])C2([H])[H])C3([H])[H])c(C([H])([H])[H])nc1C([H])(C([H])([H])[H])C(C(=O)N1C([H])([H])C([H])([H])C([H])([H])C([H])(n2nc(-c3c([H])c([H])c(Oc4c([H])c([H])c(F)c([H])c4F)c([H])c3[H])c(C(=O)N([H])[H])c2N([H])[H])C1([H])[H])(C([H])([H])[H])C([H])([H])[H]

>  <smiles>  (59) 
[H]c1nc(C([H])([H])C([H])([H])C([H])([H])Oc2c([H])c([H])c3c(c2[H])C([H])([H])N(C(=O)C([H])(N([H])C(=O)C([H])(N([H])C([H])([H])[H])C([H])([H])[H])C(C([H])([H])[H])(C([H])([H])[H])C([H])([H])[H])C([H])(C(=O)N([H])C2([H])c4c([H])c([H])c([H])c([H])c4C([H])([H])C([H])([H])C2([H])[H])C3([H])[H])c(C([H])([H])[H])nc1C([H])(C([H])([H])[H])C(C(=O)N1C([H])([H])C([H])([H])C([H])([H])C([H])(n2nc(-c3c([H])c([H])c(Oc4c([H])c([H])c(F)c([H])c4F)c([H])c3[H])c(C(=O)N([H])[H])c2N([H])[H])C1([H])[H])(C([H])([H])[H])C([H])([H])[H]

$$$$
59:0:0
     RDKit          3D

 97105  0  0  1  0  0  0  0  0999 V2000
  -30.8420  -22.5590   19.6820 C   0  0  0  0  0  3  0  0  0  0  0  0
  -29.5530  -22.9440   19.3950 C   0  0  0  0  0  0  0  0  0  0  0  0
  -29.6730  -20.6740   19.4490 C   0  0  0  0  0  3  0  0  0  0  0  0
  -30.9020  -21.1880   19.6280 N   0  0  0  0  0  0  0  0  0  0  0  0
  -28.8530  -21.7480   19.3430 N   0  0  0  0  0  0  0  0  0  0  0  0
  -27.8680  -21.6750   19.1190 H   0  0  0  0  0  0  0  0  0  0  0  0
  -33.0880  -20.7710   20.7410 C   0  0  0  0  0  1  0  0  0  0  0  0
  -32.8080  -20.5490   18.2100 C   0  0  0  0  0  1  0  0  0  0  0  0
  -32.1440  -20.4010   19.5880 C   0  0  0  0  0  3  0  0  0  0  0  0
  -28.0080  -24.1720   17.8640 C   0  0  0  0  0  1  0  0  0  0  0  0
  -30.1960  -25.1740   18.4860 C   0  0  0  0  0  1  0  0  0  0  0  0
  -29.0120  -24.3370   19.0200 C   0  0  2  0  0  0  0  0  0  0  0  0
  -28.3570  -25.1180   20.2100 C   0  0  0  0  0  2  0  0  0  0  0  0
  -28.3950  -26.5660   20.0710 O   0  0  0  0  0  0  0  0  0  0  0  0
  -24.5950  -31.7730   23.1400 C   0  0  0  0  0  0  0  0  0  0  0  0
  -27.2190  -27.2960   20.0720 C   0  0  0  0  0  0  0  0  0  0  0  0
  -23.3900  -30.3930   21.4810 C   0  0  0  0  0  3  0  0  0  0  0  0
  -24.8410  -28.8450   20.0630 C   0  0  0  0  0  0  0  0  0  0  0  0
  -25.9230  -30.7250   21.3060 C   0  0  0  0  0  2  0  0  0  0  0  0
  -26.0020  -29.3550   20.6570 C   0  0  0  0  0  0  0  0  0  0  0  0
  -27.1960  -28.5920   20.6450 C   0  0  0  0  0  3  0  0  0  0  0  0
  -26.0350  -26.8000   19.4850 C   0  0  0  0  0  3  0  0  0  0  0  0
  -24.8540  -27.5700   19.4710 C   0  0  0  0  0  3  0  0  0  0  0  0
  -23.6060  -29.7200   20.1000 C   0  0  0  0  0  2  0  0  0  0  0  0
  -24.6540  -30.9790   22.0330 N   0  0  0  0  0  0  0  0  0  0  0  0
  -23.5100  -32.0530   23.6720 O   0  0  0  0  0  0  0  0  0  0  0  0
  -22.7220  -29.3730   22.4300 C   0  0  0  0  0  0  0  0  0  0  0  0
  -21.3920  -29.2260   22.3100 N   0  0  0  0  0  0  0  0  0  0  0  0
  -23.3940  -28.7160   23.2280 O   0  0  0  0  0  0  0  0  0  0  0  0
  -20.9120  -29.8070   21.6370 H   0  0  0  0  0  0  0  0  0  0  0  0
  -17.9880  -28.1340   22.8450 C   0  0  0  0  0  0  0  0  0  0  0  0
  -20.5590  -28.2960   23.0690 C   0  0  0  0  0  3  0  0  0  0  0  0
  -20.6010  -26.8800   22.4500 C   0  0  0  0  0  2  0  0  0  0  0  0
  -19.4680  -26.6250   21.4510 C   0  0  0  0  0  2  0  0  0  0  0  0
  -18.1040  -26.7990   22.1270 C   0  0  0  0  0  2  0  0  0  0  0  0
  -19.1420  -28.8430   23.2740 C   0  0  0  0  0  0  0  0  0  0  0  0
  -18.9830  -30.0950   23.9070 C   0  0  0  0  0  3  0  0  0  0  0  0
  -17.7020  -30.6370   24.1150 C   0  0  0  0  0  3  0  0  0  0  0  0
  -16.5630  -29.9250   23.7030 C   0  0  0  0  0  3  0  0  0  0  0  0
  -16.7060  -28.6750   23.0750 C   0  0  0  0  0  3  0  0  0  0  0  0
  -25.8800  -32.3870   23.7760 C   0  0  0  0  0  3  0  0  0  0  0  0
  -25.5790  -33.7850   24.1160 N   0  0  0  0  0  0  0  0  0  0  0  0
  -25.9250  -34.8410   23.3700 C   0  0  0  0  0  0  0  0  0  0  0  0
  -26.6030  -34.7430   22.3420 O   0  0  0  0  0  0  0  0  0  0  0  0
  -24.9790  -33.9390   24.9130 H   0  0  0  0  0  0  0  0  0  0  0  0
  -24.2140  -36.6540   23.0170 C   0  0  0  0  0  1  0  0  0  0  0  0
  -25.4430  -36.2290   23.8370 C   0  0  0  0  0  3  0  0  0  0  0  0
  -27.5700  -37.0920   24.7070 C   0  0  0  0  0  1  0  0  0  0  0  0
  -26.4850  -37.2750   23.7470 N   0  0  0  0  0  0  0  0  0  0  0  0
  -26.0830  -38.1960   23.8970 H   0  0  0  0  0  0  0  0  0  0  0  0
  -26.3860  -31.6020   25.0480 C   0  0  1  0  0  0  0  0  0  0  0  0
  -25.2830  -31.3630   26.1060 C   0  0  0  0  0  1  0  0  0  0  0  0
  -26.9680  -30.2250   24.6500 C   0  0  0  0  0  1  0  0  0  0  0  0
  -27.5330  -32.3880   25.7270 C   0  0  0  0  0  1  0  0  0  0  0  0
  -29.3010  -19.2210   19.1360 C   0  0  0  0  0  2  0  0  0  0  0  0
  -29.8750  -18.5040   21.5860 C   0  0  0  0  0  1  0  0  0  0  0  0
  -27.9400  -17.5150   20.3950 C   0  0  0  0  0  1  0  0  0  0  0  0
  -29.3810  -18.0360   20.2000 C   0  0  1  0  0  0  0  0  0  0  0  0
  -30.3000  -16.8530   19.6850 C   0  0  0  0  0  2  0  0  0  0  0  0
  -30.8270  -14.4180   19.9420 C   0  0  0  0  0  0  0  0  0  0  0  0
  -30.4790  -12.2070   18.9160 C   0  0  0  0  0  2  0  0  0  0  0  0
  -29.4780  -12.3770   17.7530 C   0  0  0  0  0  2  0  0  0  0  0  0
  -28.0290  -12.2620   18.2620 C   0  0  0  0  0  2  0  0  0  0  0  0
  -27.7610  -13.1430   19.5110 C   0  0  0  0  0  3  0  0  0  0  0  0
  -28.8690  -12.9590   20.5730 C   0  0  0  0  0  2  0  0  0  0  0  0
  -30.1620  -13.2300   19.9270 N   0  0  0  0  0  0  0  0  0  0  0  0
  -31.9550  -14.5510   19.4570 O   0  0  0  0  0  0  0  0  0  0  0  0
  -30.0840  -15.5050   20.2650 N   0  0  0  0  0  0  0  0  0  0  0  0
  -29.1800  -15.3230   20.6720 H   0  0  0  0  0  0  0  0  0  0  0  0
  -25.4290  -13.7980   20.3790 C   0  0  0  0  0  0  0  0  0  0  0  0
  -24.3650  -13.0500   20.7980 C   0  0  0  0  0  0  0  0  0  0  0  0
  -24.7830  -11.6870   20.7100 C   0  0  0  0  0  0  0  0  0  0  0  0
  -26.4320  -12.8940   20.0660 N   0  0  0  0  0  0  0  0  0  0  0  0
  -26.0490  -11.6170   20.3220 N   0  0  0  0  0  0  0  0  0  0  0  0
  -24.0310  -10.4440   20.9130 C   0  0  0  0  0  0  0  0  0  0  0  0
  -24.4490   -9.4720   21.8490 C   0  0  0  0  0  3  0  0  0  0  0  0
  -23.6980   -8.2930   22.0410 C   0  0  0  0  0  3  0  0  0  0  0  0
  -22.5140   -8.0760   21.2960 C   0  0  0  0  0  0  0  0  0  0  0  0
  -22.1160   -9.0350   20.3480 C   0  0  0  0  0  3  0  0  0  0  0  0
  -22.8660  -10.2060   20.1550 C   0  0  0  0  0  3  0  0  0  0  0  0
  -21.7350   -6.9500   21.3960 O   0  0  0  0  0  0  0  0  0  0  0  0
  -21.6370   -6.2460   22.5690 C   0  0  0  0  0  0  0  0  0  0  0  0
  -21.1640   -6.8420   23.7580 C   0  0  0  0  0  3  0  0  0  0  0  0
  -21.0130   -6.0640   24.9230 C   0  0  0  0  0  3  0  0  0  0  0  0
  -21.3250   -4.6920   24.9010 C   0  0  0  0  0  0  0  0  0  0  0  0
  -21.7910   -4.0960   23.7160 C   0  0  0  0  0  3  0  0  0  0  0  0
  -21.9430   -4.8700   22.5530 C   0  0  0  0  0  0  0  0  0  0  0  0
  -22.3730   -4.2860   21.4080 F   0  0  0  0  0  0  0  0  0  0  0  0
  -21.1720   -3.9430   26.0180 F   0  0  0  0  0  0  0  0  0  0  0  0
  -23.0010  -13.5630   21.1670 C   0  0  0  0  0  0  0  0  0  0  0  0
  -22.3070  -12.8670   22.0590 N   0  0  0  0  0  0  0  0  0  0  0  0
  -22.5660  -14.6140   20.6990 O   0  0  0  0  0  0  0  0  0  0  0  0
  -22.6770  -12.0170   22.4590 H   0  0  0  0  0  0  0  0  0  0  0  0
  -21.3940  -13.1890   22.3500 H   0  0  0  0  0  0  0  0  0  0  0  0
  -25.6180  -15.1650   20.2160 N   0  0  0  0  0  0  0  0  0  0  0  0
  -24.8700  -15.8300   20.3750 H   0  0  0  0  0  0  0  0  0  0  0  0
  -26.4450  -15.5850   19.8150 H   0  0  0  0  0  0  0  0  0  0  0  0
  2  1  2  0
  3 55  1  0
  3  4  1  0
  4  1  1  0
  5  2  1  0
  5  3  1  0
  6  5  1  0
  8  9  1  0
  9  4  1  0
  9  7  1  0
 12 10  1  6
 11 12  1  0
 12  2  1  0
 12 13  1  0
 14 16  1  0
 14 13  1  0
 15 26  2  0
 16 21  1  0
 17 25  1  0
 17 27  1  0
 18 24  1  0
 18 20  1  0
 19 25  1  0
 20 19  1  0
 21 20  2  0
 22 16  2  0
 23 22  1  0
 23 18  2  0
 24 17  1  0
 25 15  1  0
 27 29  2  0
 28 27  1  0
 30 28  1  0
 31 40  2  0
 31 36  1  0
 32 28  1  0
 32 36  1  0
 33 32  1  0
 34 35  1  0
 34 33  1  0
 35 31  1  0
 36 37  2  0
 37 38  1  0
 39 38  2  0
 40 39  1  0
 41 15  1  0
 41 42  1  0
 41 51  1  0
 42 45  1  0
 43 47  1  0
 43 42  1  0
 44 43  2  0
 47 46  1  0
 49 47  1  0
 49 50  1  0
 49 48  1  0
 51 54  1  1
 51 52  1  0
 53 51  1  0
 55 58  1  0
 58 57  1  1
 58 56  1  0
 59 58  1  0
 59 68  1  0
 60 68  1  0
 61 66  1  0
 62 63  1  0
 62 61  1  0
 64 63  1  0
 64 73  1  0
 64 65  1  0
 66 60  1  0
 66 65  1  0
 67 60  2  0
 68 69  1  0
 70 71  2  0
 71 90  1  0
 72 71  1  0
 72 75  1  0
 73 74  1  0
 73 70  1  0
 74 72  2  0
 75 76  1  0
 76 77  2  0
 78 81  1  0
 78 77  1  0
 79 78  2  0
 80 79  1  0
 80 75  2  0
 81 82  1  0
 82 83  1  0
 83 84  2  0
 85 84  1  0
 85 89  1  0
 86 85  2  0
 87 82  2  0
 87 86  1  0
 88 87  1  0
 90 91  1  0
 91 94  1  0
 91 93  1  0
 92 90  2  0
 95 96  1  0
 95 70  1  0
 97 95  1  0
M  ISO  4  13 101  14 101  60 100  68 100
M  END
>  <TORSDO>  (60) 
F 22

>  <SCORE>  (60) 
-12.823

>  <name>  (60) 
59

>  <ligand_id>  (60) 
59

>  <original_smiles>  (60) 
[H]c1c([H])c([H])c2c(c1[H])C([H])([H])C([H])([H])C([H])([H])C2([H])N([H])C(=O)C1([H])N(C(=O)C([H])(N([H])C(=O)C([H])(N([H])C([H])([H])[H])C([H])([H])[H])C(C([H])([H])[H])(C([H])([H])[H])C([H])([H])[H])C([H])([H])c2c([H])c(OC([H])([H])C(c3c([H])n(C([H])(C([H])([H])[H])C([H])([H])[H])c(C([H])([H])C(C([H])([H])[H])(C([H])([H])[H])C([H])([H])N([H])C(=O)N4C([H])([H])C([H])([H])C([H])([H])C([H])(n5nc(-c6c([H])c([H])c(Oc7c([H])c([H])c(F)c([H])c7F)c([H])c6[H])c(C(=O)N([H])[H])c5N([H])[H])C4([H])[H])[n+]3[H])(C([H])([H])[H])C([H])([H])[H])c([H])c([H])c2C1([H])[H]

>  <smiles>  (60) 
[H]c1c([H])c([H])c2c(c1[H])C([H])([H])C([H])([H])C([H])([H])C2([H])N([H])C(=O)C1([H])N(C(=O)C([H])(N([H])C(=O)C([H])(N([H])C([H])([H])[H])C([H])([H])[H])C(C([H])([H])[H])(C([H])([H])[H])C([H])([H])[H])C([H])([H])c2c([H])c(OC([H])([H])C(c3c([H])n(C([H])(C([H])([H])[H])C([H])([H])[H])c(C([H])([H])C(C([H])([H])[H])(C([H])([H])[H])C([H])([H])N([H])C(=O)N4C([H])([H])C([H])([H])C([H])([H])C([H])(n5nc(-c6c([H])c([H])c(Oc7c([H])c([H])c(F)c([H])c7F)c([H])c6[H])c(C(=O)N([H])[H])c5N([H])[H])C4([H])[H])[n+]3[H])(C([H])([H])[H])C([H])([H])[H])c([H])c([H])c2C1([H])[H]

$$$$
60:0:0
     RDKit          3D

 94102  0  0  1  0  0  0  0  0999 V2000
  -31.0190  -23.6760   18.7240 C   0  0  0  0  0  3  0  0  0  0  0  0
  -31.6510  -22.5870   18.1160 C   0  0  0  0  0  0  0  0  0  0  0  0
  -29.8660  -23.4090   19.4790 C   0  0  0  0  0  0  0  0  0  0  0  0
  -30.1250  -21.1800   19.0470 C   0  0  0  0  0  0  0  0  0  0  0  0
  -32.8420  -22.7860   17.2030 C   0  0  0  0  0  1  0  0  0  0  0  0
  -28.2490  -19.6750   18.8570 C   0  0  0  0  0  1  0  0  0  0  0  0
  -31.2050  -21.3290   18.2970 N   0  0  0  0  0  0  0  0  0  0  0  0
  -29.4290  -22.1430   19.6410 N   0  0  0  0  0  0  0  0  0  0  0  0
  -29.6590  -19.8850   19.1850 N   0  0  0  0  0  0  0  0  0  0  0  0
  -29.8730  -24.8830   21.5060 C   0  0  0  0  0  1  0  0  0  0  0  0
  -29.1100  -24.5110   20.2210 C   0  0  0  0  0  3  0  0  0  0  0  0
  -28.7940  -25.7330   19.3260 C   0  0  0  0  0  2  0  0  0  0  0  0
  -28.4780  -26.8670   20.1310 O   0  0  0  0  0  0  0  0  0  0  0  0
  -24.5880  -31.8880   23.2130 C   0  0  0  0  0  0  0  0  0  0  0  0
  -27.2490  -27.4810   20.1120 C   0  0  0  0  0  0  0  0  0  0  0  0
  -23.3770  -30.4830   21.5700 C   0  0  0  0  0  3  0  0  0  0  0  0
  -24.8320  -28.9430   20.1460 C   0  0  0  0  0  0  0  0  0  0  0  0
  -25.8970  -30.8530   21.3650 C   0  0  0  0  0  2  0  0  0  0  0  0
  -25.9820  -29.4820   20.7310 C   0  0  0  0  0  0  0  0  0  0  0  0
  -27.1850  -28.7510   20.7190 C   0  0  0  0  0  3  0  0  0  0  0  0
  -26.0760  -26.9330   19.5440 C   0  0  0  0  0  3  0  0  0  0  0  0
  -24.8710  -27.6650   19.5580 C   0  0  0  0  0  3  0  0  0  0  0  0
  -23.5830  -29.7960   20.1920 C   0  0  0  0  0  2  0  0  0  0  0  0
  -24.6380  -31.0900   22.1080 N   0  0  0  0  0  0  0  0  0  0  0  0
  -23.5080  -32.1590   23.7580 O   0  0  0  0  0  0  0  0  0  0  0  0
  -22.7320  -29.4630   22.5350 C   0  0  0  0  0  0  0  0  0  0  0  0
  -21.4070  -29.2780   22.4110 N   0  0  0  0  0  0  0  0  0  0  0  0
  -23.4190  -28.8410   23.3500 O   0  0  0  0  0  0  0  0  0  0  0  0
  -20.9150  -29.8350   21.7250 H   0  0  0  0  0  0  0  0  0  0  0  0
  -18.0400  -28.0750   22.9030 C   0  0  0  0  0  0  0  0  0  0  0  0
  -20.5950  -28.3380   23.1810 C   0  0  0  0  0  3  0  0  0  0  0  0
  -20.7030  -26.9070   22.6050 C   0  0  0  0  0  2  0  0  0  0  0  0
  -19.6040  -26.5800   21.5890 C   0  0  0  0  0  2  0  0  0  0  0  0
  -18.2210  -26.7240   22.2290 C   0  0  0  0  0  2  0  0  0  0  0  0
  -19.1560  -28.8390   23.3350 C   0  0  0  0  0  0  0  0  0  0  0  0
  -18.9340  -30.1040   23.9220 C   0  0  0  0  0  3  0  0  0  0  0  0
  -17.6280  -30.6040   24.0820 C   0  0  0  0  0  3  0  0  0  0  0  0
  -16.5260  -29.8370   23.6680 C   0  0  0  0  0  3  0  0  0  0  0  0
  -16.7330  -28.5730   23.0840 C   0  0  0  0  0  3  0  0  0  0  0  0
  -25.8750  -32.5200   23.8310 C   0  0  0  0  0  3  0  0  0  0  0  0
  -25.5660  -33.9160   24.1660 N   0  0  0  0  0  0  0  0  0  0  0  0
  -25.8980  -34.9700   23.4080 C   0  0  0  0  0  0  0  0  0  0  0  0
  -26.5670  -34.8700   22.3770 O   0  0  0  0  0  0  0  0  0  0  0  0
  -24.9740  -34.0680   24.9680 H   0  0  0  0  0  0  0  0  0  0  0  0
  -24.1680  -36.7630   23.0580 C   0  0  0  0  0  1  0  0  0  0  0  0
  -25.4080  -36.3570   23.8690 C   0  0  0  0  0  3  0  0  0  0  0  0
  -27.5420  -37.2400   24.7040 C   0  0  0  0  0  1  0  0  0  0  0  0
  -26.4390  -37.4110   23.7610 N   0  0  0  0  0  0  0  0  0  0  0  0
  -26.0320  -38.3290   23.9130 H   0  0  0  0  0  0  0  0  0  0  0  0
  -26.4050  -31.7450   25.0990 C   0  0  1  0  0  0  0  0  0  0  0  0
  -25.3230  -31.5020   26.1770 C   0  0  0  0  0  1  0  0  0  0  0  0
  -26.9850  -30.3700   24.6930 C   0  0  0  0  0  1  0  0  0  0  0  0
  -27.5610  -32.5370   25.7540 C   0  0  0  0  0  1  0  0  0  0  0  0
  -30.2170  -19.1080   20.2990 C   0  0  0  0  0  2  0  0  0  0  0  0
  -29.9890  -17.5840   20.1610 C   0  0  0  0  0  2  0  0  0  0  0  0
  -30.5190  -16.7550   21.3540 C   0  0  0  0  0  2  0  0  0  0  0  0
  -30.6850  -14.4070   20.5350 C   0  0  0  0  0  0  0  0  0  0  0  0
  -30.3270  -12.3000   19.3160 C   0  0  0  0  0  2  0  0  0  0  0  0
  -29.3910  -12.5720   18.1220 C   0  0  0  0  0  2  0  0  0  0  0  0
  -27.9150  -12.4490   18.5450 C   0  0  0  0  0  2  0  0  0  0  0  0
  -27.5920  -13.2450   19.8370 C   0  0  0  0  0  3  0  0  0  0  0  0
  -28.6480  -12.9670   20.9350 C   0  0  0  0  0  2  0  0  0  0  0  0
  -29.9810  -13.2560   20.3760 N   0  0  0  0  0  0  0  0  0  0  0  0
  -31.7630  -14.6260   19.9760 O   0  0  0  0  0  0  0  0  0  0  0  0
  -30.0880  -15.3550   21.2660 N   0  0  0  0  0  0  0  0  0  0  0  0
  -29.2230  -15.1030   21.7220 H   0  0  0  0  0  0  0  0  0  0  0  0
  -25.1820  -13.8480   20.5200 C   0  0  0  0  0  0  0  0  0  0  0  0
  -24.1150  -13.0750   20.8890 C   0  0  0  0  0  0  0  0  0  0  0  0
  -24.5790  -11.7240   20.8700 C   0  0  0  0  0  0  0  0  0  0  0  0
  -26.2340  -12.9690   20.3060 N   0  0  0  0  0  0  0  0  0  0  0  0
  -25.8700  -11.6870   20.5690 N   0  0  0  0  0  0  0  0  0  0  0  0
  -23.8520  -10.4630   21.0630 C   0  0  0  0  0  0  0  0  0  0  0  0
  -24.2920   -9.4920   21.9920 C   0  0  0  0  0  3  0  0  0  0  0  0
  -23.5660   -8.2960   22.1750 C   0  0  0  0  0  3  0  0  0  0  0  0
  -22.3890   -8.0590   21.4300 C   0  0  0  0  0  0  0  0  0  0  0  0
  -21.9660   -9.0180   20.4920 C   0  0  0  0  0  3  0  0  0  0  0  0
  -22.6910  -10.2060   20.3070 C   0  0  0  0  0  3  0  0  0  0  0  0
  -21.6360   -6.9140   21.5220 O   0  0  0  0  0  0  0  0  0  0  0  0
  -21.6100   -6.1590   22.6670 C   0  0  0  0  0  0  0  0  0  0  0  0
  -21.2190   -6.7030   23.9100 C   0  0  0  0  0  3  0  0  0  0  0  0
  -21.1400   -5.8760   25.0480 C   0  0  0  0  0  3  0  0  0  0  0  0
  -21.4420   -4.5040   24.9460 C   0  0  0  0  0  0  0  0  0  0  0  0
  -21.8260   -3.9590   23.7080 C   0  0  0  0  0  3  0  0  0  0  0  0
  -21.9070   -4.7840   22.5710 C   0  0  0  0  0  0  0  0  0  0  0  0
  -22.2560   -4.2480   21.3760 F   0  0  0  0  0  0  0  0  0  0  0  0
  -21.3590   -3.7070   26.0360 F   0  0  0  0  0  0  0  0  0  0  0  0
  -22.7160  -13.5510   21.1540 C   0  0  0  0  0  0  0  0  0  0  0  0
  -21.9880  -12.8620   22.0250 N   0  0  0  0  0  0  0  0  0  0  0  0
  -22.2760  -14.5710   20.6230 O   0  0  0  0  0  0  0  0  0  0  0  0
  -22.3560  -12.0360   22.4760 H   0  0  0  0  0  0  0  0  0  0  0  0
  -21.0490  -13.1620   22.2460 H   0  0  0  0  0  0  0  0  0  0  0  0
  -25.3430  -15.2190   20.3320 N   0  0  0  0  0  0  0  0  0  0  0  0
  -24.5690  -15.8690   20.4310 H   0  0  0  0  0  0  0  0  0  0  0  0
  -26.1970  -15.6630   20.0200 H   0  0  0  0  0  0  0  0  0  0  0  0
  1  3  1  0
  2  7  1  0
  2  1  2  0
  3  8  2  0
  3 11  1  0
  4  9  1  0
  4  8  1  0
  5  2  1  0
  6  9  1  0
  7  4  2  0
  9 54  1  0
 11 10  1  0
 12 13  1  0
 12 11  1  0
 14 25  2  0
 15 13  1  0
 15 20  1  0
 16 24  1  0
 16 26  1  0
 17 23  1  0
 17 19  1  0
 18 24  1  0
 19 18  1  0
 20 19  2  0
 21 22  1  0
 21 15  2  0
 22 17  2  0
 23 16  1  0
 24 14  1  0
 26 28  2  0
 27 26  1  0
 29 27  1  0
 30 39  2  0
 30 35  1  0
 31 27  1  0
 31 35  1  0
 32 31  1  0
 33 34  1  0
 33 32  1  0
 34 30  1  0
 35 36  2  0
 36 37  1  0
 38 37  2  0
 39 38  1  0
 40 14  1  0
 40 41  1  0
 40 50  1  0
 41 44  1  0
 42 46  1  0
 42 41  1  0
 43 42  2  0
 46 45  1  0
 48 46  1  0
 48 49  1  0
 48 47  1  0
 50 53  1  1
 50 51  1  0
 52 50  1  0
 55 54  1  0
 55 56  1  0
 57 65  1  0
 58 63  1  0
 59 60  1  0
 59 58  1  0
 61 60  1  0
 61 70  1  0
 61 62  1  0
 63 57  1  0
 63 62  1  0
 64 57  2  0
 65 56  1  0
 65 66  1  0
 67 68  2  0
 68 87  1  0
 69 68  1  0
 69 72  1  0
 70 67  1  0
 70 71  1  0
 71 69  2  0
 72 73  1  0
 73 74  2  0
 75 78  1  0
 75 74  1  0
 76 75  2  0
 77 76  1  0
 77 72  2  0
 78 79  1  0
 79 80  1  0
 80 81  2  0
 82 81  1  0
 82 86  1  0
 83 82  2  0
 84 79  2  0
 84 83  1  0
 85 84  1  0
 87 88  1  0
 88 91  1  0
 88 90  1  0
 89 87  2  0
 92 93  1  0
 92 67  1  0
 94 92  1  0
M  ISO  4  12 101  13 101  57 100  65 100
M  END
>  <TORSDO>  (61) 
F 21

>  <SCORE>  (61) 
-13.559

>  <name>  (61) 
60

>  <ligand_id>  (61) 
60

>  <original_smiles>  (61) 
[H]c1c(C([H])([H])[H])nc(N(C([H])([H])[H])C([H])([H])C([H])([H])C([H])([H])N([H])C(=O)N2C([H])([H])C([H])([H])C([H])([H])C([H])(n3nc(-c4c([H])c([H])c(Oc5c([H])c([H])c(F)c([H])c5F)c([H])c4[H])c(C(=O)N([H])[H])c3N([H])[H])C2([H])[H])nc1C([H])(C([H])([H])[H])C([H])([H])Oc1c([H])c([H])c2c(c1[H])C([H])([H])N(C(=O)C([H])(N([H])C(=O)C([H])(N([H])C([H])([H])[H])C([H])([H])[H])C(C([H])([H])[H])(C([H])([H])[H])C([H])([H])[H])C([H])(C(=O)N([H])C1([H])c3c([H])c([H])c([H])c([H])c3C([H])([H])C([H])([H])C1([H])[H])C2([H])[H]

>  <smiles>  (61) 
[H]c1c(C([H])([H])[H])nc(N(C([H])([H])[H])C([H])([H])C([H])([H])C([H])([H])N([H])C(=O)N2C([H])([H])C([H])([H])C([H])([H])C([H])(n3nc(-c4c([H])c([H])c(Oc5c([H])c([H])c(F)c([H])c5F)c([H])c4[H])c(C(=O)N([H])[H])c3N([H])[H])C2([H])[H])nc1C([H])(C([H])([H])[H])C([H])([H])Oc1c([H])c([H])c2c(c1[H])C([H])([H])N(C(=O)C([H])(N([H])C(=O)C([H])(N([H])C([H])([H])[H])C([H])([H])[H])C(C([H])([H])[H])(C([H])([H])[H])C([H])([H])[H])C([H])(C(=O)N([H])C1([H])c3c([H])c([H])c([H])c([H])c3C([H])([H])C([H])([H])C1([H])[H])C2([H])[H]

$$$$
61:0:0
     RDKit          3D

 93101  0  0  1  0  0  0  0  0999 V2000
  -28.8850  -21.5000   19.7750 C   0  0  0  0  0  2  0  0  0  0  0  0
  -29.2380  -19.0920   20.6680 C   0  0  0  0  0  3  0  0  0  0  0  0
  -28.4690  -20.0320   19.9250 C   0  0  0  0  0  0  0  0  0  0  0  0
  -28.7990  -17.7440   20.6800 C   0  0  0  0  0  0  0  0  0  0  0  0
  -27.3210  -19.5330   19.2600 C   0  0  0  0  0  0  0  0  0  0  0  0
  -26.5590  -20.3630   18.2290 C   0  0  0  0  0  1  0  0  0  0  0  0
  -27.6360  -17.3730   20.1010 N   0  0  0  0  0  0  0  0  0  0  0  0
  -26.9020  -18.2530   19.4100 N   0  0  0  0  0  0  0  0  0  0  0  0
  -29.6510  -16.5910   21.2330 C   0  0  0  0  0  2  0  0  0  0  0  0
  -30.3570  -16.3020   18.6960 C   0  0  0  0  0  1  0  0  0  0  0  0
  -30.6190  -15.9690   20.1870 C   0  0  0  0  0  3  0  0  0  0  0  0
  -31.2250  -14.5410   20.3950 C   0  0  0  0  0  0  0  0  0  0  0  0
  -30.8780  -12.2970   19.4720 C   0  0  0  0  0  2  0  0  0  0  0  0
  -29.9890  -12.3990   18.2140 C   0  0  0  0  0  2  0  0  0  0  0  0
  -28.4940  -12.3290   18.5830 C   0  0  0  0  0  2  0  0  0  0  0  0
  -28.1220  -13.2720   19.7570 C   0  0  0  0  0  3  0  0  0  0  0  0
  -29.1360  -13.1790   20.9170 C   0  0  0  0  0  2  0  0  0  0  0  0
  -30.4860  -13.3940   20.3780 N   0  0  0  0  0  0  0  0  0  0  0  0
  -32.4410  -14.5020   20.1910 O   0  0  0  0  0  0  0  0  0  0  0  0
  -25.7240  -13.9740   20.3400 C   0  0  0  0  0  0  0  0  0  0  0  0
  -24.6140  -13.2470   20.6870 C   0  0  0  0  0  0  0  0  0  0  0  0
  -25.0350  -11.8840   20.7290 C   0  0  0  0  0  0  0  0  0  0  0  0
  -26.7480  -13.0520   20.1970 N   0  0  0  0  0  0  0  0  0  0  0  0
  -26.3370  -11.7920   20.4810 N   0  0  0  0  0  0  0  0  0  0  0  0
  -24.2590  -10.6530   20.9300 C   0  0  0  0  0  0  0  0  0  0  0  0
  -24.6150   -9.7120   21.9210 C   0  0  0  0  0  3  0  0  0  0  0  0
  -23.8490   -8.5400   22.0970 C   0  0  0  0  0  3  0  0  0  0  0  0
  -22.7100   -8.3080   21.2930 C   0  0  0  0  0  0  0  0  0  0  0  0
  -22.3780   -9.2360   20.2890 C   0  0  0  0  0  3  0  0  0  0  0  0
  -23.1420  -10.3990   20.1110 C   0  0  0  0  0  3  0  0  0  0  0  0
  -21.9190   -7.1890   21.3810 O   0  0  0  0  0  0  0  0  0  0  0  0
  -21.7690   -6.5080   22.5640 C   0  0  0  0  0  0  0  0  0  0  0  0
  -21.2880   -7.1360   23.7320 C   0  0  0  0  0  3  0  0  0  0  0  0
  -21.0900   -6.3810   24.9070 C   0  0  0  0  0  3  0  0  0  0  0  0
  -21.3590   -5.0000   24.9080 C   0  0  0  0  0  0  0  0  0  0  0  0
  -21.8290   -4.3710   23.7430 C   0  0  0  0  0  3  0  0  0  0  0  0
  -22.0350   -5.1240   22.5720 C   0  0  0  0  0  0  0  0  0  0  0  0
  -22.4710   -4.5100   21.4460 F   0  0  0  0  0  0  0  0  0  0  0  0
  -21.1580   -4.2730   26.0320 F   0  0  0  0  0  0  0  0  0  0  0  0
  -23.2270  -13.7770   20.8750 C   0  0  0  0  0  0  0  0  0  0  0  0
  -22.4530  -13.1380   21.7450 N   0  0  0  0  0  0  0  0  0  0  0  0
  -22.8370  -14.7830   20.2860 O   0  0  0  0  0  0  0  0  0  0  0  0
  -22.7850  -12.3190   22.2320 H   0  0  0  0  0  0  0  0  0  0  0  0
  -21.5160  -13.4660   21.9320 H   0  0  0  0  0  0  0  0  0  0  0  0
  -25.9340  -15.3270   20.1300 N   0  0  0  0  0  0  0  0  0  0  0  0
  -25.2120  -16.0270   20.2520 H   0  0  0  0  0  0  0  0  0  0  0  0
  -26.8390  -15.7700   19.9930 H   0  0  0  0  0  0  0  0  0  0  0  0
  -28.0480  -22.4790   20.6730 C   0  0  0  0  0  2  0  0  0  0  0  0
  -25.9580  -23.9040   20.6080 C   0  0  0  0  0  1  0  0  0  0  0  0
  -27.5250  -23.9130   18.5740 C   0  0  0  0  0  1  0  0  0  0  0  0
  -27.4450  -23.8590   20.1290 C   0  0  2  0  0  0  0  0  0  0  0  0
  -28.2060  -25.1320   20.7100 C   0  0  0  0  0  2  0  0  0  0  0  0
  -28.1570  -26.4500   20.0750 O   0  0  0  0  0  0  0  0  0  0  0  0
  -24.5540  -31.8120   23.2460 C   0  0  0  0  0  0  0  0  0  0  0  0
  -27.0280  -27.2480   20.1580 C   0  0  0  0  0  0  0  0  0  0  0  0
  -23.3060  -30.4450   21.6160 C   0  0  0  0  0  3  0  0  0  0  0  0
  -24.7030  -28.8800   20.1820 C   0  0  0  0  0  0  0  0  0  0  0  0
  -25.8500  -30.7180   21.4120 C   0  0  0  0  0  2  0  0  0  0  0  0
  -25.8900  -29.3440   20.7690 C   0  0  0  0  0  0  0  0  0  0  0  0
  -27.0580  -28.5380   20.7560 C   0  0  0  0  0  3  0  0  0  0  0  0
  -25.8370  -26.8490   19.5260 C   0  0  0  0  0  3  0  0  0  0  0  0
  -24.6740  -27.6300   19.5570 C   0  0  0  0  0  3  0  0  0  0  0  0
  -23.4940  -29.7850   20.2300 C   0  0  0  0  0  2  0  0  0  0  0  0
  -24.5920  -31.0040   22.1500 N   0  0  0  0  0  0  0  0  0  0  0  0
  -23.4780  -32.1080   23.7830 O   0  0  0  0  0  0  0  0  0  0  0  0
  -22.6460  -29.4210   22.5680 C   0  0  0  0  0  0  0  0  0  0  0  0
  -21.3160  -29.2720   22.4480 N   0  0  0  0  0  0  0  0  0  0  0  0
  -23.3210  -28.7720   23.3720 O   0  0  0  0  0  0  0  0  0  0  0  0
  -20.8290  -29.8830   21.8060 H   0  0  0  0  0  0  0  0  0  0  0  0
  -17.9160  -28.1430   22.9120 C   0  0  0  0  0  0  0  0  0  0  0  0
  -20.4810  -28.3260   23.1890 C   0  0  0  0  0  3  0  0  0  0  0  0
  -20.5630  -26.8960   22.5970 C   0  0  0  0  0  2  0  0  0  0  0  0
  -19.4380  -26.5490   21.6140 C   0  0  0  0  0  2  0  0  0  0  0  0
  -18.0440  -26.8050   22.2010 C   0  0  0  0  0  2  0  0  0  0  0  0
  -19.0550  -28.8650   23.3570 C   0  0  0  0  0  0  0  0  0  0  0  0
  -18.8710  -30.1330   23.9610 C   0  0  0  0  0  3  0  0  0  0  0  0
  -17.5820  -30.6660   24.1440 C   0  0  0  0  0  3  0  0  0  0  0  0
  -16.4540  -29.9330   23.7260 C   0  0  0  0  0  3  0  0  0  0  0  0
  -16.6250  -28.6820   23.1060 C   0  0  0  0  0  3  0  0  0  0  0  0
  -25.8540  -32.4180   23.8600 C   0  0  0  0  0  3  0  0  0  0  0  0
  -25.5720  -33.8220   24.1960 N   0  0  0  0  0  0  0  0  0  0  0  0
  -25.9100  -34.8690   23.4340 C   0  0  0  0  0  0  0  0  0  0  0  0
  -26.5650  -34.7530   22.3940 O   0  0  0  0  0  0  0  0  0  0  0  0
  -25.0040  -33.9870   25.0140 H   0  0  0  0  0  0  0  0  0  0  0  0
  -24.2060  -36.6840   23.0970 C   0  0  0  0  0  1  0  0  0  0  0  0
  -25.4460  -36.2660   23.8980 C   0  0  0  0  0  3  0  0  0  0  0  0
  -27.6040  -37.1130   24.7070 C   0  0  0  0  0  1  0  0  0  0  0  0
  -26.4950  -37.3010   23.7760 N   0  0  0  0  0  0  0  0  0  0  0  0
  -26.1100  -38.2290   23.9270 H   0  0  0  0  0  0  0  0  0  0  0  0
  -26.3650  -31.6330   25.1280 C   0  0  1  0  0  0  0  0  0  0  0  0
  -25.2730  -31.3980   26.1960 C   0  0  0  0  0  1  0  0  0  0  0  0
  -26.9260  -30.2520   24.7230 C   0  0  0  0  0  1  0  0  0  0  0  0
  -27.5330  -32.4000   25.7900 C   0  0  0  0  0  1  0  0  0  0  0  0
  1  3  1  0
  1 48  1  0
  2  4  1  0
  3  2  2  0
  4  9  1  0
  5  8  2  0
  5  3  1  0
  6  5  1  0
  7  4  2  0
  8  7  1  0
 11 10  1  0
 11 12  1  0
 11  9  1  0
 13 18  1  0
 14 15  1  0
 14 13  1  0
 16 15  1  0
 16 23  1  0
 16 17  1  0
 18 12  1  0
 18 17  1  0
 19 12  2  0
 20 21  2  0
 21 22  1  0
 21 40  1  0
 22 25  1  0
 23 20  1  0
 23 24  1  0
 24 22  2  0
 25 26  1  0
 26 27  2  0
 28 31  1  0
 28 27  1  0
 29 28  2  0
 30 29  1  0
 30 25  2  0
 31 32  1  0
 32 37  2  0
 32 33  1  0
 33 34  2  0
 34 35  1  0
 35 39  1  0
 36 35  2  0
 37 36  1  0
 38 37  1  0
 40 41  1  0
 41 44  1  0
 41 43  1  0
 42 40  2  0
 45 46  1  0
 45 20  1  0
 47 45  1  0
 51 50  1  6
 51 49  1  0
 51 48  1  0
 51 52  1  0
 53 55  1  0
 53 52  1  0
 54 65  2  0
 55 60  1  0
 56 64  1  0
 56 66  1  0
 57 63  1  0
 57 59  1  0
 58 64  1  0
 59 58  1  0
 60 59  2  0
 61 62  1  0
 61 55  2  0
 62 57  2  0
 63 56  1  0
 64 54  1  0
 66 68  2  0
 67 66  1  0
 69 67  1  0
 70 79  2  0
 70 75  1  0
 71 67  1  0
 71 75  1  0
 72 71  1  0
 73 74  1  0
 73 72  1  0
 74 70  1  0
 75 76  2  0
 76 77  1  0
 78 77  2  0
 79 78  1  0
 80 54  1  0
 80 81  1  0
 80 90  1  0
 81 84  1  0
 82 86  1  0
 82 81  1  0
 83 82  2  0
 86 85  1  0
 88 86  1  0
 88 89  1  0
 88 87  1  0
 90 93  1  1
 90 91  1  0
 92 90  1  0
M  ISO  4  11 100  12 100  52 101  53 101
M  END
>  <TORSDO>  (62) 
F 22

>  <SCORE>  (62) 
-13.016

>  <name>  (62) 
61

>  <ligand_id>  (62) 
61

>  <original_smiles>  (62) 
[H]c1c([H])c([H])c2c(c1[H])C([H])([H])C([H])([H])C([H])([H])C2([H])N([H])C(=O)C1([H])N(C(=O)C([H])(N([H])C(=O)C([H])(N([H])C([H])([H])[H])C([H])([H])[H])C(C([H])([H])[H])(C([H])([H])[H])C([H])([H])[H])C([H])([H])c2c([H])c(OC([H])([H])C(C([H])([H])[H])(C([H])([H])[H])C([H])([H])C([H])([H])c3c(C([H])([H])[H])nnc(C([H])([H])C([H])(C(=O)N4C([H])([H])C([H])([H])C([H])([H])C([H])(n5nc(-c6c([H])c([H])c(Oc7c([H])c([H])c(F)c([H])c7F)c([H])c6[H])c(C(=O)N([H])[H])c5N([H])[H])C4([H])[H])C([H])([H])[H])c3[H])c([H])c([H])c2C1([H])[H]

>  <smiles>  (62) 
[H]c1c([H])c([H])c2c(c1[H])C([H])([H])C([H])([H])C([H])([H])C2([H])N([H])C(=O)C1([H])N(C(=O)C([H])(N([H])C(=O)C([H])(N([H])C([H])([H])[H])C([H])([H])[H])C(C([H])([H])[H])(C([H])([H])[H])C([H])([H])[H])C([H])([H])c2c([H])c(OC([H])([H])C(C([H])([H])[H])(C([H])([H])[H])C([H])([H])C([H])([H])c3c(C([H])([H])[H])nnc(C([H])([H])C([H])(C(=O)N4C([H])([H])C([H])([H])C([H])([H])C([H])(n5nc(-c6c([H])c([H])c(Oc7c([H])c([H])c(F)c([H])c7F)c([H])c6[H])c(C(=O)N([H])[H])c5N([H])[H])C4([H])[H])C([H])([H])[H])c3[H])c([H])c([H])c2C1([H])[H]

$$$$
62:0:0
     RDKit          3D

 91 99  0  0  1  0  0  0  0  0999 V2000
  -30.9100  -18.0780   22.4300 C   0  0  0  0  0  2  0  0  0  0  0  0
  -30.5520  -18.6180   21.2190 C   0  0  0  0  0  3  0  0  0  0  0  0
  -30.6000  -20.2310   22.7800 C   0  0  0  0  0  3  0  0  0  0  0  0
  -30.3650  -21.4200   23.6560 C   0  0  0  0  0  1  0  0  0  0  0  0
  -30.5250  -20.0560   21.4300 N   0  0  0  0  0  0  0  0  0  0  0  0
  -30.9210  -19.0730   23.3430 N   0  0  0  0  0  0  0  0  0  0  0  0
  -31.0780  -18.9360   24.3340 H   0  0  0  0  0  0  0  0  0  0  0  0
  -30.2830  -17.6690   20.0150 C   0  0  0  0  0  2  0  0  0  0  0  0
  -30.8570  -15.0630   20.1940 C   0  0  0  0  0  0  0  0  0  0  0  0
  -30.6540  -12.7570   19.2650 C   0  0  0  0  0  2  0  0  0  0  0  0
  -29.7110  -12.8140   18.0420 C   0  0  0  0  0  2  0  0  0  0  0  0
  -28.2420  -12.6570   18.4790 C   0  0  0  0  0  2  0  0  0  0  0  0
  -27.8770  -13.5550   19.6890 C   0  0  0  0  0  3  0  0  0  0  0  0
  -28.9450  -13.5060   20.8060 C   0  0  0  0  0  2  0  0  0  0  0  0
  -30.2410  -13.8330   20.1920 N   0  0  0  0  0  0  0  0  0  0  0  0
  -32.0440  -15.1680   19.8710 O   0  0  0  0  0  0  0  0  0  0  0  0
  -30.0590  -16.1840   20.3310 N   0  0  0  0  0  0  0  0  0  0  0  0
  -29.0990  -15.9540   20.5300 H   0  0  0  0  0  0  0  0  0  0  0  0
  -25.5130  -14.1460   20.4950 C   0  0  0  0  0  0  0  0  0  0  0  0
  -24.4460  -13.3670   20.8520 C   0  0  0  0  0  0  0  0  0  0  0  0
  -24.8920  -12.0140   20.7570 C   0  0  0  0  0  0  0  0  0  0  0  0
  -26.5430  -13.2660   20.1990 N   0  0  0  0  0  0  0  0  0  0  0  0
  -26.1750  -11.9770   20.4170 N   0  0  0  0  0  0  0  0  0  0  0  0
  -24.1540  -10.7520   20.9110 C   0  0  0  0  0  0  0  0  0  0  0  0
  -24.5730   -9.7520   21.8180 C   0  0  0  0  0  3  0  0  0  0  0  0
  -23.8320   -8.5610   21.9610 C   0  0  0  0  0  3  0  0  0  0  0  0
  -22.6580   -8.3600   21.1980 C   0  0  0  0  0  0  0  0  0  0  0  0
  -22.2540   -9.3500   20.2820 C   0  0  0  0  0  3  0  0  0  0  0  0
  -22.9970  -10.5330   20.1370 C   0  0  0  0  0  3  0  0  0  0  0  0
  -21.8880   -7.2240   21.2540 O   0  0  0  0  0  0  0  0  0  0  0  0
  -21.8210   -6.4550   22.3880 C   0  0  0  0  0  0  0  0  0  0  0  0
  -21.3640   -6.9840   23.6160 C   0  0  0  0  0  3  0  0  0  0  0  0
  -21.2350   -6.1420   24.7400 C   0  0  0  0  0  3  0  0  0  0  0  0
  -21.5580   -4.7760   24.6380 C   0  0  0  0  0  0  0  0  0  0  0  0
  -22.0090   -4.2470   23.4140 C   0  0  0  0  0  3  0  0  0  0  0  0
  -22.1360   -5.0840   22.2910 C   0  0  0  0  0  0  0  0  0  0  0  0
  -22.5490   -4.5630   21.1110 F   0  0  0  0  0  0  0  0  0  0  0  0
  -21.4290   -3.9700   25.7150 F   0  0  0  0  0  0  0  0  0  0  0  0
  -23.0600  -13.8510   21.1720 C   0  0  0  0  0  0  0  0  0  0  0  0
  -22.3450  -13.1400   22.0340 N   0  0  0  0  0  0  0  0  0  0  0  0
  -22.6270  -14.9010   20.6950 O   0  0  0  0  0  0  0  0  0  0  0  0
  -22.7090  -12.2890   22.4380 H   0  0  0  0  0  0  0  0  0  0  0  0
  -21.4170  -13.4490   22.2940 H   0  0  0  0  0  0  0  0  0  0  0  0
  -25.6820  -15.5210   20.3720 N   0  0  0  0  0  0  0  0  0  0  0  0
  -24.9120  -16.1640   20.5240 H   0  0  0  0  0  0  0  0  0  0  0  0
  -26.5050  -15.9780   20.0010 H   0  0  0  0  0  0  0  0  0  0  0  0
  -30.3510  -21.2890   20.4700 C   0  0  0  0  0  3  0  0  0  0  0  0
  -30.5290  -22.8420   21.0140 C   0  0  0  0  0  3  0  0  0  0  0  0
  -30.0950  -24.1690   20.1800 C   0  0  0  0  0  3  0  0  0  0  0  0
  -29.4140  -25.4170   20.9700 C   0  0  0  0  0  3  0  0  0  0  0  0
  -29.3540  -26.8120   20.4220 O   0  0  0  0  0  0  0  0  0  0  0  0
  -24.7500  -31.6690   23.2450 C   0  0  0  0  0  0  0  0  0  0  0  0
  -28.1290  -27.5100   20.3690 C   0  0  0  0  0  0  0  0  0  0  0  0
  -23.8530  -30.1800   21.4930 C   0  0  0  0  0  3  0  0  0  0  0  0
  -25.5880  -28.8370   20.1700 C   0  0  0  0  0  0  0  0  0  0  0  0
  -26.3460  -30.7930   21.5270 C   0  0  0  0  0  2  0  0  0  0  0  0
  -26.6390  -29.4490   20.8630 C   0  0  0  0  0  0  0  0  0  0  0  0
  -27.9140  -28.8060   20.9380 C   0  0  0  0  0  3  0  0  0  0  0  0
  -27.0490  -26.9420   19.6670 C   0  0  0  0  0  3  0  0  0  0  0  0
  -25.7970  -27.5900   19.5550 C   0  0  0  0  0  3  0  0  0  0  0  0
  -24.2530  -29.5600   20.1260 C   0  0  0  0  0  2  0  0  0  0  0  0
  -24.9940  -30.9010   22.1440 N   0  0  0  0  0  0  0  0  0  0  0  0
  -23.6020  -31.8050   23.6940 O   0  0  0  0  0  0  0  0  0  0  0  0
  -23.2370  -29.0740   22.3830 C   0  0  0  0  0  0  0  0  0  0  0  0
  -21.9490  -28.7590   22.1580 N   0  0  0  0  0  0  0  0  0  0  0  0
  -23.9200  -28.5040   23.2360 O   0  0  0  0  0  0  0  0  0  0  0  0
  -21.4530  -29.2790   21.4470 H   0  0  0  0  0  0  0  0  0  0  0  0
  -18.6850  -27.2200   22.4230 C   0  0  0  0  0  0  0  0  0  0  0  0
  -21.1840  -27.7210   22.8520 C   0  0  0  0  0  3  0  0  0  0  0  0
  -21.4640  -26.3290   22.2430 C   0  0  0  0  0  2  0  0  0  0  0  0
  -20.4600  -25.9360   21.1540 C   0  0  0  0  0  2  0  0  0  0  0  0
  -19.0350  -25.9210   21.7160 C   0  0  0  0  0  2  0  0  0  0  0  0
  -19.6950  -28.0730   22.9430 C   0  0  0  0  0  0  0  0  0  0  0  0
  -19.3160  -29.2840   23.5600 C   0  0  0  0  0  3  0  0  0  0  0  0
  -17.9580  -29.6490   23.6600 C   0  0  0  0  0  3  0  0  0  0  0  0
  -16.9640  -28.7940   23.1560 C   0  0  0  0  0  3  0  0  0  0  0  0
  -17.3270  -27.5810   22.5450 C   0  0  0  0  0  3  0  0  0  0  0  0
  -25.8970  -32.4330   23.9770 C   0  0  0  0  0  3  0  0  0  0  0  0
  -25.4360  -33.8090   24.2090 N   0  0  0  0  0  0  0  0  0  0  0  0
  -25.7530  -34.8590   23.4380 C   0  0  0  0  0  0  0  0  0  0  0  0
  -26.5290  -34.7760   22.4810 O   0  0  0  0  0  0  0  0  0  0  0  0
  -24.7510  -33.9400   24.9390 H   0  0  0  0  0  0  0  0  0  0  0  0
  -23.9130  -36.4690   22.8550 C   0  0  0  0  0  1  0  0  0  0  0  0
  -25.1080  -36.2130   23.7870 C   0  0  0  0  0  3  0  0  0  0  0  0
  -27.0700  -37.3240   24.7560 C   0  0  0  0  0  1  0  0  0  0  0  0
  -26.0510  -37.3510   23.7110 N   0  0  0  0  0  0  0  0  0  0  0  0
  -25.5530  -38.2370   23.7740 H   0  0  0  0  0  0  0  0  0  0  0  0
  -26.3230  -31.7570   25.3400 C   0  0  1  0  0  0  0  0  0  0  0  0
  -25.1370  -31.4660   26.2860 C   0  0  0  0  0  1  0  0  0  0  0  0
  -27.0630  -30.4230   25.0870 C   0  0  0  0  0  1  0  0  0  0  0  0
  -27.3190  -32.6760   26.0830 C   0  0  0  0  0  1  0  0  0  0  0  0
  1  6  1  0
  2  8  1  0
  2  5  1  0
  2  1  1  0
  3  6  1  0
  3  4  1  0
  5  3  1  0
  6  7  1  0
  8 17  1  0
  9 17  1  0
 10 15  1  0
 11 12  1  0
 11 10  1  0
 13 12  1  0
 13 22  1  0
 13 14  1  0
 15  9  1  0
 15 14  1  0
 16  9  2  0
 17 18  1  0
 19 20  2  0
 20 39  1  0
 21 20  1  0
 21 24  1  0
 22 23  1  0
 22 19  1  0
 23 21  2  0
 24 25  1  0
 25 26  2  0
 27 30  1  0
 27 26  1  0
 28 27  2  0
 29 28  1  0
 29 24  2  0
 30 31  1  0
 31 32  1  0
 32 33  2  0
 34 33  1  0
 34 38  1  0
 35 34  2  0
 36 31  2  0
 36 35  1  0
 37 36  1  0
 39 40  1  0
 40 43  1  0
 40 42  1  0
 41 39  2  0
 44 19  1  0
 44 45  1  0
 46 44  1  0
 47 48  2  0
 47  5  1  0
 49 50  2  0
 49 48  1  0
 51 50  1  0
 52 63  2  0
 53 51  1  0
 53 58  1  0
 54 62  1  0
 54 64  1  0
 55 57  1  0
 56 62  1  0
 57 58  2  0
 57 56  1  0
 59 53  2  0
 60 59  1  0
 60 55  2  0
 61 55  1  0
 61 54  1  0
 62 52  1  0
 64 66  2  0
 65 64  1  0
 67 65  1  0
 68 77  2  0
 68 73  1  0
 69 65  1  0
 69 73  1  0
 70 69  1  0
 71 72  1  0
 71 70  1  0
 72 68  1  0
 73 74  2  0
 74 75  1  0
 76 75  2  0
 77 76  1  0
 78 52  1  0
 78 79  1  0
 78 88  1  0
 79 82  1  0
 80 84  1  0
 80 79  1  0
 81 80  2  0
 84 83  1  0
 86 87  1  0
 86 84  1  0
 86 85  1  0
 88 91  1  1
 88 89  1  0
 90 88  1  0
M  ISO  4   9 100  17 100  50 101  51 101
M  END
>  <TORSDO>  (63) 
F 21

>  <SCORE>  (63) 
-12.352

>  <name>  (63) 
62

>  <ligand_id>  (63) 
62

>  <original_smiles>  (63) 
[H]c1c([H])c([H])c2c(c1[H])C([H])([H])C([H])([H])C([H])([H])C2([H])N([H])C(=O)C1([H])N(C(=O)C([H])(N([H])C(=O)C([H])(N([H])C([H])([H])[H])C([H])([H])[H])C(C([H])([H])[H])(C([H])([H])[H])C([H])([H])[H])C([H])([H])c2c([H])c(OC([H])([H])C([H])([H])C([H])([H])C([H])([H])n3c(C([H])([H])N([H])C(=O)N4C([H])([H])C([H])([H])C([H])([H])C([H])(n5nc(-c6c([H])c([H])c(Oc7c([H])c([H])c(F)c([H])c7F)c([H])c6[H])c(C(=O)N([H])[H])c5N([H])[H])C4([H])[H])c([H])[n+]([H])c3C([H])([H])[H])c([H])c([H])c2C1([H])[H]

>  <smiles>  (63) 
[H]c1c([H])c([H])c2c(c1[H])C([H])([H])C([H])([H])C([H])([H])C2([H])N([H])C(=O)C1([H])N(C(=O)C([H])(N([H])C(=O)C([H])(N([H])C([H])([H])[H])C([H])([H])[H])C(C([H])([H])[H])(C([H])([H])[H])C([H])([H])[H])C([H])([H])c2c([H])c(OC([H])([H])C([H])([H])C([H])([H])C([H])([H])n3c(C([H])([H])N([H])C(=O)N4C([H])([H])C([H])([H])C([H])([H])C([H])(n5nc(-c6c([H])c([H])c(Oc7c([H])c([H])c(F)c([H])c7F)c([H])c6[H])c(C(=O)N([H])[H])c5N([H])[H])C4([H])[H])c([H])[n+]([H])c3C([H])([H])[H])c([H])c([H])c2C1([H])[H]

$$$$
63:0:0
     RDKit          3D

 91 99  0  0  1  0  0  0  0  0999 V2000
  -29.1440  -19.8700   20.7540 C   0  0  0  0  0  3  0  0  0  0  0  0
  -29.8370  -20.3510   19.6090 C   0  0  0  0  0  0  0  0  0  0  0  0
  -29.3580  -18.5200   20.7720 C   0  0  0  0  0  0  0  0  0  0  0  0
  -28.8030  -17.5070   21.7200 C   0  0  0  0  0  1  0  0  0  0  0  0
  -30.4630  -19.3420   18.9900 N   0  0  0  0  0  0  0  0  0  0  0  0
  -30.1830  -18.2090   19.7020 N   0  0  0  0  0  0  0  0  0  0  0  0
  -29.9050  -21.7840   19.0710 C   0  0  0  0  0  3  0  0  0  0  0  0
  -29.0570  -22.8310   19.8620 C   0  0  0  0  0  3  0  0  0  0  0  0
  -29.2470  -24.3330   19.4650 C   0  0  0  0  0  2  0  0  0  0  0  0
  -28.3960  -25.3240   20.3130 C   0  0  0  0  0  2  0  0  0  0  0  0
  -28.5970  -26.7360   20.0340 O   0  0  0  0  0  0  0  0  0  0  0  0
  -24.6680  -31.7810   23.2450 C   0  0  0  0  0  0  0  0  0  0  0  0
  -27.4410  -27.4980   20.0310 C   0  0  0  0  0  0  0  0  0  0  0  0
  -23.5100  -30.3980   21.5540 C   0  0  0  0  0  3  0  0  0  0  0  0
  -25.0130  -28.9590   20.0760 C   0  0  0  0  0  0  0  0  0  0  0  0
  -26.0270  -30.8350   21.3770 C   0  0  0  0  0  2  0  0  0  0  0  0
  -26.1560  -29.4880   20.6880 C   0  0  0  0  0  0  0  0  0  0  0  0
  -27.3770  -28.7680   20.6570 C   0  0  0  0  0  3  0  0  0  0  0  0
  -26.2850  -27.0010   19.3940 C   0  0  0  0  0  3  0  0  0  0  0  0
  -25.0740  -27.7160   19.4240 C   0  0  0  0  0  3  0  0  0  0  0  0
  -23.7430  -29.7770   20.1520 C   0  0  0  0  0  2  0  0  0  0  0  0
  -24.7530  -31.0200   22.1160 N   0  0  0  0  0  0  0  0  0  0  0  0
  -23.5770  -32.0010   23.7910 O   0  0  0  0  0  0  0  0  0  0  0  0
  -22.8900  -29.3250   22.4790 C   0  0  0  0  0  0  0  0  0  0  0  0
  -21.5800  -29.0730   22.3110 N   0  0  0  0  0  0  0  0  0  0  0  0
  -23.5850  -28.7230   23.3010 O   0  0  0  0  0  0  0  0  0  0  0  0
  -21.0790  -29.6150   21.6210 H   0  0  0  0  0  0  0  0  0  0  0  0
  -18.2730  -27.6580   22.6680 C   0  0  0  0  0  0  0  0  0  0  0  0
  -20.7970  -28.0770   23.0430 C   0  0  0  0  0  3  0  0  0  0  0  0
  -21.0130  -26.6610   22.4600 C   0  0  0  0  0  2  0  0  0  0  0  0
  -19.9750  -26.2780   21.4020 C   0  0  0  0  0  2  0  0  0  0  0  0
  -18.5620  -26.3290   21.9910 C   0  0  0  0  0  2  0  0  0  0  0  0
  -19.3230  -28.4860   23.1480 C   0  0  0  0  0  0  0  0  0  0  0  0
  -19.0020  -29.7270   23.7390 C   0  0  0  0  0  3  0  0  0  0  0  0
  -17.6630  -30.1430   23.8570 C   0  0  0  0  0  3  0  0  0  0  0  0
  -16.6260  -29.3130   23.3950 C   0  0  0  0  0  3  0  0  0  0  0  0
  -16.9320  -28.0730   22.8070 C   0  0  0  0  0  3  0  0  0  0  0  0
  -25.9320  -32.4320   23.8870 C   0  0  0  0  0  3  0  0  0  0  0  0
  -25.6010  -33.8290   24.1950 N   0  0  0  0  0  0  0  0  0  0  0  0
  -25.9410  -34.8780   23.4340 C   0  0  0  0  0  0  0  0  0  0  0  0
  -26.6390  -34.7700   22.4210 O   0  0  0  0  0  0  0  0  0  0  0  0
  -24.9820  -33.9840   24.9770 H   0  0  0  0  0  0  0  0  0  0  0  0
  -24.2010  -36.6480   23.0190 C   0  0  0  0  0  1  0  0  0  0  0  0
  -25.4270  -36.2650   23.8640 C   0  0  0  0  0  3  0  0  0  0  0  0
  -27.5310  -37.1840   24.7350 C   0  0  0  0  0  1  0  0  0  0  0  0
  -26.4500  -37.3290   23.7640 N   0  0  0  0  0  0  0  0  0  0  0  0
  -26.0290  -38.2450   23.8910 H   0  0  0  0  0  0  0  0  0  0  0  0
  -26.4290  -31.6790   25.1820 C   0  0  1  0  0  0  0  0  0  0  0  0
  -25.3030  -31.3840   26.2010 C   0  0  0  0  0  1  0  0  0  0  0  0
  -27.0920  -30.3320   24.8090 C   0  0  0  0  0  1  0  0  0  0  0  0
  -27.5100  -32.5230   25.8960 C   0  0  0  0  0  1  0  0  0  0  0  0
  -30.6550  -16.8830   19.2280 C   0  0  0  0  0  2  0  0  0  0  0  0
  -33.1440  -17.2910   19.4590 C   0  0  0  0  0  1  0  0  0  0  0  0
  -32.0020  -16.2780   21.3890 C   0  0  0  0  0  1  0  0  0  0  0  0
  -31.9920  -16.3100   19.8350 C   0  0  1  0  0  0  0  0  0  0  0  0
  -32.3380  -14.8930   19.2190 C   0  0  0  0  0  0  0  0  0  0  0  0
  -31.8510  -12.5530   18.5490 C   0  0  0  0  0  2  0  0  0  0  0  0
  -30.8320  -12.5180   17.3920 C   0  0  0  0  0  2  0  0  0  0  0  0
  -29.3940  -12.4990   17.9410 C   0  0  0  0  0  2  0  0  0  0  0  0
  -29.1620  -13.5960   19.0130 C   0  0  0  0  0  3  0  0  0  0  0  0
  -30.2940  -13.6120   20.0600 C   0  0  0  0  0  2  0  0  0  0  0  0
  -31.5800  -13.7580   19.3640 N   0  0  0  0  0  0  0  0  0  0  0  0
  -33.3560  -14.8420   18.5220 O   0  0  0  0  0  0  0  0  0  0  0  0
  -26.9640  -14.4600   20.0320 C   0  0  0  0  0  0  0  0  0  0  0  0
  -25.8570  -13.8110   20.5080 C   0  0  0  0  0  0  0  0  0  0  0  0
  -26.1320  -12.4160   20.3770 C   0  0  0  0  0  0  0  0  0  0  0  0
  -27.8500  -13.4670   19.6450 N   0  0  0  0  0  0  0  0  0  0  0  0
  -27.3600  -12.2300   19.9110 N   0  0  0  0  0  0  0  0  0  0  0  0
  -25.2740  -11.2500   20.6130 C   0  0  0  0  0  0  0  0  0  0  0  0
  -25.5670  -10.3100   21.6260 C   0  0  0  0  0  3  0  0  0  0  0  0
  -24.7170   -9.2060   21.8470 C   0  0  0  0  0  3  0  0  0  0  0  0
  -23.5580   -9.0320   21.0530 C   0  0  0  0  0  0  0  0  0  0  0  0
  -23.2830   -9.9570   20.0310 C   0  0  0  0  0  3  0  0  0  0  0  0
  -24.1330  -11.0540   19.8080 C   0  0  0  0  0  3  0  0  0  0  0  0
  -22.6890   -7.9750   21.1770 O   0  0  0  0  0  0  0  0  0  0  0  0
  -22.3530   -7.4590   22.4020 C   0  0  0  0  0  0  0  0  0  0  0  0
  -21.7410   -8.2480   23.4020 C   0  0  0  0  0  3  0  0  0  0  0  0
  -21.3510   -7.6590   24.6210 C   0  0  0  0  0  3  0  0  0  0  0  0
  -21.5620   -6.2840   24.8390 C   0  0  0  0  0  0  0  0  0  0  0  0
  -22.1650   -5.4980   23.8430 C   0  0  0  0  0  3  0  0  0  0  0  0
  -22.5560   -6.0830   22.6270 C   0  0  0  0  0  0  0  0  0  0  0  0
  -23.1180   -5.3160   21.6600 F   0  0  0  0  0  0  0  0  0  0  0  0
  -21.1810   -5.7170   26.0070 F   0  0  0  0  0  0  0  0  0  0  0  0
  -24.5730  -14.4460   20.9570 C   0  0  0  0  0  0  0  0  0  0  0  0
  -23.8730  -13.8200   21.8950 N   0  0  0  0  0  0  0  0  0  0  0  0
  -24.2040  -15.5310   20.5090 O   0  0  0  0  0  0  0  0  0  0  0  0
  -24.1820  -12.9380   22.2750 H   0  0  0  0  0  0  0  0  0  0  0  0
  -23.0120  -14.2270   22.2350 H   0  0  0  0  0  0  0  0  0  0  0  0
  -27.2780  -15.8060   19.8740 N   0  0  0  0  0  0  0  0  0  0  0  0
  -26.6000  -16.5340   20.0720 H   0  0  0  0  0  0  0  0  0  0  0  0
  -28.1000  -16.1510   19.3970 H   0  0  0  0  0  0  0  0  0  0  0  0
  1  3  2  0
  2  1  1  0
  3  4  1  0
  5  2  2  0
  5  6  1  0
  6  3  1  0
  7  2  1  0
  7  8  2  0
  9  8  1  0
  9 10  1  0
 11 10  1  0
 12 23  2  0
 13 11  1  0
 13 18  1  0
 14 22  1  0
 14 24  1  0
 15 21  1  0
 15 17  1  0
 16 22  1  0
 17 16  1  0
 18 17  2  0
 19 20  1  0
 19 13  2  0
 20 15  2  0
 21 14  1  0
 22 12  1  0
 24 26  2  0
 25 24  1  0
 27 25  1  0
 28 37  2  0
 28 33  1  0
 29 25  1  0
 29 33  1  0
 30 29  1  0
 31 32  1  0
 31 30  1  0
 32 28  1  0
 33 34  2  0
 34 35  1  0
 36 35  2  0
 37 36  1  0
 38 12  1  0
 38 39  1  0
 38 48  1  0
 39 42  1  0
 40 44  1  0
 40 39  1  0
 41 40  2  0
 44 43  1  0
 46 44  1  0
 46 47  1  0
 46 45  1  0
 48 51  1  1
 48 49  1  0
 50 48  1  0
 52  6  1  0
 52 55  1  0
 55 53  1  6
 55 54  1  0
 56 62  1  0
 56 55  1  0
 57 62  1  0
 58 59  1  0
 58 57  1  0
 60 59  1  0
 60 67  1  0
 60 61  1  0
 62 61  1  0
 63 56  2  0
 64 65  2  0
 65 84  1  0
 66 65  1  0
 66 69  1  0
 67 68  1  0
 67 64  1  0
 68 66  2  0
 69 70  1  0
 70 71  2  0
 72 75  1  0
 72 71  1  0
 73 72  2  0
 74 73  1  0
 74 69  2  0
 75 76  1  0
 76 81  2  0
 76 77  1  0
 77 78  2  0
 78 79  1  0
 79 83  1  0
 80 79  2  0
 81 80  1  0
 82 81  1  0
 84 85  1  0
 85 88  1  0
 85 87  1  0
 86 84  2  0
 89 64  1  0
 89 90  1  0
 91 89  1  0
M  ISO  4  10 101  11 101  55 100  56 100
M  END
>  <TORSDO>  (64) 
F 22

>  <SCORE>  (64) 
-9.023

>  <name>  (64) 
63

>  <ligand_id>  (64) 
63

>  <original_smiles>  (64) 
[H]c1c([H])c([H])c2c(c1[H])C([H])([H])C([H])([H])C([H])([H])C2([H])N([H])C(=O)C1([H])N(C(=O)C([H])(N([H])C(=O)C([H])(N([H])C([H])([H])[H])C([H])([H])[H])C(C([H])([H])[H])(C([H])([H])[H])C([H])([H])[H])C([H])([H])c2c([H])c(OC([H])([H])C([H])([H])C([H])([H])C([H])([H])c3nn(C([H])([H])C(C(=O)N4C([H])([H])C([H])([H])C([H])([H])C([H])(n5nc(-c6c([H])c([H])c(Oc7c([H])c([H])c(F)c([H])c7F)c([H])c6[H])c(C(=O)N([H])[H])c5N([H])[H])C4([H])[H])(C([H])([H])[H])C([H])([H])[H])c(C([H])([H])[H])c3[H])c([H])c([H])c2C1([H])[H]

>  <smiles>  (64) 
[H]c1c([H])c([H])c2c(c1[H])C([H])([H])C([H])([H])C([H])([H])C2([H])N([H])C(=O)C1([H])N(C(=O)C([H])(N([H])C(=O)C([H])(N([H])C([H])([H])[H])C([H])([H])[H])C(C([H])([H])[H])(C([H])([H])[H])C([H])([H])[H])C([H])([H])c2c([H])c(OC([H])([H])C([H])([H])C([H])([H])C([H])([H])c3nn(C([H])([H])C(C(=O)N4C([H])([H])C([H])([H])C([H])([H])C([H])(n5nc(-c6c([H])c([H])c(Oc7c([H])c([H])c(F)c([H])c7F)c([H])c6[H])c(C(=O)N([H])[H])c5N([H])[H])C4([H])[H])(C([H])([H])[H])C([H])([H])[H])c(C([H])([H])[H])c3[H])c([H])c([H])c2C1([H])[H]

$$$$
64:0:0
     RDKit          3D

 92100  0  0  1  0  0  0  0  0999 V2000
  -30.1740  -21.3890   19.6480 C   0  0  0  0  0  2  0  0  0  0  0  0
  -30.1150  -18.7370   20.1900 C   0  0  0  0  0  3  0  0  0  0  0  0
  -32.1520  -19.9540   20.4780 C   0  0  0  0  0  3  0  0  0  0  0  0
  -30.7790  -20.0170   20.1630 C   0  0  0  0  0  0  0  0  0  0  0  0
  -30.8360  -17.5190   20.5400 C   0  0  0  0  0  0  0  0  0  0  0  0
  -32.8050  -18.7990   20.7600 N   0  0  0  0  0  0  0  0  0  0  0  0
  -32.1690  -17.6210   20.7920 N   0  0  0  0  0  0  0  0  0  0  0  0
  -30.4500  -15.8410   22.3880 C   0  0  0  0  0  1  0  0  0  0  0  0
  -28.6520  -16.2800   20.7320 C   0  0  0  0  0  1  0  0  0  0  0  0
  -30.1780  -16.0890   20.8830 C   0  0  1  0  0  0  0  0  0  0  0  0
  -30.7380  -14.7640   20.1140 C   0  0  0  0  0  0  0  0  0  0  0  0
  -30.4290  -12.5690   18.9180 C   0  0  0  0  0  2  0  0  0  0  0  0
  -29.4030  -12.7060   17.7690 C   0  0  0  0  0  2  0  0  0  0  0  0
  -27.9630  -12.4890   18.2810 C   0  0  0  0  0  2  0  0  0  0  0  0
  -27.6780  -13.3050   19.5640 C   0  0  0  0  0  3  0  0  0  0  0  0
  -28.8150  -13.1040   20.6010 C   0  0  0  0  0  2  0  0  0  0  0  0
  -30.0720  -13.5520   19.9770 N   0  0  0  0  0  0  0  0  0  0  0  0
  -31.8450  -14.8530   19.5740 O   0  0  0  0  0  0  0  0  0  0  0  0
  -25.3150  -13.9000   20.4000 C   0  0  0  0  0  0  0  0  0  0  0  0
  -24.2720  -13.1240   20.8190 C   0  0  0  0  0  0  0  0  0  0  0  0
  -24.7340  -11.7750   20.7490 C   0  0  0  0  0  0  0  0  0  0  0  0
  -26.3540  -13.0230   20.1140 N   0  0  0  0  0  0  0  0  0  0  0  0
  -26.0090  -11.7390   20.3800 N   0  0  0  0  0  0  0  0  0  0  0  0
  -24.0180  -10.5100   20.9530 C   0  0  0  0  0  0  0  0  0  0  0  0
  -24.4710   -9.5480   21.8830 C   0  0  0  0  0  3  0  0  0  0  0  0
  -23.7550   -8.3470   22.0750 C   0  0  0  0  0  3  0  0  0  0  0  0
  -22.5730   -8.1000   21.3380 C   0  0  0  0  0  0  0  0  0  0  0  0
  -22.1390   -9.0500   20.3970 C   0  0  0  0  0  3  0  0  0  0  0  0
  -22.8550  -10.2430   20.2040 C   0  0  0  0  0  3  0  0  0  0  0  0
  -21.8270   -6.9520   21.4420 O   0  0  0  0  0  0  0  0  0  0  0  0
  -21.7640   -6.2350   22.6120 C   0  0  0  0  0  0  0  0  0  0  0  0
  -21.3240   -6.8200   23.8200 C   0  0  0  0  0  3  0  0  0  0  0  0
  -21.2100   -6.0320   24.9820 C   0  0  0  0  0  3  0  0  0  0  0  0
  -21.5230   -4.6600   24.9360 C   0  0  0  0  0  0  0  0  0  0  0  0
  -21.9590   -4.0760   23.7330 C   0  0  0  0  0  3  0  0  0  0  0  0
  -22.0730   -4.8620   22.5730 C   0  0  0  0  0  0  0  0  0  0  0  0
  -22.4700   -4.2890   21.4120 F   0  0  0  0  0  0  0  0  0  0  0  0
  -21.4070   -3.9010   26.0500 F   0  0  0  0  0  0  0  0  0  0  0  0
  -22.8890  -13.5950   21.1710 C   0  0  0  0  0  0  0  0  0  0  0  0
  -22.2120  -12.8920   22.0690 N   0  0  0  0  0  0  0  0  0  0  0  0
  -22.4230  -14.6230   20.6800 O   0  0  0  0  0  0  0  0  0  0  0  0
  -22.6060  -12.0610   22.4880 H   0  0  0  0  0  0  0  0  0  0  0  0
  -21.2870  -13.1890   22.3470 H   0  0  0  0  0  0  0  0  0  0  0  0
  -25.4560  -15.2720   20.2130 N   0  0  0  0  0  0  0  0  0  0  0  0
  -24.6780  -15.9100   20.3350 H   0  0  0  0  0  0  0  0  0  0  0  0
  -26.2660  -15.7090   19.7970 H   0  0  0  0  0  0  0  0  0  0  0  0
  -29.3610  -22.0000   22.0230 C   0  0  0  0  0  1  0  0  0  0  0  0
  -27.7840  -22.0100   20.0870 C   0  0  0  0  0  1  0  0  0  0  0  0
  -29.2240  -22.3520   20.5260 C   0  0  2  0  0  0  0  0  0  0  0  0
  -29.4510  -23.9540   20.3330 C   0  0  0  0  0  3  0  0  0  0  0  0
  -28.2220  -24.9880   20.4280 C   0  0  0  0  0  3  0  0  0  0  0  0
  -28.4300  -26.4640   20.3270 O   0  0  0  0  0  0  0  0  0  0  0  0
  -24.6330  -31.8930   23.2410 C   0  0  0  0  0  0  0  0  0  0  0  0
  -27.2980  -27.3050   20.2650 C   0  0  0  0  0  0  0  0  0  0  0  0
  -23.4470  -30.4720   21.6100 C   0  0  0  0  0  3  0  0  0  0  0  0
  -24.9150  -28.9080   20.2180 C   0  0  0  0  0  0  0  0  0  0  0  0
  -25.9870  -30.7990   21.4350 C   0  0  0  0  0  2  0  0  0  0  0  0
  -26.0790  -29.4090   20.8150 C   0  0  0  0  0  0  0  0  0  0  0  0
  -27.2720  -28.6230   20.8240 C   0  0  0  0  0  3  0  0  0  0  0  0
  -26.1100  -26.8660   19.6320 C   0  0  0  0  0  3  0  0  0  0  0  0
  -24.9330  -27.6400   19.6150 C   0  0  0  0  0  3  0  0  0  0  0  0
  -23.6740  -29.7800   20.2410 C   0  0  0  0  0  2  0  0  0  0  0  0
  -24.7080  -31.0740   22.1510 N   0  0  0  0  0  0  0  0  0  0  0  0
  -23.5440  -32.1670   23.7680 O   0  0  0  0  0  0  0  0  0  0  0  0
  -22.7820  -29.4640   22.5790 C   0  0  0  0  0  0  0  0  0  0  0  0
  -21.4590  -29.2710   22.4370 N   0  0  0  0  0  0  0  0  0  0  0  0
  -23.4560  -28.8520   23.4120 O   0  0  0  0  0  0  0  0  0  0  0  0
  -20.9740  -29.8110   21.7350 H   0  0  0  0  0  0  0  0  0  0  0  0
  -18.0890  -28.0420   22.9100 C   0  0  0  0  0  0  0  0  0  0  0  0
  -20.6410  -28.3410   23.2180 C   0  0  0  0  0  3  0  0  0  0  0  0
  -20.7690  -26.8980   22.6770 C   0  0  0  0  0  2  0  0  0  0  0  0
  -19.6890  -26.5410   21.6510 C   0  0  0  0  0  2  0  0  0  0  0  0
  -18.2930  -26.6840   22.2640 C   0  0  0  0  0  2  0  0  0  0  0  0
  -19.1900  -28.8270   23.3450 C   0  0  0  0  0  0  0  0  0  0  0  0
  -18.9460  -30.0980   23.9080 C   0  0  0  0  0  3  0  0  0  0  0  0
  -17.6320  -30.5840   24.0400 C   0  0  0  0  0  3  0  0  0  0  0  0
  -16.5450  -29.7970   23.6220 C   0  0  0  0  0  3  0  0  0  0  0  0
  -16.7750  -28.5280   23.0610 C   0  0  0  0  0  3  0  0  0  0  0  0
  -25.9080  -32.5410   23.8620 C   0  0  0  0  0  3  0  0  0  0  0  0
  -25.5830  -33.9360   24.1860 N   0  0  0  0  0  0  0  0  0  0  0  0
  -25.9130  -34.9900   23.4260 C   0  0  0  0  0  0  0  0  0  0  0  0
  -26.5900  -34.8890   22.4000 O   0  0  0  0  0  0  0  0  0  0  0  0
  -24.9870  -34.0880   24.9860 H   0  0  0  0  0  0  0  0  0  0  0  0
  -24.1740  -36.7700   23.0500 C   0  0  0  0  0  1  0  0  0  0  0  0
  -25.4090  -36.3770   23.8770 C   0  0  0  0  0  3  0  0  0  0  0  0
  -27.5330  -37.2770   24.7220 C   0  0  0  0  0  1  0  0  0  0  0  0
  -26.4350  -37.4380   23.7720 N   0  0  0  0  0  0  0  0  0  0  0  0
  -26.0210  -38.3560   23.9120 H   0  0  0  0  0  0  0  0  0  0  0  0
  -26.4250  -31.7790   25.1440 C   0  0  1  0  0  0  0  0  0  0  0  0
  -25.3290  -31.5410   26.2100 C   0  0  0  0  0  1  0  0  0  0  0  0
  -27.0180  -30.4030   24.7610 C   0  0  0  0  0  1  0  0  0  0  0  0
  -27.5650  -32.5870   25.8060 C   0  0  0  0  0  1  0  0  0  0  0  0
  1  4  1  0
  1 49  1  0
  2  5  1  0
  3  6  2  0
  4  2  2  0
  4  3  1  0
  5  7  2  0
  5 10  1  0
  6  7  1  0
 10  9  1  1
 10  8  1  0
 11 10  1  0
 12 17  1  0
 13 14  1  0
 13 12  1  0
 15 14  1  0
 15 22  1  0
 15 16  1  0
 17 11  1  0
 17 16  1  0
 18 11  2  0
 19 20  2  0
 20 39  1  0
 21 20  1  0
 21 24  1  0
 22 23  1  0
 22 19  1  0
 23 21  2  0
 24 25  1  0
 25 26  2  0
 27 30  1  0
 27 26  1  0
 28 27  2  0
 29 28  1  0
 29 24  2  0
 30 31  1  0
 31 32  1  0
 32 33  2  0
 34 33  1  0
 34 38  1  0
 35 34  2  0
 36 31  2  0
 36 35  1  0
 37 36  1  0
 39 40  1  0
 40 43  1  0
 40 42  1  0
 41 39  2  0
 44 45  1  0
 44 19  1  0
 46 44  1  0
 49 48  1  6
 49 47  1  0
 50 51  2  0
 50 49  1  0
 52 51  1  0
 53 64  2  0
 54 52  1  0
 54 59  1  0
 55 63  1  0
 55 65  1  0
 56 62  1  0
 56 58  1  0
 57 63  1  0
 58 59  2  0
 58 57  1  0
 60 54  2  0
 61 60  1  0
 61 56  2  0
 62 55  1  0
 63 53  1  0
 65 67  2  0
 66 65  1  0
 68 66  1  0
 69 78  2  0
 69 74  1  0
 70 66  1  0
 70 74  1  0
 71 70  1  0
 72 73  1  0
 72 71  1  0
 73 69  1  0
 74 75  2  0
 75 76  1  0
 77 76  2  0
 78 77  1  0
 79 53  1  0
 79 80  1  0
 79 89  1  0
 80 83  1  0
 81 85  1  0
 81 80  1  0
 82 81  2  0
 85 84  1  0
 87 85  1  0
 87 88  1  0
 87 86  1  0
 89 92  1  1
 89 90  1  0
 91 89  1  0
M  ISO  4  10 100  11 100  51 101  52 101
M  END
>  <TORSDO>  (65) 
F 21

>  <SCORE>  (65) 
-13.280

>  <name>  (65) 
64

>  <ligand_id>  (65) 
64

>  <original_smiles>  (65) 
[H]c1nnc(C(C(=O)N2C([H])([H])C([H])([H])C([H])([H])C([H])(n3nc(-c4c([H])c([H])c(Oc5c([H])c([H])c(F)c([H])c5F)c([H])c4[H])c(C(=O)N([H])[H])c3N([H])[H])C2([H])[H])(C([H])([H])[H])C([H])([H])[H])c([H])c1C([H])([H])C(C([H])([H])[H])(C([H])([H])[H])C([H])([H])C([H])([H])Oc1c([H])c([H])c2c(c1[H])C([H])([H])N(C(=O)C([H])(N([H])C(=O)C([H])(N([H])C([H])([H])[H])C([H])([H])[H])C(C([H])([H])[H])(C([H])([H])[H])C([H])([H])[H])C([H])(C(=O)N([H])C1([H])c3c([H])c([H])c([H])c([H])c3C([H])([H])C([H])([H])C1([H])[H])C2([H])[H]

>  <smiles>  (65) 
[H]c1nnc(C(C(=O)N2C([H])([H])C([H])([H])C([H])([H])C([H])(n3nc(-c4c([H])c([H])c(Oc5c([H])c([H])c(F)c([H])c5F)c([H])c4[H])c(C(=O)N([H])[H])c3N([H])[H])C2([H])[H])(C([H])([H])[H])C([H])([H])[H])c([H])c1C([H])([H])C(C([H])([H])[H])(C([H])([H])[H])C([H])([H])C([H])([H])Oc1c([H])c([H])c2c(c1[H])C([H])([H])N(C(=O)C([H])(N([H])C(=O)C([H])(N([H])C([H])([H])[H])C([H])([H])[H])C(C([H])([H])[H])(C([H])([H])[H])C([H])([H])[H])C([H])(C(=O)N([H])C1([H])c3c([H])c([H])c([H])c([H])c3C([H])([H])C([H])([H])C1([H])[H])C2([H])[H]

$$$$
65:0:0
     RDKit          3D

 90 98  0  0  1  0  0  0  0  0999 V2000
  -29.3000  -19.1860   20.1210 C   0  0  0  0  0  3  0  0  0  0  0  0
  -29.6700  -20.5640   20.4830 C   0  0  0  0  0  0  0  0  0  0  0  0
  -30.0870  -17.9810   20.4630 C   0  0  0  0  0  0  0  0  0  0  0  0
  -30.8910  -20.5650   21.2090 C   0  0  0  0  0  0  0  0  0  0  0  0
  -31.5340  -21.8440   21.7080 C   0  0  0  0  0  1  0  0  0  0  0  0
  -31.2150  -18.1870   21.1790 N   0  0  0  0  0  0  0  0  0  0  0  0
  -31.5960  -19.4320   21.5190 N   0  0  0  0  0  0  0  0  0  0  0  0
  -28.9790  -16.5050   18.7880 C   0  0  0  0  0  1  0  0  0  0  0  0
  -28.4930  -16.3080   21.3020 C   0  0  0  0  0  1  0  0  0  0  0  0
  -29.5860  -16.4290   20.2140 C   0  0  2  0  0  0  0  0  0  0  0  0
  -30.5140  -15.0140   20.2100 C   0  0  0  0  0  0  0  0  0  0  0  0
  -30.4750  -12.6420   19.2930 C   0  0  0  0  0  2  0  0  0  0  0  0
  -29.5090  -12.5720   18.0800 C   0  0  0  0  0  2  0  0  0  0  0  0
  -28.0370  -12.3790   18.5160 C   0  0  0  0  0  2  0  0  0  0  0  0
  -27.6470  -13.2620   19.7310 C   0  0  0  0  0  3  0  0  0  0  0  0
  -28.7410  -13.2040   20.8220 C   0  0  0  0  0  2  0  0  0  0  0  0
  -29.9890  -13.7090   20.2180 N   0  0  0  0  0  0  0  0  0  0  0  0
  -31.7190  -15.0930   19.9370 O   0  0  0  0  0  0  0  0  0  0  0  0
  -25.2650  -13.8610   20.4650 C   0  0  0  0  0  0  0  0  0  0  0  0
  -24.2020  -13.0910   20.8460 C   0  0  0  0  0  0  0  0  0  0  0  0
  -24.6620  -11.7400   20.8040 C   0  0  0  0  0  0  0  0  0  0  0  0
  -26.3080  -12.9770   20.2300 N   0  0  0  0  0  0  0  0  0  0  0  0
  -25.9500  -11.6950   20.4880 N   0  0  0  0  0  0  0  0  0  0  0  0
  -23.9320  -10.4810   20.9900 C   0  0  0  0  0  0  0  0  0  0  0  0
  -24.3550   -9.5170   21.9310 C   0  0  0  0  0  3  0  0  0  0  0  0
  -23.6240   -8.3220   22.1060 C   0  0  0  0  0  3  0  0  0  0  0  0
  -22.4610   -8.0830   21.3380 C   0  0  0  0  0  0  0  0  0  0  0  0
  -22.0590   -9.0360   20.3850 C   0  0  0  0  0  3  0  0  0  0  0  0
  -22.7890  -10.2220   20.2080 C   0  0  0  0  0  3  0  0  0  0  0  0
  -21.7050   -6.9380   21.4230 O   0  0  0  0  0  0  0  0  0  0  0  0
  -21.6150   -6.2210   22.5880 C   0  0  0  0  0  0  0  0  0  0  0  0
  -21.1210   -6.7960   23.7800 C   0  0  0  0  0  3  0  0  0  0  0  0
  -20.9800   -6.0040   24.9370 C   0  0  0  0  0  3  0  0  0  0  0  0
  -21.3240   -4.6390   24.9040 C   0  0  0  0  0  0  0  0  0  0  0  0
  -21.8110   -4.0640   23.7170 C   0  0  0  0  0  3  0  0  0  0  0  0
  -21.9550   -4.8530   22.5620 C   0  0  0  0  0  0  0  0  0  0  0  0
  -22.4070   -4.2900   21.4150 F   0  0  0  0  0  0  0  0  0  0  0  0
  -21.1810   -3.8760   26.0130 F   0  0  0  0  0  0  0  0  0  0  0  0
  -22.8100  -13.5760   21.1320 C   0  0  0  0  0  0  0  0  0  0  0  0
  -22.0920  -12.8860   22.0130 N   0  0  0  0  0  0  0  0  0  0  0  0
  -22.3690  -14.5990   20.6120 O   0  0  0  0  0  0  0  0  0  0  0  0
  -22.4620  -12.0580   22.4550 H   0  0  0  0  0  0  0  0  0  0  0  0
  -21.1580  -13.1920   22.2500 H   0  0  0  0  0  0  0  0  0  0  0  0
  -25.4120  -15.2320   20.2750 N   0  0  0  0  0  0  0  0  0  0  0  0
  -24.6320  -15.8700   20.3840 H   0  0  0  0  0  0  0  0  0  0  0  0
  -26.2330  -15.6730   19.8850 H   0  0  0  0  0  0  0  0  0  0  0  0
  -28.7980  -21.9120   20.1020 C   0  0  0  0  0  2  0  0  0  0  0  0
  -29.0610  -23.5120   20.5370 C   0  0  0  0  0  3  0  0  0  0  0  0
  -28.0690  -24.7790   20.0920 C   0  0  0  0  0  3  0  0  0  0  0  0
  -28.2780  -26.2770   20.3980 O   0  0  0  0  0  0  0  0  0  0  0  0
  -24.6220  -31.9430   23.2830 C   0  0  0  0  0  0  0  0  0  0  0  0
  -27.2070  -27.2290   20.3010 C   0  0  0  0  0  0  0  0  0  0  0  0
  -23.4250  -30.5440   21.6440 C   0  0  0  0  0  3  0  0  0  0  0  0
  -24.8730  -28.9530   20.2410 C   0  0  0  0  0  0  0  0  0  0  0  0
  -25.9780  -30.8020   21.4940 C   0  0  0  0  0  2  0  0  0  0  0  0
  -26.0480  -29.4080   20.8530 C   0  0  0  0  0  0  0  0  0  0  0  0
  -27.2140  -28.5610   20.8680 C   0  0  0  0  0  3  0  0  0  0  0  0
  -26.0060  -26.8640   19.6500 C   0  0  0  0  0  3  0  0  0  0  0  0
  -24.8630  -27.6920   19.6260 C   0  0  0  0  0  3  0  0  0  0  0  0
  -23.6500  -29.8550   20.2710 C   0  0  0  0  0  2  0  0  0  0  0  0
  -24.6940  -31.1180   22.1950 N   0  0  0  0  0  0  0  0  0  0  0  0
  -23.5350  -32.2370   23.8020 O   0  0  0  0  0  0  0  0  0  0  0  0
  -22.7330  -29.5480   22.6070 C   0  0  0  0  0  0  0  0  0  0  0  0
  -21.4050  -29.3870   22.4700 N   0  0  0  0  0  0  0  0  0  0  0  0
  -23.3920  -28.9220   23.4400 O   0  0  0  0  0  0  0  0  0  0  0  0
  -20.9300  -29.9440   21.7730 H   0  0  0  0  0  0  0  0  0  0  0  0
  -18.0070  -28.2350   22.9620 C   0  0  0  0  0  0  0  0  0  0  0  0
  -20.5680  -28.4640   23.2400 C   0  0  0  0  0  3  0  0  0  0  0  0
  -20.6520  -27.0280   22.6700 C   0  0  0  0  0  2  0  0  0  0  0  0
  -19.5500  -26.7170   21.6530 C   0  0  0  0  0  2  0  0  0  0  0  0
  -18.1680  -26.8820   22.2910 C   0  0  0  0  0  2  0  0  0  0  0  0
  -19.1330  -28.9840   23.3950 C   0  0  0  0  0  0  0  0  0  0  0  0
  -18.9280  -30.2490   23.9850 C   0  0  0  0  0  3  0  0  0  0  0  0
  -17.6300  -30.7670   24.1470 C   0  0  0  0  0  3  0  0  0  0  0  0
  -16.5170  -30.0160   23.7300 C   0  0  0  0  0  3  0  0  0  0  0  0
  -16.7060  -28.7520   23.1440 C   0  0  0  0  0  3  0  0  0  0  0  0
  -25.9020  -32.5700   23.9160 C   0  0  0  0  0  3  0  0  0  0  0  0
  -26.3910  -31.8100   25.2100 C   0  0  1  0  0  0  0  0  0  0  0  0
  -25.2780  -31.5980   26.2650 C   0  0  0  0  0  1  0  0  0  0  0  0
  -26.9650  -30.4210   24.8480 C   0  0  0  0  0  1  0  0  0  0  0  0
  -27.5390  -32.6020   25.8790 C   0  0  0  0  0  1  0  0  0  0  0  0
  -25.6030  -33.9760   24.2290 N   0  0  0  0  0  0  0  0  0  0  0  0
  -25.9250  -35.0180   23.4510 C   0  0  0  0  0  0  0  0  0  0  0  0
  -26.5740  -34.8960   22.4080 O   0  0  0  0  0  0  0  0  0  0  0  0
  -25.0230  -34.1440   25.0390 H   0  0  0  0  0  0  0  0  0  0  0  0
  -24.1820  -36.8050   23.1280 C   0  0  0  0  0  1  0  0  0  0  0  0
  -25.4540  -36.4170   23.8990 C   0  0  0  0  0  3  0  0  0  0  0  0
  -27.6160  -37.3230   24.6330 C   0  0  0  0  0  1  0  0  0  0  0  0
  -26.4810  -37.4670   23.7250 N   0  0  0  0  0  0  0  0  0  0  0  0
  -26.0790  -38.3910   23.8630 H   0  0  0  0  0  0  0  0  0  0  0  0
  1  3  2  0
  1  2  1  0
  2  4  2  0
  3  6  1  0
  4  7  1  0
  4  5  1  0
  6  7  2  0
 10  8  1  6
 10  3  1  0
 10  9  1  0
 11 10  1  0
 11 17  1  0
 12 17  1  0
 13 14  1  0
 13 12  1  0
 15 14  1  0
 15 22  1  0
 15 16  1  0
 17 16  1  0
 18 11  2  0
 19 20  2  0
 20 39  1  0
 21 20  1  0
 21 24  1  0
 22 19  1  0
 22 23  1  0
 23 21  2  0
 24 25  1  0
 25 26  2  0
 27 30  1  0
 27 26  1  0
 28 27  2  0
 29 28  1  0
 29 24  2  0
 30 31  1  0
 31 32  1  0
 32 33  2  0
 34 33  1  0
 34 38  1  0
 35 34  2  0
 36 31  2  0
 36 35  1  0
 37 36  1  0
 39 40  1  0
 40 43  1  0
 40 42  1  0
 41 39  2  0
 44 45  1  0
 44 19  1  0
 46 44  1  0
 47  2  1  0
 47 48  1  0
 49 50  1  0
 49 48  2  0
 51 62  2  0
 52 50  1  0
 52 57  1  0
 53 61  1  0
 53 63  1  0
 54 60  1  0
 54 56  1  0
 55 61  1  0
 56 57  2  0
 56 55  1  0
 58 52  2  0
 59 58  1  0
 59 54  2  0
 60 53  1  0
 61 51  1  0
 63 65  2  0
 64 63  1  0
 66 64  1  0
 67 76  2  0
 67 72  1  0
 68 64  1  0
 68 72  1  0
 69 68  1  0
 70 71  1  0
 70 69  1  0
 71 67  1  0
 72 73  2  0
 73 74  1  0
 75 74  2  0
 76 75  1  0
 77 51  1  0
 77 82  1  0
 77 78  1  0
 78 81  1  1
 78 79  1  0
 80 78  1  0
 82 85  1  0
 83 87  1  0
 83 82  1  0
 84 83  2  0
 87 86  1  0
 89 90  1  0
 89 87  1  0
 89 88  1  0
M  ISO  4  10 100  11 100  49 101  50 101
M  END
>  <TORSDO>  (66) 
F 20

>  <SCORE>  (66) 
-13.343

>  <name>  (66) 
65

>  <ligand_id>  (66) 
65

>  <original_smiles>  (66) 
[H]c1c([H])c([H])c2c(c1[H])C([H])([H])C([H])([H])C([H])([H])C2([H])N([H])C(=O)C1([H])N(C(=O)C([H])(N([H])C(=O)C([H])(N([H])C([H])([H])[H])C([H])([H])[H])C(C([H])([H])[H])(C([H])([H])[H])C([H])([H])[H])C([H])([H])c2c([H])c(OC([H])([H])C([H])([H])C([H])([H])c3c(C([H])([H])[H])nnc(C(C(=O)N4C([H])([H])C([H])([H])C([H])([H])C([H])(n5nc(-c6c([H])c([H])c(Oc7c([H])c([H])c(F)c([H])c7F)c([H])c6[H])c(C(=O)N([H])[H])c5N([H])[H])C4([H])[H])(C([H])([H])[H])C([H])([H])[H])c3[H])c([H])c([H])c2C1([H])[H]

>  <smiles>  (66) 
[H]c1c([H])c([H])c2c(c1[H])C([H])([H])C([H])([H])C([H])([H])C2([H])N([H])C(=O)C1([H])N(C(=O)C([H])(N([H])C(=O)C([H])(N([H])C([H])([H])[H])C([H])([H])[H])C(C([H])([H])[H])(C([H])([H])[H])C([H])([H])[H])C([H])([H])c2c([H])c(OC([H])([H])C([H])([H])C([H])([H])c3c(C([H])([H])[H])nnc(C(C(=O)N4C([H])([H])C([H])([H])C([H])([H])C([H])(n5nc(-c6c([H])c([H])c(Oc7c([H])c([H])c(F)c([H])c7F)c([H])c6[H])c(C(=O)N([H])[H])c5N([H])[H])C4([H])[H])(C([H])([H])[H])C([H])([H])[H])c3[H])c([H])c([H])c2C1([H])[H]

$$$$
66:0:0
     RDKit          3D

 97105  0  0  1  0  0  0  0  0999 V2000
  -30.8910  -22.1720   22.4180 C   0  0  0  0  0  3  0  0  0  0  0  0
  -30.8680  -21.3470   21.3260 C   0  0  0  0  0  0  0  0  0  0  0  0
  -29.9200  -23.3090   20.7680 C   0  0  0  0  0  0  0  0  0  0  0  0
  -30.2900  -22.0910   20.3070 N   0  0  0  0  0  0  0  0  0  0  0  0
  -30.3260  -23.3560   22.0420 N   0  0  0  0  0  0  0  0  0  0  0  0
  -30.2360  -24.1550   22.6550 H   0  0  0  0  0  0  0  0  0  0  0  0
  -31.3540  -19.9220   21.2160 C   0  0  0  0  0  2  0  0  0  0  0  0
  -30.2090  -18.9040   21.4140 C   0  0  0  0  0  2  0  0  0  0  0  0
  -29.2610  -16.7580   22.2390 C   0  0  0  0  0  1  0  0  0  0  0  0
  -31.4420  -17.5470   23.1840 C   0  0  0  0  0  1  0  0  0  0  0  0
  -30.5880  -17.4760   21.9000 C   0  0  2  0  0  0  0  0  0  0  0  0
  -31.3680  -16.6900   20.8100 C   0  0  0  0  0  2  0  0  0  0  0  0
  -31.6320  -14.3200   20.0730 C   0  0  0  0  0  0  0  0  0  0  0  0
  -31.1480  -12.2130   18.8840 C   0  0  0  0  0  2  0  0  0  0  0  0
  -30.1890  -12.4970   17.7110 C   0  0  0  0  0  2  0  0  0  0  0  0
  -28.7200  -12.4700   18.1830 C   0  0  0  0  0  2  0  0  0  0  0  0
  -28.4830  -13.3270   19.4540 C   0  0  0  0  0  3  0  0  0  0  0  0
  -29.5400  -12.9920   20.5310 C   0  0  0  0  0  2  0  0  0  0  0  0
  -30.8790  -13.1960   19.9440 N   0  0  0  0  0  0  0  0  0  0  0  0
  -32.6780  -14.5200   19.4510 O   0  0  0  0  0  0  0  0  0  0  0  0
  -31.0900  -15.2570   20.8610 N   0  0  0  0  0  0  0  0  0  0  0  0
  -30.2680  -14.9820   21.3720 H   0  0  0  0  0  0  0  0  0  0  0  0
  -26.1540  -14.1250   20.2180 C   0  0  0  0  0  0  0  0  0  0  0  0
  -25.0380  -13.4380   20.6180 C   0  0  0  0  0  0  0  0  0  0  0  0
  -25.3900  -12.0550   20.5740 C   0  0  0  0  0  0  0  0  0  0  0  0
  -27.1210  -13.1650   19.9620 N   0  0  0  0  0  0  0  0  0  0  0  0
  -26.6650  -11.9140   20.2300 N   0  0  0  0  0  0  0  0  0  0  0  0
  -24.5740  -10.8520   20.7870 C   0  0  0  0  0  0  0  0  0  0  0  0
  -24.9210   -9.8890   21.7600 C   0  0  0  0  0  3  0  0  0  0  0  0
  -24.1130   -8.7490   21.9580 C   0  0  0  0  0  3  0  0  0  0  0  0
  -22.9430   -8.5640   21.1840 C   0  0  0  0  0  0  0  0  0  0  0  0
  -22.6150   -9.5150   20.2010 C   0  0  0  0  0  3  0  0  0  0  0  0
  -23.4230  -10.6460   20.0000 C   0  0  0  0  0  3  0  0  0  0  0  0
  -22.1110   -7.4760   21.2890 O   0  0  0  0  0  0  0  0  0  0  0  0
  -21.9300   -6.8210   22.4810 C   0  0  0  0  0  0  0  0  0  0  0  0
  -21.4990   -7.4980   23.6440 C   0  0  0  0  0  3  0  0  0  0  0  0
  -21.2570   -6.7760   24.8290 C   0  0  0  0  0  3  0  0  0  0  0  0
  -21.4360   -5.3800   24.8530 C   0  0  0  0  0  0  0  0  0  0  0  0
  -21.8580   -4.7040   23.6950 C   0  0  0  0  0  3  0  0  0  0  0  0
  -22.1020   -5.4240   22.5120 C   0  0  0  0  0  0  0  0  0  0  0  0
  -22.4890   -4.7650   21.3920 F   0  0  0  0  0  0  0  0  0  0  0  0
  -21.1950   -4.6850   25.9900 F   0  0  0  0  0  0  0  0  0  0  0  0
  -23.6900  -14.0210   20.9330 C   0  0  0  0  0  0  0  0  0  0  0  0
  -22.9530  -13.4020   21.8500 N   0  0  0  0  0  0  0  0  0  0  0  0
  -23.3020  -15.0600   20.4010 O   0  0  0  0  0  0  0  0  0  0  0  0
  -23.2780  -12.5610   22.3040 H   0  0  0  0  0  0  0  0  0  0  0  0
  -22.0490  -13.7770   22.1020 H   0  0  0  0  0  0  0  0  0  0  0  0
  -26.4200  -15.4770   20.0310 N   0  0  0  0  0  0  0  0  0  0  0  0
  -25.7170  -16.1940   20.1630 H   0  0  0  0  0  0  0  0  0  0  0  0
  -27.2970  -15.8420   19.6820 H   0  0  0  0  0  0  0  0  0  0  0  0
  -29.2270  -24.4330   20.0140 C   0  0  0  0  0  3  0  0  0  0  0  0
  -27.8360  -25.5000   21.9130 C   0  0  0  0  0  1  0  0  0  0  0  0
  -28.9260  -25.7150   20.8390 C   0  0  0  0  0  3  0  0  0  0  0  0
  -28.7070  -26.8410   19.9690 O   0  0  0  0  0  0  0  0  0  0  0  0
  -24.7410  -31.7600   23.2860 C   0  0  0  0  0  0  0  0  0  0  0  0
  -27.5130  -27.5250   20.0370 C   0  0  0  0  0  0  0  0  0  0  0  0
  -23.5860  -30.4160   21.5610 C   0  0  0  0  0  3  0  0  0  0  0  0
  -25.0870  -28.9700   20.0860 C   0  0  0  0  0  0  0  0  0  0  0  0
  -26.1030  -30.8290   21.4160 C   0  0  0  0  0  2  0  0  0  0  0  0
  -26.2230  -29.4910   20.7200 C   0  0  0  0  0  0  0  0  0  0  0  0
  -27.4390  -28.7740   20.6940 C   0  0  0  0  0  3  0  0  0  0  0  0
  -26.3660  -27.0140   19.3990 C   0  0  0  0  0  3  0  0  0  0  0  0
  -25.1530  -27.7300   19.4240 C   0  0  0  0  0  3  0  0  0  0  0  0
  -23.8250  -29.8000   20.1550 C   0  0  0  0  0  2  0  0  0  0  0  0
  -24.8270  -31.0140   22.1480 N   0  0  0  0  0  0  0  0  0  0  0  0
  -23.6490  -31.9880   23.8220 O   0  0  0  0  0  0  0  0  0  0  0  0
  -22.9360  -29.3410   22.4630 C   0  0  0  0  0  0  0  0  0  0  0  0
  -21.6130  -29.1620   22.3180 N   0  0  0  0  0  0  0  0  0  0  0  0
  -23.6200  -28.6730   23.2430 O   0  0  0  0  0  0  0  0  0  0  0  0
  -21.1250  -29.7550   21.6620 H   0  0  0  0  0  0  0  0  0  0  0  0
  -18.2360  -27.9490   22.7430 C   0  0  0  0  0  0  0  0  0  0  0  0
  -20.7950  -28.1790   23.0280 C   0  0  0  0  0  3  0  0  0  0  0  0
  -20.8930  -26.7880   22.3600 C   0  0  0  0  0  2  0  0  0  0  0  0
  -19.7890  -26.5340   21.3300 C   0  0  0  0  0  2  0  0  0  0  0  0
  -18.4080  -26.6440   21.9830 C   0  0  0  0  0  2  0  0  0  0  0  0
  -19.3590  -28.6780   23.2190 C   0  0  0  0  0  0  0  0  0  0  0  0
  -19.1460  -29.9030   23.8870 C   0  0  0  0  0  3  0  0  0  0  0  0
  -17.8440  -30.3970   24.0880 C   0  0  0  0  0  3  0  0  0  0  0  0
  -16.7360  -29.6630   23.6330 C   0  0  0  0  0  3  0  0  0  0  0  0
  -16.9330  -28.4420   22.9650 C   0  0  0  0  0  3  0  0  0  0  0  0
  -26.0080  -32.3780   23.9570 C   0  0  0  0  0  3  0  0  0  0  0  0
  -25.6780  -33.7570   24.3400 N   0  0  0  0  0  0  0  0  0  0  0  0
  -26.0210  -34.8450   23.6370 C   0  0  0  0  0  0  0  0  0  0  0  0
  -26.7180  -34.7920   22.6210 O   0  0  0  0  0  0  0  0  0  0  0  0
  -25.0600  -33.8690   25.1300 H   0  0  0  0  0  0  0  0  0  0  0  0
  -24.2780  -36.6320   23.3170 C   0  0  0  0  0  1  0  0  0  0  0  0
  -25.5050  -36.2070   24.1410 C   0  0  0  0  0  3  0  0  0  0  0  0
  -27.6090  -37.0760   25.0600 C   0  0  0  0  0  1  0  0  0  0  0  0
  -26.5260  -37.2740   24.0990 N   0  0  0  0  0  0  0  0  0  0  0  0
  -26.1070  -38.1830   24.2760 H   0  0  0  0  0  0  0  0  0  0  0  0
  -26.5140  -31.5570   25.2060 C   0  0  1  0  0  0  0  0  0  0  0  0
  -25.4070  -31.2570   26.2430 C   0  0  0  0  0  1  0  0  0  0  0  0
  -27.1220  -30.2080   24.7590 C   0  0  0  0  0  1  0  0  0  0  0  0
  -27.6420  -32.3380   25.9230 C   0  0  0  0  0  1  0  0  0  0  0  0
  -30.0810  -21.6570   18.9100 C   0  0  0  0  0  2  0  0  0  0  0  0
  -31.1450  -21.2090   16.6350 C   0  0  0  0  0  1  0  0  0  0  0  0
  -31.3690  -21.7060   18.0680 C   0  0  0  0  0  2  0  0  0  0  0  0
  2  1  2  0
  3  5  1  0
  4  3  1  0
  4  2  1  0
  5  1  1  0
  5  6  1  0
  7  2  1  0
  7  8  1  0
  8 11  1  0
 11  9  1  1
 11 10  1  0
 12 21  1  0
 12 11  1  0
 13 21  1  0
 14 19  1  0
 15 16  1  0
 15 14  1  0
 17 16  1  0
 17 26  1  0
 17 18  1  0
 19 13  1  0
 19 18  1  0
 20 13  2  0
 21 22  1  0
 23 24  2  0
 24 43  1  0
 25 24  1  0
 25 28  1  0
 26 23  1  0
 26 27  1  0
 27 25  2  0
 28 29  1  0
 29 30  2  0
 31 34  1  0
 31 30  1  0
 32 31  2  0
 33 32  1  0
 33 28  2  0
 34 35  1  0
 35 40  2  0
 35 36  1  0
 36 37  2  0
 37 38  1  0
 38 42  1  0
 39 38  2  0
 40 39  1  0
 41 40  1  0
 43 44  1  0
 44 47  1  0
 44 46  1  0
 45 43  2  0
 48 49  1  0
 48 23  1  0
 50 48  1  0
 51  3  2  0
 51 53  1  0
 53 52  1  0
 54 56  1  0
 54 53  1  0
 55 66  2  0
 56 61  1  0
 57 65  1  0
 57 67  1  0
 58 64  1  0
 58 60  1  0
 59 65  1  0
 60 59  1  0
 61 60  2  0
 62 63  1  0
 62 56  2  0
 63 58  2  0
 64 57  1  0
 65 55  1  0
 67 69  2  0
 68 67  1  0
 70 68  1  0
 71 80  2  0
 71 76  1  0
 72 68  1  0
 72 76  1  0
 73 72  1  0
 74 75  1  0
 74 73  1  0
 75 71  1  0
 76 77  2  0
 77 78  1  0
 79 78  2  0
 80 79  1  0
 81 55  1  0
 81 82  1  0
 81 91  1  0
 82 85  1  0
 83 87  1  0
 83 82  1  0
 84 83  2  0
 87 86  1  0
 89 87  1  0
 89 90  1  0
 89 88  1  0
 91 94  1  1
 91 92  1  0
 93 91  1  0
 95  4  1  0
 96 97  1  0
 97 95  1  0
M  ISO  4  13 100  21 100  53 101  54 101
M  END
>  <TORSDO>  (67) 
F 24

>  <SCORE>  (67) 
-9.965

>  <name>  (67) 
66

>  <ligand_id>  (67) 
66

>  <original_smiles>  (67) 
[H]c1c([H])c([H])c2c(c1[H])C([H])([H])C([H])([H])C([H])([H])C2([H])N([H])C(=O)C1([H])N(C(=O)C([H])(N([H])C(=O)C([H])(N([H])C([H])([H])[H])C([H])([H])[H])C(C([H])([H])[H])(C([H])([H])[H])C([H])([H])[H])C([H])([H])c2c([H])c(OC([H])(C([H])([H])[H])C([H])([H])c3n(C([H])([H])C([H])([H])C([H])([H])[H])c(C([H])([H])C([H])([H])C(C([H])([H])[H])(C([H])([H])[H])C([H])([H])N([H])C(=O)N4C([H])([H])C([H])([H])C([H])([H])C([H])(n5nc(-c6c([H])c([H])c(Oc7c([H])c([H])c(F)c([H])c7F)c([H])c6[H])c(C(=O)N([H])[H])c5N([H])[H])C4([H])[H])c([H])[n+]3[H])c([H])c([H])c2C1([H])[H]

>  <smiles>  (67) 
[H]c1c([H])c([H])c2c(c1[H])C([H])([H])C([H])([H])C([H])([H])C2([H])N([H])C(=O)C1([H])N(C(=O)C([H])(N([H])C(=O)C([H])(N([H])C([H])([H])[H])C([H])([H])[H])C(C([H])([H])[H])(C([H])([H])[H])C([H])([H])[H])C([H])([H])c2c([H])c(OC([H])(C([H])([H])[H])C([H])([H])c3n(C([H])([H])C([H])([H])C([H])([H])[H])c(C([H])([H])C([H])([H])C(C([H])([H])[H])(C([H])([H])[H])C([H])([H])N([H])C(=O)N4C([H])([H])C([H])([H])C([H])([H])C([H])(n5nc(-c6c([H])c([H])c(Oc7c([H])c([H])c(F)c([H])c7F)c([H])c6[H])c(C(=O)N([H])[H])c5N([H])[H])C4([H])[H])c([H])[n+]3[H])c([H])c([H])c2C1([H])[H]

$$$$
67:0:0
     RDKit          3D

 92100  0  0  1  0  0  0  0  0999 V2000
  -27.7550  -18.5900   20.2140 C   0  0  0  0  0  3  0  0  0  0  0  0
  -26.9300  -19.6850   19.9630 C   0  0  0  0  0  3  0  0  0  0  0  0
  -29.1520  -18.7530   20.1870 C   0  0  0  0  0  0  0  0  0  0  0  0
  -28.7390  -21.0540   19.6620 C   0  0  0  0  0  0  0  0  0  0  0  0
  -27.4240  -20.8990   19.6920 N   0  0  0  0  0  0  0  0  0  0  0  0
  -29.6240  -20.0250   19.8750 N   0  0  0  0  0  0  0  0  0  0  0  0
  -29.3720  -16.7690   21.7680 C   0  0  0  0  0  1  0  0  0  0  0  0
  -31.3610  -18.0770   21.2850 C   0  0  0  0  0  1  0  0  0  0  0  0
  -30.0900  -17.5070   20.6100 C   0  0  2  0  0  0  0  0  0  0  0  0
  -29.2590  -16.2950   18.4830 C   0  0  0  0  0  1  0  0  0  0  0  0
  -31.5660  -17.0170   18.5850 C   0  0  0  0  0  1  0  0  0  0  0  0
  -30.4420  -16.3780   19.4720 C   0  0  1  0  0  0  0  0  0  0  0  0
  -31.0060  -14.8740   19.8700 C   0  0  0  0  0  0  0  0  0  0  0  0
  -30.7100  -12.5630   18.9920 C   0  0  0  0  0  2  0  0  0  0  0  0
  -29.7290  -12.5340   17.8000 C   0  0  0  0  0  2  0  0  0  0  0  0
  -28.2720  -12.3760   18.2860 C   0  0  0  0  0  2  0  0  0  0  0  0
  -27.9190  -13.3150   19.4670 C   0  0  0  0  0  3  0  0  0  0  0  0
  -29.0300  -13.3520   20.5370 C   0  0  0  0  0  2  0  0  0  0  0  0
  -30.2980  -13.6840   19.8710 N   0  0  0  0  0  0  0  0  0  0  0  0
  -32.2330  -14.7630   19.8250 O   0  0  0  0  0  0  0  0  0  0  0  0
  -25.5800  -13.9510   20.3030 C   0  0  0  0  0  0  0  0  0  0  0  0
  -24.5180  -13.1910   20.7060 C   0  0  0  0  0  0  0  0  0  0  0  0
  -24.9630  -11.8350   20.6600 C   0  0  0  0  0  0  0  0  0  0  0  0
  -26.6010  -13.0530   20.0270 N   0  0  0  0  0  0  0  0  0  0  0  0
  -26.2430  -11.7780   20.3120 N   0  0  0  0  0  0  0  0  0  0  0  0
  -24.2310  -10.5810   20.8630 C   0  0  0  0  0  0  0  0  0  0  0  0
  -24.6220   -9.6510   21.8510 C   0  0  0  0  0  3  0  0  0  0  0  0
  -23.8860   -8.4620   22.0430 C   0  0  0  0  0  3  0  0  0  0  0  0
  -22.7490   -8.1940   21.2440 C   0  0  0  0  0  0  0  0  0  0  0  0
  -22.3820   -9.1100   20.2430 C   0  0  0  0  0  3  0  0  0  0  0  0
  -23.1180  -10.2910   20.0490 C   0  0  0  0  0  3  0  0  0  0  0  0
  -21.9890   -7.0540   21.3470 O   0  0  0  0  0  0  0  0  0  0  0  0
  -21.8250   -6.4100   22.5450 C   0  0  0  0  0  0  0  0  0  0  0  0
  -21.2430   -7.0510   23.6610 C   0  0  0  0  0  3  0  0  0  0  0  0
  -21.0180   -6.3280   24.8500 C   0  0  0  0  0  3  0  0  0  0  0  0
  -21.3680   -4.9660   24.9240 C   0  0  0  0  0  0  0  0  0  0  0  0
  -21.9460   -4.3270   23.8140 C   0  0  0  0  0  3  0  0  0  0  0  0
  -22.1720   -5.0460   22.6280 C   0  0  0  0  0  0  0  0  0  0  0  0
  -22.7050   -4.4190   21.5520 F   0  0  0  0  0  0  0  0  0  0  0  0
  -21.1480   -4.2710   26.0650 F   0  0  0  0  0  0  0  0  0  0  0  0
  -23.1320  -13.6840   21.0090 C   0  0  0  0  0  0  0  0  0  0  0  0
  -22.4180  -13.0000   21.8950 N   0  0  0  0  0  0  0  0  0  0  0  0
  -22.6920  -14.7120   20.4950 O   0  0  0  0  0  0  0  0  0  0  0  0
  -22.7850  -12.1720   22.3430 H   0  0  0  0  0  0  0  0  0  0  0  0
  -21.4880  -13.3110   22.1330 H   0  0  0  0  0  0  0  0  0  0  0  0
  -25.7490  -15.3200   20.1160 N   0  0  0  0  0  0  0  0  0  0  0  0
  -24.9810  -15.9710   20.2350 H   0  0  0  0  0  0  0  0  0  0  0  0
  -26.5590  -15.7360   19.6780 H   0  0  0  0  0  0  0  0  0  0  0  0
  -29.1500  -22.4970   19.1770 C   0  0  0  0  0  2  0  0  0  0  0  0
  -28.6340  -23.7970   19.9780 C   0  0  0  0  0  3  0  0  0  0  0  0
  -28.6020  -25.2110   19.2150 C   0  0  0  0  0  3  0  0  0  0  0  0
  -28.4450  -26.5040   19.9360 O   0  0  0  0  0  0  0  0  0  0  0  0
  -24.6080  -31.7210   23.1450 C   0  0  0  0  0  0  0  0  0  0  0  0
  -27.2840  -27.3000   19.9090 C   0  0  0  0  0  0  0  0  0  0  0  0
  -23.4210  -30.3640   21.4560 C   0  0  0  0  0  3  0  0  0  0  0  0
  -24.8870  -28.8750   19.9800 C   0  0  0  0  0  0  0  0  0  0  0  0
  -25.9560  -30.7170   21.2840 C   0  0  0  0  0  2  0  0  0  0  0  0
  -26.0500  -29.3610   20.5900 C   0  0  0  0  0  0  0  0  0  0  0  0
  -27.2450  -28.5830   20.5480 C   0  0  0  0  0  3  0  0  0  0  0  0
  -26.0900  -26.8600   19.2960 C   0  0  0  0  0  3  0  0  0  0  0  0
  -24.9090  -27.6310   19.3270 C   0  0  0  0  0  3  0  0  0  0  0  0
  -23.6420  -29.7360   20.0550 C   0  0  0  0  0  2  0  0  0  0  0  0
  -24.6810  -30.9520   22.0180 N   0  0  0  0  0  0  0  0  0  0  0  0
  -23.5210  -31.9640   23.6900 O   0  0  0  0  0  0  0  0  0  0  0  0
  -22.7700  -29.3090   22.3840 C   0  0  0  0  0  0  0  0  0  0  0  0
  -21.4450  -29.1280   22.2600 N   0  0  0  0  0  0  0  0  0  0  0  0
  -23.4590  -28.6580   23.1750 O   0  0  0  0  0  0  0  0  0  0  0  0
  -20.9470  -29.7140   21.6030 H   0  0  0  0  0  0  0  0  0  0  0  0
  -18.0770  -27.8950   22.7440 C   0  0  0  0  0  0  0  0  0  0  0  0
  -20.6380  -28.1540   22.9970 C   0  0  0  0  0  3  0  0  0  0  0  0
  -20.7370  -26.7480   22.3610 C   0  0  0  0  0  2  0  0  0  0  0  0
  -19.6270  -26.4630   21.3460 C   0  0  0  0  0  2  0  0  0  0  0  0
  -18.2510  -26.5750   22.0110 C   0  0  0  0  0  2  0  0  0  0  0  0
  -19.1980  -28.6420   23.1940 C   0  0  0  0  0  0  0  0  0  0  0  0
  -18.9800  -29.8790   23.8400 C   0  0  0  0  0  3  0  0  0  0  0  0
  -17.6750  -30.3670   24.0410 C   0  0  0  0  0  3  0  0  0  0  0  0
  -16.5700  -29.6160   23.6070 C   0  0  0  0  0  3  0  0  0  0  0  0
  -16.7710  -28.3820   22.9640 C   0  0  0  0  0  3  0  0  0  0  0  0
  -25.8820  -32.3470   23.7900 C   0  0  0  0  0  3  0  0  0  0  0  0
  -25.5610  -33.7360   24.1520 N   0  0  0  0  0  0  0  0  0  0  0  0
  -25.8820  -34.8100   23.4170 C   0  0  0  0  0  0  0  0  0  0  0  0
  -26.5520  -34.7360   22.3840 O   0  0  0  0  0  0  0  0  0  0  0  0
  -24.9680  -33.8670   24.9590 H   0  0  0  0  0  0  0  0  0  0  0  0
  -24.1430  -36.6010   23.1050 C   0  0  0  0  0  1  0  0  0  0  0  0
  -25.3840  -36.1830   23.9100 C   0  0  0  0  0  3  0  0  0  0  0  0
  -27.5080  -37.0660   24.7720 C   0  0  0  0  0  1  0  0  0  0  0  0
  -26.4100  -37.2460   23.8260 N   0  0  0  0  0  0  0  0  0  0  0  0
  -25.9960  -38.1600   23.9880 H   0  0  0  0  0  0  0  0  0  0  0  0
  -26.3970  -31.5530   25.0540 C   0  0  1  0  0  0  0  0  0  0  0  0
  -25.3030  -31.2870   26.1150 C   0  0  0  0  0  1  0  0  0  0  0  0
  -26.9910  -30.1880   24.6360 C   0  0  0  0  0  1  0  0  0  0  0  0
  -27.5400  -32.3390   25.7390 C   0  0  0  0  0  1  0  0  0  0  0  0
  2  1  2  0
  3  1  1  0
  3  9  1  0
  4  5  2  0
  4  6  1  0
  5  2  1  0
  6  3  2  0
  9  8  1  1
  9  7  1  0
 12 10  1  6
 11 12  1  0
 12 13  1  0
 12  9  1  0
 13 19  1  0
 14 19  1  0
 15 16  1  0
 15 14  1  0
 17 16  1  0
 17 24  1  0
 17 18  1  0
 19 18  1  0
 20 13  2  0
 21 22  2  0
 22 41  1  0
 23 22  1  0
 23 26  1  0
 24 21  1  0
 24 25  1  0
 25 23  2  0
 26 27  1  0
 27 28  2  0
 29 32  1  0
 29 28  1  0
 30 29  2  0
 31 30  1  0
 31 26  2  0
 32 33  1  0
 33 38  2  0
 33 34  1  0
 34 35  2  0
 35 36  1  0
 36 40  1  0
 37 36  2  0
 38 37  1  0
 39 38  1  0
 41 42  1  0
 42 45  1  0
 42 44  1  0
 43 41  2  0
 46 47  1  0
 46 21  1  0
 48 46  1  0
 49  4  1  0
 49 50  1  0
 51 52  1  0
 51 50  2  0
 53 64  2  0
 54 52  1  0
 54 59  1  0
 55 63  1  0
 55 65  1  0
 56 62  1  0
 56 58  1  0
 57 63  1  0
 58 57  1  0
 59 58  2  0
 60 61  1  0
 60 54  2  0
 61 56  2  0
 62 55  1  0
 63 53  1  0
 65 67  2  0
 66 65  1  0
 68 66  1  0
 69 78  2  0
 69 74  1  0
 70 66  1  0
 70 74  1  0
 71 70  1  0
 72 73  1  0
 72 71  1  0
 73 69  1  0
 74 75  2  0
 75 76  1  0
 77 76  2  0
 78 77  1  0
 79 53  1  0
 79 80  1  0
 79 89  1  0
 80 83  1  0
 81 85  1  0
 81 80  1  0
 82 81  2  0
 85 84  1  0
 87 85  1  0
 87 88  1  0
 87 86  1  0
 89 92  1  1
 89 90  1  0
 91 89  1  0
M  ISO  4  12 100  13 100  51 101  52 101
M  END
>  <TORSDO>  (68) 
F 21

>  <SCORE>  (68) 
-11.972

>  <name>  (68) 
67

>  <ligand_id>  (68) 
67

>  <original_smiles>  (68) 
[H]c1nc(C([H])([H])C([H])([H])C([H])([H])Oc2c([H])c([H])c3c(c2[H])C([H])([H])N(C(=O)C([H])(N([H])C(=O)C([H])(N([H])C([H])([H])[H])C([H])([H])[H])C(C([H])([H])[H])(C([H])([H])[H])C([H])([H])[H])C([H])(C(=O)N([H])C2([H])c4c([H])c([H])c([H])c([H])c4C([H])([H])C([H])([H])C2([H])[H])C3([H])[H])nc(C(C([H])([H])[H])(C([H])([H])[H])C(C(=O)N2C([H])([H])C([H])([H])C([H])([H])C([H])(n3nc(-c4c([H])c([H])c(Oc5c([H])c([H])c(F)c([H])c5F)c([H])c4[H])c(C(=O)N([H])[H])c3N([H])[H])C2([H])[H])(C([H])([H])[H])C([H])([H])[H])c1[H]

>  <smiles>  (68) 
[H]c1nc(C([H])([H])C([H])([H])C([H])([H])Oc2c([H])c([H])c3c(c2[H])C([H])([H])N(C(=O)C([H])(N([H])C(=O)C([H])(N([H])C([H])([H])[H])C([H])([H])[H])C(C([H])([H])[H])(C([H])([H])[H])C([H])([H])[H])C([H])(C(=O)N([H])C2([H])c4c([H])c([H])c([H])c([H])c4C([H])([H])C([H])([H])C2([H])[H])C3([H])[H])nc(C(C([H])([H])[H])(C([H])([H])[H])C(C(=O)N2C([H])([H])C([H])([H])C([H])([H])C([H])(n3nc(-c4c([H])c([H])c(Oc5c([H])c([H])c(F)c([H])c5F)c([H])c4[H])c(C(=O)N([H])[H])c3N([H])[H])C2([H])[H])(C([H])([H])[H])C([H])([H])[H])c1[H]

$$$$
68:0:0
     RDKit          3D

 98106  0  0  1  0  0  0  0  0999 V2000
  -27.8050  -19.5750   19.7410 C   0  0  0  0  0  2  0  0  0  0  0  0
  -26.2500  -20.6770   18.1040 C   0  0  0  0  0  1  0  0  0  0  0  0
  -26.4220  -21.5290   20.4610 C   0  0  0  0  0  1  0  0  0  0  0  0
  -27.2130  -20.9340   19.2820 C   0  0  1  0  0  0  0  0  0  0  0  0
  -28.3660  -21.9070   18.9150 C   0  0  0  0  0  2  0  0  0  0  0  0
  -27.9750  -23.3030   18.3660 C   0  0  0  0  0  2  0  0  0  0  0  0
  -28.0560  -24.4510   19.3990 C   0  0  0  0  0  2  0  0  0  0  0  0
  -28.6450  -25.7340   18.7650 C   0  0  0  0  0  2  0  0  0  0  0  0
  -28.5390  -26.8980   19.5800 O   0  0  0  0  0  0  0  0  0  0  0  0
  -24.6680  -31.6910   23.0890 C   0  0  0  0  0  0  0  0  0  0  0  0
  -27.3290  -27.5600   19.6470 C   0  0  0  0  0  0  0  0  0  0  0  0
  -23.4440  -30.3820   21.3800 C   0  0  0  0  0  3  0  0  0  0  0  0
  -24.8920  -28.9890   19.8180 C   0  0  0  0  0  0  0  0  0  0  0  0
  -25.9500  -30.8210   21.1450 C   0  0  0  0  0  2  0  0  0  0  0  0
  -26.0490  -29.4970   20.4230 C   0  0  0  0  0  0  0  0  0  0  0  0
  -27.2620  -28.7770   20.3600 C   0  0  0  0  0  3  0  0  0  0  0  0
  -26.1550  -27.0840   19.0230 C   0  0  0  0  0  3  0  0  0  0  0  0
  -24.9350  -27.7750   19.1220 C   0  0  0  0  0  3  0  0  0  0  0  0
  -23.6280  -29.8080   19.9540 C   0  0  0  0  0  2  0  0  0  0  0  0
  -24.7040  -30.9750   21.9310 N   0  0  0  0  0  0  0  0  0  0  0  0
  -23.5980  -31.9010   23.6830 O   0  0  0  0  0  0  0  0  0  0  0  0
  -22.8460  -29.2770   22.2800 C   0  0  0  0  0  0  0  0  0  0  0  0
  -21.5320  -29.0340   22.1460 N   0  0  0  0  0  0  0  0  0  0  0  0
  -23.5630  -28.6350   23.0490 O   0  0  0  0  0  0  0  0  0  0  0  0
  -21.0090  -29.5980   21.4840 H   0  0  0  0  0  0  0  0  0  0  0  0
  -18.2300  -27.6500   22.5800 C   0  0  0  0  0  0  0  0  0  0  0  0
  -20.7700  -28.0230   22.8720 C   0  0  0  0  0  3  0  0  0  0  0  0
  -20.9500  -26.6220   22.2390 C   0  0  0  0  0  2  0  0  0  0  0  0
  -19.8620  -26.2760   21.2240 C   0  0  0  0  0  2  0  0  0  0  0  0
  -18.4770  -26.3280   21.8740 C   0  0  0  0  0  2  0  0  0  0  0  0
  -19.3060  -28.4480   23.0440 C   0  0  0  0  0  0  0  0  0  0  0  0
  -19.0210  -29.6730   23.6850 C   0  0  0  0  0  3  0  0  0  0  0  0
  -17.6900  -30.0960   23.8740 C   0  0  0  0  0  3  0  0  0  0  0  0
  -16.6310  -29.2990   23.4120 C   0  0  0  0  0  3  0  0  0  0  0  0
  -16.9000  -28.0800   22.7670 C   0  0  0  0  0  3  0  0  0  0  0  0
  -25.9600  -32.3120   23.7110 C   0  0  0  0  0  3  0  0  0  0  0  0
  -25.6390  -33.6790   24.1380 N   0  0  0  0  0  0  0  0  0  0  0  0
  -25.9070  -34.7810   23.4250 C   0  0  0  0  0  0  0  0  0  0  0  0
  -26.5400  -34.7580   22.3640 O   0  0  0  0  0  0  0  0  0  0  0  0
  -25.0950  -33.7680   24.9860 H   0  0  0  0  0  0  0  0  0  0  0  0
  -24.1290  -36.5370   23.2100 C   0  0  0  0  0  1  0  0  0  0  0  0
  -25.3940  -36.1210   23.9760 C   0  0  0  0  0  3  0  0  0  0  0  0
  -27.5200  -37.0090   24.8160 C   0  0  0  0  0  1  0  0  0  0  0  0
  -26.3950  -37.2070   23.9060 N   0  0  0  0  0  0  0  0  0  0  0  0
  -25.9630  -38.1060   24.1090 H   0  0  0  0  0  0  0  0  0  0  0  0
  -26.5290  -31.4750   24.9210 C   0  0  1  0  0  0  0  0  0  0  0  0
  -25.4680  -31.1390   25.9940 C   0  0  0  0  0  1  0  0  0  0  0  0
  -27.1450  -30.1460   24.4200 C   0  0  0  0  0  1  0  0  0  0  0  0
  -27.6720  -32.2530   25.6100 C   0  0  0  0  0  1  0  0  0  0  0  0
  -28.4580  -18.6730   18.6580 C   0  0  0  0  0  2  0  0  0  0  0  0
  -29.7700  -16.7390   19.5810 C   0  0  0  0  0  2  0  0  0  0  0  0
  -30.7280  -16.3530   20.4610 C   0  0  0  0  0  0  0  0  0  0  0  0
  -31.4980  -17.4270   21.0820 C   0  0  0  0  0  0  0  0  0  0  0  0
  -30.8020  -18.8610   19.3700 C   0  0  0  0  0  3  0  0  0  0  0  0
  -31.7220  -17.6220   22.4060 C   0  0  0  0  0  3  0  0  0  0  0  0
  -30.9830  -20.1950   18.7090 C   0  0  0  0  0  1  0  0  0  0  0  0
  -31.2680  -16.6520   23.4780 C   0  0  0  0  0  1  0  0  0  0  0  0
  -29.6940  -18.0880   19.2060 N   0  0  0  0  0  0  0  0  0  0  0  0
  -31.7620  -18.4870   20.2350 N   0  0  0  0  0  0  0  0  0  0  0  0
  -32.5330  -19.1300   20.3410 H   0  0  0  0  0  0  0  0  0  0  0  0
  -31.3980  -15.0880   20.1470 C   0  0  0  0  0  0  0  0  0  0  0  0
  -31.0380  -12.8760   19.1290 C   0  0  0  0  0  2  0  0  0  0  0  0
  -30.1240  -12.9890   17.8920 C   0  0  0  0  0  2  0  0  0  0  0  0
  -28.6430  -12.8840   18.3010 C   0  0  0  0  0  2  0  0  0  0  0  0
  -28.2810  -13.8210   19.4840 C   0  0  0  0  0  3  0  0  0  0  0  0
  -29.3200  -13.7180   20.6240 C   0  0  0  0  0  2  0  0  0  0  0  0
  -30.6570  -13.9500   20.0650 N   0  0  0  0  0  0  0  0  0  0  0  0
  -32.5660  -15.1250   19.7470 O   0  0  0  0  0  0  0  0  0  0  0  0
  -25.8930  -14.4840   20.1620 C   0  0  0  0  0  0  0  0  0  0  0  0
  -24.8110  -13.7400   20.5420 C   0  0  0  0  0  0  0  0  0  0  0  0
  -25.2520  -12.3800   20.5510 C   0  0  0  0  0  0  0  0  0  0  0  0
  -26.9250  -13.5800   19.9680 N   0  0  0  0  0  0  0  0  0  0  0  0
  -26.5430  -12.3110   20.2560 N   0  0  0  0  0  0  0  0  0  0  0  0
  -24.5050  -11.1380   20.7640 C   0  0  0  0  0  0  0  0  0  0  0  0
  -24.8710  -10.2220   21.7740 C   0  0  0  0  0  3  0  0  0  0  0  0
  -24.1290   -9.0390   21.9770 C   0  0  0  0  0  3  0  0  0  0  0  0
  -23.0020   -8.7670   21.1700 C   0  0  0  0  0  0  0  0  0  0  0  0
  -22.6510   -9.6690   20.1510 C   0  0  0  0  0  3  0  0  0  0  0  0
  -23.3950  -10.8430   19.9480 C   0  0  0  0  0  3  0  0  0  0  0  0
  -22.2350   -7.6310   21.2730 O   0  0  0  0  0  0  0  0  0  0  0  0
  -22.0520   -6.9940   22.4710 C   0  0  0  0  0  0  0  0  0  0  0  0
  -21.5240   -7.6580   23.5980 C   0  0  0  0  0  3  0  0  0  0  0  0
  -21.2950   -6.9460   24.7920 C   0  0  0  0  0  3  0  0  0  0  0  0
  -21.5810   -5.5690   24.8550 C   0  0  0  0  0  0  0  0  0  0  0  0
  -22.1020   -4.9040   23.7310 C   0  0  0  0  0  3  0  0  0  0  0  0
  -22.3340   -5.6160   22.5420 C   0  0  0  0  0  0  0  0  0  0  0  0
  -22.8180   -4.9630   21.4560 F   0  0  0  0  0  0  0  0  0  0  0  0
  -21.3510   -4.8840   26.0000 F   0  0  0  0  0  0  0  0  0  0  0  0
  -23.4190  -14.2470   20.7830 C   0  0  0  0  0  0  0  0  0  0  0  0
  -22.6920  -13.6160   21.6990 N   0  0  0  0  0  0  0  0  0  0  0  0
  -22.9910  -15.2410   20.1980 O   0  0  0  0  0  0  0  0  0  0  0  0
  -23.0620  -12.8210   22.1950 H   0  0  0  0  0  0  0  0  0  0  0  0
  -21.7560  -13.9270   21.9080 H   0  0  0  0  0  0  0  0  0  0  0  0
  -26.0810  -15.8450   19.9470 N   0  0  0  0  0  0  0  0  0  0  0  0
  -25.3090  -16.5000   20.0250 H   0  0  0  0  0  0  0  0  0  0  0  0
  -26.9380  -16.2780   19.6310 H   0  0  0  0  0  0  0  0  0  0  0  0
  -31.1720  -20.0110   23.0730 C   0  0  0  0  0  1  0  0  0  0  0  0
  -32.2790  -18.9370   22.9570 C   0  0  0  0  0  2  0  0  0  0  0  0
  4  2  1  6
  4  1  1  0
  4  3  1  0
  5  4  1  0
  6  5  1  0
  6  7  1  0
  8  7  1  0
  8  9  1  0
  9 11  1  0
 10 21  2  0
 11 16  1  0
 12 20  1  0
 12 22  1  0
 13 19  1  0
 13 15  1  0
 14 20  1  0
 15 14  1  0
 16 15  2  0
 17 18  1  0
 17 11  2  0
 18 13  2  0
 19 12  1  0
 20 10  1  0
 22 24  2  0
 23 22  1  0
 25 23  1  0
 26 35  2  0
 26 31  1  0
 27 23  1  0
 27 31  1  0
 28 27  1  0
 29 30  1  0
 29 28  1  0
 30 26  1  0
 31 32  2  0
 32 33  1  0
 34 33  2  0
 35 34  1  0
 36 10  1  0
 36 37  1  0
 36 46  1  0
 37 40  1  0
 38 42  1  0
 38 37  1  0
 39 38  2  0
 42 41  1  0
 44 42  1  0
 44 45  1  0
 44 43  1  0
 46 49  1  1
 46 47  1  0
 48 46  1  0
 50 58  1  0
 50  1  1  0
 51 52  1  0
 52 53  2  0
 53 55  1  0
 54 56  1  0
 54 59  1  0
 55 98  1  0
 55 57  1  0
 58 54  1  0
 58 51  1  0
 59 60  1  0
 59 53  1  0
 61 52  1  0
 62 67  1  0
 63 64  1  0
 63 62  1  0
 65 64  1  0
 65 72  1  0
 65 66  1  0
 67 61  1  0
 67 66  1  0
 68 61  2  0
 69 70  2  0
 70 71  1  0
 70 89  1  0
 71 74  1  0
 72 69  1  0
 72 73  1  0
 73 71  2  0
 74 75  1  0
 75 76  2  0
 77 80  1  0
 77 76  1  0
 78 77  2  0
 79 78  1  0
 79 74  2  0
 80 81  1  0
 81 86  2  0
 81 82  1  0
 82 83  2  0
 83 84  1  0
 84 88  1  0
 85 84  2  0
 86 85  1  0
 87 86  1  0
 89 90  1  0
 90 93  1  0
 90 92  1  0
 91 89  2  0
 94 95  1  0
 94 69  1  0
 96 94  1  0
 98 97  1  0
M  ISO  4   8 101   9 101  52 100  61 100
M  END
>  <TORSDO>  (69) 
F 24

>  <SCORE>  (69) 
-8.061

>  <name>  (69) 
68

>  <ligand_id>  (69) 
68

>  <original_smiles>  (69) 
[H]C1=C(C(=O)N2C([H])([H])C([H])([H])C([H])([H])C([H])(n3nc(-c4c([H])c([H])c(Oc5c([H])c([H])c(F)c([H])c5F)c([H])c4[H])c(C(=O)N([H])[H])c3N([H])[H])C2([H])[H])C(=C(C([H])([H])[H])C([H])([H])C([H])([H])[H])[N+]([H])=C(C([H])([H])[H])N1C([H])([H])C([H])([H])C(C([H])([H])[H])(C([H])([H])[H])C([H])([H])C([H])([H])C([H])([H])C([H])([H])Oc1c([H])c([H])c2c(c1[H])C([H])([H])N(C(=O)C([H])(N([H])C(=O)C([H])(N([H])C([H])([H])[H])C([H])([H])[H])C(C([H])([H])[H])(C([H])([H])[H])C([H])([H])[H])C([H])(C(=O)N([H])C1([H])c3c([H])c([H])c([H])c([H])c3C([H])([H])C([H])([H])C1([H])[H])C2([H])[H]

>  <smiles>  (69) 
[H]C1=C(C(=O)N2C([H])([H])C([H])([H])C([H])([H])C([H])(n3nc(-c4c([H])c([H])c(Oc5c([H])c([H])c(F)c([H])c5F)c([H])c4[H])c(C(=O)N([H])[H])c3N([H])[H])C2([H])[H])C(=C(C([H])([H])[H])C([H])([H])C([H])([H])[H])[N+]([H])=C(C([H])([H])[H])N1C([H])([H])C([H])([H])C(C([H])([H])[H])(C([H])([H])[H])C([H])([H])C([H])([H])C([H])([H])C([H])([H])Oc1c([H])c([H])c2c(c1[H])C([H])([H])N(C(=O)C([H])(N([H])C(=O)C([H])(N([H])C([H])([H])[H])C([H])([H])[H])C(C([H])([H])[H])(C([H])([H])[H])C([H])([H])[H])C([H])(C(=O)N([H])C1([H])c3c([H])c([H])c([H])c([H])c3C([H])([H])C([H])([H])C1([H])[H])C2([H])[H]

$$$$
69:0:0
     RDKit          3D

 93101  0  0  1  0  0  0  0  0999 V2000
  -30.0220  -21.3960   19.6920 C   0  0  0  0  0  3  0  0  0  0  0  0
  -29.6480  -20.1640   20.2580 C   0  0  0  0  0  0  0  0  0  0  0  0
  -28.2730  -21.8600   20.9290 C   0  0  0  0  0  3  0  0  0  0  0  0
  -27.1990  -22.5110   21.7430 C   0  0  0  0  0  1  0  0  0  0  0  0
  -29.1790  -22.4490   20.1170 N   0  0  0  0  0  0  0  0  0  0  0  0
  -28.5370  -20.5310   20.9830 N   0  0  0  0  0  0  0  0  0  0  0  0
  -28.0120  -19.8890   21.5680 H   0  0  0  0  0  0  0  0  0  0  0  0
  -30.9600  -18.5880   21.7410 C   0  0  0  0  0  1  0  0  0  0  0  0
  -31.4630  -18.7080   19.2910 C   0  0  0  0  0  1  0  0  0  0  0  0
  -30.3360  -18.7180   20.3420 C   0  0  2  0  0  0  0  0  0  0  0  0
  -29.4590  -17.3860   20.0560 C   0  0  0  0  0  2  0  0  0  0  0  0
  -30.5840  -14.9150   20.2760 C   0  0  0  0  0  0  0  0  0  0  0  0
  -30.4450  -12.6120   19.3140 C   0  0  0  0  0  2  0  0  0  0  0  0
  -29.5110  -12.6880   18.0850 C   0  0  0  0  0  2  0  0  0  0  0  0
  -28.0300  -12.5430   18.4890 C   0  0  0  0  0  2  0  0  0  0  0  0
  -27.6590  -13.4020   19.7260 C   0  0  0  0  0  3  0  0  0  0  0  0
  -28.7150  -13.2890   20.8490 C   0  0  0  0  0  2  0  0  0  0  0  0
  -30.0180  -13.6570   20.2750 N   0  0  0  0  0  0  0  0  0  0  0  0
  -31.7220  -15.0840   19.8330 O   0  0  0  0  0  0  0  0  0  0  0  0
  -29.7540  -15.9740   20.6090 N   0  0  0  0  0  0  0  0  0  0  0  0
  -28.9570  -15.6290   21.1220 H   0  0  0  0  0  0  0  0  0  0  0  0
  -25.2670  -13.9970   20.4390 C   0  0  0  0  0  0  0  0  0  0  0  0
  -24.1990  -13.2260   20.8090 C   0  0  0  0  0  0  0  0  0  0  0  0
  -24.6600  -11.8740   20.7800 C   0  0  0  0  0  0  0  0  0  0  0  0
  -26.3110  -13.1160   20.2070 N   0  0  0  0  0  0  0  0  0  0  0  0
  -25.9510  -11.8330   20.4750 N   0  0  0  0  0  0  0  0  0  0  0  0
  -23.9310  -10.6150   20.9740 C   0  0  0  0  0  0  0  0  0  0  0  0
  -24.3440   -9.6630   21.9310 C   0  0  0  0  0  3  0  0  0  0  0  0
  -23.6180   -8.4660   22.1120 C   0  0  0  0  0  3  0  0  0  0  0  0
  -22.4630   -8.2110   21.3350 C   0  0  0  0  0  0  0  0  0  0  0  0
  -22.0660   -9.1540   20.3690 C   0  0  0  0  0  3  0  0  0  0  0  0
  -22.7930  -10.3420   20.1870 C   0  0  0  0  0  3  0  0  0  0  0  0
  -21.7090   -7.0670   21.4240 O   0  0  0  0  0  0  0  0  0  0  0  0
  -21.6220   -6.3500   22.5900 C   0  0  0  0  0  0  0  0  0  0  0  0
  -21.1160   -6.9190   23.7790 C   0  0  0  0  0  3  0  0  0  0  0  0
  -20.9800   -6.1260   24.9370 C   0  0  0  0  0  3  0  0  0  0  0  0
  -21.3380   -4.7660   24.9050 C   0  0  0  0  0  0  0  0  0  0  0  0
  -21.8350   -4.1940   23.7200 C   0  0  0  0  0  3  0  0  0  0  0  0
  -21.9740   -4.9850   22.5650 C   0  0  0  0  0  0  0  0  0  0  0  0
  -22.4340   -4.4270   21.4190 F   0  0  0  0  0  0  0  0  0  0  0  0
  -21.2000   -4.0010   26.0130 F   0  0  0  0  0  0  0  0  0  0  0  0
  -22.8010  -13.7060   21.0760 C   0  0  0  0  0  0  0  0  0  0  0  0
  -22.0720  -13.0150   21.9450 N   0  0  0  0  0  0  0  0  0  0  0  0
  -22.3660  -14.7280   20.5490 O   0  0  0  0  0  0  0  0  0  0  0  0
  -22.4380  -12.1920   22.3970 H   0  0  0  0  0  0  0  0  0  0  0  0
  -21.1320  -13.3160   22.1580 H   0  0  0  0  0  0  0  0  0  0  0  0
  -25.4360  -15.3670   20.2580 N   0  0  0  0  0  0  0  0  0  0  0  0
  -24.6730  -16.0250   20.3590 H   0  0  0  0  0  0  0  0  0  0  0  0
  -26.2820  -15.7950   19.9030 H   0  0  0  0  0  0  0  0  0  0  0  0
  -30.4310  -24.3080   18.8760 C   0  0  0  0  0  1  0  0  0  0  0  0
  -29.3640  -24.0060   19.9420 C   0  0  0  0  0  3  0  0  0  0  0  0
  -28.1400  -25.0390   19.6540 C   0  0  0  0  0  2  0  0  0  0  0  0
  -28.3490  -26.5250   19.8320 O   0  0  0  0  0  0  0  0  0  0  0  0
  -24.6300  -31.8100   23.1760 C   0  0  0  0  0  0  0  0  0  0  0  0
  -27.2350  -27.4020   19.8470 C   0  0  0  0  0  0  0  0  0  0  0  0
  -23.4180  -30.4910   21.4780 C   0  0  0  0  0  3  0  0  0  0  0  0
  -24.8630  -29.0270   19.9580 C   0  0  0  0  0  0  0  0  0  0  0  0
  -25.9540  -30.8390   21.2740 C   0  0  0  0  0  2  0  0  0  0  0  0
  -26.0410  -29.4890   20.5570 C   0  0  0  0  0  0  0  0  0  0  0  0
  -27.2300  -28.6900   20.4880 C   0  0  0  0  0  3  0  0  0  0  0  0
  -26.0260  -27.0100   19.2300 C   0  0  0  0  0  3  0  0  0  0  0  0
  -24.8590  -27.7950   19.2900 C   0  0  0  0  0  3  0  0  0  0  0  0
  -23.6220  -29.8910   20.0640 C   0  0  0  0  0  2  0  0  0  0  0  0
  -24.6880  -31.0600   22.0350 N   0  0  0  0  0  0  0  0  0  0  0  0
  -23.5500  -32.0490   23.7360 O   0  0  0  0  0  0  0  0  0  0  0  0
  -22.7740  -29.4220   22.3910 C   0  0  0  0  0  0  0  0  0  0  0  0
  -21.4460  -29.2460   22.2760 N   0  0  0  0  0  0  0  0  0  0  0  0
  -23.4670  -28.7550   23.1630 O   0  0  0  0  0  0  0  0  0  0  0  0
  -20.9450  -29.8380   21.6280 H   0  0  0  0  0  0  0  0  0  0  0  0
  -18.0760  -28.0300   22.7850 C   0  0  0  0  0  0  0  0  0  0  0  0
  -20.6430  -28.2630   23.0050 C   0  0  0  0  0  3  0  0  0  0  0  0
  -20.7220  -26.8730   22.3340 C   0  0  0  0  0  2  0  0  0  0  0  0
  -19.5920  -26.6200   21.3300 C   0  0  0  0  0  2  0  0  0  0  0  0
  -18.2290  -26.7270   22.0190 C   0  0  0  0  0  2  0  0  0  0  0  0
  -19.2090  -28.7580   23.2360 C   0  0  0  0  0  0  0  0  0  0  0  0
  -19.0110  -29.9790   23.9170 C   0  0  0  0  0  3  0  0  0  0  0  0
  -17.7140  -30.4720   24.1490 C   0  0  0  0  0  3  0  0  0  0  0  0
  -16.5950  -29.7400   23.7130 C   0  0  0  0  0  3  0  0  0  0  0  0
  -16.7780  -28.5200   23.0380 C   0  0  0  0  0  3  0  0  0  0  0  0
  -25.9120  -32.4190   23.8210 C   0  0  0  0  0  3  0  0  0  0  0  0
  -26.4130  -31.6160   25.0850 C   0  0  1  0  0  0  0  0  0  0  0  0
  -25.3070  -31.3670   26.1380 C   0  0  0  0  0  1  0  0  0  0  0  0
  -26.9870  -30.2430   24.6660 C   0  0  0  0  0  1  0  0  0  0  0  0
  -27.5690  -32.3830   25.7690 C   0  0  0  0  0  1  0  0  0  0  0  0
  -25.6110  -33.8130   24.1790 N   0  0  0  0  0  0  0  0  0  0  0  0
  -25.9210  -34.8760   23.4260 C   0  0  0  0  0  0  0  0  0  0  0  0
  -26.5580  -34.7860   22.3730 O   0  0  0  0  0  0  0  0  0  0  0  0
  -25.0290  -33.9560   24.9930 H   0  0  0  0  0  0  0  0  0  0  0  0
  -24.1690  -36.6640   23.1680 C   0  0  0  0  0  1  0  0  0  0  0  0
  -25.4490  -36.2580   23.9180 C   0  0  0  0  0  3  0  0  0  0  0  0
  -27.6130  -37.1490   24.6620 C   0  0  0  0  0  1  0  0  0  0  0  0
  -26.4710  -37.3170   23.7670 N   0  0  0  0  0  0  0  0  0  0  0  0
  -26.0660  -38.2340   23.9380 H   0  0  0  0  0  0  0  0  0  0  0  0
  1  5  1  0
  1  2  2  0
  2 10  1  0
  2  6  1  0
  3  6  1  0
  3  4  1  0
  5  3  1  0
  6  7  1  0
 10  9  1  6
 10  8  1  0
 11 10  1  0
 11 20  1  0
 12 20  1  0
 13 18  1  0
 14 15  1  0
 14 13  1  0
 16 15  1  0
 16 25  1  0
 16 17  1  0
 18 12  1  0
 18 17  1  0
 19 12  2  0
 20 21  1  0
 22 23  2  0
 23 42  1  0
 24 23  1  0
 24 27  1  0
 25 22  1  0
 25 26  1  0
 26 24  2  0
 27 28  1  0
 28 29  2  0
 30 33  1  0
 30 29  1  0
 31 30  2  0
 32 31  1  0
 32 27  2  0
 33 34  1  0
 34 35  1  0
 35 36  2  0
 37 36  1  0
 37 41  1  0
 38 37  2  0
 39 34  2  0
 39 38  1  0
 40 39  1  0
 42 43  1  0
 43 46  1  0
 43 45  1  0
 44 42  2  0
 47 48  1  0
 47 22  1  0
 49 47  1  0
 51 50  1  0
 51  5  1  0
 52 53  1  0
 52 51  1  0
 53 55  1  0
 54 65  2  0
 55 60  1  0
 56 64  1  0
 56 66  1  0
 57 63  1  0
 57 59  1  0
 58 64  1  0
 59 58  1  0
 60 59  2  0
 61 62  1  0
 61 55  2  0
 62 57  2  0
 63 56  1  0
 64 54  1  0
 66 68  2  0
 67 66  1  0
 69 67  1  0
 70 79  2  0
 70 75  1  0
 71 67  1  0
 71 75  1  0
 72 71  1  0
 73 74  1  0
 73 72  1  0
 74 70  1  0
 75 76  2  0
 76 77  1  0
 78 77  2  0
 79 78  1  0
 80 54  1  0
 80 85  1  0
 80 81  1  0
 81 84  1  1
 81 82  1  0
 83 81  1  0
 85 88  1  0
 86 90  1  0
 86 85  1  0
 87 86  2  0
 90 89  1  0
 92 90  1  0
 92 93  1  0
 92 91  1  0
M  ISO  4  12 100  20 100  52 101  53 101
M  END
>  <TORSDO>  (70) 
F 20

>  <SCORE>  (70) 
-13.881

>  <name>  (70) 
69

>  <ligand_id>  (70) 
69

>  <original_smiles>  (70) 
[H]c1c([H])c([H])c2c(c1[H])C([H])([H])C([H])([H])C([H])([H])C2([H])N([H])C(=O)C1([H])N(C(=O)C([H])(N([H])C(=O)C([H])(N([H])C([H])([H])[H])C([H])([H])[H])C(C([H])([H])[H])(C([H])([H])[H])C([H])([H])[H])C([H])([H])c2c([H])c(OC([H])([H])C([H])(n3c([H])c(C(C([H])([H])[H])(C([H])([H])[H])C([H])([H])N([H])C(=O)N4C([H])([H])C([H])([H])C([H])([H])C([H])(n5nc(-c6c([H])c([H])c(Oc7c([H])c([H])c(F)c([H])c7F)c([H])c6[H])c(C(=O)N([H])[H])c5N([H])[H])C4([H])[H])[n+]([H])c3C([H])([H])[H])C([H])([H])[H])c([H])c([H])c2C1([H])[H]

>  <smiles>  (70) 
[H]c1c([H])c([H])c2c(c1[H])C([H])([H])C([H])([H])C([H])([H])C2([H])N([H])C(=O)C1([H])N(C(=O)C([H])(N([H])C(=O)C([H])(N([H])C([H])([H])[H])C([H])([H])[H])C(C([H])([H])[H])(C([H])([H])[H])C([H])([H])[H])C([H])([H])c2c([H])c(OC([H])([H])C([H])(n3c([H])c(C(C([H])([H])[H])(C([H])([H])[H])C([H])([H])N([H])C(=O)N4C([H])([H])C([H])([H])C([H])([H])C([H])(n5nc(-c6c([H])c([H])c(Oc7c([H])c([H])c(F)c([H])c7F)c([H])c6[H])c(C(=O)N([H])[H])c5N([H])[H])C4([H])[H])[n+]([H])c3C([H])([H])[H])C([H])([H])[H])c([H])c([H])c2C1([H])[H]

$$$$
70:0:0
     RDKit          3D

 93101  0  0  1  0  0  0  0  0999 V2000
  -29.1490  -18.9080   20.3430 C   0  0  0  0  0  3  0  0  0  0  0  0
  -29.6100  -20.2240   18.3880 C   0  0  0  0  0  3  0  0  0  0  0  0
  -29.2830  -20.2020   19.7620 C   0  0  0  0  0  0  0  0  0  0  0  0
  -29.3390  -17.7630   19.5180 C   0  0  0  0  0  0  0  0  0  0  0  0
  -29.7960  -19.0990   17.6540 N   0  0  0  0  0  0  0  0  0  0  0  0
  -29.6570  -17.8900   18.2060 N   0  0  0  0  0  0  0  0  0  0  0  0
  -29.0520  -21.5070   20.5660 C   0  0  0  0  0  3  0  0  0  0  0  0
  -29.6850  -22.8080   19.9680 C   0  0  0  0  0  3  0  0  0  0  0  0
  -29.4030  -24.1770   20.6740 C   0  0  0  0  0  2  0  0  0  0  0  0
  -28.2400  -25.0300   20.0960 C   0  0  0  0  0  2  0  0  0  0  0  0
  -28.3550  -26.4490   20.3800 O   0  0  0  0  0  0  0  0  0  0  0  0
  -24.5070  -31.7820   23.1820 C   0  0  0  0  0  0  0  0  0  0  0  0
  -27.2050  -27.2230   20.2820 C   0  0  0  0  0  0  0  0  0  0  0  0
  -23.3430  -30.3450   21.5420 C   0  0  0  0  0  3  0  0  0  0  0  0
  -24.8280  -28.7760   20.1870 C   0  0  0  0  0  0  0  0  0  0  0  0
  -25.8790  -30.6820   21.4090 C   0  0  0  0  0  2  0  0  0  0  0  0
  -25.9760  -29.2950   20.7980 C   0  0  0  0  0  0  0  0  0  0  0  0
  -27.1670  -28.5270   20.8420 C   0  0  0  0  0  3  0  0  0  0  0  0
  -26.0360  -26.7380   19.6470 C   0  0  0  0  0  3  0  0  0  0  0  0
  -24.8550  -27.4990   19.6060 C   0  0  0  0  0  3  0  0  0  0  0  0
  -23.5880  -29.6410   20.1830 C   0  0  0  0  0  2  0  0  0  0  0  0
  -24.5940  -30.9530   22.1020 N   0  0  0  0  0  0  0  0  0  0  0  0
  -23.4120  -32.0690   23.6840 O   0  0  0  0  0  0  0  0  0  0  0  0
  -22.6620  -29.3470   22.5070 C   0  0  0  0  0  0  0  0  0  0  0  0
  -21.3520  -29.1250   22.3140 N   0  0  0  0  0  0  0  0  0  0  0  0
  -23.3130  -28.7720   23.3830 O   0  0  0  0  0  0  0  0  0  0  0  0
  -20.8880  -29.6400   21.5790 H   0  0  0  0  0  0  0  0  0  0  0  0
  -17.9730  -27.9010   22.7090 C   0  0  0  0  0  0  0  0  0  0  0  0
  -20.5150  -28.1990   23.0770 C   0  0  0  0  0  3  0  0  0  0  0  0
  -20.6580  -26.7550   22.5460 C   0  0  0  0  0  2  0  0  0  0  0  0
  -19.6030  -26.3890   21.4980 C   0  0  0  0  0  2  0  0  0  0  0  0
  -18.1930  -26.5350   22.0810 C   0  0  0  0  0  2  0  0  0  0  0  0
  -19.0650  -28.6890   23.1620 C   0  0  0  0  0  0  0  0  0  0  0  0
  -18.8080  -29.9660   23.7060 C   0  0  0  0  0  3  0  0  0  0  0  0
  -17.4920  -30.4560   23.8030 C   0  0  0  0  0  3  0  0  0  0  0  0
  -16.4140  -29.6660   23.3660 C   0  0  0  0  0  3  0  0  0  0  0  0
  -16.6550  -28.3900   22.8250 C   0  0  0  0  0  3  0  0  0  0  0  0
  -25.7770  -32.4250   23.8210 C   0  0  0  0  0  3  0  0  0  0  0  0
  -25.4440  -33.8150   24.1610 N   0  0  0  0  0  0  0  0  0  0  0  0
  -25.7620  -34.8780   23.4100 C   0  0  0  0  0  0  0  0  0  0  0  0
  -26.4370  -34.7930   22.3800 O   0  0  0  0  0  0  0  0  0  0  0  0
  -24.8440  -33.9540   24.9610 H   0  0  0  0  0  0  0  0  0  0  0  0
  -24.0120  -36.6480   23.0540 C   0  0  0  0  0  1  0  0  0  0  0  0
  -25.2500  -36.2560   23.8740 C   0  0  0  0  0  3  0  0  0  0  0  0
  -27.3620  -37.1640   24.7370 C   0  0  0  0  0  1  0  0  0  0  0  0
  -26.2690  -37.3240   23.7810 N   0  0  0  0  0  0  0  0  0  0  0  0
  -25.8490  -38.2370   23.9300 H   0  0  0  0  0  0  0  0  0  0  0  0
  -26.2930  -31.6470   25.0930 C   0  0  1  0  0  0  0  0  0  0  0  0
  -25.1810  -31.3220   26.1170 C   0  0  0  0  0  1  0  0  0  0  0  0
  -26.9630  -30.3140   24.6840 C   0  0  0  0  0  1  0  0  0  0  0  0
  -27.3790  -32.4830   25.8120 C   0  0  0  0  0  1  0  0  0  0  0  0
  -29.1050  -16.3170   19.9960 C   0  0  0  0  0  2  0  0  0  0  0  0
  -30.3790  -15.3980   20.0500 C   0  0  0  0  0  3  0  0  0  0  0  0
  -30.4560  -14.2620   18.9640 C   0  0  0  0  0  0  0  0  0  0  0  0
  -29.7420  -12.1940   17.7850 C   0  0  0  0  0  2  0  0  0  0  0  0
  -28.5330  -12.4370   16.8620 C   0  0  0  0  0  2  0  0  0  0  0  0
  -27.2240  -12.2360   17.6420 C   0  0  0  0  0  2  0  0  0  0  0  0
  -27.2120  -13.0330   18.9690 C   0  0  0  0  0  3  0  0  0  0  0  0
  -28.5150  -12.8400   19.7740 C   0  0  0  0  0  2  0  0  0  0  0  0
  -29.6660  -13.1450   18.9160 N   0  0  0  0  0  0  0  0  0  0  0  0
  -31.3150  -14.4360   18.0940 O   0  0  0  0  0  0  0  0  0  0  0  0
  -25.1320  -13.5980   20.3690 C   0  0  0  0  0  0  0  0  0  0  0  0
  -24.1790  -12.8060   20.9520 C   0  0  0  0  0  0  0  0  0  0  0  0
  -24.5680  -11.4580   20.6820 C   0  0  0  0  0  0  0  0  0  0  0  0
  -26.0380  -12.7290   19.7810 N   0  0  0  0  0  0  0  0  0  0  0  0
  -25.7230  -11.4320   20.0280 N   0  0  0  0  0  0  0  0  0  0  0  0
  -23.8760  -10.1920   20.9520 C   0  0  0  0  0  0  0  0  0  0  0  0
  -24.4130   -9.2330   21.8400 C   0  0  0  0  0  3  0  0  0  0  0  0
  -23.7200   -8.0300   22.0970 C   0  0  0  0  0  3  0  0  0  0  0  0
  -22.4770   -7.7780   21.4680 C   0  0  0  0  0  0  0  0  0  0  0  0
  -21.9600   -8.7250   20.5670 C   0  0  0  0  0  3  0  0  0  0  0  0
  -22.6520   -9.9200   20.3090 C   0  0  0  0  0  3  0  0  0  0  0  0
  -21.7470   -6.6270   21.6380 O   0  0  0  0  0  0  0  0  0  0  0  0
  -21.7090   -5.9690   22.8410 C   0  0  0  0  0  0  0  0  0  0  0  0
  -21.2490   -6.5960   24.0190 C   0  0  0  0  0  3  0  0  0  0  0  0
  -21.1630   -5.8620   25.2200 C   0  0  0  0  0  3  0  0  0  0  0  0
  -21.5260   -4.5020   25.2410 C   0  0  0  0  0  0  0  0  0  0  0  0
  -21.9780   -3.8750   24.0670 C   0  0  0  0  0  3  0  0  0  0  0  0
  -22.0670   -4.6060   22.8700 C   0  0  0  0  0  0  0  0  0  0  0  0
  -22.4840   -3.9920   21.7370 F   0  0  0  0  0  0  0  0  0  0  0  0
  -21.4350   -3.7940   26.3910 F   0  0  0  0  0  0  0  0  0  0  0  0
  -22.9250  -13.2710   21.6310 C   0  0  0  0  0  0  0  0  0  0  0  0
  -22.4560  -12.5270   22.6290 N   0  0  0  0  0  0  0  0  0  0  0  0
  -22.3770  -14.3230   21.3110 O   0  0  0  0  0  0  0  0  0  0  0  0
  -22.9160  -11.6730   22.9090 H   0  0  0  0  0  0  0  0  0  0  0  0
  -21.6240  -12.8190   23.1220 H   0  0  0  0  0  0  0  0  0  0  0  0
  -25.2920  -14.9760   20.2700 N   0  0  0  0  0  0  0  0  0  0  0  0
  -24.6010  -15.6240   20.6330 H   0  0  0  0  0  0  0  0  0  0  0  0
  -26.0110  -15.4320   19.7260 H   0  0  0  0  0  0  0  0  0  0  0  0
  -31.1400  -16.3790   22.2830 C   0  0  0  0  0  1  0  0  0  0  0  0
  -32.3530  -14.4140   21.3800 C   0  0  0  0  0  1  0  0  0  0  0  0
  -30.0650  -14.1250   22.3170 C   0  0  0  0  0  1  0  0  0  0  0  0
  -30.9540  -15.0680   21.4820 C   0  0  2  0  0  0  0  0  0  0  0  0
  2  3  2  0
  3  1  1  0
  3  7  1  0
  4 52  1  0
  4  1  2  0
  5  6  2  0
  5  2  1  0
  6  4  1  0
  8  7  2  0
  8  9  1  0
 10 11  1  0
 10  9  1  0
 12 23  2  0
 13 11  1  0
 13 18  1  0
 14 22  1  0
 14 24  1  0
 15 17  1  0
 16 22  1  0
 17 18  2  0
 17 16  1  0
 19 13  2  0
 20 19  1  0
 20 15  2  0
 21 15  1  0
 21 14  1  0
 22 12  1  0
 24 26  2  0
 25 24  1  0
 27 25  1  0
 28 37  2  0
 28 33  1  0
 29 25  1  0
 29 33  1  0
 30 29  1  0
 31 32  1  0
 31 30  1  0
 32 28  1  0
 33 34  2  0
 34 35  1  0
 36 35  2  0
 37 36  1  0
 38 12  1  0
 38 39  1  0
 38 48  1  0
 39 42  1  0
 40 44  1  0
 40 39  1  0
 41 40  2  0
 44 43  1  0
 46 44  1  0
 46 47  1  0
 46 45  1  0
 48 51  1  1
 48 49  1  0
 50 48  1  0
 53 52  1  0
 53 93  1  0
 54 53  1  0
 55 60  1  0
 56 57  1  0
 56 55  1  0
 58 57  1  0
 58 59  1  0
 58 65  1  0
 60 54  1  0
 60 59  1  0
 61 54  2  0
 62 63  2  0
 63 82  1  0
 64 63  1  0
 64 67  1  0
 65 66  1  0
 65 62  1  0
 66 64  2  0
 67 68  1  0
 68 69  2  0
 70 73  1  0
 70 69  1  0
 71 70  2  0
 72 71  1  0
 72 67  2  0
 73 74  1  0
 74 79  2  0
 74 75  1  0
 75 76  2  0
 76 77  1  0
 77 81  1  0
 78 77  2  0
 79 78  1  0
 80 79  1  0
 82 83  1  0
 83 85  1  0
 83 86  1  0
 84 82  2  0
 87 62  1  0
 87 88  1  0
 89 87  1  0
 93 91  1  6
 93 90  1  0
 93 92  1  0
M  ISO  4  10 101  11 101  53 100  54 100
M  END
>  <TORSDO>  (71) 
F 23

>  <SCORE>  (71) 
-8.345

>  <name>  (71) 
70

>  <ligand_id>  (71) 
70

>  <original_smiles>  (71) 
[H]c1nnc(C([H])([H])C([H])(C(=O)N2C([H])([H])C([H])([H])C([H])([H])C([H])(n3nc(-c4c([H])c([H])c(Oc5c([H])c([H])c(F)c([H])c5F)c([H])c4[H])c(C(=O)N([H])[H])c3N([H])[H])C2([H])[H])C(C([H])([H])[H])(C([H])([H])[H])C([H])([H])[H])c([H])c1C([H])([H])C([H])([H])C([H])([H])C([H])([H])Oc1c([H])c([H])c2c(c1[H])C([H])([H])N(C(=O)C([H])(N([H])C(=O)C([H])(N([H])C([H])([H])[H])C([H])([H])[H])C(C([H])([H])[H])(C([H])([H])[H])C([H])([H])[H])C([H])(C(=O)N([H])C1([H])c3c([H])c([H])c([H])c([H])c3C([H])([H])C([H])([H])C1([H])[H])C2([H])[H]

>  <smiles>  (71) 
[H]c1nnc(C([H])([H])C([H])(C(=O)N2C([H])([H])C([H])([H])C([H])([H])C([H])(n3nc(-c4c([H])c([H])c(Oc5c([H])c([H])c(F)c([H])c5F)c([H])c4[H])c(C(=O)N([H])[H])c3N([H])[H])C2([H])[H])C(C([H])([H])[H])(C([H])([H])[H])C([H])([H])[H])c([H])c1C([H])([H])C([H])([H])C([H])([H])C([H])([H])Oc1c([H])c([H])c2c(c1[H])C([H])([H])N(C(=O)C([H])(N([H])C(=O)C([H])(N([H])C([H])([H])[H])C([H])([H])[H])C(C([H])([H])[H])(C([H])([H])[H])C([H])([H])[H])C([H])(C(=O)N([H])C1([H])c3c([H])c([H])c([H])c([H])c3C([H])([H])C([H])([H])C1([H])[H])C2([H])[H]

$$$$
71:0:0
     RDKit          3D

 88 96  0  0  1  0  0  0  0  0999 V2000
  -30.0450  -20.7490   20.1370 C   0  0  0  0  0  3  0  0  0  0  0  0
  -29.4750  -19.4510   20.0780 C   0  0  0  0  0  0  0  0  0  0  0  0
  -28.1050  -19.7840   20.1630 N   0  0  0  0  0  0  0  0  0  0  0  0
  -27.8750  -21.0930   20.3030 N   0  0  0  0  0  0  0  0  0  0  0  0
  -29.0450  -21.7930   20.2510 N   0  0  0  0  0  0  0  0  0  0  0  0
  -30.0580  -17.9340   19.7040 C   0  0  0  0  0  2  0  0  0  0  0  0
  -30.9910  -16.7880   21.7750 C   0  0  0  0  0  1  0  0  0  0  0  0
  -28.6270  -16.4060   21.2170 C   0  0  0  0  0  1  0  0  0  0  0  0
  -30.0300  -16.4950   20.6000 C   0  0  1  0  0  0  0  0  0  0  0  0
  -30.5680  -15.0040   19.9840 C   0  0  0  0  0  0  0  0  0  0  0  0
  -30.3560  -12.6790   18.9430 C   0  0  0  0  0  2  0  0  0  0  0  0
  -29.3470  -12.6780   17.7680 C   0  0  0  0  0  2  0  0  0  0  0  0
  -27.9090  -12.4540   18.2720 C   0  0  0  0  0  2  0  0  0  0  0  0
  -27.5870  -13.3250   19.5110 C   0  0  0  0  0  3  0  0  0  0  0  0
  -28.7140  -13.2500   20.5650 C   0  0  0  0  0  2  0  0  0  0  0  0
  -29.9480  -13.7390   19.9250 N   0  0  0  0  0  0  0  0  0  0  0  0
  -31.7010  -15.0230   19.4880 O   0  0  0  0  0  0  0  0  0  0  0  0
  -25.2470  -13.8940   20.3880 C   0  0  0  0  0  0  0  0  0  0  0  0
  -24.2070  -13.1140   20.8110 C   0  0  0  0  0  0  0  0  0  0  0  0
  -24.6690  -11.7650   20.7330 C   0  0  0  0  0  0  0  0  0  0  0  0
  -26.2780  -13.0210   20.0780 N   0  0  0  0  0  0  0  0  0  0  0  0
  -25.9410  -11.7330   20.3490 N   0  0  0  0  0  0  0  0  0  0  0  0
  -23.9520  -10.5010   20.9430 C   0  0  0  0  0  0  0  0  0  0  0  0
  -24.4160   -9.5310   21.8590 C   0  0  0  0  0  3  0  0  0  0  0  0
  -23.6950   -8.3330   22.0600 C   0  0  0  0  0  3  0  0  0  0  0  0
  -22.4970   -8.0980   21.3430 C   0  0  0  0  0  0  0  0  0  0  0  0
  -22.0520   -9.0570   20.4160 C   0  0  0  0  0  3  0  0  0  0  0  0
  -22.7730  -10.2460   20.2150 C   0  0  0  0  0  3  0  0  0  0  0  0
  -21.7460   -6.9530   21.4530 O   0  0  0  0  0  0  0  0  0  0  0  0
  -21.7140   -6.2220   22.6140 C   0  0  0  0  0  0  0  0  0  0  0  0
  -21.3070   -6.7920   23.8400 C   0  0  0  0  0  3  0  0  0  0  0  0
  -21.2190   -5.9880   24.9960 C   0  0  0  0  0  3  0  0  0  0  0  0
  -21.5290   -4.6170   24.9250 C   0  0  0  0  0  0  0  0  0  0  0  0
  -21.9290   -4.0470   23.7030 C   0  0  0  0  0  3  0  0  0  0  0  0
  -22.0180   -4.8480   22.5500 C   0  0  0  0  0  0  0  0  0  0  0  0
  -22.3820   -4.2890   21.3710 F   0  0  0  0  0  0  0  0  0  0  0  0
  -21.4390   -3.8420   26.0310 F   0  0  0  0  0  0  0  0  0  0  0  0
  -22.8290  -13.5890   21.1690 C   0  0  0  0  0  0  0  0  0  0  0  0
  -22.1530  -12.8860   22.0690 N   0  0  0  0  0  0  0  0  0  0  0  0
  -22.3640  -14.6210   20.6860 O   0  0  0  0  0  0  0  0  0  0  0  0
  -22.5430  -12.0540   22.4840 H   0  0  0  0  0  0  0  0  0  0  0  0
  -21.2310  -13.1880   22.3530 H   0  0  0  0  0  0  0  0  0  0  0  0
  -25.3860  -15.2650   20.2130 N   0  0  0  0  0  0  0  0  0  0  0  0
  -24.6210  -15.9100   20.3830 H   0  0  0  0  0  0  0  0  0  0  0  0
  -26.2070  -15.7180   19.8350 H   0  0  0  0  0  0  0  0  0  0  0  0
  -29.1540  -23.3700   20.4790 C   0  0  0  0  0  3  0  0  0  0  0  0
  -28.0510  -24.5990   20.0990 C   0  0  0  0  0  3  0  0  0  0  0  0
  -28.2650  -26.1390   20.3140 O   0  0  0  0  0  0  0  0  0  0  0  0
  -24.6150  -31.8640   23.2210 C   0  0  0  0  0  0  0  0  0  0  0  0
  -27.2020  -27.1170   20.2340 C   0  0  0  0  0  0  0  0  0  0  0  0
  -23.4200  -30.4590   21.5850 C   0  0  0  0  0  3  0  0  0  0  0  0
  -24.8720  -28.8670   20.1780 C   0  0  0  0  0  0  0  0  0  0  0  0
  -25.9740  -30.7170   21.4300 C   0  0  0  0  0  2  0  0  0  0  0  0
  -26.0490  -29.3180   20.7870 C   0  0  0  0  0  0  0  0  0  0  0  0
  -27.2140  -28.4600   20.7970 C   0  0  0  0  0  3  0  0  0  0  0  0
  -25.9980  -26.7690   19.5860 C   0  0  0  0  0  3  0  0  0  0  0  0
  -24.8610  -27.6070   19.5600 C   0  0  0  0  0  3  0  0  0  0  0  0
  -23.6460  -29.7680   20.2130 C   0  0  0  0  0  2  0  0  0  0  0  0
  -24.6900  -31.0360   22.1340 N   0  0  0  0  0  0  0  0  0  0  0  0
  -23.5270  -32.1550   23.7420 O   0  0  0  0  0  0  0  0  0  0  0  0
  -22.7340  -29.4610   22.5530 C   0  0  0  0  0  0  0  0  0  0  0  0
  -21.4040  -29.3000   22.4310 N   0  0  0  0  0  0  0  0  0  0  0  0
  -23.4020  -28.8330   23.3790 O   0  0  0  0  0  0  0  0  0  0  0  0
  -20.9220  -29.8580   21.7400 H   0  0  0  0  0  0  0  0  0  0  0  0
  -18.0140  -28.1380   22.9520 C   0  0  0  0  0  0  0  0  0  0  0  0
  -20.5770  -28.3730   23.2060 C   0  0  0  0  0  3  0  0  0  0  0  0
  -20.6600  -26.9390   22.6320 C   0  0  0  0  0  2  0  0  0  0  0  0
  -19.5500  -26.6280   21.6240 C   0  0  0  0  0  2  0  0  0  0  0  0
  -18.1730  -26.7870   22.2750 C   0  0  0  0  0  2  0  0  0  0  0  0
  -19.1430  -28.8890   23.3750 C   0  0  0  0  0  0  0  0  0  0  0  0
  -18.9380  -30.1530   23.9720 C   0  0  0  0  0  3  0  0  0  0  0  0
  -17.6380  -30.6650   24.1480 C   0  0  0  0  0  3  0  0  0  0  0  0
  -16.5250  -29.9100   23.7400 C   0  0  0  0  0  3  0  0  0  0  0  0
  -16.7130  -28.6490   23.1470 C   0  0  0  0  0  3  0  0  0  0  0  0
  -25.8910  -32.5030   23.8490 C   0  0  0  0  0  3  0  0  0  0  0  0
  -26.3990  -31.7380   25.1330 C   0  0  1  0  0  0  0  0  0  0  0  0
  -25.3010  -31.5050   26.1960 C   0  0  0  0  0  1  0  0  0  0  0  0
  -26.9830  -30.3570   24.7560 C   0  0  0  0  0  1  0  0  0  0  0  0
  -27.5470  -32.5330   25.7970 C   0  0  0  0  0  1  0  0  0  0  0  0
  -25.5770  -33.9020   24.1790 N   0  0  0  0  0  0  0  0  0  0  0  0
  -25.8990  -34.9580   23.4200 C   0  0  0  0  0  0  0  0  0  0  0  0
  -26.5570  -34.8570   22.3800 O   0  0  0  0  0  0  0  0  0  0  0  0
  -24.9930  -34.0550   24.9880 H   0  0  0  0  0  0  0  0  0  0  0  0
  -24.1540  -36.7440   23.1000 C   0  0  0  0  0  1  0  0  0  0  0  0
  -25.4150  -36.3470   23.8840 C   0  0  0  0  0  3  0  0  0  0  0  0
  -27.5620  -37.2480   24.6640 C   0  0  0  0  0  1  0  0  0  0  0  0
  -26.4400  -37.4050   23.7440 N   0  0  0  0  0  0  0  0  0  0  0  0
  -26.0320  -38.3240   23.8960 H   0  0  0  0  0  0  0  0  0  0  0  0
  1  5  1  0
  2  1  2  0
  2  3  1  0
  3  4  2  0
  5  4  1  0
  5 46  1  0
  6  2  1  0
  6  9  1  0
  9  8  1  1
  9  7  1  0
 10  9  1  0
 11 16  1  0
 12 13  1  0
 12 11  1  0
 14 13  1  0
 14 21  1  0
 14 15  1  0
 16 10  1  0
 16 15  1  0
 17 10  2  0
 18 19  2  0
 19 38  1  0
 20 19  1  0
 20 23  1  0
 21 22  1  0
 21 18  1  0
 22 20  2  0
 23 24  1  0
 24 25  2  0
 26 29  1  0
 26 25  1  0
 27 26  2  0
 28 27  1  0
 28 23  2  0
 29 30  1  0
 30 31  1  0
 31 32  2  0
 33 32  1  0
 33 37  1  0
 34 33  2  0
 35 30  2  0
 35 34  1  0
 36 35  1  0
 38 39  1  0
 39 42  1  0
 39 41  1  0
 40 38  2  0
 43 44  1  0
 43 18  1  0
 45 43  1  0
 47 48  1  0
 47 46  2  0
 49 60  2  0
 50 48  1  0
 50 55  1  0
 51 59  1  0
 51 61  1  0
 52 58  1  0
 52 54  1  0
 53 59  1  0
 54 55  2  0
 54 53  1  0
 56 50  2  0
 57 56  1  0
 57 52  2  0
 58 51  1  0
 59 49  1  0
 61 63  2  0
 62 61  1  0
 64 62  1  0
 65 74  2  0
 65 70  1  0
 66 62  1  0
 66 70  1  0
 67 66  1  0
 68 69  1  0
 68 67  1  0
 69 65  1  0
 70 71  2  0
 71 72  1  0
 73 72  2  0
 74 73  1  0
 75 49  1  0
 75 80  1  0
 75 76  1  0
 76 79  1  1
 76 77  1  0
 78 76  1  0
 80 83  1  0
 81 85  1  0
 81 80  1  0
 82 81  2  0
 85 84  1  0
 87 85  1  0
 87 88  1  0
 87 86  1  0
M  ISO  4   9 100  10 100  47 101  48 101
M  END
>  <TORSDO>  (72) 
F 20

>  <SCORE>  (72) 
-14.442

>  <name>  (72) 
71

>  <ligand_id>  (72) 
71

>  <original_smiles>  (72) 
[H]c1c([H])c([H])c2c(c1[H])C([H])([H])C([H])([H])C([H])([H])C2([H])N([H])C(=O)C1([H])N(C(=O)C([H])(N([H])C(=O)C([H])(N([H])C([H])([H])[H])C([H])([H])[H])C(C([H])([H])[H])(C([H])([H])[H])C([H])([H])[H])C([H])([H])c2c([H])c(OC([H])([H])C([H])([H])n3nnc(C([H])([H])C(C(=O)N4C([H])([H])C([H])([H])C([H])([H])C([H])(n5nc(-c6c([H])c([H])c(Oc7c([H])c([H])c(F)c([H])c7F)c([H])c6[H])c(C(=O)N([H])[H])c5N([H])[H])C4([H])[H])(C([H])([H])[H])C([H])([H])[H])c3[H])c([H])c([H])c2C1([H])[H]

>  <smiles>  (72) 
[H]c1c([H])c([H])c2c(c1[H])C([H])([H])C([H])([H])C([H])([H])C2([H])N([H])C(=O)C1([H])N(C(=O)C([H])(N([H])C(=O)C([H])(N([H])C([H])([H])[H])C([H])([H])[H])C(C([H])([H])[H])(C([H])([H])[H])C([H])([H])[H])C([H])([H])c2c([H])c(OC([H])([H])C([H])([H])n3nnc(C([H])([H])C(C(=O)N4C([H])([H])C([H])([H])C([H])([H])C([H])(n5nc(-c6c([H])c([H])c(Oc7c([H])c([H])c(F)c([H])c7F)c([H])c6[H])c(C(=O)N([H])[H])c5N([H])[H])C4([H])[H])(C([H])([H])[H])C([H])([H])[H])c3[H])c([H])c([H])c2C1([H])[H]

$$$$
72:0:0
     RDKit          3D

 95103  0  0  1  0  0  0  0  0999 V2000
  -28.4530  -21.2470   20.8790 C   0  0  0  0  0  0  0  0  0  0  0  0
  -31.0700  -21.6470   21.4680 C   0  0  0  0  0  0  0  0  0  0  0  0
  -28.9140  -22.5080   21.3420 C   0  0  0  0  0  0  0  0  0  0  0  0
  -30.6130  -20.3990   20.9530 C   0  0  0  0  0  0  0  0  0  0  0  0
  -26.9860  -20.9430   20.6260 C   0  0  0  0  0  1  0  0  0  0  0  0
  -32.5330  -21.9210   21.7910 C   0  0  0  0  0  1  0  0  0  0  0  0
  -30.2200  -22.6890   21.6680 N   0  0  0  0  0  0  0  0  0  0  0  0
  -29.3010  -20.2130   20.6660 N   0  0  0  0  0  0  0  0  0  0  0  0
  -27.9370  -23.6530   21.6410 C   0  0  0  0  0  2  0  0  0  0  0  0
  -28.4630  -25.1040   21.4860 C   0  0  0  0  0  2  0  0  0  0  0  0
  -28.8650  -25.5320   20.0530 C   0  0  0  0  0  2  0  0  0  0  0  0
  -28.8700  -26.9630   19.8850 O   0  0  0  0  0  0  0  0  0  0  0  0
  -24.6450  -31.6200   23.1580 C   0  0  0  0  0  0  0  0  0  0  0  0
  -27.6500  -27.6040   19.8540 C   0  0  0  0  0  0  0  0  0  0  0  0
  -23.5610  -30.2240   21.4270 C   0  0  0  0  0  3  0  0  0  0  0  0
  -25.1380  -28.9070   19.9190 C   0  0  0  0  0  0  0  0  0  0  0  0
  -26.0470  -30.8100   21.2640 C   0  0  0  0  0  2  0  0  0  0  0  0
  -26.2480  -29.4950   20.5420 C   0  0  0  0  0  0  0  0  0  0  0  0
  -27.5050  -28.8540   20.4990 C   0  0  0  0  0  3  0  0  0  0  0  0
  -26.5220  -27.0390   19.2130 C   0  0  0  0  0  3  0  0  0  0  0  0
  -25.2740  -27.6830   19.2470 C   0  0  0  0  0  3  0  0  0  0  0  0
  -23.8240  -29.6480   20.0110 C   0  0  0  0  0  2  0  0  0  0  0  0
  -24.7670  -30.8990   22.0080 N   0  0  0  0  0  0  0  0  0  0  0  0
  -23.5440  -31.7650   23.7090 O   0  0  0  0  0  0  0  0  0  0  0  0
  -23.0010  -29.0940   22.3200 C   0  0  0  0  0  0  0  0  0  0  0  0
  -21.7090  -28.7790   22.1400 N   0  0  0  0  0  0  0  0  0  0  0  0
  -23.7260  -28.5100   23.1280 O   0  0  0  0  0  0  0  0  0  0  0  0
  -21.1870  -29.3060   21.4520 H   0  0  0  0  0  0  0  0  0  0  0  0
  -18.4690  -27.2160   22.4740 C   0  0  0  0  0  0  0  0  0  0  0  0
  -20.9750  -27.7280   22.8420 C   0  0  0  0  0  3  0  0  0  0  0  0
  -21.2470  -26.3450   22.2070 C   0  0  0  0  0  2  0  0  0  0  0  0
  -20.2150  -25.9560   21.1440 C   0  0  0  0  0  2  0  0  0  0  0  0
  -18.8070  -25.9270   21.7460 C   0  0  0  0  0  2  0  0  0  0  0  0
  -19.4880  -28.0700   22.9730 C   0  0  0  0  0  0  0  0  0  0  0  0
  -19.1210  -29.2750   23.6100 C   0  0  0  0  0  3  0  0  0  0  0  0
  -17.7660  -29.6290   23.7560 C   0  0  0  0  0  3  0  0  0  0  0  0
  -16.7610  -28.7730   23.2720 C   0  0  0  0  0  3  0  0  0  0  0  0
  -17.1130  -27.5680   22.6350 C   0  0  0  0  0  3  0  0  0  0  0  0
  -25.8750  -32.3120   23.8220 C   0  0  0  0  0  3  0  0  0  0  0  0
  -25.4780  -33.6880   24.1540 N   0  0  0  0  0  0  0  0  0  0  0  0
  -25.7800  -34.7640   23.4140 C   0  0  0  0  0  0  0  0  0  0  0  0
  -26.4940  -34.7070   22.4070 O   0  0  0  0  0  0  0  0  0  0  0  0
  -24.8450  -33.8030   24.9320 H   0  0  0  0  0  0  0  0  0  0  0  0
  -23.9710  -36.4600   22.9960 C   0  0  0  0  0  1  0  0  0  0  0  0
  -25.1960  -36.1180   23.8590 C   0  0  0  0  0  3  0  0  0  0  0  0
  -27.2380  -37.1110   24.7960 C   0  0  0  0  0  1  0  0  0  0  0  0
  -26.1750  -37.2260   23.8020 N   0  0  0  0  0  0  0  0  0  0  0  0
  -25.7130  -38.1230   23.9290 H   0  0  0  0  0  0  0  0  0  0  0  0
  -26.3970  -31.5570   25.1060 C   0  0  1  0  0  0  0  0  0  0  0  0
  -25.2850  -31.2400   26.1310 C   0  0  0  0  0  1  0  0  0  0  0  0
  -27.0780  -30.2240   24.7200 C   0  0  0  0  0  1  0  0  0  0  0  0
  -27.4760  -32.4130   25.8100 C   0  0  0  0  0  1  0  0  0  0  0  0
  -31.5550  -19.2670   20.5160 C   0  0  0  0  0  2  0  0  0  0  0  0
  -31.2480  -17.8510   21.0960 C   0  0  0  0  0  2  0  0  0  0  0  0
  -32.7050  -16.4410   19.6290 C   0  0  0  0  0  1  0  0  0  0  0  0
  -31.2250  -16.7220   19.9990 C   0  0  0  0  0  3  0  0  0  0  0  0
  -28.8620  -15.8160   19.8940 C   0  0  0  0  0  1  0  0  0  0  0  0
  -30.4340  -15.1250   21.8360 C   0  0  0  0  0  1  0  0  0  0  0  0
  -30.3240  -15.4410   20.3120 C   0  0  2  0  0  0  0  0  0  0  0  0
  -30.7370  -14.1640   19.4560 C   0  0  0  0  0  0  0  0  0  0  0  0
  -30.4400  -11.7970   18.7330 C   0  0  0  0  0  2  0  0  0  0  0  0
  -29.3540  -11.6920   17.6460 C   0  0  0  0  0  2  0  0  0  0  0  0
  -27.9600  -11.5430   18.2830 C   0  0  0  0  0  2  0  0  0  0  0  0
  -27.7030  -12.6260   19.3580 C   0  0  0  0  0  3  0  0  0  0  0  0
  -28.8820  -12.6760   20.3550 C   0  0  0  0  0  2  0  0  0  0  0  0
  -30.1130  -12.9520   19.5970 N   0  0  0  0  0  0  0  0  0  0  0  0
  -31.6270  -14.2820   18.6080 O   0  0  0  0  0  0  0  0  0  0  0  0
  -25.5170  -13.3650   20.4880 C   0  0  0  0  0  0  0  0  0  0  0  0
  -24.4640  -12.6470   20.9870 C   0  0  0  0  0  0  0  0  0  0  0  0
  -24.7990  -11.2720   20.8050 C   0  0  0  0  0  0  0  0  0  0  0  0
  -26.4300  -12.4230   20.0350 N   0  0  0  0  0  0  0  0  0  0  0  0
  -26.0080  -11.1580   20.2750 N   0  0  0  0  0  0  0  0  0  0  0  0
  -24.0160  -10.0550   21.0490 C   0  0  0  0  0  0  0  0  0  0  0  0
  -24.4300   -9.0850   21.9860 C   0  0  0  0  0  3  0  0  0  0  0  0
  -23.6510   -7.9280   22.2060 C   0  0  0  0  0  3  0  0  0  0  0  0
  -22.4440   -7.7390   21.4940 C   0  0  0  0  0  0  0  0  0  0  0  0
  -22.0480   -8.7000   20.5490 C   0  0  0  0  0  3  0  0  0  0  0  0
  -22.8250   -9.8470   20.3250 C   0  0  0  0  0  3  0  0  0  0  0  0
  -21.6390   -6.6340   21.6290 O   0  0  0  0  0  0  0  0  0  0  0  0
  -21.5400   -5.9610   22.8200 C   0  0  0  0  0  0  0  0  0  0  0  0
  -21.0780   -6.5910   23.9980 C   0  0  0  0  0  3  0  0  0  0  0  0
  -20.9210   -5.8440   25.1810 C   0  0  0  0  0  3  0  0  0  0  0  0
  -21.2180   -4.4690   25.1910 C   0  0  0  0  0  0  0  0  0  0  0  0
  -21.6790   -3.8380   24.0210 C   0  0  0  0  0  3  0  0  0  0  0  0
  -21.8340   -4.5820   22.8380 C   0  0  0  0  0  0  0  0  0  0  0  0
  -22.2550   -3.9670   21.7070 F   0  0  0  0  0  0  0  0  0  0  0  0
  -21.0610   -3.7500   26.3260 F   0  0  0  0  0  0  0  0  0  0  0  0
  -23.1770  -13.2060   21.5200 C   0  0  0  0  0  0  0  0  0  0  0  0
  -22.5720  -12.5320   22.4910 N   0  0  0  0  0  0  0  0  0  0  0  0
  -22.7260  -14.2700   21.1110 O   0  0  0  0  0  0  0  0  0  0  0  0
  -22.9440  -11.6610   22.8390 H   0  0  0  0  0  0  0  0  0  0  0  0
  -21.7180  -12.8950   22.8880 H   0  0  0  0  0  0  0  0  0  0  0  0
  -25.7530  -14.7280   20.3530 N   0  0  0  0  0  0  0  0  0  0  0  0
  -25.0820  -15.4290   20.6520 H   0  0  0  0  0  0  0  0  0  0  0  0
  -26.5690  -15.1290   19.9090 H   0  0  0  0  0  0  0  0  0  0  0  0
  1  3  1  0
  2  7  1  0
  2  6  1  0
  3  9  1  0
  3  7  2  0
  4  2  2  0
  5  1  1  0
  8  1  2  0
  8  4  1  0
 10  9  1  0
 11 10  1  0
 12 11  1  0
 13 24  2  0
 14 12  1  0
 14 19  1  0
 15 23  1  0
 15 25  1  0
 16 22  1  0
 16 18  1  0
 17 23  1  0
 18 17  1  0
 19 18  2  0
 20 21  1  0
 20 14  2  0
 21 16  2  0
 22 15  1  0
 23 13  1  0
 25 27  2  0
 26 25  1  0
 28 26  1  0
 29 38  2  0
 29 34  1  0
 30 26  1  0
 30 34  1  0
 31 30  1  0
 32 33  1  0
 32 31  1  0
 33 29  1  0
 34 35  2  0
 35 36  1  0
 37 36  2  0
 38 37  1  0
 39 13  1  0
 39 40  1  0
 39 49  1  0
 40 43  1  0
 41 45  1  0
 41 40  1  0
 42 41  2  0
 45 44  1  0
 47 45  1  0
 47 48  1  0
 47 46  1  0
 49 52  1  1
 49 50  1  0
 51 49  1  0
 53  4  1  0
 53 54  1  0
 56 55  1  0
 56 59  1  0
 56 54  1  0
 59 57  1  1
 59 58  1  0
 60 66  1  0
 60 59  1  0
 61 66  1  0
 62 63  1  0
 62 61  1  0
 64 63  1  0
 64 71  1  0
 64 65  1  0
 66 65  1  0
 67 60  2  0
 68 69  2  0
 69 88  1  0
 70 69  1  0
 70 73  1  0
 71 72  1  0
 71 68  1  0
 72 70  2  0
 73 74  1  0
 74 75  2  0
 76 79  1  0
 76 75  1  0
 77 76  2  0
 78 77  1  0
 78 73  2  0
 79 80  1  0
 80 85  2  0
 80 81  1  0
 81 82  2  0
 82 83  1  0
 83 87  1  0
 84 83  2  0
 85 84  1  0
 86 85  1  0
 88 89  1  0
 89 91  1  0
 89 92  1  0
 90 88  2  0
 93 68  1  0
 93 94  1  0
 95 93  1  0
M  ISO  4  11 101  12 101  59 100  60 100
M  END
>  <TORSDO>  (73) 
F 23

>  <SCORE>  (73) 
-9.954

>  <name>  (73) 
72

>  <ligand_id>  (73) 
72

>  <original_smiles>  (73) 
[H]c1c([H])c([H])c2c(c1[H])C([H])([H])C([H])([H])C([H])([H])C2([H])N([H])C(=O)C1([H])N(C(=O)C([H])(N([H])C(=O)C([H])(N([H])C([H])([H])[H])C([H])([H])[H])C(C([H])([H])[H])(C([H])([H])[H])C([H])([H])[H])C([H])([H])c2c([H])c(OC([H])([H])C([H])([H])C([H])([H])c3nc(C([H])([H])[H])c(C([H])([H])C([H])([H])C([H])(C([H])([H])[H])C(C(=O)N4C([H])([H])C([H])([H])C([H])([H])C([H])(n5nc(-c6c([H])c([H])c(Oc7c([H])c([H])c(F)c([H])c7F)c([H])c6[H])c(C(=O)N([H])[H])c5N([H])[H])C4([H])[H])(C([H])([H])[H])C([H])([H])[H])nc3C([H])([H])[H])c([H])c([H])c2C1([H])[H]

>  <smiles>  (73) 
[H]c1c([H])c([H])c2c(c1[H])C([H])([H])C([H])([H])C([H])([H])C2([H])N([H])C(=O)C1([H])N(C(=O)C([H])(N([H])C(=O)C([H])(N([H])C([H])([H])[H])C([H])([H])[H])C(C([H])([H])[H])(C([H])([H])[H])C([H])([H])[H])C([H])([H])c2c([H])c(OC([H])([H])C([H])([H])C([H])([H])c3nc(C([H])([H])[H])c(C([H])([H])C([H])([H])C([H])(C([H])([H])[H])C(C(=O)N4C([H])([H])C([H])([H])C([H])([H])C([H])(n5nc(-c6c([H])c([H])c(Oc7c([H])c([H])c(F)c([H])c7F)c([H])c6[H])c(C(=O)N([H])[H])c5N([H])[H])C4([H])[H])(C([H])([H])[H])C([H])([H])[H])nc3C([H])([H])[H])c([H])c([H])c2C1([H])[H]

$$$$
73:0:0
     RDKit          3D

 94102  0  0  1  0  0  0  0  0999 V2000
  -28.5970  -20.3710   21.1700 C   0  0  0  0  0  2  0  0  0  0  0  0
  -28.1070  -18.8840   19.1790 C   0  0  0  0  0  3  0  0  0  0  0  0
  -28.2310  -17.6260   18.5820 C   0  0  0  0  0  0  0  0  0  0  0  0
  -28.7980  -19.0820   20.3810 C   0  0  0  0  0  0  0  0  0  0  0  0
  -29.6640  -16.9340   20.2550 C   0  0  0  0  0  0  0  0  0  0  0  0
  -27.4740  -17.2430   17.3300 C   0  0  0  0  0  1  0  0  0  0  0  0
  -28.9950  -16.6730   19.1320 N   0  0  0  0  0  0  0  0  0  0  0  0
  -29.5740  -18.1070   20.9070 N   0  0  0  0  0  0  0  0  0  0  0  0
  -31.7950  -16.3040   21.4680 C   0  0  0  0  0  1  0  0  0  0  0  0
  -29.6610  -15.3270   22.2200 C   0  0  0  0  0  1  0  0  0  0  0  0
  -30.4290  -15.7640   20.9510 C   0  0  1  0  0  0  0  0  0  0  0  0
  -30.7490  -14.5730   19.9410 C   0  0  0  0  0  0  0  0  0  0  0  0
  -30.2340  -12.5230   18.6230 C   0  0  0  0  0  2  0  0  0  0  0  0
  -29.1910  -12.8360   17.5290 C   0  0  0  0  0  2  0  0  0  0  0  0
  -27.7570  -12.6880   18.0730 C   0  0  0  0  0  2  0  0  0  0  0  0
  -27.5700  -13.4280   19.4200 C   0  0  0  0  0  3  0  0  0  0  0  0
  -28.7080  -13.0430   20.3810 C   0  0  0  0  0  2  0  0  0  0  0  0
  -29.9890  -13.4370   19.7640 N   0  0  0  0  0  0  0  0  0  0  0  0
  -31.7600  -14.7250   19.2390 O   0  0  0  0  0  0  0  0  0  0  0  0
  -25.2640  -14.0670   20.3680 C   0  0  0  0  0  0  0  0  0  0  0  0
  -24.2140  -13.3060   20.8030 C   0  0  0  0  0  0  0  0  0  0  0  0
  -24.6360  -11.9460   20.6730 C   0  0  0  0  0  0  0  0  0  0  0  0
  -26.2600  -13.1730   20.0050 N   0  0  0  0  0  0  0  0  0  0  0  0
  -25.8880  -11.8900   20.2410 N   0  0  0  0  0  0  0  0  0  0  0  0
  -23.9050  -10.6940   20.8760 C   0  0  0  0  0  0  0  0  0  0  0  0
  -24.3930   -9.6870   21.7380 C   0  0  0  0  0  3  0  0  0  0  0  0
  -23.6630   -8.4950   21.9290 C   0  0  0  0  0  3  0  0  0  0  0  0
  -22.4330   -8.3010   21.2550 C   0  0  0  0  0  0  0  0  0  0  0  0
  -21.9650   -9.2970   20.3800 C   0  0  0  0  0  3  0  0  0  0  0  0
  -22.6940  -10.4810   20.1890 C   0  0  0  0  0  3  0  0  0  0  0  0
  -21.6680   -7.1670   21.3580 O   0  0  0  0  0  0  0  0  0  0  0  0
  -21.6790   -6.3940   22.4900 C   0  0  0  0  0  0  0  0  0  0  0  0
  -21.3610   -6.9260   23.7580 C   0  0  0  0  0  3  0  0  0  0  0  0
  -21.3110   -6.0790   24.8840 C   0  0  0  0  0  3  0  0  0  0  0  0
  -21.5770   -4.7030   24.7430 C   0  0  0  0  0  0  0  0  0  0  0  0
  -21.8920   -4.1730   23.4800 C   0  0  0  0  0  3  0  0  0  0  0  0
  -21.9380   -5.0170   22.3560 C   0  0  0  0  0  0  0  0  0  0  0  0
  -22.2200   -4.4950   21.1380 F   0  0  0  0  0  0  0  0  0  0  0  0
  -21.5230   -3.8870   25.8220 F   0  0  0  0  0  0  0  0  0  0  0  0
  -22.8610  -13.7990   21.2290 C   0  0  0  0  0  0  0  0  0  0  0  0
  -22.2110  -13.0910   22.1460 N   0  0  0  0  0  0  0  0  0  0  0  0
  -22.3900  -14.8460   20.7840 O   0  0  0  0  0  0  0  0  0  0  0  0
  -22.6080  -12.2480   22.5320 H   0  0  0  0  0  0  0  0  0  0  0  0
  -21.3060  -13.4010   22.4720 H   0  0  0  0  0  0  0  0  0  0  0  0
  -25.4470  -15.4410   20.2310 N   0  0  0  0  0  0  0  0  0  0  0  0
  -24.6890  -16.1000   20.3690 H   0  0  0  0  0  0  0  0  0  0  0  0
  -26.2920  -15.8680   19.8700 H   0  0  0  0  0  0  0  0  0  0  0  0
  -29.4000  -21.6000   20.6700 C   0  0  0  0  0  2  0  0  0  0  0  0
  -28.5190  -22.8750   20.5740 C   0  0  0  0  0  2  0  0  0  0  0  0
  -30.3250  -24.2720   19.4110 C   0  0  0  0  0  1  0  0  0  0  0  0
  -29.7810  -24.6570   21.8440 C   0  0  0  0  0  1  0  0  0  0  0  0
  -29.2070  -24.2760   20.4700 C   0  0  2  0  0  0  0  0  0  0  0  0
  -28.1040  -25.2850   20.0450 C   0  0  0  0  0  2  0  0  0  0  0  0
  -28.3460  -26.7060   20.1930 O   0  0  0  0  0  0  0  0  0  0  0  0
  -24.5520  -31.9390   23.2640 C   0  0  0  0  0  0  0  0  0  0  0  0
  -27.1990  -27.4920   20.1570 C   0  0  0  0  0  0  0  0  0  0  0  0
  -23.3520  -30.5400   21.6230 C   0  0  0  0  0  3  0  0  0  0  0  0
  -24.8070  -29.0230   20.1860 C   0  0  0  0  0  0  0  0  0  0  0  0
  -25.8830  -30.9030   21.4250 C   0  0  0  0  0  2  0  0  0  0  0  0
  -25.9720  -29.5350   20.7740 C   0  0  0  0  0  0  0  0  0  0  0  0
  -27.1740  -28.7780   20.7570 C   0  0  0  0  0  3  0  0  0  0  0  0
  -26.0070  -27.0210   19.5500 C   0  0  0  0  0  3  0  0  0  0  0  0
  -24.8230  -27.7670   19.5700 C   0  0  0  0  0  3  0  0  0  0  0  0
  -23.5610  -29.8750   20.2410 C   0  0  0  0  0  2  0  0  0  0  0  0
  -24.6150  -31.1420   22.1600 N   0  0  0  0  0  0  0  0  0  0  0  0
  -23.4690  -32.1930   23.8100 O   0  0  0  0  0  0  0  0  0  0  0  0
  -22.7120  -29.5050   22.5800 C   0  0  0  0  0  0  0  0  0  0  0  0
  -21.3890  -29.3030   22.4520 N   0  0  0  0  0  0  0  0  0  0  0  0
  -23.4030  -28.8880   23.3960 O   0  0  0  0  0  0  0  0  0  0  0  0
  -20.8910  -29.8540   21.7670 H   0  0  0  0  0  0  0  0  0  0  0  0
  -18.0290  -28.0670   22.9480 C   0  0  0  0  0  0  0  0  0  0  0  0
  -20.5830  -28.3560   23.2240 C   0  0  0  0  0  3  0  0  0  0  0  0
  -20.7050  -26.9250   22.6520 C   0  0  0  0  0  2  0  0  0  0  0  0
  -19.6090  -26.5860   21.6370 C   0  0  0  0  0  2  0  0  0  0  0  0
  -18.2240  -26.7170   22.2770 C   0  0  0  0  0  2  0  0  0  0  0  0
  -19.1370  -28.8430   23.3790 C   0  0  0  0  0  0  0  0  0  0  0  0
  -18.9010  -30.1060   23.9640 C   0  0  0  0  0  3  0  0  0  0  0  0
  -17.5890  -30.5930   24.1240 C   0  0  0  0  0  3  0  0  0  0  0  0
  -16.4950  -29.8130   23.7100 C   0  0  0  0  0  3  0  0  0  0  0  0
  -16.7160  -28.5510   23.1290 C   0  0  0  0  0  3  0  0  0  0  0  0
  -25.8320  -32.5830   23.8780 C   0  0  0  0  0  3  0  0  0  0  0  0
  -25.5140  -33.9820   24.1910 N   0  0  0  0  0  0  0  0  0  0  0  0
  -25.8460  -35.0300   23.4240 C   0  0  0  0  0  0  0  0  0  0  0  0
  -26.5220  -34.9180   22.3970 O   0  0  0  0  0  0  0  0  0  0  0  0
  -24.9210  -34.1410   24.9920 H   0  0  0  0  0  0  0  0  0  0  0  0
  -24.1110  -36.8100   23.0430 C   0  0  0  0  0  1  0  0  0  0  0  0
  -25.3520  -36.4220   23.8640 C   0  0  0  0  0  3  0  0  0  0  0  0
  -27.4860  -37.3240   24.6810 C   0  0  0  0  0  1  0  0  0  0  0  0
  -26.3820  -37.4780   23.7370 N   0  0  0  0  0  0  0  0  0  0  0  0
  -25.9730  -38.3990   23.8760 H   0  0  0  0  0  0  0  0  0  0  0  0
  -26.3500  -31.8260   25.1600 C   0  0  1  0  0  0  0  0  0  0  0  0
  -25.2570  -31.5830   26.2280 C   0  0  0  0  0  1  0  0  0  0  0  0
  -26.9510  -30.4550   24.7790 C   0  0  0  0  0  1  0  0  0  0  0  0
  -27.4900  -32.6370   25.8200 C   0  0  0  0  0  1  0  0  0  0  0  0
  2  4  1  0
  3  7  1  0
  3  2  2  0
  4  8  2  0
  4  1  1  0
  5  8  1  0
  5 11  1  0
  6  3  1  0
  7  5  2  0
 11  9  1  1
 11 10  1  0
 12 11  1  0
 13 18  1  0
 14 15  1  0
 14 13  1  0
 16 15  1  0
 16 23  1  0
 16 17  1  0
 18 12  1  0
 18 17  1  0
 19 12  2  0
 20 21  2  0
 21 40  1  0
 22 21  1  0
 22 25  1  0
 23 24  1  0
 23 20  1  0
 24 22  2  0
 25 26  1  0
 26 27  2  0
 28 31  1  0
 28 27  1  0
 29 28  2  0
 30 29  1  0
 30 25  2  0
 31 32  1  0
 32 33  1  0
 33 34  2  0
 35 34  1  0
 35 39  1  0
 36 35  2  0
 37 32  2  0
 37 36  1  0
 38 37  1  0
 40 41  1  0
 41 44  1  0
 41 43  1  0
 42 40  2  0
 45 20  1  0
 45 46  1  0
 47 45  1  0
 48  1  1  0
 49 48  1  0
 52 50  1  6
 52 49  1  0
 52 51  1  0
 53 54  1  0
 53 52  1  0
 55 66  2  0
 56 54  1  0
 56 61  1  0
 57 65  1  0
 57 67  1  0
 58 64  1  0
 58 60  1  0
 59 65  1  0
 60 59  1  0
 61 60  2  0
 62 63  1  0
 62 56  2  0
 63 58  2  0
 64 57  1  0
 65 55  1  0
 67 69  2  0
 68 67  1  0
 70 68  1  0
 71 80  2  0
 71 76  1  0
 72 68  1  0
 72 76  1  0
 73 72  1  0
 74 75  1  0
 74 73  1  0
 75 71  1  0
 76 77  2  0
 77 78  1  0
 79 78  2  0
 80 79  1  0
 81 55  1  0
 81 82  1  0
 81 91  1  0
 82 85  1  0
 83 87  1  0
 83 82  1  0
 84 83  2  0
 87 86  1  0
 89 87  1  0
 89 90  1  0
 89 88  1  0
 91 94  1  1
 91 92  1  0
 93 91  1  0
M  ISO  4  11 100  12 100  53 101  54 101
M  END
>  <TORSDO>  (74) 
F 22

>  <SCORE>  (74) 
-9.409

>  <name>  (74) 
73

>  <ligand_id>  (74) 
73

>  <original_smiles>  (74) 
[H]c1c(C([H])([H])[H])nc(C(C(=O)N2C([H])([H])C([H])([H])C([H])([H])C([H])(n3nc(-c4c([H])c([H])c(Oc5c([H])c([H])c(F)c([H])c5F)c([H])c4[H])c(C(=O)N([H])[H])c3N([H])[H])C2([H])[H])(C([H])([H])[H])C([H])([H])[H])nc1C([H])([H])C([H])([H])C([H])([H])C(C([H])([H])[H])(C([H])([H])[H])C([H])([H])Oc1c([H])c([H])c2c(c1[H])C([H])([H])N(C(=O)C([H])(N([H])C(=O)C([H])(N([H])C([H])([H])[H])C([H])([H])[H])C(C([H])([H])[H])(C([H])([H])[H])C([H])([H])[H])C([H])(C(=O)N([H])C1([H])c3c([H])c([H])c([H])c([H])c3C([H])([H])C([H])([H])C1([H])[H])C2([H])[H]

>  <smiles>  (74) 
[H]c1c(C([H])([H])[H])nc(C(C(=O)N2C([H])([H])C([H])([H])C([H])([H])C([H])(n3nc(-c4c([H])c([H])c(Oc5c([H])c([H])c(F)c([H])c5F)c([H])c4[H])c(C(=O)N([H])[H])c3N([H])[H])C2([H])[H])(C([H])([H])[H])C([H])([H])[H])nc1C([H])([H])C([H])([H])C([H])([H])C(C([H])([H])[H])(C([H])([H])[H])C([H])([H])Oc1c([H])c([H])c2c(c1[H])C([H])([H])N(C(=O)C([H])(N([H])C(=O)C([H])(N([H])C([H])([H])[H])C([H])([H])[H])C(C([H])([H])[H])(C([H])([H])[H])C([H])([H])[H])C([H])(C(=O)N([H])C1([H])c3c([H])c([H])c([H])c([H])c3C([H])([H])C([H])([H])C1([H])[H])C2([H])[H]

$$$$
74:0:0
     RDKit          3D

 92100  0  0  1  0  0  0  0  0999 V2000
  -29.2150  -20.6360   19.9060 C   0  0  0  0  0  3  0  0  0  0  0  0
  -29.2600  -21.9900   20.5230 C   0  0  0  0  0  0  0  0  0  0  0  0
  -29.8170  -19.4240   20.5170 C   0  0  0  0  0  0  0  0  0  0  0  0
  -29.9430  -21.9440   21.7700 C   0  0  0  0  0  0  0  0  0  0  0  0
  -30.2310  -23.1800   22.6000 C   0  0  0  0  0  1  0  0  0  0  0  0
  -30.4390  -19.6190   21.7010 N   0  0  0  0  0  0  0  0  0  0  0  0
  -30.4660  -20.8090   22.3120 N   0  0  0  0  0  0  0  0  0  0  0  0
  -28.1120  -23.2170   18.5220 C   0  0  0  0  0  1  0  0  0  0  0  0
  -28.8480  -23.4500   19.8510 C   0  0  0  0  0  3  0  0  0  0  0  0
  -28.1110  -24.7570   20.6130 C   0  0  0  0  0  2  0  0  0  0  0  0
  -28.3040  -26.2570   20.2760 O   0  0  0  0  0  0  0  0  0  0  0  0
  -24.5550  -31.8870   23.1970 C   0  0  0  0  0  0  0  0  0  0  0  0
  -27.2160  -27.1910   20.2500 C   0  0  0  0  0  0  0  0  0  0  0  0
  -23.3880  -30.4710   21.5480 C   0  0  0  0  0  3  0  0  0  0  0  0
  -24.8690  -28.8910   20.1670 C   0  0  0  0  0  0  0  0  0  0  0  0
  -25.9390  -30.7590   21.4200 C   0  0  0  0  0  2  0  0  0  0  0  0
  -26.0350  -29.3630   20.7840 C   0  0  0  0  0  0  0  0  0  0  0  0
  -27.2120  -28.5300   20.8030 C   0  0  0  0  0  3  0  0  0  0  0  0
  -26.0260  -26.8070   19.5980 C   0  0  0  0  0  3  0  0  0  0  0  0
  -24.8750  -27.6250   19.5600 C   0  0  0  0  0  3  0  0  0  0  0  0
  -23.6360  -29.7820   20.1800 C   0  0  0  0  0  2  0  0  0  0  0  0
  -24.6460  -31.0610   22.1100 N   0  0  0  0  0  0  0  0  0  0  0  0
  -23.4580  -32.1680   23.7050 O   0  0  0  0  0  0  0  0  0  0  0  0
  -22.7010  -29.4670   22.5060 C   0  0  0  0  0  0  0  0  0  0  0  0
  -21.3770  -29.2850   22.3540 N   0  0  0  0  0  0  0  0  0  0  0  0
  -23.3620  -28.8530   23.3480 O   0  0  0  0  0  0  0  0  0  0  0  0
  -20.9010  -29.8310   21.6490 H   0  0  0  0  0  0  0  0  0  0  0  0
  -17.9980  -28.0610   22.7910 C   0  0  0  0  0  0  0  0  0  0  0  0
  -20.5460  -28.3510   23.1170 C   0  0  0  0  0  3  0  0  0  0  0  0
  -20.6750  -26.9130   22.5660 C   0  0  0  0  0  2  0  0  0  0  0  0
  -19.6020  -26.5650   21.5290 C   0  0  0  0  0  2  0  0  0  0  0  0
  -18.2040  -26.7050   22.1370 C   0  0  0  0  0  2  0  0  0  0  0  0
  -19.0970  -28.8400   23.2370 C   0  0  0  0  0  0  0  0  0  0  0  0
  -18.8510  -30.1070   23.8090 C   0  0  0  0  0  3  0  0  0  0  0  0
  -17.5380  -30.5960   23.9400 C   0  0  0  0  0  3  0  0  0  0  0  0
  -16.4510  -29.8140   23.5100 C   0  0  0  0  0  3  0  0  0  0  0  0
  -16.6820  -28.5480   22.9410 C   0  0  0  0  0  3  0  0  0  0  0  0
  -25.8190  -32.5320   23.8410 C   0  0  0  0  0  3  0  0  0  0  0  0
  -26.3200  -31.7640   25.1260 C   0  0  1  0  0  0  0  0  0  0  0  0
  -25.2120  -31.5150   26.1750 C   0  0  0  0  0  1  0  0  0  0  0  0
  -26.9240  -30.3910   24.7480 C   0  0  0  0  0  1  0  0  0  0  0  0
  -27.4510  -32.5700   25.8090 C   0  0  0  0  0  1  0  0  0  0  0  0
  -25.4900  -33.9270   24.1720 N   0  0  0  0  0  0  0  0  0  0  0  0
  -25.8250  -34.9880   23.4250 C   0  0  0  0  0  0  0  0  0  0  0  0
  -26.5110  -34.8950   22.4030 O   0  0  0  0  0  0  0  0  0  0  0  0
  -24.8810  -34.0720   24.9630 H   0  0  0  0  0  0  0  0  0  0  0  0
  -24.0890  -36.7740   23.0610 C   0  0  0  0  0  1  0  0  0  0  0  0
  -25.3230  -36.3700   23.8850 C   0  0  0  0  0  3  0  0  0  0  0  0
  -27.4370  -37.2690   24.7540 C   0  0  0  0  0  1  0  0  0  0  0  0
  -26.3490  -37.4310   23.7930 N   0  0  0  0  0  0  0  0  0  0  0  0
  -25.9330  -38.3480   23.9380 H   0  0  0  0  0  0  0  0  0  0  0  0
  -31.3710  -18.0730   18.9980 C   0  0  0  0  0  1  0  0  0  0  0  0
  -30.0910  -17.9370   19.8380 C   0  0  0  0  0  3  0  0  0  0  0  0
  -28.6290  -16.3550   21.2050 C   0  0  0  0  0  1  0  0  0  0  0  0
  -30.9680  -16.5700   21.9230 C   0  0  0  0  0  1  0  0  0  0  0  0
  -30.0670  -16.4420   20.6670 C   0  0  2  0  0  0  0  0  0  0  0  0
  -30.5960  -14.9800   20.0030 C   0  0  0  0  0  0  0  0  0  0  0  0
  -30.3830  -12.6710   18.9470 C   0  0  0  0  0  2  0  0  0  0  0  0
  -29.3760  -12.6840   17.7720 C   0  0  0  0  0  2  0  0  0  0  0  0
  -27.9380  -12.4520   18.2760 C   0  0  0  0  0  2  0  0  0  0  0  0
  -27.6130  -13.3210   19.5170 C   0  0  0  0  0  3  0  0  0  0  0  0
  -28.7390  -13.2330   20.5700 C   0  0  0  0  0  2  0  0  0  0  0  0
  -29.9750  -13.7210   19.9340 N   0  0  0  0  0  0  0  0  0  0  0  0
  -31.7270  -15.0060   19.5040 O   0  0  0  0  0  0  0  0  0  0  0  0
  -25.2720  -13.8860   20.3940 C   0  0  0  0  0  0  0  0  0  0  0  0
  -24.2360  -13.1030   20.8150 C   0  0  0  0  0  0  0  0  0  0  0  0
  -24.7010  -11.7540   20.7340 C   0  0  0  0  0  0  0  0  0  0  0  0
  -26.3050  -13.0160   20.0810 N   0  0  0  0  0  0  0  0  0  0  0  0
  -25.9720  -11.7270   20.3490 N   0  0  0  0  0  0  0  0  0  0  0  0
  -23.9890  -10.4870   20.9410 C   0  0  0  0  0  0  0  0  0  0  0  0
  -24.4450   -9.5240   21.8680 C   0  0  0  0  0  3  0  0  0  0  0  0
  -23.7300   -8.3240   22.0620 C   0  0  0  0  0  3  0  0  0  0  0  0
  -22.5450   -8.0760   21.3290 C   0  0  0  0  0  0  0  0  0  0  0  0
  -22.1100   -9.0260   20.3900 C   0  0  0  0  0  3  0  0  0  0  0  0
  -22.8250  -10.2190   20.1930 C   0  0  0  0  0  3  0  0  0  0  0  0
  -21.7990   -6.9270   21.4330 O   0  0  0  0  0  0  0  0  0  0  0  0
  -21.7390   -6.2120   22.6030 C   0  0  0  0  0  0  0  0  0  0  0  0
  -21.2790   -6.7900   23.8070 C   0  0  0  0  0  3  0  0  0  0  0  0
  -21.1670   -6.0010   24.9690 C   0  0  0  0  0  3  0  0  0  0  0  0
  -21.5050   -4.6360   24.9290 C   0  0  0  0  0  0  0  0  0  0  0  0
  -21.9600   -4.0580   23.7320 C   0  0  0  0  0  3  0  0  0  0  0  0
  -22.0720   -4.8430   22.5710 C   0  0  0  0  0  0  0  0  0  0  0  0
  -22.4900   -4.2760   21.4130 F   0  0  0  0  0  0  0  0  0  0  0  0
  -21.3910   -3.8770   26.0440 F   0  0  0  0  0  0  0  0  0  0  0  0
  -22.8540  -13.5690   21.1750 C   0  0  0  0  0  0  0  0  0  0  0  0
  -22.1790  -12.8540   22.0660 N   0  0  0  0  0  0  0  0  0  0  0  0
  -22.3860  -14.6040   20.7010 O   0  0  0  0  0  0  0  0  0  0  0  0
  -22.5740  -12.0170   22.4700 H   0  0  0  0  0  0  0  0  0  0  0  0
  -21.2550  -13.1450   22.3480 H   0  0  0  0  0  0  0  0  0  0  0  0
  -25.4100  -15.2610   20.2230 N   0  0  0  0  0  0  0  0  0  0  0  0
  -24.6440  -15.9060   20.3850 H   0  0  0  0  0  0  0  0  0  0  0  0
  -26.2280  -15.7100   19.8380 H   0  0  0  0  0  0  0  0  0  0  0  0
  1  3  2  0
  1  2  1  0
  2  4  2  0
  3  6  1  0
  4  7  1  0
  4  5  1  0
  6  7  2  0
  9  8  1  0
  9  2  1  0
  9 10  1  0
 11 10  1  0
 12 23  2  0
 13 11  1  0
 13 18  1  0
 14 22  1  0
 14 24  1  0
 15 21  1  0
 15 17  1  0
 16 22  1  0
 17 18  2  0
 17 16  1  0
 19 13  2  0
 20 19  1  0
 20 15  2  0
 21 14  1  0
 22 12  1  0
 24 26  2  0
 25 24  1  0
 27 25  1  0
 28 37  2  0
 28 33  1  0
 29 25  1  0
 29 33  1  0
 30 29  1  0
 31 32  1  0
 31 30  1  0
 32 28  1  0
 33 34  2  0
 34 35  1  0
 36 35  2  0
 37 36  1  0
 38 12  1  0
 38 43  1  0
 38 39  1  0
 39 42  1  1
 39 40  1  0
 41 39  1  0
 43 46  1  0
 44 48  1  0
 44 43  1  0
 45 44  2  0
 48 47  1  0
 50 48  1  0
 50 51  1  0
 50 49  1  0
 53 52  1  0
 53  3  1  0
 53 56  1  0
 56 54  1  1
 56 55  1  0
 57 56  1  0
 58 63  1  0
 59 60  1  0
 59 58  1  0
 61 60  1  0
 61 68  1  0
 61 62  1  0
 63 57  1  0
 63 62  1  0
 64 57  2  0
 65 66  2  0
 66 85  1  0
 67 66  1  0
 67 70  1  0
 68 69  1  0
 68 65  1  0
 69 67  2  0
 70 71  1  0
 71 72  2  0
 73 76  1  0
 73 72  1  0
 74 73  2  0
 75 74  1  0
 75 70  2  0
 76 77  1  0
 77 78  1  0
 78 79  2  0
 80 79  1  0
 80 84  1  0
 81 80  2  0
 82 77  2  0
 82 81  1  0
 83 82  1  0
 85 86  1  0
 86 89  1  0
 86 88  1  0
 87 85  2  0
 90 91  1  0
 90 65  1  0
 92 90  1  0
M  ISO  4  10 101  11 101  56 100  57 100
M  END
>  <TORSDO>  (75) 
F 20

>  <SCORE>  (75) 
-14.144

>  <name>  (75) 
74

>  <ligand_id>  (75) 
74

>  <original_smiles>  (75) 
[H]c1c([H])c([H])c2c(c1[H])C([H])([H])C([H])([H])C([H])([H])C2([H])N([H])C(=O)C1([H])N(C(=O)C([H])(N([H])C(=O)C([H])(N([H])C([H])([H])[H])C([H])([H])[H])C(C([H])([H])[H])(C([H])([H])[H])C([H])([H])[H])C([H])([H])c2c([H])c(OC([H])([H])C([H])(c3c(C([H])([H])[H])nnc(C([H])(C([H])([H])[H])C(C(=O)N4C([H])([H])C([H])([H])C([H])([H])C([H])(n5nc(-c6c([H])c([H])c(Oc7c([H])c([H])c(F)c([H])c7F)c([H])c6[H])c(C(=O)N([H])[H])c5N([H])[H])C4([H])[H])(C([H])([H])[H])C([H])([H])[H])c3[H])C([H])([H])[H])c([H])c([H])c2C1([H])[H]

>  <smiles>  (75) 
[H]c1c([H])c([H])c2c(c1[H])C([H])([H])C([H])([H])C([H])([H])C2([H])N([H])C(=O)C1([H])N(C(=O)C([H])(N([H])C(=O)C([H])(N([H])C([H])([H])[H])C([H])([H])[H])C(C([H])([H])[H])(C([H])([H])[H])C([H])([H])[H])C([H])([H])c2c([H])c(OC([H])([H])C([H])(c3c(C([H])([H])[H])nnc(C([H])(C([H])([H])[H])C(C(=O)N4C([H])([H])C([H])([H])C([H])([H])C([H])(n5nc(-c6c([H])c([H])c(Oc7c([H])c([H])c(F)c([H])c7F)c([H])c6[H])c(C(=O)N([H])[H])c5N([H])[H])C4([H])[H])(C([H])([H])[H])C([H])([H])[H])c3[H])C([H])([H])[H])c([H])c([H])c2C1([H])[H]

$$$$
75:0:0
     RDKit          3D

 88 96  0  0  1  0  0  0  0  0999 V2000
  -28.7010  -21.6960   20.1230 C   0  0  0  0  0  3  0  0  0  0  0  0
  -28.9640  -23.3370   20.4950 C   0  0  0  0  0  3  0  0  0  0  0  0
  -27.9900  -24.6610   20.0800 C   0  0  0  0  0  3  0  0  0  0  0  0
  -28.2420  -26.1860   20.3230 O   0  0  0  0  0  0  0  0  0  0  0  0
  -24.6410  -31.9110   23.2640 C   0  0  0  0  0  0  0  0  0  0  0  0
  -27.1940  -27.1760   20.2380 C   0  0  0  0  0  0  0  0  0  0  0  0
  -23.4350  -30.5180   21.6270 C   0  0  0  0  0  3  0  0  0  0  0  0
  -24.8730  -28.9330   20.2020 C   0  0  0  0  0  0  0  0  0  0  0  0
  -25.9900  -30.7690   21.4650 C   0  0  0  0  0  2  0  0  0  0  0  0
  -26.0550  -29.3760   20.8090 C   0  0  0  0  0  0  0  0  0  0  0  0
  -27.2170  -28.5150   20.8080 C   0  0  0  0  0  3  0  0  0  0  0  0
  -25.9850  -26.8370   19.5910 C   0  0  0  0  0  3  0  0  0  0  0  0
  -24.8500  -27.6770   19.5780 C   0  0  0  0  0  3  0  0  0  0  0  0
  -23.6500  -29.8340   20.2500 C   0  0  0  0  0  2  0  0  0  0  0  0
  -24.7080  -31.0880   22.1720 N   0  0  0  0  0  0  0  0  0  0  0  0
  -23.5570  -32.2030   23.7910 O   0  0  0  0  0  0  0  0  0  0  0  0
  -22.7500  -29.5180   22.5910 C   0  0  0  0  0  0  0  0  0  0  0  0
  -21.4210  -29.3500   22.4600 N   0  0  0  0  0  0  0  0  0  0  0  0
  -23.4160  -28.8970   23.4230 O   0  0  0  0  0  0  0  0  0  0  0  0
  -20.9390  -29.9070   21.7690 H   0  0  0  0  0  0  0  0  0  0  0  0
  -18.0350  -28.1580   22.9530 C   0  0  0  0  0  0  0  0  0  0  0  0
  -20.5930  -28.4180   23.2300 C   0  0  0  0  0  3  0  0  0  0  0  0
  -20.6950  -26.9840   22.6630 C   0  0  0  0  0  2  0  0  0  0  0  0
  -19.5980  -26.6570   21.6450 C   0  0  0  0  0  2  0  0  0  0  0  0
  -18.2140  -26.8050   22.2830 C   0  0  0  0  0  2  0  0  0  0  0  0
  -19.1530  -28.9230   23.3830 C   0  0  0  0  0  0  0  0  0  0  0  0
  -18.9320  -30.1870   23.9700 C   0  0  0  0  0  3  0  0  0  0  0  0
  -17.6250  -30.6870   24.1320 C   0  0  0  0  0  3  0  0  0  0  0  0
  -16.5230  -29.9200   23.7170 C   0  0  0  0  0  3  0  0  0  0  0  0
  -16.7290  -28.6570   23.1330 C   0  0  0  0  0  3  0  0  0  0  0  0
  -25.9220  -32.5400   23.8920 C   0  0  0  0  0  3  0  0  0  0  0  0
  -26.4160  -31.7780   25.1840 C   0  0  1  0  0  0  0  0  0  0  0  0
  -25.3080  -31.5680   26.2440 C   0  0  0  0  0  1  0  0  0  0  0  0
  -26.9870  -30.3880   24.8220 C   0  0  0  0  0  1  0  0  0  0  0  0
  -27.5680  -32.5710   25.8450 C   0  0  0  0  0  1  0  0  0  0  0  0
  -25.6200  -33.9450   24.2100 N   0  0  0  0  0  0  0  0  0  0  0  0
  -25.9560  -34.9920   23.4460 C   0  0  0  0  0  0  0  0  0  0  0  0
  -26.6190  -34.8770   22.4110 O   0  0  0  0  0  0  0  0  0  0  0  0
  -25.0240  -34.1040   25.0090 H   0  0  0  0  0  0  0  0  0  0  0  0
  -24.2340  -36.7980   23.1010 C   0  0  0  0  0  1  0  0  0  0  0  0
  -25.4830  -36.3890   23.8980 C   0  0  0  0  0  3  0  0  0  0  0  0
  -27.6320  -37.2700   24.7000 C   0  0  0  0  0  1  0  0  0  0  0  0
  -26.5200  -37.4350   23.7660 N   0  0  0  0  0  0  0  0  0  0  0  0
  -26.1220  -38.3600   23.9030 H   0  0  0  0  0  0  0  0  0  0  0  0
  -29.6470  -20.3930   20.6580 C   0  0  0  0  0  3  0  0  0  0  0  0
  -30.4060  -17.7340   20.7070 C   0  0  0  0  0  3  0  0  0  0  0  0
  -29.8820  -16.4670   20.3360 C   0  0  0  0  0  0  0  0  0  0  0  0
  -28.4370  -18.1640   19.8230 C   0  0  0  0  0  3  0  0  0  0  0  0
  -27.1950  -18.8090   19.3050 C   0  0  0  0  0  1  0  0  0  0  0  0
  -29.4960  -18.8000   20.3880 N   0  0  0  0  0  0  0  0  0  0  0  0
  -28.6830  -16.8190   19.7600 N   0  0  0  0  0  0  0  0  0  0  0  0
  -28.1050  -16.1640   19.2540 H   0  0  0  0  0  0  0  0  0  0  0  0
  -30.5800  -15.0130   20.2800 C   0  0  0  0  0  0  0  0  0  0  0  0
  -30.4160  -12.6490   19.3770 C   0  0  0  0  0  2  0  0  0  0  0  0
  -29.4780  -12.5830   18.1510 C   0  0  0  0  0  2  0  0  0  0  0  0
  -28.0140  -12.3860   18.5830 C   0  0  0  0  0  2  0  0  0  0  0  0
  -27.6110  -13.3110   19.7620 C   0  0  0  0  0  3  0  0  0  0  0  0
  -28.6780  -13.3640   20.8710 C   0  0  0  0  0  2  0  0  0  0  0  0
  -29.9460  -13.7660   20.2500 N   0  0  0  0  0  0  0  0  0  0  0  0
  -31.7970  -15.0000   20.0710 O   0  0  0  0  0  0  0  0  0  0  0  0
  -25.2370  -13.8700   20.5420 C   0  0  0  0  0  0  0  0  0  0  0  0
  -24.1790  -13.0860   20.9070 C   0  0  0  0  0  0  0  0  0  0  0  0
  -24.6520  -11.7380   20.8640 C   0  0  0  0  0  0  0  0  0  0  0  0
  -26.2830  -13.0000   20.2820 N   0  0  0  0  0  0  0  0  0  0  0  0
  -25.9420  -11.7110   20.5470 N   0  0  0  0  0  0  0  0  0  0  0  0
  -23.9320  -10.4710   21.0520 C   0  0  0  0  0  0  0  0  0  0  0  0
  -24.3780   -9.5000   21.9760 C   0  0  0  0  0  3  0  0  0  0  0  0
  -23.6580   -8.2990   22.1540 C   0  0  0  0  0  3  0  0  0  0  0  0
  -22.4780   -8.0610   21.4100 C   0  0  0  0  0  0  0  0  0  0  0  0
  -22.0510   -9.0220   20.4780 C   0  0  0  0  0  3  0  0  0  0  0  0
  -22.7710  -10.2150   20.2980 C   0  0  0  0  0  3  0  0  0  0  0  0
  -21.7280   -6.9120   21.4980 O   0  0  0  0  0  0  0  0  0  0  0  0
  -21.6910   -6.1620   22.6460 C   0  0  0  0  0  0  0  0  0  0  0  0
  -21.2570   -6.7040   23.8750 C   0  0  0  0  0  3  0  0  0  0  0  0
  -21.1690   -5.8810   25.0150 C   0  0  0  0  0  3  0  0  0  0  0  0
  -21.5040   -4.5170   24.9270 C   0  0  0  0  0  0  0  0  0  0  0  0
  -21.9260   -3.9730   23.7010 C   0  0  0  0  0  3  0  0  0  0  0  0
  -22.0180   -4.7940   22.5640 C   0  0  0  0  0  0  0  0  0  0  0  0
  -22.4080   -4.2610   21.3800 F   0  0  0  0  0  0  0  0  0  0  0  0
  -21.4080   -3.7230   26.0200 F   0  0  0  0  0  0  0  0  0  0  0  0
  -22.7830  -13.5550   21.1950 C   0  0  0  0  0  0  0  0  0  0  0  0
  -22.0670  -12.8510   22.0630 N   0  0  0  0  0  0  0  0  0  0  0  0
  -22.3380  -14.5830   20.6840 O   0  0  0  0  0  0  0  0  0  0  0  0
  -22.4400  -12.0200   22.5000 H   0  0  0  0  0  0  0  0  0  0  0  0
  -21.1280  -13.1440   22.2940 H   0  0  0  0  0  0  0  0  0  0  0  0
  -25.3910  -15.2450   20.3900 N   0  0  0  0  0  0  0  0  0  0  0  0
  -24.6260  -15.8810   20.5850 H   0  0  0  0  0  0  0  0  0  0  0  0
  -26.2790  -15.7120   20.3410 H   0  0  0  0  0  0  0  0  0  0  0  0
  1  2  1  0
  1 45  2  0
  3  4  1  0
  3  2  2  0
  5 16  2  0
  6  4  1  0
  6 11  1  0
  7 15  1  0
  7 17  1  0
  8 14  1  0
  8 10  1  0
  9 15  1  0
 10  9  1  0
 11 10  2  0
 12  6  2  0
 13 12  1  0
 13  8  2  0
 14  7  1  0
 15  5  1  0
 17 19  2  0
 18 17  1  0
 20 18  1  0
 21 30  2  0
 21 26  1  0
 22 18  1  0
 22 26  1  0
 23 22  1  0
 24 25  1  0
 24 23  1  0
 25 21  1  0
 26 27  2  0
 27 28  1  0
 29 28  2  0
 30 29  1  0
 31  5  1  0
 31 36  1  0
 31 32  1  0
 32 35  1  1
 32 33  1  0
 34 32  1  0
 36 39  1  0
 37 41  1  0
 37 36  1  0
 38 37  2  0
 41 40  1  0
 43 41  1  0
 43 44  1  0
 43 42  1  0
 47 46  2  0
 48 49  1  0
 48 50  1  0
 50 45  1  0
 50 46  1  0
 51 48  1  0
 51 47  1  0
 52 51  1  0
 53 47  1  0
 54 59  1  0
 55 56  1  0
 55 54  1  0
 57 56  1  0
 57 64  1  0
 57 58  1  0
 59 53  1  0
 59 58  1  0
 60 53  2  0
 61 62  2  0
 62 81  1  0
 63 62  1  0
 63 66  1  0
 64 61  1  0
 64 65  1  0
 65 63  2  0
 66 67  1  0
 67 68  2  0
 69 72  1  0
 69 68  1  0
 70 69  2  0
 71 70  1  0
 71 66  2  0
 72 73  1  0
 73 74  1  0
 74 75  2  0
 76 75  1  0
 76 80  1  0
 77 76  2  0
 78 73  2  0
 78 77  1  0
 79 78  1  0
 81 82  1  0
 82 85  1  0
 82 84  1  0
 83 81  2  0
 86 61  1  0
 86 87  1  0
 88 86  1  0
M  ISO  4   3 101   4 101  47 100  53 100
M  END
>  <TORSDO>  (76) 
F 20

>  <SCORE>  (76) 
-15.578

>  <name>  (76) 
75

>  <ligand_id>  (76) 
75

>  <original_smiles>  (76) 
[H]c1c([H])c([H])c2c(c1[H])C([H])([H])C([H])([H])C([H])([H])C2([H])N([H])C(=O)C1([H])N(C(=O)C([H])(N([H])C(=O)C([H])(N([H])C([H])([H])[H])C([H])([H])[H])C(C([H])([H])[H])(C([H])([H])[H])C([H])([H])[H])C([H])([H])c2c([H])c(OC([H])([H])C([H])([H])C([H])([H])C([H])([H])n3c([H])c(C(=O)N4C([H])([H])C([H])([H])C([H])([H])C([H])(n5nc(-c6c([H])c([H])c(Oc7c([H])c([H])c(F)c([H])c7F)c([H])c6[H])c(C(=O)N([H])[H])c5N([H])[H])C4([H])[H])[n+]([H])c3C([H])([H])[H])c([H])c([H])c2C1([H])[H]

>  <smiles>  (76) 
[H]c1c([H])c([H])c2c(c1[H])C([H])([H])C([H])([H])C([H])([H])C2([H])N([H])C(=O)C1([H])N(C(=O)C([H])(N([H])C(=O)C([H])(N([H])C([H])([H])[H])C([H])([H])[H])C(C([H])([H])[H])(C([H])([H])[H])C([H])([H])[H])C([H])([H])c2c([H])c(OC([H])([H])C([H])([H])C([H])([H])C([H])([H])n3c([H])c(C(=O)N4C([H])([H])C([H])([H])C([H])([H])C([H])(n5nc(-c6c([H])c([H])c(Oc7c([H])c([H])c(F)c([H])c7F)c([H])c6[H])c(C(=O)N([H])[H])c5N([H])[H])C4([H])[H])[n+]([H])c3C([H])([H])[H])c([H])c([H])c2C1([H])[H]

$$$$
76:0:0
     RDKit          3D

 97105  0  0  1  0  0  0  0  0999 V2000
  -30.0630  -20.6220   20.1230 C   0  0  0  0  0  3  0  0  0  0  0  0
  -29.1190  -21.6470   19.7950 C   0  0  0  0  0  0  0  0  0  0  0  0
  -29.6590  -19.2550   20.2470 C   0  0  0  0  0  0  0  0  0  0  0  0
  -27.7650  -21.2540   19.6810 C   0  0  0  0  0  0  0  0  0  0  0  0
  -28.2690  -19.0220   20.1220 C   0  0  0  0  0  0  0  0  0  0  0  0
  -27.3660  -19.9910   19.8970 N   0  0  0  0  0  0  0  0  0  0  0  0
  -32.1210  -18.4630   20.0870 C   0  0  0  0  0  1  0  0  0  0  0  0
  -30.6560  -18.0480   20.3040 C   0  0  0  0  0  3  0  0  0  0  0  0
  -30.5420  -17.0840   21.5430 C   0  0  0  0  0  2  0  0  0  0  0  0
  -30.8940  -14.7010   20.6230 C   0  0  0  0  0  0  0  0  0  0  0  0
  -30.6010  -12.5990   19.3390 C   0  0  0  0  0  2  0  0  0  0  0  0
  -29.6450  -12.8530   18.1540 C   0  0  0  0  0  2  0  0  0  0  0  0
  -28.1740  -12.6860   18.5870 C   0  0  0  0  0  2  0  0  0  0  0  0
  -27.8450  -13.4500   19.8970 C   0  0  0  0  0  3  0  0  0  0  0  0
  -28.9120  -13.1700   20.9790 C   0  0  0  0  0  2  0  0  0  0  0  0
  -30.2270  -13.5260   20.4180 N   0  0  0  0  0  0  0  0  0  0  0  0
  -32.0210  -14.9130   20.1700 O   0  0  0  0  0  0  0  0  0  0  0  0
  -30.1820  -15.6730   21.2350 N   0  0  0  0  0  0  0  0  0  0  0  0
  -29.2670  -15.3820   21.5440 H   0  0  0  0  0  0  0  0  0  0  0  0
  -25.4360  -14.0010   20.6200 C   0  0  0  0  0  0  0  0  0  0  0  0
  -24.3750  -13.2110   20.9650 C   0  0  0  0  0  0  0  0  0  0  0  0
  -24.8560  -11.8690   20.9030 C   0  0  0  0  0  0  0  0  0  0  0  0
  -26.4940  -13.1420   20.3680 N   0  0  0  0  0  0  0  0  0  0  0  0
  -26.1470  -11.8500   20.5990 N   0  0  0  0  0  0  0  0  0  0  0  0
  -24.1440  -10.5990   21.0660 C   0  0  0  0  0  0  0  0  0  0  0  0
  -24.5470   -9.6460   22.0260 C   0  0  0  0  0  3  0  0  0  0  0  0
  -23.8330   -8.4380   22.1770 C   0  0  0  0  0  3  0  0  0  0  0  0
  -22.7020   -8.1760   21.3670 C   0  0  0  0  0  0  0  0  0  0  0  0
  -22.3180   -9.1200   20.3980 C   0  0  0  0  0  3  0  0  0  0  0  0
  -23.0340  -10.3190   20.2460 C   0  0  0  0  0  3  0  0  0  0  0  0
  -21.9640   -7.0180   21.4240 O   0  0  0  0  0  0  0  0  0  0  0  0
  -21.8250   -6.3110   22.5910 C   0  0  0  0  0  0  0  0  0  0  0  0
  -21.2140   -6.8710   23.7340 C   0  0  0  0  0  3  0  0  0  0  0  0
  -21.0300   -6.0860   24.8890 C   0  0  0  0  0  3  0  0  0  0  0  0
  -21.4480   -4.7410   24.9010 C   0  0  0  0  0  0  0  0  0  0  0  0
  -22.0530   -4.1810   23.7620 C   0  0  0  0  0  3  0  0  0  0  0  0
  -22.2390   -4.9640   22.6090 C   0  0  0  0  0  0  0  0  0  0  0  0
  -22.8030   -4.4130   21.5070 F   0  0  0  0  0  0  0  0  0  0  0  0
  -21.2640   -3.9840   26.0070 F   0  0  0  0  0  0  0  0  0  0  0  0
  -22.9740  -13.6730   21.2400 C   0  0  0  0  0  0  0  0  0  0  0  0
  -22.2520  -12.9510   22.0890 N   0  0  0  0  0  0  0  0  0  0  0  0
  -22.5290  -14.7050   20.7420 O   0  0  0  0  0  0  0  0  0  0  0  0
  -22.6280  -12.1150   22.5110 H   0  0  0  0  0  0  0  0  0  0  0  0
  -21.3120  -13.2390   22.3210 H   0  0  0  0  0  0  0  0  0  0  0  0
  -25.5720  -15.3700   20.4820 N   0  0  0  0  0  0  0  0  0  0  0  0
  -24.7870  -16.0030   20.5990 H   0  0  0  0  0  0  0  0  0  0  0  0
  -26.4010  -15.8190   20.1220 H   0  0  0  0  0  0  0  0  0  0  0  0
  -27.7760  -17.0930   18.5880 C   0  0  0  0  0  1  0  0  0  0  0  0
  -27.6630  -17.6420   20.0200 C   0  0  0  0  0  2  0  0  0  0  0  0
  -26.3600  -21.8380   17.6550 C   0  0  0  0  0  1  0  0  0  0  0  0
  -26.6490  -22.1370   19.1330 C   0  0  0  0  0  2  0  0  0  0  0  0
  -29.5870  -23.0590   19.3540 C   0  0  0  0  0  2  0  0  0  0  0  0
  -28.6280  -24.0220   21.5850 C   0  0  0  0  0  1  0  0  0  0  0  0
  -30.8250  -24.7940   20.7170 C   0  0  0  0  0  1  0  0  0  0  0  0
  -29.4170  -24.3300   20.2940 C   0  0  1  0  0  0  0  0  0  0  0  0
  -28.7530  -25.5190   19.5080 C   0  0  0  0  0  2  0  0  0  0  0  0
  -28.5540  -26.7440   20.2680 O   0  0  0  0  0  0  0  0  0  0  0  0
  -24.6340  -31.8960   23.3000 C   0  0  0  0  0  0  0  0  0  0  0  0
  -27.3660  -27.4680   20.2130 C   0  0  0  0  0  0  0  0  0  0  0  0
  -23.4760  -30.5130   21.6150 C   0  0  0  0  0  3  0  0  0  0  0  0
  -24.9700  -29.0080   20.1970 C   0  0  0  0  0  0  0  0  0  0  0  0
  -26.0110  -30.8720   21.4900 C   0  0  0  0  0  2  0  0  0  0  0  0
  -26.1140  -29.5100   20.8260 C   0  0  0  0  0  0  0  0  0  0  0  0
  -27.3090  -28.7460   20.8330 C   0  0  0  0  0  3  0  0  0  0  0  0
  -26.1840  -26.9910   19.5920 C   0  0  0  0  0  3  0  0  0  0  0  0
  -25.0020  -27.7510   19.5790 C   0  0  0  0  0  3  0  0  0  0  0  0
  -23.7260  -29.8680   20.2270 C   0  0  0  0  0  2  0  0  0  0  0  0
  -24.7250  -31.1070   22.1930 N   0  0  0  0  0  0  0  0  0  0  0  0
  -23.5360  -32.1560   23.8130 O   0  0  0  0  0  0  0  0  0  0  0  0
  -22.8080  -29.4680   22.5400 C   0  0  0  0  0  0  0  0  0  0  0  0
  -21.4890  -29.2770   22.3740 N   0  0  0  0  0  0  0  0  0  0  0  0
  -23.4750  -28.8370   23.3620 O   0  0  0  0  0  0  0  0  0  0  0  0
  -21.0140  -29.8370   21.6810 H   0  0  0  0  0  0  0  0  0  0  0  0
  -18.1050  -28.0810   22.7990 C   0  0  0  0  0  0  0  0  0  0  0  0
  -20.6600  -28.3250   23.1130 C   0  0  0  0  0  3  0  0  0  0  0  0
  -20.7680  -26.9070   22.5060 C   0  0  0  0  0  2  0  0  0  0  0  0
  -19.6780  -26.6100   21.4700 C   0  0  0  0  0  2  0  0  0  0  0  0
  -18.2860  -26.7450   22.0970 C   0  0  0  0  0  2  0  0  0  0  0  0
  -19.2200  -28.8290   23.2600 C   0  0  0  0  0  0  0  0  0  0  0  0
  -18.9950  -30.0810   23.8750 C   0  0  0  0  0  3  0  0  0  0  0  0
  -17.6890  -30.5810   24.0350 C   0  0  0  0  0  3  0  0  0  0  0  0
  -16.5880  -29.8280   23.5890 C   0  0  0  0  0  3  0  0  0  0  0  0
  -16.7980  -28.5810   22.9740 C   0  0  0  0  0  3  0  0  0  0  0  0
  -25.8980  -32.5260   23.9590 C   0  0  0  0  0  3  0  0  0  0  0  0
  -25.5910  -33.9340   24.2420 N   0  0  0  0  0  0  0  0  0  0  0  0
  -25.9660  -34.9630   23.4720 C   0  0  0  0  0  0  0  0  0  0  0  0
  -26.6760  -34.8250   22.4710 O   0  0  0  0  0  0  0  0  0  0  0  0
  -24.9730  -34.1160   25.0190 H   0  0  0  0  0  0  0  0  0  0  0  0
  -24.2900  -36.7740   22.9840 C   0  0  0  0  0  1  0  0  0  0  0  0
  -25.4760  -36.3680   23.8750 C   0  0  0  0  0  3  0  0  0  0  0  0
  -27.5600  -37.2480   24.8270 C   0  0  0  0  0  1  0  0  0  0  0  0
  -26.5280  -37.4040   23.8060 N   0  0  0  0  0  0  0  0  0  0  0  0
  -26.1280  -38.3340   23.8990 H   0  0  0  0  0  0  0  0  0  0  0  0
  -26.3540  -31.7790   25.2710 C   0  0  1  0  0  0  0  0  0  0  0  0
  -25.2130  -31.5700   26.2930 C   0  0  0  0  0  1  0  0  0  0  0  0
  -26.9480  -30.3910   24.9330 C   0  0  0  0  0  1  0  0  0  0  0  0
  -27.4800  -32.5820   25.9660 C   0  0  0  0  0  1  0  0  0  0  0  0
  1  3  1  0
  2  1  2  0
  3  8  1  0
  4  2  1  0
  4  6  2  0
  5  3  2  0
  6  5  1  0
  8  7  1  0
  8  9  1  0
 10 18  1  0
 11 16  1  0
 12 13  1  0
 12 11  1  0
 14 13  1  0
 14 23  1  0
 14 15  1  0
 16 10  1  0
 16 15  1  0
 17 10  2  0
 18  9  1  0
 18 19  1  0
 20 21  2  0
 21 40  1  0
 22 21  1  0
 22 25  1  0
 23 24  1  0
 23 20  1  0
 24 22  2  0
 25 26  1  0
 26 27  2  0
 28 31  1  0
 28 27  1  0
 29 28  2  0
 30 29  1  0
 30 25  2  0
 31 32  1  0
 32 37  2  0
 32 33  1  0
 33 34  2  0
 34 35  1  0
 35 39  1  0
 36 35  2  0
 37 36  1  0
 38 37  1  0
 40 41  1  0
 41 44  1  0
 41 43  1  0
 42 40  2  0
 45 46  1  0
 45 20  1  0
 47 45  1  0
 48 49  1  0
 49  5  1  0
 50 51  1  0
 51  4  1  0
 52  2  1  0
 52 55  1  0
 55 54  1  1
 55 53  1  0
 56 57  1  0
 56 55  1  0
 58 69  2  0
 59 57  1  0
 59 64  1  0
 60 68  1  0
 60 70  1  0
 61 67  1  0
 61 63  1  0
 62 68  1  0
 63 64  2  0
 63 62  1  0
 65 59  2  0
 66 65  1  0
 66 61  2  0
 67 60  1  0
 68 58  1  0
 70 72  2  0
 71 70  1  0
 73 71  1  0
 74 83  2  0
 74 79  1  0
 75 71  1  0
 75 79  1  0
 76 75  1  0
 77 78  1  0
 77 76  1  0
 78 74  1  0
 79 80  2  0
 80 81  1  0
 82 81  2  0
 83 82  1  0
 84 58  1  0
 84 85  1  0
 84 94  1  0
 85 88  1  0
 86 90  1  0
 86 85  1  0
 87 86  2  0
 90 89  1  0
 92 90  1  0
 92 93  1  0
 92 91  1  0
 94 97  1  1
 94 95  1  0
 96 94  1  0
M  ISO  4  10 100  18 100  56 101  57 101
M  END
>  <TORSDO>  (77) 
F 23

>  <SCORE>  (77) 
-13.048

>  <name>  (77) 
76

>  <ligand_id>  (77) 
76

>  <original_smiles>  (77) 
[H]c1c([H])c([H])c2c(c1[H])C([H])([H])C([H])([H])C([H])([H])C2([H])N([H])C(=O)C1([H])N(C(=O)C([H])(N([H])C(=O)C([H])(N([H])C([H])([H])[H])C([H])([H])[H])C(C([H])([H])[H])(C([H])([H])[H])C([H])([H])[H])C([H])([H])c2c([H])c(OC([H])([H])C(C([H])([H])[H])(C([H])([H])[H])C([H])([H])c3c(C([H])([H])C([H])([H])[H])nc(C([H])([H])C([H])([H])[H])c(C([H])(C([H])([H])[H])C([H])([H])N([H])C(=O)N4C([H])([H])C([H])([H])C([H])([H])C([H])(n5nc(-c6c([H])c([H])c(Oc7c([H])c([H])c(F)c([H])c7F)c([H])c6[H])c(C(=O)N([H])[H])c5N([H])[H])C4([H])[H])c3[H])c([H])c([H])c2C1([H])[H]

>  <smiles>  (77) 
[H]c1c([H])c([H])c2c(c1[H])C([H])([H])C([H])([H])C([H])([H])C2([H])N([H])C(=O)C1([H])N(C(=O)C([H])(N([H])C(=O)C([H])(N([H])C([H])([H])[H])C([H])([H])[H])C(C([H])([H])[H])(C([H])([H])[H])C([H])([H])[H])C([H])([H])c2c([H])c(OC([H])([H])C(C([H])([H])[H])(C([H])([H])[H])C([H])([H])c3c(C([H])([H])C([H])([H])[H])nc(C([H])([H])C([H])([H])[H])c(C([H])(C([H])([H])[H])C([H])([H])N([H])C(=O)N4C([H])([H])C([H])([H])C([H])([H])C([H])(n5nc(-c6c([H])c([H])c(Oc7c([H])c([H])c(F)c([H])c7F)c([H])c6[H])c(C(=O)N([H])[H])c5N([H])[H])C4([H])[H])c3[H])c([H])c([H])c2C1([H])[H]

$$$$
77:0:0
     RDKit          3D

 93101  0  0  1  0  0  0  0  0999 V2000
  -29.3290  -21.1870   19.4660 C   0  0  0  0  0  2  0  0  0  0  0  0
  -30.2470  -18.7790   20.2600 C   0  0  0  0  0  3  0  0  0  0  0  0
  -29.7870  -17.4450   20.2230 C   0  0  0  0  0  0  0  0  0  0  0  0
  -28.2190  -18.8940   19.4160 C   0  0  0  0  0  3  0  0  0  0  0  0
  -26.9580  -19.3340   18.7420 C   0  0  0  0  0  1  0  0  0  0  0  0
  -29.2690  -19.6650   19.7750 N   0  0  0  0  0  0  0  0  0  0  0  0
  -28.5140  -17.6140   19.7190 N   0  0  0  0  0  0  0  0  0  0  0  0
  -27.8210  -16.8760   19.6640 H   0  0  0  0  0  0  0  0  0  0  0  0
  -31.5990  -16.3450   21.6180 C   0  0  0  0  0  1  0  0  0  0  0  0
  -29.2490  -15.7550   21.9170 C   0  0  0  0  0  1  0  0  0  0  0  0
  -30.2910  -16.0520   20.8250 C   0  0  1  0  0  0  0  0  0  0  0  0
  -30.6500  -14.7510   19.8690 C   0  0  0  0  0  0  0  0  0  0  0  0
  -30.3040  -12.5620   18.6570 C   0  0  0  0  0  2  0  0  0  0  0  0
  -29.2560  -12.6880   17.5230 C   0  0  0  0  0  2  0  0  0  0  0  0
  -27.8300  -12.4700   18.0650 C   0  0  0  0  0  2  0  0  0  0  0  0
  -27.5830  -13.2670   19.3700 C   0  0  0  0  0  3  0  0  0  0  0  0
  -28.7360  -13.0540   20.3760 C   0  0  0  0  0  2  0  0  0  0  0  0
  -29.9780  -13.5360   19.7420 N   0  0  0  0  0  0  0  0  0  0  0  0
  -31.6850  -14.8670   19.2010 O   0  0  0  0  0  0  0  0  0  0  0  0
  -25.2690  -13.8320   20.3170 C   0  0  0  0  0  0  0  0  0  0  0  0
  -24.2530  -13.0480   20.7950 C   0  0  0  0  0  0  0  0  0  0  0  0
  -24.7090  -11.7000   20.6750 C   0  0  0  0  0  0  0  0  0  0  0  0
  -26.2850  -12.9590   19.9610 N   0  0  0  0  0  0  0  0  0  0  0  0
  -25.9620  -11.6710   20.2360 N   0  0  0  0  0  0  0  0  0  0  0  0
  -24.0010  -10.4310   20.8900 C   0  0  0  0  0  0  0  0  0  0  0  0
  -24.4740   -9.4760   21.8140 C   0  0  0  0  0  3  0  0  0  0  0  0
  -23.7690   -8.2700   22.0200 C   0  0  0  0  0  3  0  0  0  0  0  0
  -22.5770   -8.0130   21.2990 C   0  0  0  0  0  0  0  0  0  0  0  0
  -22.1270   -8.9560   20.3570 C   0  0  0  0  0  3  0  0  0  0  0  0
  -22.8340  -10.1530   20.1500 C   0  0  0  0  0  3  0  0  0  0  0  0
  -21.8450   -6.8550   21.4120 O   0  0  0  0  0  0  0  0  0  0  0  0
  -21.7690   -6.1610   22.5930 C   0  0  0  0  0  0  0  0  0  0  0  0
  -21.2870   -6.7560   23.7800 C   0  0  0  0  0  3  0  0  0  0  0  0
  -21.1650   -5.9880   24.9550 C   0  0  0  0  0  3  0  0  0  0  0  0
  -21.5130   -4.6240   24.9430 C   0  0  0  0  0  0  0  0  0  0  0  0
  -21.9900   -4.0280   23.7620 C   0  0  0  0  0  3  0  0  0  0  0  0
  -22.1150   -4.7940   22.5900 C   0  0  0  0  0  0  0  0  0  0  0  0
  -22.5520   -4.2090   21.4490 F   0  0  0  0  0  0  0  0  0  0  0  0
  -21.3870   -3.8840   26.0690 F   0  0  0  0  0  0  0  0  0  0  0  0
  -22.8930  -13.5160   21.2170 C   0  0  0  0  0  0  0  0  0  0  0  0
  -22.2450  -12.7850   22.1230 N   0  0  0  0  0  0  0  0  0  0  0  0
  -22.4130  -14.5580   20.7770 O   0  0  0  0  0  0  0  0  0  0  0  0
  -22.6560  -11.9460   22.5040 H   0  0  0  0  0  0  0  0  0  0  0  0
  -21.3320  -13.0750   22.4370 H   0  0  0  0  0  0  0  0  0  0  0  0
  -25.4130  -15.2010   20.1180 N   0  0  0  0  0  0  0  0  0  0  0  0
  -24.5400  -15.7000   20.2570 H   0  0  0  0  0  0  0  0  0  0  0  0
  -25.7630  -15.3930   19.1860 H   0  0  0  0  0  0  0  0  0  0  0  0
  -28.8490  -22.3720   20.4640 C   0  0  0  0  0  2  0  0  0  0  0  0
  -29.2060  -24.2200   18.6800 C   0  0  0  0  0  1  0  0  0  0  0  0
  -26.8600  -23.4710   19.3320 C   0  0  0  0  0  1  0  0  0  0  0  0
  -28.2930  -23.7730   19.8400 C   0  0  1  0  0  0  0  0  0  0  0  0
  -28.2210  -25.0550   20.8210 C   0  0  0  0  0  2  0  0  0  0  0  0
  -28.3580  -26.4560   20.3220 O   0  0  0  0  0  0  0  0  0  0  0  0
  -24.6100  -31.8950   23.2530 C   0  0  0  0  0  0  0  0  0  0  0  0
  -27.2480  -27.3050   20.3020 C   0  0  0  0  0  0  0  0  0  0  0  0
  -23.4210  -30.4880   21.6120 C   0  0  0  0  0  3  0  0  0  0  0  0
  -24.8920  -28.9270   20.2120 C   0  0  0  0  0  0  0  0  0  0  0  0
  -25.9540  -30.8090   21.4480 C   0  0  0  0  0  2  0  0  0  0  0  0
  -26.0460  -29.4150   20.8400 C   0  0  0  0  0  0  0  0  0  0  0  0
  -27.2250  -28.6110   20.8880 C   0  0  0  0  0  3  0  0  0  0  0  0
  -26.0850  -26.8900   19.6290 C   0  0  0  0  0  3  0  0  0  0  0  0
  -24.9160  -27.6720   19.5920 C   0  0  0  0  0  3  0  0  0  0  0  0
  -23.6490  -29.8000   20.2410 C   0  0  0  0  0  2  0  0  0  0  0  0
  -24.6790  -31.0810   22.1610 N   0  0  0  0  0  0  0  0  0  0  0  0
  -23.5210  -32.1740   23.7760 O   0  0  0  0  0  0  0  0  0  0  0  0
  -22.7500  -29.4760   22.5730 C   0  0  0  0  0  0  0  0  0  0  0  0
  -21.4240  -29.3070   22.4370 N   0  0  0  0  0  0  0  0  0  0  0  0
  -23.4220  -28.8480   23.3940 O   0  0  0  0  0  0  0  0  0  0  0  0
  -20.9430  -29.8720   21.7510 H   0  0  0  0  0  0  0  0  0  0  0  0
  -18.0280  -28.1730   22.9430 C   0  0  0  0  0  0  0  0  0  0  0  0
  -20.5900  -28.3790   23.2020 C   0  0  0  0  0  3  0  0  0  0  0  0
  -20.6620  -26.9490   22.6170 C   0  0  0  0  0  2  0  0  0  0  0  0
  -19.5500  -26.6560   21.6050 C   0  0  0  0  0  2  0  0  0  0  0  0
  -18.1730  -26.8250   22.2550 C   0  0  0  0  0  2  0  0  0  0  0  0
  -19.1630  -28.9090   23.3720 C   0  0  0  0  0  0  0  0  0  0  0  0
  -18.9720  -30.1740   23.9720 C   0  0  0  0  0  3  0  0  0  0  0  0
  -17.6780  -30.7020   24.1400 C   0  0  0  0  0  3  0  0  0  0  0  0
  -16.5570  -29.9610   23.7290 C   0  0  0  0  0  3  0  0  0  0  0  0
  -16.7330  -28.6980   23.1350 C   0  0  0  0  0  3  0  0  0  0  0  0
  -25.8860  -32.5280   23.8870 C   0  0  0  0  0  3  0  0  0  0  0  0
  -25.5750  -33.9270   24.2090 N   0  0  0  0  0  0  0  0  0  0  0  0
  -25.9100  -34.9770   23.4470 C   0  0  0  0  0  0  0  0  0  0  0  0
  -26.5870  -34.8700   22.4200 O   0  0  0  0  0  0  0  0  0  0  0  0
  -24.9880  -34.0850   25.0140 H   0  0  0  0  0  0  0  0  0  0  0  0
  -24.1890  -36.7690   23.0640 C   0  0  0  0  0  1  0  0  0  0  0  0
  -25.4170  -36.3680   23.8960 C   0  0  0  0  0  3  0  0  0  0  0  0
  -27.5420  -37.2540   24.7490 C   0  0  0  0  0  1  0  0  0  0  0  0
  -26.4510  -37.4210   23.7910 N   0  0  0  0  0  0  0  0  0  0  0  0
  -26.0470  -38.3430   23.9300 H   0  0  0  0  0  0  0  0  0  0  0  0
  -26.3830  -31.7590   25.1710 C   0  0  1  0  0  0  0  0  0  0  0  0
  -25.2750  -31.5190   26.2250 C   0  0  0  0  0  1  0  0  0  0  0  0
  -26.9720  -30.3840   24.7760 C   0  0  0  0  0  1  0  0  0  0  0  0
  -27.5240  -32.5520   25.8480 C   0  0  0  0  0  1  0  0  0  0  0  0
  1  6  1  0
  1 48  1  0
  3  2  2  0
  3 11  1  0
  4  5  1  0
  4  7  1  0
  4  6  1  0
  6  2  1  0
  7  3  1  0
  8  7  1  0
 11  9  1  1
 11 10  1  0
 12 11  1  0
 13 18  1  0
 14 15  1  0
 14 13  1  0
 16 15  1  0
 16 23  1  0
 16 17  1  0
 18 12  1  0
 18 17  1  0
 19 12  2  0
 20 21  2  0
 21 40  1  0
 22 21  1  0
 22 25  1  0
 23 24  1  0
 23 20  1  0
 24 22  2  0
 25 26  1  0
 26 27  2  0
 28 31  1  0
 28 27  1  0
 29 28  2  0
 30 29  1  0
 30 25  2  0
 31 32  1  0
 32 33  1  0
 33 34  2  0
 35 34  1  0
 35 39  1  0
 36 35  2  0
 37 32  2  0
 37 36  1  0
 38 37  1  0
 40 41  1  0
 41 44  1  0
 41 43  1  0
 42 40  2  0
 45 46  1  0
 45 20  1  0
 47 45  1  0
 51 49  1  6
 50 51  1  0
 51 48  1  0
 51 52  1  0
 53 52  1  0
 54 65  2  0
 55 53  1  0
 55 60  1  0
 56 64  1  0
 56 66  1  0
 57 63  1  0
 57 59  1  0
 58 64  1  0
 59 60  2  0
 59 58  1  0
 61 55  2  0
 62 61  1  0
 62 57  2  0
 63 56  1  0
 64 54  1  0
 66 68  2  0
 67 66  1  0
 69 67  1  0
 70 79  2  0
 70 75  1  0
 71 67  1  0
 71 75  1  0
 72 71  1  0
 73 74  1  0
 73 72  1  0
 74 70  1  0
 75 76  2  0
 76 77  1  0
 78 77  2  0
 79 78  1  0
 80 54  1  0
 80 81  1  0
 80 90  1  0
 81 84  1  0
 82 86  1  0
 82 81  1  0
 83 82  2  0
 86 85  1  0
 88 86  1  0
 88 89  1  0
 88 87  1  0
 90 93  1  1
 90 91  1  0
 92 90  1  0
M  ISO  4  11 100  12 100  52 101  53 101
M  END
>  <TORSDO>  (78) 
F 21

>  <SCORE>  (78) 
-12.104

>  <name>  (78) 
77

>  <ligand_id>  (78) 
77

>  <original_smiles>  (78) 
[H]c1c([H])c([H])c2c(c1[H])C([H])([H])C([H])([H])C([H])([H])C2([H])N([H])C(=O)C1([H])N(C(=O)C([H])(N([H])C(=O)C([H])(N([H])C([H])([H])[H])C([H])([H])[H])C(C([H])([H])[H])(C([H])([H])[H])C([H])([H])[H])C([H])([H])c2c([H])c(OC([H])([H])C(C([H])([H])[H])(C([H])([H])[H])C([H])([H])C([H])([H])n3c([H])c(C(C(=O)N4C([H])([H])C([H])([H])C([H])([H])C([H])(n5nc(-c6c([H])c([H])c(Oc7c([H])c([H])c(F)c([H])c7F)c([H])c6[H])c(C(=O)N([H])[H])c5N([H])[H])C4([H])[H])(C([H])([H])[H])C([H])([H])[H])[n+]([H])c3C([H])([H])[H])c([H])c([H])c2C1([H])[H]

>  <smiles>  (78) 
[H]c1c([H])c([H])c2c(c1[H])C([H])([H])C([H])([H])C([H])([H])C2([H])N([H])C(=O)C1([H])N(C(=O)C([H])(N([H])C(=O)C([H])(N([H])C([H])([H])[H])C([H])([H])[H])C(C([H])([H])[H])(C([H])([H])[H])C([H])([H])[H])C([H])([H])c2c([H])c(OC([H])([H])C(C([H])([H])[H])(C([H])([H])[H])C([H])([H])C([H])([H])n3c([H])c(C(C(=O)N4C([H])([H])C([H])([H])C([H])([H])C([H])(n5nc(-c6c([H])c([H])c(Oc7c([H])c([H])c(F)c([H])c7F)c([H])c6[H])c(C(=O)N([H])[H])c5N([H])[H])C4([H])[H])(C([H])([H])[H])C([H])([H])[H])[n+]([H])c3C([H])([H])[H])c([H])c([H])c2C1([H])[H]

$$$$
78:0:0
     RDKit          3D

 91 99  0  0  1  0  0  0  0  0999 V2000
  -28.6960  -21.9870   19.9360 C   0  0  0  0  0  3  0  0  0  0  0  0
  -30.2690  -19.8860   20.0710 C   0  0  0  0  0  3  0  0  0  0  0  0
  -30.0600  -18.5150   19.9860 C   0  0  0  0  0  0  0  0  0  0  0  0
  -28.0970  -19.5870   19.7890 C   0  0  0  0  0  3  0  0  0  0  0  0
  -26.6330  -19.8170   19.5850 C   0  0  0  0  0  1  0  0  0  0  0  0
  -29.0490  -20.5250   19.9430 N   0  0  0  0  0  0  0  0  0  0  0  0
  -28.7020  -18.3890   19.8290 N   0  0  0  0  0  0  0  0  0  0  0  0
  -28.2010  -17.5110   19.7420 H   0  0  0  0  0  0  0  0  0  0  0  0
  -31.0350  -17.3360   20.0060 C   0  0  0  0  0  2  0  0  0  0  0  0
  -30.5310  -15.9770   20.6160 C   0  0  0  0  0  2  0  0  0  0  0  0
  -31.2350  -14.7020   20.0380 C   0  0  0  0  0  0  0  0  0  0  0  0
  -30.9120  -12.5080   18.9280 C   0  0  0  0  0  2  0  0  0  0  0  0
  -29.9320  -12.7030   17.7500 C   0  0  0  0  0  2  0  0  0  0  0  0
  -28.4680  -12.5870   18.2230 C   0  0  0  0  0  2  0  0  0  0  0  0
  -28.1820  -13.4290   19.4950 C   0  0  0  0  0  3  0  0  0  0  0  0
  -29.2740  -13.2120   20.5670 C   0  0  0  0  0  2  0  0  0  0  0  0
  -30.5740  -13.5100   19.9550 N   0  0  0  0  0  0  0  0  0  0  0  0
  -32.3600  -14.8400   19.5460 O   0  0  0  0  0  0  0  0  0  0  0  0
  -25.8300  -14.0790   20.3130 C   0  0  0  0  0  0  0  0  0  0  0  0
  -24.7590  -13.3260   20.7130 C   0  0  0  0  0  0  0  0  0  0  0  0
  -25.1850  -11.9650   20.6380 C   0  0  0  0  0  0  0  0  0  0  0  0
  -26.8420  -13.1770   20.0220 N   0  0  0  0  0  0  0  0  0  0  0  0
  -26.4600  -11.9000   20.2770 N   0  0  0  0  0  0  0  0  0  0  0  0
  -24.4330  -10.7170   20.8350 C   0  0  0  0  0  0  0  0  0  0  0  0
  -24.7670   -9.8100   21.8660 C   0  0  0  0  0  3  0  0  0  0  0  0
  -24.0180   -8.6290   22.0490 C   0  0  0  0  0  3  0  0  0  0  0  0
  -22.9220   -8.3430   21.1990 C   0  0  0  0  0  0  0  0  0  0  0  0
  -22.6080   -9.2380   20.1620 C   0  0  0  0  0  3  0  0  0  0  0  0
  -23.3580  -10.4120   19.9770 C   0  0  0  0  0  3  0  0  0  0  0  0
  -22.1560   -7.2050   21.2850 O   0  0  0  0  0  0  0  0  0  0  0  0
  -21.8420   -6.6380   22.4940 C   0  0  0  0  0  0  0  0  0  0  0  0
  -21.1330   -7.3490   23.4880 C   0  0  0  0  0  3  0  0  0  0  0  0
  -20.7680   -6.7050   24.6870 C   0  0  0  0  0  3  0  0  0  0  0  0
  -21.1030   -5.3540   24.8920 C   0  0  0  0  0  0  0  0  0  0  0  0
  -21.8030   -4.6430   23.9020 C   0  0  0  0  0  3  0  0  0  0  0  0
  -22.1690   -5.2840   22.7050 C   0  0  0  0  0  0  0  0  0  0  0  0
  -22.8270   -4.5880   21.7450 F   0  0  0  0  0  0  0  0  0  0  0  0
  -20.7440   -4.7330   26.0410 F   0  0  0  0  0  0  0  0  0  0  0  0
  -23.3860  -13.8350   21.0460 C   0  0  0  0  0  0  0  0  0  0  0  0
  -22.6880  -13.1650   21.9570 N   0  0  0  0  0  0  0  0  0  0  0  0
  -22.9430  -14.8610   20.5330 O   0  0  0  0  0  0  0  0  0  0  0  0
  -23.0600  -12.3350   22.3940 H   0  0  0  0  0  0  0  0  0  0  0  0
  -21.7690  -13.4900   22.2210 H   0  0  0  0  0  0  0  0  0  0  0  0
  -26.0180  -15.4490   20.1500 N   0  0  0  0  0  0  0  0  0  0  0  0
  -25.2490  -16.0980   20.2590 H   0  0  0  0  0  0  0  0  0  0  0  0
  -26.8290  -15.8640   19.7090 H   0  0  0  0  0  0  0  0  0  0  0  0
  -29.7890  -22.9970   19.4910 C   0  0  0  0  0  3  0  0  0  0  0  0
  -29.3380  -24.4830   19.2490 C   0  0  0  0  0  2  0  0  0  0  0  0
  -30.0410  -25.3220   21.5810 C   0  0  0  0  0  1  0  0  0  0  0  0
  -28.9880  -25.3980   20.4670 C   0  0  0  0  0  3  0  0  0  0  0  0
  -28.9320  -26.8020   20.1120 O   0  0  0  0  0  0  0  0  0  0  0  0
  -24.6490  -31.6140   23.2160 C   0  0  0  0  0  0  0  0  0  0  0  0
  -27.7050  -27.4420   20.1210 C   0  0  0  0  0  0  0  0  0  0  0  0
  -23.6040  -30.1850   21.4890 C   0  0  0  0  0  3  0  0  0  0  0  0
  -25.2120  -28.7910   20.0780 C   0  0  0  0  0  0  0  0  0  0  0  0
  -26.1040  -30.7220   21.3940 C   0  0  0  0  0  2  0  0  0  0  0  0
  -26.3110  -29.3760   20.7220 C   0  0  0  0  0  0  0  0  0  0  0  0
  -27.5620  -28.7130   20.7320 C   0  0  0  0  0  3  0  0  0  0  0  0
  -26.5870  -26.8720   19.4770 C   0  0  0  0  0  3  0  0  0  0  0  0
  -25.3480  -27.5400   19.4500 C   0  0  0  0  0  3  0  0  0  0  0  0
  -23.9110  -29.5640   20.1000 C   0  0  0  0  0  2  0  0  0  0  0  0
  -24.8010  -30.8550   22.0930 N   0  0  0  0  0  0  0  0  0  0  0  0
  -23.5310  -31.7940   23.7220 O   0  0  0  0  0  0  0  0  0  0  0  0
  -22.9880  -29.0930   22.3960 C   0  0  0  0  0  0  0  0  0  0  0  0
  -21.6850  -28.8220   22.2080 N   0  0  0  0  0  0  0  0  0  0  0  0
  -23.6820  -28.4930   23.2200 O   0  0  0  0  0  0  0  0  0  0  0  0
  -21.1830  -29.3650   21.5200 H   0  0  0  0  0  0  0  0  0  0  0  0
  -18.3830  -27.3940   22.5600 C   0  0  0  0  0  0  0  0  0  0  0  0
  -20.9120  -27.7990   22.9130 C   0  0  0  0  0  3  0  0  0  0  0  0
  -21.1200  -26.4030   22.2820 C   0  0  0  0  0  2  0  0  0  0  0  0
  -20.0640  -26.0530   21.2270 C   0  0  0  0  0  2  0  0  0  0  0  0
  -18.6610  -26.0870   21.8380 C   0  0  0  0  0  2  0  0  0  0  0  0
  -19.4400  -28.2050   23.0510 C   0  0  0  0  0  0  0  0  0  0  0  0
  -19.1270  -29.4270   23.6870 C   0  0  0  0  0  3  0  0  0  0  0  0
  -17.7900  -29.8400   23.8330 C   0  0  0  0  0  3  0  0  0  0  0  0
  -16.7460  -29.0260   23.3580 C   0  0  0  0  0  3  0  0  0  0  0  0
  -17.0450  -27.8060   22.7260 C   0  0  0  0  0  3  0  0  0  0  0  0
  -25.8630  -32.3120   23.9050 C   0  0  0  0  0  3  0  0  0  0  0  0
  -25.4710  -33.6970   24.2030 N   0  0  0  0  0  0  0  0  0  0  0  0
  -25.7830  -34.7540   23.4420 C   0  0  0  0  0  0  0  0  0  0  0  0
  -26.5040  -34.6710   22.4440 O   0  0  0  0  0  0  0  0  0  0  0  0
  -24.8430  -33.8310   24.9820 H   0  0  0  0  0  0  0  0  0  0  0  0
  -23.9780  -36.4440   22.9870 C   0  0  0  0  0  1  0  0  0  0  0  0
  -25.2040  -36.1210   23.8570 C   0  0  0  0  0  3  0  0  0  0  0  0
  -27.2460  -37.1360   24.7650 C   0  0  0  0  0  1  0  0  0  0  0  0
  -26.1830  -37.2270   23.7670 N   0  0  0  0  0  0  0  0  0  0  0  0
  -25.7210  -38.1260   23.8750 H   0  0  0  0  0  0  0  0  0  0  0  0
  -26.3390  -31.5740   25.2160 C   0  0  1  0  0  0  0  0  0  0  0  0
  -25.1930  -31.2720   26.2110 C   0  0  0  0  0  1  0  0  0  0  0  0
  -27.0250  -30.2330   24.8640 C   0  0  0  0  0  1  0  0  0  0  0  0
  -27.3940  -32.4340   25.9510 C   0  0  0  0  0  1  0  0  0  0  0  0
  1  6  1  0
  3  9  1  0
  3  2  2  0
  4  5  1  0
  4  7  1  0
  4  6  1  0
  6  2  1  0
  7  3  1  0
  8  7  1  0
  9 10  1  0
 11 10  1  0
 12 17  1  0
 13 14  1  0
 13 12  1  0
 15 14  1  0
 15 22  1  0
 15 16  1  0
 17 11  1  0
 17 16  1  0
 18 11  2  0
 19 20  2  0
 20 39  1  0
 21 20  1  0
 21 24  1  0
 22 23  1  0
 22 19  1  0
 23 21  2  0
 24 25  1  0
 25 26  2  0
 27 30  1  0
 27 26  1  0
 28 27  2  0
 29 28  1  0
 29 24  2  0
 30 31  1  0
 31 36  2  0
 31 32  1  0
 32 33  2  0
 33 34  1  0
 34 38  1  0
 35 34  2  0
 36 35  1  0
 37 36  1  0
 39 40  1  0
 40 43  1  0
 40 42  1  0
 41 39  2  0
 44 45  1  0
 44 19  1  0
 46 44  1  0
 47  1  2  0
 48 47  1  0
 48 50  1  0
 50 49  1  0
 51 53  1  0
 51 50  1  0
 52 63  2  0
 53 58  1  0
 54 62  1  0
 54 64  1  0
 55 61  1  0
 55 57  1  0
 56 62  1  0
 57 58  2  0
 57 56  1  0
 59 53  2  0
 60 59  1  0
 60 55  2  0
 61 54  1  0
 62 52  1  0
 64 66  2  0
 65 64  1  0
 67 65  1  0
 68 77  2  0
 68 73  1  0
 69 65  1  0
 69 73  1  0
 70 69  1  0
 71 72  1  0
 71 70  1  0
 72 68  1  0
 73 74  2  0
 74 75  1  0
 76 75  2  0
 77 76  1  0
 78 52  1  0
 78 79  1  0
 78 88  1  0
 79 82  1  0
 80 84  1  0
 80 79  1  0
 81 80  2  0
 84 83  1  0
 86 84  1  0
 86 87  1  0
 86 85  1  0
 88 91  1  1
 88 89  1  0
 90 88  1  0
M  ISO  4  10 100  11 100  50 101  51 101
M  END
>  <TORSDO>  (79) 
F 22

>  <SCORE>  (79) 
-11.343

>  <name>  (79) 
78

>  <ligand_id>  (79) 
78

>  <original_smiles>  (79) 
[H]c1c([H])c([H])c2c(c1[H])C([H])([H])C([H])([H])C([H])([H])C2([H])N([H])C(=O)C1([H])N(C(=O)C([H])(N([H])C(=O)C([H])(N([H])C([H])([H])[H])C([H])([H])[H])C(C([H])([H])[H])(C([H])([H])[H])C([H])([H])[H])C([H])([H])c2c([H])c(OC([H])(C([H])([H])[H])C([H])([H])C([H])([H])C([H])([H])n3c([H])c(C([H])([H])C([H])([H])C(=O)N4C([H])([H])C([H])([H])C([H])([H])C([H])(n5nc(-c6c([H])c([H])c(Oc7c([H])c([H])c(F)c([H])c7F)c([H])c6[H])c(C(=O)N([H])[H])c5N([H])[H])C4([H])[H])[n+]([H])c3C([H])([H])[H])c([H])c([H])c2C1([H])[H]

>  <smiles>  (79) 
[H]c1c([H])c([H])c2c(c1[H])C([H])([H])C([H])([H])C([H])([H])C2([H])N([H])C(=O)C1([H])N(C(=O)C([H])(N([H])C(=O)C([H])(N([H])C([H])([H])[H])C([H])([H])[H])C(C([H])([H])[H])(C([H])([H])[H])C([H])([H])[H])C([H])([H])c2c([H])c(OC([H])(C([H])([H])[H])C([H])([H])C([H])([H])C([H])([H])n3c([H])c(C([H])([H])C([H])([H])C(=O)N4C([H])([H])C([H])([H])C([H])([H])C([H])(n5nc(-c6c([H])c([H])c(Oc7c([H])c([H])c(F)c([H])c7F)c([H])c6[H])c(C(=O)N([H])[H])c5N([H])[H])C4([H])[H])[n+]([H])c3C([H])([H])[H])c([H])c([H])c2C1([H])[H]

$$$$
79:0:0
     RDKit          3D

 99107  0  0  1  0  0  0  0  0999 V2000
  -29.0910  -20.4930   20.1810 C   0  0  0  0  0  3  0  0  0  0  0  0
  -28.4210  -21.6040   19.6410 C   0  0  0  0  0  0  0  0  0  0  0  0
  -30.1810  -20.7000   21.0350 C   0  0  0  0  0  0  0  0  0  0  0  0
  -29.7810  -23.0540   20.8150 C   0  0  0  0  0  0  0  0  0  0  0  0
  -28.7660  -22.8640   19.9850 N   0  0  0  0  0  0  0  0  0  0  0  0
  -30.5090  -22.0180   21.3210 N   0  0  0  0  0  0  0  0  0  0  0  0
  -25.9160  -21.7830   19.5300 C   0  0  0  0  0  1  0  0  0  0  0  0
  -27.0640  -20.0120   18.1800 C   0  0  0  0  0  1  0  0  0  0  0  0
  -27.3080  -22.3900   17.5110 C   0  0  0  0  0  1  0  0  0  0  0  0
  -27.1910  -21.4510   18.7290 C   0  0  2  0  0  0  0  0  0  0  0  0
  -29.8150  -19.0970   22.9830 C   0  0  0  0  0  1  0  0  0  0  0  0
  -32.0220  -20.0880   22.6300 C   0  0  0  0  0  1  0  0  0  0  0  0
  -30.8100  -19.4710   21.8590 C   0  0  2  0  0  0  0  0  0  0  0  0
  -31.2610  -18.0630   21.1100 C   0  0  0  0  0  3  0  0  0  0  0  0
  -32.5990  -17.6770   21.6070 N   0  0  0  0  0  4  0  0  0  0  0  0
  -32.6590  -17.7650   22.6070 H   0  0  0  0  0  0  0  0  0  0  0  0
  -33.3240  -18.2320   21.1850 H   0  0  0  0  0  0  0  0  0  0  0  0
  -32.7490  -16.6990   21.3770 H   0  0  0  0  0  0  0  0  0  0  0  0
  -29.0610  -17.1440   20.2610 C   0  0  0  0  0  1  0  0  0  0  0  0
  -30.3100  -16.7080   21.0470 C   0  0  0  0  0  3  0  0  0  0  0  0
  -30.9060  -15.2790   20.5070 C   0  0  0  0  0  0  0  0  0  0  0  0
  -30.6410  -13.0810   19.3370 C   0  0  0  0  0  2  0  0  0  0  0  0
  -29.6950  -13.2320   18.1260 C   0  0  0  0  0  2  0  0  0  0  0  0
  -28.2350  -12.9970   18.5550 C   0  0  0  0  0  2  0  0  0  0  0  0
  -27.8620  -13.7960   19.8270 C   0  0  0  0  0  3  0  0  0  0  0  0
  -28.9400  -13.6700   20.9360 C   0  0  0  0  0  2  0  0  0  0  0  0
  -30.2320  -14.0770   20.3640 N   0  0  0  0  0  0  0  0  0  0  0  0
  -32.0660  -15.3050   20.0910 O   0  0  0  0  0  0  0  0  0  0  0  0
  -25.4700  -14.3210   20.5940 C   0  0  0  0  0  0  0  0  0  0  0  0
  -24.4180  -13.5130   20.9210 C   0  0  0  0  0  0  0  0  0  0  0  0
  -24.9010  -12.1730   20.8120 C   0  0  0  0  0  0  0  0  0  0  0  0
  -26.5260  -13.4690   20.3090 N   0  0  0  0  0  0  0  0  0  0  0  0
  -26.1900  -12.1690   20.5030 N   0  0  0  0  0  0  0  0  0  0  0  0
  -24.1930  -10.8930   20.9280 C   0  0  0  0  0  0  0  0  0  0  0  0
  -24.6300   -9.8860   21.8160 C   0  0  0  0  0  3  0  0  0  0  0  0
  -23.9230   -8.6700   21.9240 C   0  0  0  0  0  3  0  0  0  0  0  0
  -22.7640   -8.4530   21.1410 C   0  0  0  0  0  0  0  0  0  0  0  0
  -22.3440   -9.4490   20.2430 C   0  0  0  0  0  3  0  0  0  0  0  0
  -23.0530  -10.6570   20.1330 C   0  0  0  0  0  3  0  0  0  0  0  0
  -22.0270   -7.2930   21.1630 O   0  0  0  0  0  0  0  0  0  0  0  0
  -21.9320   -6.5230   22.2940 C   0  0  0  0  0  0  0  0  0  0  0  0
  -21.4720   -7.0520   23.5200 C   0  0  0  0  0  3  0  0  0  0  0  0
  -21.3230   -6.2090   24.6380 C   0  0  0  0  0  3  0  0  0  0  0  0
  -21.6230   -4.8380   24.5330 C   0  0  0  0  0  0  0  0  0  0  0  0
  -22.0780   -4.3080   23.3120 C   0  0  0  0  0  3  0  0  0  0  0  0
  -22.2270   -5.1490   22.1950 C   0  0  0  0  0  0  0  0  0  0  0  0
  -22.6450   -4.6300   21.0150 F   0  0  0  0  0  0  0  0  0  0  0  0
  -21.4720   -4.0260   25.6050 F   0  0  0  0  0  0  0  0  0  0  0  0
  -23.0150  -13.9550   21.2210 C   0  0  0  0  0  0  0  0  0  0  0  0
  -22.3080  -13.2120   22.0650 N   0  0  0  0  0  0  0  0  0  0  0  0
  -22.5560  -14.9920   20.7440 O   0  0  0  0  0  0  0  0  0  0  0  0
  -22.6960  -12.3720   22.4700 H   0  0  0  0  0  0  0  0  0  0  0  0
  -21.3680  -13.4860   22.3110 H   0  0  0  0  0  0  0  0  0  0  0  0
  -25.6050  -15.7010   20.4910 N   0  0  0  0  0  0  0  0  0  0  0  0
  -24.8310  -16.3300   20.6730 H   0  0  0  0  0  0  0  0  0  0  0  0
  -26.4460  -16.1790   20.1990 H   0  0  0  0  0  0  0  0  0  0  0  0
  -30.1470  -24.5660   21.1320 C   0  0  0  0  0  2  0  0  0  0  0  0
  -28.9720  -25.6560   21.2870 C   0  0  0  0  0  2  0  0  0  0  0  0
  -29.1010  -27.0450   20.7420 O   0  0  0  0  0  0  0  0  0  0  0  0
  -24.9530  -32.1710   23.7450 C   0  0  0  0  0  0  0  0  0  0  0  0
  -27.9460  -27.8510   20.6840 C   0  0  0  0  0  0  0  0  0  0  0  0
  -23.9100  -30.7830   21.9860 C   0  0  0  0  0  3  0  0  0  0  0  0
  -25.5100  -29.3560   20.5900 C   0  0  0  0  0  0  0  0  0  0  0  0
  -26.4350  -31.2260   21.9600 C   0  0  0  0  0  2  0  0  0  0  0  0
  -26.6190  -29.8760   21.2710 C   0  0  0  0  0  0  0  0  0  0  0  0
  -27.8410  -29.1350   21.3080 C   0  0  0  0  0  3  0  0  0  0  0  0
  -26.8180  -27.3940   19.9660 C   0  0  0  0  0  3  0  0  0  0  0  0
  -25.6110  -28.1220   19.9250 C   0  0  0  0  0  3  0  0  0  0  0  0
  -24.2340  -30.1750   20.5960 C   0  0  0  0  0  2  0  0  0  0  0  0
  -25.1140  -31.4090   22.6220 N   0  0  0  0  0  0  0  0  0  0  0  0
  -23.8300  -32.3780   24.2270 O   0  0  0  0  0  0  0  0  0  0  0  0
  -23.2410  -29.7020   22.8700 C   0  0  0  0  0  0  0  0  0  0  0  0
  -21.9510  -29.4250   22.6170 N   0  0  0  0  0  0  0  0  0  0  0  0
  -23.8870  -29.1190   23.7460 O   0  0  0  0  0  0  0  0  0  0  0  0
  -21.4860  -29.9580   21.8960 H   0  0  0  0  0  0  0  0  0  0  0  0
  -18.6200  -28.0320   22.8690 C   0  0  0  0  0  0  0  0  0  0  0  0
  -21.1400  -28.4110   23.2980 C   0  0  0  0  0  3  0  0  0  0  0  0
  -21.3520  -27.0140   22.6730 C   0  0  0  0  0  2  0  0  0  0  0  0
  -20.3280  -26.6810   21.5820 C   0  0  0  0  0  2  0  0  0  0  0  0
  -18.9070  -26.7240   22.1490 C   0  0  0  0  0  2  0  0  0  0  0  0
  -19.6690  -28.8310   23.3940 C   0  0  0  0  0  0  0  0  0  0  0  0
  -19.3490  -30.0520   24.0260 C   0  0  0  0  0  3  0  0  0  0  0  0
  -18.0120  -30.4770   24.1380 C   0  0  0  0  0  3  0  0  0  0  0  0
  -16.9750  -29.6760   23.6270 C   0  0  0  0  0  3  0  0  0  0  0  0
  -17.2790  -28.4540   22.9990 C   0  0  0  0  0  3  0  0  0  0  0  0
  -26.1690  -32.8360   24.4600 C   0  0  0  0  0  3  0  0  0  0  0  0
  -26.5310  -32.1500   25.8350 C   0  0  1  0  0  0  0  0  0  0  0  0
  -25.3140  -31.9390   26.7660 C   0  0  0  0  0  1  0  0  0  0  0  0
  -27.1900  -30.7700   25.6000 C   0  0  0  0  0  1  0  0  0  0  0  0
  -27.5700  -33.0110   26.5890 C   0  0  0  0  0  1  0  0  0  0  0  0
  -25.8450  -34.2560   24.6610 N   0  0  0  0  0  0  0  0  0  0  0  0
  -26.2470  -35.2490   23.8560 C   0  0  0  0  0  0  0  0  0  0  0  0
  -26.9960  -35.0690   22.8920 O   0  0  0  0  0  0  0  0  0  0  0  0
  -25.1870  -34.4680   25.3950 H   0  0  0  0  0  0  0  0  0  0  0  0
  -24.5540  -37.0110   23.2530 C   0  0  0  0  0  1  0  0  0  0  0  0
  -25.7370  -36.6690   24.1730 C   0  0  0  0  0  3  0  0  0  0  0  0
  -27.8230  -37.6080   25.0670 C   0  0  0  0  0  1  0  0  0  0  0  0
  -26.7820  -37.7090   24.0480 N   0  0  0  0  0  0  0  0  0  0  0  0
  -26.3730  -38.6400   24.1030 H   0  0  0  0  0  0  0  0  0  0  0  0
  1  3  1  0
  2  5  1  0
  2  1  2  0
  3  6  2  0
  3 13  1  0
  4 57  1  0
  4  6  1  0
  5  4  2  0
 10  8  1  6
  9 10  1  0
 10  7  1  0
 10  2  1  0
 13 12  1  1
 13 11  1  0
 14 15  1  0
 14 13  1  0
 15 16  1  0
 17 15  1  0
 18 15  1  0
 20 19  1  0
 20 14  1  0
 21 20  1  0
 22 27  1  0
 23 24  1  0
 23 22  1  0
 25 24  1  0
 25 32  1  0
 25 26  1  0
 27 21  1  0
 27 26  1  0
 28 21  2  0
 29 30  2  0
 30 49  1  0
 31 30  1  0
 31 34  1  0
 32 33  1  0
 32 29  1  0
 33 31  2  0
 34 35  1  0
 35 36  2  0
 37 40  1  0
 37 36  1  0
 38 37  2  0
 39 38  1  0
 39 34  2  0
 40 41  1  0
 41 42  1  0
 42 43  2  0
 44 43  1  0
 44 48  1  0
 45 44  2  0
 46 41  2  0
 46 45  1  0
 47 46  1  0
 49 50  1  0
 50 53  1  0
 50 52  1  0
 51 49  2  0
 54 29  1  0
 54 55  1  0
 56 54  1  0
 57 58  1  0
 59 58  1  0
 60 71  2  0
 61 59  1  0
 61 66  1  0
 62 70  1  0
 62 72  1  0
 63 69  1  0
 63 65  1  0
 64 70  1  0
 65 66  2  0
 65 64  1  0
 67 61  2  0
 68 67  1  0
 68 63  2  0
 69 62  1  0
 70 60  1  0
 72 74  2  0
 73 72  1  0
 75 73  1  0
 76 85  2  0
 76 81  1  0
 77 73  1  0
 77 81  1  0
 78 77  1  0
 79 80  1  0
 79 78  1  0
 80 76  1  0
 81 82  2  0
 82 83  1  0
 84 83  2  0
 85 84  1  0
 86 60  1  0
 86 91  1  0
 86 87  1  0
 87 90  1  1
 87 88  1  0
 89 87  1  0
 91 94  1  0
 92 96  1  0
 92 91  1  0
 93 92  2  0
 96 95  1  0
 98 99  1  0
 98 96  1  0
 98 97  1  0
M  ISO  4  20 100  21 100  58 101  59 101
M  END
>  <TORSDO>  (80) 
F 23

>  <SCORE>  (80) 
-9.395

>  <name>  (80) 
79

>  <ligand_id>  (80) 
79

>  <original_smiles>  (80) 
[H]c1c(C(C([H])([H])[H])(C([H])([H])[H])C([H])([H])[H])nc(C([H])([H])C([H])([H])Oc2c([H])c([H])c3c(c2[H])C([H])([H])N(C(=O)C([H])(N([H])C(=O)C([H])(N([H])C([H])([H])[H])C([H])([H])[H])C(C([H])([H])[H])(C([H])([H])[H])C([H])([H])[H])C([H])(C(=O)N([H])C2([H])c4c([H])c([H])c([H])c([H])c4C([H])([H])C([H])([H])C2([H])[H])C3([H])[H])nc1C(C([H])([H])[H])(C([H])([H])[H])C([H])(C([H])(C(=O)N1C([H])([H])C([H])([H])C([H])([H])C([H])(n2nc(-c3c([H])c([H])c(Oc4c([H])c([H])c(F)c([H])c4F)c([H])c3[H])c(C(=O)N([H])[H])c2N([H])[H])C1([H])[H])C([H])([H])[H])[N+]([H])([H])[H]

>  <smiles>  (80) 
[H]c1c(C(C([H])([H])[H])(C([H])([H])[H])C([H])([H])[H])nc(C([H])([H])C([H])([H])Oc2c([H])c([H])c3c(c2[H])C([H])([H])N(C(=O)C([H])(N([H])C(=O)C([H])(N([H])C([H])([H])[H])C([H])([H])[H])C(C([H])([H])[H])(C([H])([H])[H])C([H])([H])[H])C([H])(C(=O)N([H])C2([H])c4c([H])c([H])c([H])c([H])c4C([H])([H])C([H])([H])C2([H])[H])C3([H])[H])nc1C(C([H])([H])[H])(C([H])([H])[H])C([H])(C([H])(C(=O)N1C([H])([H])C([H])([H])C([H])([H])C([H])(n2nc(-c3c([H])c([H])c(Oc4c([H])c([H])c(F)c([H])c4F)c([H])c3[H])c(C(=O)N([H])[H])c2N([H])[H])C1([H])[H])C([H])([H])[H])[N+]([H])([H])[H]

$$$$
80:0:0
     RDKit          3D

 93101  0  0  1  0  0  0  0  0999 V2000
  -29.8360  -20.1180   20.9650 C   0  0  0  0  0  3  0  0  0  0  0  0
  -29.0540  -20.3740   19.8630 C   0  0  0  0  0  0  0  0  0  0  0  0
  -29.8310  -18.0870   19.8940 C   0  0  0  0  0  3  0  0  0  0  0  0
  -30.3020  -18.7970   20.9730 N   0  0  0  0  0  0  0  0  0  0  0  0
  -29.0130  -19.0550   19.3090 N   0  0  0  0  0  0  0  0  0  0  0  0
  -28.3540  -18.7820   18.5830 H   0  0  0  0  0  0  0  0  0  0  0  0
  -32.6640  -18.3220   21.3770 C   0  0  0  0  0  1  0  0  0  0  0  0
  -30.8260  -16.8640   22.4300 C   0  0  0  0  0  1  0  0  0  0  0  0
  -31.3410  -19.1590   23.2950 C   0  0  0  0  0  1  0  0  0  0  0  0
  -31.2550  -18.2830   21.9970 C   0  0  2  0  0  0  0  0  0  0  0  0
  -30.3330  -16.6970   17.8850 C   0  0  0  0  0  1  0  0  0  0  0  0
  -29.9360  -16.5070   19.3710 C   0  0  0  0  0  3  0  0  0  0  0  0
  -30.8200  -15.1410   19.8300 C   0  0  0  0  0  0  0  0  0  0  0  0
  -30.7130  -12.7270   19.0650 C   0  0  0  0  0  2  0  0  0  0  0  0
  -29.7620  -12.6620   17.8460 C   0  0  0  0  0  2  0  0  0  0  0  0
  -28.3030  -12.4720   18.2940 C   0  0  0  0  0  2  0  0  0  0  0  0
  -27.9080  -13.4320   19.4440 C   0  0  0  0  0  3  0  0  0  0  0  0
  -28.9810  -13.5250   20.5480 C   0  0  0  0  0  2  0  0  0  0  0  0
  -30.2580  -13.8660   19.9140 N   0  0  0  0  0  0  0  0  0  0  0  0
  -32.0490  -15.1720   19.6950 O   0  0  0  0  0  0  0  0  0  0  0  0
  -25.5780  -14.0580   20.3070 C   0  0  0  0  0  0  0  0  0  0  0  0
  -24.5130  -13.3080   20.7060 C   0  0  0  0  0  0  0  0  0  0  0  0
  -24.9460  -11.9450   20.6460 C   0  0  0  0  0  0  0  0  0  0  0  0
  -26.5910  -13.1600   20.0030 N   0  0  0  0  0  0  0  0  0  0  0  0
  -26.2240  -11.8850   20.2760 N   0  0  0  0  0  0  0  0  0  0  0  0
  -24.2020  -10.6990   20.8510 C   0  0  0  0  0  0  0  0  0  0  0  0
  -24.5970   -9.7530   21.8260 C   0  0  0  0  0  3  0  0  0  0  0  0
  -23.8520   -8.5700   22.0150 C   0  0  0  0  0  3  0  0  0  0  0  0
  -22.7020   -8.3240   21.2270 C   0  0  0  0  0  0  0  0  0  0  0  0
  -22.3280   -9.2570   20.2390 C   0  0  0  0  0  3  0  0  0  0  0  0
  -23.0730  -10.4320   20.0500 C   0  0  0  0  0  3  0  0  0  0  0  0
  -21.9300   -7.1910   21.3200 O   0  0  0  0  0  0  0  0  0  0  0  0
  -21.7450   -6.5410   22.5130 C   0  0  0  0  0  0  0  0  0  0  0  0
  -21.1750   -7.1850   23.6310 C   0  0  0  0  0  3  0  0  0  0  0  0
  -20.9470   -6.4620   24.8210 C   0  0  0  0  0  3  0  0  0  0  0  0
  -21.2750   -5.1000   24.8870 C   0  0  0  0  0  0  0  0  0  0  0  0
  -21.8400   -4.4490   23.7700 C   0  0  0  0  0  3  0  0  0  0  0  0
  -22.0740   -5.1690   22.5860 C   0  0  0  0  0  0  0  0  0  0  0  0
  -22.5980   -4.5390   21.5080 F   0  0  0  0  0  0  0  0  0  0  0  0
  -21.0480   -4.3990   26.0230 F   0  0  0  0  0  0  0  0  0  0  0  0
  -23.1380  -13.8100   21.0310 C   0  0  0  0  0  0  0  0  0  0  0  0
  -22.4340  -13.1300   21.9260 N   0  0  0  0  0  0  0  0  0  0  0  0
  -22.7010  -14.8510   20.5310 O   0  0  0  0  0  0  0  0  0  0  0  0
  -22.8050  -12.2890   22.3490 H   0  0  0  0  0  0  0  0  0  0  0  0
  -21.5120  -13.4440   22.1910 H   0  0  0  0  0  0  0  0  0  0  0  0
  -25.7730  -15.4320   20.1430 N   0  0  0  0  0  0  0  0  0  0  0  0
  -25.0320  -16.1110   20.2860 H   0  0  0  0  0  0  0  0  0  0  0  0
  -26.6210  -15.8470   19.7860 H   0  0  0  0  0  0  0  0  0  0  0  0
  -28.3770  -21.7760   19.3620 C   0  0  0  0  0  3  0  0  0  0  0  0
  -28.2490  -23.1690   20.3160 C   0  0  0  0  0  3  0  0  0  0  0  0
  -28.4300  -25.0450   18.4970 C   0  0  0  0  0  1  0  0  0  0  0  0
  -27.6760  -24.6640   19.7680 C   0  0  0  0  0  3  0  0  0  0  0  0
  -27.7040  -26.0660   20.4650 O   0  0  0  0  0  0  0  0  0  0  0  0
  -24.4640  -31.9990   23.3670 C   0  0  0  0  0  0  0  0  0  0  0  0
  -26.7140  -27.1070   20.3380 C   0  0  0  0  0  0  0  0  0  0  0  0
  -23.1620  -30.6330   21.7880 C   0  0  0  0  0  3  0  0  0  0  0  0
  -24.4920  -28.9810   20.3380 C   0  0  0  0  0  0  0  0  0  0  0  0
  -25.7250  -30.7690   21.5570 C   0  0  0  0  0  2  0  0  0  0  0  0
  -25.7050  -29.3690   20.9190 C   0  0  0  0  0  0  0  0  0  0  0  0
  -26.8170  -28.4420   20.9050 C   0  0  0  0  0  3  0  0  0  0  0  0
  -25.4780  -26.8360   19.7040 C   0  0  0  0  0  3  0  0  0  0  0  0
  -24.3950  -27.7340   19.7130 C   0  0  0  0  0  3  0  0  0  0  0  0
  -23.3080  -29.9350   20.4130 C   0  0  0  0  0  2  0  0  0  0  0  0
  -24.4730  -31.1550   22.2900 N   0  0  0  0  0  0  0  0  0  0  0  0
  -23.4050  -32.3390   23.9120 O   0  0  0  0  0  0  0  0  0  0  0  0
  -22.4690  -29.6640   22.7760 C   0  0  0  0  0  0  0  0  0  0  0  0
  -21.1500  -29.4510   22.6000 N   0  0  0  0  0  0  0  0  0  0  0  0
  -23.1160  -29.1040   23.6640 O   0  0  0  0  0  0  0  0  0  0  0  0
  -20.6790  -29.9540   21.8600 H   0  0  0  0  0  0  0  0  0  0  0  0
  -17.8050  -28.1150   22.9560 C   0  0  0  0  0  0  0  0  0  0  0  0
  -20.3170  -28.5450   23.3930 C   0  0  0  0  0  3  0  0  0  0  0  0
  -20.5370  -27.0720   22.9720 C   0  0  0  0  0  2  0  0  0  0  0  0
  -19.5390  -26.5930   21.9130 C   0  0  0  0  0  2  0  0  0  0  0  0
  -18.1030  -26.7200   22.4290 C   0  0  0  0  0  2  0  0  0  0  0  0
  -18.8450  -28.9760   23.3930 C   0  0  0  0  0  0  0  0  0  0  0  0
  -18.5150  -30.2750   23.8360 C   0  0  0  0  0  3  0  0  0  0  0  0
  -17.1780  -30.7120   23.8550 C   0  0  0  0  0  3  0  0  0  0  0  0
  -16.1510  -29.8470   23.4390 C   0  0  0  0  0  3  0  0  0  0  0  0
  -16.4660  -28.5520   22.9920 C   0  0  0  0  0  3  0  0  0  0  0  0
  -25.7820  -32.5880   23.9490 C   0  0  0  0  0  3  0  0  0  0  0  0
  -25.5580  -34.0200   24.2080 N   0  0  0  0  0  0  0  0  0  0  0  0
  -25.9270  -35.0140   23.3850 C   0  0  0  0  0  0  0  0  0  0  0  0
  -26.5580  -34.8150   22.3450 O   0  0  0  0  0  0  0  0  0  0  0  0
  -25.0030  -34.2560   25.0180 H   0  0  0  0  0  0  0  0  0  0  0  0
  -24.2810  -36.8750   22.9960 C   0  0  0  0  0  1  0  0  0  0  0  0
  -25.5320  -36.4500   23.7830 C   0  0  0  0  0  3  0  0  0  0  0  0
  -27.7360  -37.2660   24.4920 C   0  0  0  0  0  1  0  0  0  0  0  0
  -26.6150  -37.4360   23.5690 N   0  0  0  0  0  0  0  0  0  0  0  0
  -26.2640  -38.3830   23.6750 H   0  0  0  0  0  0  0  0  0  0  0  0
  -26.2550  -31.8620   25.2690 C   0  0  1  0  0  0  0  0  0  0  0  0
  -25.1420  -31.7310   26.3340 C   0  0  0  0  0  1  0  0  0  0  0  0
  -26.7730  -30.4400   24.9560 C   0  0  0  0  0  1  0  0  0  0  0  0
  -27.4350  -32.6360   25.8990 C   0  0  0  0  0  1  0  0  0  0  0  0
  1  4  1  0
  2  1  2  0
  3 12  1  0
  3  4  1  0
  4 10  1  0
  5  2  1  0
  5  3  1  0
  6  5  1  0
 10  7  1  6
 10  8  1  0
 10  9  1  0
 12 11  1  0
 12 13  1  0
 13 19  1  0
 14 19  1  0
 15 16  1  0
 15 14  1  0
 17 16  1  0
 17 24  1  0
 17 18  1  0
 19 18  1  0
 20 13  2  0
 21 22  2  0
 22 41  1  0
 23 22  1  0
 23 26  1  0
 24 25  1  0
 24 21  1  0
 25 23  2  0
 26 27  1  0
 27 28  2  0
 29 32  1  0
 29 28  1  0
 30 29  2  0
 31 30  1  0
 31 26  2  0
 32 33  1  0
 33 38  2  0
 33 34  1  0
 34 35  2  0
 35 36  1  0
 36 40  1  0
 37 36  2  0
 38 37  1  0
 39 38  1  0
 41 42  1  0
 42 45  1  0
 42 44  1  0
 43 41  2  0
 46 47  1  0
 46 21  1  0
 48 46  1  0
 49  2  1  0
 49 50  2  0
 52 51  1  0
 52 50  1  0
 52 53  1  0
 54 65  2  0
 55 53  1  0
 55 60  1  0
 56 64  1  0
 56 66  1  0
 57 63  1  0
 57 59  1  0
 58 64  1  0
 59 58  1  0
 60 59  2  0
 61 62  1  0
 61 55  2  0
 62 57  2  0
 63 56  1  0
 64 54  1  0
 66 68  2  0
 67 66  1  0
 69 67  1  0
 70 79  2  0
 70 75  1  0
 71 67  1  0
 72 71  1  0
 73 74  1  0
 73 72  1  0
 74 70  1  0
 75 71  1  0
 75 76  2  0
 76 77  1  0
 78 77  2  0
 79 78  1  0
 80 54  1  0
 80 81  1  0
 80 90  1  0
 81 84  1  0
 82 86  1  0
 82 81  1  0
 83 82  2  0
 86 85  1  0
 88 89  1  0
 88 86  1  0
 88 87  1  0
 90 93  1  1
 90 91  1  0
 92 90  1  0
M  ISO  4  12 100  13 100  52 101  53 101
M  END
>  <TORSDO>  (81) 
F 21

>  <SCORE>  (81) 
-12.058

>  <name>  (81) 
80

>  <ligand_id>  (81) 
80

>  <original_smiles>  (81) 
[H]c1c([H])c([H])c2c(c1[H])C([H])([H])C([H])([H])C([H])([H])C2([H])N([H])C(=O)C1([H])N(C(=O)C([H])(N([H])C(=O)C([H])(N([H])C([H])([H])[H])C([H])([H])[H])C(C([H])([H])[H])(C([H])([H])[H])C([H])([H])[H])C([H])([H])c2c([H])c(OC([H])(C([H])([H])[H])C([H])([H])C([H])([H])c3c([H])n(C(C([H])([H])[H])(C([H])([H])[H])C([H])([H])[H])c(C([H])(C(=O)N4C([H])([H])C([H])([H])C([H])([H])C([H])(n5nc(-c6c([H])c([H])c(Oc7c([H])c([H])c(F)c([H])c7F)c([H])c6[H])c(C(=O)N([H])[H])c5N([H])[H])C4([H])[H])C([H])([H])[H])[n+]3[H])c([H])c([H])c2C1([H])[H]

>  <smiles>  (81) 
[H]c1c([H])c([H])c2c(c1[H])C([H])([H])C([H])([H])C([H])([H])C2([H])N([H])C(=O)C1([H])N(C(=O)C([H])(N([H])C(=O)C([H])(N([H])C([H])([H])[H])C([H])([H])[H])C(C([H])([H])[H])(C([H])([H])[H])C([H])([H])[H])C([H])([H])c2c([H])c(OC([H])(C([H])([H])[H])C([H])([H])C([H])([H])c3c([H])n(C(C([H])([H])[H])(C([H])([H])[H])C([H])([H])[H])c(C([H])(C(=O)N4C([H])([H])C([H])([H])C([H])([H])C([H])(n5nc(-c6c([H])c([H])c(Oc7c([H])c([H])c(F)c([H])c7F)c([H])c6[H])c(C(=O)N([H])[H])c5N([H])[H])C4([H])[H])C([H])([H])[H])[n+]3[H])c([H])c([H])c2C1([H])[H]

$$$$
81:0:0
     RDKit          3D

 94102  0  0  1  0  0  0  0  0999 V2000
  -29.9540  -20.0350   20.7590 C   0  0  0  0  0  3  0  0  0  0  0  0
  -29.4880  -20.7450   19.6500 C   0  0  0  0  0  0  0  0  0  0  0  0
  -30.1820  -18.6300   19.0720 C   0  0  0  0  0  3  0  0  0  0  0  0
  -30.4190  -17.4470   18.2020 C   0  0  0  0  0  1  0  0  0  0  0  0
  -30.3190  -18.7040   20.4030 N   0  0  0  0  0  0  0  0  0  0  0  0
  -29.7330  -19.8310   18.6410 N   0  0  0  0  0  0  0  0  0  0  0  0
  -29.5660  -20.0270   17.6620 H   0  0  0  0  0  0  0  0  0  0  0  0
  -28.7350  -22.1070   19.2820 C   0  0  0  0  0  2  0  0  0  0  0  0
  -28.5940  -23.4770   20.1440 C   0  0  0  0  0  3  0  0  0  0  0  0
  -27.9250  -24.7550   19.3720 C   0  0  0  0  0  3  0  0  0  0  0  0
  -27.9580  -26.1830   19.8650 O   0  0  0  0  0  0  0  0  0  0  0  0
  -24.6020  -31.7340   23.1390 C   0  0  0  0  0  0  0  0  0  0  0  0
  -26.8510  -27.0790   19.8610 C   0  0  0  0  0  0  0  0  0  0  0  0
  -23.2450  -30.4050   21.5610 C   0  0  0  0  0  3  0  0  0  0  0  0
  -24.5480  -28.8140   20.0310 C   0  0  0  0  0  0  0  0  0  0  0  0
  -25.7850  -30.6150   21.2240 C   0  0  0  0  0  2  0  0  0  0  0  0
  -25.7710  -29.2400   20.5570 C   0  0  0  0  0  0  0  0  0  0  0  0
  -26.9190  -28.3860   20.4600 C   0  0  0  0  0  3  0  0  0  0  0  0
  -25.5950  -26.7270   19.3090 C   0  0  0  0  0  3  0  0  0  0  0  0
  -24.4650  -27.5640   19.4000 C   0  0  0  0  0  3  0  0  0  0  0  0
  -23.3510  -29.7350   20.1680 C   0  0  0  0  0  2  0  0  0  0  0  0
  -24.5700  -30.9340   22.0310 N   0  0  0  0  0  0  0  0  0  0  0  0
  -23.5640  -32.0470   23.7400 O   0  0  0  0  0  0  0  0  0  0  0  0
  -22.6000  -29.4040   22.5530 C   0  0  0  0  0  0  0  0  0  0  0  0
  -21.2830  -29.1700   22.4100 N   0  0  0  0  0  0  0  0  0  0  0  0
  -23.2850  -28.8420   23.4100 O   0  0  0  0  0  0  0  0  0  0  0  0
  -20.7890  -29.6880   21.6990 H   0  0  0  0  0  0  0  0  0  0  0  0
  -17.9820  -27.7310   22.7870 C   0  0  0  0  0  0  0  0  0  0  0  0
  -20.4850  -28.2320   23.2040 C   0  0  0  0  0  3  0  0  0  0  0  0
  -20.7380  -26.7700   22.7670 C   0  0  0  0  0  2  0  0  0  0  0  0
  -19.7440  -26.2720   21.7130 C   0  0  0  0  0  2  0  0  0  0  0  0
  -18.3110  -26.3490   22.2480 C   0  0  0  0  0  2  0  0  0  0  0  0
  -19.0010  -28.6200   23.2210 C   0  0  0  0  0  0  0  0  0  0  0  0
  -18.6400  -29.9020   23.6880 C   0  0  0  0  0  3  0  0  0  0  0  0
  -17.2910  -30.3020   23.7260 C   0  0  0  0  0  3  0  0  0  0  0  0
  -16.2840  -29.4140   23.3090 C   0  0  0  0  0  3  0  0  0  0  0  0
  -16.6290  -28.1310   22.8460 C   0  0  0  0  0  3  0  0  0  0  0  0
  -25.9390  -32.3130   23.6910 C   0  0  0  0  0  3  0  0  0  0  0  0
  -25.6750  -33.6840   24.1570 N   0  0  0  0  0  0  0  0  0  0  0  0
  -25.9660  -34.7950   23.4680 C   0  0  0  0  0  0  0  0  0  0  0  0
  -26.5540  -34.7720   22.3840 O   0  0  0  0  0  0  0  0  0  0  0  0
  -25.1360  -33.7740   25.0070 H   0  0  0  0  0  0  0  0  0  0  0  0
  -24.2420  -36.6300   23.4060 C   0  0  0  0  0  1  0  0  0  0  0  0
  -25.5380  -36.1480   24.0750 C   0  0  0  0  0  3  0  0  0  0  0  0
  -27.7470  -36.9390   24.7920 C   0  0  0  0  0  1  0  0  0  0  0  0
  -26.5740  -37.1980   23.9630 N   0  0  0  0  0  0  0  0  0  0  0  0
  -26.2000  -38.1070   24.2190 H   0  0  0  0  0  0  0  0  0  0  0  0
  -26.5580  -31.4440   24.8560 C   0  0  1  0  0  0  0  0  0  0  0  0
  -25.5560  -31.1080   25.9870 C   0  0  0  0  0  1  0  0  0  0  0  0
  -27.1080  -30.1090   24.3050 C   0  0  0  0  0  1  0  0  0  0  0  0
  -27.7590  -32.1900   25.4830 C   0  0  0  0  0  1  0  0  0  0  0  0
  -30.7140  -17.5740   21.4090 C   0  0  0  0  0  3  0  0  0  0  0  0
  -31.6930  -15.4430   22.5640 C   0  0  0  0  0  1  0  0  0  0  0  0
  -30.9540  -15.9040   21.2820 C   0  0  0  0  0  3  0  0  0  0  0  0
  -31.5020  -14.8130   20.2110 C   0  0  0  0  0  0  0  0  0  0  0  0
  -31.1870  -12.6280   18.9610 C   0  0  0  0  0  2  0  0  0  0  0  0
  -30.2200  -12.7870   17.7640 C   0  0  0  0  0  2  0  0  0  0  0  0
  -28.7420  -12.7060   18.2050 C   0  0  0  0  0  2  0  0  0  0  0  0
  -28.4550  -13.5430   19.4800 C   0  0  0  0  0  3  0  0  0  0  0  0
  -29.5130  -13.2440   20.5650 C   0  0  0  0  0  2  0  0  0  0  0  0
  -30.8240  -13.6210   20.0000 N   0  0  0  0  0  0  0  0  0  0  0  0
  -32.5950  -14.9780   19.6570 O   0  0  0  0  0  0  0  0  0  0  0  0
  -26.1080  -14.2940   20.2080 C   0  0  0  0  0  0  0  0  0  0  0  0
  -24.9980  -13.5880   20.5940 C   0  0  0  0  0  0  0  0  0  0  0  0
  -25.3750  -12.2120   20.5650 C   0  0  0  0  0  0  0  0  0  0  0  0
  -27.0920  -13.3460   19.9690 N   0  0  0  0  0  0  0  0  0  0  0  0
  -26.6570  -12.0890   20.2390 N   0  0  0  0  0  0  0  0  0  0  0  0
  -24.5720  -10.9980   20.7660 C   0  0  0  0  0  0  0  0  0  0  0  0
  -24.9300  -10.0270   21.7270 C   0  0  0  0  0  3  0  0  0  0  0  0
  -24.1310   -8.8780   21.9160 C   0  0  0  0  0  3  0  0  0  0  0  0
  -22.9610   -8.6920   21.1420 C   0  0  0  0  0  0  0  0  0  0  0  0
  -22.6210   -9.6510   20.1700 C   0  0  0  0  0  3  0  0  0  0  0  0
  -23.4210  -10.7900   19.9810 C   0  0  0  0  0  3  0  0  0  0  0  0
  -22.1370   -7.5940   21.2410 O   0  0  0  0  0  0  0  0  0  0  0  0
  -21.9620   -6.9280   22.4280 C   0  0  0  0  0  0  0  0  0  0  0  0
  -21.5080   -7.5860   23.5920 C   0  0  0  0  0  3  0  0  0  0  0  0
  -21.2740   -6.8540   24.7720 C   0  0  0  0  0  3  0  0  0  0  0  0
  -21.4820   -5.4610   24.7910 C   0  0  0  0  0  0  0  0  0  0  0  0
  -21.9290   -4.8010   23.6310 C   0  0  0  0  0  3  0  0  0  0  0  0
  -22.1650   -5.5330   22.4530 C   0  0  0  0  0  0  0  0  0  0  0  0
  -22.5750   -4.8890   21.3360 F   0  0  0  0  0  0  0  0  0  0  0  0
  -21.2490   -4.7550   25.9210 F   0  0  0  0  0  0  0  0  0  0  0  0
  -23.6370  -14.1570   20.8800 C   0  0  0  0  0  0  0  0  0  0  0  0
  -22.8920  -13.5340   21.7890 N   0  0  0  0  0  0  0  0  0  0  0  0
  -23.2430  -15.1840   20.3330 O   0  0  0  0  0  0  0  0  0  0  0  0
  -23.2170  -12.7010   22.2550 H   0  0  0  0  0  0  0  0  0  0  0  0
  -21.9790  -13.8980   22.0240 H   0  0  0  0  0  0  0  0  0  0  0  0
  -26.3540  -15.6500   20.0240 N   0  0  0  0  0  0  0  0  0  0  0  0
  -25.6280  -16.3490   20.1420 H   0  0  0  0  0  0  0  0  0  0  0  0
  -27.2170  -16.0380   19.6670 H   0  0  0  0  0  0  0  0  0  0  0  0
  -29.7840  -17.8390   22.6660 C   0  0  0  0  0  2  0  0  0  0  0  0
  -31.2280  -19.8300   23.6070 C   0  0  0  0  0  1  0  0  0  0  0  0
  -30.9020  -17.6980   24.9920 C   0  0  0  0  0  1  0  0  0  0  0  0
  -30.3230  -18.6150   23.9000 C   0  0  0  0  0  3  0  0  0  0  0  0
  2  1  2  0
  3  4  1  0
  3  5  1  0
  5  1  1  0
  5 52  1  0
  6  3  1  0
  6  2  1  0
  7  6  1  0
  8  2  1  0
  8  9  1  0
 10 11  1  0
 10  9  2  0
 12 23  2  0
 13 11  1  0
 13 18  1  0
 14 22  1  0
 14 24  1  0
 15 21  1  0
 15 17  1  0
 16 22  1  0
 17 16  1  0
 18 17  2  0
 19 20  1  0
 19 13  2  0
 20 15  2  0
 21 14  1  0
 22 12  1  0
 24 26  2  0
 25 24  1  0
 27 25  1  0
 28 37  2  0
 28 33  1  0
 29 25  1  0
 29 33  1  0
 30 29  1  0
 31 32  1  0
 31 30  1  0
 32 28  1  0
 33 34  2  0
 34 35  1  0
 36 35  2  0
 37 36  1  0
 38 12  1  0
 38 39  1  0
 38 48  1  0
 39 42  1  0
 40 44  1  0
 40 39  1  0
 41 40  2  0
 44 43  1  0
 46 44  1  0
 46 47  1  0
 46 45  1  0
 48 51  1  1
 48 49  1  0
 50 48  1  0
 52 91  1  0
 54 52  1  0
 54 53  1  0
 55 54  1  0
 56 61  1  0
 57 58  1  0
 57 56  1  0
 59 58  1  0
 59 66  1  0
 59 60  1  0
 61 55  1  0
 61 60  1  0
 62 55  2  0
 63 64  2  0
 64 83  1  0
 65 64  1  0
 65 68  1  0
 66 63  1  0
 66 67  1  0
 67 65  2  0
 68 69  1  0
 69 70  2  0
 71 74  1  0
 71 70  1  0
 72 71  2  0
 73 72  1  0
 73 68  2  0
 74 75  1  0
 75 80  2  0
 75 76  1  0
 76 77  2  0
 77 78  1  0
 78 82  1  0
 79 78  2  0
 80 79  1  0
 81 80  1  0
 83 84  1  0
 84 87  1  0
 84 86  1  0
 85 83  2  0
 88 89  1  0
 88 63  1  0
 90 88  1  0
 91 94  1  0
 92 94  1  0
 94 93  1  0
M  ISO  4  10 101  11 101  54 100  55 100
M  END
>  <TORSDO>  (82) 
F 23

>  <SCORE>  (82) 
-6.705

>  <name>  (82) 
81

>  <ligand_id>  (82) 
81

>  <original_smiles>  (82) 
[H]c1c([H])c([H])c2c(c1[H])C([H])([H])C([H])([H])C([H])([H])C2([H])N([H])C(=O)C1([H])N(C(=O)C([H])(N([H])C(=O)C([H])(N([H])C([H])([H])[H])C([H])([H])[H])C(C([H])([H])[H])(C([H])([H])[H])C([H])([H])[H])C([H])([H])c2c([H])c(OC([H])([H])C([H])([H])C([H])([H])c3c([H])n(C([H])(C([H])([H])C([H])(C([H])([H])[H])C([H])([H])[H])C([H])(C(=O)N4C([H])([H])C([H])([H])C([H])([H])C([H])(n5nc(-c6c([H])c([H])c(Oc7c([H])c([H])c(F)c([H])c7F)c([H])c6[H])c(C(=O)N([H])[H])c5N([H])[H])C4([H])[H])C([H])([H])[H])c(C([H])([H])[H])[n+]3[H])c([H])c([H])c2C1([H])[H]

>  <smiles>  (82) 
[H]c1c([H])c([H])c2c(c1[H])C([H])([H])C([H])([H])C([H])([H])C2([H])N([H])C(=O)C1([H])N(C(=O)C([H])(N([H])C(=O)C([H])(N([H])C([H])([H])[H])C([H])([H])[H])C(C([H])([H])[H])(C([H])([H])[H])C([H])([H])[H])C([H])([H])c2c([H])c(OC([H])([H])C([H])([H])C([H])([H])c3c([H])n(C([H])(C([H])([H])C([H])(C([H])([H])[H])C([H])([H])[H])C([H])(C(=O)N4C([H])([H])C([H])([H])C([H])([H])C([H])(n5nc(-c6c([H])c([H])c(Oc7c([H])c([H])c(F)c([H])c7F)c([H])c6[H])c(C(=O)N([H])[H])c5N([H])[H])C4([H])[H])C([H])([H])[H])c(C([H])([H])[H])[n+]3[H])c([H])c([H])c2C1([H])[H]

$$$$
82:0:0
     RDKit          3D

 92100  0  0  1  0  0  0  0  0999 V2000
  -27.6750  -21.8620   22.1440 C   0  0  0  0  0  3  0  0  0  0  0  0
  -28.3870  -22.1850   21.0120 C   0  0  0  0  0  0  0  0  0  0  0  0
  -26.9770  -23.8610   21.5130 C   0  0  0  0  0  3  0  0  0  0  0  0
  -26.0520  -25.0400   21.4210 C   0  0  0  0  0  1  0  0  0  0  0  0
  -28.0230  -23.5200   20.7250 N   0  0  0  0  0  0  0  0  0  0  0  0
  -26.8360  -22.8960   22.4180 N   0  0  0  0  0  0  0  0  0  0  0  0
  -26.1500  -22.8960   23.1610 H   0  0  0  0  0  0  0  0  0  0  0  0
  -29.2680  -21.2310   20.1950 C   0  0  0  0  0  2  0  0  0  0  0  0
  -29.8460  -19.9800   20.9780 C   0  0  0  0  0  2  0  0  0  0  0  0
  -29.8910  -18.5770   20.2590 C   0  0  0  0  0  2  0  0  0  0  0  0
  -30.6930  -17.4660   21.0410 C   0  0  0  0  0  2  0  0  0  0  0  0
  -31.1100  -15.0120   20.3710 C   0  0  0  0  0  0  0  0  0  0  0  0
  -30.8940  -12.7660   19.3360 C   0  0  0  0  0  2  0  0  0  0  0  0
  -29.9650  -12.8790   18.1060 C   0  0  0  0  0  2  0  0  0  0  0  0
  -28.4840  -12.7530   18.5200 C   0  0  0  0  0  2  0  0  0  0  0  0
  -28.1240  -13.6600   19.7260 C   0  0  0  0  0  3  0  0  0  0  0  0
  -29.1590  -13.4940   20.8600 C   0  0  0  0  0  2  0  0  0  0  0  0
  -30.4800  -13.8040   20.2950 N   0  0  0  0  0  0  0  0  0  0  0  0
  -32.2680  -15.1770   19.9760 O   0  0  0  0  0  0  0  0  0  0  0  0
  -30.3270  -16.0510   20.7670 N   0  0  0  0  0  0  0  0  0  0  0  0
  -29.3830  -15.7900   21.0080 H   0  0  0  0  0  0  0  0  0  0  0  0
  -25.7450  -14.3340   20.4350 C   0  0  0  0  0  0  0  0  0  0  0  0
  -24.6510  -13.5880   20.7830 C   0  0  0  0  0  0  0  0  0  0  0  0
  -25.0680  -12.2230   20.7280 C   0  0  0  0  0  0  0  0  0  0  0  0
  -26.7620  -13.4220   20.1940 N   0  0  0  0  0  0  0  0  0  0  0  0
  -26.3590  -12.1470   20.4260 N   0  0  0  0  0  0  0  0  0  0  0  0
  -24.3010  -10.9820   20.8860 C   0  0  0  0  0  0  0  0  0  0  0  0
  -24.6790   -9.9930   21.8210 C   0  0  0  0  0  3  0  0  0  0  0  0
  -23.9150   -8.8160   21.9660 C   0  0  0  0  0  3  0  0  0  0  0  0
  -22.7570   -8.6200   21.1760 C   0  0  0  0  0  0  0  0  0  0  0  0
  -22.3980   -9.5970   20.2300 C   0  0  0  0  0  3  0  0  0  0  0  0
  -23.1620  -10.7650   20.0830 C   0  0  0  0  0  3  0  0  0  0  0  0
  -21.9690   -7.4960   21.2320 O   0  0  0  0  0  0  0  0  0  0  0  0
  -21.8360   -6.7660   22.3860 C   0  0  0  0  0  0  0  0  0  0  0  0
  -21.3370   -7.3380   23.5770 C   0  0  0  0  0  3  0  0  0  0  0  0
  -21.1530   -6.5350   24.7200 C   0  0  0  0  0  3  0  0  0  0  0  0
  -21.4550   -5.1610   24.6720 C   0  0  0  0  0  0  0  0  0  0  0  0
  -21.9460   -4.5890   23.4850 C   0  0  0  0  0  3  0  0  0  0  0  0
  -22.1310   -5.3880   22.3450 C   0  0  0  0  0  0  0  0  0  0  0  0
  -22.5840   -4.8280   21.1980 F   0  0  0  0  0  0  0  0  0  0  0  0
  -21.2700   -4.3880   25.7680 F   0  0  0  0  0  0  0  0  0  0  0  0
  -23.2690  -14.1060   21.0600 C   0  0  0  0  0  0  0  0  0  0  0  0
  -22.5170  -13.4160   21.9130 N   0  0  0  0  0  0  0  0  0  0  0  0
  -22.8640  -15.1530   20.5590 O   0  0  0  0  0  0  0  0  0  0  0  0
  -22.8570  -12.5650   22.3350 H   0  0  0  0  0  0  0  0  0  0  0  0
  -21.5930  -13.7440   22.1490 H   0  0  0  0  0  0  0  0  0  0  0  0
  -25.9540  -15.7010   20.2860 N   0  0  0  0  0  0  0  0  0  0  0  0
  -25.2000  -16.3710   20.3840 H   0  0  0  0  0  0  0  0  0  0  0  0
  -26.8120  -16.1190   19.9470 H   0  0  0  0  0  0  0  0  0  0  0  0
  -28.5080  -24.4760   19.6710 C   0  0  0  0  0  2  0  0  0  0  0  0
  -28.9390  -25.9080   20.1910 C   0  0  0  0  0  2  0  0  0  0  0  0
  -28.6750  -27.0730   19.3640 O   0  0  0  0  0  0  0  0  0  0  0  0
  -24.7240  -31.8040   23.0800 C   0  0  0  0  0  0  0  0  0  0  0  0
  -27.4820  -27.7540   19.5420 C   0  0  0  0  0  0  0  0  0  0  0  0
  -23.5380  -30.4870   21.3560 C   0  0  0  0  0  3  0  0  0  0  0  0
  -25.0190  -29.1510   19.7600 C   0  0  0  0  0  0  0  0  0  0  0  0
  -26.0360  -30.9870   21.1160 C   0  0  0  0  0  2  0  0  0  0  0  0
  -26.1730  -29.6770   20.3590 C   0  0  0  0  0  0  0  0  0  0  0  0
  -27.4080  -28.9870   20.2430 C   0  0  0  0  0  3  0  0  0  0  0  0
  -26.3110  -27.2570   18.9380 C   0  0  0  0  0  3  0  0  0  0  0  0
  -25.0860  -27.9420   19.0470 C   0  0  0  0  0  3  0  0  0  0  0  0
  -23.7350  -29.9370   19.9180 C   0  0  0  0  0  2  0  0  0  0  0  0
  -24.7860  -31.1030   21.9100 N   0  0  0  0  0  0  0  0  0  0  0  0
  -23.6470  -31.9720   23.6690 O   0  0  0  0  0  0  0  0  0  0  0  0
  -22.9660  -29.3570   22.2400 C   0  0  0  0  0  0  0  0  0  0  0  0
  -21.6480  -29.1160   22.1280 N   0  0  0  0  0  0  0  0  0  0  0  0
  -23.7020  -28.6990   22.9820 O   0  0  0  0  0  0  0  0  0  0  0  0
  -21.1110  -29.7070   21.5060 H   0  0  0  0  0  0  0  0  0  0  0  0
  -18.3530  -27.7020   22.6040 C   0  0  0  0  0  0  0  0  0  0  0  0
  -20.9010  -28.0720   22.8280 C   0  0  0  0  0  3  0  0  0  0  0  0
  -21.0570  -26.7060   22.1210 C   0  0  0  0  0  2  0  0  0  0  0  0
  -19.9410  -26.4170   21.1110 C   0  0  0  0  0  2  0  0  0  0  0  0
  -18.5740  -26.4320   21.8010 C   0  0  0  0  0  2  0  0  0  0  0  0
  -19.4440  -28.4820   23.0700 C   0  0  0  0  0  0  0  0  0  0  0  0
  -19.1820  -29.6730   23.7790 C   0  0  0  0  0  3  0  0  0  0  0  0
  -17.8600  -30.0900   24.0250 C   0  0  0  0  0  3  0  0  0  0  0  0
  -16.7820  -29.3080   23.5750 C   0  0  0  0  0  3  0  0  0  0  0  0
  -17.0300  -28.1150   22.8700 C   0  0  0  0  0  3  0  0  0  0  0  0
  -25.9960  -32.4400   23.7230 C   0  0  0  0  0  3  0  0  0  0  0  0
  -25.6480  -33.8090   24.1270 N   0  0  0  0  0  0  0  0  0  0  0  0
  -25.9500  -34.9100   23.4250 C   0  0  0  0  0  0  0  0  0  0  0  0
  -26.6210  -34.8800   22.3890 O   0  0  0  0  0  0  0  0  0  0  0  0
  -25.0360  -33.9020   24.9260 H   0  0  0  0  0  0  0  0  0  0  0  0
  -24.1690  -36.6690   23.1750 C   0  0  0  0  0  1  0  0  0  0  0  0
  -25.4270  -36.2560   23.9580 C   0  0  0  0  0  3  0  0  0  0  0  0
  -27.5370  -37.1570   24.8340 C   0  0  0  0  0  1  0  0  0  0  0  0
  -26.4300  -37.3420   23.9000 N   0  0  0  0  0  0  0  0  0  0  0  0
  -25.9960  -38.2400   24.0940 H   0  0  0  0  0  0  0  0  0  0  0  0
  -26.5530  -31.6170   24.9490 C   0  0  1  0  0  0  0  0  0  0  0  0
  -25.4810  -31.2890   26.0140 C   0  0  0  0  0  1  0  0  0  0  0  0
  -27.1700  -30.2820   24.4730 C   0  0  0  0  0  1  0  0  0  0  0  0
  -27.6910  -32.4090   25.6350 C   0  0  0  0  0  1  0  0  0  0  0  0
  1  6  1  0
  2  1  2  0
  3  4  1  0
  3  6  1  0
  5  2  1  0
  5  3  1  0
  6  7  1  0
  8  9  1  0
  8  2  1  0
 10  9  1  0
 10 11  1  0
 12 20  1  0
 13 18  1  0
 14 15  1  0
 14 13  1  0
 16 15  1  0
 16 25  1  0
 16 17  1  0
 18 12  1  0
 18 17  1  0
 19 12  2  0
 20 21  1  0
 20 11  1  0
 22 23  2  0
 23 42  1  0
 24 23  1  0
 24 27  1  0
 25 26  1  0
 25 22  1  0
 26 24  2  0
 27 28  1  0
 28 29  2  0
 30 33  1  0
 30 29  1  0
 31 30  2  0
 32 31  1  0
 32 27  2  0
 33 34  1  0
 34 35  1  0
 35 36  2  0
 37 36  1  0
 37 41  1  0
 38 37  2  0
 39 34  2  0
 39 38  1  0
 40 39  1  0
 42 43  1  0
 43 46  1  0
 43 45  1  0
 44 42  2  0
 47 48  1  0
 47 22  1  0
 49 47  1  0
 50 51  1  0
 50  5  1  0
 52 54  1  0
 52 51  1  0
 53 64  2  0
 54 59  1  0
 55 63  1  0
 55 65  1  0
 56 62  1  0
 56 58  1  0
 57 63  1  0
 58 57  1  0
 59 58  2  0
 60 61  1  0
 60 54  2  0
 61 56  2  0
 62 55  1  0
 63 53  1  0
 65 67  2  0
 66 65  1  0
 68 66  1  0
 69 78  2  0
 69 74  1  0
 70 66  1  0
 70 74  1  0
 71 70  1  0
 72 73  1  0
 72 71  1  0
 73 69  1  0
 74 75  2  0
 75 76  1  0
 77 76  2  0
 78 77  1  0
 79 53  1  0
 79 80  1  0
 79 89  1  0
 80 83  1  0
 81 85  1  0
 81 80  1  0
 82 81  2  0
 85 84  1  0
 87 85  1  0
 87 88  1  0
 87 86  1  0
 89 92  1  1
 89 90  1  0
 91 89  1  0
M  ISO  4  12 100  20 100  51 101  52 101
M  END
>  <TORSDO>  (83) 
F 22

>  <SCORE>  (83) 
-10.935

>  <name>  (83) 
82

>  <ligand_id>  (83) 
82

>  <original_smiles>  (83) 
[H]c1c([H])c([H])c2c(c1[H])C([H])([H])C([H])([H])C([H])([H])C2([H])N([H])C(=O)C1([H])N(C(=O)C([H])(N([H])C(=O)C([H])(N([H])C([H])([H])[H])C([H])([H])[H])C(C([H])([H])[H])(C([H])([H])[H])C([H])([H])[H])C([H])([H])c2c([H])c(OC([H])([H])C([H])([H])n3c(C([H])([H])C([H])([H])C([H])([H])C([H])([H])N([H])C(=O)N4C([H])([H])C([H])([H])C([H])([H])C([H])(n5nc(-c6c([H])c([H])c(Oc7c([H])c([H])c(F)c([H])c7F)c([H])c6[H])c(C(=O)N([H])[H])c5N([H])[H])C4([H])[H])c([H])[n+]([H])c3C([H])([H])[H])c([H])c([H])c2C1([H])[H]

>  <smiles>  (83) 
[H]c1c([H])c([H])c2c(c1[H])C([H])([H])C([H])([H])C([H])([H])C2([H])N([H])C(=O)C1([H])N(C(=O)C([H])(N([H])C(=O)C([H])(N([H])C([H])([H])[H])C([H])([H])[H])C(C([H])([H])[H])(C([H])([H])[H])C([H])([H])[H])C([H])([H])c2c([H])c(OC([H])([H])C([H])([H])n3c(C([H])([H])C([H])([H])C([H])([H])C([H])([H])N([H])C(=O)N4C([H])([H])C([H])([H])C([H])([H])C([H])(n5nc(-c6c([H])c([H])c(Oc7c([H])c([H])c(F)c([H])c7F)c([H])c6[H])c(C(=O)N([H])[H])c5N([H])[H])C4([H])[H])c([H])[n+]([H])c3C([H])([H])[H])c([H])c([H])c2C1([H])[H]

$$$$
83:0:0
     RDKit          3D

 90 98  0  0  1  0  0  0  0  0999 V2000
  -29.7670  -20.7850   21.5670 C   0  0  0  0  0  3  0  0  0  0  0  0
  -30.0510  -19.3530   21.6040 C   0  0  0  0  0  3  0  0  0  0  0  0
  -29.3280  -21.5330   20.4190 C   0  0  0  0  0  0  0  0  0  0  0  0
  -29.9250  -18.4240   20.5040 C   0  0  0  0  0  0  0  0  0  0  0  0
  -29.2700  -20.5610   19.3300 C   0  0  0  0  0  0  0  0  0  0  0  0
  -29.5010  -19.1510   19.3840 N   0  0  0  0  0  0  0  0  0  0  0  0
  -28.2660  -16.5830   20.6270 C   0  0  0  0  0  1  0  0  0  0  0  0
  -30.1510  -16.4740   22.2160 C   0  0  0  0  0  1  0  0  0  0  0  0
  -29.7900  -16.7100   20.7280 C   0  0  2  0  0  0  0  0  0  0  0  0
  -30.5280  -15.2830   20.0340 C   0  0  0  0  0  0  0  0  0  0  0  0
  -30.4250  -12.9350   18.9250 C   0  0  0  0  0  2  0  0  0  0  0  0
  -29.3850  -12.8600   17.7740 C   0  0  0  0  0  2  0  0  0  0  0  0
  -27.9640  -12.5800   18.3000 C   0  0  0  0  0  2  0  0  0  0  0  0
  -27.6360  -13.4420   19.5400 C   0  0  0  0  0  3  0  0  0  0  0  0
  -28.7870  -13.3850   20.5730 C   0  0  0  0  0  2  0  0  0  0  0  0
  -29.9820  -13.9680   19.9250 N   0  0  0  0  0  0  0  0  0  0  0  0
  -31.6810  -15.3520   19.5810 O   0  0  0  0  0  0  0  0  0  0  0  0
  -25.2920  -13.9880   20.4370 C   0  0  0  0  0  0  0  0  0  0  0  0
  -24.2640  -13.2010   20.8660 C   0  0  0  0  0  0  0  0  0  0  0  0
  -24.7330  -11.8560   20.7640 C   0  0  0  0  0  0  0  0  0  0  0  0
  -26.3330  -13.1260   20.1160 N   0  0  0  0  0  0  0  0  0  0  0  0
  -26.0030  -11.8330   20.3720 N   0  0  0  0  0  0  0  0  0  0  0  0
  -24.0190  -10.5910   20.9570 C   0  0  0  0  0  0  0  0  0  0  0  0
  -24.4690   -9.6200   21.8770 C   0  0  0  0  0  3  0  0  0  0  0  0
  -23.7500   -8.4200   22.0590 C   0  0  0  0  0  3  0  0  0  0  0  0
  -22.5680   -8.1810   21.3190 C   0  0  0  0  0  0  0  0  0  0  0  0
  -22.1380   -9.1410   20.3840 C   0  0  0  0  0  3  0  0  0  0  0  0
  -22.8590  -10.3320   20.2000 C   0  0  0  0  0  3  0  0  0  0  0  0
  -21.8210   -7.0310   21.4120 O   0  0  0  0  0  0  0  0  0  0  0  0
  -21.7380   -6.3220   22.5830 C   0  0  0  0  0  0  0  0  0  0  0  0
  -21.2680   -6.9110   23.7770 C   0  0  0  0  0  3  0  0  0  0  0  0
  -21.1270   -6.1300   24.9420 C   0  0  0  0  0  3  0  0  0  0  0  0
  -21.4480   -4.7600   24.9130 C   0  0  0  0  0  0  0  0  0  0  0  0
  -21.9150   -4.1700   23.7250 C   0  0  0  0  0  3  0  0  0  0  0  0
  -22.0560   -4.9480   22.5620 C   0  0  0  0  0  0  0  0  0  0  0  0
  -22.4790   -4.3700   21.4130 F   0  0  0  0  0  0  0  0  0  0  0  0
  -21.3120   -4.0080   26.0300 F   0  0  0  0  0  0  0  0  0  0  0  0
  -22.8870  -13.6670   21.2440 C   0  0  0  0  0  0  0  0  0  0  0  0
  -22.2210  -12.9510   22.1430 N   0  0  0  0  0  0  0  0  0  0  0  0
  -22.4130  -14.7040   20.7810 O   0  0  0  0  0  0  0  0  0  0  0  0
  -22.6240  -12.1190   22.5470 H   0  0  0  0  0  0  0  0  0  0  0  0
  -21.3000  -13.2430   22.4390 H   0  0  0  0  0  0  0  0  0  0  0  0
  -25.3990  -15.3610   20.2610 N   0  0  0  0  0  0  0  0  0  0  0  0
  -24.6110  -15.9820   20.4100 H   0  0  0  0  0  0  0  0  0  0  0  0
  -26.1940  -15.8240   19.8430 H   0  0  0  0  0  0  0  0  0  0  0  0
  -27.5150  -20.8660   17.5180 C   0  0  0  0  0  1  0  0  0  0  0  0
  -28.9730  -21.0820   17.9370 C   0  0  0  0  0  2  0  0  0  0  0  0
  -29.2760  -23.2510   20.4180 C   0  0  0  0  0  3  0  0  0  0  0  0
  -28.0930  -24.4980   20.1250 C   0  0  0  0  0  3  0  0  0  0  0  0
  -28.2550  -26.0930   20.2800 O   0  0  0  0  0  0  0  0  0  0  0  0
  -24.5860  -31.8900   23.2170 C   0  0  0  0  0  0  0  0  0  0  0  0
  -27.1860  -27.0980   20.2170 C   0  0  0  0  0  0  0  0  0  0  0  0
  -23.3890  -30.4710   21.6010 C   0  0  0  0  0  3  0  0  0  0  0  0
  -24.8400  -28.8770   20.1790 C   0  0  0  0  0  0  0  0  0  0  0  0
  -25.9440  -30.7300   21.4200 C   0  0  0  0  0  2  0  0  0  0  0  0
  -26.0240  -29.3230   20.7780 C   0  0  0  0  0  0  0  0  0  0  0  0
  -27.1910  -28.4550   20.7710 C   0  0  0  0  0  3  0  0  0  0  0  0
  -25.9690  -26.7680   19.5780 C   0  0  0  0  0  3  0  0  0  0  0  0
  -24.8320  -27.6150   19.5590 C   0  0  0  0  0  3  0  0  0  0  0  0
  -23.6090  -29.7770   20.2280 C   0  0  0  0  0  2  0  0  0  0  0  0
  -24.6610  -31.0560   22.1330 N   0  0  0  0  0  0  0  0  0  0  0  0
  -23.5000  -32.1730   23.7480 O   0  0  0  0  0  0  0  0  0  0  0  0
  -22.7170  -29.4730   22.5790 C   0  0  0  0  0  0  0  0  0  0  0  0
  -21.3890  -29.2910   22.4580 N   0  0  0  0  0  0  0  0  0  0  0  0
  -23.3910  -28.8640   23.4130 O   0  0  0  0  0  0  0  0  0  0  0  0
  -20.8990  -29.8320   21.7590 H   0  0  0  0  0  0  0  0  0  0  0  0
  -18.0210  -28.0460   22.9780 C   0  0  0  0  0  0  0  0  0  0  0  0
  -20.5760  -28.3530   23.2410 C   0  0  0  0  0  3  0  0  0  0  0  0
  -20.6990  -26.9140   22.6870 C   0  0  0  0  0  2  0  0  0  0  0  0
  -19.6020  -26.5600   21.6770 C   0  0  0  0  0  2  0  0  0  0  0  0
  -18.2180  -26.6920   22.3180 C   0  0  0  0  0  2  0  0  0  0  0  0
  -19.1270  -28.8330   23.3960 C   0  0  0  0  0  0  0  0  0  0  0  0
  -18.8860  -30.0970   23.9770 C   0  0  0  0  0  3  0  0  0  0  0  0
  -17.5720  -30.5750   24.1410 C   0  0  0  0  0  3  0  0  0  0  0  0
  -16.4820  -29.7870   23.7370 C   0  0  0  0  0  3  0  0  0  0  0  0
  -16.7060  -28.5250   23.1610 C   0  0  0  0  0  3  0  0  0  0  0  0
  -25.8600  -32.5440   23.8360 C   0  0  0  0  0  3  0  0  0  0  0  0
  -26.3860  -31.7850   25.1170 C   0  0  1  0  0  0  0  0  0  0  0  0
  -25.2950  -31.5390   26.1870 C   0  0  0  0  0  1  0  0  0  0  0  0
  -26.9880  -30.4130   24.7370 C   0  0  0  0  0  1  0  0  0  0  0  0
  -27.5300  -32.5960   25.7730 C   0  0  0  0  0  1  0  0  0  0  0  0
  -25.5300  -33.9390   24.1730 N   0  0  0  0  0  0  0  0  0  0  0  0
  -25.8320  -35.0020   23.4150 C   0  0  0  0  0  0  0  0  0  0  0  0
  -26.4830  -34.9120   22.3710 O   0  0  0  0  0  0  0  0  0  0  0  0
  -24.9440  -34.0790   24.9840 H   0  0  0  0  0  0  0  0  0  0  0  0
  -24.0660  -36.7750   23.1180 C   0  0  0  0  0  1  0  0  0  0  0  0
  -25.3380  -36.3850   23.8880 C   0  0  0  0  0  3  0  0  0  0  0  0
  -27.4860  -37.3040   24.6550 C   0  0  0  0  0  1  0  0  0  0  0  0
  -26.3520  -37.4550   23.7450 N   0  0  0  0  0  0  0  0  0  0  0  0
  -25.9380  -38.3710   23.9030 H   0  0  0  0  0  0  0  0  0  0  0  0
  1  2  1  0
  3  1  2  0
  4  9  1  0
  4  2  2  0
  5  6  2  0
  5  3  1  0
  6  4  1  0
  9  7  1  1
  9  8  1  0
 10  9  1  0
 11 16  1  0
 12 13  1  0
 12 11  1  0
 14 13  1  0
 14 21  1  0
 14 15  1  0
 16 10  1  0
 16 15  1  0
 17 10  2  0
 18 19  2  0
 19 38  1  0
 20 19  1  0
 20 23  1  0
 21 22  1  0
 21 18  1  0
 22 20  2  0
 23 24  1  0
 24 25  2  0
 26 29  1  0
 26 25  1  0
 27 26  2  0
 28 27  1  0
 28 23  2  0
 29 30  1  0
 30 31  1  0
 31 32  2  0
 33 32  1  0
 33 37  1  0
 34 33  2  0
 35 30  2  0
 35 34  1  0
 36 35  1  0
 38 39  1  0
 39 42  1  0
 39 41  1  0
 40 38  2  0
 43 44  1  0
 43 18  1  0
 45 43  1  0
 46 47  1  0
 47  5  1  0
 48  3  1  0
 49 50  1  0
 49 48  2  0
 51 62  2  0
 52 50  1  0
 52 57  1  0
 53 61  1  0
 53 63  1  0
 54 60  1  0
 54 56  1  0
 55 61  1  0
 56 55  1  0
 57 56  2  0
 58 52  2  0
 59 58  1  0
 59 54  2  0
 60 53  1  0
 61 51  1  0
 63 65  2  0
 64 63  1  0
 66 64  1  0
 67 76  2  0
 67 72  1  0
 68 64  1  0
 68 72  1  0
 69 68  1  0
 70 71  1  0
 70 69  1  0
 71 67  1  0
 72 73  2  0
 73 74  1  0
 75 74  2  0
 76 75  1  0
 77 51  1  0
 77 82  1  0
 77 78  1  0
 78 81  1  1
 78 79  1  0
 80 78  1  0
 82 85  1  0
 83 87  1  0
 83 82  1  0
 84 83  2  0
 87 86  1  0
 89 87  1  0
 89 90  1  0
 89 88  1  0
M  ISO  4   9 100  10 100  49 101  50 101
M  END
>  <TORSDO>  (84) 
F 20

>  <SCORE>  (84) 
-15.240

>  <name>  (84) 
83

>  <ligand_id>  (84) 
83

>  <original_smiles>  (84) 
[H]c1c(C(C(=O)N2C([H])([H])C([H])([H])C([H])([H])C([H])(n3nc(-c4c([H])c([H])c(Oc5c([H])c([H])c(F)c([H])c5F)c([H])c4[H])c(C(=O)N([H])[H])c3N([H])[H])C2([H])[H])(C([H])([H])[H])C([H])([H])[H])nc(C([H])([H])C([H])([H])[H])c(C([H])([H])C([H])([H])Oc2c([H])c([H])c3c(c2[H])C([H])([H])N(C(=O)C([H])(N([H])C(=O)C([H])(N([H])C([H])([H])[H])C([H])([H])[H])C(C([H])([H])[H])(C([H])([H])[H])C([H])([H])[H])C([H])(C(=O)N([H])C2([H])c4c([H])c([H])c([H])c([H])c4C([H])([H])C([H])([H])C2([H])[H])C3([H])[H])c1[H]

>  <smiles>  (84) 
[H]c1c(C(C(=O)N2C([H])([H])C([H])([H])C([H])([H])C([H])(n3nc(-c4c([H])c([H])c(Oc5c([H])c([H])c(F)c([H])c5F)c([H])c4[H])c(C(=O)N([H])[H])c3N([H])[H])C2([H])[H])(C([H])([H])[H])C([H])([H])[H])nc(C([H])([H])C([H])([H])[H])c(C([H])([H])C([H])([H])Oc2c([H])c([H])c3c(c2[H])C([H])([H])N(C(=O)C([H])(N([H])C(=O)C([H])(N([H])C([H])([H])[H])C([H])([H])[H])C(C([H])([H])[H])(C([H])([H])[H])C([H])([H])[H])C([H])(C(=O)N([H])C2([H])c4c([H])c([H])c([H])c([H])c4C([H])([H])C([H])([H])C2([H])[H])C3([H])[H])c1[H]

$$$$
84:0:0
     RDKit          3D

 93101  0  0  1  0  0  0  0  0999 V2000
  -28.9350  -20.4810   19.9830 C   0  0  0  0  0  2  0  0  0  0  0  0
  -30.9680  -18.9110   22.7000 C   0  0  0  0  0  0  0  0  0  0  0  0
  -30.2220  -19.8930   22.1100 C   0  0  0  0  0  0  0  0  0  0  0  0
  -30.2100  -18.0630   20.8330 C   0  0  0  0  0  0  0  0  0  0  0  0
  -31.6560  -18.9140   24.0320 C   0  0  0  0  0  1  0  0  0  0  0  0
  -29.8420  -21.1980   22.7310 C   0  0  0  0  0  1  0  0  0  0  0  0
  -30.9540  -17.7910   21.9040 N   0  0  0  0  0  0  0  0  0  0  0  0
  -29.7990  -19.4640   20.8370 N   0  0  0  0  0  0  0  0  0  0  0  0
  -30.5330  -17.1750   18.5060 C   0  0  0  0  0  1  0  0  0  0  0  0
  -28.4330  -16.6930   19.6960 C   0  0  0  0  0  1  0  0  0  0  0  0
  -29.9450  -16.7830   19.8840 C   0  0  2  0  0  0  0  0  0  0  0  0
  -30.6080  -15.2450   20.2200 C   0  0  0  0  0  0  0  0  0  0  0  0
  -30.4980  -12.8380   19.4200 C   0  0  0  0  0  2  0  0  0  0  0  0
  -29.5900  -12.6940   18.1790 C   0  0  0  0  0  2  0  0  0  0  0  0
  -28.1340  -12.4330   18.6080 C   0  0  0  0  0  2  0  0  0  0  0  0
  -27.6690  -13.4050   19.7200 C   0  0  0  0  0  3  0  0  0  0  0  0
  -28.7120  -13.5840   20.8420 C   0  0  0  0  0  2  0  0  0  0  0  0
  -29.9850  -13.9880   20.2270 N   0  0  0  0  0  0  0  0  0  0  0  0
  -31.8410  -15.1750   20.1380 O   0  0  0  0  0  0  0  0  0  0  0  0
  -25.3140  -13.9820   20.5270 C   0  0  0  0  0  0  0  0  0  0  0  0
  -24.2480  -13.2030   20.8770 C   0  0  0  0  0  0  0  0  0  0  0  0
  -24.7030  -11.8520   20.7860 C   0  0  0  0  0  0  0  0  0  0  0  0
  -26.3440  -13.1020   20.2360 N   0  0  0  0  0  0  0  0  0  0  0  0
  -25.9900  -11.8140   20.4620 N   0  0  0  0  0  0  0  0  0  0  0  0
  -23.9700  -10.5910   20.9270 C   0  0  0  0  0  0  0  0  0  0  0  0
  -24.3550   -9.6160   21.8710 C   0  0  0  0  0  3  0  0  0  0  0  0
  -23.6210   -8.4170   22.0000 C   0  0  0  0  0  3  0  0  0  0  0  0
  -22.4890   -8.1890   21.1820 C   0  0  0  0  0  0  0  0  0  0  0  0
  -22.1240   -9.1530   20.2260 C   0  0  0  0  0  3  0  0  0  0  0  0
  -22.8600  -10.3430   20.0960 C   0  0  0  0  0  3  0  0  0  0  0  0
  -21.7290   -7.0450   21.2200 O   0  0  0  0  0  0  0  0  0  0  0  0
  -21.5580   -6.3350   22.3810 C   0  0  0  0  0  0  0  0  0  0  0  0
  -20.9690   -6.9110   23.5270 C   0  0  0  0  0  3  0  0  0  0  0  0
  -20.7480   -6.1240   24.6760 C   0  0  0  0  0  3  0  0  0  0  0  0
  -21.1050   -4.7620   24.6760 C   0  0  0  0  0  0  0  0  0  0  0  0
  -21.6870   -4.1870   23.5330 C   0  0  0  0  0  3  0  0  0  0  0  0
  -21.9090   -4.9700   22.3890 C   0  0  0  0  0  0  0  0  0  0  0  0
  -22.4500   -4.4050   21.2820 F   0  0  0  0  0  0  0  0  0  0  0  0
  -20.8850   -4.0040   25.7760 F   0  0  0  0  0  0  0  0  0  0  0  0
  -22.8570  -13.6820   21.1750 C   0  0  0  0  0  0  0  0  0  0  0  0
  -22.1370  -12.9710   22.0360 N   0  0  0  0  0  0  0  0  0  0  0  0
  -22.4160  -14.7180   20.6790 O   0  0  0  0  0  0  0  0  0  0  0  0
  -22.5050  -12.1360   22.4620 H   0  0  0  0  0  0  0  0  0  0  0  0
  -21.2010  -13.2700   22.2730 H   0  0  0  0  0  0  0  0  0  0  0  0
  -25.4790  -15.3580   20.4010 N   0  0  0  0  0  0  0  0  0  0  0  0
  -24.7130  -16.0060   20.5420 H   0  0  0  0  0  0  0  0  0  0  0  0
  -26.3150  -15.8040   20.0490 H   0  0  0  0  0  0  0  0  0  0  0  0
  -29.1770  -22.1740   19.8560 C   0  0  0  0  0  2  0  0  0  0  0  0
  -26.7150  -22.9890   19.6380 C   0  0  0  0  0  1  0  0  0  0  0  0
  -28.0370  -23.8460   21.5650 C   0  0  0  0  0  1  0  0  0  0  0  0
  -28.1050  -23.4900   20.0660 C   0  0  1  0  0  0  0  0  0  0  0  0
  -28.2980  -24.9890   19.2990 C   0  0  0  0  0  2  0  0  0  0  0  0
  -28.1820  -26.4480   19.8280 O   0  0  0  0  0  0  0  0  0  0  0  0
  -24.5470  -31.8630   23.1490 C   0  0  0  0  0  0  0  0  0  0  0  0
  -27.0870  -27.3770   19.7780 C   0  0  0  0  0  0  0  0  0  0  0  0
  -23.3170  -30.5640   21.4510 C   0  0  0  0  0  3  0  0  0  0  0  0
  -24.7400  -29.0880   19.8930 C   0  0  0  0  0  0  0  0  0  0  0  0
  -25.8610  -30.8620   21.2440 C   0  0  0  0  0  2  0  0  0  0  0  0
  -25.9250  -29.5130   20.5070 C   0  0  0  0  0  0  0  0  0  0  0  0
  -27.0910  -28.6700   20.4360 C   0  0  0  0  0  3  0  0  0  0  0  0
  -25.8810  -27.0460   19.1240 C   0  0  0  0  0  3  0  0  0  0  0  0
  -24.7310  -27.8710   19.1870 C   0  0  0  0  0  3  0  0  0  0  0  0
  -23.5080  -29.9690   20.0280 C   0  0  0  0  0  2  0  0  0  0  0  0
  -24.5950  -31.1140   22.0040 N   0  0  0  0  0  0  0  0  0  0  0  0
  -23.4720  -32.1090   23.7190 O   0  0  0  0  0  0  0  0  0  0  0  0
  -22.6660  -29.4980   22.3650 C   0  0  0  0  0  0  0  0  0  0  0  0
  -21.3300  -29.3560   22.2870 N   0  0  0  0  0  0  0  0  0  0  0  0
  -23.3610  -28.8010   23.1070 O   0  0  0  0  0  0  0  0  0  0  0  0
  -20.8250  -29.9740   21.6670 H   0  0  0  0  0  0  0  0  0  0  0  0
  -17.9540  -28.1700   22.8430 C   0  0  0  0  0  0  0  0  0  0  0  0
  -20.5260  -28.3750   23.0180 C   0  0  0  0  0  3  0  0  0  0  0  0
  -20.5780  -26.9890   22.3360 C   0  0  0  0  0  2  0  0  0  0  0  0
  -19.4310  -26.7600   21.3480 C   0  0  0  0  0  2  0  0  0  0  0  0
  -18.0790  -26.8750   22.0590 C   0  0  0  0  0  2  0  0  0  0  0  0
  -19.1010  -28.8820   23.2800 C   0  0  0  0  0  0  0  0  0  0  0  0
  -18.9280  -30.0970   23.9770 C   0  0  0  0  0  3  0  0  0  0  0  0
  -17.6380  -30.5980   24.2410 C   0  0  0  0  0  3  0  0  0  0  0  0
  -16.5060  -29.8800   23.8190 C   0  0  0  0  0  3  0  0  0  0  0  0
  -16.6640  -28.6690   23.1250 C   0  0  0  0  0  3  0  0  0  0  0  0
  -25.8370  -32.4660   23.7890 C   0  0  0  0  0  3  0  0  0  0  0  0
  -25.5190  -33.8290   24.2440 N   0  0  0  0  0  0  0  0  0  0  0  0
  -25.8060  -34.9480   23.5670 C   0  0  0  0  0  0  0  0  0  0  0  0
  -26.4330  -34.9420   22.5050 O   0  0  0  0  0  0  0  0  0  0  0  0
  -24.9570  -33.9060   25.0810 H   0  0  0  0  0  0  0  0  0  0  0  0
  -24.0320  -36.7310   23.4530 C   0  0  0  0  0  1  0  0  0  0  0  0
  -25.3220  -36.2880   24.1610 C   0  0  0  0  0  3  0  0  0  0  0  0
  -27.4790  -37.1520   24.9560 C   0  0  0  0  0  1  0  0  0  0  0  0
  -26.3290  -37.3670   24.0800 N   0  0  0  0  0  0  0  0  0  0  0  0
  -25.9160  -38.2650   24.3170 H   0  0  0  0  0  0  0  0  0  0  0  0
  -26.3980  -31.6060   24.9890 C   0  0  1  0  0  0  0  0  0  0  0  0
  -25.3390  -31.2790   26.0700 C   0  0  0  0  0  1  0  0  0  0  0  0
  -26.9760  -30.2660   24.4790 C   0  0  0  0  0  1  0  0  0  0  0  0
  -27.5630  -32.3580   25.6750 C   0  0  0  0  0  1  0  0  0  0  0  0
  1  8  1  0
  2  5  1  0
  3  2  2  0
  3  6  1  0
  4  8  1  0
  4  7  2  0
  7  2  1  0
  8  3  1  0
 11  9  1  6
 10 11  1  0
 11 12  1  0
 11  4  1  0
 12 18  1  0
 13 18  1  0
 14 15  1  0
 14 13  1  0
 16 15  1  0
 16 23  1  0
 16 17  1  0
 18 17  1  0
 19 12  2  0
 20 21  2  0
 21 40  1  0
 22 21  1  0
 22 25  1  0
 23 24  1  0
 23 20  1  0
 24 22  2  0
 25 26  1  0
 26 27  2  0
 28 31  1  0
 28 27  1  0
 29 28  2  0
 30 29  1  0
 30 25  2  0
 31 32  1  0
 32 37  2  0
 32 33  1  0
 33 34  2  0
 34 35  1  0
 35 39  1  0
 36 35  2  0
 37 36  1  0
 38 37  1  0
 40 41  1  0
 41 44  1  0
 41 43  1  0
 42 40  2  0
 45 20  1  0
 45 46  1  0
 47 45  1  0
 48  1  1  0
 48 51  1  0
 51 49  1  6
 51 50  1  0
 52 53  1  0
 52 51  1  0
 54 65  2  0
 55 53  1  0
 55 60  1  0
 56 64  1  0
 56 66  1  0
 57 63  1  0
 57 59  1  0
 58 64  1  0
 59 58  1  0
 60 59  2  0
 61 62  1  0
 61 55  2  0
 62 57  2  0
 63 56  1  0
 64 54  1  0
 66 68  2  0
 67 66  1  0
 69 67  1  0
 70 79  2  0
 70 75  1  0
 71 67  1  0
 71 75  1  0
 72 71  1  0
 73 74  1  0
 73 72  1  0
 74 70  1  0
 75 76  2  0
 76 77  1  0
 78 77  2  0
 79 78  1  0
 80 54  1  0
 80 81  1  0
 80 90  1  0
 81 84  1  0
 82 86  1  0
 82 81  1  0
 83 82  2  0
 86 85  1  0
 88 86  1  0
 88 89  1  0
 88 87  1  0
 90 93  1  1
 90 91  1  0
 92 90  1  0
M  ISO  4  11 100  12 100  52 101  53 101
M  END
>  <TORSDO>  (85) 
F 21

>  <SCORE>  (85) 
-13.856

>  <name>  (85) 
84

>  <ligand_id>  (85) 
84

>  <original_smiles>  (85) 
[H]c1c([H])c([H])c2c(c1[H])C([H])([H])C([H])([H])C([H])([H])C2([H])N([H])C(=O)C1([H])N(C(=O)C([H])(N([H])C(=O)C([H])(N([H])C([H])([H])[H])C([H])([H])[H])C(C([H])([H])[H])(C([H])([H])[H])C([H])([H])[H])C([H])([H])c2c([H])c(OC([H])([H])C(C([H])([H])[H])(C([H])([H])[H])C([H])([H])C([H])([H])n3c(C(C(=O)N4C([H])([H])C([H])([H])C([H])([H])C([H])(n5nc(-c6c([H])c([H])c(Oc7c([H])c([H])c(F)c([H])c7F)c([H])c6[H])c(C(=O)N([H])[H])c5N([H])[H])C4([H])[H])(C([H])([H])[H])C([H])([H])[H])nc(C([H])([H])[H])c3C([H])([H])[H])c([H])c([H])c2C1([H])[H]

>  <smiles>  (85) 
[H]c1c([H])c([H])c2c(c1[H])C([H])([H])C([H])([H])C([H])([H])C2([H])N([H])C(=O)C1([H])N(C(=O)C([H])(N([H])C(=O)C([H])(N([H])C([H])([H])[H])C([H])([H])[H])C(C([H])([H])[H])(C([H])([H])[H])C([H])([H])[H])C([H])([H])c2c([H])c(OC([H])([H])C(C([H])([H])[H])(C([H])([H])[H])C([H])([H])C([H])([H])n3c(C(C(=O)N4C([H])([H])C([H])([H])C([H])([H])C([H])(n5nc(-c6c([H])c([H])c(Oc7c([H])c([H])c(F)c([H])c7F)c([H])c6[H])c(C(=O)N([H])[H])c5N([H])[H])C4([H])[H])(C([H])([H])[H])C([H])([H])[H])nc(C([H])([H])[H])c3C([H])([H])[H])c([H])c([H])c2C1([H])[H]

$$$$
85:0:0
     RDKit          3D

 87 94  0  0  1  0  0  0  0  0999 V2000
  -28.9410  -22.4980   20.4370 C   0  0  0  0  0  2  0  0  0  0  0  0
  -27.4580  -20.3240   19.7970 C   0  0  0  0  0  1  0  0  0  0  0  0
  -28.9380  -20.7070   19.8880 C   0  0  0  0  0  3  0  0  0  0  0  0
  -31.2610  -19.6640   20.5630 C   0  0  0  0  0  1  0  0  0  0  0  0
  -29.7950  -19.1520   20.4600 C   0  0  0  0  0  3  0  0  0  0  0  0
  -30.4420  -17.0700   21.6390 C   0  0  0  0  0  1  0  0  0  0  0  0
  -30.1590  -17.5080   18.7530 C   0  0  0  0  0  1  0  0  0  0  0  0
  -29.7070  -17.2170   20.2300 C   0  0  1  0  0  0  0  0  0  0  0  0
  -30.4580  -15.5210   20.0020 C   0  0  0  0  0  0  0  0  0  0  0  0
  -30.4420  -13.0170   19.1720 C   0  0  0  0  0  2  0  0  0  0  0  0
  -29.4980  -12.7630   17.9680 C   0  0  0  0  0  2  0  0  0  0  0  0
  -28.0700  -12.4560   18.4490 C   0  0  0  0  0  2  0  0  0  0  0  0
  -27.6350  -13.4280   19.5740 C   0  0  0  0  0  3  0  0  0  0  0  0
  -28.7100  -13.6450   20.6570 C   0  0  0  0  0  2  0  0  0  0  0  0
  -29.9130  -14.1830   19.9940 N   0  0  0  0  0  0  0  0  0  0  0  0
  -31.6710  -15.4270   19.7170 O   0  0  0  0  0  0  0  0  0  0  0  0
  -25.3100  -13.9710   20.4540 C   0  0  0  0  0  0  0  0  0  0  0  0
  -24.2620  -13.1910   20.8530 C   0  0  0  0  0  0  0  0  0  0  0  0
  -24.7190  -11.8390   20.7740 C   0  0  0  0  0  0  0  0  0  0  0  0
  -26.3330  -13.0970   20.1380 N   0  0  0  0  0  0  0  0  0  0  0  0
  -25.9950  -11.8050   20.4010 N   0  0  0  0  0  0  0  0  0  0  0  0
  -23.9910  -10.5770   20.9720 C   0  0  0  0  0  0  0  0  0  0  0  0
  -24.4330   -9.6040   21.8940 C   0  0  0  0  0  3  0  0  0  0  0  0
  -23.7020   -8.4110   22.0820 C   0  0  0  0  0  3  0  0  0  0  0  0
  -22.5150   -8.1820   21.3480 C   0  0  0  0  0  0  0  0  0  0  0  0
  -22.0910   -9.1430   20.4130 C   0  0  0  0  0  3  0  0  0  0  0  0
  -22.8230  -10.3280   20.2240 C   0  0  0  0  0  3  0  0  0  0  0  0
  -21.7550   -7.0420   21.4440 O   0  0  0  0  0  0  0  0  0  0  0  0
  -21.6970   -6.3110   22.6050 C   0  0  0  0  0  0  0  0  0  0  0  0
  -21.2220   -6.8680   23.8120 C   0  0  0  0  0  3  0  0  0  0  0  0
  -21.1130   -6.0630   24.9630 C   0  0  0  0  0  3  0  0  0  0  0  0
  -21.4670   -4.7010   24.9090 C   0  0  0  0  0  0  0  0  0  0  0  0
  -21.9340   -4.1430   23.7060 C   0  0  0  0  0  3  0  0  0  0  0  0
  -22.0460   -4.9460   22.5570 C   0  0  0  0  0  0  0  0  0  0  0  0
  -22.4760   -4.3980   21.3940 F   0  0  0  0  0  0  0  0  0  0  0  0
  -21.3550   -3.9260   26.0130 F   0  0  0  0  0  0  0  0  0  0  0  0
  -22.8800  -13.6710   21.1890 C   0  0  0  0  0  0  0  0  0  0  0  0
  -22.1880  -12.9710   22.0800 N   0  0  0  0  0  0  0  0  0  0  0  0
  -22.4270  -14.7030   20.6960 O   0  0  0  0  0  0  0  0  0  0  0  0
  -22.5730  -12.1390   22.5040 H   0  0  0  0  0  0  0  0  0  0  0  0
  -21.2590  -13.2710   22.3440 H   0  0  0  0  0  0  0  0  0  0  0  0
  -25.4710  -15.3460   20.3050 N   0  0  0  0  0  0  0  0  0  0  0  0
  -24.7160  -15.9990   20.4830 H   0  0  0  0  0  0  0  0  0  0  0  0
  -26.3130  -15.7940   19.9630 H   0  0  0  0  0  0  0  0  0  0  0  0
  -28.4280  -24.2030   18.4320 C   0  0  0  0  0  1  0  0  0  0  0  0
  -28.1430  -24.1120   19.9370 C   0  0  0  0  0  3  0  0  0  0  0  0
  -28.2220  -25.7540   20.3700 O   0  0  0  0  0  0  0  0  0  0  0  0
  -24.6370  -31.8430   23.2580 C   0  0  0  0  0  0  0  0  0  0  0  0
  -27.2240  -26.8960   20.2650 C   0  0  0  0  0  0  0  0  0  0  0  0
  -23.4610  -30.4380   21.6180 C   0  0  0  0  0  3  0  0  0  0  0  0
  -24.9240  -28.8250   20.2020 C   0  0  0  0  0  0  0  0  0  0  0  0
  -26.0310  -30.6370   21.4900 C   0  0  0  0  0  2  0  0  0  0  0  0
  -26.1090  -29.2180   20.8340 C   0  0  0  0  0  0  0  0  0  0  0  0
  -27.2470  -28.2760   20.8390 C   0  0  0  0  0  3  0  0  0  0  0  0
  -26.0070  -26.6800   19.5770 C   0  0  0  0  0  3  0  0  0  0  0  0
  -24.9030  -27.5800   19.5500 C   0  0  0  0  0  3  0  0  0  0  0  0
  -23.7030  -29.7490   20.2460 C   0  0  0  0  0  2  0  0  0  0  0  0
  -24.7320  -31.0020   22.1750 N   0  0  0  0  0  0  0  0  0  0  0  0
  -23.5420  -32.1330   23.7690 O   0  0  0  0  0  0  0  0  0  0  0  0
  -22.7580  -29.4490   22.5850 C   0  0  0  0  0  0  0  0  0  0  0  0
  -21.4290  -29.2800   22.4520 N   0  0  0  0  0  0  0  0  0  0  0  0
  -23.4180  -28.8320   23.4250 O   0  0  0  0  0  0  0  0  0  0  0  0
  -20.9490  -29.8260   21.7500 H   0  0  0  0  0  0  0  0  0  0  0  0
  -18.0480  -28.0510   22.9530 C   0  0  0  0  0  0  0  0  0  0  0  0
  -20.6050  -28.3400   23.2210 C   0  0  0  0  0  3  0  0  0  0  0  0
  -20.7210  -26.9080   22.6510 C   0  0  0  0  0  2  0  0  0  0  0  0
  -19.6240  -26.5750   21.6330 C   0  0  0  0  0  2  0  0  0  0  0  0
  -18.2390  -26.7060   22.2730 C   0  0  0  0  0  2  0  0  0  0  0  0
  -19.1590  -28.8250   23.3830 C   0  0  0  0  0  0  0  0  0  0  0  0
  -18.9250  -30.0800   23.9860 C   0  0  0  0  0  3  0  0  0  0  0  0
  -17.6150  -30.5640   24.1560 C   0  0  0  0  0  3  0  0  0  0  0  0
  -16.5190  -29.7900   23.7370 C   0  0  0  0  0  3  0  0  0  0  0  0
  -16.7360  -28.5340   23.1430 C   0  0  0  0  0  3  0  0  0  0  0  0
  -25.8980  -32.4980   23.9000 C   0  0  0  0  0  3  0  0  0  0  0  0
  -26.3840  -31.7520   25.2060 C   0  0  1  0  0  0  0  0  0  0  0  0
  -25.2660  -31.5390   26.2540 C   0  0  0  0  0  1  0  0  0  0  0  0
  -26.9750  -30.3660   24.8650 C   0  0  0  0  0  1  0  0  0  0  0  0
  -27.5210  -32.5590   25.8760 C   0  0  0  0  0  1  0  0  0  0  0  0
  -25.5750  -33.9040   24.2130 N   0  0  0  0  0  0  0  0  0  0  0  0
  -25.9020  -34.9570   23.4530 C   0  0  0  0  0  0  0  0  0  0  0  0
  -26.5680  -34.8480   22.4200 O   0  0  0  0  0  0  0  0  0  0  0  0
  -24.9790  -34.0600   25.0130 H   0  0  0  0  0  0  0  0  0  0  0  0
  -24.1650  -36.7490   23.1100 C   0  0  0  0  0  1  0  0  0  0  0  0
  -25.4190  -36.3510   23.9060 C   0  0  0  0  0  3  0  0  0  0  0  0
  -27.5560  -37.2580   24.7080 C   0  0  0  0  0  1  0  0  0  0  0  0
  -26.4470  -37.4060   23.7690 N   0  0  0  0  0  0  0  0  0  0  0  0
  -26.0400  -38.3280   23.8990 H   0  0  0  0  0  0  0  0  0  0  0  0
  3  2  1  0
  3  1  1  0
  3  5  1  0
  5  4  1  0
  8  7  1  6
  8  5  1  0
  8  6  1  0
  9  8  1  0
 10 15  1  0
 11 12  1  0
 11 10  1  0
 13 12  1  0
 13 20  1  0
 13 14  1  0
 15  9  1  0
 15 14  1  0
 16  9  2  0
 17 18  2  0
 18 37  1  0
 19 18  1  0
 19 22  1  0
 20 21  1  0
 20 17  1  0
 21 19  2  0
 22 23  1  0
 23 24  2  0
 25 28  1  0
 25 24  1  0
 26 25  2  0
 27 26  1  0
 27 22  2  0
 28 29  1  0
 29 30  1  0
 30 31  2  0
 32 31  1  0
 32 36  1  0
 33 32  2  0
 34 29  2  0
 34 33  1  0
 35 34  1  0
 37 38  1  0
 38 41  1  0
 38 40  1  0
 39 37  2  0
 42 17  1  0
 42 43  1  0
 44 42  1  0
 46 45  1  0
 46 47  1  0
 46  1  1  0
 48 59  2  0
 49 47  1  0
 49 54  1  0
 50 58  1  0
 50 60  1  0
 51 57  1  0
 51 53  1  0
 52 58  1  0
 53 54  2  0
 53 52  1  0
 55 49  2  0
 56 55  1  0
 56 51  2  0
 57 50  1  0
 58 48  1  0
 60 62  2  0
 61 60  1  0
 63 61  1  0
 64 73  2  0
 64 69  1  0
 65 61  1  0
 65 69  1  0
 66 65  1  0
 67 68  1  0
 67 66  1  0
 68 64  1  0
 69 70  2  0
 70 71  1  0
 72 71  2  0
 73 72  1  0
 74 48  1  0
 74 79  1  0
 74 75  1  0
 75 78  1  1
 75 76  1  0
 77 75  1  0
 79 82  1  0
 80 84  1  0
 80 79  1  0
 81 80  2  0
 84 83  1  0
 86 87  1  0
 86 84  1  0
 86 85  1  0
M  ISO  4   8 100   9 100  46 101  47 101
M  END
>  <TORSDO>  (86) 
F 20

>  <SCORE>  (86) 
-16.509

>  <name>  (86) 
85

>  <ligand_id>  (86) 
85

>  <original_smiles>  (86) 
[H]c1c([H])c([H])c2c(c1[H])C([H])([H])C([H])([H])C([H])([H])C2([H])N([H])C(=O)C1([H])N(C(=O)C([H])(N([H])C(=O)C([H])(N([H])C([H])([H])[H])C([H])([H])[H])C(C([H])([H])[H])(C([H])([H])[H])C([H])([H])[H])C([H])([H])c2c([H])c(OC([H])(C([H])([H])[H])C([H])([H])C([H])(C([H])([H])[H])C([H])(C([H])([H])[H])C(C(=O)N3C([H])([H])C([H])([H])C([H])([H])C([H])(n4nc(-c5c([H])c([H])c(Oc6c([H])c([H])c(F)c([H])c6F)c([H])c5[H])c(C(=O)N([H])[H])c4N([H])[H])C3([H])[H])(C([H])([H])[H])C([H])([H])[H])c([H])c([H])c2C1([H])[H]

>  <smiles>  (86) 
[H]c1c([H])c([H])c2c(c1[H])C([H])([H])C([H])([H])C([H])([H])C2([H])N([H])C(=O)C1([H])N(C(=O)C([H])(N([H])C(=O)C([H])(N([H])C([H])([H])[H])C([H])([H])[H])C(C([H])([H])[H])(C([H])([H])[H])C([H])([H])[H])C([H])([H])c2c([H])c(OC([H])(C([H])([H])[H])C([H])([H])C([H])(C([H])([H])[H])C([H])(C([H])([H])[H])C(C(=O)N3C([H])([H])C([H])([H])C([H])([H])C([H])(n4nc(-c5c([H])c([H])c(Oc6c([H])c([H])c(F)c([H])c6F)c([H])c5[H])c(C(=O)N([H])[H])c4N([H])[H])C3([H])[H])(C([H])([H])[H])C([H])([H])[H])c([H])c([H])c2C1([H])[H]

$$$$
86:0:0
     RDKit          3D

 88 95  0  0  1  0  0  0  0  0999 V2000
  -30.1950  -22.7060   18.8040 C   0  0  0  0  0  1  0  0  0  0  0  0
  -29.2270  -22.5010   19.9770 C   0  0  0  0  0  3  0  0  0  0  0  0
  -27.8670  -20.4880   18.9300 C   0  0  0  0  0  1  0  0  0  0  0  0
  -28.2400  -20.4800   21.3990 C   0  0  0  0  0  1  0  0  0  0  0  0
  -28.9310  -20.6400   20.0340 C   0  0  2  0  0  0  0  0  0  0  0  0
  -31.3450  -19.4520   20.4620 C   0  0  0  0  0  1  0  0  0  0  0  0
  -29.9810  -19.0680   19.8650 C   0  0  0  0  0  3  0  0  0  0  0  0
  -29.7610  -17.1810   21.7810 C   0  0  0  0  0  1  0  0  0  0  0  0
  -28.3240  -17.0120   19.7680 C   0  0  0  0  0  1  0  0  0  0  0  0
  -29.7590  -17.2220   20.2360 C   0  0  1  0  0  0  0  0  0  0  0  0
  -30.5770  -15.6130   19.8420 C   0  0  0  0  0  0  0  0  0  0  0  0
  -30.5900  -13.1150   18.9280 C   0  0  0  0  0  2  0  0  0  0  0  0
  -29.6050  -12.8460   17.7550 C   0  0  0  0  0  2  0  0  0  0  0  0
  -28.2000  -12.4980   18.2790 C   0  0  0  0  0  2  0  0  0  0  0  0
  -27.7840  -13.4380   19.4290 C   0  0  0  0  0  3  0  0  0  0  0  0
  -28.8990  -13.6450   20.4810 C   0  0  0  0  0  2  0  0  0  0  0  0
  -30.0700  -14.2500   19.8030 N   0  0  0  0  0  0  0  0  0  0  0  0
  -31.7670  -15.6010   19.4820 O   0  0  0  0  0  0  0  0  0  0  0  0
  -25.4820  -13.9640   20.4040 C   0  0  0  0  0  0  0  0  0  0  0  0
  -24.4560  -13.1780   20.8370 C   0  0  0  0  0  0  0  0  0  0  0  0
  -24.9140  -11.8320   20.7090 C   0  0  0  0  0  0  0  0  0  0  0  0
  -26.5010  -13.1010   20.0370 N   0  0  0  0  0  0  0  0  0  0  0  0
  -26.1760  -11.8080   20.2870 N   0  0  0  0  0  0  0  0  0  0  0  0
  -24.1950  -10.5670   20.9000 C   0  0  0  0  0  0  0  0  0  0  0  0
  -24.6080   -9.6190   21.8620 C   0  0  0  0  0  3  0  0  0  0  0  0
  -23.8860   -8.4190   22.0390 C   0  0  0  0  0  3  0  0  0  0  0  0
  -22.7370   -8.1580   21.2550 C   0  0  0  0  0  0  0  0  0  0  0  0
  -22.3450   -9.0950   20.2820 C   0  0  0  0  0  3  0  0  0  0  0  0
  -23.0670  -10.2870   20.1030 C   0  0  0  0  0  3  0  0  0  0  0  0
  -21.9940   -7.0060   21.3380 O   0  0  0  0  0  0  0  0  0  0  0  0
  -21.8090   -6.3530   22.5310 C   0  0  0  0  0  0  0  0  0  0  0  0
  -21.2050   -6.9860   23.6380 C   0  0  0  0  0  3  0  0  0  0  0  0
  -20.9700   -6.2590   24.8240 C   0  0  0  0  0  3  0  0  0  0  0  0
  -21.3300   -4.9010   24.8990 C   0  0  0  0  0  0  0  0  0  0  0  0
  -21.9250   -4.2670   23.7950 C   0  0  0  0  0  3  0  0  0  0  0  0
  -22.1620   -4.9910   22.6130 C   0  0  0  0  0  0  0  0  0  0  0  0
  -22.7180   -4.3710   21.5440 F   0  0  0  0  0  0  0  0  0  0  0  0
  -21.1000   -4.1990   26.0340 F   0  0  0  0  0  0  0  0  0  0  0  0
  -23.0880  -13.6490   21.2400 C   0  0  0  0  0  0  0  0  0  0  0  0
  -22.4400  -12.9450   22.1600 N   0  0  0  0  0  0  0  0  0  0  0  0
  -22.6080  -14.6830   20.7770 O   0  0  0  0  0  0  0  0  0  0  0  0
  -22.8340  -12.1010   22.5510 H   0  0  0  0  0  0  0  0  0  0  0  0
  -21.5390  -13.2630   22.4860 H   0  0  0  0  0  0  0  0  0  0  0  0
  -25.6100  -15.3380   20.2510 N   0  0  0  0  0  0  0  0  0  0  0  0
  -24.8280  -15.9690   20.3820 H   0  0  0  0  0  0  0  0  0  0  0  0
  -26.3820  -15.7640   19.7550 H   0  0  0  0  0  0  0  0  0  0  0  0
  -28.1620  -24.0600   19.9590 C   0  0  0  0  0  2  0  0  0  0  0  0
  -28.3180  -25.7660   20.0370 O   0  0  0  0  0  0  0  0  0  0  0  0
  -24.6550  -31.7850   23.0830 C   0  0  0  0  0  0  0  0  0  0  0  0
  -27.2870  -26.8920   20.0060 C   0  0  0  0  0  0  0  0  0  0  0  0
  -23.4840  -30.3940   21.4250 C   0  0  0  0  0  3  0  0  0  0  0  0
  -24.9580  -28.8080   19.9850 C   0  0  0  0  0  0  0  0  0  0  0  0
  -26.0540  -30.6150   21.2900 C   0  0  0  0  0  2  0  0  0  0  0  0
  -26.1460  -29.2030   20.6140 C   0  0  0  0  0  0  0  0  0  0  0  0
  -27.2990  -28.2740   20.5880 C   0  0  0  0  0  3  0  0  0  0  0  0
  -26.0600  -26.6760   19.3330 C   0  0  0  0  0  3  0  0  0  0  0  0
  -24.9470  -27.5670   19.3230 C   0  0  0  0  0  3  0  0  0  0  0  0
  -23.7300  -29.7240   20.0430 C   0  0  0  0  0  2  0  0  0  0  0  0
  -24.7530  -30.9620   21.9870 N   0  0  0  0  0  0  0  0  0  0  0  0
  -23.5590  -32.0580   23.6030 O   0  0  0  0  0  0  0  0  0  0  0  0
  -22.7920  -29.3870   22.3820 C   0  0  0  0  0  0  0  0  0  0  0  0
  -21.4650  -29.1970   22.2420 N   0  0  0  0  0  0  0  0  0  0  0  0
  -23.4570  -28.7730   23.2200 O   0  0  0  0  0  0  0  0  0  0  0  0
  -20.9770  -29.7450   21.5470 H   0  0  0  0  0  0  0  0  0  0  0  0
  -18.1050  -27.9080   22.7240 C   0  0  0  0  0  0  0  0  0  0  0  0
  -20.6570  -28.2350   22.9990 C   0  0  0  0  0  3  0  0  0  0  0  0
  -20.7940  -26.8100   22.4110 C   0  0  0  0  0  2  0  0  0  0  0  0
  -19.7050  -26.4720   21.3870 C   0  0  0  0  0  2  0  0  0  0  0  0
  -18.3170  -26.5750   22.0270 C   0  0  0  0  0  2  0  0  0  0  0  0
  -19.2040  -28.6950   23.1650 C   0  0  0  0  0  0  0  0  0  0  0  0
  -18.9470  -29.9390   23.7790 C   0  0  0  0  0  3  0  0  0  0  0  0
  -17.6290  -30.3990   23.9550 C   0  0  0  0  0  3  0  0  0  0  0  0
  -16.5470  -29.6110   23.5260 C   0  0  0  0  0  3  0  0  0  0  0  0
  -16.7850  -28.3680   22.9150 C   0  0  0  0  0  3  0  0  0  0  0  0
  -25.9110  -32.4410   23.7330 C   0  0  0  0  0  3  0  0  0  0  0  0
  -26.4230  -31.6640   25.0100 C   0  0  1  0  0  0  0  0  0  0  0  0
  -25.3210  -31.4000   26.0650 C   0  0  0  0  0  1  0  0  0  0  0  0
  -27.0310  -30.2970   24.6220 C   0  0  0  0  0  1  0  0  0  0  0  0
  -27.5570  -32.4670   25.6900 C   0  0  0  0  0  1  0  0  0  0  0  0
  -25.5710  -33.8300   24.0920 N   0  0  0  0  0  0  0  0  0  0  0  0
  -25.8770  -34.9120   23.3630 C   0  0  0  0  0  0  0  0  0  0  0  0
  -26.5370  -34.8450   22.3230 O   0  0  0  0  0  0  0  0  0  0  0  0
  -24.9820  -33.9540   24.9030 H   0  0  0  0  0  0  0  0  0  0  0  0
  -24.1160  -36.6910   23.0870 C   0  0  0  0  0  1  0  0  0  0  0  0
  -25.3780  -36.2830   23.8630 C   0  0  0  0  0  3  0  0  0  0  0  0
  -27.5080  -37.1950   24.6830 C   0  0  0  0  0  1  0  0  0  0  0  0
  -26.3910  -37.3570   23.7550 N   0  0  0  0  0  0  0  0  0  0  0  0
  -25.9710  -38.2670   23.9220 H   0  0  0  0  0  0  0  0  0  0  0  0
  2  1  1  0
  2  5  1  0
  5  3  1  6
  5  4  1  0
  7  5  1  0
  7 10  1  0
  7  6  1  0
 10  9  1  6
 10  8  1  0
 11 10  1  0
 12 17  1  0
 13 14  1  0
 13 12  1  0
 15 14  1  0
 15 22  1  0
 15 16  1  0
 17 11  1  0
 17 16  1  0
 18 11  2  0
 19 20  2  0
 20 39  1  0
 21 20  1  0
 21 24  1  0
 22 23  1  0
 22 19  1  0
 23 21  2  0
 24 25  1  0
 25 26  2  0
 27 30  1  0
 27 26  1  0
 28 27  2  0
 29 28  1  0
 29 24  2  0
 30 31  1  0
 31 36  2  0
 31 32  1  0
 32 33  2  0
 33 34  1  0
 34 38  1  0
 35 34  2  0
 36 35  1  0
 37 36  1  0
 39 40  1  0
 40 43  1  0
 40 42  1  0
 41 39  2  0
 44 45  1  0
 44 19  1  0
 46 44  1  0
 47  2  1  0
 47 48  1  0
 49 60  2  0
 50 48  1  0
 50 55  1  0
 51 59  1  0
 51 61  1  0
 52 58  1  0
 52 54  1  0
 53 59  1  0
 54 53  1  0
 55 54  2  0
 56 50  2  0
 57 56  1  0
 57 52  2  0
 58 51  1  0
 59 49  1  0
 61 63  2  0
 62 61  1  0
 64 62  1  0
 65 74  2  0
 65 70  1  0
 66 62  1  0
 66 70  1  0
 67 66  1  0
 68 69  1  0
 68 67  1  0
 69 65  1  0
 70 71  2  0
 71 72  1  0
 73 72  2  0
 74 73  1  0
 75 49  1  0
 75 80  1  0
 75 76  1  0
 76 79  1  1
 76 77  1  0
 78 76  1  0
 80 83  1  0
 81 85  1  0
 81 80  1  0
 82 81  2  0
 85 84  1  0
 87 85  1  0
 87 88  1  0
 87 86  1  0
M  ISO  4  10 100  11 100  47 101  48 101
M  END
>  <TORSDO>  (87) 
F 20

>  <SCORE>  (87) 
-15.480

>  <name>  (87) 
86

>  <ligand_id>  (87) 
86

>  <original_smiles>  (87) 
[H]c1c([H])c([H])c2c(c1[H])C([H])([H])C([H])([H])C([H])([H])C2([H])N([H])C(=O)C1([H])N(C(=O)C([H])(N([H])C(=O)C([H])(N([H])C([H])([H])[H])C([H])([H])[H])C(C([H])([H])[H])(C([H])([H])[H])C([H])([H])[H])C([H])([H])c2c([H])c(OC([H])([H])C([H])(C([H])([H])[H])C(C([H])([H])[H])(C([H])([H])[H])C([H])(C([H])([H])[H])C(C(=O)N3C([H])([H])C([H])([H])C([H])([H])C([H])(n4nc(-c5c([H])c([H])c(Oc6c([H])c([H])c(F)c([H])c6F)c([H])c5[H])c(C(=O)N([H])[H])c4N([H])[H])C3([H])[H])(C([H])([H])[H])C([H])([H])[H])c([H])c([H])c2C1([H])[H]

>  <smiles>  (87) 
[H]c1c([H])c([H])c2c(c1[H])C([H])([H])C([H])([H])C([H])([H])C2([H])N([H])C(=O)C1([H])N(C(=O)C([H])(N([H])C(=O)C([H])(N([H])C([H])([H])[H])C([H])([H])[H])C(C([H])([H])[H])(C([H])([H])[H])C([H])([H])[H])C([H])([H])c2c([H])c(OC([H])([H])C([H])(C([H])([H])[H])C(C([H])([H])[H])(C([H])([H])[H])C([H])(C([H])([H])[H])C(C(=O)N3C([H])([H])C([H])([H])C([H])([H])C([H])(n4nc(-c5c([H])c([H])c(Oc6c([H])c([H])c(F)c([H])c6F)c([H])c5[H])c(C(=O)N([H])[H])c4N([H])[H])C3([H])[H])(C([H])([H])[H])C([H])([H])[H])c([H])c([H])c2C1([H])[H]

$$$$
87:0:0
     RDKit          3D

 91 99  0  0  1  0  0  0  0  0999 V2000
  -30.6300  -20.3340   20.1520 C   0  0  0  0  0  3  0  0  0  0  0  0
  -31.0260  -18.9410   20.1520 C   0  0  0  0  0  0  0  0  0  0  0  0
  -29.2730  -20.7150   20.3390 C   0  0  0  0  0  0  0  0  0  0  0  0
  -30.0280  -17.8970   20.2550 C   0  0  0  0  0  0  0  0  0  0  0  0
  -28.4140  -19.6830   20.6170 N   0  0  0  0  0  0  0  0  0  0  0  0
  -28.7730  -18.3680   20.5840 N   0  0  0  0  0  0  0  0  0  0  0  0
  -28.7200  -16.2220   18.8910 C   0  0  0  0  0  1  0  0  0  0  0  0
  -30.9820  -16.5100   18.2850 C   0  0  0  0  0  1  0  0  0  0  0  0
  -30.0950  -16.3950   19.5640 C   0  0  1  0  0  0  0  0  0  0  0  0
  -30.6460  -14.9810   20.2590 C   0  0  0  0  0  0  0  0  0  0  0  0
  -30.4520  -12.6190   19.4370 C   0  0  0  0  0  2  0  0  0  0  0  0
  -29.5220  -12.5220   18.2080 C   0  0  0  0  0  2  0  0  0  0  0  0
  -28.0630  -12.2920   18.6500 C   0  0  0  0  0  2  0  0  0  0  0  0
  -27.6250  -13.2460   19.7880 C   0  0  0  0  0  3  0  0  0  0  0  0
  -28.6940  -13.4060   20.8930 C   0  0  0  0  0  2  0  0  0  0  0  0
  -29.9770  -13.7580   20.2620 N   0  0  0  0  0  0  0  0  0  0  0  0
  -31.8720  -14.9090   20.3560 O   0  0  0  0  0  0  0  0  0  0  0  0
  -25.2580  -13.8640   20.5240 C   0  0  0  0  0  0  0  0  0  0  0  0
  -24.1870  -13.0960   20.8830 C   0  0  0  0  0  0  0  0  0  0  0  0
  -24.6530  -11.7450   20.8670 C   0  0  0  0  0  0  0  0  0  0  0  0
  -26.2980  -12.9730   20.3030 N   0  0  0  0  0  0  0  0  0  0  0  0
  -25.9450  -11.6970   20.5780 N   0  0  0  0  0  0  0  0  0  0  0  0
  -23.9300  -10.4860   21.0490 C   0  0  0  0  0  0  0  0  0  0  0  0
  -24.3560   -9.5260   21.9920 C   0  0  0  0  0  3  0  0  0  0  0  0
  -23.6350   -8.3270   22.1640 C   0  0  0  0  0  3  0  0  0  0  0  0
  -22.4740   -8.0810   21.3930 C   0  0  0  0  0  0  0  0  0  0  0  0
  -22.0690   -9.0300   20.4380 C   0  0  0  0  0  3  0  0  0  0  0  0
  -22.7910  -10.2220   20.2630 C   0  0  0  0  0  3  0  0  0  0  0  0
  -21.7250   -6.9340   21.4760 O   0  0  0  0  0  0  0  0  0  0  0  0
  -21.6610   -6.2010   22.6330 C   0  0  0  0  0  0  0  0  0  0  0  0
  -21.1970   -6.7600   23.8440 C   0  0  0  0  0  3  0  0  0  0  0  0
  -21.0830   -5.9520   24.9940 C   0  0  0  0  0  3  0  0  0  0  0  0
  -21.4210   -4.5870   24.9310 C   0  0  0  0  0  0  0  0  0  0  0  0
  -21.8780   -4.0270   23.7250 C   0  0  0  0  0  3  0  0  0  0  0  0
  -21.9950   -4.8330   22.5770 C   0  0  0  0  0  0  0  0  0  0  0  0
  -22.4160   -4.2860   21.4120 F   0  0  0  0  0  0  0  0  0  0  0  0
  -21.3030   -3.8080   26.0320 F   0  0  0  0  0  0  0  0  0  0  0  0
  -22.7860  -13.5760   21.1270 C   0  0  0  0  0  0  0  0  0  0  0  0
  -22.0470  -12.8830   21.9840 N   0  0  0  0  0  0  0  0  0  0  0  0
  -22.3560  -14.5980   20.5940 O   0  0  0  0  0  0  0  0  0  0  0  0
  -22.4090  -12.0570   22.4340 H   0  0  0  0  0  0  0  0  0  0  0  0
  -21.1050  -13.1830   22.1940 H   0  0  0  0  0  0  0  0  0  0  0  0
  -25.4200  -15.2350   20.3390 N   0  0  0  0  0  0  0  0  0  0  0  0
  -24.6510  -15.8890   20.4450 H   0  0  0  0  0  0  0  0  0  0  0  0
  -26.2770  -15.6770   20.0340 H   0  0  0  0  0  0  0  0  0  0  0  0
  -33.4520  -19.4960   20.8210 C   0  0  0  0  0  1  0  0  0  0  0  0
  -32.5070  -18.6230   19.9790 C   0  0  0  0  0  2  0  0  0  0  0  0
  -28.6170  -22.1500   19.9850 C   0  0  0  0  0  2  0  0  0  0  0  0
  -29.0380  -23.6450   20.4930 C   0  0  0  0  0  3  0  0  0  0  0  0
  -28.0620  -24.8950   20.0600 C   0  0  0  0  0  3  0  0  0  0  0  0
  -28.3030  -26.3770   20.2940 O   0  0  0  0  0  0  0  0  0  0  0  0
  -24.5930  -31.8890   23.2740 C   0  0  0  0  0  0  0  0  0  0  0  0
  -27.2130  -27.2920   20.2090 C   0  0  0  0  0  0  0  0  0  0  0  0
  -23.4000  -30.5060   21.6180 C   0  0  0  0  0  3  0  0  0  0  0  0
  -24.8590  -28.9630   20.1810 C   0  0  0  0  0  0  0  0  0  0  0  0
  -25.9450  -30.8050   21.4570 C   0  0  0  0  0  2  0  0  0  0  0  0
  -26.0280  -29.4270   20.7960 C   0  0  0  0  0  0  0  0  0  0  0  0
  -27.2050  -28.6040   20.7990 C   0  0  0  0  0  3  0  0  0  0  0  0
  -26.0200  -26.9080   19.5520 C   0  0  0  0  0  3  0  0  0  0  0  0
  -24.8620  -27.7120   19.5450 C   0  0  0  0  0  3  0  0  0  0  0  0
  -23.6270  -29.8480   20.2310 C   0  0  0  0  0  2  0  0  0  0  0  0
  -24.6650  -31.0840   22.1730 N   0  0  0  0  0  0  0  0  0  0  0  0
  -23.5050  -32.1620   23.8050 O   0  0  0  0  0  0  0  0  0  0  0  0
  -22.7280  -29.4830   22.5660 C   0  0  0  0  0  0  0  0  0  0  0  0
  -21.4020  -29.3050   22.4290 N   0  0  0  0  0  0  0  0  0  0  0  0
  -23.3990  -28.8510   23.3870 O   0  0  0  0  0  0  0  0  0  0  0  0
  -20.9190  -29.8660   21.7410 H   0  0  0  0  0  0  0  0  0  0  0  0
  -18.0230  -28.0940   22.9030 C   0  0  0  0  0  0  0  0  0  0  0  0
  -20.5790  -28.3600   23.1870 C   0  0  0  0  0  3  0  0  0  0  0  0
  -20.6900  -26.9330   22.6060 C   0  0  0  0  0  2  0  0  0  0  0  0
  -19.5940  -26.6100   21.5830 C   0  0  0  0  0  2  0  0  0  0  0  0
  -18.2080  -26.7500   22.2180 C   0  0  0  0  0  2  0  0  0  0  0  0
  -19.1370  -28.8570   23.3440 C   0  0  0  0  0  0  0  0  0  0  0  0
  -18.9100  -30.1140   23.9450 C   0  0  0  0  0  3  0  0  0  0  0  0
  -17.6030  -30.6100   24.1070 C   0  0  0  0  0  3  0  0  0  0  0  0
  -16.5050  -29.8440   23.6810 C   0  0  0  0  0  3  0  0  0  0  0  0
  -16.7150  -28.5880   23.0860 C   0  0  0  0  0  3  0  0  0  0  0  0
  -25.8720  -32.5200   23.9080 C   0  0  0  0  0  3  0  0  0  0  0  0
  -25.5630  -33.9200   24.2320 N   0  0  0  0  0  0  0  0  0  0  0  0
  -25.9000  -34.9710   23.4710 C   0  0  0  0  0  0  0  0  0  0  0  0
  -26.5720  -34.8610   22.4430 O   0  0  0  0  0  0  0  0  0  0  0  0
  -24.9710  -34.0780   25.0350 H   0  0  0  0  0  0  0  0  0  0  0  0
  -24.1870  -36.7740   23.1030 C   0  0  0  0  0  1  0  0  0  0  0  0
  -25.4200  -36.3650   23.9230 C   0  0  0  0  0  3  0  0  0  0  0  0
  -27.5530  -37.2410   24.7680 C   0  0  0  0  0  1  0  0  0  0  0  0
  -26.4600  -37.4100   23.8130 N   0  0  0  0  0  0  0  0  0  0  0  0
  -26.0600  -38.3340   23.9520 H   0  0  0  0  0  0  0  0  0  0  0  0
  -26.3700  -31.7520   25.1940 C   0  0  1  0  0  0  0  0  0  0  0  0
  -25.2620  -31.5230   26.2500 C   0  0  0  0  0  1  0  0  0  0  0  0
  -26.9510  -30.3700   24.8150 C   0  0  0  0  0  1  0  0  0  0  0  0
  -27.5180  -32.5420   25.8640 C   0  0  0  0  0  1  0  0  0  0  0  0
  1  3  1  0
  2  1  2  0
  2  4  1  0
  3  5  2  0
  4  6  2  0
  6  5  1  0
  9  7  1  6
  8  9  1  0
  9  4  1  0
  9 10  1  0
 10 16  1  0
 10 17  2  0
 11 16  1  0
 12 13  1  0
 12 11  1  0
 14 13  1  0
 14 21  1  0
 14 15  1  0
 16 15  1  0
 18 19  2  0
 19 38  1  0
 20 19  1  0
 20 23  1  0
 21 18  1  0
 21 22  1  0
 22 20  2  0
 23 24  1  0
 24 25  2  0
 26 29  1  0
 26 25  1  0
 27 26  2  0
 28 27  1  0
 28 23  2  0
 29 30  1  0
 30 31  1  0
 31 32  2  0
 33 32  1  0
 33 37  1  0
 34 33  2  0
 35 30  2  0
 35 34  1  0
 36 35  1  0
 38 39  1  0
 39 42  1  0
 39 41  1  0
 40 38  2  0
 43 44  1  0
 43 18  1  0
 45 43  1  0
 47  2  1  0
 47 46  1  0
 48  3  1  0
 48 49  1  0
 50 51  1  0
 50 49  2  0
 52 63  2  0
 53 51  1  0
 53 58  1  0
 54 62  1  0
 54 64  1  0
 55 61  1  0
 55 57  1  0
 56 62  1  0
 57 58  2  0
 57 56  1  0
 59 53  2  0
 60 59  1  0
 60 55  2  0
 61 54  1  0
 62 52  1  0
 64 66  2  0
 65 64  1  0
 67 65  1  0
 68 77  2  0
 68 73  1  0
 69 65  1  0
 69 73  1  0
 70 69  1  0
 71 72  1  0
 71 70  1  0
 72 68  1  0
 73 74  2  0
 74 75  1  0
 76 75  2  0
 77 76  1  0
 78 52  1  0
 78 79  1  0
 78 88  1  0
 79 82  1  0
 80 84  1  0
 80 79  1  0
 81 80  2  0
 84 83  1  0
 86 84  1  0
 86 87  1  0
 86 85  1  0
 88 91  1  1
 88 89  1  0
 90 88  1  0
M  ISO  4   9 100  10 100  50 101  51 101
M  END
>  <TORSDO>  (88) 
F 21

>  <SCORE>  (88) 
-13.528

>  <name>  (88) 
87

>  <ligand_id>  (88) 
87

>  <original_smiles>  (88) 
[H]c1c([H])c([H])c2c(c1[H])C([H])([H])C([H])([H])C([H])([H])C2([H])N([H])C(=O)C1([H])N(C(=O)C([H])(N([H])C(=O)C([H])(N([H])C([H])([H])[H])C([H])([H])[H])C(C([H])([H])[H])(C([H])([H])[H])C([H])([H])[H])C([H])([H])c2c([H])c(OC([H])([H])C([H])([H])C([H])([H])c3nnc(C(C(=O)N4C([H])([H])C([H])([H])C([H])([H])C([H])(n5nc(-c6c([H])c([H])c(Oc7c([H])c([H])c(F)c([H])c7F)c([H])c6[H])c(C(=O)N([H])[H])c5N([H])[H])C4([H])[H])(C([H])([H])[H])C([H])([H])[H])c(C([H])([H])C([H])([H])[H])c3[H])c([H])c([H])c2C1([H])[H]

>  <smiles>  (88) 
[H]c1c([H])c([H])c2c(c1[H])C([H])([H])C([H])([H])C([H])([H])C2([H])N([H])C(=O)C1([H])N(C(=O)C([H])(N([H])C(=O)C([H])(N([H])C([H])([H])[H])C([H])([H])[H])C(C([H])([H])[H])(C([H])([H])[H])C([H])([H])[H])C([H])([H])c2c([H])c(OC([H])([H])C([H])([H])C([H])([H])c3nnc(C(C(=O)N4C([H])([H])C([H])([H])C([H])([H])C([H])(n5nc(-c6c([H])c([H])c(Oc7c([H])c([H])c(F)c([H])c7F)c([H])c6[H])c(C(=O)N([H])[H])c5N([H])[H])C4([H])[H])(C([H])([H])[H])C([H])([H])[H])c(C([H])([H])C([H])([H])[H])c3[H])c([H])c([H])c2C1([H])[H]

$$$$
88:0:0
     RDKit          3D

 93101  0  0  1  0  0  0  0  0999 V2000
  -28.8540  -22.4370   20.0530 C   0  0  0  0  0  3  0  0  0  0  0  0
  -29.7400  -21.3870   19.5930 C   0  0  0  0  0  0  0  0  0  0  0  0
  -29.1320  -23.8480   19.8620 C   0  0  0  0  0  0  0  0  0  0  0  0
  -30.9080  -21.8530   18.9400 C   0  0  0  0  0  0  0  0  0  0  0  0
  -30.3640  -24.1280   19.2310 C   0  0  0  0  0  0  0  0  0  0  0  0
  -30.8340  -25.5400   18.9450 C   0  0  0  0  0  1  0  0  0  0  0  0
  -31.2070  -23.1630   18.8000 N   0  0  0  0  0  0  0  0  0  0  0  0
  -31.5800  -20.8490   16.7100 C   0  0  0  0  0  1  0  0  0  0  0  0
  -31.8760  -20.9280   18.2150 C   0  0  0  0  0  2  0  0  0  0  0  0
  -29.3720  -19.8370   19.5740 C   0  0  0  0  0  2  0  0  0  0  0  0
  -30.2560  -18.6850   20.2780 C   0  0  0  0  0  3  0  0  0  0  0  0
  -30.2940  -17.2110   19.5900 C   0  0  0  0  0  3  0  0  0  0  0  0
  -31.2770  -14.8270   19.7090 C   0  0  0  0  0  0  0  0  0  0  0  0
  -30.8460  -12.6230   18.6100 C   0  0  0  0  0  2  0  0  0  0  0  0
  -29.7930  -12.7950   17.4940 C   0  0  0  0  0  2  0  0  0  0  0  0
  -28.3690  -12.6670   18.0680 C   0  0  0  0  0  2  0  0  0  0  0  0
  -28.1650  -13.5150   19.3510 C   0  0  0  0  0  3  0  0  0  0  0  0
  -29.3250  -13.3200   20.3500 C   0  0  0  0  0  2  0  0  0  0  0  0
  -30.5750  -13.6440   19.6500 N   0  0  0  0  0  0  0  0  0  0  0  0
  -32.3540  -14.9330   19.1120 O   0  0  0  0  0  0  0  0  0  0  0  0
  -30.7190  -15.9380   20.3370 N   0  0  0  0  0  0  0  0  0  0  0  0
  -25.8960  -14.1640   20.3650 C   0  0  0  0  0  0  0  0  0  0  0  0
  -24.8390  -13.4160   20.8060 C   0  0  0  0  0  0  0  0  0  0  0  0
  -25.2290  -12.0500   20.6470 C   0  0  0  0  0  0  0  0  0  0  0  0
  -26.8660  -13.2570   19.9670 N   0  0  0  0  0  0  0  0  0  0  0  0
  -26.4750  -11.9750   20.1970 N   0  0  0  0  0  0  0  0  0  0  0  0
  -24.4630  -10.8120   20.8430 C   0  0  0  0  0  0  0  0  0  0  0  0
  -24.8420   -9.8540   21.8090 C   0  0  0  0  0  3  0  0  0  0  0  0
  -24.0790   -8.6810   21.9940 C   0  0  0  0  0  3  0  0  0  0  0  0
  -22.9210   -8.4590   21.2110 C   0  0  0  0  0  0  0  0  0  0  0  0
  -22.5600   -9.4040   20.2360 C   0  0  0  0  0  3  0  0  0  0  0  0
  -23.3250  -10.5690   20.0500 C   0  0  0  0  0  3  0  0  0  0  0  0
  -22.1330   -7.3360   21.3020 O   0  0  0  0  0  0  0  0  0  0  0  0
  -21.9170   -6.7030   22.4990 C   0  0  0  0  0  0  0  0  0  0  0  0
  -21.3270   -7.3660   23.5970 C   0  0  0  0  0  3  0  0  0  0  0  0
  -21.0580   -6.6590   24.7860 C   0  0  0  0  0  3  0  0  0  0  0  0
  -21.3720   -5.2900   24.8780 C   0  0  0  0  0  0  0  0  0  0  0  0
  -21.9560   -4.6270   23.7860 C   0  0  0  0  0  3  0  0  0  0  0  0
  -22.2230   -5.3300   22.5980 C   0  0  0  0  0  0  0  0  0  0  0  0
  -22.7660   -4.6800   21.5410 F   0  0  0  0  0  0  0  0  0  0  0  0
  -21.1070   -4.6090   26.0170 F   0  0  0  0  0  0  0  0  0  0  0  0
  -23.5050  -13.9360   21.2560 C   0  0  0  0  0  0  0  0  0  0  0  0
  -22.8680  -13.2570   22.2040 N   0  0  0  0  0  0  0  0  0  0  0  0
  -23.0400  -14.9800   20.8010 O   0  0  0  0  0  0  0  0  0  0  0  0
  -23.2570  -12.4110   22.5950 H   0  0  0  0  0  0  0  0  0  0  0  0
  -21.9780  -13.5880   22.5450 H   0  0  0  0  0  0  0  0  0  0  0  0
  -26.1030  -15.5360   20.2460 N   0  0  0  0  0  0  0  0  0  0  0  0
  -25.3840  -16.2130   20.4740 H   0  0  0  0  0  0  0  0  0  0  0  0
  -26.9280  -15.9540   19.8360 H   0  0  0  0  0  0  0  0  0  0  0  0
  -30.0550  -16.5550   22.6810 C   0  0  0  0  0  1  0  0  0  0  0  0
  -31.1930  -16.1840   21.7110 C   0  0  0  0  0  2  0  0  0  0  0  0
  -28.1140  -24.9860   20.3150 C   0  0  0  0  0  2  0  0  0  0  0  0
  -28.3900  -26.4520   20.1340 O   0  0  0  0  0  0  0  0  0  0  0  0
  -24.6040  -31.8840   23.1380 C   0  0  0  0  0  0  0  0  0  0  0  0
  -27.2850  -27.3290   20.1040 C   0  0  0  0  0  0  0  0  0  0  0  0
  -23.4280  -30.4610   21.5000 C   0  0  0  0  0  3  0  0  0  0  0  0
  -24.9060  -28.9310   20.0800 C   0  0  0  0  0  0  0  0  0  0  0  0
  -25.9670  -30.8090   21.3270 C   0  0  0  0  0  2  0  0  0  0  0  0
  -26.0700  -29.4300   20.6830 C   0  0  0  0  0  0  0  0  0  0  0  0
  -27.2630  -28.6400   20.6850 C   0  0  0  0  0  3  0  0  0  0  0  0
  -26.1050  -26.9070   19.4530 C   0  0  0  0  0  3  0  0  0  0  0  0
  -24.9290  -27.6770   19.4530 C   0  0  0  0  0  3  0  0  0  0  0  0
  -23.6570  -29.7870   20.1230 C   0  0  0  0  0  2  0  0  0  0  0  0
  -24.6850  -31.0700   22.0440 N   0  0  0  0  0  0  0  0  0  0  0  0
  -23.5140  -32.1480   23.6670 O   0  0  0  0  0  0  0  0  0  0  0  0
  -22.7800  -29.4360   22.4620 C   0  0  0  0  0  0  0  0  0  0  0  0
  -21.4550  -29.2470   22.3420 N   0  0  0  0  0  0  0  0  0  0  0  0
  -23.4670  -28.8140   23.2760 O   0  0  0  0  0  0  0  0  0  0  0  0
  -20.9570  -29.8000   21.6570 H   0  0  0  0  0  0  0  0  0  0  0  0
  -18.0900  -28.0180   22.8570 C   0  0  0  0  0  0  0  0  0  0  0  0
  -20.6470  -28.3010   23.1160 C   0  0  0  0  0  3  0  0  0  0  0  0
  -20.7600  -26.8710   22.5390 C   0  0  0  0  0  2  0  0  0  0  0  0
  -19.6570  -26.5380   21.5300 C   0  0  0  0  0  2  0  0  0  0  0  0
  -18.2760  -26.6700   22.1800 C   0  0  0  0  0  2  0  0  0  0  0  0
  -19.2030  -28.7900   23.2820 C   0  0  0  0  0  0  0  0  0  0  0  0
  -18.9750  -30.0500   23.8760 C   0  0  0  0  0  3  0  0  0  0  0  0
  -17.6660  -30.5390   24.0480 C   0  0  0  0  0  3  0  0  0  0  0  0
  -16.5680  -29.7640   23.6390 C   0  0  0  0  0  3  0  0  0  0  0  0
  -16.7800  -28.5040   23.0500 C   0  0  0  0  0  3  0  0  0  0  0  0
  -25.8750  -32.5400   23.7600 C   0  0  0  0  0  3  0  0  0  0  0  0
  -25.5320  -33.9270   24.1090 N   0  0  0  0  0  0  0  0  0  0  0  0
  -25.8700  -35.0010   23.3840 C   0  0  0  0  0  0  0  0  0  0  0  0
  -26.5710  -34.9290   22.3700 O   0  0  0  0  0  0  0  0  0  0  0  0
  -24.9110  -34.0550   24.8950 H   0  0  0  0  0  0  0  0  0  0  0  0
  -24.1570  -36.7990   22.9860 C   0  0  0  0  0  1  0  0  0  0  0  0
  -25.3480  -36.3720   23.8560 C   0  0  0  0  0  3  0  0  0  0  0  0
  -27.4230  -37.2380   24.8450 C   0  0  0  0  0  1  0  0  0  0  0  0
  -26.3800  -37.4310   23.8400 N   0  0  0  0  0  0  0  0  0  0  0  0
  -25.9610  -38.3450   23.9920 H   0  0  0  0  0  0  0  0  0  0  0  0
  -26.4160  -31.7670   25.0260 C   0  0  1  0  0  0  0  0  0  0  0  0
  -25.3310  -31.4800   26.0900 C   0  0  0  0  0  1  0  0  0  0  0  0
  -27.0410  -30.4140   24.6160 C   0  0  0  0  0  1  0  0  0  0  0  0
  -27.5430  -32.5870   25.6980 C   0  0  0  0  0  1  0  0  0  0  0  0
  2  1  2  0
  3  1  1  0
  3 52  1  0
  4  2  1  0
  5  3  2  0
  6  5  1  0
  7  4  2  0
  7  5  1  0
  8  9  1  0
  9  4  1  0
 10  2  1  0
 10 11  1  0
 12 11  2  0
 12 21  1  0
 13 21  1  0
 14 19  1  0
 15 16  1  0
 15 14  1  0
 17 16  1  0
 17 25  1  0
 17 18  1  0
 19 13  1  0
 19 18  1  0
 20 13  2  0
 21 51  1  0
 22 23  2  0
 23 42  1  0
 24 23  1  0
 24 27  1  0
 25 26  1  0
 25 22  1  0
 26 24  2  0
 27 28  1  0
 28 29  2  0
 30 33  1  0
 30 29  1  0
 31 30  2  0
 32 31  1  0
 32 27  2  0
 33 34  1  0
 34 39  2  0
 34 35  1  0
 35 36  2  0
 36 37  1  0
 37 41  1  0
 38 37  2  0
 39 38  1  0
 40 39  1  0
 42 43  1  0
 43 46  1  0
 43 45  1  0
 44 42  2  0
 47 22  1  0
 47 48  1  0
 49 47  1  0
 51 50  1  0
 53 52  1  0
 54 65  2  0
 55 53  1  0
 55 60  1  0
 56 64  1  0
 56 66  1  0
 57 63  1  0
 57 59  1  0
 58 64  1  0
 59 60  2  0
 59 58  1  0
 61 62  1  0
 61 55  2  0
 62 57  2  0
 63 56  1  0
 64 54  1  0
 66 68  2  0
 67 66  1  0
 69 67  1  0
 70 79  2  0
 70 75  1  0
 71 67  1  0
 71 75  1  0
 72 71  1  0
 73 74  1  0
 73 72  1  0
 74 70  1  0
 75 76  2  0
 76 77  1  0
 78 77  2  0
 79 78  1  0
 80 54  1  0
 80 81  1  0
 80 90  1  0
 81 84  1  0
 82 86  1  0
 82 81  1  0
 83 82  2  0
 86 85  1  0
 88 86  1  0
 88 89  1  0
 88 87  1  0
 90 93  1  1
 90 91  1  0
 92 90  1  0
M  ISO  4  13 100  21 100  52 101  53 101
M  END
>  <TORSDO>  (89) 
F 22

>  <SCORE>  (89) 
-11.456

>  <name>  (89) 
88

>  <ligand_id>  (89) 
88

>  <original_smiles>  (89) 
[H]c1c([H])c([H])c2c(c1[H])C([H])([H])C([H])([H])C([H])([H])C2([H])N([H])C(=O)C1([H])N(C(=O)C([H])(N([H])C(=O)C([H])(N([H])C([H])([H])[H])C([H])([H])[H])C(C([H])([H])[H])(C([H])([H])[H])C([H])([H])[H])C([H])([H])c2c([H])c(OC([H])([H])c3c(C([H])([H])[H])nc(C([H])([H])C([H])([H])[H])c(C([H])([H])C([H])([H])C([H])([H])N(C(=O)N4C([H])([H])C([H])([H])C([H])([H])C([H])(n5nc(-c6c([H])c([H])c(Oc7c([H])c([H])c(F)c([H])c7F)c([H])c6[H])c(C(=O)N([H])[H])c5N([H])[H])C4([H])[H])C([H])([H])C([H])([H])[H])c3[H])c([H])c([H])c2C1([H])[H]

>  <smiles>  (89) 
[H]c1c([H])c([H])c2c(c1[H])C([H])([H])C([H])([H])C([H])([H])C2([H])N([H])C(=O)C1([H])N(C(=O)C([H])(N([H])C(=O)C([H])(N([H])C([H])([H])[H])C([H])([H])[H])C(C([H])([H])[H])(C([H])([H])[H])C([H])([H])[H])C([H])([H])c2c([H])c(OC([H])([H])c3c(C([H])([H])[H])nc(C([H])([H])C([H])([H])[H])c(C([H])([H])C([H])([H])C([H])([H])N(C(=O)N4C([H])([H])C([H])([H])C([H])([H])C([H])(n5nc(-c6c([H])c([H])c(Oc7c([H])c([H])c(F)c([H])c7F)c([H])c6[H])c(C(=O)N([H])[H])c5N([H])[H])C4([H])[H])C([H])([H])C([H])([H])[H])c3[H])c([H])c([H])c2C1([H])[H]

$$$$
89:0:0
     RDKit          3D

 96104  0  0  1  0  0  0  0  0999 V2000
  -29.1280  -23.2960   20.5350 C   0  0  0  0  0  0  0  0  0  0  0  0
  -28.0020  -22.6700   19.8960 C   0  0  0  0  0  0  0  0  0  0  0  0
  -30.0470  -22.2660   20.6270 C   0  0  0  0  0  0  0  0  0  0  0  0
  -31.4250  -22.2570   21.2100 C   0  0  0  0  0  1  0  0  0  0  0  0
  -28.2930  -21.4260   19.5340 N   0  0  0  0  0  0  0  0  0  0  0  0
  -29.5040  -21.1290   20.0330 N   0  0  0  0  0  0  0  0  0  0  0  0
  -26.2500  -24.5400   20.0960 C   0  0  0  0  0  1  0  0  0  0  0  0
  -25.5370  -22.1820   20.0010 C   0  0  0  0  0  1  0  0  0  0  0  0
  -26.5520  -23.2930   17.9590 C   0  0  0  0  0  1  0  0  0  0  0  0
  -26.6120  -23.1730   19.4940 C   0  0  2  0  0  0  0  0  0  0  0  0
  -29.2770  -24.7470   21.0290 C   0  0  0  0  0  2  0  0  0  0  0  0
  -29.3950  -25.8180   19.9050 C   0  0  0  0  0  2  0  0  0  0  0  0
  -29.1680  -27.1710   20.3800 O   0  0  0  0  0  0  0  0  0  0  0  0
  -24.8660  -31.9910   23.4040 C   0  0  0  0  0  0  0  0  0  0  0  0
  -27.9290  -27.7980   20.3150 C   0  0  0  0  0  0  0  0  0  0  0  0
  -23.8330  -30.5990   21.6400 C   0  0  0  0  0  3  0  0  0  0  0  0
  -25.4480  -29.1970   20.2430 C   0  0  0  0  0  0  0  0  0  0  0  0
  -26.3470  -31.0890   21.6020 C   0  0  0  0  0  2  0  0  0  0  0  0
  -26.5420  -29.7500   20.9180 C   0  0  0  0  0  0  0  0  0  0  0  0
  -27.7800  -29.0610   20.9470 C   0  0  0  0  0  3  0  0  0  0  0  0
  -26.8070  -27.2690   19.6340 C   0  0  0  0  0  3  0  0  0  0  0  0
  -25.5780  -27.9560   19.5970 C   0  0  0  0  0  3  0  0  0  0  0  0
  -24.1590  -29.9920   20.2480 C   0  0  0  0  0  2  0  0  0  0  0  0
  -25.0290  -31.2420   22.2740 N   0  0  0  0  0  0  0  0  0  0  0  0
  -23.7440  -32.1790   23.8910 O   0  0  0  0  0  0  0  0  0  0  0  0
  -23.1830  -29.5060   22.5200 C   0  0  0  0  0  0  0  0  0  0  0  0
  -21.8750  -29.2720   22.3210 N   0  0  0  0  0  0  0  0  0  0  0  0
  -23.8570  -28.8680   23.3350 O   0  0  0  0  0  0  0  0  0  0  0  0
  -21.3930  -29.8470   21.6440 H   0  0  0  0  0  0  0  0  0  0  0  0
  -18.5250  -27.9610   22.6580 C   0  0  0  0  0  0  0  0  0  0  0  0
  -21.0690  -28.2630   23.0070 C   0  0  0  0  0  3  0  0  0  0  0  0
  -21.2230  -26.8780   22.3370 C   0  0  0  0  0  2  0  0  0  0  0  0
  -20.1530  -26.5990   21.2770 C   0  0  0  0  0  2  0  0  0  0  0  0
  -18.7530  -26.6640   21.8970 C   0  0  0  0  0  2  0  0  0  0  0  0
  -19.6140  -28.7180   23.1650 C   0  0  0  0  0  0  0  0  0  0  0  0
  -19.3510  -29.9310   23.8350 C   0  0  0  0  0  3  0  0  0  0  0  0
  -18.0290  -30.3900   24.0050 C   0  0  0  0  0  3  0  0  0  0  0  0
  -16.9540  -29.6270   23.5150 C   0  0  0  0  0  3  0  0  0  0  0  0
  -17.2020  -28.4140   22.8480 C   0  0  0  0  0  3  0  0  0  0  0  0
  -26.0760  -32.6640   24.1230 C   0  0  0  0  0  3  0  0  0  0  0  0
  -25.7000  -34.0530   24.4150 N   0  0  0  0  0  0  0  0  0  0  0  0
  -26.0510  -35.1090   23.6680 C   0  0  0  0  0  0  0  0  0  0  0  0
  -26.7940  -35.0160   22.6860 O   0  0  0  0  0  0  0  0  0  0  0  0
  -25.0430  -34.1950   25.1690 H   0  0  0  0  0  0  0  0  0  0  0  0
  -24.2900  -36.8360   23.1790 C   0  0  0  0  0  1  0  0  0  0  0  0
  -25.4890  -36.4860   24.0730 C   0  0  0  0  0  3  0  0  0  0  0  0
  -27.5360  -37.4530   25.0230 C   0  0  0  0  0  1  0  0  0  0  0  0
  -26.4920  -37.5720   24.0080 N   0  0  0  0  0  0  0  0  0  0  0  0
  -26.0490  -38.4810   24.1140 H   0  0  0  0  0  0  0  0  0  0  0  0
  -26.5040  -31.9160   25.4440 C   0  0  1  0  0  0  0  0  0  0  0  0
  -25.3310  -31.6320   26.4110 C   0  0  0  0  0  1  0  0  0  0  0  0
  -27.1760  -30.5660   25.1050 C   0  0  0  0  0  1  0  0  0  0  0  0
  -27.5600  -32.7560   26.1990 C   0  0  0  0  0  1  0  0  0  0  0  0
  -30.1100  -19.8190   19.7000 C   0  0  0  0  0  2  0  0  0  0  0  0
  -28.1530  -18.3270   20.5620 C   0  0  0  0  0  1  0  0  0  0  0  0
  -30.2220  -18.5920   21.9340 C   0  0  0  0  0  1  0  0  0  0  0  0
  -29.6830  -18.5140   20.4950 C   0  0  2  0  0  0  0  0  0  0  0  0
  -30.3380  -17.2830   19.7790 C   0  0  0  0  0  2  0  0  0  0  0  0
  -30.8640  -14.8630   20.0050 C   0  0  0  0  0  0  0  0  0  0  0  0
  -30.5660  -12.6510   18.9660 C   0  0  0  0  0  2  0  0  0  0  0  0
  -29.5950  -12.8080   17.7780 C   0  0  0  0  0  2  0  0  0  0  0  0
  -28.1390  -12.6410   18.2520 C   0  0  0  0  0  2  0  0  0  0  0  0
  -27.8140  -13.5130   19.4920 C   0  0  0  0  0  3  0  0  0  0  0  0
  -28.9030  -13.3740   20.5830 C   0  0  0  0  0  2  0  0  0  0  0  0
  -30.2060  -13.6730   19.9670 N   0  0  0  0  0  0  0  0  0  0  0  0
  -31.9820  -15.0120   19.5050 O   0  0  0  0  0  0  0  0  0  0  0  0
  -30.1420  -15.9410   20.3830 N   0  0  0  0  0  0  0  0  0  0  0  0
  -29.2580  -15.7640   20.8310 H   0  0  0  0  0  0  0  0  0  0  0  0
  -25.4260  -14.0800   20.2600 C   0  0  0  0  0  0  0  0  0  0  0  0
  -24.3800  -13.2880   20.6590 C   0  0  0  0  0  0  0  0  0  0  0  0
  -24.8640  -11.9460   20.6260 C   0  0  0  0  0  0  0  0  0  0  0  0
  -26.4800  -13.2150   20.0090 N   0  0  0  0  0  0  0  0  0  0  0  0
  -26.1470  -11.9270   20.2860 N   0  0  0  0  0  0  0  0  0  0  0  0
  -24.1640  -10.6740   20.8420 C   0  0  0  0  0  0  0  0  0  0  0  0
  -24.5840   -9.7570   21.8320 C   0  0  0  0  0  3  0  0  0  0  0  0
  -23.8830   -8.5490   22.0330 C   0  0  0  0  0  3  0  0  0  0  0  0
  -22.7480   -8.2480   21.2440 C   0  0  0  0  0  0  0  0  0  0  0  0
  -22.3480   -9.1520   20.2440 C   0  0  0  0  0  3  0  0  0  0  0  0
  -23.0510  -10.3530   20.0420 C   0  0  0  0  0  3  0  0  0  0  0  0
  -22.0200   -7.0870   21.3510 O   0  0  0  0  0  0  0  0  0  0  0  0
  -21.8830   -6.4310   22.5490 C   0  0  0  0  0  0  0  0  0  0  0  0
  -21.3180   -7.0580   23.6800 C   0  0  0  0  0  3  0  0  0  0  0  0
  -21.1320   -6.3280   24.8720 C   0  0  0  0  0  3  0  0  0  0  0  0
  -21.5010   -4.9700   24.9310 C   0  0  0  0  0  0  0  0  0  0  0  0
  -22.0570   -4.3410   23.8030 C   0  0  0  0  0  3  0  0  0  0  0  0
  -22.2460   -5.0700   22.6140 C   0  0  0  0  0  0  0  0  0  0  0  0
  -22.7630   -4.4550   21.5240 F   0  0  0  0  0  0  0  0  0  0  0  0
  -21.3180   -4.2640   26.0710 F   0  0  0  0  0  0  0  0  0  0  0  0
  -22.9840  -13.7460   20.9660 C   0  0  0  0  0  0  0  0  0  0  0  0
  -22.2950  -13.0510   21.8660 N   0  0  0  0  0  0  0  0  0  0  0  0
  -22.5100  -14.7550   20.4450 O   0  0  0  0  0  0  0  0  0  0  0  0
  -22.6900  -12.2360   22.3080 H   0  0  0  0  0  0  0  0  0  0  0  0
  -21.3610  -13.3440   22.1160 H   0  0  0  0  0  0  0  0  0  0  0  0
  -25.5610  -15.4490   20.0720 N   0  0  0  0  0  0  0  0  0  0  0  0
  -24.7870  -16.0910   20.2120 H   0  0  0  0  0  0  0  0  0  0  0  0
  -26.4010  -15.9050   19.7390 H   0  0  0  0  0  0  0  0  0  0  0  0
  1  3  2  0
  1 11  1  0
  2  1  1  0
  3  4  1  0
  5  2  2  0
  5  6  1  0
  6  3  1  0
 10  9  1  6
 10  2  1  0
 10  8  1  0
 10  7  1  0
 12 13  1  0
 12 11  1  0
 14 25  2  0
 15 13  1  0
 15 20  1  0
 16 24  1  0
 16 26  1  0
 17 23  1  0
 17 19  1  0
 18 24  1  0
 19 20  2  0
 19 18  1  0
 21 15  2  0
 22 21  1  0
 22 17  2  0
 23 16  1  0
 24 14  1  0
 26 28  2  0
 27 26  1  0
 29 27  1  0
 30 39  2  0
 30 35  1  0
 31 27  1  0
 31 35  1  0
 32 31  1  0
 33 34  1  0
 33 32  1  0
 34 30  1  0
 35 36  2  0
 36 37  1  0
 38 37  2  0
 39 38  1  0
 40 14  1  0
 40 41  1  0
 40 50  1  0
 41 44  1  0
 42 46  1  0
 42 41  1  0
 43 42  2  0
 46 45  1  0
 48 46  1  0
 48 49  1  0
 48 47  1  0
 50 53  1  1
 50 51  1  0
 52 50  1  0
 54  6  1  0
 54 57  1  0
 57 55  1  1
 57 56  1  0
 58 67  1  0
 58 57  1  0
 59 67  1  0
 60 65  1  0
 61 62  1  0
 61 60  1  0
 63 62  1  0
 63 72  1  0
 63 64  1  0
 65 59  1  0
 65 64  1  0
 66 59  2  0
 67 68  1  0
 69 70  2  0
 70 89  1  0
 71 70  1  0
 71 74  1  0
 72 69  1  0
 72 73  1  0
 73 71  2  0
 74 75  1  0
 75 76  2  0
 77 80  1  0
 77 76  1  0
 78 77  2  0
 79 78  1  0
 79 74  2  0
 80 81  1  0
 81 86  2  0
 81 82  1  0
 82 83  2  0
 83 84  1  0
 84 88  1  0
 85 84  2  0
 86 85  1  0
 87 86  1  0
 89 90  1  0
 90 93  1  0
 90 92  1  0
 91 89  2  0
 94 95  1  0
 94 69  1  0
 96 94  1  0
M  ISO  4  12 101  13 101  59 100  67 100
M  END
>  <TORSDO>  (90) 
F 22

>  <SCORE>  (90) 
-11.690

>  <name>  (90) 
89

>  <ligand_id>  (90) 
89

>  <original_smiles>  (90) 
[H]c1c([H])c([H])c2c(c1[H])C([H])([H])C([H])([H])C([H])([H])C2([H])N([H])C(=O)C1([H])N(C(=O)C([H])(N([H])C(=O)C([H])(N([H])C([H])([H])[H])C([H])([H])[H])C(C([H])([H])[H])(C([H])([H])[H])C([H])([H])[H])C([H])([H])c2c([H])c(OC([H])([H])C([H])([H])c3c(C(C([H])([H])[H])(C([H])([H])[H])C([H])([H])[H])nn(C([H])([H])C(C([H])([H])[H])(C([H])([H])[H])C([H])([H])N([H])C(=O)N4C([H])([H])C([H])([H])C([H])([H])C([H])(n5nc(-c6c([H])c([H])c(Oc7c([H])c([H])c(F)c([H])c7F)c([H])c6[H])c(C(=O)N([H])[H])c5N([H])[H])C4([H])[H])c3C([H])([H])[H])c([H])c([H])c2C1([H])[H]

>  <smiles>  (90) 
[H]c1c([H])c([H])c2c(c1[H])C([H])([H])C([H])([H])C([H])([H])C2([H])N([H])C(=O)C1([H])N(C(=O)C([H])(N([H])C(=O)C([H])(N([H])C([H])([H])[H])C([H])([H])[H])C(C([H])([H])[H])(C([H])([H])[H])C([H])([H])[H])C([H])([H])c2c([H])c(OC([H])([H])C([H])([H])c3c(C(C([H])([H])[H])(C([H])([H])[H])C([H])([H])[H])nn(C([H])([H])C(C([H])([H])[H])(C([H])([H])[H])C([H])([H])N([H])C(=O)N4C([H])([H])C([H])([H])C([H])([H])C([H])(n5nc(-c6c([H])c([H])c(Oc7c([H])c([H])c(F)c([H])c7F)c([H])c6[H])c(C(=O)N([H])[H])c5N([H])[H])C4([H])[H])c3C([H])([H])[H])c([H])c([H])c2C1([H])[H]

$$$$
90:0:0
     RDKit          3D

 95103  0  0  1  0  0  0  0  0999 V2000
  -29.8970  -17.5340   18.8700 C   0  0  0  0  0  3  0  0  0  0  0  0
  -30.1080  -17.5650   20.2520 C   0  0  0  0  0  0  0  0  0  0  0  0
  -29.7630  -18.7460   18.1740 C   0  0  0  0  0  0  0  0  0  0  0  0
  -30.0050  -19.9430   20.1330 C   0  0  0  0  0  0  0  0  0  0  0  0
  -30.1180  -18.8060   20.8640 N   0  0  0  0  0  0  0  0  0  0  0  0
  -29.8880  -19.9340   18.8090 N   0  0  0  0  0  0  0  0  0  0  0  0
  -28.5550  -17.6630   16.2180 C   0  0  0  0  0  1  0  0  0  0  0  0
  -30.9380  -18.4030   15.9960 C   0  0  0  0  0  1  0  0  0  0  0  0
  -29.5820  -18.7460   16.6430 C   0  0  2  0  0  0  0  0  0  0  0  0
  -27.7480  -20.6300   16.6180 C   0  0  0  0  0  1  0  0  0  0  0  0
  -29.1020  -20.1240   16.0900 C   0  0  0  0  0  2  0  0  0  0  0  0
  -31.2410  -16.4880   22.2400 C   0  0  0  0  0  1  0  0  0  0  0  0
  -28.8440  -16.0840   21.8310 C   0  0  0  0  0  1  0  0  0  0  0  0
  -30.2030  -16.2330   21.1180 C   0  0  1  0  0  0  0  0  0  0  0  0
  -30.7450  -14.9060   20.3380 C   0  0  0  0  0  0  0  0  0  0  0  0
  -30.5640  -12.7040   19.1420 C   0  0  0  0  0  2  0  0  0  0  0  0
  -29.6160  -12.8270   17.9280 C   0  0  0  0  0  2  0  0  0  0  0  0
  -28.1470  -12.6090   18.3450 C   0  0  0  0  0  2  0  0  0  0  0  0
  -27.7660  -13.4180   19.6130 C   0  0  0  0  0  3  0  0  0  0  0  0
  -28.8310  -13.2010   20.7080 C   0  0  0  0  0  2  0  0  0  0  0  0
  -30.1160  -13.6810   20.1760 N   0  0  0  0  0  0  0  0  0  0  0  0
  -31.8550  -15.0330   19.8040 O   0  0  0  0  0  0  0  0  0  0  0  0
  -25.3420  -13.9350   20.2890 C   0  0  0  0  0  0  0  0  0  0  0  0
  -24.3000  -13.1270   20.6650 C   0  0  0  0  0  0  0  0  0  0  0  0
  -24.8110  -11.7940   20.6590 C   0  0  0  0  0  0  0  0  0  0  0  0
  -26.4220  -13.0910   20.0810 N   0  0  0  0  0  0  0  0  0  0  0  0
  -26.1060  -11.8000   20.3590 N   0  0  0  0  0  0  0  0  0  0  0  0
  -24.1270  -10.5100   20.8610 C   0  0  0  0  0  0  0  0  0  0  0  0
  -24.5370   -9.6120   21.8700 C   0  0  0  0  0  3  0  0  0  0  0  0
  -23.8510   -8.3930   22.0660 C   0  0  0  0  0  3  0  0  0  0  0  0
  -22.7480   -8.0610   21.2470 C   0  0  0  0  0  0  0  0  0  0  0  0
  -22.3600   -8.9470   20.2260 C   0  0  0  0  0  3  0  0  0  0  0  0
  -23.0440  -10.1580   20.0300 C   0  0  0  0  0  3  0  0  0  0  0  0
  -22.0420   -6.8880   21.3450 O   0  0  0  0  0  0  0  0  0  0  0  0
  -21.8830   -6.2390   22.5430 C   0  0  0  0  0  0  0  0  0  0  0  0
  -21.2470   -6.8520   23.6440 C   0  0  0  0  0  3  0  0  0  0  0  0
  -21.0400   -6.1250   24.8320 C   0  0  0  0  0  3  0  0  0  0  0  0
  -21.4620   -4.7860   24.9220 C   0  0  0  0  0  0  0  0  0  0  0  0
  -22.0930   -4.1710   23.8270 C   0  0  0  0  0  3  0  0  0  0  0  0
  -22.3010   -4.8950   22.6400 C   0  0  0  0  0  0  0  0  0  0  0  0
  -22.8910   -4.2930   21.5790 F   0  0  0  0  0  0  0  0  0  0  0  0
  -21.2560   -4.0840   26.0610 F   0  0  0  0  0  0  0  0  0  0  0  0
  -22.8850  -13.5580   20.9200 C   0  0  0  0  0  0  0  0  0  0  0  0
  -22.1770  -12.8520   21.7990 N   0  0  0  0  0  0  0  0  0  0  0  0
  -22.4090  -14.5540   20.3780 O   0  0  0  0  0  0  0  0  0  0  0  0
  -22.5640  -12.0430   22.2600 H   0  0  0  0  0  0  0  0  0  0  0  0
  -21.2290  -13.1290   22.0110 H   0  0  0  0  0  0  0  0  0  0  0  0
  -25.4540  -15.3060   20.0870 N   0  0  0  0  0  0  0  0  0  0  0  0
  -24.6670  -15.9370   20.1810 H   0  0  0  0  0  0  0  0  0  0  0  0
  -26.2870  -15.7730   19.7520 H   0  0  0  0  0  0  0  0  0  0  0  0
  -30.0550  -21.3500   20.8490 C   0  0  0  0  0  3  0  0  0  0  0  0
  -29.6780  -22.7010   20.0660 C   0  0  0  0  0  3  0  0  0  0  0  0
  -29.6300  -24.1080   20.8490 C   0  0  0  0  0  3  0  0  0  0  0  0
  -29.0390  -25.3750   20.0640 C   0  0  0  0  0  3  0  0  0  0  0  0
  -28.9700  -26.7380   20.6810 O   0  0  0  0  0  0  0  0  0  0  0  0
  -24.9570  -32.0910   23.4360 C   0  0  0  0  0  0  0  0  0  0  0  0
  -27.8320  -27.5640   20.5330 C   0  0  0  0  0  0  0  0  0  0  0  0
  -23.8640  -30.6340   21.7700 C   0  0  0  0  0  3  0  0  0  0  0  0
  -25.4200  -29.1210   20.4120 C   0  0  0  0  0  0  0  0  0  0  0  0
  -26.4020  -31.0190   21.6900 C   0  0  0  0  0  2  0  0  0  0  0  0
  -26.5490  -29.6390   21.0590 C   0  0  0  0  0  0  0  0  0  0  0  0
  -27.7510  -28.8680   21.1200 C   0  0  0  0  0  3  0  0  0  0  0  0
  -26.6850  -27.1220   19.8280 C   0  0  0  0  0  3  0  0  0  0  0  0
  -25.4940  -27.8680   19.7900 C   0  0  0  0  0  3  0  0  0  0  0  0
  -24.1550  -29.9570   20.4070 C   0  0  0  0  0  2  0  0  0  0  0  0
  -25.0900  -31.2670   22.3560 N   0  0  0  0  0  0  0  0  0  0  0  0
  -23.8450  -32.3420   23.9220 O   0  0  0  0  0  0  0  0  0  0  0  0
  -23.1970  -29.6050   22.7120 C   0  0  0  0  0  0  0  0  0  0  0  0
  -21.8970  -29.3440   22.4970 N   0  0  0  0  0  0  0  0  0  0  0  0
  -23.8490  -29.0470   23.5990 O   0  0  0  0  0  0  0  0  0  0  0  0
  -21.4350  -29.8420   21.7500 H   0  0  0  0  0  0  0  0  0  0  0  0
  -18.5580  -27.9820   22.8090 C   0  0  0  0  0  0  0  0  0  0  0  0
  -21.0770  -28.3840   23.2360 C   0  0  0  0  0  3  0  0  0  0  0  0
  -21.2940  -26.9490   22.7030 C   0  0  0  0  0  2  0  0  0  0  0  0
  -20.2780  -26.5440   21.6310 C   0  0  0  0  0  2  0  0  0  0  0  0
  -18.8520  -26.6280   22.1830 C   0  0  0  0  0  2  0  0  0  0  0  0
  -19.6070  -28.8120   23.2900 C   0  0  0  0  0  0  0  0  0  0  0  0
  -19.2880  -30.0730   23.8360 C   0  0  0  0  0  3  0  0  0  0  0  0
  -17.9520  -30.5100   23.9100 C   0  0  0  0  0  3  0  0  0  0  0  0
  -16.9150  -29.6770   23.4510 C   0  0  0  0  0  3  0  0  0  0  0  0
  -17.2180  -28.4170   22.9060 C   0  0  0  0  0  3  0  0  0  0  0  0
  -26.1920  -32.7710   24.1020 C   0  0  0  0  0  3  0  0  0  0  0  0
  -25.8290  -34.1650   24.3910 N   0  0  0  0  0  0  0  0  0  0  0  0
  -26.1030  -35.2060   23.5940 C   0  0  0  0  0  0  0  0  0  0  0  0
  -26.7600  -35.0960   22.5540 O   0  0  0  0  0  0  0  0  0  0  0  0
  -25.2390  -34.3170   25.1970 H   0  0  0  0  0  0  0  0  0  0  0  0
  -24.2710  -36.8930   23.2450 C   0  0  0  0  0  1  0  0  0  0  0  0
  -25.5660  -36.5870   24.0150 C   0  0  0  0  0  3  0  0  0  0  0  0
  -27.6770  -37.6180   24.7290 C   0  0  0  0  0  1  0  0  0  0  0  0
  -26.5390  -37.6840   23.8150 N   0  0  0  0  0  0  0  0  0  0  0  0
  -26.0920  -38.5900   23.9290 H   0  0  0  0  0  0  0  0  0  0  0  0
  -26.6710  -32.0350   25.4130 C   0  0  1  0  0  0  0  0  0  0  0  0
  -25.5200  -31.7070   26.3930 C   0  0  0  0  0  1  0  0  0  0  0  0
  -27.3890  -30.7090   25.0680 C   0  0  0  0  0  1  0  0  0  0  0  0
  -27.7000  -32.9170   26.1570 C   0  0  0  0  0  1  0  0  0  0  0  0
  1  2  2  0
  2  5  1  0
  2 14  1  0
  3  6  2  0
  3  1  1  0
  4 51  1  0
  4  5  2  0
  6  4  1  0
  9  7  1  1
  8  9  1  0
  9  3  1  0
 11 10  1  0
 11  9  1  0
 14 13  1  1
 14 12  1  0
 15 14  1  0
 16 21  1  0
 17 18  1  0
 17 16  1  0
 19 18  1  0
 19 26  1  0
 19 20  1  0
 21 15  1  0
 21 20  1  0
 22 15  2  0
 23 24  2  0
 24 43  1  0
 25 24  1  0
 25 28  1  0
 26 23  1  0
 26 27  1  0
 27 25  2  0
 28 29  1  0
 29 30  2  0
 31 34  1  0
 31 30  1  0
 32 31  2  0
 33 32  1  0
 33 28  2  0
 34 35  1  0
 35 40  2  0
 35 36  1  0
 36 37  2  0
 37 38  1  0
 38 42  1  0
 39 38  2  0
 40 39  1  0
 41 40  1  0
 43 44  1  0
 44 47  1  0
 44 46  1  0
 45 43  2  0
 48 49  1  0
 48 23  1  0
 50 48  1  0
 52 53  1  0
 52 51  2  0
 54 55  1  0
 54 53  2  0
 56 67  2  0
 57 55  1  0
 57 62  1  0
 58 66  1  0
 58 68  1  0
 59 61  1  0
 60 66  1  0
 61 62  2  0
 61 60  1  0
 63 57  2  0
 64 63  1  0
 64 59  2  0
 65 59  1  0
 65 58  1  0
 66 56  1  0
 68 70  2  0
 69 68  1  0
 71 69  1  0
 72 81  2  0
 72 77  1  0
 73 69  1  0
 73 77  1  0
 74 73  1  0
 75 76  1  0
 75 74  1  0
 76 72  1  0
 77 78  2  0
 78 79  1  0
 80 79  2  0
 81 80  1  0
 82 56  1  0
 82 83  1  0
 82 92  1  0
 83 86  1  0
 84 88  1  0
 84 83  1  0
 85 84  2  0
 88 87  1  0
 90 91  1  0
 90 88  1  0
 90 89  1  0
 92 95  1  1
 92 93  1  0
 94 92  1  0
M  ISO  4  14 100  15 100  54 101  55 101
M  END
>  <TORSDO>  (91) 
F 23

>  <SCORE>  (91) 
-9.520

>  <name>  (91) 
90

>  <ligand_id>  (91) 
90

>  <original_smiles>  (91) 
[H]c1c(C(C(=O)N2C([H])([H])C([H])([H])C([H])([H])C([H])(n3nc(-c4c([H])c([H])c(Oc5c([H])c([H])c(F)c([H])c5F)c([H])c4[H])c(C(=O)N([H])[H])c3N([H])[H])C2([H])[H])(C([H])([H])[H])C([H])([H])[H])nc(C([H])([H])C([H])([H])C([H])([H])C([H])([H])Oc2c([H])c([H])c3c(c2[H])C([H])([H])N(C(=O)C([H])(N([H])C(=O)C([H])(N([H])C([H])([H])[H])C([H])([H])[H])C(C([H])([H])[H])(C([H])([H])[H])C([H])([H])[H])C([H])(C(=O)N([H])C2([H])c4c([H])c([H])c([H])c([H])c4C([H])([H])C([H])([H])C2([H])[H])C3([H])[H])nc1C(C([H])([H])[H])(C([H])([H])[H])C([H])([H])C([H])([H])[H]

>  <smiles>  (91) 
[H]c1c(C(C(=O)N2C([H])([H])C([H])([H])C([H])([H])C([H])(n3nc(-c4c([H])c([H])c(Oc5c([H])c([H])c(F)c([H])c5F)c([H])c4[H])c(C(=O)N([H])[H])c3N([H])[H])C2([H])[H])(C([H])([H])[H])C([H])([H])[H])nc(C([H])([H])C([H])([H])C([H])([H])C([H])([H])Oc2c([H])c([H])c3c(c2[H])C([H])([H])N(C(=O)C([H])(N([H])C(=O)C([H])(N([H])C([H])([H])[H])C([H])([H])[H])C(C([H])([H])[H])(C([H])([H])[H])C([H])([H])[H])C([H])(C(=O)N([H])C2([H])c4c([H])c([H])c([H])c([H])c4C([H])([H])C([H])([H])C2([H])[H])C3([H])[H])nc1C(C([H])([H])[H])(C([H])([H])[H])C([H])([H])C([H])([H])[H]

$$$$
91:0:0
     RDKit          3D

 94102  0  0  1  0  0  0  0  0999 V2000
  -29.1270  -20.6310   20.6030 C   0  0  0  0  0  3  0  0  0  0  0  0
  -30.2650  -19.9360   21.1570 C   0  0  0  0  0  3  0  0  0  0  0  0
  -28.2490  -19.6710   19.9940 C   0  0  0  0  0  0  0  0  0  0  0  0
  -29.7880  -17.8260   20.1750 C   0  0  0  0  0  0  0  0  0  0  0  0
  -30.6220  -18.6410   20.8370 N   0  0  0  0  0  0  0  0  0  0  0  0
  -28.6080  -18.3630   19.7800 N   0  0  0  0  0  0  0  0  0  0  0  0
  -29.1340  -16.1070   18.4290 C   0  0  0  0  0  1  0  0  0  0  0  0
  -31.4210  -16.9790   18.5200 C   0  0  0  0  0  1  0  0  0  0  0  0
  -30.2430  -16.4440   19.4210 C   0  0  1  0  0  0  0  0  0  0  0  0
  -30.7310  -14.9640   20.0330 C   0  0  0  0  0  0  0  0  0  0  0  0
  -30.4860  -12.6430   19.0830 C   0  0  0  0  0  2  0  0  0  0  0  0
  -29.4720  -12.5280   17.9150 C   0  0  0  0  0  2  0  0  0  0  0  0
  -28.0360  -12.3620   18.4520 C   0  0  0  0  0  2  0  0  0  0  0  0
  -27.6870  -13.2970   19.6490 C   0  0  0  0  0  3  0  0  0  0  0  0
  -28.8310  -13.3330   20.6870 C   0  0  0  0  0  2  0  0  0  0  0  0
  -30.0530  -13.7430   19.9810 N   0  0  0  0  0  0  0  0  0  0  0  0
  -31.9620  -14.8500   20.0700 O   0  0  0  0  0  0  0  0  0  0  0  0
  -25.3450  -13.8550   20.5450 C   0  0  0  0  0  0  0  0  0  0  0  0
  -24.2990  -13.0790   20.9310 C   0  0  0  0  0  0  0  0  0  0  0  0
  -24.7550  -11.7250   20.8300 C   0  0  0  0  0  0  0  0  0  0  0  0
  -26.3800  -12.9880   20.2320 N   0  0  0  0  0  0  0  0  0  0  0  0
  -26.0320  -11.6970   20.4720 N   0  0  0  0  0  0  0  0  0  0  0  0
  -24.0390  -10.4540   21.0100 C   0  0  0  0  0  0  0  0  0  0  0  0
  -24.4630   -9.4680   21.9290 C   0  0  0  0  0  3  0  0  0  0  0  0
  -23.7430   -8.2660   22.0850 C   0  0  0  0  0  3  0  0  0  0  0  0
  -22.5800   -8.0260   21.3190 C   0  0  0  0  0  0  0  0  0  0  0  0
  -22.1680   -8.9990   20.3900 C   0  0  0  0  0  3  0  0  0  0  0  0
  -22.8940  -10.1940   20.2350 C   0  0  0  0  0  3  0  0  0  0  0  0
  -21.8420   -6.8690   21.3930 O   0  0  0  0  0  0  0  0  0  0  0  0
  -21.7330   -6.1620   22.5650 C   0  0  0  0  0  0  0  0  0  0  0  0
  -21.2260   -6.7420   23.7490 C   0  0  0  0  0  3  0  0  0  0  0  0
  -21.0900   -5.9630   24.9160 C   0  0  0  0  0  3  0  0  0  0  0  0
  -21.4340   -4.5980   24.8920 C   0  0  0  0  0  0  0  0  0  0  0  0
  -21.9320   -4.0110   23.7140 C   0  0  0  0  0  3  0  0  0  0  0  0
  -22.0820   -4.7940   22.5520 C   0  0  0  0  0  0  0  0  0  0  0  0
  -22.5470   -4.2220   21.4150 F   0  0  0  0  0  0  0  0  0  0  0  0
  -21.2820   -3.8460   26.0040 F   0  0  0  0  0  0  0  0  0  0  0  0
  -22.9180  -13.5520   21.2820 C   0  0  0  0  0  0  0  0  0  0  0  0
  -22.2100  -12.8460   22.1540 N   0  0  0  0  0  0  0  0  0  0  0  0
  -22.4590  -14.5850   20.7900 O   0  0  0  0  0  0  0  0  0  0  0  0
  -22.5730  -12.0210   22.6040 H   0  0  0  0  0  0  0  0  0  0  0  0
  -21.2820  -13.1650   22.4090 H   0  0  0  0  0  0  0  0  0  0  0  0
  -25.4960  -15.2320   20.3980 N   0  0  0  0  0  0  0  0  0  0  0  0
  -24.7140  -15.8580   20.5490 H   0  0  0  0  0  0  0  0  0  0  0  0
  -26.3420  -15.6730   20.0770 H   0  0  0  0  0  0  0  0  0  0  0  0
  -30.1070  -19.8270   23.6830 C   0  0  0  0  0  1  0  0  0  0  0  0
  -30.9320  -20.3620   22.4890 C   0  0  0  0  0  2  0  0  0  0  0  0
  -28.6680  -22.1590   20.9390 C   0  0  0  0  0  3  0  0  0  0  0  0
  -28.9510  -23.5130   20.0170 C   0  0  0  0  0  3  0  0  0  0  0  0
  -28.0390  -24.8690   20.2350 C   0  0  0  0  0  2  0  0  0  0  0  0
  -28.3360  -26.3340   19.8500 O   0  0  0  0  0  0  0  0  0  0  0  0
  -24.5040  -31.6780   23.0580 C   0  0  0  0  0  0  0  0  0  0  0  0
  -27.2540  -27.2700   19.7920 C   0  0  0  0  0  0  0  0  0  0  0  0
  -23.5140  -30.0440   21.5090 C   0  0  0  0  0  3  0  0  0  0  0  0
  -24.8800  -28.9020   19.7770 C   0  0  0  0  0  0  0  0  0  0  0  0
  -25.8900  -30.7660   21.1270 C   0  0  0  0  0  2  0  0  0  0  0  0
  -26.0480  -29.4050   20.3840 C   0  0  0  0  0  0  0  0  0  0  0  0
  -27.2320  -28.5890   20.3860 C   0  0  0  0  0  3  0  0  0  0  0  0
  -26.0740  -26.8850   19.1220 C   0  0  0  0  0  3  0  0  0  0  0  0
  -24.9070  -27.6580   19.1390 C   0  0  0  0  0  3  0  0  0  0  0  0
  -23.5610  -29.6230   20.0250 C   0  0  0  0  0  2  0  0  0  0  0  0
  -24.6150  -30.9510   21.9040 N   0  0  0  0  0  0  0  0  0  0  0  0
  -23.4180  -31.8450   23.6250 O   0  0  0  0  0  0  0  0  0  0  0  0
  -22.6830  -29.1840   22.4890 C   0  0  0  0  0  0  0  0  0  0  0  0
  -21.3980  -28.9400   22.2260 N   0  0  0  0  0  0  0  0  0  0  0  0
  -23.2400  -28.6260   23.4490 O   0  0  0  0  0  0  0  0  0  0  0  0
  -20.9590  -29.3920   21.4380 H   0  0  0  0  0  0  0  0  0  0  0  0
  -18.1260  -27.4550   22.6540 C   0  0  0  0  0  0  0  0  0  0  0  0
  -20.6310  -27.9300   22.9580 C   0  0  0  0  0  3  0  0  0  0  0  0
  -20.8820  -26.5200   22.3810 C   0  0  0  0  0  2  0  0  0  0  0  0
  -19.8310  -26.1050   21.3510 C   0  0  0  0  0  2  0  0  0  0  0  0
  -18.4330  -26.1310   21.9780 C   0  0  0  0  0  2  0  0  0  0  0  0
  -19.1660  -28.3100   23.1000 C   0  0  0  0  0  0  0  0  0  0  0  0
  -18.8430  -29.5420   23.7030 C   0  0  0  0  0  3  0  0  0  0  0  0
  -17.5020  -29.9310   23.8630 C   0  0  0  0  0  3  0  0  0  0  0  0
  -16.4700  -29.0760   23.4360 C   0  0  0  0  0  3  0  0  0  0  0  0
  -16.7840  -27.8420   22.8390 C   0  0  0  0  0  3  0  0  0  0  0  0
  -25.7460  -32.3680   23.6950 C   0  0  0  0  0  3  0  0  0  0  0  0
  -25.3610  -33.7390   24.0700 N   0  0  0  0  0  0  0  0  0  0  0  0
  -25.6770  -34.8270   23.3580 C   0  0  0  0  0  0  0  0  0  0  0  0
  -26.3790  -34.7860   22.3430 O   0  0  0  0  0  0  0  0  0  0  0  0
  -24.7350  -33.8440   24.8560 H   0  0  0  0  0  0  0  0  0  0  0  0
  -23.8900  -36.5680   23.0240 C   0  0  0  0  0  1  0  0  0  0  0  0
  -25.1240  -36.1760   23.8540 C   0  0  0  0  0  3  0  0  0  0  0  0
  -27.2060  -37.1070   24.7720 C   0  0  0  0  0  1  0  0  0  0  0  0
  -26.1170  -37.2710   23.8080 N   0  0  0  0  0  0  0  0  0  0  0  0
  -25.6790  -38.1700   23.9760 H   0  0  0  0  0  0  0  0  0  0  0  0
  -26.3040  -31.5830   24.9460 C   0  0  1  0  0  0  0  0  0  0  0  0
  -25.2300  -31.2780   26.0160 C   0  0  0  0  0  1  0  0  0  0  0  0
  -26.9300  -30.2380   24.5040 C   0  0  0  0  0  1  0  0  0  0  0  0
  -27.4270  -32.4050   25.6200 C   0  0  0  0  0  1  0  0  0  0  0  0
  -26.7470  -19.9210   19.8640 C   0  0  0  0  0  2  0  0  0  0  0  0
  -24.8610  -21.2180   18.8130 C   0  0  0  0  0  1  0  0  0  0  0  0
  -26.2220  -20.5280   18.5530 C   0  0  0  0  0  2  0  0  0  0  0  0
  1 48  1  0
  1  2  1  0
  2 47  1  0
  3  1  1  0
  4  5  2  0
  5  2  1  0
  6  3  2  0
  6  4  1  0
  9  7  1  6
  8  9  1  0
  9 10  1  0
  9  4  1  0
 10 17  2  0
 11 16  1  0
 12 13  1  0
 12 11  1  0
 14 13  1  0
 14 21  1  0
 14 15  1  0
 16 10  1  0
 16 15  1  0
 18 19  2  0
 19 38  1  0
 20 19  1  0
 20 23  1  0
 21 22  1  0
 21 18  1  0
 22 20  2  0
 23 24  1  0
 24 25  2  0
 26 29  1  0
 26 25  1  0
 27 26  2  0
 28 27  1  0
 28 23  2  0
 29 30  1  0
 30 31  1  0
 31 32  2  0
 33 32  1  0
 33 37  1  0
 34 33  2  0
 35 30  2  0
 35 34  1  0
 36 35  1  0
 38 39  1  0
 39 42  1  0
 39 41  1  0
 40 38  2  0
 43 18  1  0
 43 44  1  0
 45 43  1  0
 47 46  1  0
 49 50  1  0
 49 48  2  0
 51 50  1  0
 52 63  2  0
 53 51  1  0
 53 58  1  0
 54 62  1  0
 54 64  1  0
 55 61  1  0
 55 57  1  0
 56 62  1  0
 57 58  2  0
 57 56  1  0
 59 60  1  0
 59 53  2  0
 60 55  2  0
 61 54  1  0
 62 52  1  0
 64 66  2  0
 65 64  1  0
 67 65  1  0
 68 77  2  0
 68 73  1  0
 69 65  1  0
 69 73  1  0
 70 69  1  0
 71 72  1  0
 71 70  1  0
 72 68  1  0
 73 74  2  0
 74 75  1  0
 76 75  2  0
 77 76  1  0
 78 52  1  0
 78 79  1  0
 78 88  1  0
 79 82  1  0
 80 84  1  0
 80 79  1  0
 81 80  2  0
 84 83  1  0
 86 84  1  0
 86 87  1  0
 86 85  1  0
 88 91  1  1
 88 89  1  0
 90 88  1  0
 92  3  1  0
 94 93  1  0
 94 92  1  0
M  ISO  4   9 100  10 100  50 101  51 101
M  END
>  <TORSDO>  (92) 
F 23

>  <SCORE>  (92) 
-10.494

>  <name>  (92) 
91

>  <ligand_id>  (92) 
91

>  <original_smiles>  (92) 
[H]c1c([H])c([H])c2c(c1[H])C([H])([H])C([H])([H])C([H])([H])C2([H])N([H])C(=O)C1([H])N(C(=O)C([H])(N([H])C(=O)C([H])(N([H])C([H])([H])[H])C([H])([H])[H])C(C([H])([H])[H])(C([H])([H])[H])C([H])([H])[H])C([H])([H])c2c([H])c(OC([H])([H])C([H])([H])C([H])([H])c3c(C([H])([H])C([H])([H])[H])nc(C(C(=O)N4C([H])([H])C([H])([H])C([H])([H])C([H])(n5nc(-c6c([H])c([H])c(Oc7c([H])c([H])c(F)c([H])c7F)c([H])c6[H])c(C(=O)N([H])[H])c5N([H])[H])C4([H])[H])(C([H])([H])[H])C([H])([H])[H])nc3C([H])([H])C([H])([H])C([H])([H])[H])c([H])c([H])c2C1([H])[H]

>  <smiles>  (92) 
[H]c1c([H])c([H])c2c(c1[H])C([H])([H])C([H])([H])C([H])([H])C2([H])N([H])C(=O)C1([H])N(C(=O)C([H])(N([H])C(=O)C([H])(N([H])C([H])([H])[H])C([H])([H])[H])C(C([H])([H])[H])(C([H])([H])[H])C([H])([H])[H])C([H])([H])c2c([H])c(OC([H])([H])C([H])([H])C([H])([H])c3c(C([H])([H])C([H])([H])[H])nc(C(C(=O)N4C([H])([H])C([H])([H])C([H])([H])C([H])(n5nc(-c6c([H])c([H])c(Oc7c([H])c([H])c(F)c([H])c7F)c([H])c6[H])c(C(=O)N([H])[H])c5N([H])[H])C4([H])[H])(C([H])([H])[H])C([H])([H])[H])nc3C([H])([H])C([H])([H])C([H])([H])[H])c([H])c([H])c2C1([H])[H]

$$$$
92:0:0
     RDKit          3D

 88 96  0  0  1  0  0  0  0  0999 V2000
  -28.7190  -20.9760   18.2270 C   0  0  0  0  0  1  0  0  0  0  0  0
  -27.5090  -20.8690   20.3860 C   0  0  0  0  0  1  0  0  0  0  0  0
  -28.9050  -21.0370   19.7540 C   0  0  1  0  0  0  0  0  0  0  0  0
  -30.0090  -18.1720   19.4020 C   0  0  0  0  0  3  0  0  0  0  0  0
  -30.0100  -18.9800   21.3790 C   0  0  0  0  0  3  0  0  0  0  0  0
  -29.6880  -19.4840   20.1300 C   0  0  0  0  0  0  0  0  0  0  0  0
  -30.4080  -16.9810   20.1510 C   0  0  0  0  0  0  0  0  0  0  0  0
  -30.7630  -16.9540   22.6680 C   0  0  0  0  0  1  0  0  0  0  0  0
  -30.4030  -17.6010   21.4160 N   0  0  0  0  0  0  0  0  0  0  0  0
  -30.9960  -15.3930   19.8620 C   0  0  0  0  0  0  0  0  0  0  0  0
  -30.8100  -12.9580   18.9870 C   0  0  0  0  0  2  0  0  0  0  0  0
  -29.8330  -12.8440   17.7900 C   0  0  0  0  0  2  0  0  0  0  0  0
  -28.3960  -12.6190   18.2900 C   0  0  0  0  0  2  0  0  0  0  0  0
  -28.0440  -13.5670   19.4640 C   0  0  0  0  0  3  0  0  0  0  0  0
  -29.1460  -13.6550   20.5390 C   0  0  0  0  0  2  0  0  0  0  0  0
  -30.3760  -14.1070   19.8710 N   0  0  0  0  0  0  0  0  0  0  0  0
  -32.1680  -15.3130   19.4600 O   0  0  0  0  0  0  0  0  0  0  0  0
  -25.7760  -14.1880   20.4410 C   0  0  0  0  0  0  0  0  0  0  0  0
  -24.6960  -13.4430   20.8250 C   0  0  0  0  0  0  0  0  0  0  0  0
  -25.0740  -12.0770   20.6500 C   0  0  0  0  0  0  0  0  0  0  0  0
  -26.7380  -13.2810   20.0410 N   0  0  0  0  0  0  0  0  0  0  0  0
  -26.3350  -11.9970   20.2360 N   0  0  0  0  0  0  0  0  0  0  0  0
  -24.2830  -10.8460   20.7900 C   0  0  0  0  0  0  0  0  0  0  0  0
  -24.6710   -9.8130   21.6700 C   0  0  0  0  0  3  0  0  0  0  0  0
  -23.8790   -8.6510   21.8020 C   0  0  0  0  0  3  0  0  0  0  0  0
  -22.6860   -8.5160   21.0540 C   0  0  0  0  0  0  0  0  0  0  0  0
  -22.3160   -9.5390   20.1630 C   0  0  0  0  0  3  0  0  0  0  0  0
  -23.1080  -10.6920   20.0270 C   0  0  0  0  0  3  0  0  0  0  0  0
  -21.8670   -7.4130   21.1010 O   0  0  0  0  0  0  0  0  0  0  0  0
  -21.7240   -6.6700   22.2450 C   0  0  0  0  0  0  0  0  0  0  0  0
  -21.2820   -7.2450   23.4560 C   0  0  0  0  0  3  0  0  0  0  0  0
  -21.0810   -6.4330   24.5890 C   0  0  0  0  0  3  0  0  0  0  0  0
  -21.3090   -5.0450   24.5130 C   0  0  0  0  0  0  0  0  0  0  0  0
  -21.7430   -4.4700   23.3060 C   0  0  0  0  0  3  0  0  0  0  0  0
  -21.9450   -5.2780   22.1730 C   0  0  0  0  0  0  0  0  0  0  0  0
  -22.3420   -4.7160   21.0080 F   0  0  0  0  0  0  0  0  0  0  0  0
  -21.1100   -4.2630   25.5980 F   0  0  0  0  0  0  0  0  0  0  0  0
  -23.3560  -13.9770   21.2390 C   0  0  0  0  0  0  0  0  0  0  0  0
  -22.6580  -13.2650   22.1160 N   0  0  0  0  0  0  0  0  0  0  0  0
  -22.9420  -15.0570   20.8210 O   0  0  0  0  0  0  0  0  0  0  0  0
  -23.0110  -12.3900   22.4750 H   0  0  0  0  0  0  0  0  0  0  0  0
  -21.7590  -13.6000   22.4320 H   0  0  0  0  0  0  0  0  0  0  0  0
  -26.0150  -15.5570   20.3750 N   0  0  0  0  0  0  0  0  0  0  0  0
  -25.3090  -16.2410   20.6260 H   0  0  0  0  0  0  0  0  0  0  0  0
  -26.8790  -15.9820   20.0600 H   0  0  0  0  0  0  0  0  0  0  0  0
  -29.2420  -22.7780   20.1090 C   0  0  0  0  0  3  0  0  0  0  0  0
  -28.2690  -24.2850   19.8370 C   0  0  0  0  0  3  0  0  0  0  0  0
  -28.4540  -25.9090   20.0910 O   0  0  0  0  0  0  0  0  0  0  0  0
  -24.6560  -31.6880   23.1210 C   0  0  0  0  0  0  0  0  0  0  0  0
  -27.4150  -26.9770   20.0260 C   0  0  0  0  0  0  0  0  0  0  0  0
  -23.5340  -30.2880   21.4390 C   0  0  0  0  0  3  0  0  0  0  0  0
  -25.0520  -28.7690   20.0020 C   0  0  0  0  0  0  0  0  0  0  0  0
  -26.0920  -30.5960   21.3270 C   0  0  0  0  0  2  0  0  0  0  0  0
  -26.2170  -29.2050   20.6420 C   0  0  0  0  0  0  0  0  0  0  0  0
  -27.3930  -28.3290   20.6320 C   0  0  0  0  0  3  0  0  0  0  0  0
  -26.2170  -26.6960   19.3350 C   0  0  0  0  0  3  0  0  0  0  0  0
  -25.0750  -27.5350   19.3330 C   0  0  0  0  0  3  0  0  0  0  0  0
  -23.8020  -29.6440   20.0520 C   0  0  0  0  0  2  0  0  0  0  0  0
  -24.7810  -30.8870   22.0150 N   0  0  0  0  0  0  0  0  0  0  0  0
  -23.5500  -31.9230   23.6380 O   0  0  0  0  0  0  0  0  0  0  0  0
  -22.8700  -29.2470   22.3760 C   0  0  0  0  0  0  0  0  0  0  0  0
  -21.5460  -29.0460   22.2370 N   0  0  0  0  0  0  0  0  0  0  0  0
  -23.5510  -28.6200   23.1900 O   0  0  0  0  0  0  0  0  0  0  0  0
  -21.0520  -29.6070   21.5580 H   0  0  0  0  0  0  0  0  0  0  0  0
  -18.2070  -27.6850   22.6850 C   0  0  0  0  0  0  0  0  0  0  0  0
  -20.7520  -28.0510   22.9670 C   0  0  0  0  0  3  0  0  0  0  0  0
  -20.9210  -26.6470   22.3430 C   0  0  0  0  0  2  0  0  0  0  0  0
  -19.8280  -26.2940   21.3310 C   0  0  0  0  0  2  0  0  0  0  0  0
  -18.4430  -26.3610   21.9780 C   0  0  0  0  0  2  0  0  0  0  0  0
  -19.2910  -28.4860   23.1370 C   0  0  0  0  0  0  0  0  0  0  0  0
  -19.0150  -29.7190   23.7670 C   0  0  0  0  0  3  0  0  0  0  0  0
  -17.6890  -30.1590   23.9380 C   0  0  0  0  0  3  0  0  0  0  0  0
  -16.6220  -29.3590   23.4960 C   0  0  0  0  0  3  0  0  0  0  0  0
  -16.8800  -28.1220   22.8790 C   0  0  0  0  0  3  0  0  0  0  0  0
  -25.8950  -32.3650   23.7790 C   0  0  0  0  0  3  0  0  0  0  0  0
  -26.4180  -31.5910   25.0520 C   0  0  1  0  0  0  0  0  0  0  0  0
  -25.3170  -31.2970   26.0980 C   0  0  0  0  0  1  0  0  0  0  0  0
  -27.0550  -30.2420   24.6530 C   0  0  0  0  0  1  0  0  0  0  0  0
  -27.5330  -32.4120   25.7430 C   0  0  0  0  0  1  0  0  0  0  0  0
  -25.5180  -33.7420   24.1470 N   0  0  0  0  0  0  0  0  0  0  0  0
  -25.7970  -34.8330   23.4230 C   0  0  0  0  0  0  0  0  0  0  0  0
  -26.4600  -34.7910   22.3850 O   0  0  0  0  0  0  0  0  0  0  0  0
  -24.9240  -33.8390   24.9560 H   0  0  0  0  0  0  0  0  0  0  0  0
  -23.9830  -36.5590   23.1530 C   0  0  0  0  0  1  0  0  0  0  0  0
  -25.2580  -36.1890   23.9290 C   0  0  0  0  0  3  0  0  0  0  0  0
  -27.3660  -37.1530   24.7440 C   0  0  0  0  0  1  0  0  0  0  0  0
  -26.2390  -37.2930   23.8220 N   0  0  0  0  0  0  0  0  0  0  0  0
  -25.7950  -38.1890   24.0010 H   0  0  0  0  0  0  0  0  0  0  0  0
  3  1  1  6
  3 46  1  0
  3  6  1  0
  3  2  1  0
  4  6  1  0
  4  7  2  0
  5  9  1  0
  6  5  2  0
  7  9  1  0
  9  8  1  0
 10 16  1  0
 10  7  1  0
 11 16  1  0
 12 13  1  0
 12 11  1  0
 14 13  1  0
 14 21  1  0
 14 15  1  0
 16 15  1  0
 17 10  2  0
 18 19  2  0
 19 38  1  0
 20 23  1  0
 20 19  1  0
 21 22  1  0
 21 18  1  0
 22 20  2  0
 23 24  1  0
 24 25  2  0
 26 29  1  0
 26 25  1  0
 27 26  2  0
 28 27  1  0
 28 23  2  0
 29 30  1  0
 30 31  1  0
 31 32  2  0
 33 32  1  0
 33 37  1  0
 34 33  2  0
 35 30  2  0
 35 34  1  0
 36 35  1  0
 38 39  1  0
 39 42  1  0
 39 41  1  0
 40 38  2  0
 43 18  1  0
 43 44  1  0
 45 43  1  0
 47 48  1  0
 47 46  2  0
 49 60  2  0
 50 48  1  0
 50 55  1  0
 51 59  1  0
 51 61  1  0
 52 58  1  0
 52 54  1  0
 53 59  1  0
 54 53  1  0
 55 54  2  0
 56 50  2  0
 57 56  1  0
 57 52  2  0
 58 51  1  0
 59 49  1  0
 61 63  2  0
 62 61  1  0
 64 62  1  0
 65 74  2  0
 65 70  1  0
 66 62  1  0
 66 70  1  0
 67 66  1  0
 68 69  1  0
 68 67  1  0
 69 65  1  0
 70 71  2  0
 71 72  1  0
 73 72  2  0
 74 73  1  0
 75 49  1  0
 75 80  1  0
 75 76  1  0
 76 79  1  1
 76 77  1  0
 78 76  1  0
 80 83  1  0
 81 85  1  0
 81 80  1  0
 82 81  2  0
 85 84  1  0
 87 85  1  0
 87 88  1  0
 87 86  1  0
M  ISO  4   7 100  10 100  47 101  48 101
M  END
>  <TORSDO>  (93) 
F 19

>  <SCORE>  (93) 
-15.118

>  <name>  (93) 
92

>  <ligand_id>  (93) 
92

>  <original_smiles>  (93) 
[H]c1c([H])c([H])c2c(c1[H])C([H])([H])C([H])([H])C([H])([H])C2([H])N([H])C(=O)C1([H])N(C(=O)C([H])(N([H])C(=O)C([H])(N([H])C([H])([H])[H])C([H])([H])[H])C(C([H])([H])[H])(C([H])([H])[H])C([H])([H])[H])C([H])([H])c2c([H])c(OC([H])([H])C([H])([H])C(c3c([H])c(C(=O)N4C([H])([H])C([H])([H])C([H])([H])C([H])(n5nc(-c6c([H])c([H])c(Oc7c([H])c([H])c(F)c([H])c7F)c([H])c6[H])c(C(=O)N([H])[H])c5N([H])[H])C4([H])[H])n(C([H])([H])[H])c3[H])(C([H])([H])[H])C([H])([H])[H])c([H])c([H])c2C1([H])[H]

>  <smiles>  (93) 
[H]c1c([H])c([H])c2c(c1[H])C([H])([H])C([H])([H])C([H])([H])C2([H])N([H])C(=O)C1([H])N(C(=O)C([H])(N([H])C(=O)C([H])(N([H])C([H])([H])[H])C([H])([H])[H])C(C([H])([H])[H])(C([H])([H])[H])C([H])([H])[H])C([H])([H])c2c([H])c(OC([H])([H])C([H])([H])C(c3c([H])c(C(=O)N4C([H])([H])C([H])([H])C([H])([H])C([H])(n5nc(-c6c([H])c([H])c(Oc7c([H])c([H])c(F)c([H])c7F)c([H])c6[H])c(C(=O)N([H])[H])c5N([H])[H])C4([H])[H])n(C([H])([H])[H])c3[H])(C([H])([H])[H])C([H])([H])[H])c([H])c([H])c2C1([H])[H]

$$$$
93:0:0
     RDKit          3D

 90 98  0  0  1  0  0  0  0  0999 V2000
  -29.1250  -19.8540   19.8780 C   0  0  0  0  0  0  0  0  0  0  0  0
  -28.7310  -21.2250   19.9750 C   0  0  0  0  0  0  0  0  0  0  0  0
  -27.3470  -20.1050   18.6530 C   0  0  0  0  0  0  0  0  0  0  0  0
  -26.1970  -19.8010   17.7400 C   0  0  0  0  0  1  0  0  0  0  0  0
  -26.6360  -22.4300   19.1670 C   0  0  0  0  0  1  0  0  0  0  0  0
  -28.2630  -19.2150   18.9920 N   0  0  0  0  0  0  0  0  0  0  0  0
  -27.5290  -21.2920   19.2520 N   0  0  0  0  0  0  0  0  0  0  0  0
  -30.2780  -18.9490   20.3930 C   0  0  0  0  0  2  0  0  0  0  0  0
  -29.9620  -17.5580   21.1500 C   0  0  0  0  0  2  0  0  0  0  0  0
  -29.5280  -16.1950   20.4050 C   0  0  0  0  0  2  0  0  0  0  0  0
  -30.4560  -14.8790   20.3440 C   0  0  0  0  0  0  0  0  0  0  0  0
  -30.3730  -12.5970   19.3480 C   0  0  0  0  0  2  0  0  0  0  0  0
  -29.4110  -12.6280   18.1370 C   0  0  0  0  0  2  0  0  0  0  0  0
  -27.9410  -12.4370   18.5630 C   0  0  0  0  0  2  0  0  0  0  0  0
  -27.5600  -13.2930   19.8000 C   0  0  0  0  0  3  0  0  0  0  0  0
  -28.6320  -13.2110   20.9030 C   0  0  0  0  0  2  0  0  0  0  0  0
  -29.9160  -13.6130   20.3180 N   0  0  0  0  0  0  0  0  0  0  0  0
  -31.6500  -15.0290   20.0670 O   0  0  0  0  0  0  0  0  0  0  0  0
  -25.1450  -13.8110   20.5110 C   0  0  0  0  0  0  0  0  0  0  0  0
  -24.1100  -13.0060   20.8980 C   0  0  0  0  0  0  0  0  0  0  0  0
  -24.6240  -11.6720   20.9000 C   0  0  0  0  0  0  0  0  0  0  0  0
  -26.2270  -12.9680   20.3040 N   0  0  0  0  0  0  0  0  0  0  0  0
  -25.9190  -11.6790   20.6000 N   0  0  0  0  0  0  0  0  0  0  0  0
  -23.9470  -10.3850   21.1190 C   0  0  0  0  0  0  0  0  0  0  0  0
  -24.3900   -9.4680   22.0990 C   0  0  0  0  0  3  0  0  0  0  0  0
  -23.7070   -8.2490   22.3010 C   0  0  0  0  0  3  0  0  0  0  0  0
  -22.5660   -7.9350   21.5250 C   0  0  0  0  0  0  0  0  0  0  0  0
  -22.1450   -8.8380   20.5320 C   0  0  0  0  0  3  0  0  0  0  0  0
  -22.8290  -10.0500   20.3270 C   0  0  0  0  0  3  0  0  0  0  0  0
  -21.8610   -6.7600   21.6300 O   0  0  0  0  0  0  0  0  0  0  0  0
  -21.7920   -6.0670   22.8120 C   0  0  0  0  0  0  0  0  0  0  0  0
  -21.2460   -6.6410   23.9810 C   0  0  0  0  0  3  0  0  0  0  0  0
  -21.1260   -5.8670   25.1530 C   0  0  0  0  0  3  0  0  0  0  0  0
  -21.5430   -4.5240   25.1570 C   0  0  0  0  0  0  0  0  0  0  0  0
  -22.0860   -3.9530   23.9920 C   0  0  0  0  0  3  0  0  0  0  0  0
  -22.2040   -4.7210   22.8220 C   0  0  0  0  0  0  0  0  0  0  0  0
  -22.7010   -4.1570   21.6950 F   0  0  0  0  0  0  0  0  0  0  0  0
  -21.4280   -3.7790   26.2820 F   0  0  0  0  0  0  0  0  0  0  0  0
  -22.6930  -13.4330   21.1560 C   0  0  0  0  0  0  0  0  0  0  0  0
  -21.9870  -12.7380   22.0390 N   0  0  0  0  0  0  0  0  0  0  0  0
  -22.2150  -14.4250   20.6040 O   0  0  0  0  0  0  0  0  0  0  0  0
  -22.3800  -11.9400   22.5150 H   0  0  0  0  0  0  0  0  0  0  0  0
  -21.0330  -13.0090   22.2340 H   0  0  0  0  0  0  0  0  0  0  0  0
  -25.2590  -15.1820   20.2940 N   0  0  0  0  0  0  0  0  0  0  0  0
  -24.4480  -15.7880   20.2620 H   0  0  0  0  0  0  0  0  0  0  0  0
  -26.1190  -15.6700   20.0720 H   0  0  0  0  0  0  0  0  0  0  0  0
  -29.2230  -22.4950   20.7470 C   0  0  0  0  0  2  0  0  0  0  0  0
  -29.2200  -23.9860   20.1140 C   0  0  0  0  0  3  0  0  0  0  0  0
  -28.2580  -25.1360   20.6900 C   0  0  0  0  0  3  0  0  0  0  0  0
  -28.4690  -26.5640   20.3140 O   0  0  0  0  0  0  0  0  0  0  0  0
  -24.6500  -31.9290   23.3260 C   0  0  0  0  0  0  0  0  0  0  0  0
  -27.3520  -27.4150   20.2830 C   0  0  0  0  0  0  0  0  0  0  0  0
  -23.4870  -30.5370   21.6490 C   0  0  0  0  0  3  0  0  0  0  0  0
  -24.9760  -29.0060   20.2430 C   0  0  0  0  0  0  0  0  0  0  0  0
  -26.0270  -30.8740   21.5190 C   0  0  0  0  0  2  0  0  0  0  0  0
  -26.1300  -29.4980   20.8690 C   0  0  0  0  0  0  0  0  0  0  0  0
  -27.3210  -28.7110   20.8830 C   0  0  0  0  0  3  0  0  0  0  0  0
  -26.1850  -26.9860   19.6130 C   0  0  0  0  0  3  0  0  0  0  0  0
  -25.0050  -27.7540   19.6090 C   0  0  0  0  0  3  0  0  0  0  0  0
  -23.7300  -29.8720   20.2690 C   0  0  0  0  0  2  0  0  0  0  0  0
  -24.7400  -31.1300   22.2220 N   0  0  0  0  0  0  0  0  0  0  0  0
  -23.5560  -32.1940   23.8450 O   0  0  0  0  0  0  0  0  0  0  0  0
  -22.8150  -29.5070   22.5890 C   0  0  0  0  0  0  0  0  0  0  0  0
  -21.4930  -29.3250   22.4410 N   0  0  0  0  0  0  0  0  0  0  0  0
  -23.4830  -28.8730   23.4090 O   0  0  0  0  0  0  0  0  0  0  0  0
  -21.0100  -29.8890   21.7550 H   0  0  0  0  0  0  0  0  0  0  0  0
  -18.1060  -28.1410   22.9200 C   0  0  0  0  0  0  0  0  0  0  0  0
  -20.6670  -28.3750   23.1930 C   0  0  0  0  0  3  0  0  0  0  0  0
  -20.7570  -26.9560   22.5860 C   0  0  0  0  0  2  0  0  0  0  0  0
  -19.6530  -26.6630   21.5660 C   0  0  0  0  0  2  0  0  0  0  0  0
  -18.2720  -26.8060   22.2150 C   0  0  0  0  0  2  0  0  0  0  0  0
  -19.2310  -28.8850   23.3660 C   0  0  0  0  0  0  0  0  0  0  0  0
  -19.0250  -30.1340   23.9890 C   0  0  0  0  0  3  0  0  0  0  0  0
  -17.7240  -30.6420   24.1690 C   0  0  0  0  0  3  0  0  0  0  0  0
  -16.6140  -29.8980   23.7370 C   0  0  0  0  0  3  0  0  0  0  0  0
  -16.8050  -28.6490   23.1210 C   0  0  0  0  0  3  0  0  0  0  0  0
  -25.9170  -32.5660   23.9770 C   0  0  0  0  0  3  0  0  0  0  0  0
  -25.6100  -33.9770   24.2540 N   0  0  0  0  0  0  0  0  0  0  0  0
  -25.9770  -35.0040   23.4750 C   0  0  0  0  0  0  0  0  0  0  0  0
  -26.6790  -34.8640   22.4690 O   0  0  0  0  0  0  0  0  0  0  0  0
  -24.9950  -34.1600   25.0330 H   0  0  0  0  0  0  0  0  0  0  0  0
  -24.2820  -36.8040   23.0080 C   0  0  0  0  0  1  0  0  0  0  0  0
  -25.4890  -36.4100   23.8750 C   0  0  0  0  0  3  0  0  0  0  0  0
  -27.5960  -37.3040   24.7640 C   0  0  0  0  0  1  0  0  0  0  0  0
  -26.5370  -37.4480   23.7680 N   0  0  0  0  0  0  0  0  0  0  0  0
  -26.1350  -38.3770   23.8660 H   0  0  0  0  0  0  0  0  0  0  0  0
  -26.3760  -31.8310   25.2950 C   0  0  1  0  0  0  0  0  0  0  0  0
  -25.2390  -31.6350   26.3250 C   0  0  0  0  0  1  0  0  0  0  0  0
  -26.9680  -30.4400   24.9710 C   0  0  0  0  0  1  0  0  0  0  0  0
  -27.5020  -32.6400   25.9810 C   0  0  0  0  0  1  0  0  0  0  0  0
  1  2  2  0
  1  8  1  0
  2 47  1  0
  3  6  2  0
  3  7  1  0
  4  3  1  0
  5  7  1  0
  6  1  1  0
  7  2  1  0
  8  9  1  0
 10  9  1  0
 11 10  1  0
 12 17  1  0
 13 14  1  0
 13 12  1  0
 15 14  1  0
 15 22  1  0
 15 16  1  0
 17 11  1  0
 17 16  1  0
 18 11  2  0
 19 20  2  0
 20 21  1  0
 20 39  1  0
 21 24  1  0
 22 19  1  0
 22 23  1  0
 23 21  2  0
 24 25  1  0
 25 26  2  0
 27 30  1  0
 27 26  1  0
 28 27  2  0
 29 28  1  0
 29 24  2  0
 30 31  1  0
 31 36  2  0
 31 32  1  0
 32 33  2  0
 33 34  1  0
 34 38  1  0
 35 34  2  0
 36 35  1  0
 37 36  1  0
 39 40  1  0
 40 43  1  0
 40 42  1  0
 41 39  2  0
 44 19  1  0
 45 44  1  0
 46 44  1  0
 48 49  2  0
 48 47  1  0
 50 49  1  0
 51 62  2  0
 52 50  1  0
 52 57  1  0
 53 61  1  0
 53 63  1  0
 54 60  1  0
 54 56  1  0
 55 61  1  0
 56 57  2  0
 56 55  1  0
 58 52  2  0
 59 58  1  0
 59 54  2  0
 60 53  1  0
 61 51  1  0
 63 65  2  0
 64 63  1  0
 66 64  1  0
 67 76  2  0
 67 72  1  0
 68 64  1  0
 68 72  1  0
 69 68  1  0
 70 71  1  0
 70 69  1  0
 71 67  1  0
 72 73  2  0
 73 74  1  0
 75 74  2  0
 76 75  1  0
 77 51  1  0
 77 78  1  0
 77 87  1  0
 78 81  1  0
 79 83  1  0
 79 78  1  0
 80 79  2  0
 83 82  1  0
 85 86  1  0
 85 83  1  0
 85 84  1  0
 87 90  1  1
 87 88  1  0
 89 87  1  0
M  ISO  4  10 100  11 100  49 101  50 101
M  END
>  <TORSDO>  (94) 
F 22

>  <SCORE>  (94) 
-12.903

>  <name>  (94) 
93

>  <ligand_id>  (94) 
93

>  <original_smiles>  (94) 
[H]c1c([H])c([H])c2c(c1[H])C([H])([H])C([H])([H])C([H])([H])C2([H])N([H])C(=O)C1([H])N(C(=O)C([H])(N([H])C(=O)C([H])(N([H])C([H])([H])[H])C([H])([H])[H])C(C([H])([H])[H])(C([H])([H])[H])C([H])([H])[H])C([H])([H])c2c([H])c(OC([H])([H])C([H])([H])C([H])([H])c3c(C([H])([H])C([H])([H])C([H])([H])C(=O)N4C([H])([H])C([H])([H])C([H])([H])C([H])(n5nc(-c6c([H])c([H])c(Oc7c([H])c([H])c(F)c([H])c7F)c([H])c6[H])c(C(=O)N([H])[H])c5N([H])[H])C4([H])[H])nc(C([H])([H])[H])n3C([H])([H])[H])c([H])c([H])c2C1([H])[H]

>  <smiles>  (94) 
[H]c1c([H])c([H])c2c(c1[H])C([H])([H])C([H])([H])C([H])([H])C2([H])N([H])C(=O)C1([H])N(C(=O)C([H])(N([H])C(=O)C([H])(N([H])C([H])([H])[H])C([H])([H])[H])C(C([H])([H])[H])(C([H])([H])[H])C([H])([H])[H])C([H])([H])c2c([H])c(OC([H])([H])C([H])([H])C([H])([H])c3c(C([H])([H])C([H])([H])C([H])([H])C(=O)N4C([H])([H])C([H])([H])C([H])([H])C([H])(n5nc(-c6c([H])c([H])c(Oc7c([H])c([H])c(F)c([H])c7F)c([H])c6[H])c(C(=O)N([H])[H])c5N([H])[H])C4([H])[H])nc(C([H])([H])[H])n3C([H])([H])[H])c([H])c([H])c2C1([H])[H]

$$$$
94:0:0
     RDKit          3D

 91 99  0  0  1  0  0  0  0  0999 V2000
  -29.8680  -23.6430   19.0070 C   0  0  0  0  0  3  0  0  0  0  0  0
  -30.6100  -21.6230   18.9490 C   0  0  0  0  0  0  0  0  0  0  0  0
  -29.4890  -21.5090   19.7920 C   0  0  0  0  0  0  0  0  0  0  0  0
  -30.7800  -22.8990   18.4400 N   0  0  0  0  0  0  0  0  0  0  0  0
  -29.0150  -23.0500   19.8430 N   0  0  0  0  0  0  0  0  0  0  0  0
  -31.2120  -20.1810   16.9750 C   0  0  0  0  0  1  0  0  0  0  0  0
  -31.6060  -20.6170   18.3960 C   0  0  0  0  0  3  0  0  0  0  0  0
  -33.6120  -21.3390   19.8550 C   0  0  0  0  0  1  0  0  0  0  0  0
  -33.0700  -21.1220   18.4360 C   0  0  0  0  0  2  0  0  0  0  0  0
  -29.1130  -19.8690   20.3310 C   0  0  0  0  0  3  0  0  0  0  0  0
  -29.9630  -18.2600   20.0580 C   0  0  0  0  0  3  0  0  0  0  0  0
  -30.3910  -15.3300   20.2250 C   0  0  0  0  0  0  0  0  0  0  0  0
  -30.3550  -12.8760   19.3600 C   0  0  0  0  0  2  0  0  0  0  0  0
  -29.4350  -12.6650   18.1310 C   0  0  0  0  0  2  0  0  0  0  0  0
  -27.9890  -12.3880   18.5750 C   0  0  0  0  0  2  0  0  0  0  0  0
  -27.5390  -13.3470   19.7080 C   0  0  0  0  0  3  0  0  0  0  0  0
  -28.5930  -13.5080   20.8260 C   0  0  0  0  0  2  0  0  0  0  0  0
  -29.8170  -14.0210   20.1860 N   0  0  0  0  0  0  0  0  0  0  0  0
  -31.6070  -15.3080   19.9830 O   0  0  0  0  0  0  0  0  0  0  0  0
  -29.6540  -16.6250   20.3280 N   0  0  0  0  0  0  0  0  0  0  0  0
  -28.6760  -16.4570   20.5250 H   0  0  0  0  0  0  0  0  0  0  0  0
  -25.1670  -13.8910   20.4670 C   0  0  0  0  0  0  0  0  0  0  0  0
  -24.1090  -13.1110   20.8400 C   0  0  0  0  0  0  0  0  0  0  0  0
  -24.5830  -11.7630   20.8120 C   0  0  0  0  0  0  0  0  0  0  0  0
  -26.2150  -13.0220   20.2230 N   0  0  0  0  0  0  0  0  0  0  0  0
  -25.8750  -11.7350   20.4990 N   0  0  0  0  0  0  0  0  0  0  0  0
  -23.8600  -10.4980   21.0040 C   0  0  0  0  0  0  0  0  0  0  0  0
  -24.2900   -9.5360   21.9450 C   0  0  0  0  0  3  0  0  0  0  0  0
  -23.5640   -8.3380   22.1270 C   0  0  0  0  0  3  0  0  0  0  0  0
  -22.3950   -8.0940   21.3690 C   0  0  0  0  0  0  0  0  0  0  0  0
  -21.9820   -9.0450   20.4190 C   0  0  0  0  0  3  0  0  0  0  0  0
  -22.7090  -10.2340   20.2350 C   0  0  0  0  0  3  0  0  0  0  0  0
  -21.6400   -6.9490   21.4600 O   0  0  0  0  0  0  0  0  0  0  0  0
  -21.5850   -6.2130   22.6160 C   0  0  0  0  0  0  0  0  0  0  0  0
  -21.1420   -6.7710   23.8350 C   0  0  0  0  0  3  0  0  0  0  0  0
  -21.0360   -5.9620   24.9830 C   0  0  0  0  0  3  0  0  0  0  0  0
  -21.3630   -4.5950   24.9140 C   0  0  0  0  0  0  0  0  0  0  0  0
  -21.7980   -4.0340   23.7000 C   0  0  0  0  0  3  0  0  0  0  0  0
  -21.9060   -4.8420   22.5540 C   0  0  0  0  0  0  0  0  0  0  0  0
  -22.3060   -4.2940   21.3820 F   0  0  0  0  0  0  0  0  0  0  0  0
  -21.2540   -3.8130   26.0150 F   0  0  0  0  0  0  0  0  0  0  0  0
  -22.7100  -13.5840   21.1040 C   0  0  0  0  0  0  0  0  0  0  0  0
  -21.9800  -12.8890   21.9700 N   0  0  0  0  0  0  0  0  0  0  0  0
  -22.2730  -14.6070   20.5780 O   0  0  0  0  0  0  0  0  0  0  0  0
  -22.3480  -12.0640   22.4210 H   0  0  0  0  0  0  0  0  0  0  0  0
  -21.0410  -13.1900   22.1870 H   0  0  0  0  0  0  0  0  0  0  0  0
  -25.3210  -15.2630   20.2840 N   0  0  0  0  0  0  0  0  0  0  0  0
  -24.5490  -15.9110   20.3920 H   0  0  0  0  0  0  0  0  0  0  0  0
  -26.1570  -15.6990   19.9170 H   0  0  0  0  0  0  0  0  0  0  0  0
  -27.9590  -24.2290   20.3720 C   0  0  0  0  0  2  0  0  0  0  0  0
  -28.2150  -25.8390   20.2070 O   0  0  0  0  0  0  0  0  0  0  0  0
  -24.6040  -31.8360   23.1630 C   0  0  0  0  0  0  0  0  0  0  0  0
  -27.1820  -26.9250   20.1920 C   0  0  0  0  0  0  0  0  0  0  0  0
  -23.4220  -30.4300   21.5250 C   0  0  0  0  0  3  0  0  0  0  0  0
  -24.8820  -28.8150   20.1240 C   0  0  0  0  0  0  0  0  0  0  0  0
  -25.9910  -30.6400   21.3920 C   0  0  0  0  0  2  0  0  0  0  0  0
  -26.0680  -29.2230   20.7470 C   0  0  0  0  0  0  0  0  0  0  0  0
  -27.2140  -28.3010   20.7500 C   0  0  0  0  0  3  0  0  0  0  0  0
  -25.9610  -26.6710   19.5280 C   0  0  0  0  0  3  0  0  0  0  0  0
  -24.8540  -27.5600   19.4940 C   0  0  0  0  0  3  0  0  0  0  0  0
  -23.6620  -29.7360   20.1560 C   0  0  0  0  0  2  0  0  0  0  0  0
  -24.6940  -30.9960   22.0790 N   0  0  0  0  0  0  0  0  0  0  0  0
  -23.5110  -32.1270   23.6740 O   0  0  0  0  0  0  0  0  0  0  0  0
  -22.7220  -29.4400   22.4930 C   0  0  0  0  0  0  0  0  0  0  0  0
  -21.3910  -29.2770   22.3650 N   0  0  0  0  0  0  0  0  0  0  0  0
  -23.3820  -28.8160   23.3270 O   0  0  0  0  0  0  0  0  0  0  0  0
  -20.9100  -29.8310   21.6710 H   0  0  0  0  0  0  0  0  0  0  0  0
  -18.0050  -28.0730   22.8700 C   0  0  0  0  0  0  0  0  0  0  0  0
  -20.5650  -28.3420   23.1360 C   0  0  0  0  0  3  0  0  0  0  0  0
  -20.6670  -26.9080   22.5670 C   0  0  0  0  0  2  0  0  0  0  0  0
  -19.5680  -26.5820   21.5510 C   0  0  0  0  0  2  0  0  0  0  0  0
  -18.1840  -26.7250   22.1930 C   0  0  0  0  0  2  0  0  0  0  0  0
  -19.1220  -28.8390   23.2990 C   0  0  0  0  0  0  0  0  0  0  0  0
  -18.8980  -30.0980   23.8970 C   0  0  0  0  0  3  0  0  0  0  0  0
  -17.5910  -30.5940   24.0650 C   0  0  0  0  0  3  0  0  0  0  0  0
  -16.4900  -29.8270   23.6500 C   0  0  0  0  0  3  0  0  0  0  0  0
  -16.6970  -28.5680   23.0600 C   0  0  0  0  0  3  0  0  0  0  0  0
  -25.8680  -32.4860   23.8030 C   0  0  0  0  0  3  0  0  0  0  0  0
  -25.5380  -33.8820   24.1420 N   0  0  0  0  0  0  0  0  0  0  0  0
  -25.8680  -34.9510   23.4050 C   0  0  0  0  0  0  0  0  0  0  0  0
  -26.5430  -34.8650   22.3750 O   0  0  0  0  0  0  0  0  0  0  0  0
  -24.9350  -34.0210   24.9390 H   0  0  0  0  0  0  0  0  0  0  0  0
  -24.1350  -36.7480   23.0750 C   0  0  0  0  0  1  0  0  0  0  0  0
  -25.3760  -36.3330   23.8820 C   0  0  0  0  0  3  0  0  0  0  0  0
  -27.5040  -37.2190   24.7290 C   0  0  0  0  0  1  0  0  0  0  0  0
  -26.4050  -37.3930   23.7840 N   0  0  0  0  0  0  0  0  0  0  0  0
  -25.9930  -38.3090   23.9410 H   0  0  0  0  0  0  0  0  0  0  0  0
  -26.3730  -31.7200   25.0880 C   0  0  1  0  0  0  0  0  0  0  0  0
  -25.2700  -31.4850   26.1470 C   0  0  0  0  0  1  0  0  0  0  0  0
  -26.9630  -30.3420   24.7150 C   0  0  0  0  0  1  0  0  0  0  0  0
  -27.5170  -32.5190   25.7580 C   0  0  0  0  0  1  0  0  0  0  0  0
  1  5  1  0
  2  3  2  0
  3  5  1  0
  3 10  1  0
  4  2  1  0
  4  1  2  0
  5 50  1  0
  7  6  1  0
  7  9  1  0
  7  2  1  0
  9  8  1  0
 11 20  1  0
 11 10  2  0
 12 20  1  0
 13 18  1  0
 14 15  1  0
 14 13  1  0
 16 15  1  0
 16 25  1  0
 16 17  1  0
 18 12  1  0
 18 17  1  0
 19 12  2  0
 20 21  1  0
 22 23  2  0
 23 42  1  0
 24 23  1  0
 24 27  1  0
 25 22  1  0
 25 26  1  0
 26 24  2  0
 27 28  1  0
 28 29  2  0
 30 33  1  0
 30 29  1  0
 31 30  2  0
 32 31  1  0
 32 27  2  0
 33 34  1  0
 34 35  1  0
 35 36  2  0
 37 36  1  0
 37 41  1  0
 38 37  2  0
 39 34  2  0
 39 38  1  0
 40 39  1  0
 42 43  1  0
 43 46  1  0
 43 45  1  0
 44 42  2  0
 47 48  1  0
 47 22  1  0
 49 47  1  0
 51 50  1  0
 52 63  2  0
 53 51  1  0
 53 58  1  0
 54 62  1  0
 54 64  1  0
 55 61  1  0
 55 57  1  0
 56 62  1  0
 57 58  2  0
 57 56  1  0
 59 53  2  0
 60 59  1  0
 60 55  2  0
 61 54  1  0
 62 52  1  0
 64 66  2  0
 65 64  1  0
 67 65  1  0
 68 77  2  0
 68 73  1  0
 69 65  1  0
 69 73  1  0
 70 69  1  0
 71 72  1  0
 71 70  1  0
 72 68  1  0
 73 74  2  0
 74 75  1  0
 76 75  2  0
 77 76  1  0
 78 52  1  0
 78 79  1  0
 78 88  1  0
 79 82  1  0
 80 84  1  0
 80 79  1  0
 81 80  2  0
 84 83  1  0
 86 84  1  0
 86 87  1  0
 86 85  1  0
 88 91  1  1
 88 89  1  0
 90 88  1  0
M  ISO  4  12 100  20 100  50 101  51 101
M  END
>  <TORSDO>  (95) 
F 21

>  <SCORE>  (95) 
-14.458

>  <name>  (95) 
94

>  <ligand_id>  (95) 
94

>  <original_smiles>  (95) 
[H]c1c([H])c([H])c2c(c1[H])C([H])([H])C([H])([H])C([H])([H])C2([H])N([H])C(=O)C1([H])N(C(=O)C([H])(N([H])C(=O)C([H])(N([H])C([H])([H])[H])C([H])([H])[H])C(C([H])([H])[H])(C([H])([H])[H])C([H])([H])[H])C([H])([H])c2c([H])c(OC([H])([H])n3c([H])nc(C([H])(C([H])([H])[H])C([H])([H])C([H])([H])[H])c3C([H])([H])C([H])([H])N([H])C(=O)N3C([H])([H])C([H])([H])C([H])([H])C([H])(n4nc(-c5c([H])c([H])c(Oc6c([H])c([H])c(F)c([H])c6F)c([H])c5[H])c(C(=O)N([H])[H])c4N([H])[H])C3([H])[H])c([H])c([H])c2C1([H])[H]

>  <smiles>  (95) 
[H]c1c([H])c([H])c2c(c1[H])C([H])([H])C([H])([H])C([H])([H])C2([H])N([H])C(=O)C1([H])N(C(=O)C([H])(N([H])C(=O)C([H])(N([H])C([H])([H])[H])C([H])([H])[H])C(C([H])([H])[H])(C([H])([H])[H])C([H])([H])[H])C([H])([H])c2c([H])c(OC([H])([H])n3c([H])nc(C([H])(C([H])([H])[H])C([H])([H])C([H])([H])[H])c3C([H])([H])C([H])([H])N([H])C(=O)N3C([H])([H])C([H])([H])C([H])([H])C([H])(n4nc(-c5c([H])c([H])c(Oc6c([H])c([H])c(F)c([H])c6F)c([H])c5[H])c(C(=O)N([H])[H])c4N([H])[H])C3([H])[H])c([H])c([H])c2C1([H])[H]

$$$$
95:0:0
     RDKit          3D

 95103  0  0  1  0  0  0  0  0999 V2000
  -28.7580  -21.0350   20.5470 C   0  0  0  0  0  0  0  0  0  0  0  0
  -28.8420  -19.6690   20.6270 C   0  0  0  0  0  0  0  0  0  0  0  0
  -28.1130  -18.6800   21.4830 C   0  0  0  0  0  1  0  0  0  0  0  0
  -29.5610  -21.4580   19.4930 N   0  0  0  0  0  0  0  0  0  0  0  0
  -30.1100  -20.4270   18.9360 N   0  0  0  0  0  0  0  0  0  0  0  0
  -29.6970  -19.3120   19.5920 N   0  0  0  0  0  0  0  0  0  0  0  0
  -28.9570  -17.8930   17.7970 C   0  0  0  0  0  1  0  0  0  0  0  0
  -29.9110  -17.9660   19.0150 C   0  0  0  0  0  3  0  0  0  0  0  0
  -32.3330  -18.1180   19.8360 C   0  0  0  0  0  1  0  0  0  0  0  0
  -31.9180  -18.1030   17.3810 C   0  0  0  0  0  1  0  0  0  0  0  0
  -31.4150  -17.5230   18.7420 C   0  0  2  0  0  0  0  0  0  0  0  0
  -31.6120  -15.9430   18.6530 C   0  0  1  0  0  0  0  0  0  0  0  0
  -30.6070  -15.4730   17.9350 F   0  0  0  0  0  0  0  0  0  0  0  0
  -32.6910  -15.7410   17.8880 F   0  0  0  0  0  0  0  0  0  0  0  0
  -31.8880  -15.0440   19.9200 C   0  0  0  0  0  0  0  0  0  0  0  0
  -31.4980  -12.7340   19.2960 C   0  0  0  0  0  2  0  0  0  0  0  0
  -30.5750  -12.7230   18.0620 C   0  0  0  0  0  2  0  0  0  0  0  0
  -29.0880  -12.7990   18.4760 C   0  0  0  0  0  2  0  0  0  0  0  0
  -28.7640  -13.8080   19.6180 C   0  0  0  0  0  3  0  0  0  0  0  0
  -29.8350  -13.7910   20.7300 C   0  0  0  0  0  2  0  0  0  0  0  0
  -31.1620  -13.9070   20.1060 N   0  0  0  0  0  0  0  0  0  0  0  0
  -33.0660  -15.0870   20.2610 O   0  0  0  0  0  0  0  0  0  0  0  0
  -26.4410  -14.5840   20.3940 C   0  0  0  0  0  0  0  0  0  0  0  0
  -25.3100  -13.8910   20.7330 C   0  0  0  0  0  0  0  0  0  0  0  0
  -25.6600  -12.5080   20.6560 C   0  0  0  0  0  0  0  0  0  0  0  0
  -27.4080  -13.6260   20.1260 N   0  0  0  0  0  0  0  0  0  0  0  0
  -26.9450  -12.3720   20.3550 N   0  0  0  0  0  0  0  0  0  0  0  0
  -24.8310  -11.3060   20.7970 C   0  0  0  0  0  0  0  0  0  0  0  0
  -25.1660  -10.2860   21.7140 C   0  0  0  0  0  3  0  0  0  0  0  0
  -24.3430   -9.1470   21.8470 C   0  0  0  0  0  3  0  0  0  0  0  0
  -23.1720   -9.0210   21.0630 C   0  0  0  0  0  0  0  0  0  0  0  0
  -22.8570  -10.0290   20.1340 C   0  0  0  0  0  3  0  0  0  0  0  0
  -23.6790  -11.1610   19.9980 C   0  0  0  0  0  3  0  0  0  0  0  0
  -22.3270   -7.9380   21.1070 O   0  0  0  0  0  0  0  0  0  0  0  0
  -22.1230   -7.2340   22.2670 C   0  0  0  0  0  0  0  0  0  0  0  0
  -21.6110   -7.8470   23.4300 C   0  0  0  0  0  3  0  0  0  0  0  0
  -21.3500   -7.0740   24.5780 C   0  0  0  0  0  3  0  0  0  0  0  0
  -21.5880   -5.6850   24.5630 C   0  0  0  0  0  0  0  0  0  0  0  0
  -22.0910   -5.0710   23.4020 C   0  0  0  0  0  3  0  0  0  0  0  0
  -22.3550   -5.8430   22.2570 C   0  0  0  0  0  0  0  0  0  0  0  0
  -22.8190   -5.2420   21.1350 F   0  0  0  0  0  0  0  0  0  0  0  0
  -21.3310   -4.9410   25.6630 F   0  0  0  0  0  0  0  0  0  0  0  0
  -23.9560  -14.4740   21.0180 C   0  0  0  0  0  0  0  0  0  0  0  0
  -23.1760  -13.8210   21.8720 N   0  0  0  0  0  0  0  0  0  0  0  0
  -23.6020  -15.5410   20.5220 O   0  0  0  0  0  0  0  0  0  0  0  0
  -23.4710  -12.9540   22.2970 H   0  0  0  0  0  0  0  0  0  0  0  0
  -22.2680  -14.1970   22.1070 H   0  0  0  0  0  0  0  0  0  0  0  0
  -26.7160  -15.9420   20.2720 N   0  0  0  0  0  0  0  0  0  0  0  0
  -26.0100  -16.6520   20.4220 H   0  0  0  0  0  0  0  0  0  0  0  0
  -27.6000  -16.3200   19.9580 H   0  0  0  0  0  0  0  0  0  0  0  0
  -27.8350  -21.9820   21.2730 C   0  0  0  0  0  2  0  0  0  0  0  0
  -28.4310  -23.3680   21.6200 C   0  0  0  0  0  2  0  0  0  0  0  0
  -28.1660  -24.4660   20.5630 C   0  0  0  0  0  2  0  0  0  0  0  0
  -28.6910  -25.8550   20.9850 C   0  0  0  0  0  2  0  0  0  0  0  0
  -28.5060  -26.8360   19.9630 O   0  0  0  0  0  0  0  0  0  0  0  0
  -24.6340  -31.8390   23.2390 C   0  0  0  0  0  0  0  0  0  0  0  0
  -27.3280  -27.5350   20.0370 C   0  0  0  0  0  0  0  0  0  0  0  0
  -23.4400  -30.4670   21.5600 C   0  0  0  0  0  3  0  0  0  0  0  0
  -24.9110  -28.9890   20.0920 C   0  0  0  0  0  0  0  0  0  0  0  0
  -25.9570  -30.8720   21.3660 C   0  0  0  0  0  2  0  0  0  0  0  0
  -26.0610  -29.5180   20.6950 C   0  0  0  0  0  0  0  0  0  0  0  0
  -27.2730  -28.7950   20.6700 C   0  0  0  0  0  3  0  0  0  0  0  0
  -26.1690  -27.0170   19.4250 C   0  0  0  0  0  3  0  0  0  0  0  0
  -24.9580  -27.7350   19.4580 C   0  0  0  0  0  3  0  0  0  0  0  0
  -23.6550  -29.8270   20.1620 C   0  0  0  0  0  2  0  0  0  0  0  0
  -24.6940  -31.0720   22.1140 N   0  0  0  0  0  0  0  0  0  0  0  0
  -23.5500  -32.0830   23.7900 O   0  0  0  0  0  0  0  0  0  0  0  0
  -22.8060  -29.4100   22.4930 C   0  0  0  0  0  0  0  0  0  0  0  0
  -21.4890  -29.1930   22.3440 N   0  0  0  0  0  0  0  0  0  0  0  0
  -23.4960  -28.7870   23.3050 O   0  0  0  0  0  0  0  0  0  0  0  0
  -20.9940  -29.7470   21.6590 H   0  0  0  0  0  0  0  0  0  0  0  0
  -18.1410  -27.9150   22.7830 C   0  0  0  0  0  0  0  0  0  0  0  0
  -20.6880  -28.2210   23.0870 C   0  0  0  0  0  3  0  0  0  0  0  0
  -20.8270  -26.8050   22.4810 C   0  0  0  0  0  2  0  0  0  0  0  0
  -19.7420  -26.4790   21.4510 C   0  0  0  0  0  2  0  0  0  0  0  0
  -18.3520  -26.5840   22.0820 C   0  0  0  0  0  2  0  0  0  0  0  0
  -19.2380  -28.6910   23.2400 C   0  0  0  0  0  0  0  0  0  0  0  0
  -18.9880  -29.9380   23.8500 C   0  0  0  0  0  3  0  0  0  0  0  0
  -17.6710  -30.4090   24.0130 C   0  0  0  0  0  3  0  0  0  0  0  0
  -16.5880  -29.6290   23.5730 C   0  0  0  0  0  3  0  0  0  0  0  0
  -16.8240  -28.3850   22.9610 C   0  0  0  0  0  3  0  0  0  0  0  0
  -25.9140  -32.4670   23.8730 C   0  0  0  0  0  3  0  0  0  0  0  0
  -25.6020  -33.8620   24.2090 N   0  0  0  0  0  0  0  0  0  0  0  0
  -25.9310  -34.9180   23.4520 C   0  0  0  0  0  0  0  0  0  0  0  0
  -26.6020  -34.8210   22.4210 O   0  0  0  0  0  0  0  0  0  0  0  0
  -25.0040  -34.0110   25.0090 H   0  0  0  0  0  0  0  0  0  0  0  0
  -24.1880  -36.6990   23.1130 C   0  0  0  0  0  1  0  0  0  0  0  0
  -25.4390  -36.3020   23.9140 C   0  0  0  0  0  3  0  0  0  0  0  0
  -27.5690  -37.2070   24.7340 C   0  0  0  0  0  1  0  0  0  0  0  0
  -26.4620  -37.3630   23.7930 N   0  0  0  0  0  0  0  0  0  0  0  0
  -26.0510  -38.2800   23.9380 H   0  0  0  0  0  0  0  0  0  0  0  0
  -26.4260  -31.6860   25.1460 C   0  0  1  0  0  0  0  0  0  0  0  0
  -25.3230  -31.4120   26.1930 C   0  0  0  0  0  1  0  0  0  0  0  0
  -27.0390  -30.3260   24.7390 C   0  0  0  0  0  1  0  0  0  0  0  0
  -27.5510  -32.4910   25.8370 C   0  0  0  0  0  1  0  0  0  0  0  0
  1  2  2  0
  1 51  1  0
  2  3  1  0
  4  1  1  0
  5  4  2  0
  5  6  1  0
  6  2  1  0
  8  7  1  0
  8  6  1  0
 11 10  1  6
 11  8  1  0
 11  9  1  0
 12 11  1  0
 12 15  1  0
 12 13  1  6
 14 12  1  0
 15 21  1  0
 15 22  2  0
 16 21  1  0
 17 18  1  0
 17 16  1  0
 19 18  1  0
 19 26  1  0
 19 20  1  0
 21 20  1  0
 23 24  2  0
 24 43  1  0
 25 24  1  0
 25 28  1  0
 26 27  1  0
 26 23  1  0
 27 25  2  0
 28 29  1  0
 29 30  2  0
 31 34  1  0
 31 30  1  0
 32 31  2  0
 33 32  1  0
 33 28  2  0
 34 35  1  0
 35 36  1  0
 36 37  2  0
 38 37  1  0
 38 42  1  0
 39 38  2  0
 40 35  2  0
 40 39  1  0
 41 40  1  0
 43 44  1  0
 44 47  1  0
 44 46  1  0
 45 43  2  0
 48 23  1  0
 48 49  1  0
 50 48  1  0
 51 52  1  0
 53 54  1  0
 53 52  1  0
 55 57  1  0
 55 54  1  0
 56 67  2  0
 57 62  1  0
 58 66  1  0
 58 68  1  0
 59 65  1  0
 59 61  1  0
 60 66  1  0
 61 60  1  0
 62 61  2  0
 63 64  1  0
 63 57  2  0
 64 59  2  0
 65 58  1  0
 66 56  1  0
 68 70  2  0
 69 68  1  0
 71 69  1  0
 72 81  2  0
 72 77  1  0
 73 69  1  0
 73 77  1  0
 74 73  1  0
 75 76  1  0
 75 74  1  0
 76 72  1  0
 77 78  2  0
 78 79  1  0
 80 79  2  0
 81 80  1  0
 82 56  1  0
 82 83  1  0
 82 92  1  0
 83 86  1  0
 84 88  1  0
 84 83  1  0
 85 84  2  0
 88 87  1  0
 90 88  1  0
 90 91  1  0
 90 89  1  0
 92 95  1  1
 92 93  1  0
 94 92  1  0
M  ISO  4  12 100  15 100  54 101  55 101
M  END
>  <TORSDO>  (96) 
F 23

>  <SCORE>  (96) 
-9.837

>  <name>  (96) 
95

>  <ligand_id>  (96) 
95

>  <original_smiles>  (96) 
[H]c1c([H])c([H])c2c(c1[H])C([H])([H])C([H])([H])C([H])([H])C2([H])N([H])C(=O)C1([H])N(C(=O)C([H])(N([H])C(=O)C([H])(N([H])C([H])([H])[H])C([H])([H])[H])C(C([H])([H])[H])(C([H])([H])[H])C([H])([H])[H])C([H])([H])c2c([H])c(OC([H])([H])C([H])([H])C([H])([H])C([H])([H])c3nnn(C([H])(C([H])([H])[H])C(C([H])([H])[H])(C([H])([H])[H])C(F)(F)C(=O)N4C([H])([H])C([H])([H])C([H])([H])C([H])(n5nc(-c6c([H])c([H])c(Oc7c([H])c([H])c(F)c([H])c7F)c([H])c6[H])c(C(=O)N([H])[H])c5N([H])[H])C4([H])[H])c3C([H])([H])[H])c([H])c([H])c2C1([H])[H]

>  <smiles>  (96) 
[H]c1c([H])c([H])c2c(c1[H])C([H])([H])C([H])([H])C([H])([H])C2([H])N([H])C(=O)C1([H])N(C(=O)C([H])(N([H])C(=O)C([H])(N([H])C([H])([H])[H])C([H])([H])[H])C(C([H])([H])[H])(C([H])([H])[H])C([H])([H])[H])C([H])([H])c2c([H])c(OC([H])([H])C([H])([H])C([H])([H])C([H])([H])c3nnn(C([H])(C([H])([H])[H])C(C([H])([H])[H])(C([H])([H])[H])C(F)(F)C(=O)N4C([H])([H])C([H])([H])C([H])([H])C([H])(n5nc(-c6c([H])c([H])c(Oc7c([H])c([H])c(F)c([H])c7F)c([H])c6[H])c(C(=O)N([H])[H])c5N([H])[H])C4([H])[H])c3C([H])([H])[H])c([H])c([H])c2C1([H])[H]

$$$$
96:0:0
     RDKit          3D

 94102  0  0  1  0  0  0  0  0999 V2000
  -26.3920  -20.5950   19.1310 C   0  0  0  0  0  3  0  0  0  0  0  0
  -26.8710  -22.8530   18.4520 C   0  0  0  0  0  3  0  0  0  0  0  0
  -25.9580  -21.9180   18.9710 C   0  0  0  0  0  0  0  0  0  0  0  0
  -27.7450  -20.2680   18.8750 C   0  0  0  0  0  0  0  0  0  0  0  0
  -28.1780  -22.4470   18.1090 C   0  0  0  0  0  0  0  0  0  0  0  0
  -24.5620  -22.3470   19.3950 C   0  0  0  0  0  1  0  0  0  0  0  0
  -28.6230  -21.1850   18.3820 N   0  0  0  0  0  0  0  0  0  0  0  0
  -29.8570  -24.2560   18.6490 C   0  0  0  0  0  1  0  0  0  0  0  0
  -30.2580  -22.8270   16.6290 C   0  0  0  0  0  1  0  0  0  0  0  0
  -29.1600  -23.4920   17.4980 C   0  0  1  0  0  0  0  0  0  0  0  0
  -28.3560  -24.5130   16.6030 C   0  0  0  0  0  3  0  0  0  0  0  0
  -29.0410  -25.8820   16.3210 C   0  0  0  0  0  3  0  0  0  0  0  0
  -28.1880  -26.9450   15.8760 O   0  0  0  0  0  0  0  0  0  0  0  0
  -25.4700  -28.2360   22.3890 C   0  0  0  0  0  0  0  0  0  0  0  0
  -27.1100  -27.2900   16.6620 C   0  0  0  0  0  0  0  0  0  0  0  0
  -23.8660  -28.2010   20.5060 C   0  0  0  0  0  3  0  0  0  0  0  0
  -24.8810  -28.1730   18.1650 C   0  0  0  0  0  0  0  0  0  0  0  0
  -26.3130  -28.8250   20.1100 C   0  0  0  0  0  2  0  0  0  0  0  0
  -26.1670  -28.2490   18.7150 C   0  0  0  0  0  0  0  0  0  0  0  0
  -27.2880  -27.8250   17.9620 C   0  0  0  0  0  3  0  0  0  0  0  0
  -25.8130  -27.2500   16.1140 C   0  0  0  0  0  3  0  0  0  0  0  0
  -24.6980  -27.6870   16.8560 C   0  0  0  0  0  3  0  0  0  0  0  0
  -23.7350  -28.6570   19.0270 C   0  0  0  0  0  2  0  0  0  0  0  0
  -25.2470  -28.3980   21.0500 N   0  0  0  0  0  0  0  0  0  0  0  0
  -24.5410  -27.9740   23.1660 O   0  0  0  0  0  0  0  0  0  0  0  0
  -23.3640  -26.7440   20.6280 C   0  0  0  0  0  0  0  0  0  0  0  0
  -22.0440  -26.5580   20.4710 N   0  0  0  0  0  0  0  0  0  0  0  0
  -24.1540  -25.8180   20.8420 O   0  0  0  0  0  0  0  0  0  0  0  0
  -21.4720  -27.3740   20.3170 H   0  0  0  0  0  0  0  0  0  0  0  0
  -18.8670  -24.9130   19.8900 C   0  0  0  0  0  0  0  0  0  0  0  0
  -21.3540  -25.2700   20.4980 C   0  0  0  0  0  3  0  0  0  0  0  0
  -21.6780  -24.4260   19.2460 C   0  0  0  0  0  2  0  0  0  0  0  0
  -20.6550  -24.5820   18.1150 C   0  0  0  0  0  2  0  0  0  0  0  0
  -19.2540  -24.1880   18.6110 C   0  0  0  0  0  2  0  0  0  0  0  0
  -19.8530  -25.4310   20.7690 C   0  0  0  0  0  0  0  0  0  0  0  0
  -19.4480  -26.1120   21.9370 C   0  0  0  0  0  3  0  0  0  0  0  0
  -18.0810  -26.2910   22.2230 C   0  0  0  0  0  3  0  0  0  0  0  0
  -17.1040  -25.7680   21.3540 C   0  0  0  0  0  3  0  0  0  0  0  0
  -17.4940  -25.0730   20.1970 C   0  0  0  0  0  3  0  0  0  0  0  0
  -26.8940  -28.4010   23.0030 C   0  0  0  0  0  3  0  0  0  0  0  0
  -26.7440  -29.0970   24.2870 N   0  0  0  0  0  0  0  0  0  0  0  0
  -27.0180  -30.3940   24.4920 C   0  0  0  0  0  0  0  0  0  0  0  0
  -27.5050  -31.1180   23.6200 O   0  0  0  0  0  0  0  0  0  0  0  0
  -26.3040  -28.5750   25.0310 H   0  0  0  0  0  0  0  0  0  0  0  0
  -25.3860  -31.7670   25.8310 C   0  0  0  0  0  1  0  0  0  0  0  0
  -26.7050  -30.9770   25.8840 C   0  0  0  0  0  3  0  0  0  0  0  0
  -28.9940  -31.1190   26.7640 C   0  0  0  0  0  1  0  0  0  0  0  0
  -27.7770  -31.8460   26.4110 N   0  0  0  0  0  0  0  0  0  0  0  0
  -27.4610  -32.3510   27.2340 H   0  0  0  0  0  0  0  0  0  0  0  0
  -27.6520  -27.0290   23.1940 C   0  0  1  0  0  0  0  0  0  0  0  0
  -26.8320  -25.9600   23.9500 C   0  0  0  0  0  1  0  0  0  0  0  0
  -28.0580  -26.4350   21.8260 C   0  0  0  0  0  1  0  0  0  0  0  0
  -28.9620  -27.2580   23.9830 C   0  0  0  0  0  1  0  0  0  0  0  0
  -28.2550  -18.9000   19.3460 C   0  0  0  0  0  2  0  0  0  0  0  0
  -29.6050  -18.3660   18.7910 C   0  0  0  0  0  2  0  0  0  0  0  0
  -29.8980  -16.9070   19.3090 C   0  0  0  0  0  2  0  0  0  0  0  0
  -31.6970  -15.0590   19.3520 C   0  0  0  0  0  0  0  0  0  0  0  0
  -31.3700  -12.6240   19.0990 C   0  0  0  0  0  2  0  0  0  0  0  0
  -30.4410  -12.2870   17.9180 C   0  0  0  0  0  2  0  0  0  0  0  0
  -28.9740  -12.2610   18.3890 C   0  0  0  0  0  2  0  0  0  0  0  0
  -28.5870  -13.4990   19.2450 C   0  0  0  0  0  3  0  0  0  0  0  0
  -29.6600  -13.8300   20.3140 C   0  0  0  0  0  2  0  0  0  0  0  0
  -30.9460  -13.9410   19.6150 N   0  0  0  0  0  0  0  0  0  0  0  0
  -32.9040  -14.9250   19.1470 O   0  0  0  0  0  0  0  0  0  0  0  0
  -31.8530  -16.9850   17.8110 C   0  0  0  0  0  1  0  0  0  0  0  0
  -31.1110  -16.1970   18.8270 N   0  0  0  0  0  0  0  0  0  0  0  0
  -26.3500  -14.3510   20.1680 C   0  0  0  0  0  0  0  0  0  0  0  0
  -25.2190  -13.7030   20.5800 C   0  0  0  0  0  0  0  0  0  0  0  0
  -25.5010  -12.3050   20.4660 C   0  0  0  0  0  0  0  0  0  0  0  0
  -27.2560  -13.3600   19.8270 N   0  0  0  0  0  0  0  0  0  0  0  0
  -26.7550  -12.1200   20.0690 N   0  0  0  0  0  0  0  0  0  0  0  0
  -24.6300  -11.1410   20.6570 C   0  0  0  0  0  0  0  0  0  0  0  0
  -24.9600  -10.0970   21.5500 C   0  0  0  0  0  3  0  0  0  0  0  0
  -24.0920   -8.9940   21.7230 C   0  0  0  0  0  3  0  0  0  0  0  0
  -22.8760   -8.9330   21.0060 C   0  0  0  0  0  0  0  0  0  0  0  0
  -22.5630   -9.9580   20.0950 C   0  0  0  0  0  3  0  0  0  0  0  0
  -23.4300  -11.0480   19.9200 C   0  0  0  0  0  3  0  0  0  0  0  0
  -21.9830   -7.8910   21.0940 O   0  0  0  0  0  0  0  0  0  0  0  0
  -21.8370   -7.1630   22.2490 C   0  0  0  0  0  0  0  0  0  0  0  0
  -21.4480   -7.7700   23.4640 C   0  0  0  0  0  3  0  0  0  0  0  0
  -21.2430   -6.9780   24.6130 C   0  0  0  0  0  3  0  0  0  0  0  0
  -21.4170   -5.5850   24.5480 C   0  0  0  0  0  0  0  0  0  0  0  0
  -21.7950   -4.9770   23.3370 C   0  0  0  0  0  3  0  0  0  0  0  0
  -22.0050   -5.7660   22.1920 C   0  0  0  0  0  0  0  0  0  0  0  0
  -22.3520   -5.1750   21.0250 F   0  0  0  0  0  0  0  0  0  0  0  0
  -21.2120   -4.8230   25.6480 F   0  0  0  0  0  0  0  0  0  0  0  0
  -23.9160  -14.3430   20.9600 C   0  0  0  0  0  0  0  0  0  0  0  0
  -23.1630  -13.7110   21.8550 N   0  0  0  0  0  0  0  0  0  0  0  0
  -23.5850  -15.4340   20.5030 O   0  0  0  0  0  0  0  0  0  0  0  0
  -23.4500  -12.8280   22.2520 H   0  0  0  0  0  0  0  0  0  0  0  0
  -22.2850  -14.1130   22.1440 H   0  0  0  0  0  0  0  0  0  0  0  0
  -26.6640  -15.6940   20.0170 N   0  0  0  0  0  0  0  0  0  0  0  0
  -25.9590  -16.4110   20.1550 H   0  0  0  0  0  0  0  0  0  0  0  0
  -27.4880  -16.0400   19.5510 H   0  0  0  0  0  0  0  0  0  0  0  0
  2  3  2  0
  3  1  1  0
  3  6  1  0
  4  1  2  0
  4 54  1  0
  5  7  2  0
  5  2  1  0
  7  4  1  0
 10  9  1  6
 10  5  1  0
 10  8  1  0
 11 10  1  0
 12 11  2  0
 13 12  1  0
 13 15  1  0
 14 25  2  0
 15 20  1  0
 16 26  1  0
 16 24  1  0
 17 19  1  0
 17 23  1  0
 18 24  1  0
 19 18  1  0
 20 19  2  0
 21 15  2  0
 21 22  1  0
 22 17  2  0
 23 16  1  0
 24 14  1  0
 26 28  2  0
 27 26  1  0
 29 27  1  0
 30 39  2  0
 30 35  1  0
 31 27  1  0
 31 35  1  0
 32 31  1  0
 33 34  1  0
 33 32  1  0
 34 30  1  0
 35 36  2  0
 36 37  1  0
 38 37  2  0
 39 38  1  0
 40 14  1  0
 40 50  1  0
 40 41  1  0
 41 42  1  0
 41 44  1  0
 42 46  1  0
 43 42  2  0
 46 45  1  0
 46 48  1  0
 48 47  1  0
 48 49  1  0
 50 51  1  1
 50 53  1  0
 52 50  1  0
 55 56  1  0
 55 54  1  0
 57 63  1  0
 58 63  1  0
 59 60  1  0
 59 58  1  0
 61 60  1  0
 61 70  1  0
 61 62  1  0
 63 62  1  0
 64 57  2  0
 65 66  1  0
 66 56  1  0
 66 57  1  0
 67 68  2  0
 68 87  1  0
 69 68  1  0
 69 72  1  0
 70 71  1  0
 70 67  1  0
 71 69  2  0
 72 73  1  0
 73 74  2  0
 75 78  1  0
 75 74  1  0
 76 75  2  0
 77 76  1  0
 77 72  2  0
 78 79  1  0
 79 80  1  0
 80 81  2  0
 82 81  1  0
 82 86  1  0
 83 82  2  0
 84 79  2  0
 84 83  1  0
 85 84  1  0
 87 88  1  0
 88 91  1  0
 88 90  1  0
 89 87  2  0
 92 93  1  0
 92 67  1  0
 94 92  1  0
M  ISO  4  12 101  13 101  57 100  66 100
M  END
>  <TORSDO>  (97) 
F 22

>  <SCORE>  (97) 
-8.945

>  <name>  (97) 
96

>  <ligand_id>  (97) 
96

>  <original_smiles>  (97) 
[H]c1c([H])c([H])c2c(c1[H])C([H])([H])C([H])([H])C([H])([H])C2([H])N([H])C(=O)C1([H])N(C(=O)C([H])(N([H])C(=O)C([H])(N([H])C([H])([H])[H])C([H])([H])[H])C(C([H])([H])[H])(C([H])([H])[H])C([H])([H])[H])C([H])([H])c2c([H])c(OC([H])([H])C([H])([H])C(c3nc(C([H])([H])C([H])([H])C([H])([H])N(C(=O)N4C([H])([H])C([H])([H])C([H])([H])C([H])(n5nc(-c6c([H])c([H])c(Oc7c([H])c([H])c(F)c([H])c7F)c([H])c6[H])c(C(=O)N([H])[H])c5N([H])[H])C4([H])[H])C([H])([H])[H])c([H])c(C([H])([H])[H])c3[H])(C([H])([H])[H])C([H])([H])[H])c([H])c([H])c2C1([H])[H]

>  <smiles>  (97) 
[H]c1c([H])c([H])c2c(c1[H])C([H])([H])C([H])([H])C([H])([H])C2([H])N([H])C(=O)C1([H])N(C(=O)C([H])(N([H])C(=O)C([H])(N([H])C([H])([H])[H])C([H])([H])[H])C(C([H])([H])[H])(C([H])([H])[H])C([H])([H])[H])C([H])([H])c2c([H])c(OC([H])([H])C([H])([H])C(c3nc(C([H])([H])C([H])([H])C([H])([H])N(C(=O)N4C([H])([H])C([H])([H])C([H])([H])C([H])(n5nc(-c6c([H])c([H])c(Oc7c([H])c([H])c(F)c([H])c7F)c([H])c6[H])c(C(=O)N([H])[H])c5N([H])[H])C4([H])[H])C([H])([H])[H])c([H])c(C([H])([H])[H])c3[H])(C([H])([H])[H])C([H])([H])[H])c([H])c([H])c2C1([H])[H]

$$$$
97:0:0
     RDKit          3D

 96104  0  0  1  0  0  0  0  0999 V2000
  -28.3070  -19.1790   20.8290 C   0  0  0  0  0  3  0  0  0  0  0  0
  -29.0300  -17.9800   20.9150 C   0  0  0  0  0  3  0  0  0  0  0  0
  -28.9880  -20.3800   20.5630 C   0  0  0  0  0  0  0  0  0  0  0  0
  -30.4320  -18.0140   20.7790 C   0  0  0  0  0  0  0  0  0  0  0  0
  -30.3950  -20.3600   20.4550 C   0  0  0  0  0  0  0  0  0  0  0  0
  -28.1510  -21.6380   20.3630 C   0  0  0  0  0  1  0  0  0  0  0  0
  -31.0930  -19.1900   20.5700 N   0  0  0  0  0  0  0  0  0  0  0  0
  -31.2230  -16.6950   20.9110 C   0  0  0  0  0  2  0  0  0  0  0  0
  -31.3900  -15.8060   19.6330 C   0  0  0  0  0  3  0  0  0  0  0  0
  -32.0180  -14.3960   19.8910 C   0  0  0  0  0  0  0  0  0  0  0  0
  -31.5000  -12.1510   19.0990 C   0  0  0  0  0  2  0  0  0  0  0  0
  -30.5490  -12.3250   17.8930 C   0  0  0  0  0  2  0  0  0  0  0  0
  -29.0800  -12.3570   18.3560 C   0  0  0  0  0  2  0  0  0  0  0  0
  -28.8240  -13.3280   19.5350 C   0  0  0  0  0  3  0  0  0  0  0  0
  -29.9140  -13.2020   20.6250 C   0  0  0  0  0  2  0  0  0  0  0  0
  -31.2460  -13.2800   20.0100 N   0  0  0  0  0  0  0  0  0  0  0  0
  -33.2190  -14.3030   19.6380 O   0  0  0  0  0  0  0  0  0  0  0  0
  -26.5740  -14.1770   20.4430 C   0  0  0  0  0  0  0  0  0  0  0  0
  -25.4310  -13.5210   20.8210 C   0  0  0  0  0  0  0  0  0  0  0  0
  -25.7120  -12.1280   20.6770 C   0  0  0  0  0  0  0  0  0  0  0  0
  -27.4780  -13.1860   20.0900 N   0  0  0  0  0  0  0  0  0  0  0  0
  -26.9690  -11.9460   20.2940 N   0  0  0  0  0  0  0  0  0  0  0  0
  -24.8370  -10.9600   20.8210 C   0  0  0  0  0  0  0  0  0  0  0  0
  -25.1510   -9.9030   21.7030 C   0  0  0  0  0  3  0  0  0  0  0  0
  -24.2780   -8.8030   21.8390 C   0  0  0  0  0  3  0  0  0  0  0  0
  -23.0790   -8.7530   21.0930 C   0  0  0  0  0  0  0  0  0  0  0  0
  -22.7800   -9.7990   20.2010 C   0  0  0  0  0  3  0  0  0  0  0  0
  -23.6530  -10.8890   20.0620 C   0  0  0  0  0  3  0  0  0  0  0  0
  -22.1900   -7.7060   21.1370 O   0  0  0  0  0  0  0  0  0  0  0  0
  -21.9640   -7.0000   22.2910 C   0  0  0  0  0  0  0  0  0  0  0  0
  -21.4760   -7.6230   23.4610 C   0  0  0  0  0  3  0  0  0  0  0  0
  -21.1880   -6.8490   24.6040 C   0  0  0  0  0  3  0  0  0  0  0  0
  -21.3820   -5.4570   24.5800 C   0  0  0  0  0  0  0  0  0  0  0  0
  -21.8660   -4.8320   23.4190 C   0  0  0  0  0  3  0  0  0  0  0  0
  -22.1530   -5.6020   22.2750 C   0  0  0  0  0  0  0  0  0  0  0  0
  -22.5950   -4.9920   21.1500 F   0  0  0  0  0  0  0  0  0  0  0  0
  -21.1030   -4.7110   25.6760 F   0  0  0  0  0  0  0  0  0  0  0  0
  -24.1210  -14.1500   21.1940 C   0  0  0  0  0  0  0  0  0  0  0  0
  -23.3610  -13.5210   22.0840 N   0  0  0  0  0  0  0  0  0  0  0  0
  -23.7850  -15.2420   20.7330 O   0  0  0  0  0  0  0  0  0  0  0  0
  -23.6270  -12.6260   22.4720 H   0  0  0  0  0  0  0  0  0  0  0  0
  -22.4910  -13.9430   22.3790 H   0  0  0  0  0  0  0  0  0  0  0  0
  -26.9050  -15.5240   20.3500 N   0  0  0  0  0  0  0  0  0  0  0  0
  -26.2270  -16.2560   20.5400 H   0  0  0  0  0  0  0  0  0  0  0  0
  -27.7930  -15.8970   20.0400 H   0  0  0  0  0  0  0  0  0  0  0  0
  -32.2200  -16.4230   18.5390 N   0  0  1  0  0  4  0  0  0  0  0  0
  -32.5440  -15.5410   18.1580 H   0  0  0  0  0  0  0  0  0  0  0  0
  -30.4450  -18.0080   17.5560 C   0  0  0  0  0  1  0  0  0  0  0  0
  -31.5500  -16.9670   17.3220 C   0  0  0  0  0  2  0  0  0  0  0  0
  -33.7160  -18.4840   18.8850 C   0  0  0  0  0  1  0  0  0  0  0  0
  -33.5860  -16.9550   18.8450 C   0  0  0  0  0  2  0  0  0  0  0  0
  -31.1770  -21.6470   20.0920 C   0  0  0  0  0  2  0  0  0  0  0  0
  -31.0450  -22.8600   21.0790 C   0  0  0  0  0  2  0  0  0  0  0  0
  -31.1800  -24.2750   20.4460 C   0  0  0  0  0  2  0  0  0  0  0  0
  -30.9640  -25.4050   21.4990 C   0  0  0  0  0  2  0  0  0  0  0  0
  -30.9160  -26.7800   21.0490 O   0  0  0  0  0  0  0  0  0  0  0  0
  -25.7510  -30.8330   23.8980 C   0  0  0  0  0  0  0  0  0  0  0  0
  -29.6530  -27.3290   20.9330 C   0  0  0  0  0  0  0  0  0  0  0  0
  -25.1230  -29.4740   21.9270 C   0  0  0  0  0  3  0  0  0  0  0  0
  -27.0570  -28.4090   20.6530 C   0  0  0  0  0  0  0  0  0  0  0  0
  -27.5320  -30.2760   22.2450 C   0  0  0  0  0  2  0  0  0  0  0  0
  -27.9830  -29.0350   21.4970 C   0  0  0  0  0  0  0  0  0  0  0  0
  -29.2870  -28.5000   21.6410 C   0  0  0  0  0  3  0  0  0  0  0  0
  -28.7130  -26.7230   20.0820 C   0  0  0  0  0  3  0  0  0  0  0  0
  -27.4140  -27.2480   19.9470 C   0  0  0  0  0  3  0  0  0  0  0  0
  -25.6840  -29.0310   20.5490 C   0  0  0  0  0  2  0  0  0  0  0  0
  -26.1390  -30.2070   22.7500 N   0  0  0  0  0  0  0  0  0  0  0  0
  -24.5630  -30.8440   24.2510 O   0  0  0  0  0  0  0  0  0  0  0  0
  -24.5410  -28.2360   22.6470 C   0  0  0  0  0  0  0  0  0  0  0  0
  -23.3620  -27.7800   22.1940 N   0  0  0  0  0  0  0  0  0  0  0  0
  -25.1540  -27.6930   23.5700 O   0  0  0  0  0  0  0  0  0  0  0  0
  -22.9150  -28.2910   21.4460 H   0  0  0  0  0  0  0  0  0  0  0  0
  -20.3870  -25.7810   21.7310 C   0  0  0  0  0  0  0  0  0  0  0  0
  -22.6430  -26.6060   22.6870 C   0  0  0  0  0  3  0  0  0  0  0  0
  -23.2470  -25.3020   22.1140 C   0  0  0  0  0  2  0  0  0  0  0  0
  -22.5530  -24.8310   20.8300 C   0  0  0  0  0  2  0  0  0  0  0  0
  -21.0640  -24.5840   21.0860 C   0  0  0  0  0  2  0  0  0  0  0  0
  -21.1320  -26.7400   22.4690 C   0  0  0  0  0  0  0  0  0  0  0  0
  -20.4600  -27.8550   23.0150 C   0  0  0  0  0  3  0  0  0  0  0  0
  -19.0740  -28.0180   22.8410 C   0  0  0  0  0  3  0  0  0  0  0  0
  -18.3380  -27.0590   22.1230 C   0  0  0  0  0  3  0  0  0  0  0  0
  -18.9950  -25.9440   21.5740 C   0  0  0  0  0  3  0  0  0  0  0  0
  -26.7720  -31.5880   24.8020 C   0  0  0  0  0  3  0  0  0  0  0  0
  -27.0120  -30.8800   26.1920 C   0  0  1  0  0  0  0  0  0  0  0  0
  -25.7090  -30.5540   26.9530 C   0  0  0  0  0  1  0  0  0  0  0  0
  -27.7930  -29.5580   26.0110 C   0  0  0  0  0  1  0  0  0  0  0  0
  -27.8800  -31.7840   27.1020 C   0  0  0  0  0  1  0  0  0  0  0  0
  -26.2670  -32.9540   24.9940 N   0  0  0  0  0  0  0  0  0  0  0  0
  -26.6910  -34.0260   24.3120 C   0  0  0  0  0  0  0  0  0  0  0  0
  -27.6150  -33.9780   23.4970 O   0  0  0  0  0  0  0  0  0  0  0  0
  -25.4680  -33.0560   25.6040 H   0  0  0  0  0  0  0  0  0  0  0  0
  -24.9660  -35.6460   23.4550 C   0  0  0  0  0  1  0  0  0  0  0  0
  -25.9760  -35.3660   24.5790 C   0  0  0  0  0  3  0  0  0  0  0  0
  -27.7130  -36.4580   25.9270 C   0  0  0  0  0  1  0  0  0  0  0  0
  -26.9030  -36.5110   24.7120 N   0  0  0  0  0  0  0  0  0  0  0  0
  -26.3890  -37.3880   24.7130 H   0  0  0  0  0  0  0  0  0  0  0  0
  1  2  1  0
  3  1  2  0
  4  8  1  0
  4  2  2  0
  5  3  1  0
  5  7  2  0
  6  3  1  0
  7  4  1  0
  9 10  1  0
  9  8  1  0
 10 16  1  0
 11 16  1  0
 12 13  1  0
 12 11  1  0
 14 13  1  0
 14 21  1  0
 14 15  1  0
 16 15  1  0
 17 10  2  0
 18 19  2  0
 19 38  1  0
 20 19  1  0
 20 23  1  0
 21 22  1  0
 21 18  1  0
 22 20  2  0
 23 24  1  0
 24 25  2  0
 26 29  1  0
 26 25  1  0
 27 26  2  0
 28 27  1  0
 28 23  2  0
 29 30  1  0
 30 31  1  0
 31 32  2  0
 33 32  1  0
 33 37  1  0
 34 33  2  0
 35 30  2  0
 35 34  1  0
 36 35  1  0
 38 39  1  0
 39 42  1  0
 39 41  1  0
 40 38  2  0
 43 18  1  0
 43 44  1  0
 45 43  1  0
 46 51  1  0
 46  9  1  0
 46 47  1  6
 49 48  1  0
 49 46  1  0
 51 50  1  0
 52  5  1  0
 52 53  1  0
 54 53  1  0
 54 55  1  0
 56 55  1  0
 57 68  2  0
 58 56  1  0
 58 63  1  0
 59 69  1  0
 59 67  1  0
 60 62  1  0
 61 67  1  0
 62 63  2  0
 62 61  1  0
 64 58  2  0
 65 64  1  0
 65 60  2  0
 66 60  1  0
 66 59  1  0
 67 57  1  0
 69 71  2  0
 70 69  1  0
 72 70  1  0
 73 78  1  0
 74 70  1  0
 75 74  1  0
 76 77  1  0
 76 75  1  0
 77 73  1  0
 78 74  1  0
 78 79  2  0
 80 79  1  0
 81 80  2  0
 82 73  2  0
 82 81  1  0
 83 57  1  0
 83 88  1  0
 83 84  1  0
 84 85  1  1
 84 87  1  0
 86 84  1  0
 88 91  1  0
 89 93  1  0
 89 88  1  0
 90 89  2  0
 93 92  1  0
 93 95  1  0
 95 96  1  0
 95 94  1  0
M  ISO  4   9 100  10 100  55 101  56 101
M  END
>  <TORSDO>  (98) 
F 25

>  <SCORE>  (98) 
-8.998

>  <name>  (98) 
97

>  <ligand_id>  (98) 
97

>  <original_smiles>  (98) 
[H]c1c(C([H])([H])C([H])(C(=O)N2C([H])([H])C([H])([H])C([H])([H])C([H])(n3nc(-c4c([H])c([H])c(Oc5c([H])c([H])c(F)c([H])c5F)c([H])c4[H])c(C(=O)N([H])[H])c3N([H])[H])C2([H])[H])[N+]([H])(C([H])([H])C([H])([H])[H])C([H])([H])C([H])([H])[H])nc(C([H])([H])C([H])([H])C([H])([H])C([H])([H])Oc2c([H])c([H])c3c(c2[H])C([H])([H])N(C(=O)C([H])(N([H])C(=O)C([H])(N([H])C([H])([H])[H])C([H])([H])[H])C(C([H])([H])[H])(C([H])([H])[H])C([H])([H])[H])C([H])(C(=O)N([H])C2([H])c4c([H])c([H])c([H])c([H])c4C([H])([H])C([H])([H])C2([H])[H])C3([H])[H])c(C([H])([H])[H])c1[H]

>  <smiles>  (98) 
[H]c1c(C([H])([H])C([H])(C(=O)N2C([H])([H])C([H])([H])C([H])([H])C([H])(n3nc(-c4c([H])c([H])c(Oc5c([H])c([H])c(F)c([H])c5F)c([H])c4[H])c(C(=O)N([H])[H])c3N([H])[H])C2([H])[H])[N+]([H])(C([H])([H])C([H])([H])[H])C([H])([H])C([H])([H])[H])nc(C([H])([H])C([H])([H])C([H])([H])C([H])([H])Oc2c([H])c([H])c3c(c2[H])C([H])([H])N(C(=O)C([H])(N([H])C(=O)C([H])(N([H])C([H])([H])[H])C([H])([H])[H])C(C([H])([H])[H])(C([H])([H])[H])C([H])([H])[H])C([H])(C(=O)N([H])C2([H])c4c([H])c([H])c([H])c([H])c4C([H])([H])C([H])([H])C2([H])[H])C3([H])[H])c(C([H])([H])[H])c1[H]

$$$$
98:0:0
     RDKit          3D

 95103  0  0  1  0  0  0  0  0999 V2000
  -29.4200  -21.3040   21.8310 C   0  0  0  0  0  3  0  0  0  0  0  0
  -29.4920  -21.3130   20.4240 C   0  0  0  0  0  0  0  0  0  0  0  0
  -29.9440  -18.9740   20.5550 C   0  0  0  0  0  0  0  0  0  0  0  0
  -29.5610  -20.1520   22.5310 N   0  0  0  0  0  0  0  0  0  0  0  0
  -29.7590  -20.1020   19.7910 N   0  0  0  0  0  0  0  0  0  0  0  0
  -29.7700  -18.9900   21.8890 N   0  0  0  0  0  2  0  0  0  0  0  0
  -29.2910  -22.6560   19.6130 C   0  0  0  0  0  3  0  0  0  0  0  0
  -28.7230  -23.9990   20.3070 C   0  0  0  0  0  2  0  0  0  0  0  0
  -28.3290  -25.2040   18.0150 C   0  0  0  0  0  1  0  0  0  0  0  0
  -28.8030  -25.3690   19.4690 C   0  0  0  0  0  3  0  0  0  0  0  0
  -28.5270  -26.7130   20.0680 O   0  0  0  0  0  0  0  0  0  0  0  0
  -24.6630  -31.8990   23.2370 C   0  0  0  0  0  0  0  0  0  0  0  0
  -27.3400  -27.4710   20.0360 C   0  0  0  0  0  0  0  0  0  0  0  0
  -23.4690  -30.5270   21.5660 C   0  0  0  0  0  3  0  0  0  0  0  0
  -24.9340  -29.0420   20.0860 C   0  0  0  0  0  0  0  0  0  0  0  0
  -26.0000  -30.8990   21.3670 C   0  0  0  0  0  2  0  0  0  0  0  0
  -26.0990  -29.5410   20.6800 C   0  0  0  0  0  0  0  0  0  0  0  0
  -27.2980  -28.7700   20.6390 C   0  0  0  0  0  3  0  0  0  0  0  0
  -26.1380  -27.0100   19.4570 C   0  0  0  0  0  3  0  0  0  0  0  0
  -24.9560  -27.7810   19.4680 C   0  0  0  0  0  3  0  0  0  0  0  0
  -23.6820  -29.8920   20.1660 C   0  0  0  0  0  2  0  0  0  0  0  0
  -24.7300  -31.1250   22.1130 N   0  0  0  0  0  0  0  0  0  0  0  0
  -23.5800  -32.1390   23.7890 O   0  0  0  0  0  0  0  0  0  0  0  0
  -22.8350  -29.4720   22.5030 C   0  0  0  0  0  0  0  0  0  0  0  0
  -21.5200  -29.2420   22.3520 N   0  0  0  0  0  0  0  0  0  0  0  0
  -23.5270  -28.8630   23.3250 O   0  0  0  0  0  0  0  0  0  0  0  0
  -21.0210  -29.7860   21.6620 H   0  0  0  0  0  0  0  0  0  0  0  0
  -18.1970  -27.8730   22.7540 C   0  0  0  0  0  0  0  0  0  0  0  0
  -20.7300  -28.2610   23.0970 C   0  0  0  0  0  3  0  0  0  0  0  0
  -20.9210  -26.8370   22.5250 C   0  0  0  0  0  2  0  0  0  0  0  0
  -19.8660  -26.4670   21.4770 C   0  0  0  0  0  2  0  0  0  0  0  0
  -18.4620  -26.5340   22.0870 C   0  0  0  0  0  2  0  0  0  0  0  0
  -19.2630  -28.6910   23.2150 C   0  0  0  0  0  0  0  0  0  0  0  0
  -18.9630  -29.9400   23.8010 C   0  0  0  0  0  3  0  0  0  0  0  0
  -17.6300  -30.3740   23.9280 C   0  0  0  0  0  3  0  0  0  0  0  0
  -16.5780  -29.5540   23.4810 C   0  0  0  0  0  3  0  0  0  0  0  0
  -16.8630  -28.3050   22.9020 C   0  0  0  0  0  3  0  0  0  0  0  0
  -25.9390  -32.5370   23.8670 C   0  0  0  0  0  3  0  0  0  0  0  0
  -25.6140  -33.9290   24.2140 N   0  0  0  0  0  0  0  0  0  0  0  0
  -25.9440  -34.9980   23.4750 C   0  0  0  0  0  0  0  0  0  0  0  0
  -26.6200  -34.9140   22.4450 O   0  0  0  0  0  0  0  0  0  0  0  0
  -25.0070  -34.0670   25.0090 H   0  0  0  0  0  0  0  0  0  0  0  0
  -24.2000  -36.7830   23.1420 C   0  0  0  0  0  1  0  0  0  0  0  0
  -25.4420  -36.3760   23.9500 C   0  0  0  0  0  3  0  0  0  0  0  0
  -27.5640  -37.2700   24.8040 C   0  0  0  0  0  1  0  0  0  0  0  0
  -26.4670  -37.4390   23.8550 N   0  0  0  0  0  0  0  0  0  0  0  0
  -26.0520  -38.3540   24.0100 H   0  0  0  0  0  0  0  0  0  0  0  0
  -26.4640  -31.7570   25.1340 C   0  0  1  0  0  0  0  0  0  0  0  0
  -25.3670  -31.4660   26.1840 C   0  0  0  0  0  1  0  0  0  0  0  0
  -27.0920  -30.4040   24.7240 C   0  0  0  0  0  1  0  0  0  0  0  0
  -27.5840  -32.5740   25.8230 C   0  0  0  0  0  1  0  0  0  0  0  0
  -29.9630  -17.5240   19.9010 C   0  0  0  0  0  3  0  0  0  0  0  0
  -28.5440  -17.2850   19.5960 N   0  0  0  0  0  4  0  0  0  0  0  0
  -28.0320  -17.8220   20.2750 H   0  0  0  0  0  0  0  0  0  0  0  0
  -28.2750  -16.3260   19.7090 H   0  0  0  0  0  0  0  0  0  0  0  0
  -28.3180  -17.6420   18.6850 H   0  0  0  0  0  0  0  0  0  0  0  0
  -31.8670  -16.6290   21.4990 C   0  0  0  0  0  1  0  0  0  0  0  0
  -30.6190  -16.2310   20.6670 C   0  0  1  0  0  0  0  0  0  0  0  0
  -29.7420  -15.8740   21.6060 F   0  0  0  0  0  0  0  0  0  0  0  0
  -31.0540  -14.9130   19.8240 C   0  0  0  0  0  0  0  0  0  0  0  0
  -30.7310  -12.6590   18.7610 C   0  0  0  0  0  2  0  0  0  0  0  0
  -29.7200  -12.7470   17.5930 C   0  0  0  0  0  2  0  0  0  0  0  0
  -28.2730  -12.5930   18.1020 C   0  0  0  0  0  2  0  0  0  0  0  0
  -27.9950  -13.4780   19.3430 C   0  0  0  0  0  3  0  0  0  0  0  0
  -29.1110  -13.3210   20.3970 C   0  0  0  0  0  2  0  0  0  0  0  0
  -30.3830  -13.7010   19.7630 N   0  0  0  0  0  0  0  0  0  0  0  0
  -32.1130  -15.0030   19.1920 O   0  0  0  0  0  0  0  0  0  0  0  0
  -25.6860  -14.1450   20.2330 C   0  0  0  0  0  0  0  0  0  0  0  0
  -24.6260  -13.4040   20.6810 C   0  0  0  0  0  0  0  0  0  0  0  0
  -25.0370  -12.0380   20.5940 C   0  0  0  0  0  0  0  0  0  0  0  0
  -26.6760  -13.2310   19.9100 N   0  0  0  0  0  0  0  0  0  0  0  0
  -26.2970  -11.9590   20.1860 N   0  0  0  0  0  0  0  0  0  0  0  0
  -24.2820  -10.7970   20.8120 C   0  0  0  0  0  0  0  0  0  0  0  0
  -24.6820   -9.8510   21.7830 C   0  0  0  0  0  3  0  0  0  0  0  0
  -23.9320   -8.6740   21.9880 C   0  0  0  0  0  3  0  0  0  0  0  0
  -22.7670   -8.4340   21.2210 C   0  0  0  0  0  0  0  0  0  0  0  0
  -22.3870   -9.3650   20.2390 C   0  0  0  0  0  3  0  0  0  0  0  0
  -23.1370  -10.5350   20.0330 C   0  0  0  0  0  3  0  0  0  0  0  0
  -21.9900   -7.3050   21.3320 O   0  0  0  0  0  0  0  0  0  0  0  0
  -21.8180   -6.6670   22.5330 C   0  0  0  0  0  0  0  0  0  0  0  0
  -21.2680   -7.3260   23.6540 C   0  0  0  0  0  3  0  0  0  0  0  0
  -21.0460   -6.6140   24.8500 C   0  0  0  0  0  3  0  0  0  0  0  0
  -21.3620   -5.2430   24.9240 C   0  0  0  0  0  0  0  0  0  0  0  0
  -21.9040   -4.5840   23.8080 C   0  0  0  0  0  3  0  0  0  0  0  0
  -22.1290   -5.2940   22.6150 C   0  0  0  0  0  0  0  0  0  0  0  0
  -22.6320   -4.6500   21.5350 F   0  0  0  0  0  0  0  0  0  0  0  0
  -21.1410   -4.5570   26.0700 F   0  0  0  0  0  0  0  0  0  0  0  0
  -23.2680  -13.9210   21.0570 C   0  0  0  0  0  0  0  0  0  0  0  0
  -22.5810  -13.2410   21.9680 N   0  0  0  0  0  0  0  0  0  0  0  0
  -22.8300  -14.9650   20.5750 O   0  0  0  0  0  0  0  0  0  0  0  0
  -22.9470  -12.3920   22.3730 H   0  0  0  0  0  0  0  0  0  0  0  0
  -21.6740  -13.5730   22.2640 H   0  0  0  0  0  0  0  0  0  0  0  0
  -25.8890  -15.5070   20.0210 N   0  0  0  0  0  0  0  0  0  0  0  0
  -25.0360  -16.0200   20.2230 H   0  0  0  0  0  0  0  0  0  0  0  0
  -26.0940  -15.6380   19.0360 H   0  0  0  0  0  0  0  0  0  0  0  0
  1  4  2  0
  2  1  1  0
  3  6  1  0
  5  2  1  0
  5  3  2  0
  6  4  1  0
  7  8  1  0
  7  2  2  0
 10  9  1  0
 10 11  1  0
 10  8  1  0
 12 23  2  0
 13 11  1  0
 13 18  1  0
 14 22  1  0
 14 24  1  0
 15 21  1  0
 15 17  1  0
 16 22  1  0
 17 16  1  0
 18 17  2  0
 19 20  1  0
 19 13  2  0
 20 15  2  0
 21 14  1  0
 22 12  1  0
 24 26  2  0
 25 24  1  0
 27 25  1  0
 28 37  2  0
 28 33  1  0
 29 25  1  0
 29 33  1  0
 30 29  1  0
 31 32  1  0
 31 30  1  0
 32 28  1  0
 33 34  2  0
 34 35  1  0
 36 35  2  0
 37 36  1  0
 38 12  1  0
 38 39  1  0
 38 48  1  0
 39 42  1  0
 40 44  1  0
 40 39  1  0
 41 40  2  0
 44 43  1  0
 46 44  1  0
 46 47  1  0
 46 45  1  0
 48 51  1  1
 48 49  1  0
 50 48  1  0
 52 53  1  0
 52  3  1  0
 52 58  1  0
 53 55  1  0
 53 54  1  0
 56 53  1  0
 58 57  1  1
 58 59  1  0
 60 58  1  0
 61 66  1  0
 62 63  1  0
 62 61  1  0
 64 63  1  0
 64 71  1  0
 64 65  1  0
 66 60  1  0
 66 65  1  0
 67 60  2  0
 68 69  2  0
 69 88  1  0
 70 69  1  0
 70 73  1  0
 71 72  1  0
 71 68  1  0
 72 70  2  0
 73 74  1  0
 74 75  2  0
 76 79  1  0
 76 75  1  0
 77 76  2  0
 78 77  1  0
 78 73  2  0
 79 80  1  0
 80 85  2  0
 80 81  1  0
 81 82  2  0
 82 83  1  0
 83 87  1  0
 84 83  2  0
 85 84  1  0
 86 85  1  0
 88 89  1  0
 89 92  1  0
 89 91  1  0
 90 88  2  0
 93 94  1  0
 93 68  1  0
 95 93  1  0
M  ISO  4  10 101  11 101  58 100  60 100
M  END
>  <TORSDO>  (99) 
F 22

>  <SCORE>  (99) 
-11.154

>  <name>  (99) 
98

>  <ligand_id>  (99) 
98

>  <original_smiles>  (99) 
[H]c1nnc(C([H])(C(F)(C(=O)N2C([H])([H])C([H])([H])C([H])([H])C([H])(n3nc(-c4c([H])c([H])c(Oc5c([H])c([H])c(F)c([H])c5F)c([H])c4[H])c(C(=O)N([H])[H])c3N([H])[H])C2([H])[H])C([H])([H])[H])[N+]([H])([H])[H])nc1C([H])([H])C([H])([H])C([H])(Oc1c([H])c([H])c2c(c1[H])C([H])([H])N(C(=O)C([H])(N([H])C(=O)C([H])(N([H])C([H])([H])[H])C([H])([H])[H])C(C([H])([H])[H])(C([H])([H])[H])C([H])([H])[H])C([H])(C(=O)N([H])C1([H])c3c([H])c([H])c([H])c([H])c3C([H])([H])C([H])([H])C1([H])[H])C2([H])[H])C([H])([H])[H]

>  <smiles>  (99) 
[H]c1nnc(C([H])(C(F)(C(=O)N2C([H])([H])C([H])([H])C([H])([H])C([H])(n3nc(-c4c([H])c([H])c(Oc5c([H])c([H])c(F)c([H])c5F)c([H])c4[H])c(C(=O)N([H])[H])c3N([H])[H])C2([H])[H])C([H])([H])[H])[N+]([H])([H])[H])nc1C([H])([H])C([H])([H])C([H])(Oc1c([H])c([H])c2c(c1[H])C([H])([H])N(C(=O)C([H])(N([H])C(=O)C([H])(N([H])C([H])([H])[H])C([H])([H])[H])C(C([H])([H])[H])(C([H])([H])[H])C([H])([H])[H])C([H])(C(=O)N([H])C1([H])c3c([H])c([H])c([H])c([H])c3C([H])([H])C([H])([H])C1([H])[H])C2([H])[H])C([H])([H])[H]

$$$$
