0:0:0
     RDKit          3D

 95103  0  0  1  0  0  0  0  0999 V2000
  -29.7560  -22.9250   21.2220 C   0  0  0  0  0  3  0  0  0  0  0  0
  -29.9820  -21.4970   21.2010 C   0  0  0  0  0  0  0  0  0  0  0  0
  -28.6680  -23.5730   20.5620 C   0  0  0  0  0  0  0  0  0  0  0  0
  -29.1450  -20.6150   20.4480 C   0  0  0  0  0  0  0  0  0  0  0  0
  -27.9100  -22.6230   19.7970 C   0  0  0  0  0  0  0  0  0  0  0  0
  -28.1500  -21.2490   19.7430 N   0  0  0  0  0  0  0  0  0  0  0  0
  -25.3740  -22.6760   19.8110 C   0  0  0  0  0  1  0  0  0  0  0  0
  -26.6340  -22.6040   17.5970 C   0  0  0  0  0  1  0  0  0  0  0  0
  -26.6520  -23.0780   19.0580 C   0  0  0  0  0  3  0  0  0  0  0  0
  -31.0890  -20.9480   22.0930 C   0  0  0  0  0  2  0  0  0  0  0  0
  -29.8200  -21.4610   24.2580 C   0  0  0  0  0  1  0  0  0  0  0  0
  -32.3190  -21.0850   24.3140 C   0  0  0  0  0  1  0  0  0  0  0  0
  -31.1400  -21.6160   23.4860 C   0  0  0  0  0  3  0  0  0  0  0  0
  -28.1570  -25.0490   21.0520 C   0  0  0  0  0  2  0  0  0  0  0  0
  -28.5860  -26.4700   20.6360 O   0  0  0  0  0  0  0  0  0  0  0  0
  -24.7340  -32.0200   23.5690 C   0  0  0  0  0  0  0  0  0  0  0  0
  -27.5380  -27.4520   20.5520 C   0  0  0  0  0  0  0  0  0  0  0  0
  -23.6280  -30.6160   21.8720 C   0  0  0  0  0  3  0  0  0  0  0  0
  -25.1670  -29.1160   20.4750 C   0  0  0  0  0  0  0  0  0  0  0  0
  -26.1760  -30.9610   21.8000 C   0  0  0  0  0  2  0  0  0  0  0  0
  -26.3120  -29.5840   21.1370 C   0  0  0  0  0  0  0  0  0  0  0  0
  -27.4990  -28.7630   21.1700 C   0  0  0  0  0  3  0  0  0  0  0  0
  -26.3800  -27.1090   19.8170 C   0  0  0  0  0  3  0  0  0  0  0  0
  -25.2130  -27.8920   19.8010 C   0  0  0  0  0  3  0  0  0  0  0  0
  -23.9160  -29.9740   20.4910 C   0  0  0  0  0  2  0  0  0  0  0  0
  -24.8630  -31.2180   22.4700 N   0  0  0  0  0  0  0  0  0  0  0  0
  -23.6230  -32.2680   24.0610 O   0  0  0  0  0  0  0  0  0  0  0  0
  -22.9490  -29.5710   22.7920 C   0  0  0  0  0  0  0  0  0  0  0  0
  -21.6490  -29.3100   22.5690 N   0  0  0  0  0  0  0  0  0  0  0  0
  -23.5950  -28.9980   23.6740 O   0  0  0  0  0  0  0  0  0  0  0  0
  -21.1810  -29.8290   21.8400 H   0  0  0  0  0  0  0  0  0  0  0  0
  -18.3430  -27.8410   22.7860 C   0  0  0  0  0  0  0  0  0  0  0  0
  -20.8330  -28.3300   23.2910 C   0  0  0  0  0  3  0  0  0  0  0  0
  -21.1100  -26.8950   22.7870 C   0  0  0  0  0  2  0  0  0  0  0  0
  -20.1470  -26.4470   21.6820 C   0  0  0  0  0  2  0  0  0  0  0  0
  -18.6990  -26.4920   22.1830 C   0  0  0  0  0  2  0  0  0  0  0  0
  -19.3470  -28.7100   23.2910 C   0  0  0  0  0  0  0  0  0  0  0  0
  -18.9660  -29.9650   23.8130 C   0  0  0  0  0  3  0  0  0  0  0  0
  -17.6140  -30.3580   23.8290 C   0  0  0  0  0  3  0  0  0  0  0  0
  -16.6240  -29.4880   23.3400 C   0  0  0  0  0  3  0  0  0  0  0  0
  -16.9890  -28.2310   22.8270 C   0  0  0  0  0  3  0  0  0  0  0  0
  -25.9720  -32.6840   24.2450 C   0  0  0  0  0  3  0  0  0  0  0  0
  -25.6320  -34.0860   24.5270 N   0  0  0  0  0  0  0  0  0  0  0  0
  -26.0120  -35.1290   23.7770 C   0  0  0  0  0  0  0  0  0  0  0  0
  -26.7550  -35.0120   22.7990 O   0  0  0  0  0  0  0  0  0  0  0  0
  -24.9880  -34.2510   25.2860 H   0  0  0  0  0  0  0  0  0  0  0  0
  -24.3190  -36.9170   23.2590 C   0  0  0  0  0  1  0  0  0  0  0  0
  -25.4890  -36.5240   24.1770 C   0  0  0  0  0  3  0  0  0  0  0  0
  -27.5510  -37.4160   25.1680 C   0  0  0  0  0  1  0  0  0  0  0  0
  -26.5270  -37.5770   24.1380 N   0  0  0  0  0  0  0  0  0  0  0  0
  -26.1120  -38.4970   24.2480 H   0  0  0  0  0  0  0  0  0  0  0  0
  -26.4210  -31.9490   25.5680 C   0  0  1  0  0  0  0  0  0  0  0  0
  -25.2590  -31.6710   26.5500 C   0  0  0  0  0  1  0  0  0  0  0  0
  -27.0950  -30.5960   25.2440 C   0  0  0  0  0  1  0  0  0  0  0  0
  -27.4770  -32.8010   26.3100 C   0  0  0  0  0  1  0  0  0  0  0  0
  -29.0790  -18.9820   20.6310 C   0  0  0  0  0  3  0  0  0  0  0  0
  -30.2840  -17.8580   20.4600 C   0  0  0  0  0  3  0  0  0  0  0  0
  -30.8020  -15.1830   20.3250 C   0  0  0  0  0  0  0  0  0  0  0  0
  -30.7280  -12.8390   19.4010 C   0  0  0  0  0  2  0  0  0  0  0  0
  -29.8070  -12.7860   18.1600 C   0  0  0  0  0  2  0  0  0  0  0  0
  -28.3430  -12.5540   18.5790 C   0  0  0  0  0  2  0  0  0  0  0  0
  -27.9060  -13.4850   19.7420 C   0  0  0  0  0  3  0  0  0  0  0  0
  -28.9470  -13.5170   20.8820 C   0  0  0  0  0  2  0  0  0  0  0  0
  -30.2280  -13.9210   20.2890 N   0  0  0  0  0  0  0  0  0  0  0  0
  -31.9910  -15.2990   20.0180 O   0  0  0  0  0  0  0  0  0  0  0  0
  -29.9900  -16.3170   20.5040 N   0  0  0  0  0  0  0  0  0  0  0  0
  -29.0310  -16.0850   20.7170 H   0  0  0  0  0  0  0  0  0  0  0  0
  -25.5160  -14.0290   20.4880 C   0  0  0  0  0  0  0  0  0  0  0  0
  -24.4570  -13.2360   20.8360 C   0  0  0  0  0  0  0  0  0  0  0  0
  -24.9310  -11.8900   20.7670 C   0  0  0  0  0  0  0  0  0  0  0  0
  -26.5660  -13.1650   20.2260 N   0  0  0  0  0  0  0  0  0  0  0  0
  -26.2220  -11.8720   20.4580 N   0  0  0  0  0  0  0  0  0  0  0  0
  -24.2140  -10.6180   20.9220 C   0  0  0  0  0  0  0  0  0  0  0  0
  -24.6230   -9.6490   21.8650 C   0  0  0  0  0  3  0  0  0  0  0  0
  -23.9060   -8.4430   22.0090 C   0  0  0  0  0  3  0  0  0  0  0  0
  -22.7640   -8.1950   21.2090 C   0  0  0  0  0  0  0  0  0  0  0  0
  -22.3740   -9.1530   20.2580 C   0  0  0  0  0  3  0  0  0  0  0  0
  -23.0930  -10.3510   20.1110 C   0  0  0  0  0  3  0  0  0  0  0  0
  -22.0200   -7.0420   21.2630 O   0  0  0  0  0  0  0  0  0  0  0  0
  -21.8730   -6.3340   22.4290 C   0  0  0  0  0  0  0  0  0  0  0  0
  -21.3140   -6.9140   23.5880 C   0  0  0  0  0  3  0  0  0  0  0  0
  -21.1160   -6.1290   24.7410 C   0  0  0  0  0  3  0  0  0  0  0  0
  -21.4660   -4.7660   24.7350 C   0  0  0  0  0  0  0  0  0  0  0  0
  -22.0180   -4.1860   23.5790 C   0  0  0  0  0  3  0  0  0  0  0  0
  -22.2190   -4.9670   22.4280 C   0  0  0  0  0  0  0  0  0  0  0  0
  -22.7330   -4.3990   21.3110 F   0  0  0  0  0  0  0  0  0  0  0  0
  -21.2690   -4.0110   25.8400 F   0  0  0  0  0  0  0  0  0  0  0  0
  -23.0570  -13.6980   21.1180 C   0  0  0  0  0  0  0  0  0  0  0  0
  -22.3370  -12.9820   21.9750 N   0  0  0  0  0  0  0  0  0  0  0  0
  -22.6130  -14.7290   20.6190 O   0  0  0  0  0  0  0  0  0  0  0  0
  -22.7140  -12.1480   22.4010 H   0  0  0  0  0  0  0  0  0  0  0  0
  -21.3980  -13.2710   22.2080 H   0  0  0  0  0  0  0  0  0  0  0  0
  -25.6690  -15.4050   20.3470 N   0  0  0  0  0  0  0  0  0  0  0  0
  -24.8870  -16.0420   20.4560 H   0  0  0  0  0  0  0  0  0  0  0  0
  -26.4980  -15.8580   19.9900 H   0  0  0  0  0  0  0  0  0  0  0  0
  2  1  1  0
  2 10  1  0
  3 14  1  0
  3  1  2  0
  4 56  1  0
  4  2  2  0
  5  3  1  0
  6  5  2  0
  6  4  1  0
  8  9  1  0
  9  5  1  0
  9  7  1  0
 10 13  1  0
 13 11  1  0
 13 12  1  0
 15 14  1  0
 16 27  2  0
 17 15  1  0
 17 22  1  0
 18 26  1  0
 18 28  1  0
 19 25  1  0
 19 21  1  0
 20 26  1  0
 21 22  2  0
 21 20  1  0
 23 17  2  0
 24 23  1  0
 24 19  2  0
 25 18  1  0
 26 16  1  0
 28 30  2  0
 29 28  1  0
 31 29  1  0
 32 41  2  0
 32 37  1  0
 33 29  1  0
 34 33  1  0
 35 36  1  0
 35 34  1  0
 36 32  1  0
 37 33  1  0
 37 38  2  0
 38 39  1  0
 40 39  2  0
 41 40  1  0
 42 16  1  0
 42 43  1  0
 42 52  1  0
 43 46  1  0
 44 48  1  0
 44 43  1  0
 45 44  2  0
 48 47  1  0
 50 48  1  0
 50 51  1  0
 50 49  1  0
 52 55  1  1
 52 53  1  0
 54 52  1  0
 57 66  1  0
 57 56  2  0
 58 66  1  0
 59 64  1  0
 60 61  1  0
 60 59  1  0
 62 61  1  0
 62 71  1  0
 62 63  1  0
 64 58  1  0
 64 63  1  0
 65 58  2  0
 66 67  1  0
 68 69  2  0
 69 88  1  0
 70 69  1  0
 70 73  1  0
 71 72  1  0
 71 68  1  0
 72 70  2  0
 73 74  1  0
 74 75  2  0
 76 79  1  0
 76 75  1  0
 77 76  2  0
 78 77  1  0
 78 73  2  0
 79 80  1  0
 80 81  1  0
 81 82  2  0
 83 82  1  0
 83 87  1  0
 84 83  2  0
 85 80  2  0
 85 84  1  0
 86 85  1  0
 88 89  1  0
 89 92  1  0
 89 91  1  0
 90 88  2  0
 93 94  1  0
 93 68  1  0
 95 93  1  0
M  ISO  4  14 101  15 101  58 100  66 100
M  END
>  <TORSDO>  (1) 
F 22

>  <SCORE>  (1) 
-12.542

>  <name>  (1) 
0

>  <ligand_id>  (1) 
0

>  <original_smiles>  (1) 
[H]c1c([H])c([H])c2c(c1[H])C([H])([H])C([H])([H])C([H])([H])C2([H])N([H])C(=O)C1([H])N(C(=O)C([H])(N([H])C(=O)C([H])(N([H])C([H])([H])[H])C([H])([H])[H])C(C([H])([H])[H])(C([H])([H])[H])C([H])([H])[H])C([H])([H])c2c([H])c(OC([H])([H])c3c(C([H])(C([H])([H])[H])C([H])([H])[H])nc(C([H])([H])C([H])([H])N([H])C(=O)N4C([H])([H])C([H])([H])C([H])([H])C([H])(n5nc(-c6c([H])c([H])c(Oc7c([H])c([H])c(F)c([H])c7F)c([H])c6[H])c(C(=O)N([H])[H])c5N([H])[H])C4([H])[H])c(C([H])([H])C([H])(C([H])([H])[H])C([H])([H])[H])c3[H])c([H])c([H])c2C1([H])[H]

>  <smiles>  (1) 
[H]c1c([H])c([H])c2c(c1[H])C([H])([H])C([H])([H])C([H])([H])C2([H])N([H])C(=O)C1([H])N(C(=O)C([H])(N([H])C(=O)C([H])(N([H])C([H])([H])[H])C([H])([H])[H])C(C([H])([H])[H])(C([H])([H])[H])C([H])([H])[H])C([H])([H])c2c([H])c(OC([H])([H])c3c(C([H])(C([H])([H])[H])C([H])([H])[H])nc(C([H])([H])C([H])([H])N([H])C(=O)N4C([H])([H])C([H])([H])C([H])([H])C([H])(n5nc(-c6c([H])c([H])c(Oc7c([H])c([H])c(F)c([H])c7F)c([H])c6[H])c(C(=O)N([H])[H])c5N([H])[H])C4([H])[H])c(C([H])([H])C([H])(C([H])([H])[H])C([H])([H])[H])c3[H])c([H])c([H])c2C1([H])[H]

$$$$
1:0:0
     RDKit          3D

 94102  0  0  1  0  0  0  0  0999 V2000
  -29.3700  -19.9760   19.8960 C   0  0  0  0  0  3  0  0  0  0  0  0
  -29.6010  -21.2600   20.4910 C   0  0  0  0  0  0  0  0  0  0  0  0
  -30.0710  -18.9300   20.4750 C   0  0  0  0  0  0  0  0  0  0  0  0
  -30.5690  -20.9700   21.4310 C   0  0  0  0  0  0  0  0  0  0  0  0
  -31.1760  -21.9030   22.4290 C   0  0  0  0  0  1  0  0  0  0  0  0
  -30.9370  -19.5900   21.3690 N   0  0  0  0  0  0  0  0  0  0  0  0
  -28.2720  -17.3780   19.8250 C   0  0  0  0  0  1  0  0  0  0  0  0
  -29.7930  -17.4060   20.1150 C   0  0  0  0  0  3  0  0  0  0  0  0
  -30.7520  -15.0260   20.5230 C   0  0  0  0  0  0  0  0  0  0  0  0
  -30.6120  -12.6720   19.6510 C   0  0  0  0  0  2  0  0  0  0  0  0
  -29.7380  -12.5990   18.3740 C   0  0  0  0  0  2  0  0  0  0  0  0
  -28.2650  -12.3650   18.7570 C   0  0  0  0  0  2  0  0  0  0  0  0
  -27.7980  -13.3580   19.8530 C   0  0  0  0  0  3  0  0  0  0  0  0
  -28.7960  -13.4670   21.0350 C   0  0  0  0  0  2  0  0  0  0  0  0
  -30.1340  -13.7880   20.5120 N   0  0  0  0  0  0  0  0  0  0  0  0
  -31.8780  -15.1490   20.0270 O   0  0  0  0  0  0  0  0  0  0  0  0
  -30.0610  -16.1500   20.9490 N   0  0  0  0  0  0  0  0  0  0  0  0
  -29.3020  -15.9330   21.5800 H   0  0  0  0  0  0  0  0  0  0  0  0
  -25.3890  -13.9810   20.5030 C   0  0  0  0  0  0  0  0  0  0  0  0
  -24.3090  -13.2170   20.8400 C   0  0  0  0  0  0  0  0  0  0  0  0
  -24.7730  -11.8660   20.8430 C   0  0  0  0  0  0  0  0  0  0  0  0
  -26.4380  -13.0970   20.3040 N   0  0  0  0  0  0  0  0  0  0  0  0
  -26.0700  -11.8210   20.5780 N   0  0  0  0  0  0  0  0  0  0  0  0
  -24.0450  -10.6120   21.0290 C   0  0  0  0  0  0  0  0  0  0  0  0
  -24.4480   -9.6610   21.9940 C   0  0  0  0  0  3  0  0  0  0  0  0
  -23.7180   -8.4670   22.1640 C   0  0  0  0  0  3  0  0  0  0  0  0
  -22.5740   -8.2130   21.3710 C   0  0  0  0  0  0  0  0  0  0  0  0
  -22.1930   -9.1540   20.3970 C   0  0  0  0  0  3  0  0  0  0  0  0
  -22.9210  -10.3400   20.2230 C   0  0  0  0  0  3  0  0  0  0  0  0
  -21.8120   -7.0720   21.4550 O   0  0  0  0  0  0  0  0  0  0  0  0
  -21.7190   -6.3560   22.6180 C   0  0  0  0  0  0  0  0  0  0  0  0
  -21.2390   -6.9360   23.8120 C   0  0  0  0  0  3  0  0  0  0  0  0
  -21.0880   -6.1430   24.9680 C   0  0  0  0  0  3  0  0  0  0  0  0
  -21.4090   -4.7730   24.9290 C   0  0  0  0  0  0  0  0  0  0  0  0
  -21.8770   -4.1920   23.7380 C   0  0  0  0  0  3  0  0  0  0  0  0
  -22.0280   -4.9810   22.5850 C   0  0  0  0  0  0  0  0  0  0  0  0
  -22.4630   -4.4130   21.4350 F   0  0  0  0  0  0  0  0  0  0  0  0
  -21.2520   -4.0090   26.0350 F   0  0  0  0  0  0  0  0  0  0  0  0
  -22.9050  -13.6970   21.0600 C   0  0  0  0  0  0  0  0  0  0  0  0
  -22.1540  -13.0190   21.9190 N   0  0  0  0  0  0  0  0  0  0  0  0
  -22.4850  -14.7120   20.5020 O   0  0  0  0  0  0  0  0  0  0  0  0
  -22.5150  -12.2000   22.3860 H   0  0  0  0  0  0  0  0  0  0  0  0
  -21.2070  -13.3160   22.1040 H   0  0  0  0  0  0  0  0  0  0  0  0
  -25.5390  -15.3550   20.3340 N   0  0  0  0  0  0  0  0  0  0  0  0
  -24.7430  -15.9620   20.4960 H   0  0  0  0  0  0  0  0  0  0  0  0
  -26.3790  -15.8710   20.1180 H   0  0  0  0  0  0  0  0  0  0  0  0
  -28.7580  -22.5560   20.1020 C   0  0  0  0  0  2  0  0  0  0  0  0
  -29.1350  -24.1060   20.3460 C   0  0  0  0  0  2  0  0  0  0  0  0
  -28.1030  -25.1660   19.6720 C   0  0  0  0  0  2  0  0  0  0  0  0
  -28.1850  -26.6520   19.8390 O   0  0  0  0  0  0  0  0  0  0  0  0
  -24.5680  -31.9400   23.1420 C   0  0  0  0  0  0  0  0  0  0  0  0
  -27.0400  -27.4870   19.8000 C   0  0  0  0  0  0  0  0  0  0  0  0
  -23.2780  -30.6010   21.5180 C   0  0  0  0  0  3  0  0  0  0  0  0
  -24.6590  -29.1080   19.9510 C   0  0  0  0  0  0  0  0  0  0  0  0
  -25.8030  -30.9260   21.2110 C   0  0  0  0  0  2  0  0  0  0  0  0
  -25.8550  -29.5720   20.5130 C   0  0  0  0  0  0  0  0  0  0  0  0
  -27.0400  -28.7780   20.4230 C   0  0  0  0  0  3  0  0  0  0  0  0
  -25.8200  -27.0940   19.1910 C   0  0  0  0  0  3  0  0  0  0  0  0
  -24.6470  -27.8770   19.2740 C   0  0  0  0  0  3  0  0  0  0  0  0
  -23.4170  -29.9750   20.1050 C   0  0  0  0  0  2  0  0  0  0  0  0
  -24.5730  -31.1680   22.0150 N   0  0  0  0  0  0  0  0  0  0  0  0
  -23.5140  -32.1940   23.7450 O   0  0  0  0  0  0  0  0  0  0  0  0
  -22.6660  -29.5470   22.4760 C   0  0  0  0  0  0  0  0  0  0  0  0
  -21.3390  -29.3520   22.3930 N   0  0  0  0  0  0  0  0  0  0  0  0
  -23.3860  -28.9110   23.2520 O   0  0  0  0  0  0  0  0  0  0  0  0
  -20.8130  -29.9230   21.7460 H   0  0  0  0  0  0  0  0  0  0  0  0
  -18.0160  -28.0380   22.9320 C   0  0  0  0  0  0  0  0  0  0  0  0
  -20.5650  -28.3810   23.1690 C   0  0  0  0  0  3  0  0  0  0  0  0
  -20.7080  -26.9570   22.5810 C   0  0  0  0  0  2  0  0  0  0  0  0
  -19.6060  -26.6040   21.5770 C   0  0  0  0  0  2  0  0  0  0  0  0
  -18.2300  -26.6990   22.2460 C   0  0  0  0  0  2  0  0  0  0  0  0
  -19.1130  -28.8350   23.3530 C   0  0  0  0  0  0  0  0  0  0  0  0
  -18.8600  -30.0880   23.9570 C   0  0  0  0  0  3  0  0  0  0  0  0
  -17.5410  -30.5380   24.1490 C   0  0  0  0  0  3  0  0  0  0  0  0
  -16.4590  -29.7380   23.7500 C   0  0  0  0  0  3  0  0  0  0  0  0
  -16.6960  -28.4900   23.1440 C   0  0  0  0  0  3  0  0  0  0  0  0
  -25.8820  -32.5580   23.7150 C   0  0  0  0  0  3  0  0  0  0  0  0
  -25.5870  -33.9420   24.1100 N   0  0  0  0  0  0  0  0  0  0  0  0
  -25.9140  -35.0260   23.3930 C   0  0  0  0  0  0  0  0  0  0  0  0
  -26.5580  -34.9620   22.3430 O   0  0  0  0  0  0  0  0  0  0  0  0
  -25.0120  -34.0650   24.9300 H   0  0  0  0  0  0  0  0  0  0  0  0
  -24.1940  -36.8530   23.1610 C   0  0  0  0  0  1  0  0  0  0  0  0
  -25.4500  -36.3970   23.9240 C   0  0  0  0  0  3  0  0  0  0  0  0
  -27.6110  -37.2270   24.7450 C   0  0  0  0  0  1  0  0  0  0  0  0
  -26.4890  -37.4480   23.8330 N   0  0  0  0  0  0  0  0  0  0  0  0
  -26.0970  -38.3610   24.0420 H   0  0  0  0  0  0  0  0  0  0  0  0
  -26.4680  -31.7490   24.9370 C   0  0  1  0  0  0  0  0  0  0  0  0
  -25.4330  -31.4650   26.0530 C   0  0  0  0  0  1  0  0  0  0  0  0
  -27.0200  -30.3870   24.4650 C   0  0  0  0  0  1  0  0  0  0  0  0
  -27.6680  -32.5140   25.5470 C   0  0  0  0  0  1  0  0  0  0  0  0
  -31.9930  -18.9600   22.1890 C   0  0  0  0  0  2  0  0  0  0  0  0
  -34.2040  -20.3150   22.6520 C   0  0  0  0  0  1  0  0  0  0  0  0
  -33.7190  -19.5730   20.2860 C   0  0  0  0  0  1  0  0  0  0  0  0
  -33.4850  -19.2520   21.7790 C   0  0  0  0  0  3  0  0  0  0  0  0
  1  3  2  0
  1  2  1  0
  2  4  2  0
  3  6  1  0
  4  5  1  0
  6  4  1  0
  6 91  1  0
  8  7  1  0
  8  3  1  0
  8 17  1  0
  9 17  1  0
 10 15  1  0
 11 12  1  0
 11 10  1  0
 13 12  1  0
 13 22  1  0
 13 14  1  0
 15  9  1  0
 15 14  1  0
 16  9  2  0
 17 18  1  0
 19 20  2  0
 20 21  1  0
 20 39  1  0
 21 24  1  0
 22 19  1  0
 22 23  1  0
 23 21  2  0
 24 25  1  0
 25 26  2  0
 27 30  1  0
 27 26  1  0
 28 27  2  0
 29 28  1  0
 29 24  2  0
 30 31  1  0
 31 32  1  0
 32 33  2  0
 34 33  1  0
 34 38  1  0
 35 34  2  0
 36 31  2  0
 36 35  1  0
 37 36  1  0
 39 40  1  0
 40 43  1  0
 40 42  1  0
 41 39  2  0
 44 45  1  0
 44 19  1  0
 46 44  1  0
 47 48  1  0
 47  2  1  0
 49 50  1  0
 49 48  1  0
 51 62  2  0
 52 50  1  0
 52 57  1  0
 53 61  1  0
 53 63  1  0
 54 60  1  0
 54 56  1  0
 55 61  1  0
 56 55  1  0
 57 56  2  0
 58 59  1  0
 58 52  2  0
 59 54  2  0
 60 53  1  0
 61 51  1  0
 63 65  2  0
 64 63  1  0
 66 64  1  0
 67 76  2  0
 67 72  1  0
 68 64  1  0
 68 72  1  0
 69 68  1  0
 70 71  1  0
 70 69  1  0
 71 67  1  0
 72 73  2  0
 73 74  1  0
 75 74  2  0
 76 75  1  0
 77 51  1  0
 77 78  1  0
 77 87  1  0
 78 81  1  0
 79 83  1  0
 79 78  1  0
 80 79  2  0
 83 82  1  0
 85 83  1  0
 85 86  1  0
 85 84  1  0
 87 90  1  1
 87 88  1  0
 89 87  1  0
 93 94  1  0
 94 91  1  0
 94 92  1  0
M  ISO  4   9 100  17 100  49 101  50 101
M  END
>  <TORSDO>  (2) 
F 22

>  <SCORE>  (2) 
-13.101

>  <name>  (2) 
1

>  <ligand_id>  (2) 
1

>  <original_smiles>  (2) 
[H]c1c([H])c([H])c2c(c1[H])C([H])([H])C([H])([H])C([H])([H])C2([H])N([H])C(=O)C1([H])N(C(=O)C([H])(N([H])C(=O)C([H])(N([H])C([H])([H])[H])C([H])([H])[H])C(C([H])([H])[H])(C([H])([H])[H])C([H])([H])[H])C([H])([H])c2c([H])c(OC([H])([H])C([H])([H])C([H])([H])c3c([H])c(C([H])(N([H])C(=O)N4C([H])([H])C([H])([H])C([H])([H])C([H])(n5nc(-c6c([H])c([H])c(Oc7c([H])c([H])c(F)c([H])c7F)c([H])c6[H])c(C(=O)N([H])[H])c5N([H])[H])C4([H])[H])C([H])([H])[H])n(C([H])([H])C([H])(C([H])([H])[H])C([H])([H])[H])c3C([H])([H])[H])c([H])c([H])c2C1([H])[H]

>  <smiles>  (2) 
[H]c1c([H])c([H])c2c(c1[H])C([H])([H])C([H])([H])C([H])([H])C2([H])N([H])C(=O)C1([H])N(C(=O)C([H])(N([H])C(=O)C([H])(N([H])C([H])([H])[H])C([H])([H])[H])C(C([H])([H])[H])(C([H])([H])[H])C([H])([H])[H])C([H])([H])c2c([H])c(OC([H])([H])C([H])([H])C([H])([H])c3c([H])c(C([H])(N([H])C(=O)N4C([H])([H])C([H])([H])C([H])([H])C([H])(n5nc(-c6c([H])c([H])c(Oc7c([H])c([H])c(F)c([H])c7F)c([H])c6[H])c(C(=O)N([H])[H])c5N([H])[H])C4([H])[H])C([H])([H])[H])n(C([H])([H])C([H])(C([H])([H])[H])C([H])([H])[H])c3C([H])([H])[H])c([H])c([H])c2C1([H])[H]

$$$$
2:0:0
     RDKit          3D

 94 91  0  0  1  0  0  0  0  0999 V2000
  -28.2440  -13.9230   19.2300 C   0  0  0  0  0  3  0  0  0  0  0  0
  -28.0000  -12.7750   18.4310 C   0  0  0  0  0  1  0  0  0  0  0  0
  -28.6360  -13.2370   19.5280 C   0  0  0  0  0  3  0  0  0  0  0  0
  -28.7630  -15.0440   19.8640 C   0  0  0  0  0  0  0  0  0  0  0  0
  -28.5770  -11.7210   17.4700 C   0  0  0  0  0 15  0  0  0  0  0  0
  -29.0130  -11.7040   20.1420 C   0  0  0  0  0  1  0  0  0  0  0  0
  -28.2240  -15.9150   19.1960 N   0  0  0  0  0  2  0  0  0  0  0  0
  -29.0960  -16.2260   20.9550 C   0  0  0  0  0  2  0  0  0  0  0  0
  -30.2070  -18.5080   20.4600 C   0  0  0  0  0  1  0  0  0  0  0  0
  -30.4200  -17.0710   20.9250 C   0  0  0  0  0  3  0  0  0  0  0  0
  -32.5170  -17.5690   22.4750 C   0  0  0  0  0  1  0  0  0  0  0  0
  -31.0870  -16.9910   22.3540 C   0  0  0  0  0  3  0  0  0  0  0  0
  -31.3860  -14.6920   21.9110 C   0  0  0  0  0  0  0  0  0  0  0  0
  -31.0580  -13.8430   19.4250 C   0  0  0  0  0 15  0  0  0  0  0  0
  -29.5730  -14.0420   17.6220 C   0  0  0  0  0 15  0  0  0  0  0  0
  -27.0790  -14.0950   18.0000 C   0  0  0  0  0  1  0  0  0  0  0  0
  -26.6950  -14.0930   20.6050 C   0  0  0  0  0  1  0  0  0  0  0  0
  -28.4550  -13.8360   22.0770 C   0  0  0  0  0 15  0  0  0  0  0  0
  -30.4790  -13.9020   21.4600 N   0  0  0  0  0  1  0  0  0  0  0  0
  -32.4100  -14.8340   21.2690 O   0  0  0  0  0  0  0  0  0  0  0  0
  -31.0220  -15.5950   22.8160 N   0  0  0  0  0  0  0  0  0  0  0  0
  -30.2040  -15.3600   23.3610 H   0  0  0  0  0  0  0  0  0  0  0  0
  -24.5410  -13.6590   20.8890 C   0  0  0  0  0  0  0  0  0  0  0  0
  -23.7590  -12.6630   21.2870 C   0  0  0  0  0  0  0  0  0  0  0  0
  -24.4810  -11.4320   21.1480 C   0  0  0  0  0  3  0  0  0  0  0  0
  -25.7270  -13.0990   20.8180 N   0  0  0  0  0  0  0  0  0  0  0  0
  -25.7620  -11.7150   20.8410 N   0  0  0  0  0  2  0  0  0  0  0  0
  -23.9350  -10.0670   21.2920 C   0  0  0  0  0  0  0  0  0  0  0  0
  -24.3820   -9.1410   22.2610 C   0  0  0  0  0  3  0  0  0  0  0  0
  -23.7230   -7.8990   22.4250 C   0  0  0  0  0  3  0  0  0  0  0  0
  -22.6040   -7.5700   21.6230 C   0  0  0  0  0  0  0  0  0  0  0  0
  -22.1820   -8.4810   20.6410 C   0  0  0  0  0  3  0  0  0  0  0  0
  -22.8440   -9.7080   20.4740 C   0  0  0  0  0  3  0  0  0  0  0  0
  -21.9150   -6.3820   21.6930 O   0  0  0  0  0  0  0  0  0  0  0  0
  -21.7380   -5.7130   22.8760 C   0  0  0  0  0  0  0  0  0  0  0  0
  -21.0470   -6.2920   23.9640 C   0  0  0  0  0  3  0  0  0  0  0  0
  -20.8280   -5.5440   25.1360 C   0  0  0  0  0  3  0  0  0  0  0  0
  -21.2910   -4.2180   25.2240 C   0  0  0  0  0  0  0  0  0  0  0  0
  -21.9690   -3.6340   24.1400 C   0  0  0  0  0  3  0  0  0  0  0  0
  -22.1880   -4.3800   22.9680 C   0  0  0  0  0  0  0  0  0  0  0  0
  -22.8240   -3.8050   21.9180 F   0  0  0  0  0  0  0  0  0  0  0  0
  -21.0780   -3.4990   26.3520 F   0  0  0  0  0  0  0  0  0  0  0  0
  -22.3880  -12.9510   21.7340 C   0  0  0  0  0  0  0  0  0  0  0  0
  -21.9000  -12.1750   22.6810 N   0  0  0  0  0  0  0  0  0  0  0  0
  -21.8070  -13.9550   21.3250 O   0  0  0  0  0  0  0  0  0  0  0  0
  -22.4250  -11.3830   23.0190 H   0  0  0  0  0  0  0  0  0  0  0  0
  -20.9870  -12.3670   23.0710 H   0  0  0  0  0  0  0  0  0  0  0  0
  -24.3520  -15.0320   20.6690 N   0  0  0  0  0  0  0  0  0  0  0  0
  -23.4250  -15.4360   20.7270 H   0  0  0  0  0  0  0  0  0  0  0  0
  -25.0480  -15.6660   20.2970 H   0  0  0  0  0  0  0  0  0  0  0  0
  -27.7500  -17.9720   18.8790 C   0  0  0  0  0 15  0  0  0  0  0  0
  -27.9770  -20.2680   19.2500 C   0  0  0  0  0 15  0  0  0  0  0  0
  -27.3340  -22.5030   19.1140 C   0  0  0  0  0 15  0  0  0  0  0  0
  -27.5380  -24.5630   19.3610 O   0  0  0  0  0  1  0  0  0  0  0  0
  -24.4680  -31.6690   22.6690 C   0  0  0  0  0  0  0  0  0  0  0  0
  -26.7480  -26.0960   19.4710 C   0  0  0  0  0  0  0  0  0  0  0  0
  -23.2490  -30.2600   21.0920 C   0  0  0  0  0  3  0  0  0  0  0  0
  -24.6190  -28.5300   19.6130 C   0  0  0  0  0  0  0  0  0  0  0  0
  -25.8440  -30.2220   20.9280 C   0  0  0  0  0  2  0  0  0  0  0  0
  -25.8560  -28.7380   20.2280 C   0  0  0  0  0  0  0  0  0  0  0  0
  -26.8840  -27.5620   20.1230 C   0  0  0  0  0  3  0  0  0  0  0  0
  -25.4840  -26.2630   18.8250 C   0  0  0  0  0  3  0  0  0  0  0  0
  -24.5060  -27.3270   18.8910 C   0  0  0  0  0  3  0  0  0  0  0  0
  -23.4530  -29.5530   19.7180 C   0  0  0  0  0  2  0  0  0  0  0  0
  -24.5580  -30.7660   21.6130 N   0  0  0  0  0  0  0  0  0  0  0  0
  -23.3800  -31.9810   23.1910 O   0  0  0  0  0  0  0  0  0  0  0  0
  -22.5400  -29.3100   22.0970 C   0  0  0  0  0  0  0  0  0  0  0  0
  -21.1980  -29.1770   22.0380 N   0  0  0  0  0  0  0  0  0  0  0  0
  -23.2190  -28.6860   22.9160 O   0  0  0  0  0  0  0  0  0  0  0  0
  -20.6880  -29.7290   21.3630 H   0  0  0  0  0  0  0  0  0  0  0  0
  -17.8440  -27.9330   22.7130 C   0  0  0  0  0  0  0  0  0  0  0  0
  -20.4100  -28.2340   22.8470 C   0  0  0  0  0  3  0  0  0  0  0  0
  -20.4960  -26.8030   22.2650 C   0  0  0  0  0  2  0  0  0  0  0  0
  -19.3500  -26.4760   21.3000 C   0  0  0  0  0  2  0  0  0  0  0  0
  -18.0010  -26.5970   22.0100 C   0  0  0  0  0  2  0  0  0  0  0  0
  -18.9720  -28.7110   23.0910 C   0  0  0  0  0  0  0  0  0  0  0  0
  -18.7610  -29.9580   23.7180 C   0  0  0  0  0  3  0  0  0  0  0  0
  -17.4570  -30.4280   23.9670 C   0  0  0  0  0  3  0  0  0  0  0  0
  -16.3450  -29.6520   23.5970 C   0  0  0  0  0  3  0  0  0  0  0  0
  -16.5410  -28.4050   22.9760 C   0  0  0  0  0  3  0  0  0  0  0  0
  -25.7190  -32.3710   23.2810 C   0  0  0  0  0  3  0  0  0  0  0  0
  -25.3410  -33.7390   23.7130 N   0  0  0  0  0  0  0  0  0  0  0  0
  -25.6910  -34.8830   23.1020 C   0  0  0  0  0  0  0  0  0  0  0  0
  -26.4060  -34.8980   22.0970 O   0  0  0  0  0  0  0  0  0  0  0  0
  -24.6970  -33.8000   24.4890 H   0  0  0  0  0  0  0  0  0  0  0  0
  -23.9650  -36.7130   22.8750 C   0  0  0  0  0  1  0  0  0  0  0  0
  -25.1730  -36.2170   23.6880 C   0  0  0  0  0  3  0  0  0  0  0  0
  -27.2490  -37.0380   24.7160 C   0  0  0  0  0  1  0  0  0  0  0  0
  -26.1970  -37.2860   23.7340 N   0  0  0  0  0  0  0  0  0  0  0  0
  -25.7710  -38.1840   23.9460 H   0  0  0  0  0  0  0  0  0  0  0  0
  -26.3120  -31.5910   24.5220 C   0  0  1  0  0  0  0  0  0  0  0  0
  -25.2670  -31.2880   25.6230 C   0  0  0  0  0  1  0  0  0  0  0  0
  -26.9280  -30.2440   24.0950 C   0  0  0  0  0  1  0  0  0  0  0  0
  -27.4610  -32.4090   25.1560 C   0  0  0  0  0  1  0  0  0  0  0  0
  1 16  1  0
  1  3  1  0
  1  4  1  0
  2  3  1  0
  3  6  1  0
  4  8  1  0
  7  4  2  0
 10  9  1  0
 10  8  1  0
 10 12  1  0
 12 11  1  0
 12 21  1  0
 13 21  1  0
 17 26  1  0
 19 13  1  0
 20 13  2  0
 21 22  1  0
 23 24  2  0
 24 43  1  0
 25 24  1  0
 25 28  1  0
 26 27  1  0
 26 23  1  0
 27 25  1  0
 28 29  1  0
 29 30  2  0
 31 34  1  0
 31 30  1  0
 32 31  2  0
 33 32  1  0
 33 28  2  0
 34 35  1  0
 35 40  2  0
 35 36  1  0
 36 37  2  0
 37 38  1  0
 38 42  1  0
 39 38  2  0
 40 39  1  0
 41 40  1  0
 43 44  1  0
 44 46  1  0
 44 47  1  0
 45 43  2  0
 48 49  1  0
 48 23  1  0
 50 48  1  0
 54 56  1  0
 55 66  2  0
 56 61  1  0
 57 65  1  0
 57 67  1  0
 58 64  1  0
 58 60  1  0
 59 65  1  0
 60 59  1  0
 61 60  2  0
 62 63  1  0
 62 56  2  0
 63 58  2  0
 64 57  1  0
 65 55  1  0
 67 69  2  0
 68 67  1  0
 70 68  1  0
 71 80  2  0
 71 76  1  0
 72 68  1  0
 72 76  1  0
 73 72  1  0
 74 75  1  0
 74 73  1  0
 75 71  1  0
 76 77  2  0
 77 78  1  0
 79 78  2  0
 80 79  1  0
 81 55  1  0
 81 82  1  0
 81 91  1  0
 82 85  1  0
 83 87  1  0
 83 82  1  0
 84 83  2  0
 87 86  1  0
 87 89  1  0
 89 90  1  0
 89 88  1  0
 91 94  1  1
 91 92  1  0
 93 91  1  0
M  ISO  4  13 100  21 100  53 101  54 101
M  END
>  <TORSDO>  (3) 
F 22

>  <SCORE>  (3) 
-6.442

>  <name>  (3) 
2

>  <ligand_id>  (3) 
2

>  <original_smiles>  (3) 
[H]c1c([H])c([H])c2c(c1[H])C([H])([H])C([H])([H])C([H])([H])C2([H])N([H])C(=O)C1([H])N(C(=O)C([H])(N([H])C(=O)C([H])(N([H])C([H])([H])[H])C([H])([H])[H])C(C([H])([H])[H])(C([H])([H])[H])C([H])([H])[H])C([H])([H])c2c([H])c(OC([H])([H])C([H])([H])C([H])([H])n3c([H])c(C([H])([H])[H])c(C([H])([H])[H])c3C([H])([H])C([H])(C([H])([H])[H])C([H])(N([H])C(=O)N3C([H])([H])C([H])([H])C([H])([H])C([H])(n4nc(-c5c([H])c([H])c(Oc6c([H])c([H])c(F)c([H])c6F)c([H])c5[H])c(C(=O)N([H])[H])c4N([H])[H])C3([H])[H])C([H])([H])[H])c([H])c([H])c2C1([H])[H]

>  <smiles>  (3) 
[H]c1c([H])c([H])c2c(c1[H])C([H])([H])C([H])([H])C([H])([H])C2([H])N([H])C(=O)C1([H])N(C(=O)C([H])(N([H])C(=O)C([H])(N([H])C([H])([H])[H])C([H])([H])[H])C(C([H])([H])[H])(C([H])([H])[H])C([H])([H])[H])C([H])([H])c2c([H])c(OC([H])([H])C([H])([H])C([H])([H])n3c([H])c(C([H])([H])[H])c(C([H])([H])[H])c3C([H])([H])C([H])(C([H])([H])[H])C([H])(N([H])C(=O)N3C([H])([H])C([H])([H])C([H])([H])C([H])(n4nc(-c5c([H])c([H])c(Oc6c([H])c([H])c(F)c([H])c6F)c([H])c5[H])c(C(=O)N([H])[H])c4N([H])[H])C3([H])[H])C([H])([H])[H])c([H])c([H])c2C1([H])[H]

$$$$
3:0:0
     RDKit          3D

 91 99  0  0  1  0  0  0  0  0999 V2000
  -27.3330  -19.8280   20.1300 C   0  0  0  0  0  3  0  0  0  0  0  0
  -27.9730  -21.0690   20.1930 C   0  0  0  0  0  3  0  0  0  0  0  0
  -28.0520  -18.6460   20.4310 C   0  0  0  0  0  0  0  0  0  0  0  0
  -29.3090  -21.1490   20.5860 C   0  0  0  0  0  0  0  0  0  0  0  0
  -29.4590  -18.6850   20.6530 C   0  0  0  0  0  0  0  0  0  0  0  0
  -27.2460  -17.3560   20.5640 C   0  0  0  0  0  1  0  0  0  0  0  0
  -30.0370  -19.9600   20.7620 N   0  0  0  0  0  0  0  0  0  0  0  0
  -31.7290  -17.5390   21.4130 C   0  0  0  0  0  1  0  0  0  0  0  0
  -30.2860  -17.3050   20.9260 C   0  0  0  0  0  0  0  0  0  0  0  0
  -30.9380  -14.8820   19.8490 C   0  0  0  0  0  0  0  0  0  0  0  0
  -30.7200  -12.5310   18.9280 C   0  0  0  0  0  2  0  0  0  0  0  0
  -29.7420  -12.5270   17.7330 C   0  0  0  0  0  2  0  0  0  0  0  0
  -28.2930  -12.3360   18.2290 C   0  0  0  0  0  2  0  0  0  0  0  0
  -27.9640  -13.3000   19.4040 C   0  0  0  0  0  3  0  0  0  0  0  0
  -29.0580  -13.2980   20.4980 C   0  0  0  0  0  2  0  0  0  0  0  0
  -30.3160  -13.6420   19.8280 N   0  0  0  0  0  0  0  0  0  0  0  0
  -32.1120  -14.9510   19.4630 O   0  0  0  0  0  0  0  0  0  0  0  0
  -30.1560  -16.0450   20.0090 N   0  0  0  0  0  4  0  0  0  0  0  0
  -29.7160  -16.2860   19.1180 H   0  0  0  0  0  0  0  0  0  0  0  0
  -25.6670  -13.9360   20.3330 C   0  0  0  0  0  0  0  0  0  0  0  0
  -24.6240  -13.1990   20.8060 C   0  0  0  0  0  0  0  0  0  0  0  0
  -25.0240  -11.8380   20.6650 C   0  0  0  0  0  0  0  0  0  0  0  0
  -26.6530  -13.0390   19.9750 N   0  0  0  0  0  0  0  0  0  0  0  0
  -26.2760  -11.7610   20.2300 N   0  0  0  0  0  0  0  0  0  0  0  0
  -24.2550  -10.6100   20.8460 C   0  0  0  0  0  0  0  0  0  0  0  0
  -24.6110   -9.6610   21.8280 C   0  0  0  0  0  3  0  0  0  0  0  0
  -23.8400   -8.4930   21.9960 C   0  0  0  0  0  3  0  0  0  0  0  0
  -22.7030   -8.2700   21.1850 C   0  0  0  0  0  0  0  0  0  0  0  0
  -22.3660   -9.2060   20.1930 C   0  0  0  0  0  3  0  0  0  0  0  0
  -23.1370  -10.3680   20.0210 C   0  0  0  0  0  3  0  0  0  0  0  0
  -21.9110   -7.1510   21.2610 O   0  0  0  0  0  0  0  0  0  0  0  0
  -21.6460   -6.5360   22.4580 C   0  0  0  0  0  0  0  0  0  0  0  0
  -21.0210   -7.2150   23.5270 C   0  0  0  0  0  3  0  0  0  0  0  0
  -20.7090   -6.5240   24.7140 C   0  0  0  0  0  3  0  0  0  0  0  0
  -21.0130   -5.1550   24.8350 C   0  0  0  0  0  0  0  0  0  0  0  0
  -21.6330   -4.4770   23.7700 C   0  0  0  0  0  3  0  0  0  0  0  0
  -21.9480   -5.1660   22.5860 C   0  0  0  0  0  0  0  0  0  0  0  0
  -22.5270   -4.5020   21.5570 F   0  0  0  0  0  0  0  0  0  0  0  0
  -20.7050   -4.4900   25.9720 F   0  0  0  0  0  0  0  0  0  0  0  0
  -23.2920  -13.7300   21.2530 C   0  0  0  0  0  0  0  0  0  0  0  0
  -22.6300  -13.0230   22.1610 N   0  0  0  0  0  0  0  0  0  0  0  0
  -22.8550  -14.7980   20.8320 O   0  0  0  0  0  0  0  0  0  0  0  0
  -23.0100  -12.1510   22.5010 H   0  0  0  0  0  0  0  0  0  0  0  0
  -21.7410  -13.3470   22.5130 H   0  0  0  0  0  0  0  0  0  0  0  0
  -25.8140  -15.2920   20.1570 N   0  0  0  0  0  0  0  0  0  0  0  0
  -25.0370  -15.9130   20.3640 H   0  0  0  0  0  0  0  0  0  0  0  0
  -26.5850  -15.7550   19.6930 H   0  0  0  0  0  0  0  0  0  0  0  0
  -29.8550  -22.6050   20.9490 C   0  0  0  0  0  2  0  0  0  0  0  0
  -29.3840  -23.9910   20.2060 C   0  0  0  0  0  2  0  0  0  0  0  0
  -28.2690  -25.0700   20.6920 C   0  0  0  0  0  2  0  0  0  0  0  0
  -28.3920  -26.4760   20.1510 O   0  0  0  0  0  0  0  0  0  0  0  0
  -24.4520  -31.7210   23.1330 C   0  0  0  0  0  0  0  0  0  0  0  0
  -27.2610  -27.3200   20.0600 C   0  0  0  0  0  0  0  0  0  0  0  0
  -23.3280  -30.3660   21.3940 C   0  0  0  0  0  3  0  0  0  0  0  0
  -24.8740  -28.9250   19.9300 C   0  0  0  0  0  0  0  0  0  0  0  0
  -25.8640  -30.7490   21.3200 C   0  0  0  0  0  2  0  0  0  0  0  0
  -26.0030  -29.4070   20.6090 C   0  0  0  0  0  0  0  0  0  0  0  0
  -27.1950  -28.6190   20.6510 C   0  0  0  0  0  3  0  0  0  0  0  0
  -26.1210  -26.9040   19.3330 C   0  0  0  0  0  3  0  0  0  0  0  0
  -24.9470  -27.6890   19.2660 C   0  0  0  0  0  3  0  0  0  0  0  0
  -23.6080  -29.7640   19.9890 C   0  0  0  0  0  2  0  0  0  0  0  0
  -24.5560  -30.9720   22.0040 N   0  0  0  0  0  0  0  0  0  0  0  0
  -23.3420  -31.9480   23.6420 O   0  0  0  0  0  0  0  0  0  0  0  0
  -22.6640  -29.2990   22.2910 C   0  0  0  0  0  0  0  0  0  0  0  0
  -21.3360  -29.1350   22.1550 N   0  0  0  0  0  0  0  0  0  0  0  0
  -23.3360  -28.6330   23.0810 O   0  0  0  0  0  0  0  0  0  0  0  0
  -20.8380  -29.7960   21.5880 H   0  0  0  0  0  0  0  0  0  0  0  0
  -17.9500  -27.8990   22.6050 C   0  0  0  0  0  0  0  0  0  0  0  0
  -20.5190  -28.1440   22.8680 C   0  0  0  0  0  3  0  0  0  0  0  0
  -20.6160  -26.7550   22.1910 C   0  0  0  0  0  2  0  0  0  0  0  0
  -19.4840  -26.4870   21.1820 C   0  0  0  0  0  2  0  0  0  0  0  0
  -18.1200  -26.5940   21.8480 C   0  0  0  0  0  2  0  0  0  0  0  0
  -19.0830  -28.6320   23.0650 C   0  0  0  0  0  0  0  0  0  0  0  0
  -18.8650  -29.8590   23.7370 C   0  0  0  0  0  3  0  0  0  0  0  0
  -17.5690  -30.3420   23.9590 C   0  0  0  0  0  3  0  0  0  0  0  0
  -16.4540  -29.6110   23.5050 C   0  0  0  0  0  3  0  0  0  0  0  0
  -16.6570  -28.3900   22.8360 C   0  0  0  0  0  3  0  0  0  0  0  0
  -25.7000  -32.3490   23.8250 C   0  0  0  0  0  3  0  0  0  0  0  0
  -26.1720  -31.5620   25.1070 C   0  0  1  0  0  0  0  0  0  0  0  0
  -25.0410  -31.2970   26.1240 C   0  0  0  0  0  1  0  0  0  0  0  0
  -26.7850  -30.1950   24.7270 C   0  0  0  0  0  1  0  0  0  0  0  0
  -27.2980  -32.3570   25.8150 C   0  0  0  0  0  1  0  0  0  0  0  0
  -25.3650  -33.7380   24.1630 N   0  0  0  0  0  0  0  0  0  0  0  0
  -25.7220  -34.8100   23.4510 C   0  0  0  0  0  0  0  0  0  0  0  0
  -26.4400  -34.7310   22.4470 O   0  0  0  0  0  0  0  0  0  0  0  0
  -24.7100  -33.8680   24.9210 H   0  0  0  0  0  0  0  0  0  0  0  0
  -23.9880  -36.5980   23.0560 C   0  0  0  0  0  1  0  0  0  0  0  0
  -25.2000  -36.1870   23.9090 C   0  0  0  0  0  3  0  0  0  0  0  0
  -27.2820  -37.0760   24.8570 C   0  0  0  0  0  1  0  0  0  0  0  0
  -26.2270  -37.2530   23.8660 N   0  0  0  0  0  0  0  0  0  0  0  0
  -25.8060  -38.1650   24.0190 H   0  0  0  0  0  0  0  0  0  0  0  0
  1  2  2  0
  1  3  1  0
  2  4  1  0
  3  6  1  0
  3  5  2  0
  4  7  2  0
  4 48  1  0
  5  7  1  0
  5  9  1  0
  9  8  1  0
 10 18  1  0
 11 16  1  0
 12 13  1  0
 12 11  1  0
 14 13  1  0
 14 23  1  0
 14 15  1  0
 16 10  1  0
 16 15  1  0
 17 10  2  0
 18  9  2  0
 19 18  1  0
 20 21  2  0
 21 40  1  0
 22 21  1  0
 22 25  1  0
 23 24  1  0
 23 20  1  0
 24 22  2  0
 25 26  1  0
 26 27  2  0
 28 31  1  0
 28 27  1  0
 29 28  2  0
 30 29  1  0
 30 25  2  0
 31 32  1  0
 32 37  2  0
 32 33  1  0
 33 34  2  0
 34 35  1  0
 35 39  1  0
 36 35  2  0
 37 36  1  0
 38 37  1  0
 40 41  1  0
 41 43  1  0
 41 44  1  0
 42 40  2  0
 45 20  1  0
 45 46  1  0
 47 45  1  0
 49 50  1  0
 49 48  1  0
 51 50  1  0
 52 63  2  0
 53 51  1  0
 53 58  1  0
 54 62  1  0
 54 64  1  0
 55 61  1  0
 55 57  1  0
 56 62  1  0
 57 58  2  0
 57 56  1  0
 59 53  2  0
 60 59  1  0
 60 55  2  0
 61 54  1  0
 62 52  1  0
 64 66  2  0
 65 64  1  0
 67 65  1  0
 68 77  2  0
 68 73  1  0
 69 65  1  0
 69 73  1  0
 70 69  1  0
 71 72  1  0
 71 70  1  0
 72 68  1  0
 73 74  2  0
 74 75  1  0
 76 75  2  0
 77 76  1  0
 78 52  1  0
 78 83  1  0
 78 79  1  0
 79 82  1  1
 79 80  1  0
 81 79  1  0
 83 86  1  0
 84 88  1  0
 84 83  1  0
 85 84  2  0
 88 87  1  0
 90 88  1  0
 90 91  1  0
 90 89  1  0
M  ISO  4  10 100  18 100  50 101  51 101
M  END
>  <TORSDO>  (4) 
F 20

>  <SCORE>  (4) 
-12.542

>  <name>  (4) 
3

>  <ligand_id>  (4) 
3

>  <original_smiles>  (4) 
[H]c1c(C([H])([H])C([H])([H])C([H])([H])Oc2c([H])c([H])c3c(c2[H])C([H])([H])N(C(=O)C([H])(N([H])C(=O)C([H])(N([H])C([H])([H])[H])C([H])([H])[H])C(C([H])([H])[H])(C([H])([H])[H])C([H])([H])[H])C([H])(C(=O)N([H])C2([H])c4c([H])c([H])c([H])c([H])c4C([H])([H])C([H])([H])C2([H])[H])C3([H])[H])nc(C([H])(N([H])C(=O)N2C([H])([H])C([H])([H])C([H])([H])C([H])(n3nc(-c4c([H])c([H])c(Oc5c([H])c([H])c(F)c([H])c5F)c([H])c4[H])c(C(=O)N([H])[H])c3N([H])[H])C2([H])[H])C([H])([H])[H])c(C([H])([H])[H])c1[H]

>  <smiles>  (4) 
[H]c1c(C([H])([H])C([H])([H])C([H])([H])Oc2c([H])c([H])c3c(c2[H])C([H])([H])N(C(=O)C([H])(N([H])C(=O)C([H])(N([H])C([H])([H])[H])C([H])([H])[H])C(C([H])([H])[H])(C([H])([H])[H])C([H])([H])[H])C([H])(C(=O)N([H])C2([H])c4c([H])c([H])c([H])c([H])c4C([H])([H])C([H])([H])C2([H])[H])C3([H])[H])nc(C([H])(N([H])C(=O)N2C([H])([H])C([H])([H])C([H])([H])C([H])(n3nc(-c4c([H])c([H])c(Oc5c([H])c([H])c(F)c([H])c5F)c([H])c4[H])c(C(=O)N([H])[H])c3N([H])[H])C2([H])[H])C([H])([H])[H])c(C([H])([H])[H])c1[H]

$$$$
4:0:0
     RDKit          3D

 95103  0  0  1  0  0  0  0  0999 V2000
  -28.3280  -24.0830   20.4120 C   0  0  0  0  0  0  0  0  0  0  0  0
  -27.5230  -24.1310   21.6000 C   0  0  0  0  0  0  0  0  0  0  0  0
  -28.8840  -22.7670   20.4650 C   0  0  0  0  0  0  0  0  0  0  0  0
  -26.6890  -25.2430   22.1740 C   0  0  0  0  0  1  0  0  0  0  0  0
  -28.6430  -20.9050   22.2270 C   0  0  0  0  0  1  0  0  0  0  0  0
  -27.5490  -23.0130   22.2900 N   0  0  0  0  0  0  0  0  0  0  0  0
  -28.3800  -22.1990   21.6280 N   0  0  0  0  0  0  0  0  0  0  0  0
  -28.4210  -25.2960   19.3930 C   0  0  0  0  0  2  0  0  0  0  0  0
  -28.3650  -26.7240   19.8610 O   0  0  0  0  0  0  0  0  0  0  0  0
  -24.6240  -31.9170   23.1930 C   0  0  0  0  0  0  0  0  0  0  0  0
  -27.2270  -27.5580   19.8200 C   0  0  0  0  0  0  0  0  0  0  0  0
  -23.4020  -30.5970   21.5000 C   0  0  0  0  0  3  0  0  0  0  0  0
  -24.8410  -29.1510   19.9480 C   0  0  0  0  0  0  0  0  0  0  0  0
  -25.9320  -30.9580   21.2800 C   0  0  0  0  0  2  0  0  0  0  0  0
  -26.0150  -29.6180   20.5510 C   0  0  0  0  0  0  0  0  0  0  0  0
  -27.2050  -28.8330   20.4780 C   0  0  0  0  0  3  0  0  0  0  0  0
  -26.0320  -27.1550   19.1840 C   0  0  0  0  0  3  0  0  0  0  0  0
  -24.8530  -27.9280   19.2560 C   0  0  0  0  0  3  0  0  0  0  0  0
  -23.5930  -30.0030   20.0780 C   0  0  0  0  0  2  0  0  0  0  0  0
  -24.6730  -31.1730   22.0480 N   0  0  0  0  0  0  0  0  0  0  0  0
  -23.5500  -32.1490   23.7660 O   0  0  0  0  0  0  0  0  0  0  0  0
  -22.7740  -29.5200   22.4170 C   0  0  0  0  0  0  0  0  0  0  0  0
  -21.4530  -29.3100   22.2860 N   0  0  0  0  0  0  0  0  0  0  0  0
  -23.4740  -28.8780   23.2040 O   0  0  0  0  0  0  0  0  0  0  0  0
  -20.9440  -29.8840   21.6280 H   0  0  0  0  0  0  0  0  0  0  0  0
  -18.1250  -27.9520   22.7000 C   0  0  0  0  0  0  0  0  0  0  0  0
  -20.6660  -28.3130   23.0160 C   0  0  0  0  0  3  0  0  0  0  0  0
  -20.8380  -26.9070   22.3960 C   0  0  0  0  0  2  0  0  0  0  0  0
  -19.7650  -26.5700   21.3560 C   0  0  0  0  0  2  0  0  0  0  0  0
  -18.3700  -26.6340   21.9840 C   0  0  0  0  0  2  0  0  0  0  0  0
  -19.2040  -28.7470   23.1710 C   0  0  0  0  0  0  0  0  0  0  0  0
  -18.9240  -29.9790   23.8010 C   0  0  0  0  0  3  0  0  0  0  0  0
  -17.5970  -30.4180   23.9660 C   0  0  0  0  0  3  0  0  0  0  0  0
  -16.5320  -29.6200   23.5130 C   0  0  0  0  0  3  0  0  0  0  0  0
  -16.7970  -28.3890   22.8860 C   0  0  0  0  0  3  0  0  0  0  0  0
  -25.9120  -32.5330   23.8230 C   0  0  0  0  0  3  0  0  0  0  0  0
  -25.6020  -33.9170   24.2070 N   0  0  0  0  0  0  0  0  0  0  0  0
  -25.9250  -35.0000   23.4880 C   0  0  0  0  0  0  0  0  0  0  0  0
  -26.5860  -34.9380   22.4470 O   0  0  0  0  0  0  0  0  0  0  0  0
  -25.0130  -34.0390   25.0190 H   0  0  0  0  0  0  0  0  0  0  0  0
  -24.1880  -36.8020   23.2230 C   0  0  0  0  0  1  0  0  0  0  0  0
  -25.4390  -36.3690   24.0030 C   0  0  0  0  0  3  0  0  0  0  0  0
  -27.5790  -37.2320   24.8430 C   0  0  0  0  0  1  0  0  0  0  0  0
  -26.4670  -37.4290   23.9170 N   0  0  0  0  0  0  0  0  0  0  0  0
  -26.0600  -38.3420   24.1000 H   0  0  0  0  0  0  0  0  0  0  0  0
  -26.4440  -31.7180   25.0660 C   0  0  1  0  0  0  0  0  0  0  0  0
  -25.3630  -31.4360   26.1360 C   0  0  0  0  0  1  0  0  0  0  0  0
  -27.0320  -30.3590   24.6200 C   0  0  0  0  0  1  0  0  0  0  0  0
  -27.5960  -32.4950   25.7460 C   0  0  0  0  0  1  0  0  0  0  0  0
  -29.9480  -21.9210   19.6760 C   0  0  0  0  0  2  0  0  0  0  0  0
  -29.7640  -20.3530   19.2330 C   0  0  0  0  0  3  0  0  0  0  0  0
  -30.2860  -20.2270   17.8550 N   0  0  0  0  0  4  0  0  0  0  0  0
  -31.2830  -20.3520   17.8240 H   0  0  0  0  0  0  0  0  0  0  0  0
  -29.8670  -20.9200   17.2590 H   0  0  0  0  0  0  0  0  0  0  0  0
  -30.0600  -19.3310   17.4630 H   0  0  0  0  0  0  0  0  0  0  0  0
  -30.3620  -19.1080   20.1180 C   0  0  0  0  0  2  0  0  0  0  0  0
  -30.5930  -17.6430   19.4460 C   0  0  0  0  0  2  0  0  0  0  0  0
  -31.3090  -15.2040   20.0920 C   0  0  0  0  0  0  0  0  0  0  0  0
  -31.1180  -12.8710   19.2410 C   0  0  0  0  0  2  0  0  0  0  0  0
  -30.2070  -12.8950   17.9930 C   0  0  0  0  0  2  0  0  0  0  0  0
  -28.7260  -12.7690   18.3970 C   0  0  0  0  0  2  0  0  0  0  0  0
  -28.3400  -13.7250   19.5560 C   0  0  0  0  0  3  0  0  0  0  0  0
  -29.3730  -13.6790   20.7060 C   0  0  0  0  0  2  0  0  0  0  0  0
  -30.6900  -13.9760   20.1300 N   0  0  0  0  0  0  0  0  0  0  0  0
  -32.4810  -15.2960   19.7160 O   0  0  0  0  0  0  0  0  0  0  0  0
  -30.5190  -16.3320   20.2300 N   0  0  0  0  0  0  0  0  0  0  0  0
  -29.6110  -16.1300   20.6220 H   0  0  0  0  0  0  0  0  0  0  0  0
  -25.9550  -14.3880   20.2360 C   0  0  0  0  0  0  0  0  0  0  0  0
  -24.8650  -13.6480   20.6040 C   0  0  0  0  0  0  0  0  0  0  0  0
  -25.2960  -12.2850   20.6020 C   0  0  0  0  0  0  0  0  0  0  0  0
  -26.9810  -13.4800   20.0300 N   0  0  0  0  0  0  0  0  0  0  0  0
  -26.5890  -12.2110   20.3120 N   0  0  0  0  0  0  0  0  0  0  0  0
  -24.5360  -11.0440   20.8020 C   0  0  0  0  0  0  0  0  0  0  0  0
  -24.8820  -10.1200   21.8120 C   0  0  0  0  0  3  0  0  0  0  0  0
  -24.1240   -8.9430   21.9970 C   0  0  0  0  0  3  0  0  0  0  0  0
  -23.0050   -8.6830   21.1720 C   0  0  0  0  0  0  0  0  0  0  0  0
  -22.6780   -9.5950   20.1530 C   0  0  0  0  0  3  0  0  0  0  0  0
  -23.4370  -10.7630   19.9660 C   0  0  0  0  0  3  0  0  0  0  0  0
  -22.2260   -7.5550   21.2610 O   0  0  0  0  0  0  0  0  0  0  0  0
  -22.0130   -6.9210   22.4590 C   0  0  0  0  0  0  0  0  0  0  0  0
  -21.4280   -7.5840   23.5590 C   0  0  0  0  0  3  0  0  0  0  0  0
  -21.1640   -6.8760   24.7490 C   0  0  0  0  0  3  0  0  0  0  0  0
  -21.4750   -5.5060   24.8370 C   0  0  0  0  0  0  0  0  0  0  0  0
  -22.0530   -4.8430   23.7400 C   0  0  0  0  0  3  0  0  0  0  0  0
  -22.3180   -5.5490   22.5540 C   0  0  0  0  0  0  0  0  0  0  0  0
  -22.8560   -4.8990   21.4930 F   0  0  0  0  0  0  0  0  0  0  0  0
  -21.2150   -4.8230   25.9770 F   0  0  0  0  0  0  0  0  0  0  0  0
  -23.4770  -14.1630   20.8490 C   0  0  0  0  0  0  0  0  0  0  0  0
  -22.7230  -13.5030   21.7210 N   0  0  0  0  0  0  0  0  0  0  0  0
  -23.0710  -15.1870   20.3010 O   0  0  0  0  0  0  0  0  0  0  0  0
  -23.0650  -12.6740   22.1840 H   0  0  0  0  0  0  0  0  0  0  0  0
  -21.7920  -13.8320   21.9290 H   0  0  0  0  0  0  0  0  0  0  0  0
  -26.1530  -15.7520   20.0370 N   0  0  0  0  0  0  0  0  0  0  0  0
  -25.3980  -16.4220   20.1240 H   0  0  0  0  0  0  0  0  0  0  0  0
  -27.0080  -16.1640   19.6840 H   0  0  0  0  0  0  0  0  0  0  0  0
  1  3  2  0
  1  2  1  0
  2  4  1  0
  2  6  2  0
  3  7  1  0
  7  5  1  0
  7  6  1  0
  8  9  1  0
  8  1  1  0
 10 21  2  0
 11  9  1  0
 11 16  1  0
 12 20  1  0
 12 22  1  0
 13 19  1  0
 13 15  1  0
 14 20  1  0
 15 14  1  0
 16 15  2  0
 17 18  1  0
 17 11  2  0
 18 13  2  0
 19 12  1  0
 20 10  1  0
 22 24  2  0
 23 22  1  0
 25 23  1  0
 26 35  2  0
 26 31  1  0
 27 23  1  0
 27 31  1  0
 28 27  1  0
 29 30  1  0
 29 28  1  0
 30 26  1  0
 31 32  2  0
 32 33  1  0
 34 33  2  0
 35 34  1  0
 36 10  1  0
 36 37  1  0
 36 46  1  0
 37 40  1  0
 38 42  1  0
 38 37  1  0
 39 38  2  0
 42 41  1  0
 44 42  1  0
 44 45  1  0
 44 43  1  0
 46 49  1  1
 46 47  1  0
 48 46  1  0
 50  3  1  0
 51 50  1  0
 51 56  1  0
 52 51  1  0
 53 52  1  0
 54 52  1  0
 55 52  1  0
 57 56  1  0
 57 66  1  0
 58 64  1  0
 58 66  1  0
 59 64  1  0
 60 61  1  0
 60 59  1  0
 62 61  1  0
 62 71  1  0
 62 63  1  0
 64 63  1  0
 65 58  2  0
 66 67  1  0
 68 69  2  0
 69 88  1  0
 70 69  1  0
 70 73  1  0
 71 68  1  0
 71 72  1  0
 72 70  2  0
 73 74  1  0
 74 75  2  0
 76 79  1  0
 76 75  1  0
 77 76  2  0
 78 77  1  0
 78 73  2  0
 79 80  1  0
 80 85  2  0
 80 81  1  0
 81 82  2  0
 82 83  1  0
 83 87  1  0
 84 83  2  0
 85 84  1  0
 86 85  1  0
 88 89  1  0
 89 92  1  0
 89 91  1  0
 90 88  2  0
 93 94  1  0
 93 68  1  0
 95 93  1  0
M  ISO  4   8 101   9 101  58 100  66 100
M  END
>  <TORSDO>  (5) 
F 22

>  <SCORE>  (5) 
-11.134

>  <name>  (5) 
4

>  <ligand_id>  (5) 
4

>  <original_smiles>  (5) 
[H]c1c([H])c([H])c2c(c1[H])C([H])([H])C([H])([H])C([H])([H])C2([H])N([H])C(=O)C1([H])N(C(=O)C([H])(N([H])C(=O)C([H])(N([H])C([H])([H])[H])C([H])([H])[H])C(C([H])([H])[H])(C([H])([H])[H])C([H])([H])[H])C([H])([H])c2c([H])c(OC([H])([H])c3c(C([H])([H])[H])nn(C([H])([H])[H])c3C([H])([H])C([H])(C([H])([H])C([H])([H])N([H])C(=O)N3C([H])([H])C([H])([H])C([H])([H])C([H])(n4nc(-c5c([H])c([H])c(Oc6c([H])c([H])c(F)c([H])c6F)c([H])c5[H])c(C(=O)N([H])[H])c4N([H])[H])C3([H])[H])[N+]([H])([H])[H])c([H])c([H])c2C1([H])[H]

>  <smiles>  (5) 
[H]c1c([H])c([H])c2c(c1[H])C([H])([H])C([H])([H])C([H])([H])C2([H])N([H])C(=O)C1([H])N(C(=O)C([H])(N([H])C(=O)C([H])(N([H])C([H])([H])[H])C([H])([H])[H])C(C([H])([H])[H])(C([H])([H])[H])C([H])([H])[H])C([H])([H])c2c([H])c(OC([H])([H])c3c(C([H])([H])[H])nn(C([H])([H])[H])c3C([H])([H])C([H])(C([H])([H])C([H])([H])N([H])C(=O)N3C([H])([H])C([H])([H])C([H])([H])C([H])(n4nc(-c5c([H])c([H])c(Oc6c([H])c([H])c(F)c([H])c6F)c([H])c5[H])c(C(=O)N([H])[H])c4N([H])[H])C3([H])[H])[N+]([H])([H])[H])c([H])c([H])c2C1([H])[H]

$$$$
5:0:0
     RDKit          3D

 93101  0  0  1  0  0  0  0  0999 V2000
  -29.7340  -21.4820   20.0670 C   0  0  0  0  0  3  0  0  0  0  0  0
  -29.5640  -20.2040   20.5650 C   0  0  0  0  0  0  0  0  0  0  0  0
  -29.5790  -21.6480   22.2710 C   0  0  0  0  0  3  0  0  0  0  0  0
  -29.5560  -22.1590   23.6780 C   0  0  0  0  0  1  0  0  0  0  0  0
  -29.7300  -22.3550   21.1350 N   0  0  0  0  0  0  0  0  0  0  0  0
  -29.4700  -20.3610   21.9230 N   0  0  0  0  0  0  0  0  0  0  0  0
  -29.3300  -19.6070   22.5870 H   0  0  0  0  0  0  0  0  0  0  0  0
  -29.4560  -18.8510   19.9020 C   0  0  0  0  0  2  0  0  0  0  0  0
  -30.7420  -17.9880   19.9800 C   0  0  0  0  0  2  0  0  0  0  0  0
  -30.8520  -16.9560   21.1360 C   0  0  0  0  0  2  0  0  0  0  0  0
  -31.0130  -14.5950   20.2590 C   0  0  0  0  0  0  0  0  0  0  0  0
  -30.7070  -12.3990   19.1730 C   0  0  0  0  0  2  0  0  0  0  0  0
  -29.7480  -12.5440   17.9730 C   0  0  0  0  0  2  0  0  0  0  0  0
  -28.2780  -12.4270   18.4240 C   0  0  0  0  0  2  0  0  0  0  0  0
  -27.9550  -13.3190   19.6520 C   0  0  0  0  0  3  0  0  0  0  0  0
  -29.0180  -13.1330   20.7570 C   0  0  0  0  0  2  0  0  0  0  0  0
  -30.3360  -13.4190   20.1650 N   0  0  0  0  0  0  0  0  0  0  0  0
  -32.1290  -14.7700   19.7630 O   0  0  0  0  0  0  0  0  0  0  0  0
  -30.3390  -15.6070   20.8380 N   0  0  0  0  0  0  0  0  0  0  0  0
  -29.4180  -15.3800   21.1830 H   0  0  0  0  0  0  0  0  0  0  0  0
  -25.5830  -13.9730   20.4070 C   0  0  0  0  0  0  0  0  0  0  0  0
  -24.5050  -13.2220   20.7910 C   0  0  0  0  0  0  0  0  0  0  0  0
  -24.9370  -11.8610   20.7430 C   0  0  0  0  0  0  0  0  0  0  0  0
  -26.6040  -13.0720   20.1530 N   0  0  0  0  0  0  0  0  0  0  0  0
  -26.2200  -11.7960   20.4110 N   0  0  0  0  0  0  0  0  0  0  0  0
  -24.1870  -10.6130   20.9360 C   0  0  0  0  0  0  0  0  0  0  0  0
  -24.5780   -9.6610   21.9040 C   0  0  0  0  0  3  0  0  0  0  0  0
  -23.8310   -8.4760   22.0840 C   0  0  0  0  0  3  0  0  0  0  0  0
  -22.6800   -8.2370   21.2970 C   0  0  0  0  0  0  0  0  0  0  0  0
  -22.3090   -9.1770   20.3190 C   0  0  0  0  0  3  0  0  0  0  0  0
  -23.0570  -10.3520   20.1370 C   0  0  0  0  0  3  0  0  0  0  0  0
  -21.9080   -7.1030   21.3850 O   0  0  0  0  0  0  0  0  0  0  0  0
  -21.7690   -6.4160   22.5640 C   0  0  0  0  0  0  0  0  0  0  0  0
  -21.2430   -7.0260   23.7240 C   0  0  0  0  0  3  0  0  0  0  0  0
  -21.0530   -6.2650   24.8940 C   0  0  0  0  0  3  0  0  0  0  0  0
  -21.3780   -4.8950   24.9050 C   0  0  0  0  0  0  0  0  0  0  0  0
  -21.8980   -4.2860   23.7490 C   0  0  0  0  0  3  0  0  0  0  0  0
  -22.0890   -5.0440   22.5810 C   0  0  0  0  0  0  0  0  0  0  0  0
  -22.5700   -4.4470   21.4640 F   0  0  0  0  0  0  0  0  0  0  0  0
  -21.1890   -4.1620   26.0270 F   0  0  0  0  0  0  0  0  0  0  0  0
  -23.1230  -13.7270   21.0910 C   0  0  0  0  0  0  0  0  0  0  0  0
  -22.3960  -13.0390   21.9650 N   0  0  0  0  0  0  0  0  0  0  0  0
  -22.6980  -14.7640   20.5850 O   0  0  0  0  0  0  0  0  0  0  0  0
  -22.7540  -12.2000   22.3960 H   0  0  0  0  0  0  0  0  0  0  0  0
  -21.4690  -13.3590   22.2070 H   0  0  0  0  0  0  0  0  0  0  0  0
  -25.7750  -15.3410   20.2340 N   0  0  0  0  0  0  0  0  0  0  0  0
  -25.0210  -16.0090   20.3460 H   0  0  0  0  0  0  0  0  0  0  0  0
  -26.6200  -15.7560   19.8640 H   0  0  0  0  0  0  0  0  0  0  0  0
  -29.9710  -23.8240   21.1450 C   0  0  0  0  0  2  0  0  0  0  0  0
  -29.3730  -24.6640   19.9810 C   0  0  0  0  0  2  0  0  0  0  0  0
  -30.6620  -26.7870   20.7080 C   0  0  0  0  0  1  0  0  0  0  0  0
  -29.3050  -26.1880   20.3110 C   0  0  0  0  0  3  0  0  0  0  0  0
  -28.8530  -26.9680   19.1940 O   0  0  0  0  0  0  0  0  0  0  0  0
  -24.7170  -31.3270   23.0730 C   0  0  0  0  0  0  0  0  0  0  0  0
  -27.6360  -27.5860   19.3720 C   0  0  0  0  0  0  0  0  0  0  0  0
  -23.5750  -29.9910   21.3300 C   0  0  0  0  0  3  0  0  0  0  0  0
  -25.1020  -28.7960   19.6710 C   0  0  0  0  0  0  0  0  0  0  0  0
  -26.0320  -30.6530   21.0640 C   0  0  0  0  0  2  0  0  0  0  0  0
  -26.2290  -29.3800   20.2650 C   0  0  0  0  0  0  0  0  0  0  0  0
  -27.5030  -28.7820   20.1160 C   0  0  0  0  0  3  0  0  0  0  0  0
  -26.4960  -27.0130   18.7780 C   0  0  0  0  0  3  0  0  0  0  0  0
  -25.2290  -27.6100   18.9260 C   0  0  0  0  0  3  0  0  0  0  0  0
  -23.7770  -29.4980   19.8720 C   0  0  0  0  0  2  0  0  0  0  0  0
  -24.7940  -30.6680   21.8820 N   0  0  0  0  0  0  0  0  0  0  0  0
  -23.6470  -31.4120   23.6900 O   0  0  0  0  0  0  0  0  0  0  0  0
  -23.0930  -28.8020   22.1920 C   0  0  0  0  0  0  0  0  0  0  0  0
  -21.8210  -28.4090   22.0120 N   0  0  0  0  0  0  0  0  0  0  0  0
  -23.8610  -28.2380   22.9760 O   0  0  0  0  0  0  0  0  0  0  0  0
  -21.2560  -28.9260   21.3550 H   0  0  0  0  0  0  0  0  0  0  0  0
  -18.7370  -26.5360   22.2110 C   0  0  0  0  0  0  0  0  0  0  0  0
  -21.1640  -27.2890   22.6850 C   0  0  0  0  0  3  0  0  0  0  0  0
  -21.5960  -25.9390   22.0670 C   0  0  0  0  0  2  0  0  0  0  0  0
  -20.6540  -25.4540   20.9610 C   0  0  0  0  0  2  0  0  0  0  0  0
  -19.2310  -25.2850   21.5030 C   0  0  0  0  0  2  0  0  0  0  0  0
  -19.6450  -27.4840   22.7530 C   0  0  0  0  0  0  0  0  0  0  0  0
  -19.1360  -28.6470   23.3700 C   0  0  0  0  0  3  0  0  0  0  0  0
  -17.7490  -28.8680   23.4540 C   0  0  0  0  0  3  0  0  0  0  0  0
  -16.8530  -27.9180   22.9310 C   0  0  0  0  0  3  0  0  0  0  0  0
  -17.3480  -26.7550   22.3150 C   0  0  0  0  0  3  0  0  0  0  0  0
  -25.9630  -32.0250   23.7030 C   0  0  0  0  0  3  0  0  0  0  0  0
  -25.5400  -33.3520   24.1670 N   0  0  0  0  0  0  0  0  0  0  0  0
  -25.7730  -34.4970   23.5120 C   0  0  0  0  0  0  0  0  0  0  0  0
  -26.4420  -34.5510   22.4750 O   0  0  0  0  0  0  0  0  0  0  0  0
  -24.9450  -33.3780   24.9830 H   0  0  0  0  0  0  0  0  0  0  0  0
  -23.8950  -36.1560   23.3280 C   0  0  0  0  0  1  0  0  0  0  0  0
  -25.1710  -35.7880   24.0990 C   0  0  0  0  0  3  0  0  0  0  0  0
  -27.2240  -36.7730   25.0170 C   0  0  0  0  0  1  0  0  0  0  0  0
  -26.1080  -36.9310   24.0890 N   0  0  0  0  0  0  0  0  0  0  0  0
  -25.6240  -37.7940   24.3210 H   0  0  0  0  0  0  0  0  0  0  0  0
  -26.6050  -31.2010   24.8860 C   0  0  1  0  0  0  0  0  0  0  0  0
  -25.5880  -30.7730   25.9690 C   0  0  0  0  0  1  0  0  0  0  0  0
  -27.2930  -29.9240   24.3480 C   0  0  0  0  0  1  0  0  0  0  0  0
  -27.7070  -32.0420   25.5730 C   0  0  0  0  0  1  0  0  0  0  0  0
  1  2  2  0
  1  5  1  0
  2  6  1  0
  3  4  1  0
  5 49  1  0
  5  3  1  0
  6  3  1  0
  6  7  1  0
  8  9  1  0
  8  2  1  0
  9 10  1  0
 11 19  1  0
 12 17  1  0
 13 14  1  0
 13 12  1  0
 15 14  1  0
 15 24  1  0
 15 16  1  0
 17 11  1  0
 17 16  1  0
 18 11  2  0
 19 10  1  0
 19 20  1  0
 21 22  2  0
 22 41  1  0
 23 22  1  0
 23 26  1  0
 24 21  1  0
 24 25  1  0
 25 23  2  0
 26 27  1  0
 27 28  2  0
 29 32  1  0
 29 28  1  0
 30 29  2  0
 31 30  1  0
 31 26  2  0
 32 33  1  0
 33 38  2  0
 33 34  1  0
 34 35  2  0
 35 36  1  0
 36 40  1  0
 37 36  2  0
 38 37  1  0
 39 38  1  0
 41 42  1  0
 42 45  1  0
 42 44  1  0
 43 41  2  0
 46 47  1  0
 46 21  1  0
 48 46  1  0
 50 52  1  0
 50 49  1  0
 52 51  1  0
 53 55  1  0
 53 52  1  0
 54 65  2  0
 55 60  1  0
 56 64  1  0
 56 66  1  0
 57 63  1  0
 57 59  1  0
 58 64  1  0
 59 58  1  0
 60 59  2  0
 61 62  1  0
 61 55  2  0
 62 57  2  0
 63 56  1  0
 64 54  1  0
 66 68  2  0
 67 66  1  0
 69 67  1  0
 70 79  2  0
 70 75  1  0
 71 67  1  0
 71 75  1  0
 72 71  1  0
 73 74  1  0
 73 72  1  0
 74 70  1  0
 75 76  2  0
 76 77  1  0
 78 77  2  0
 79 78  1  0
 80 54  1  0
 80 81  1  0
 80 90  1  0
 81 84  1  0
 82 86  1  0
 82 81  1  0
 83 82  2  0
 86 85  1  0
 88 86  1  0
 88 89  1  0
 88 87  1  0
 90 93  1  1
 90 91  1  0
 92 90  1  0
M  ISO  4  11 100  19 100  52 101  53 101
M  END
>  <TORSDO>  (6) 
F 22

>  <SCORE>  (6) 
-11.281

>  <name>  (6) 
5

>  <ligand_id>  (6) 
5

>  <original_smiles>  (6) 
[H]c1c([H])c([H])c2c(c1[H])C([H])([H])C([H])([H])C([H])([H])C2([H])N([H])C(=O)C1([H])N(C(=O)C([H])(N([H])C(=O)C([H])(N([H])C([H])([H])[H])C([H])([H])[H])C(C([H])([H])[H])(C([H])([H])[H])C([H])([H])[H])C([H])([H])c2c([H])c(OC([H])(C([H])([H])[H])C([H])([H])C([H])([H])n3c([H])c(C([H])([H])C([H])([H])C([H])([H])N([H])C(=O)N4C([H])([H])C([H])([H])C([H])([H])C([H])(n5nc(-c6c([H])c([H])c(Oc7c([H])c([H])c(F)c([H])c7F)c([H])c6[H])c(C(=O)N([H])[H])c5N([H])[H])C4([H])[H])[n+]([H])c3C([H])([H])[H])c([H])c([H])c2C1([H])[H]

>  <smiles>  (6) 
[H]c1c([H])c([H])c2c(c1[H])C([H])([H])C([H])([H])C([H])([H])C2([H])N([H])C(=O)C1([H])N(C(=O)C([H])(N([H])C(=O)C([H])(N([H])C([H])([H])[H])C([H])([H])[H])C(C([H])([H])[H])(C([H])([H])[H])C([H])([H])[H])C([H])([H])c2c([H])c(OC([H])(C([H])([H])[H])C([H])([H])C([H])([H])n3c([H])c(C([H])([H])C([H])([H])C([H])([H])N([H])C(=O)N4C([H])([H])C([H])([H])C([H])([H])C([H])(n5nc(-c6c([H])c([H])c(Oc7c([H])c([H])c(F)c([H])c7F)c([H])c6[H])c(C(=O)N([H])[H])c5N([H])[H])C4([H])[H])[n+]([H])c3C([H])([H])[H])c([H])c([H])c2C1([H])[H]

$$$$
6:0:0
     RDKit          3D

 91 99  0  0  1  0  0  0  0  0999 V2000
  -29.0610  -21.0450   21.4070 C   0  0  0  0  0  3  0  0  0  0  0  0
  -27.9870  -22.0130   19.4850 C   0  0  0  0  0  3  0  0  0  0  0  0
  -28.5900  -22.2020   20.7470 C   0  0  0  0  0  0  0  0  0  0  0  0
  -28.8860  -19.8010   20.7630 C   0  0  0  0  0  0  0  0  0  0  0  0
  -27.8580  -20.7900   18.9130 N   0  0  0  0  0  0  0  0  0  0  0  0
  -28.2980  -19.6970   19.5460 N   0  0  0  0  0  0  0  0  0  0  0  0
  -28.6820  -23.5750   21.4100 C   0  0  0  0  0  2  0  0  0  0  0  0
  -28.8800  -24.7610   20.4440 C   0  0  0  0  0  2  0  0  0  0  0  0
  -29.1890  -26.0810   21.1780 C   0  0  0  0  0  2  0  0  0  0  0  0
  -29.1140  -27.2040   20.3000 O   0  0  0  0  0  0  0  0  0  0  0  0
  -24.7780  -31.9230   23.4070 C   0  0  0  0  0  0  0  0  0  0  0  0
  -27.9000  -27.8430   20.2980 C   0  0  0  0  0  0  0  0  0  0  0  0
  -23.7690  -30.5240   21.6300 C   0  0  0  0  0  3  0  0  0  0  0  0
  -25.4090  -29.1570   20.2330 C   0  0  0  0  0  0  0  0  0  0  0  0
  -26.2670  -31.0660   21.6020 C   0  0  0  0  0  2  0  0  0  0  0  0
  -26.4860  -29.7340   20.9180 C   0  0  0  0  0  0  0  0  0  0  0  0
  -27.7360  -29.0820   20.9540 C   0  0  0  0  0  3  0  0  0  0  0  0
  -26.8150  -27.2760   19.6020 C   0  0  0  0  0  3  0  0  0  0  0  0
  -25.5660  -27.9240   19.5730 C   0  0  0  0  0  3  0  0  0  0  0  0
  -24.1060  -29.9260   20.2380 C   0  0  0  0  0  2  0  0  0  0  0  0
  -24.9520  -31.1840   22.2740 N   0  0  0  0  0  0  0  0  0  0  0  0
  -23.6520  -32.0940   23.8920 O   0  0  0  0  0  0  0  0  0  0  0  0
  -23.1370  -29.4170   22.5020 C   0  0  0  0  0  0  0  0  0  0  0  0
  -21.8280  -29.1840   22.3140 N   0  0  0  0  0  0  0  0  0  0  0  0
  -23.8210  -28.7730   23.3010 O   0  0  0  0  0  0  0  0  0  0  0  0
  -21.3360  -29.7630   21.6460 H   0  0  0  0  0  0  0  0  0  0  0  0
  -18.4820  -27.8750   22.6780 C   0  0  0  0  0  0  0  0  0  0  0  0
  -21.0300  -28.1640   22.9930 C   0  0  0  0  0  3  0  0  0  0  0  0
  -21.1700  -26.7920   22.2930 C   0  0  0  0  0  2  0  0  0  0  0  0
  -20.0810  -26.5340   21.2460 C   0  0  0  0  0  2  0  0  0  0  0  0
  -18.6930  -26.5930   21.8890 C   0  0  0  0  0  2  0  0  0  0  0  0
  -19.5790  -28.6200   23.1840 C   0  0  0  0  0  0  0  0  0  0  0  0
  -19.3290  -29.8220   23.8790 C   0  0  0  0  0  3  0  0  0  0  0  0
  -18.0120  -30.2790   24.0760 C   0  0  0  0  0  3  0  0  0  0  0  0
  -16.9290  -29.5290   23.5880 C   0  0  0  0  0  3  0  0  0  0  0  0
  -17.1640  -28.3290   22.8940 C   0  0  0  0  0  3  0  0  0  0  0  0
  -25.9810  -32.6030   24.1320 C   0  0  0  0  0  3  0  0  0  0  0  0
  -25.6150  -34.0030   24.3810 N   0  0  0  0  0  0  0  0  0  0  0  0
  -25.9880  -35.0350   23.6120 C   0  0  0  0  0  0  0  0  0  0  0  0
  -26.7490  -34.9110   22.6480 O   0  0  0  0  0  0  0  0  0  0  0  0
  -24.9480  -34.1720   25.1200 H   0  0  0  0  0  0  0  0  0  0  0  0
  -24.2470  -36.7590   23.0420 C   0  0  0  0  0  1  0  0  0  0  0  0
  -25.4280  -36.4250   23.9680 C   0  0  0  0  0  3  0  0  0  0  0  0
  -27.4750  -37.3950   24.9190 C   0  0  0  0  0  1  0  0  0  0  0  0
  -26.4400  -37.5030   23.8940 N   0  0  0  0  0  0  0  0  0  0  0  0
  -26.0000  -38.4150   23.9820 H   0  0  0  0  0  0  0  0  0  0  0  0
  -26.3860  -31.8830   25.4770 C   0  0  1  0  0  0  0  0  0  0  0  0
  -25.1910  -31.6100   26.4190 C   0  0  0  0  0  1  0  0  0  0  0  0
  -27.0770  -30.5310   25.1850 C   0  0  0  0  0  1  0  0  0  0  0  0
  -27.4130  -32.7480   26.2460 C   0  0  0  0  0  1  0  0  0  0  0  0
  -29.3410  -18.4990   21.4060 C   0  0  0  0  0  2  0  0  0  0  0  0
  -30.2740  -17.6910   20.4880 C   0  0  0  0  0  2  0  0  0  0  0  0
  -30.7650  -16.3620   21.0910 C   0  0  0  0  0  2  0  0  0  0  0  0
  -31.8950  -14.3560   20.1140 C   0  0  0  0  0  0  0  0  0  0  0  0
  -31.4690  -12.0760   19.3110 C   0  0  0  0  0  2  0  0  0  0  0  0
  -30.5500  -12.1650   18.0730 C   0  0  0  0  0  2  0  0  0  0  0  0
  -29.0660  -12.2010   18.4900 C   0  0  0  0  0  2  0  0  0  0  0  0
  -28.7790  -13.2330   19.6150 C   0  0  0  0  0  3  0  0  0  0  0  0
  -29.8090  -13.0920   20.7570 C   0  0  0  0  0  2  0  0  0  0  0  0
  -31.1490  -13.2230   20.1700 N   0  0  0  0  0  0  0  0  0  0  0  0
  -33.0580  -14.3790   19.7130 O   0  0  0  0  0  0  0  0  0  0  0  0
  -31.1870  -15.4860   20.0010 N   0  0  0  0  0  0  0  0  0  0  0  0
  -31.5890  -16.0420   19.2600 H   0  0  0  0  0  0  0  0  0  0  0  0
  -26.4910  -14.1290   20.3820 C   0  0  0  0  0  0  0  0  0  0  0  0
  -25.3320  -13.4920   20.7350 C   0  0  0  0  0  0  0  0  0  0  0  0
  -25.6080  -12.0940   20.6450 C   0  0  0  0  0  0  0  0  0  0  0  0
  -27.4060  -13.1260   20.1020 N   0  0  0  0  0  0  0  0  0  0  0  0
  -26.8770  -11.8940   20.3160 N   0  0  0  0  0  0  0  0  0  0  0  0
  -24.7210  -10.9320   20.7970 C   0  0  0  0  0  0  0  0  0  0  0  0
  -25.0250   -9.8840   21.6940 C   0  0  0  0  0  3  0  0  0  0  0  0
  -24.1480   -8.7880   21.8360 C   0  0  0  0  0  3  0  0  0  0  0  0
  -22.9530   -8.7320   21.0800 C   0  0  0  0  0  0  0  0  0  0  0  0
  -22.6670   -9.7660   20.1720 C   0  0  0  0  0  3  0  0  0  0  0  0
  -23.5430  -10.8550   20.0270 C   0  0  0  0  0  3  0  0  0  0  0  0
  -22.0550   -7.6940   21.1330 O   0  0  0  0  0  0  0  0  0  0  0  0
  -21.8790   -6.9520   22.2740 C   0  0  0  0  0  0  0  0  0  0  0  0
  -21.5030   -7.5450   23.4980 C   0  0  0  0  0  3  0  0  0  0  0  0
  -21.2640   -6.7370   24.6280 C   0  0  0  0  0  3  0  0  0  0  0  0
  -21.3930   -5.3380   24.5340 C   0  0  0  0  0  0  0  0  0  0  0  0
  -21.7640   -4.7460   23.3140 C   0  0  0  0  0  3  0  0  0  0  0  0
  -22.0040   -5.5500   22.1870 C   0  0  0  0  0  0  0  0  0  0  0  0
  -22.3380   -4.9720   21.0090 F   0  0  0  0  0  0  0  0  0  0  0  0
  -21.1570   -4.5620   25.6180 F   0  0  0  0  0  0  0  0  0  0  0  0
  -24.0150  -14.1400   21.0490 C   0  0  0  0  0  0  0  0  0  0  0  0
  -23.2200  -13.5250   21.9180 N   0  0  0  0  0  0  0  0  0  0  0  0
  -23.7030  -15.2250   20.5600 O   0  0  0  0  0  0  0  0  0  0  0  0
  -23.4850  -12.6460   22.3380 H   0  0  0  0  0  0  0  0  0  0  0  0
  -22.3340  -13.9400   22.1680 H   0  0  0  0  0  0  0  0  0  0  0  0
  -26.8410  -15.4700   20.2590 N   0  0  0  0  0  0  0  0  0  0  0  0
  -26.1850  -16.2250   20.4290 H   0  0  0  0  0  0  0  0  0  0  0  0
  -27.7580  -15.7970   19.9830 H   0  0  0  0  0  0  0  0  0  0  0  0
  2  3  1  0
  3  1  2  0
  3  7  1  0
  4 51  1  0
  4  1  1  0
  5  2  2  0
  5  6  1  0
  6  4  2  0
  8  9  1  0
  8  7  1  0
 10  9  1  0
 11 22  2  0
 12 10  1  0
 12 17  1  0
 13 21  1  0
 13 23  1  0
 14 20  1  0
 14 16  1  0
 15 21  1  0
 16 17  2  0
 16 15  1  0
 18 12  2  0
 19 18  1  0
 19 14  2  0
 20 13  1  0
 21 11  1  0
 23 25  2  0
 24 23  1  0
 26 24  1  0
 27 36  2  0
 27 32  1  0
 28 24  1  0
 28 32  1  0
 29 28  1  0
 30 31  1  0
 30 29  1  0
 31 27  1  0
 32 33  2  0
 33 34  1  0
 35 34  2  0
 36 35  1  0
 37 11  1  0
 37 38  1  0
 37 47  1  0
 38 41  1  0
 39 43  1  0
 39 38  1  0
 40 39  2  0
 43 42  1  0
 45 43  1  0
 45 46  1  0
 45 44  1  0
 47 50  1  1
 47 48  1  0
 49 47  1  0
 52 53  1  0
 52 51  1  0
 54 60  1  0
 55 60  1  0
 56 57  1  0
 56 55  1  0
 58 57  1  0
 58 67  1  0
 58 59  1  0
 60 59  1  0
 61 54  2  0
 62 54  1  0
 62 53  1  0
 63 62  1  0
 64 65  2  0
 65 84  1  0
 66 65  1  0
 66 69  1  0
 67 68  1  0
 67 64  1  0
 68 66  2  0
 69 70  1  0
 70 71  2  0
 72 75  1  0
 72 71  1  0
 73 72  2  0
 74 73  1  0
 74 69  2  0
 75 76  1  0
 76 77  1  0
 77 78  2  0
 79 78  1  0
 79 83  1  0
 80 79  2  0
 81 76  2  0
 81 80  1  0
 82 81  1  0
 84 85  1  0
 85 88  1  0
 85 87  1  0
 86 84  2  0
 89 64  1  0
 89 90  1  0
 91 89  1  0
M  ISO  4   9 101  10 101  54 100  62 100
M  END
>  <TORSDO>  (7) 
F 22

>  <SCORE>  (7) 
-11.428

>  <name>  (7) 
6

>  <ligand_id>  (7) 
6

>  <original_smiles>  (7) 
[H]c1nnc(C([H])([H])C([H])([H])C([H])([H])N([H])C(=O)N2C([H])([H])C([H])([H])C([H])([H])C([H])(n3nc(-c4c([H])c([H])c(Oc5c([H])c([H])c(F)c([H])c5F)c([H])c4[H])c(C(=O)N([H])[H])c3N([H])[H])C2([H])[H])c([H])c1C([H])([H])C([H])([H])C([H])([H])Oc1c([H])c([H])c2c(c1[H])C([H])([H])N(C(=O)C([H])(N([H])C(=O)C([H])(N([H])C([H])([H])[H])C([H])([H])[H])C(C([H])([H])[H])(C([H])([H])[H])C([H])([H])[H])C([H])(C(=O)N([H])C1([H])c3c([H])c([H])c([H])c([H])c3C([H])([H])C([H])([H])C1([H])[H])C2([H])[H]

>  <smiles>  (7) 
[H]c1nnc(C([H])([H])C([H])([H])C([H])([H])N([H])C(=O)N2C([H])([H])C([H])([H])C([H])([H])C([H])(n3nc(-c4c([H])c([H])c(Oc5c([H])c([H])c(F)c([H])c5F)c([H])c4[H])c(C(=O)N([H])[H])c3N([H])[H])C2([H])[H])c([H])c1C([H])([H])C([H])([H])C([H])([H])Oc1c([H])c([H])c2c(c1[H])C([H])([H])N(C(=O)C([H])(N([H])C(=O)C([H])(N([H])C([H])([H])[H])C([H])([H])[H])C(C([H])([H])[H])(C([H])([H])[H])C([H])([H])[H])C([H])(C(=O)N([H])C1([H])c3c([H])c([H])c([H])c([H])c3C([H])([H])C([H])([H])C1([H])[H])C2([H])[H]

$$$$
7:0:0
     RDKit          3D

 92100  0  0  1  0  0  0  0  0999 V2000
  -29.7450  -20.4950   19.8740 C   0  0  0  0  0  0  0  0  0  0  0  0
  -30.4030  -22.4700   20.2060 C   0  0  0  0  0  0  0  0  0  0  0  0
  -30.9670  -20.5670   19.3340 N   0  0  0  0  0  0  0  0  0  0  0  0
  -31.3950  -21.8580   19.5470 N   0  0  0  0  0  0  0  0  0  0  0  0
  -29.3460  -21.6570   20.4510 N   0  0  0  0  0  0  0  0  0  0  0  0
  -28.3310  -22.1560   22.6640 C   0  0  0  0  0  1  0  0  0  0  0  0
  -28.1060  -21.9650   21.1560 C   0  0  0  0  0  2  0  0  0  0  0  0
  -28.8930  -19.2540   19.7910 C   0  0  0  0  0  2  0  0  0  0  0  0
  -29.1200  -18.1560   20.8620 C   0  0  0  0  0  2  0  0  0  0  0  0
  -30.4170  -17.3190   20.7180 C   0  0  0  0  0  2  0  0  0  0  0  0
  -30.9260  -14.8750   20.5160 C   0  0  0  0  0  0  0  0  0  0  0  0
  -30.6610  -12.7300   19.3420 C   0  0  0  0  0  2  0  0  0  0  0  0
  -29.7400  -12.9550   18.1240 C   0  0  0  0  0  2  0  0  0  0  0  0
  -28.2550  -12.8230   18.5210 C   0  0  0  0  0  2  0  0  0  0  0  0
  -27.8980  -13.6350   19.7950 C   0  0  0  0  0  3  0  0  0  0  0  0
  -28.9310  -13.3860   20.9190 C   0  0  0  0  0  2  0  0  0  0  0  0
  -30.2700  -13.6930   20.3810 N   0  0  0  0  0  0  0  0  0  0  0  0
  -32.0560  -15.0780   20.0640 O   0  0  0  0  0  0  0  0  0  0  0  0
  -30.1760  -15.8890   20.9830 N   0  0  0  0  0  0  0  0  0  0  0  0
  -29.2740  -15.6320   21.3560 H   0  0  0  0  0  0  0  0  0  0  0  0
  -25.4860  -14.2440   20.4590 C   0  0  0  0  0  0  0  0  0  0  0  0
  -24.4090  -13.4700   20.8010 C   0  0  0  0  0  0  0  0  0  0  0  0
  -24.8670  -12.1170   20.7640 C   0  0  0  0  0  0  0  0  0  0  0  0
  -26.5330  -13.3610   20.2400 N   0  0  0  0  0  0  0  0  0  0  0  0
  -26.1620  -12.0780   20.4790 N   0  0  0  0  0  0  0  0  0  0  0  0
  -24.1350  -10.8540   20.9270 C   0  0  0  0  0  0  0  0  0  0  0  0
  -24.5380   -9.8850   21.8720 C   0  0  0  0  0  3  0  0  0  0  0  0
  -23.8080   -8.6860   22.0230 C   0  0  0  0  0  3  0  0  0  0  0  0
  -22.6620   -8.4470   21.2270 C   0  0  0  0  0  0  0  0  0  0  0  0
  -22.2800   -9.4060   20.2720 C   0  0  0  0  0  3  0  0  0  0  0  0
  -23.0100  -10.5970   20.1200 C   0  0  0  0  0  3  0  0  0  0  0  0
  -21.9080   -7.3010   21.2870 O   0  0  0  0  0  0  0  0  0  0  0  0
  -21.7990   -6.5680   22.4410 C   0  0  0  0  0  0  0  0  0  0  0  0
  -21.2890   -7.1290   23.6330 C   0  0  0  0  0  3  0  0  0  0  0  0
  -21.1300   -6.3240   24.7780 C   0  0  0  0  0  3  0  0  0  0  0  0
  -21.4690   -4.9580   24.7310 C   0  0  0  0  0  0  0  0  0  0  0  0
  -21.9740   -4.3960   23.5440 C   0  0  0  0  0  3  0  0  0  0  0  0
  -22.1350   -5.2000   22.4020 C   0  0  0  0  0  0  0  0  0  0  0  0
  -22.5990   -4.6510   21.2530 F   0  0  0  0  0  0  0  0  0  0  0  0
  -21.3090   -4.1810   25.8270 F   0  0  0  0  0  0  0  0  0  0  0  0
  -23.0080  -13.9470   21.0520 C   0  0  0  0  0  0  0  0  0  0  0  0
  -22.2630  -13.2470   21.9000 N   0  0  0  0  0  0  0  0  0  0  0  0
  -22.5800  -14.9770   20.5310 O   0  0  0  0  0  0  0  0  0  0  0  0
  -22.6190  -12.4160   22.3460 H   0  0  0  0  0  0  0  0  0  0  0  0
  -21.3200  -13.5480   22.1050 H   0  0  0  0  0  0  0  0  0  0  0  0
  -25.6550  -15.6150   20.2950 N   0  0  0  0  0  0  0  0  0  0  0  0
  -24.8880  -16.2690   20.3970 H   0  0  0  0  0  0  0  0  0  0  0  0
  -26.5010  -16.0490   19.9520 H   0  0  0  0  0  0  0  0  0  0  0  0
  -30.5200  -23.8800   20.7270 C   0  0  0  0  0  2  0  0  0  0  0  0
  -30.3130  -25.0240   19.7020 C   0  0  0  0  0  2  0  0  0  0  0  0
  -28.8520  -25.4390   19.4390 C   0  0  0  0  0  2  0  0  0  0  0  0
  -28.8000  -26.8520   19.1970 O   0  0  0  0  0  0  0  0  0  0  0  0
  -24.6390  -31.2770   22.8980 C   0  0  0  0  0  0  0  0  0  0  0  0
  -27.5580  -27.4460   19.2990 C   0  0  0  0  0  0  0  0  0  0  0  0
  -23.5000  -29.9280   21.1660 C   0  0  0  0  0  3  0  0  0  0  0  0
  -25.0290  -28.6880   19.5450 C   0  0  0  0  0  0  0  0  0  0  0  0
  -25.9650  -30.5600   20.9130 C   0  0  0  0  0  2  0  0  0  0  0  0
  -26.1560  -29.2730   20.1360 C   0  0  0  0  0  0  0  0  0  0  0  0
  -27.4240  -28.6630   20.0050 C   0  0  0  0  0  3  0  0  0  0  0  0
  -26.4120  -26.8690   18.7070 C   0  0  0  0  0  3  0  0  0  0  0  0
  -25.1520  -27.4850   18.8270 C   0  0  0  0  0  3  0  0  0  0  0  0
  -23.7100  -29.4060   19.7190 C   0  0  0  0  0  2  0  0  0  0  0  0
  -24.7210  -30.5980   21.7190 N   0  0  0  0  0  0  0  0  0  0  0  0
  -23.5620  -31.3850   23.5020 O   0  0  0  0  0  0  0  0  0  0  0  0
  -22.9920  -28.7590   22.0410 C   0  0  0  0  0  0  0  0  0  0  0  0
  -21.7010  -28.4200   21.8980 N   0  0  0  0  0  0  0  0  0  0  0  0
  -23.7580  -28.1620   22.8030 O   0  0  0  0  0  0  0  0  0  0  0  0
  -21.1370  -28.9650   21.2600 H   0  0  0  0  0  0  0  0  0  0  0  0
  -18.5280  -26.7280   22.2370 C   0  0  0  0  0  0  0  0  0  0  0  0
  -21.0170  -27.3280   22.5880 C   0  0  0  0  0  3  0  0  0  0  0  0
  -21.3340  -25.9670   21.9270 C   0  0  0  0  0  2  0  0  0  0  0  0
  -20.3070  -25.5580   20.8680 C   0  0  0  0  0  2  0  0  0  0  0  0
  -18.9080  -25.4630   21.4840 C   0  0  0  0  0  2  0  0  0  0  0  0
  -19.5180  -27.6110   22.7420 C   0  0  0  0  0  0  0  0  0  0  0  0
  -19.1130  -28.7900   23.4030 C   0  0  0  0  0  3  0  0  0  0  0  0
  -17.7470  -29.0910   23.5650 C   0  0  0  0  0  3  0  0  0  0  0  0
  -16.7700  -28.2050   23.0780 C   0  0  0  0  0  3  0  0  0  0  0  0
  -17.1610  -27.0250   22.4200 C   0  0  0  0  0  3  0  0  0  0  0  0
  -25.8850  -31.9700   23.5330 C   0  0  0  0  0  3  0  0  0  0  0  0
  -25.4690  -33.3060   23.9810 N   0  0  0  0  0  0  0  0  0  0  0  0
  -25.6860  -34.4390   23.3000 C   0  0  0  0  0  0  0  0  0  0  0  0
  -26.3320  -34.4730   22.2480 O   0  0  0  0  0  0  0  0  0  0  0  0
  -24.8880  -33.3460   24.8050 H   0  0  0  0  0  0  0  0  0  0  0  0
  -23.7950  -36.0870   23.1340 C   0  0  0  0  0  1  0  0  0  0  0  0
  -25.0960  -35.7390   23.8760 C   0  0  0  0  0  3  0  0  0  0  0  0
  -27.1700  -36.7530   24.7120 C   0  0  0  0  0  1  0  0  0  0  0  0
  -26.0270  -36.8870   23.8130 N   0  0  0  0  0  0  0  0  0  0  0  0
  -25.5460  -37.7540   24.0400 H   0  0  0  0  0  0  0  0  0  0  0  0
  -26.5110  -31.1510   24.7280 C   0  0  1  0  0  0  0  0  0  0  0  0
  -25.4810  -30.7420   25.8070 C   0  0  0  0  0  1  0  0  0  0  0  0
  -27.1900  -29.8630   24.2080 C   0  0  0  0  0  1  0  0  0  0  0  0
  -27.6150  -31.9880   25.4160 C   0  0  0  0  0  1  0  0  0  0  0  0
  1  5  1  0
  2  5  1  0
  2 49  1  0
  3  4  1  0
  3  1  2  0
  4  2  2  0
  5  7  1  0
  7  6  1  0
  8  1  1  0
  8  9  1  0
 10  9  1  0
 10 19  1  0
 11 19  1  0
 12 17  1  0
 13 14  1  0
 13 12  1  0
 15 14  1  0
 15 24  1  0
 15 16  1  0
 17 11  1  0
 17 16  1  0
 18 11  2  0
 19 20  1  0
 21 22  2  0
 22 41  1  0
 23 22  1  0
 23 26  1  0
 24 21  1  0
 24 25  1  0
 25 23  2  0
 26 27  1  0
 27 28  2  0
 29 32  1  0
 29 28  1  0
 30 29  2  0
 31 30  1  0
 31 26  2  0
 32 33  1  0
 33 34  1  0
 34 35  2  0
 36 35  1  0
 36 40  1  0
 37 36  2  0
 38 33  2  0
 38 37  1  0
 39 38  1  0
 41 42  1  0
 42 45  1  0
 42 44  1  0
 43 41  2  0
 46 47  1  0
 46 21  1  0
 48 46  1  0
 50 49  1  0
 51 50  1  0
 52 54  1  0
 52 51  1  0
 53 64  2  0
 54 59  1  0
 55 63  1  0
 55 65  1  0
 56 62  1  0
 56 58  1  0
 57 63  1  0
 58 57  1  0
 59 58  2  0
 60 61  1  0
 60 54  2  0
 61 56  2  0
 62 55  1  0
 63 53  1  0
 65 67  2  0
 66 65  1  0
 68 66  1  0
 69 78  2  0
 69 74  1  0
 70 66  1  0
 70 74  1  0
 71 70  1  0
 72 73  1  0
 72 71  1  0
 73 69  1  0
 74 75  2  0
 75 76  1  0
 77 76  2  0
 78 77  1  0
 79 53  1  0
 79 80  1  0
 79 89  1  0
 80 83  1  0
 81 85  1  0
 81 80  1  0
 82 81  2  0
 85 84  1  0
 87 85  1  0
 87 88  1  0
 87 86  1  0
 89 92  1  1
 89 90  1  0
 91 89  1  0
M  ISO  4  11 100  19 100  51 101  52 101
M  END
>  <TORSDO>  (8) 
F 23

>  <SCORE>  (8) 
-10.396

>  <name>  (8) 
7

>  <ligand_id>  (8) 
7

>  <original_smiles>  (8) 
[H]c1c([H])c([H])c2c(c1[H])C([H])([H])C([H])([H])C([H])([H])C2([H])N([H])C(=O)C1([H])N(C(=O)C([H])(N([H])C(=O)C([H])(N([H])C([H])([H])[H])C([H])([H])[H])C(C([H])([H])[H])(C([H])([H])[H])C([H])([H])[H])C([H])([H])c2c([H])c(OC([H])([H])C([H])([H])C([H])([H])c3nnc(C([H])([H])C([H])([H])C([H])([H])N([H])C(=O)N4C([H])([H])C([H])([H])C([H])([H])C([H])(n5nc(-c6c([H])c([H])c(Oc7c([H])c([H])c(F)c([H])c7F)c([H])c6[H])c(C(=O)N([H])[H])c5N([H])[H])C4([H])[H])n3C([H])([H])C([H])([H])[H])c([H])c([H])c2C1([H])[H]

>  <smiles>  (8) 
[H]c1c([H])c([H])c2c(c1[H])C([H])([H])C([H])([H])C([H])([H])C2([H])N([H])C(=O)C1([H])N(C(=O)C([H])(N([H])C(=O)C([H])(N([H])C([H])([H])[H])C([H])([H])[H])C(C([H])([H])[H])(C([H])([H])[H])C([H])([H])[H])C([H])([H])c2c([H])c(OC([H])([H])C([H])([H])C([H])([H])c3nnc(C([H])([H])C([H])([H])C([H])([H])N([H])C(=O)N4C([H])([H])C([H])([H])C([H])([H])C([H])(n5nc(-c6c([H])c([H])c(Oc7c([H])c([H])c(F)c([H])c7F)c([H])c6[H])c(C(=O)N([H])[H])c5N([H])[H])C4([H])[H])n3C([H])([H])C([H])([H])[H])c([H])c([H])c2C1([H])[H]

$$$$
8:0:0
     RDKit          3D

 96104  0  0  1  0  0  0  0  0999 V2000
  -32.1090  -21.4100   19.8400 C   0  0  0  0  0  3  0  0  0  0  0  0
  -32.9910  -20.4090   19.5360 C   0  0  0  0  0  0  0  0  0  0  0  0
  -31.0260  -19.4810   20.1790 C   0  0  0  0  0  3  0  0  0  0  0  0
  -30.9190  -20.8460   20.2410 N   0  0  0  0  0  0  0  0  0  0  0  0
  -32.2730  -19.2580   19.7210 N   0  0  0  0  0  0  0  0  0  0  0  0
  -32.6580  -18.3320   19.5740 H   0  0  0  0  0  0  0  0  0  0  0  0
  -35.2720  -19.6560   20.2010 C   0  0  0  0  0  1  0  0  0  0  0  0
  -34.9690  -21.8890   19.1310 C   0  0  0  0  0  1  0  0  0  0  0  0
  -34.6660  -19.8200   17.7620 C   0  0  0  0  0  1  0  0  0  0  0  0
  -34.4550  -20.4380   19.1550 C   0  0  2  0  0  0  0  0  0  0  0  0
  -28.6400  -18.5390   20.7470 C   0  0  0  0  0  1  0  0  0  0  0  0
  -30.1530  -18.2840   20.6410 C   0  0  0  0  0  3  0  0  0  0  0  0
  -30.4280  -16.9700   19.8170 C   0  0  0  0  0  2  0  0  0  0  0  0
  -30.7330  -14.5200   20.1670 C   0  0  0  0  0  0  0  0  0  0  0  0
  -30.3400  -12.3590   19.0670 C   0  0  0  0  0  2  0  0  0  0  0  0
  -29.3730  -12.5830   17.8850 C   0  0  0  0  0  2  0  0  0  0  0  0
  -27.9100  -12.4500   18.3490 C   0  0  0  0  0  2  0  0  0  0  0  0
  -27.6120  -13.2780   19.6300 C   0  0  0  0  0  3  0  0  0  0  0  0
  -28.7060  -13.0950   20.7120 C   0  0  0  0  0  2  0  0  0  0  0  0
  -30.0140  -13.3640   20.0920 N   0  0  0  0  0  0  0  0  0  0  0  0
  -31.8930  -14.5970   19.7590 O   0  0  0  0  0  0  0  0  0  0  0  0
  -30.0400  -15.6560   20.4140 N   0  0  0  0  0  0  0  0  0  0  0  0
  -29.0930  -15.5470   20.7490 H   0  0  0  0  0  0  0  0  0  0  0  0
  -25.2410  -13.8760   20.4260 C   0  0  0  0  0  0  0  0  0  0  0  0
  -24.1860  -13.0980   20.8270 C   0  0  0  0  0  0  0  0  0  0  0  0
  -24.6460  -11.7470   20.7700 C   0  0  0  0  0  0  0  0  0  0  0  0
  -26.2780  -12.9950   20.1570 N   0  0  0  0  0  0  0  0  0  0  0  0
  -25.9260  -11.7100   20.4240 N   0  0  0  0  0  0  0  0  0  0  0  0
  -23.9220  -10.4830   20.9710 C   0  0  0  0  0  0  0  0  0  0  0  0
  -24.3730   -9.5160   21.8980 C   0  0  0  0  0  3  0  0  0  0  0  0
  -23.6550   -8.3170   22.0880 C   0  0  0  0  0  3  0  0  0  0  0  0
  -22.4680   -8.0770   21.3560 C   0  0  0  0  0  0  0  0  0  0  0  0
  -22.0360   -9.0340   20.4210 C   0  0  0  0  0  3  0  0  0  0  0  0
  -22.7540  -10.2240   20.2270 C   0  0  0  0  0  3  0  0  0  0  0  0
  -21.7150   -6.9330   21.4590 O   0  0  0  0  0  0  0  0  0  0  0  0
  -21.6840   -6.1940   22.6160 C   0  0  0  0  0  0  0  0  0  0  0  0
  -21.2690   -6.7490   23.8460 C   0  0  0  0  0  3  0  0  0  0  0  0
  -21.1860   -5.9330   24.9940 C   0  0  0  0  0  3  0  0  0  0  0  0
  -21.5070   -4.5660   24.9130 C   0  0  0  0  0  0  0  0  0  0  0  0
  -21.9170   -4.0120   23.6880 C   0  0  0  0  0  3  0  0  0  0  0  0
  -22.0030   -4.8230   22.5430 C   0  0  0  0  0  0  0  0  0  0  0  0
  -22.3760   -4.2780   21.3600 F   0  0  0  0  0  0  0  0  0  0  0  0
  -21.4220   -3.7820   26.0120 F   0  0  0  0  0  0  0  0  0  0  0  0
  -22.7980  -13.5750   21.1460 C   0  0  0  0  0  0  0  0  0  0  0  0
  -22.0950  -12.8680   22.0260 N   0  0  0  0  0  0  0  0  0  0  0  0
  -22.3440  -14.6040   20.6490 O   0  0  0  0  0  0  0  0  0  0  0  0
  -22.4790  -12.0370   22.4490 H   0  0  0  0  0  0  0  0  0  0  0  0
  -21.1630  -13.1620   22.2770 H   0  0  0  0  0  0  0  0  0  0  0  0
  -25.3970  -15.2460   20.2450 N   0  0  0  0  0  0  0  0  0  0  0  0
  -24.6150  -15.8860   20.3460 H   0  0  0  0  0  0  0  0  0  0  0  0
  -26.2180  -15.6870   19.8540 H   0  0  0  0  0  0  0  0  0  0  0  0
  -29.8170  -21.7040   20.7670 C   0  0  0  0  0  2  0  0  0  0  0  0
  -29.4600  -22.9400   19.8710 C   0  0  0  0  0  2  0  0  0  0  0  0
  -29.2110  -24.3060   20.5830 C   0  0  0  0  0  2  0  0  0  0  0  0
  -28.3700  -25.2880   19.7230 C   0  0  0  0  0  2  0  0  0  0  0  0
  -28.3880  -26.6660   20.1680 O   0  0  0  0  0  0  0  0  0  0  0  0
  -24.5690  -31.8510   23.2250 C   0  0  0  0  0  0  0  0  0  0  0  0
  -27.2270  -27.4280   20.0970 C   0  0  0  0  0  0  0  0  0  0  0  0
  -23.3760  -30.4770   21.5550 C   0  0  0  0  0  3  0  0  0  0  0  0
  -24.8410  -28.9810   20.0970 C   0  0  0  0  0  0  0  0  0  0  0  0
  -25.9110  -30.8280   21.3890 C   0  0  0  0  0  2  0  0  0  0  0  0
  -25.9940  -29.4700   20.7220 C   0  0  0  0  0  0  0  0  0  0  0  0
  -27.1830  -28.7000   20.7270 C   0  0  0  0  0  3  0  0  0  0  0  0
  -26.0570  -26.9850   19.4290 C   0  0  0  0  0  3  0  0  0  0  0  0
  -24.8740  -27.7430   19.4420 C   0  0  0  0  0  3  0  0  0  0  0  0
  -23.5950  -29.8390   20.1590 C   0  0  0  0  0  2  0  0  0  0  0  0
  -24.6370  -31.0660   22.1130 N   0  0  0  0  0  0  0  0  0  0  0  0
  -23.4870  -32.1090   23.7680 O   0  0  0  0  0  0  0  0  0  0  0  0
  -22.7250  -29.4290   22.4870 C   0  0  0  0  0  0  0  0  0  0  0  0
  -21.3970  -29.2600   22.3730 N   0  0  0  0  0  0  0  0  0  0  0  0
  -23.4110  -28.7770   23.2780 O   0  0  0  0  0  0  0  0  0  0  0  0
  -20.9030  -29.8340   21.7050 H   0  0  0  0  0  0  0  0  0  0  0  0
  -18.0140  -28.1060   22.8810 C   0  0  0  0  0  0  0  0  0  0  0  0
  -20.5780  -28.3100   23.1280 C   0  0  0  0  0  3  0  0  0  0  0  0
  -20.6500  -26.8960   22.5040 C   0  0  0  0  0  2  0  0  0  0  0  0
  -19.5250  -26.6260   21.5000 C   0  0  0  0  0  2  0  0  0  0  0  0
  -18.1550  -26.7750   22.1660 C   0  0  0  0  0  2  0  0  0  0  0  0
  -19.1500  -28.8340   23.3210 C   0  0  0  0  0  0  0  0  0  0  0  0
  -18.9550  -30.0840   23.9500 C   0  0  0  0  0  3  0  0  0  0  0  0
  -17.6600  -30.6000   24.1460 C   0  0  0  0  0  3  0  0  0  0  0  0
  -16.5400  -29.8650   23.7240 C   0  0  0  0  0  3  0  0  0  0  0  0
  -16.7180  -28.6210   23.0940 C   0  0  0  0  0  3  0  0  0  0  0  0
  -25.8510  -32.4720   23.8600 C   0  0  0  0  0  3  0  0  0  0  0  0
  -25.5470  -33.8690   24.1890 N   0  0  0  0  0  0  0  0  0  0  0  0
  -25.8950  -34.9210   23.4350 C   0  0  0  0  0  0  0  0  0  0  0  0
  -26.5720  -34.8120   22.4090 O   0  0  0  0  0  0  0  0  0  0  0  0
  -24.9410  -34.0280   24.9810 H   0  0  0  0  0  0  0  0  0  0  0  0
  -24.1730  -36.7150   23.0710 C   0  0  0  0  0  1  0  0  0  0  0  0
  -25.4090  -36.3090   23.8910 C   0  0  0  0  0  3  0  0  0  0  0  0
  -27.5380  -37.1870   24.7370 C   0  0  0  0  0  1  0  0  0  0  0  0
  -26.4440  -37.3590   23.7840 N   0  0  0  0  0  0  0  0  0  0  0  0
  -26.0420  -38.2810   23.9240 H   0  0  0  0  0  0  0  0  0  0  0  0
  -26.3510  -31.6940   25.1380 C   0  0  1  0  0  0  0  0  0  0  0  0
  -25.2440  -31.4560   26.1920 C   0  0  0  0  0  1  0  0  0  0  0  0
  -26.9280  -30.3160   24.7450 C   0  0  0  0  0  1  0  0  0  0  0  0
  -27.5010  -32.4810   25.8090 C   0  0  0  0  0  1  0  0  0  0  0  0
  1  4  1  0
  2  5  1  0
  2  1  2  0
  3  4  1  0
  3 12  1  0
  4 52  1  0
  5  3  1  0
  6  5  1  0
 10  8  1  6
  9 10  1  0
 10  2  1  0
 10  7  1  0
 12 11  1  0
 13 22  1  0
 13 12  1  0
 14 22  1  0
 15 20  1  0
 16 17  1  0
 16 15  1  0
 18 17  1  0
 18 27  1  0
 18 19  1  0
 20 14  1  0
 20 19  1  0
 21 14  2  0
 22 23  1  0
 24 25  2  0
 25 44  1  0
 26 25  1  0
 26 29  1  0
 27 28  1  0
 27 24  1  0
 28 26  2  0
 29 30  1  0
 30 31  2  0
 32 35  1  0
 32 31  1  0
 33 32  2  0
 34 33  1  0
 34 29  2  0
 35 36  1  0
 36 37  1  0
 37 38  2  0
 39 38  1  0
 39 43  1  0
 40 39  2  0
 41 36  2  0
 41 40  1  0
 42 41  1  0
 44 45  1  0
 45 48  1  0
 45 47  1  0
 46 44  2  0
 49 50  1  0
 49 24  1  0
 51 49  1  0
 53 54  1  0
 53 52  1  0
 55 56  1  0
 55 54  1  0
 57 68  2  0
 58 56  1  0
 58 63  1  0
 59 67  1  0
 59 69  1  0
 60 66  1  0
 60 62  1  0
 61 67  1  0
 62 63  2  0
 62 61  1  0
 64 65  1  0
 64 58  2  0
 65 60  2  0
 66 59  1  0
 67 57  1  0
 69 71  2  0
 70 69  1  0
 72 70  1  0
 73 82  2  0
 73 78  1  0
 74 70  1  0
 74 78  1  0
 75 74  1  0
 76 77  1  0
 76 75  1  0
 77 73  1  0
 78 79  2  0
 79 80  1  0
 81 80  2  0
 82 81  1  0
 83 57  1  0
 83 84  1  0
 83 93  1  0
 84 87  1  0
 85 89  1  0
 85 84  1  0
 86 85  2  0
 89 88  1  0
 91 89  1  0
 91 92  1  0
 91 90  1  0
 93 96  1  1
 93 94  1  0
 95 93  1  0
M  ISO  4  14 100  22 100  55 101  56 101
M  END
>  <TORSDO>  (9) 
F 23

>  <SCORE>  (9) 
-12.770

>  <name>  (9) 
8

>  <ligand_id>  (9) 
8

>  <original_smiles>  (9) 
[H]c1c([H])c([H])c2c(c1[H])C([H])([H])C([H])([H])C([H])([H])C2([H])N([H])C(=O)C1([H])N(C(=O)C([H])(N([H])C(=O)C([H])(N([H])C([H])([H])[H])C([H])([H])[H])C(C([H])([H])[H])(C([H])([H])[H])C([H])([H])[H])C([H])([H])c2c([H])c(OC([H])([H])C([H])([H])C([H])([H])C([H])([H])n3c([H])c(C(C([H])([H])[H])(C([H])([H])[H])C([H])([H])[H])[n+]([H])c3C([H])(C([H])([H])[H])C([H])([H])N([H])C(=O)N3C([H])([H])C([H])([H])C([H])([H])C([H])(n4nc(-c5c([H])c([H])c(Oc6c([H])c([H])c(F)c([H])c6F)c([H])c5[H])c(C(=O)N([H])[H])c4N([H])[H])C3([H])[H])c([H])c([H])c2C1([H])[H]

>  <smiles>  (9) 
[H]c1c([H])c([H])c2c(c1[H])C([H])([H])C([H])([H])C([H])([H])C2([H])N([H])C(=O)C1([H])N(C(=O)C([H])(N([H])C(=O)C([H])(N([H])C([H])([H])[H])C([H])([H])[H])C(C([H])([H])[H])(C([H])([H])[H])C([H])([H])[H])C([H])([H])c2c([H])c(OC([H])([H])C([H])([H])C([H])([H])C([H])([H])n3c([H])c(C(C([H])([H])[H])(C([H])([H])[H])C([H])([H])[H])[n+]([H])c3C([H])(C([H])([H])[H])C([H])([H])N([H])C(=O)N3C([H])([H])C([H])([H])C([H])([H])C([H])(n4nc(-c5c([H])c([H])c(Oc6c([H])c([H])c(F)c([H])c6F)c([H])c5[H])c(C(=O)N([H])[H])c4N([H])[H])C3([H])[H])c([H])c([H])c2C1([H])[H]

$$$$
9:0:0
     RDKit          3D

 90 98  0  0  1  0  0  0  0  0999 V2000
  -28.1680  -22.6340   19.0150 C   0  0  0  0  0  2  0  0  0  0  0  0
  -30.0700  -22.7050   20.5540 C   0  0  0  0  0  2  0  0  0  0  0  0
  -28.1190  -21.0510   19.1300 C   0  0  0  0  0  2  0  0  0  0  0  0
  -30.0720  -21.1010   20.6660 C   0  0  0  0  0  2  0  0  0  0  0  0
  -28.6600  -23.3430   20.3050 C   0  0  0  0  0  3  0  0  0  0  0  0
  -29.4240  -20.2270   19.5080 C   0  0  0  0  0  3  0  0  0  0  0  0
  -28.0940  -18.1250   18.7300 C   0  0  0  0  0  1  0  0  0  0  0  0
  -28.5860  -18.3980   21.1620 C   0  0  0  0  0  1  0  0  0  0  0  0
  -29.1680  -18.5840   19.7470 C   0  0  2  0  0  0  0  0  0  0  0  0
  -30.3430  -17.4500   19.5790 C   0  0  0  0  0  2  0  0  0  0  0  0
  -30.8050  -14.8210   19.7590 C   0  0  0  0  0  0  0  0  0  0  0  0
  -30.5920  -12.4700   18.9220 C   0  0  0  0  0  2  0  0  0  0  0  0
  -29.5770  -12.4310   17.7610 C   0  0  0  0  0  2  0  0  0  0  0  0
  -28.1460  -12.2430   18.2990 C   0  0  0  0  0  2  0  0  0  0  0  0
  -27.8220  -13.1980   19.4810 C   0  0  0  0  0  3  0  0  0  0  0  0
  -28.9570  -13.2310   20.5260 C   0  0  0  0  0  2  0  0  0  0  0  0
  -30.1970  -13.5810   19.8200 N   0  0  0  0  0  0  0  0  0  0  0  0
  -31.9700  -14.9080   19.3680 O   0  0  0  0  0  0  0  0  0  0  0  0
  -30.0320  -15.9690   19.9150 N   0  0  0  0  0  0  0  0  0  0  0  0
  -29.0840  -15.7910   20.2100 H   0  0  0  0  0  0  0  0  0  0  0  0
  -25.5080  -13.7770   20.4220 C   0  0  0  0  0  0  0  0  0  0  0  0
  -24.4700  -12.9970   20.8600 C   0  0  0  0  0  0  0  0  0  0  0  0
  -24.9250  -11.6470   20.7670 C   0  0  0  0  0  0  0  0  0  0  0  0
  -26.5230  -12.9000   20.0810 N   0  0  0  0  0  0  0  0  0  0  0  0
  -26.1860  -11.6130   20.3520 N   0  0  0  0  0  0  0  0  0  0  0  0
  -24.2090  -10.3820   20.9890 C   0  0  0  0  0  0  0  0  0  0  0  0
  -24.6350   -9.4540   21.9660 C   0  0  0  0  0  3  0  0  0  0  0  0
  -23.9180   -8.2570   22.1780 C   0  0  0  0  0  3  0  0  0  0  0  0
  -22.7620   -7.9780   21.4110 C   0  0  0  0  0  0  0  0  0  0  0  0
  -22.3560   -8.8920   20.4240 C   0  0  0  0  0  3  0  0  0  0  0  0
  -23.0750  -10.0810   20.2100 C   0  0  0  0  0  3  0  0  0  0  0  0
  -22.0200   -6.8270   21.5270 O   0  0  0  0  0  0  0  0  0  0  0  0
  -21.8640   -6.1890   22.7310 C   0  0  0  0  0  0  0  0  0  0  0  0
  -21.2560   -6.8230   23.8370 C   0  0  0  0  0  3  0  0  0  0  0  0
  -21.0540   -6.1090   25.0340 C   0  0  0  0  0  3  0  0  0  0  0  0
  -21.4490   -4.7610   25.1260 C   0  0  0  0  0  0  0  0  0  0  0  0
  -22.0500   -4.1270   24.0250 C   0  0  0  0  0  3  0  0  0  0  0  0
  -22.2540   -4.8390   22.8300 C   0  0  0  0  0  0  0  0  0  0  0  0
  -22.8140   -4.2160   21.7650 F   0  0  0  0  0  0  0  0  0  0  0  0
  -21.2480   -4.0730   26.2740 F   0  0  0  0  0  0  0  0  0  0  0  0
  -23.1010  -13.4730   21.2490 C   0  0  0  0  0  0  0  0  0  0  0  0
  -22.4420  -12.7690   22.1640 N   0  0  0  0  0  0  0  0  0  0  0  0
  -22.6260  -14.5060   20.7770 O   0  0  0  0  0  0  0  0  0  0  0  0
  -22.8380  -11.9330   22.5660 H   0  0  0  0  0  0  0  0  0  0  0  0
  -21.5280  -13.0760   22.4680 H   0  0  0  0  0  0  0  0  0  0  0  0
  -25.6620  -15.1500   20.2660 N   0  0  0  0  0  0  0  0  0  0  0  0
  -24.9240  -15.8080   20.4920 H   0  0  0  0  0  0  0  0  0  0  0  0
  -26.4910  -15.5990   19.9010 H   0  0  0  0  0  0  0  0  0  0  0  0
  -28.1840  -24.8770   20.7190 C   0  0  0  0  0  2  0  0  0  0  0  0
  -28.5110  -26.2830   20.2510 O   0  0  0  0  0  0  0  0  0  0  0  0
  -24.5680  -31.7280   23.1640 C   0  0  0  0  0  0  0  0  0  0  0  0
  -27.4240  -27.2020   20.1870 C   0  0  0  0  0  0  0  0  0  0  0  0
  -23.4770  -30.3090   21.4670 C   0  0  0  0  0  3  0  0  0  0  0  0
  -25.0300  -28.8050   20.0880 C   0  0  0  0  0  0  0  0  0  0  0  0
  -26.0190  -30.6760   21.4020 C   0  0  0  0  0  2  0  0  0  0  0  0
  -26.1650  -29.3000   20.7450 C   0  0  0  0  0  0  0  0  0  0  0  0
  -27.3680  -28.5120   20.7840 C   0  0  0  0  0  3  0  0  0  0  0  0
  -26.2690  -26.7930   19.4820 C   0  0  0  0  0  3  0  0  0  0  0  0
  -25.0900  -27.5610   19.4430 C   0  0  0  0  0  3  0  0  0  0  0  0
  -23.7710  -29.6520   20.0930 C   0  0  0  0  0  2  0  0  0  0  0  0
  -24.7040  -30.9220   22.0680 N   0  0  0  0  0  0  0  0  0  0  0  0
  -23.4550  -31.9730   23.6520 O   0  0  0  0  0  0  0  0  0  0  0  0
  -22.7970  -29.2690   22.3920 C   0  0  0  0  0  0  0  0  0  0  0  0
  -21.4780  -29.0720   22.2240 N   0  0  0  0  0  0  0  0  0  0  0  0
  -23.4590  -28.6430   23.2250 O   0  0  0  0  0  0  0  0  0  0  0  0
  -21.0010  -29.6330   21.5320 H   0  0  0  0  0  0  0  0  0  0  0  0
  -18.1030  -27.8310   22.6250 C   0  0  0  0  0  0  0  0  0  0  0  0
  -20.6520  -28.1100   22.9550 C   0  0  0  0  0  3  0  0  0  0  0  0
  -20.7820  -26.6920   22.3520 C   0  0  0  0  0  2  0  0  0  0  0  0
  -19.7060  -26.3810   21.3060 C   0  0  0  0  0  2  0  0  0  0  0  0
  -18.3080  -26.5010   21.9190 C   0  0  0  0  0  2  0  0  0  0  0  0
  -19.2040  -28.5930   23.0970 C   0  0  0  0  0  0  0  0  0  0  0  0
  -18.9580  -29.8400   23.7140 C   0  0  0  0  0  3  0  0  0  0  0  0
  -17.6440  -30.3220   23.8650 C   0  0  0  0  0  3  0  0  0  0  0  0
  -16.5570  -29.5540   23.4100 C   0  0  0  0  0  3  0  0  0  0  0  0
  -16.7870  -28.3110   22.7950 C   0  0  0  0  0  3  0  0  0  0  0  0
  -25.8030  -32.3940   23.8440 C   0  0  0  0  0  3  0  0  0  0  0  0
  -26.2800  -31.6320   25.1420 C   0  0  1  0  0  0  0  0  0  0  0  0
  -25.1450  -31.3610   26.1580 C   0  0  0  0  0  1  0  0  0  0  0  0
  -26.9190  -30.2730   24.7780 C   0  0  0  0  0  1  0  0  0  0  0  0
  -27.3750  -32.4570   25.8590 C   0  0  0  0  0  1  0  0  0  0  0  0
  -25.4400  -33.7820   24.1650 N   0  0  0  0  0  0  0  0  0  0  0  0
  -25.7610  -34.8470   23.4190 C   0  0  0  0  0  0  0  0  0  0  0  0
  -26.4610  -34.7670   22.4060 O   0  0  0  0  0  0  0  0  0  0  0  0
  -24.8210  -33.9170   24.9510 H   0  0  0  0  0  0  0  0  0  0  0  0
  -23.9920  -36.5920   23.0200 C   0  0  0  0  0  1  0  0  0  0  0  0
  -25.2210  -36.2200   23.8650 C   0  0  0  0  0  3  0  0  0  0  0  0
  -27.2970  -37.1740   24.7670 C   0  0  0  0  0  1  0  0  0  0  0  0
  -26.2250  -37.3040   23.7830 N   0  0  0  0  0  0  0  0  0  0  0  0
  -25.7860  -38.2110   23.9110 H   0  0  0  0  0  0  0  0  0  0  0  0
  1  3  1  0
  1  5  1  0
  2  4  1  0
  3  6  1  0
  5  2  1  0
  5 49  1  0
  6  9  1  0
  6  4  1  0
  9  7  1  6
  9  8  1  0
 10  9  1  0
 10 19  1  0
 11 17  1  0
 11 19  1  0
 12 17  1  0
 13 14  1  0
 13 12  1  0
 15 14  1  0
 15 24  1  0
 15 16  1  0
 17 16  1  0
 18 11  2  0
 19 20  1  0
 21 22  2  0
 22 41  1  0
 23 22  1  0
 23 26  1  0
 24 25  1  0
 24 21  1  0
 25 23  2  0
 26 27  1  0
 27 28  2  0
 29 32  1  0
 29 28  1  0
 30 29  2  0
 31 30  1  0
 31 26  2  0
 32 33  1  0
 33 38  2  0
 33 34  1  0
 34 35  2  0
 35 36  1  0
 36 40  1  0
 37 36  2  0
 38 37  1  0
 39 38  1  0
 41 42  1  0
 42 45  1  0
 42 44  1  0
 43 41  2  0
 46 21  1  0
 46 47  1  0
 48 46  1  0
 50 49  1  0
 51 62  2  0
 52 50  1  0
 52 57  1  0
 53 61  1  0
 53 63  1  0
 54 60  1  0
 54 56  1  0
 55 61  1  0
 56 57  2  0
 56 55  1  0
 58 52  2  0
 59 58  1  0
 59 54  2  0
 60 53  1  0
 61 51  1  0
 63 65  2  0
 64 63  1  0
 66 64  1  0
 67 76  2  0
 67 72  1  0
 68 64  1  0
 68 72  1  0
 69 68  1  0
 70 71  1  0
 70 69  1  0
 71 67  1  0
 72 73  2  0
 73 74  1  0
 75 74  2  0
 76 75  1  0
 77 51  1  0
 77 82  1  0
 77 78  1  0
 78 81  1  1
 78 79  1  0
 80 78  1  0
 82 85  1  0
 83 87  1  0
 83 82  1  0
 84 83  2  0
 87 86  1  0
 89 87  1  0
 89 90  1  0
 89 88  1  0
M  ISO  4  11 100  19 100  49 101  50 101
M  END
>  <TORSDO>  (10) 
F 19

>  <SCORE>  (10) 
-13.193

>  <name>  (10) 
9

>  <ligand_id>  (10) 
9

>  <original_smiles>  (10) 
[H]c1c([H])c([H])c2c(c1[H])C([H])([H])C([H])([H])C([H])([H])C2([H])N([H])C(=O)C1([H])N(C(=O)C([H])(N([H])C(=O)C([H])(N([H])C([H])([H])[H])C([H])([H])[H])C(C([H])([H])[H])(C([H])([H])[H])C([H])([H])[H])C([H])([H])c2c([H])c(OC([H])([H])C3([H])C([H])([H])C([H])([H])C([H])(C(C([H])([H])[H])(C([H])([H])[H])C([H])([H])N([H])C(=O)N4C([H])([H])C([H])([H])C([H])([H])C([H])(n5nc(-c6c([H])c([H])c(Oc7c([H])c([H])c(F)c([H])c7F)c([H])c6[H])c(C(=O)N([H])[H])c5N([H])[H])C4([H])[H])C([H])([H])C3([H])[H])c([H])c([H])c2C1([H])[H]

>  <smiles>  (10) 
[H]c1c([H])c([H])c2c(c1[H])C([H])([H])C([H])([H])C([H])([H])C2([H])N([H])C(=O)C1([H])N(C(=O)C([H])(N([H])C(=O)C([H])(N([H])C([H])([H])[H])C([H])([H])[H])C(C([H])([H])[H])(C([H])([H])[H])C([H])([H])[H])C([H])([H])c2c([H])c(OC([H])([H])C3([H])C([H])([H])C([H])([H])C([H])(C(C([H])([H])[H])(C([H])([H])[H])C([H])([H])N([H])C(=O)N4C([H])([H])C([H])([H])C([H])([H])C([H])(n5nc(-c6c([H])c([H])c(Oc7c([H])c([H])c(F)c([H])c7F)c([H])c6[H])c(C(=O)N([H])[H])c5N([H])[H])C4([H])[H])C([H])([H])C3([H])[H])c([H])c([H])c2C1([H])[H]

$$$$
10:0:0
     RDKit          3D

 91 99  0  0  1  0  0  0  0  0999 V2000
  -31.5820  -21.8050   21.0900 C   0  0  0  0  0  0  0  0  0  0  0  0
  -29.5680  -22.0990   20.5240 C   0  0  0  0  0  3  0  0  0  0  0  0
  -32.9820  -22.1240   21.5180 C   0  0  0  0  0  1  0  0  0  0  0  0
  -30.6820  -22.7780   20.8140 N   0  0  0  0  0  0  0  0  0  0  0  0
  -31.1490  -20.5580   20.9610 N   0  0  0  0  0  2  0  0  0  0  0  0
  -29.8480  -20.6630   20.5510 N   0  0  0  0  0  0  0  0  0  0  0  0
  -27.0580  -22.3640   20.5850 C   0  0  0  0  0  1  0  0  0  0  0  0
  -28.3090  -23.2710   18.6010 C   0  0  0  0  0  1  0  0  0  0  0  0
  -28.3370  -23.1080   20.1340 C   0  0  2  0  0  0  0  0  0  0  0  0
  -28.2060  -24.6990   20.7980 C   0  0  0  0  0  2  0  0  0  0  0  0
  -28.3210  -26.1590   20.2370 O   0  0  0  0  0  0  0  0  0  0  0  0
  -24.6280  -31.8750   23.2390 C   0  0  0  0  0  0  0  0  0  0  0  0
  -27.2470  -27.1320   20.2590 C   0  0  0  0  0  0  0  0  0  0  0  0
  -23.4490  -30.4640   21.6010 C   0  0  0  0  0  3  0  0  0  0  0  0
  -24.9100  -28.8740   20.2030 C   0  0  0  0  0  0  0  0  0  0  0  0
  -26.0030  -30.7330   21.4530 C   0  0  0  0  0  2  0  0  0  0  0  0
  -26.0890  -29.3340   20.8080 C   0  0  0  0  0  0  0  0  0  0  0  0
  -27.2640  -28.4830   20.8060 C   0  0  0  0  0  3  0  0  0  0  0  0
  -26.0380  -26.7690   19.6300 C   0  0  0  0  0  3  0  0  0  0  0  0
  -24.8970  -27.6060   19.5960 C   0  0  0  0  0  3  0  0  0  0  0  0
  -23.6830  -29.7750   20.2320 C   0  0  0  0  0  2  0  0  0  0  0  0
  -24.7150  -31.0450   22.1520 N   0  0  0  0  0  0  0  0  0  0  0  0
  -23.5360  -32.1630   23.7540 O   0  0  0  0  0  0  0  0  0  0  0  0
  -22.7660  -29.4640   22.5690 C   0  0  0  0  0  0  0  0  0  0  0  0
  -21.4380  -29.2890   22.4310 N   0  0  0  0  0  0  0  0  0  0  0  0
  -23.4300  -28.8470   23.4030 O   0  0  0  0  0  0  0  0  0  0  0  0
  -20.9590  -29.8360   21.7300 H   0  0  0  0  0  0  0  0  0  0  0  0
  -18.0560  -28.0820   22.9260 C   0  0  0  0  0  0  0  0  0  0  0  0
  -20.6120  -28.3500   23.1980 C   0  0  0  0  0  3  0  0  0  0  0  0
  -20.7240  -26.9170   22.6290 C   0  0  0  0  0  2  0  0  0  0  0  0
  -19.6250  -26.5890   21.6130 C   0  0  0  0  0  2  0  0  0  0  0  0
  -18.2400  -26.7340   22.2500 C   0  0  0  0  0  2  0  0  0  0  0  0
  -19.1700  -28.8470   23.3560 C   0  0  0  0  0  0  0  0  0  0  0  0
  -18.9460  -30.1110   23.9480 C   0  0  0  0  0  3  0  0  0  0  0  0
  -17.6360  -30.6040   24.1130 C   0  0  0  0  0  3  0  0  0  0  0  0
  -16.5370  -29.8340   23.6960 C   0  0  0  0  0  3  0  0  0  0  0  0
  -16.7460  -28.5760   23.1070 C   0  0  0  0  0  3  0  0  0  0  0  0
  -25.8970  -32.5220   23.8710 C   0  0  0  0  0  3  0  0  0  0  0  0
  -26.3990  -31.7620   25.1630 C   0  0  1  0  0  0  0  0  0  0  0  0
  -25.2870  -31.5210   26.2150 C   0  0  0  0  0  1  0  0  0  0  0  0
  -27.0000  -30.3870   24.7940 C   0  0  0  0  0  1  0  0  0  0  0  0
  -27.5430  -32.5680   25.8230 C   0  0  0  0  0  1  0  0  0  0  0  0
  -25.5690  -33.9180   24.1980 N   0  0  0  0  0  0  0  0  0  0  0  0
  -25.9070  -34.9780   23.4510 C   0  0  0  0  0  0  0  0  0  0  0  0
  -26.5920  -34.8790   22.4280 O   0  0  0  0  0  0  0  0  0  0  0  0
  -24.9510  -34.0600   24.9830 H   0  0  0  0  0  0  0  0  0  0  0  0
  -24.1800  -36.7780   23.0960 C   0  0  0  0  0  1  0  0  0  0  0  0
  -25.4180  -36.3660   23.9090 C   0  0  0  0  0  3  0  0  0  0  0  0
  -27.5480  -37.2560   24.7580 C   0  0  0  0  0  1  0  0  0  0  0  0
  -26.4530  -37.4210   23.8050 N   0  0  0  0  0  0  0  0  0  0  0  0
  -26.0490  -38.3420   23.9480 H   0  0  0  0  0  0  0  0  0  0  0  0
  -29.2440  -19.2040   20.3040 C   0  0  0  0  0  3  0  0  0  0  0  0
  -30.1990  -17.7790   20.4380 C   0  0  0  0  0  3  0  0  0  0  0  0
  -30.4800  -15.0190   20.2170 C   0  0  0  0  0  0  0  0  0  0  0  0
  -30.3030  -12.6740   19.2480 C   0  0  0  0  0  2  0  0  0  0  0  0
  -29.3390  -12.6290   18.0410 C   0  0  0  0  0  2  0  0  0  0  0  0
  -27.8980  -12.3890   18.5240 C   0  0  0  0  0  2  0  0  0  0  0  0
  -27.5080  -13.3220   19.6990 C   0  0  0  0  0  3  0  0  0  0  0  0
  -28.5940  -13.3680   20.7970 C   0  0  0  0  0  2  0  0  0  0  0  0
  -29.8500  -13.7730   20.1530 N   0  0  0  0  0  0  0  0  0  0  0  0
  -31.6840  -15.0440   19.9460 O   0  0  0  0  0  0  0  0  0  0  0  0
  -29.7520  -16.2430   20.3800 N   0  0  0  0  0  0  0  0  0  0  0  0
  -28.7630  -16.0980   20.5200 H   0  0  0  0  0  0  0  0  0  0  0  0
  -25.1440  -13.8830   20.4990 C   0  0  0  0  0  0  0  0  0  0  0  0
  -24.0910  -13.0980   20.8790 C   0  0  0  0  0  0  0  0  0  0  0  0
  -24.5620  -11.7510   20.8350 C   0  0  0  0  0  0  0  0  0  0  0  0
  -26.1880  -13.0130   20.2330 N   0  0  0  0  0  0  0  0  0  0  0  0
  -25.8480  -11.7240   20.5020 N   0  0  0  0  0  0  0  0  0  0  0  0
  -23.8470  -10.4810   21.0280 C   0  0  0  0  0  0  0  0  0  0  0  0
  -24.2830   -9.5110   21.9580 C   0  0  0  0  0  3  0  0  0  0  0  0
  -23.5560   -8.3150   22.1380 C   0  0  0  0  0  3  0  0  0  0  0  0
  -22.3810   -8.0760   21.3870 C   0  0  0  0  0  0  0  0  0  0  0  0
  -21.9630   -9.0360   20.4480 C   0  0  0  0  0  3  0  0  0  0  0  0
  -22.6890  -10.2230   20.2650 C   0  0  0  0  0  3  0  0  0  0  0  0
  -21.6260   -6.9280   21.4790 O   0  0  0  0  0  0  0  0  0  0  0  0
  -21.5810   -6.1870   22.6310 C   0  0  0  0  0  0  0  0  0  0  0  0
  -21.1390   -6.7400   23.8530 C   0  0  0  0  0  3  0  0  0  0  0  0
  -21.0400   -5.9260   24.9990 C   0  0  0  0  0  3  0  0  0  0  0  0
  -21.3730   -4.5600   24.9240 C   0  0  0  0  0  0  0  0  0  0  0  0
  -21.8070   -4.0060   23.7060 C   0  0  0  0  0  3  0  0  0  0  0  0
  -21.9080   -4.8180   22.5610 C   0  0  0  0  0  0  0  0  0  0  0  0
  -22.3070   -4.2750   21.3860 F   0  0  0  0  0  0  0  0  0  0  0  0
  -21.2710   -3.7750   26.0210 F   0  0  0  0  0  0  0  0  0  0  0  0
  -22.6960  -13.5670   21.1760 C   0  0  0  0  0  0  0  0  0  0  0  0
  -21.9820  -12.8600   22.0440 N   0  0  0  0  0  0  0  0  0  0  0  0
  -22.2490  -14.5970   20.6740 O   0  0  0  0  0  0  0  0  0  0  0  0
  -22.3540  -12.0210   22.4670 H   0  0  0  0  0  0  0  0  0  0  0  0
  -21.0530  -13.1660   22.2940 H   0  0  0  0  0  0  0  0  0  0  0  0
  -25.2950  -15.2540   20.3240 N   0  0  0  0  0  0  0  0  0  0  0  0
  -24.5190  -15.8980   20.4350 H   0  0  0  0  0  0  0  0  0  0  0  0
  -26.1250  -15.7050   19.9600 H   0  0  0  0  0  0  0  0  0  0  0  0
  1  3  1  0
  2  9  1  0
  2  6  1  0
  2  4  1  0
  4  1  2  0
  5  1  1  0
  6  5  1  0
  9  8  1  6
  9  7  1  0
  9 10  1  0
 11 13  1  0
 11 10  1  0
 12 23  2  0
 13 18  1  0
 14 22  1  0
 14 24  1  0
 15 21  1  0
 15 17  1  0
 16 22  1  0
 17 16  1  0
 18 17  2  0
 19 13  2  0
 20 19  1  0
 20 15  2  0
 21 14  1  0
 22 12  1  0
 24 26  2  0
 25 24  1  0
 27 25  1  0
 28 37  2  0
 28 33  1  0
 29 25  1  0
 29 33  1  0
 30 29  1  0
 31 32  1  0
 31 30  1  0
 32 28  1  0
 33 34  2  0
 34 35  1  0
 36 35  2  0
 37 36  1  0
 38 12  1  0
 38 43  1  0
 38 39  1  0
 39 42  1  1
 39 40  1  0
 41 39  1  0
 43 46  1  0
 44 48  1  0
 44 43  1  0
 45 44  2  0
 48 47  1  0
 50 48  1  0
 50 51  1  0
 50 49  1  0
 52 53  2  0
 52  6  1  0
 54 62  1  0
 55 60  1  0
 56 57  1  0
 56 55  1  0
 58 57  1  0
 58 67  1  0
 58 59  1  0
 60 54  1  0
 60 59  1  0
 61 54  2  0
 62 53  1  0
 62 63  1  0
 64 65  2  0
 65 84  1  0
 66 65  1  0
 66 69  1  0
 67 64  1  0
 67 68  1  0
 68 66  2  0
 69 70  1  0
 70 71  2  0
 72 75  1  0
 72 71  1  0
 73 72  2  0
 74 73  1  0
 74 69  2  0
 75 76  1  0
 76 77  1  0
 77 78  2  0
 79 78  1  0
 79 83  1  0
 80 79  2  0
 81 76  2  0
 81 80  1  0
 82 81  1  0
 84 85  1  0
 85 88  1  0
 85 87  1  0
 86 84  2  0
 89 90  1  0
 89 64  1  0
 91 89  1  0
M  ISO  4  10 101  11 101  54 100  62 100
M  END
>  <TORSDO>  (11) 
F 20

>  <SCORE>  (11) 
-14.618

>  <name>  (11) 
10

>  <ligand_id>  (11) 
10

>  <original_smiles>  (11) 
[H]c1c([H])c([H])c2c(c1[H])C([H])([H])C([H])([H])C([H])([H])C2([H])N([H])C(=O)C1([H])N(C(=O)C([H])(N([H])C(=O)C([H])(N([H])C([H])([H])[H])C([H])([H])[H])C(C([H])([H])[H])(C([H])([H])[H])C([H])([H])[H])C([H])([H])c2c([H])c(OC([H])([H])C(c3nc(C([H])([H])[H])nn3C([H])([H])C([H])([H])N([H])C(=O)N3C([H])([H])C([H])([H])C([H])([H])C([H])(n4nc(-c5c([H])c([H])c(Oc6c([H])c([H])c(F)c([H])c6F)c([H])c5[H])c(C(=O)N([H])[H])c4N([H])[H])C3([H])[H])(C([H])([H])[H])C([H])([H])[H])c([H])c([H])c2C1([H])[H]

>  <smiles>  (11) 
[H]c1c([H])c([H])c2c(c1[H])C([H])([H])C([H])([H])C([H])([H])C2([H])N([H])C(=O)C1([H])N(C(=O)C([H])(N([H])C(=O)C([H])(N([H])C([H])([H])[H])C([H])([H])[H])C(C([H])([H])[H])(C([H])([H])[H])C([H])([H])[H])C([H])([H])c2c([H])c(OC([H])([H])C(c3nc(C([H])([H])[H])nn3C([H])([H])C([H])([H])N([H])C(=O)N3C([H])([H])C([H])([H])C([H])([H])C([H])(n4nc(-c5c([H])c([H])c(Oc6c([H])c([H])c(F)c([H])c6F)c([H])c5[H])c(C(=O)N([H])[H])c4N([H])[H])C3([H])[H])(C([H])([H])[H])C([H])([H])[H])c([H])c([H])c2C1([H])[H]

$$$$
11:0:0
     RDKit          3D

 94102  0  0  1  0  0  0  0  0999 V2000
  -28.6290  -21.6420   20.6950 C   0  0  0  0  0  3  0  0  0  0  0  0
  -28.8230  -22.9260   20.1240 C   0  0  0  0  0  0  0  0  0  0  0  0
  -29.4410  -20.5740   20.2400 C   0  0  0  0  0  0  0  0  0  0  0  0
  -30.5070  -22.0540   18.8350 C   0  0  0  0  0  0  0  0  0  0  0  0
  -29.7870  -23.1070   19.2050 N   0  0  0  0  0  0  0  0  0  0  0  0
  -30.3720  -20.8150   19.2950 N   0  0  0  0  0  0  0  0  0  0  0  0
  -32.9070  -22.7860   18.4330 C   0  0  0  0  0  1  0  0  0  0  0  0
  -31.5940  -22.3020   17.8040 C   0  0  0  0  0  2  0  0  0  0  0  0
  -27.8550  -18.5990   20.0060 C   0  0  0  0  0  1  0  0  0  0  0  0
  -29.1710  -19.0910   20.6320 C   0  0  0  0  0  3  0  0  0  0  0  0
  -30.4400  -17.5590   18.9280 C   0  0  0  0  0  1  0  0  0  0  0  0
  -30.3510  -18.0660   20.3880 C   0  0  0  0  0  3  0  0  0  0  0  0
  -30.4970  -16.8960   21.4330 C   0  0  0  0  0  2  0  0  0  0  0  0
  -30.7050  -14.5210   20.5290 C   0  0  0  0  0  0  0  0  0  0  0  0
  -30.4210  -12.3560   19.3670 C   0  0  0  0  0  2  0  0  0  0  0  0
  -29.4990  -12.5490   18.1470 C   0  0  0  0  0  2  0  0  0  0  0  0
  -28.0160  -12.4110   18.5530 C   0  0  0  0  0  2  0  0  0  0  0  0
  -27.6620  -13.2600   19.8040 C   0  0  0  0  0  3  0  0  0  0  0  0
  -28.6960  -13.0470   20.9290 C   0  0  0  0  0  2  0  0  0  0  0  0
  -30.0270  -13.3490   20.3790 N   0  0  0  0  0  0  0  0  0  0  0  0
  -31.8530  -14.6830   20.1050 O   0  0  0  0  0  0  0  0  0  0  0  0
  -30.0000  -15.5470   21.0620 N   0  0  0  0  0  0  0  0  0  0  0  0
  -29.0540  -15.3270   21.3320 H   0  0  0  0  0  0  0  0  0  0  0  0
  -25.2550  -13.8830   20.4710 C   0  0  0  0  0  0  0  0  0  0  0  0
  -24.1790  -13.1210   20.8370 C   0  0  0  0  0  0  0  0  0  0  0  0
  -24.6330  -11.7670   20.8310 C   0  0  0  0  0  0  0  0  0  0  0  0
  -26.2980  -12.9940   20.2640 N   0  0  0  0  0  0  0  0  0  0  0  0
  -25.9280  -11.7160   20.5400 N   0  0  0  0  0  0  0  0  0  0  0  0
  -23.8980  -10.5120   21.0270 C   0  0  0  0  0  0  0  0  0  0  0  0
  -24.3230   -9.5480   21.9660 C   0  0  0  0  0  3  0  0  0  0  0  0
  -23.5930   -8.3520   22.1470 C   0  0  0  0  0  3  0  0  0  0  0  0
  -22.4220   -8.1160   21.3880 C   0  0  0  0  0  0  0  0  0  0  0  0
  -22.0180   -9.0680   20.4350 C   0  0  0  0  0  3  0  0  0  0  0  0
  -22.7480  -10.2540   20.2540 C   0  0  0  0  0  3  0  0  0  0  0  0
  -21.6570   -6.9780   21.4810 O   0  0  0  0  0  0  0  0  0  0  0  0
  -21.6060   -6.2380   22.6350 C   0  0  0  0  0  0  0  0  0  0  0  0
  -21.1990   -6.7990   23.8660 C   0  0  0  0  0  3  0  0  0  0  0  0
  -21.0970   -5.9830   25.0100 C   0  0  0  0  0  3  0  0  0  0  0  0
  -21.3920   -4.6080   24.9240 C   0  0  0  0  0  0  0  0  0  0  0  0
  -21.7900   -4.0470   23.6980 C   0  0  0  0  0  3  0  0  0  0  0  0
  -21.8950   -4.8590   22.5560 C   0  0  0  0  0  0  0  0  0  0  0  0
  -22.2600   -4.3100   21.3720 F   0  0  0  0  0  0  0  0  0  0  0  0
  -21.2850   -3.8230   26.0220 F   0  0  0  0  0  0  0  0  0  0  0  0
  -22.7790  -13.6070   21.0840 C   0  0  0  0  0  0  0  0  0  0  0  0
  -22.0330  -12.9260   21.9460 N   0  0  0  0  0  0  0  0  0  0  0  0
  -22.3540  -14.6290   20.5440 O   0  0  0  0  0  0  0  0  0  0  0  0
  -22.3860  -12.1010   22.4070 H   0  0  0  0  0  0  0  0  0  0  0  0
  -21.0920  -13.2340   22.1480 H   0  0  0  0  0  0  0  0  0  0  0  0
  -25.4290  -15.2500   20.2760 N   0  0  0  0  0  0  0  0  0  0  0  0
  -24.6680  -15.9110   20.3920 H   0  0  0  0  0  0  0  0  0  0  0  0
  -26.2780  -15.6790   19.9270 H   0  0  0  0  0  0  0  0  0  0  0  0
  -27.8580  -24.1150   20.3160 C   0  0  0  0  0  2  0  0  0  0  0  0
  -28.4340  -25.4320   20.9380 C   0  0  0  0  0  2  0  0  0  0  0  0
  -28.3740  -26.6510   20.1510 O   0  0  0  0  0  0  0  0  0  0  0  0
  -24.5860  -31.8840   23.2400 C   0  0  0  0  0  0  0  0  0  0  0  0
  -27.2100  -27.3970   20.1900 C   0  0  0  0  0  0  0  0  0  0  0  0
  -23.3780  -30.4840   21.5980 C   0  0  0  0  0  3  0  0  0  0  0  0
  -24.8290  -28.9350   20.1800 C   0  0  0  0  0  0  0  0  0  0  0  0
  -25.9070  -30.8280   21.4030 C   0  0  0  0  0  2  0  0  0  0  0  0
  -25.9900  -29.4510   20.7730 C   0  0  0  0  0  0  0  0  0  0  0  0
  -27.1850  -28.6890   20.7730 C   0  0  0  0  0  3  0  0  0  0  0  0
  -26.0350  -26.9060   19.5840 C   0  0  0  0  0  3  0  0  0  0  0  0
  -24.8490  -27.6630   19.5820 C   0  0  0  0  0  3  0  0  0  0  0  0
  -23.5890  -29.8000   20.2200 C   0  0  0  0  0  2  0  0  0  0  0  0
  -24.6420  -31.0820   22.1390 N   0  0  0  0  0  0  0  0  0  0  0  0
  -23.5040  -32.1580   23.7800 O   0  0  0  0  0  0  0  0  0  0  0  0
  -22.7230  -29.4660   22.5590 C   0  0  0  0  0  0  0  0  0  0  0  0
  -21.3970  -29.2860   22.4350 N   0  0  0  0  0  0  0  0  0  0  0  0
  -23.4050  -28.8390   23.3750 O   0  0  0  0  0  0  0  0  0  0  0  0
  -20.9060  -29.8440   21.7500 H   0  0  0  0  0  0  0  0  0  0  0  0
  -18.0220  -28.0990   22.9350 C   0  0  0  0  0  0  0  0  0  0  0  0
  -20.5810  -28.3500   23.2080 C   0  0  0  0  0  3  0  0  0  0  0  0
  -20.6790  -26.9180   22.6320 C   0  0  0  0  0  2  0  0  0  0  0  0
  -19.5760  -26.5990   21.6180 C   0  0  0  0  0  2  0  0  0  0  0  0
  -18.1950  -26.7490   22.2620 C   0  0  0  0  0  2  0  0  0  0  0  0
  -19.1420  -28.8570   23.3670 C   0  0  0  0  0  0  0  0  0  0  0  0
  -18.9260  -30.1220   23.9550 C   0  0  0  0  0  3  0  0  0  0  0  0
  -17.6220  -30.6270   24.1190 C   0  0  0  0  0  3  0  0  0  0  0  0
  -16.5170  -29.8650   23.7070 C   0  0  0  0  0  3  0  0  0  0  0  0
  -16.7170  -28.6030   23.1200 C   0  0  0  0  0  3  0  0  0  0  0  0
  -25.8720  -32.5140   23.8610 C   0  0  0  0  0  3  0  0  0  0  0  0
  -25.5670  -33.9130   24.1890 N   0  0  0  0  0  0  0  0  0  0  0  0
  -25.9020  -34.9630   23.4280 C   0  0  0  0  0  0  0  0  0  0  0  0
  -26.5710  -34.8570   22.3970 O   0  0  0  0  0  0  0  0  0  0  0  0
  -24.9740  -34.0690   24.9920 H   0  0  0  0  0  0  0  0  0  0  0  0
  -24.1790  -36.7590   23.0680 C   0  0  0  0  0  1  0  0  0  0  0  0
  -25.4170  -36.3530   23.8830 C   0  0  0  0  0  3  0  0  0  0  0  0
  -27.5520  -37.2330   24.7160 C   0  0  0  0  0  1  0  0  0  0  0  0
  -26.4500  -37.4040   23.7720 N   0  0  0  0  0  0  0  0  0  0  0  0
  -26.0470  -38.3250   23.9200 H   0  0  0  0  0  0  0  0  0  0  0  0
  -26.3890  -31.7430   25.1360 C   0  0  1  0  0  0  0  0  0  0  0  0
  -25.2990  -31.5080   26.2060 C   0  0  0  0  0  1  0  0  0  0  0  0
  -26.9700  -30.3640   24.7420 C   0  0  0  0  0  1  0  0  0  0  0  0
  -27.5420  -32.5340   25.7960 C   0  0  0  0  0  1  0  0  0  0  0  0
  2 52  1  0
  2  1  2  0
  3 10  1  0
  3  1  1  0
  4  5  2  0
  4  6  1  0
  5  2  1  0
  6  3  2  0
  8  7  1  0
  8  4  1  0
 10  9  1  0
 12 11  1  0
 12 10  1  0
 12 13  1  0
 14 22  1  0
 15 20  1  0
 16 17  1  0
 16 15  1  0
 18 17  1  0
 18 27  1  0
 18 19  1  0
 20 14  1  0
 20 19  1  0
 21 14  2  0
 22 23  1  0
 22 13  1  0
 24 25  2  0
 25 44  1  0
 26 25  1  0
 26 29  1  0
 27 24  1  0
 27 28  1  0
 28 26  2  0
 29 30  1  0
 30 31  2  0
 32 35  1  0
 32 31  1  0
 33 32  2  0
 34 33  1  0
 34 29  2  0
 35 36  1  0
 36 37  1  0
 37 38  2  0
 39 38  1  0
 39 43  1  0
 40 39  2  0
 41 36  2  0
 41 40  1  0
 42 41  1  0
 44 45  1  0
 45 48  1  0
 45 47  1  0
 46 44  2  0
 49 50  1  0
 49 24  1  0
 51 49  1  0
 52 53  1  0
 54 56  1  0
 54 53  1  0
 55 66  2  0
 56 61  1  0
 57 65  1  0
 57 67  1  0
 58 64  1  0
 58 60  1  0
 59 65  1  0
 60 59  1  0
 61 60  2  0
 62 56  2  0
 63 62  1  0
 63 58  2  0
 64 57  1  0
 65 55  1  0
 67 69  2  0
 68 67  1  0
 70 68  1  0
 71 80  2  0
 71 76  1  0
 72 68  1  0
 72 76  1  0
 73 72  1  0
 74 75  1  0
 74 73  1  0
 75 71  1  0
 76 77  2  0
 77 78  1  0
 79 78  2  0
 80 79  1  0
 81 55  1  0
 81 82  1  0
 81 91  1  0
 82 85  1  0
 83 87  1  0
 83 82  1  0
 84 83  2  0
 87 86  1  0
 89 87  1  0
 89 90  1  0
 89 88  1  0
 91 94  1  1
 91 92  1  0
 93 91  1  0
M  ISO  4  14 100  22 100  53 101  54 101
M  END
>  <TORSDO>  (12) 
F 22

>  <SCORE>  (12) 
-13.413

>  <name>  (12) 
11

>  <ligand_id>  (12) 
11

>  <original_smiles>  (12) 
[H]c1c(C([H])([H])C([H])([H])Oc2c([H])c([H])c3c(c2[H])C([H])([H])N(C(=O)C([H])(N([H])C(=O)C([H])(N([H])C([H])([H])[H])C([H])([H])[H])C(C([H])([H])[H])(C([H])([H])[H])C([H])([H])[H])C([H])(C(=O)N([H])C2([H])c4c([H])c([H])c([H])c([H])c4C([H])([H])C([H])([H])C2([H])[H])C3([H])[H])nc(C([H])([H])C([H])([H])[H])nc1C([H])(C([H])([H])[H])C([H])(C([H])([H])[H])C([H])([H])N([H])C(=O)N1C([H])([H])C([H])([H])C([H])([H])C([H])(n2nc(-c3c([H])c([H])c(Oc4c([H])c([H])c(F)c([H])c4F)c([H])c3[H])c(C(=O)N([H])[H])c2N([H])[H])C1([H])[H]

>  <smiles>  (12) 
[H]c1c(C([H])([H])C([H])([H])Oc2c([H])c([H])c3c(c2[H])C([H])([H])N(C(=O)C([H])(N([H])C(=O)C([H])(N([H])C([H])([H])[H])C([H])([H])[H])C(C([H])([H])[H])(C([H])([H])[H])C([H])([H])[H])C([H])(C(=O)N([H])C2([H])c4c([H])c([H])c([H])c([H])c4C([H])([H])C([H])([H])C2([H])[H])C3([H])[H])nc(C([H])([H])C([H])([H])[H])nc1C([H])(C([H])([H])[H])C([H])(C([H])([H])[H])C([H])([H])N([H])C(=O)N1C([H])([H])C([H])([H])C([H])([H])C([H])(n2nc(-c3c([H])c([H])c(Oc4c([H])c([H])c(F)c([H])c4F)c([H])c3[H])c(C(=O)N([H])[H])c2N([H])[H])C1([H])[H]

$$$$
12:0:0
     RDKit          3D

 94102  0  0  1  0  0  0  0  0999 V2000
  -28.7900  -19.8640   18.8890 C   0  0  0  0  0  3  0  0  0  0  0  0
  -30.0700  -21.6170   18.9320 C   0  0  0  0  0  3  0  0  0  0  0  0
  -30.0620  -19.4890   19.2620 C   0  0  0  0  0  0  0  0  0  0  0  0
  -30.8710  -20.6280   19.3040 N   0  0  0  0  0  0  0  0  0  0  0  0
  -28.8050  -21.2410   18.6910 N   0  0  0  0  0  0  0  0  0  0  0  0
  -31.9650  -17.9690   18.8650 C   0  0  0  0  0  1  0  0  0  0  0  0
  -30.6010  -18.1060   19.5720 C   0  0  0  0  0  3  0  0  0  0  0  0
  -31.3050  -18.8090   21.9530 C   0  0  0  0  0  1  0  0  0  0  0  0
  -29.1350  -17.6420   21.5990 C   0  0  0  0  0  1  0  0  0  0  0  0
  -30.5980  -17.7310   21.1030 C   0  0  1  0  0  0  0  0  0  0  0  0
  -31.3120  -16.3780   21.4090 C   0  0  0  0  0  2  0  0  0  0  0  0
  -31.1100  -14.2430   20.1150 C   0  0  0  0  0  0  0  0  0  0  0  0
  -30.6390  -12.1370   18.9250 C   0  0  0  0  0  2  0  0  0  0  0  0
  -29.6800  -12.3900   17.7480 C   0  0  0  0  0  2  0  0  0  0  0  0
  -28.2140  -12.3200   18.2180 C   0  0  0  0  0  2  0  0  0  0  0  0
  -27.9510  -13.1820   19.4830 C   0  0  0  0  0  3  0  0  0  0  0  0
  -29.0170  -12.9040   20.5640 C   0  0  0  0  0  2  0  0  0  0  0  0
  -30.3440  -13.1330   19.9650 N   0  0  0  0  0  0  0  0  0  0  0  0
  -32.1840  -14.3940   19.5300 O   0  0  0  0  0  0  0  0  0  0  0  0
  -30.6140  -15.1790   20.9340 N   0  0  0  0  0  0  0  0  0  0  0  0
  -29.7140  -14.9820   21.3460 H   0  0  0  0  0  0  0  0  0  0  0  0
  -25.6000  -13.9080   20.2420 C   0  0  0  0  0  0  0  0  0  0  0  0
  -24.5060  -13.1880   20.6470 C   0  0  0  0  0  0  0  0  0  0  0  0
  -24.9050  -11.8170   20.6180 C   0  0  0  0  0  0  0  0  0  0  0  0
  -26.5980  -12.9770   19.9960 N   0  0  0  0  0  0  0  0  0  0  0  0
  -26.1830  -11.7160   20.2770 N   0  0  0  0  0  0  0  0  0  0  0  0
  -24.1280  -10.5910   20.8400 C   0  0  0  0  0  0  0  0  0  0  0  0
  -24.5260   -9.6270   21.7960 C   0  0  0  0  0  3  0  0  0  0  0  0
  -23.7530   -8.4640   22.0020 C   0  0  0  0  0  3  0  0  0  0  0  0
  -22.5700   -8.2540   21.2530 C   0  0  0  0  0  0  0  0  0  0  0  0
  -22.1920   -9.2060   20.2890 C   0  0  0  0  0  3  0  0  0  0  0  0
  -22.9650  -10.3610   20.0800 C   0  0  0  0  0  3  0  0  0  0  0  0
  -21.7690   -7.1440   21.3700 O   0  0  0  0  0  0  0  0  0  0  0  0
  -21.6650   -6.4520   22.5500 C   0  0  0  0  0  0  0  0  0  0  0  0
  -21.2410   -7.0740   23.7450 C   0  0  0  0  0  3  0  0  0  0  0  0
  -21.0810   -6.3090   24.9180 C   0  0  0  0  0  3  0  0  0  0  0  0
  -21.3360   -4.9260   24.8980 C   0  0  0  0  0  0  0  0  0  0  0  0
  -21.7540   -4.3040   23.7080 C   0  0  0  0  0  3  0  0  0  0  0  0
  -21.9150   -5.0650   22.5360 C   0  0  0  0  0  0  0  0  0  0  0  0
  -22.2970   -4.4560   21.3880 F   0  0  0  0  0  0  0  0  0  0  0  0
  -21.1770   -4.1900   26.0230 F   0  0  0  0  0  0  0  0  0  0  0  0
  -23.1390  -13.7300   20.9500 C   0  0  0  0  0  0  0  0  0  0  0  0
  -22.4070  -13.0820   21.8520 N   0  0  0  0  0  0  0  0  0  0  0  0
  -22.7280  -14.7630   20.4230 O   0  0  0  0  0  0  0  0  0  0  0  0
  -22.7490  -12.2450   22.3010 H   0  0  0  0  0  0  0  0  0  0  0  0
  -21.4900  -13.4290   22.0960 H   0  0  0  0  0  0  0  0  0  0  0  0
  -25.8240  -15.2680   20.0450 N   0  0  0  0  0  0  0  0  0  0  0  0
  -25.1010  -15.9660   20.1740 H   0  0  0  0  0  0  0  0  0  0  0  0
  -26.6910  -15.6590   19.6980 H   0  0  0  0  0  0  0  0  0  0  0  0
  -27.6620  -22.0550   18.2910 C   0  0  0  0  0  2  0  0  0  0  0  0
  -27.9640  -23.5520   18.0600 C   0  0  0  0  0  2  0  0  0  0  0  0
  -28.1830  -24.3910   19.3380 C   0  0  0  0  0  2  0  0  0  0  0  0
  -28.6040  -25.8310   18.9890 C   0  0  0  0  0  2  0  0  0  0  0  0
  -28.3970  -26.7520   20.0620 O   0  0  0  0  0  0  0  0  0  0  0  0
  -24.6040  -31.8890   23.2040 C   0  0  0  0  0  0  0  0  0  0  0  0
  -27.1990  -27.4340   20.0970 C   0  0  0  0  0  0  0  0  0  0  0  0
  -23.3740  -30.4760   21.5940 C   0  0  0  0  0  3  0  0  0  0  0  0
  -24.8000  -28.9270   20.1620 C   0  0  0  0  0  0  0  0  0  0  0  0
  -25.8980  -30.8240   21.3630 C   0  0  0  0  0  2  0  0  0  0  0  0
  -25.9660  -29.4500   20.7340 C   0  0  0  0  0  0  0  0  0  0  0  0
  -27.1640  -28.7020   20.7170 C   0  0  0  0  0  3  0  0  0  0  0  0
  -26.0070  -26.9190   19.5330 C   0  0  0  0  0  3  0  0  0  0  0  0
  -24.8110  -27.6550   19.5710 C   0  0  0  0  0  3  0  0  0  0  0  0
  -23.5600  -29.7870   20.2180 C   0  0  0  0  0  2  0  0  0  0  0  0
  -24.6440  -31.0780   22.1110 N   0  0  0  0  0  0  0  0  0  0  0  0
  -23.5310  -32.1690   23.7560 O   0  0  0  0  0  0  0  0  0  0  0  0
  -22.7350  -29.4600   22.5680 C   0  0  0  0  0  0  0  0  0  0  0  0
  -21.4140  -29.2600   22.4380 N   0  0  0  0  0  0  0  0  0  0  0  0
  -23.4240  -28.8580   23.3970 O   0  0  0  0  0  0  0  0  0  0  0  0
  -20.9230  -29.7900   21.7320 H   0  0  0  0  0  0  0  0  0  0  0  0
  -18.0560  -28.0250   22.9310 C   0  0  0  0  0  0  0  0  0  0  0  0
  -20.6060  -28.3280   23.2220 C   0  0  0  0  0  3  0  0  0  0  0  0
  -20.7380  -26.8870   22.6760 C   0  0  0  0  0  2  0  0  0  0  0  0
  -19.6500  -26.5240   21.6610 C   0  0  0  0  0  2  0  0  0  0  0  0
  -18.2590  -26.6630   22.2890 C   0  0  0  0  0  2  0  0  0  0  0  0
  -19.1570  -28.8140   23.3540 C   0  0  0  0  0  0  0  0  0  0  0  0
  -18.9110  -30.0880   23.9120 C   0  0  0  0  0  3  0  0  0  0  0  0
  -17.5970  -30.5730   24.0510 C   0  0  0  0  0  3  0  0  0  0  0  0
  -16.5100  -29.7790   23.6470 C   0  0  0  0  0  3  0  0  0  0  0  0
  -16.7390  -28.5070   23.0920 C   0  0  0  0  0  3  0  0  0  0  0  0
  -25.8980  -32.5230   23.8000 C   0  0  0  0  0  3  0  0  0  0  0  0
  -25.5900  -33.9170   24.1460 N   0  0  0  0  0  0  0  0  0  0  0  0
  -25.9100  -34.9770   23.3900 C   0  0  0  0  0  0  0  0  0  0  0  0
  -26.5670  -34.8840   22.3500 O   0  0  0  0  0  0  0  0  0  0  0  0
  -25.0130  -34.0630   24.9610 H   0  0  0  0  0  0  0  0  0  0  0  0
  -24.1780  -36.7660   23.0560 C   0  0  0  0  0  1  0  0  0  0  0  0
  -25.4220  -36.3590   23.8620 C   0  0  0  0  0  3  0  0  0  0  0  0
  -27.5590  -37.2360   24.6940 C   0  0  0  0  0  1  0  0  0  0  0  0
  -26.4530  -37.4140   23.7560 N   0  0  0  0  0  0  0  0  0  0  0  0
  -26.0470  -38.3340   23.9090 H   0  0  0  0  0  0  0  0  0  0  0  0
  -26.4490  -31.7450   25.0570 C   0  0  1  0  0  0  0  0  0  0  0  0
  -25.3800  -31.4840   26.1430 C   0  0  0  0  0  1  0  0  0  0  0  0
  -27.0320  -30.3780   24.6360 C   0  0  0  0  0  1  0  0  0  0  0  0
  -27.6110  -32.5410   25.6990 C   0  0  0  0  0  1  0  0  0  0  0  0
  1  3  2  0
  2  4  2  0
  3  4  1  0
  3  7  1  0
  5  1  1  0
  5  2  1  0
  7  6  1  0
  7 10  1  0
 10 11  1  0
 10  9  1  1
 10  8  1  0
 12 20  1  0
 13 18  1  0
 14 15  1  0
 14 13  1  0
 16 15  1  0
 16 25  1  0
 16 17  1  0
 18 12  1  0
 18 17  1  0
 19 12  2  0
 20 21  1  0
 20 11  1  0
 22 23  2  0
 23 42  1  0
 24 23  1  0
 24 27  1  0
 25 22  1  0
 25 26  1  0
 26 24  2  0
 27 28  1  0
 28 29  2  0
 30 33  1  0
 30 29  1  0
 31 30  2  0
 32 31  1  0
 32 27  2  0
 33 34  1  0
 34 35  1  0
 35 36  2  0
 37 36  1  0
 37 41  1  0
 38 37  2  0
 39 34  2  0
 39 38  1  0
 40 39  1  0
 42 43  1  0
 43 46  1  0
 43 45  1  0
 44 42  2  0
 47 48  1  0
 47 22  1  0
 49 47  1  0
 50  5  1  0
 51 50  1  0
 51 52  1  0
 53 52  1  0
 53 54  1  0
 54 56  1  0
 55 66  2  0
 56 61  1  0
 57 65  1  0
 57 67  1  0
 58 64  1  0
 58 60  1  0
 59 65  1  0
 60 59  1  0
 61 60  2  0
 62 63  1  0
 62 56  2  0
 63 58  2  0
 64 57  1  0
 65 55  1  0
 67 69  2  0
 68 67  1  0
 70 68  1  0
 71 80  2  0
 71 76  1  0
 72 68  1  0
 72 76  1  0
 73 72  1  0
 74 75  1  0
 74 73  1  0
 75 71  1  0
 76 77  2  0
 77 78  1  0
 79 78  2  0
 80 79  1  0
 81 55  1  0
 81 82  1  0
 81 91  1  0
 82 85  1  0
 83 87  1  0
 83 82  1  0
 84 83  2  0
 87 86  1  0
 89 87  1  0
 89 90  1  0
 89 88  1  0
 91 94  1  1
 91 92  1  0
 93 91  1  0
M  ISO  4  12 100  20 100  53 101  54 101
M  END
>  <TORSDO>  (13) 
F 23

>  <SCORE>  (13) 
-12.332

>  <name>  (13) 
12

>  <ligand_id>  (13) 
12

>  <original_smiles>  (13) 
[H]c1c([H])c([H])c2c(c1[H])C([H])([H])C([H])([H])C([H])([H])C2([H])N([H])C(=O)C1([H])N(C(=O)C([H])(N([H])C(=O)C([H])(N([H])C([H])([H])[H])C([H])([H])[H])C(C([H])([H])[H])(C([H])([H])[H])C([H])([H])[H])C([H])([H])c2c([H])c(OC([H])([H])C([H])([H])C([H])([H])C([H])([H])n3c([H])nc(C([H])(C([H])([H])[H])C(C([H])([H])[H])(C([H])([H])[H])C([H])([H])N([H])C(=O)N4C([H])([H])C([H])([H])C([H])([H])C([H])(n5nc(-c6c([H])c([H])c(Oc7c([H])c([H])c(F)c([H])c7F)c([H])c6[H])c(C(=O)N([H])[H])c5N([H])[H])C4([H])[H])c3[H])c([H])c([H])c2C1([H])[H]

>  <smiles>  (13) 
[H]c1c([H])c([H])c2c(c1[H])C([H])([H])C([H])([H])C([H])([H])C2([H])N([H])C(=O)C1([H])N(C(=O)C([H])(N([H])C(=O)C([H])(N([H])C([H])([H])[H])C([H])([H])[H])C(C([H])([H])[H])(C([H])([H])[H])C([H])([H])[H])C([H])([H])c2c([H])c(OC([H])([H])C([H])([H])C([H])([H])C([H])([H])n3c([H])nc(C([H])(C([H])([H])[H])C(C([H])([H])[H])(C([H])([H])[H])C([H])([H])N([H])C(=O)N4C([H])([H])C([H])([H])C([H])([H])C([H])(n5nc(-c6c([H])c([H])c(Oc7c([H])c([H])c(F)c([H])c7F)c([H])c6[H])c(C(=O)N([H])[H])c5N([H])[H])C4([H])[H])c3[H])c([H])c([H])c2C1([H])[H]

$$$$
13:0:0
     RDKit          3D

 89 97  0  0  1  0  0  0  0  0999 V2000
  -27.9080  -22.1830   20.9270 C   0  0  0  0  0  3  0  0  0  0  0  0
  -28.6820  -22.1490   19.7520 C   0  0  0  0  0  0  0  0  0  0  0  0
  -29.6340  -20.9820   19.7650 C   0  0  0  0  0  3  0  0  0  0  0  0
  -28.3330  -21.5950   22.0660 N   0  0  0  0  0  0  0  0  0  0  0  0
  -30.2420  -20.8280   20.9640 N   0  0  0  0  0  0  0  0  0  0  0  0
  -29.5540  -21.0540   22.0880 N   0  0  0  0  0  0  0  0  0  0  0  0
  -28.8060  -23.6440   19.0620 C   0  0  0  0  0  3  0  0  0  0  0  0
  -27.8500  -24.9720   19.4970 C   0  0  0  0  0  2  0  0  0  0  0  0
  -28.0820  -26.5050   19.2930 O   0  0  0  0  0  0  0  0  0  0  0  0
  -24.6320  -31.7880   23.1440 C   0  0  0  0  0  0  0  0  0  0  0  0
  -27.0090  -27.4600   19.4440 C   0  0  0  0  0  0  0  0  0  0  0  0
  -23.3180  -30.5390   21.4740 C   0  0  0  0  0  3  0  0  0  0  0  0
  -24.6640  -29.1510   19.7840 C   0  0  0  0  0  0  0  0  0  0  0  0
  -25.8470  -30.8740   21.1310 C   0  0  0  0  0  2  0  0  0  0  0  0
  -25.8850  -29.5560   20.3380 C   0  0  0  0  0  0  0  0  0  0  0  0
  -27.0570  -28.7290   20.1510 C   0  0  0  0  0  3  0  0  0  0  0  0
  -25.7580  -27.1690   18.8550 C   0  0  0  0  0  3  0  0  0  0  0  0
  -24.6130  -27.9740   19.0260 C   0  0  0  0  0  3  0  0  0  0  0  0
  -23.4320  -30.0090   20.0220 C   0  0  0  0  0  2  0  0  0  0  0  0
  -24.6240  -31.0820   21.9720 N   0  0  0  0  0  0  0  0  0  0  0  0
  -23.5890  -31.9960   23.7820 O   0  0  0  0  0  0  0  0  0  0  0  0
  -22.7330  -29.4250   22.3790 C   0  0  0  0  0  0  0  0  0  0  0  0
  -21.4180  -29.1700   22.2660 N   0  0  0  0  0  0  0  0  0  0  0  0
  -23.4660  -28.7920   23.1430 O   0  0  0  0  0  0  0  0  0  0  0  0
  -20.8750  -29.7390   21.6310 H   0  0  0  0  0  0  0  0  0  0  0  0
  -18.1650  -27.6250   22.6620 C   0  0  0  0  0  0  0  0  0  0  0  0
  -20.6800  -28.1300   22.9890 C   0  0  0  0  0  3  0  0  0  0  0  0
  -20.9350  -26.7360   22.3690 C   0  0  0  0  0  2  0  0  0  0  0  0
  -19.8880  -26.3410   21.3230 C   0  0  0  0  0  2  0  0  0  0  0  0
  -18.4880  -26.3260   21.9430 C   0  0  0  0  0  2  0  0  0  0  0  0
  -19.1950  -28.4800   23.1390 C   0  0  0  0  0  0  0  0  0  0  0  0
  -18.8400  -29.6910   23.7720 C   0  0  0  0  0  3  0  0  0  0  0  0
  -17.4890  -30.0520   23.9280 C   0  0  0  0  0  3  0  0  0  0  0  0
  -16.4740  -29.1950   23.4690 C   0  0  0  0  0  3  0  0  0  0  0  0
  -16.8130  -27.9830   22.8420 C   0  0  0  0  0  3  0  0  0  0  0  0
  -25.9500  -32.3830   23.7290 C   0  0  0  0  0  3  0  0  0  0  0  0
  -26.5300  -31.5400   24.9320 C   0  0  1  0  0  0  0  0  0  0  0  0
  -25.4970  -31.2510   26.0460 C   0  0  0  0  0  1  0  0  0  0  0  0
  -27.0770  -30.1800   24.4400 C   0  0  0  0  0  1  0  0  0  0  0  0
  -27.7250  -32.2920   25.5650 C   0  0  0  0  0  1  0  0  0  0  0  0
  -25.6660  -33.7620   24.1580 N   0  0  0  0  0  0  0  0  0  0  0  0
  -26.0000  -34.8600   23.4660 C   0  0  0  0  0  0  0  0  0  0  0  0
  -26.6450  -34.8140   22.4150 O   0  0  0  0  0  0  0  0  0  0  0  0
  -25.0930  -33.8720   24.9830 H   0  0  0  0  0  0  0  0  0  0  0  0
  -24.3050  -36.7110   23.2710 C   0  0  0  0  0  1  0  0  0  0  0  0
  -25.5510  -36.2220   24.0280 C   0  0  0  0  0  3  0  0  0  0  0  0
  -27.7160  -37.0090   24.8860 C   0  0  0  0  0  1  0  0  0  0  0  0
  -26.6040  -37.2600   23.9720 N   0  0  0  0  0  0  0  0  0  0  0  0
  -26.2180  -38.1770   24.1850 H   0  0  0  0  0  0  0  0  0  0  0  0
  -29.3260  -19.3970   19.4050 C   0  0  0  0  0  3  0  0  0  0  0  0
  -30.3820  -18.1110   19.7370 C   0  0  0  0  0  3  0  0  0  0  0  0
  -30.8300  -15.3870   19.7000 C   0  0  0  0  0  0  0  0  0  0  0  0
  -30.7310  -12.9540   18.9940 C   0  0  0  0  0  2  0  0  0  0  0  0
  -29.7630  -12.7620   17.8030 C   0  0  0  0  0  2  0  0  0  0  0  0
  -28.3180  -12.5680   18.3020 C   0  0  0  0  0  2  0  0  0  0  0  0
  -27.9220  -13.6060   19.3850 C   0  0  0  0  0  3  0  0  0  0  0  0
  -29.0060  -13.7560   20.4710 C   0  0  0  0  0  2  0  0  0  0  0  0
  -30.2500  -14.1240   19.7820 N   0  0  0  0  0  0  0  0  0  0  0  0
  -32.0290  -15.4440   19.4130 O   0  0  0  0  0  0  0  0  0  0  0  0
  -30.0350  -16.5650   19.7390 N   0  0  0  0  0  0  0  0  0  0  0  0
  -29.0560  -16.3660   19.8910 H   0  0  0  0  0  0  0  0  0  0  0  0
  -25.6010  -14.2310   20.2620 C   0  0  0  0  0  0  0  0  0  0  0  0
  -24.5390  -13.4780   20.6750 C   0  0  0  0  0  0  0  0  0  0  0  0
  -24.9650  -12.1160   20.5950 C   0  0  0  0  0  0  0  0  0  0  0  0
  -26.6060  -13.3320   19.9500 N   0  0  0  0  0  0  0  0  0  0  0  0
  -26.2370  -12.0530   20.2180 N   0  0  0  0  0  0  0  0  0  0  0  0
  -24.2160  -10.8700   20.8000 C   0  0  0  0  0  0  0  0  0  0  0  0
  -24.6190   -9.9110   21.7570 C   0  0  0  0  0  3  0  0  0  0  0  0
  -23.8690   -8.7310   21.9470 C   0  0  0  0  0  3  0  0  0  0  0  0
  -22.6990   -8.5020   21.1820 C   0  0  0  0  0  0  0  0  0  0  0  0
  -22.3160   -9.4480   20.2150 C   0  0  0  0  0  3  0  0  0  0  0  0
  -23.0680  -10.6190   20.0220 C   0  0  0  0  0  3  0  0  0  0  0  0
  -21.9210   -7.3740   21.2820 O   0  0  0  0  0  0  0  0  0  0  0  0
  -21.7800   -6.7010   22.4690 C   0  0  0  0  0  0  0  0  0  0  0  0
  -21.2580   -7.3250   23.6230 C   0  0  0  0  0  3  0  0  0  0  0  0
  -21.0650   -6.5770   24.8020 C   0  0  0  0  0  3  0  0  0  0  0  0
  -21.3830   -5.2060   24.8260 C   0  0  0  0  0  0  0  0  0  0  0  0
  -21.8970   -4.5810   23.6770 C   0  0  0  0  0  3  0  0  0  0  0  0
  -22.0930   -5.3260   22.5010 C   0  0  0  0  0  0  0  0  0  0  0  0
  -22.5700   -4.7140   21.3900 F   0  0  0  0  0  0  0  0  0  0  0  0
  -21.1900   -4.4850   25.9560 F   0  0  0  0  0  0  0  0  0  0  0  0
  -23.1700  -13.9850   21.0240 C   0  0  0  0  0  0  0  0  0  0  0  0
  -22.4720  -13.3000   21.9220 N   0  0  0  0  0  0  0  0  0  0  0  0
  -22.7320  -15.0260   20.5360 O   0  0  0  0  0  0  0  0  0  0  0  0
  -22.8410  -12.4570   22.3370 H   0  0  0  0  0  0  0  0  0  0  0  0
  -21.5550  -13.6220   22.2000 H   0  0  0  0  0  0  0  0  0  0  0  0
  -25.7870  -15.6020   20.1000 N   0  0  0  0  0  0  0  0  0  0  0  0
  -25.0340  -16.2620   20.2600 H   0  0  0  0  0  0  0  0  0  0  0  0
  -26.6090  -16.0300   19.6960 H   0  0  0  0  0  0  0  0  0  0  0  0
  1  4  2  0
  2  3  1  0
  2  1  1  0
  3 50  1  0
  3  5  1  0
  4  6  1  0
  5  6  2  0
  7  8  1  0
  7  2  2  0
  9 11  1  0
  9  8  1  0
 10 21  2  0
 11 16  1  0
 12 20  1  0
 12 22  1  0
 13 19  1  0
 13 15  1  0
 14 20  1  0
 15 14  1  0
 16 15  2  0
 17 18  1  0
 17 11  2  0
 18 13  2  0
 19 12  1  0
 20 10  1  0
 22 24  2  0
 23 22  1  0
 25 23  1  0
 26 35  2  0
 26 31  1  0
 27 23  1  0
 27 31  1  0
 28 27  1  0
 29 30  1  0
 29 28  1  0
 30 26  1  0
 31 32  2  0
 32 33  1  0
 34 33  2  0
 35 34  1  0
 36 10  1  0
 36 41  1  0
 36 37  1  0
 37 40  1  1
 37 38  1  0
 39 37  1  0
 41 44  1  0
 42 46  1  0
 42 41  1  0
 43 42  2  0
 46 45  1  0
 48 46  1  0
 48 49  1  0
 48 47  1  0
 50 51  2  0
 51 60  1  0
 52 60  1  0
 52 58  1  0
 53 58  1  0
 54 55  1  0
 54 53  1  0
 56 55  1  0
 56 65  1  0
 56 57  1  0
 58 57  1  0
 59 52  2  0
 60 61  1  0
 62 63  2  0
 63 82  1  0
 64 63  1  0
 64 67  1  0
 65 66  1  0
 65 62  1  0
 66 64  2  0
 67 68  1  0
 68 69  2  0
 70 73  1  0
 70 69  1  0
 71 70  2  0
 72 71  1  0
 72 67  2  0
 73 74  1  0
 74 79  2  0
 74 75  1  0
 75 76  2  0
 76 77  1  0
 77 81  1  0
 78 77  2  0
 79 78  1  0
 80 79  1  0
 82 83  1  0
 83 86  1  0
 83 85  1  0
 84 82  2  0
 87 88  1  0
 87 62  1  0
 89 87  1  0
M  ISO  4   8 101   9 101  52 100  60 100
M  END
>  <TORSDO>  (14) 
F 20

>  <SCORE>  (14) 
-13.473

>  <name>  (14) 
13

>  <ligand_id>  (14) 
13

>  <original_smiles>  (14) 
[H]c1nnnc(C([H])([H])C([H])([H])N([H])C(=O)N2C([H])([H])C([H])([H])C([H])([H])C([H])(n3nc(-c4c([H])c([H])c(Oc5c([H])c([H])c(F)c([H])c5F)c([H])c4[H])c(C(=O)N([H])[H])c3N([H])[H])C2([H])[H])c1C([H])([H])C([H])([H])Oc1c([H])c([H])c2c(c1[H])C([H])([H])N(C(=O)C([H])(N([H])C(=O)C([H])(N([H])C([H])([H])[H])C([H])([H])[H])C(C([H])([H])[H])(C([H])([H])[H])C([H])([H])[H])C([H])(C(=O)N([H])C1([H])c3c([H])c([H])c([H])c([H])c3C([H])([H])C([H])([H])C1([H])[H])C2([H])[H]

>  <smiles>  (14) 
[H]c1nnnc(C([H])([H])C([H])([H])N([H])C(=O)N2C([H])([H])C([H])([H])C([H])([H])C([H])(n3nc(-c4c([H])c([H])c(Oc5c([H])c([H])c(F)c([H])c5F)c([H])c4[H])c(C(=O)N([H])[H])c3N([H])[H])C2([H])[H])c1C([H])([H])C([H])([H])Oc1c([H])c([H])c2c(c1[H])C([H])([H])N(C(=O)C([H])(N([H])C(=O)C([H])(N([H])C([H])([H])[H])C([H])([H])[H])C(C([H])([H])[H])(C([H])([H])[H])C([H])([H])[H])C([H])(C(=O)N([H])C1([H])c3c([H])c([H])c([H])c([H])c3C([H])([H])C([H])([H])C1([H])[H])C2([H])[H]

$$$$
14:0:0
     RDKit          3D

 93101  0  0  1  0  0  0  0  0999 V2000
  -29.9410  -20.6940   20.7990 C   0  0  0  0  0  0  0  0  0  0  0  0
  -29.7070  -22.1720   20.4470 C   0  0  0  0  0  0  0  0  0  0  0  0
  -31.1080  -20.5090   21.6050 C   0  0  0  0  0  0  0  0  0  0  0  0
  -30.9050  -22.9580   20.4720 C   0  0  0  0  0  0  0  0  0  0  0  0
  -32.1280  -21.3840   21.6630 N   0  0  0  0  0  0  0  0  0  0  0  0
  -32.0610  -22.5360   21.0230 N   0  0  0  0  0  0  0  0  0  0  0  0
  -31.2430  -19.8300   24.0650 C   0  0  0  0  0  1  0  0  0  0  0  0
  -31.3000  -19.3580   22.6030 C   0  0  0  0  0  2  0  0  0  0  0  0
  -32.4010  -24.8960   19.5940 C   0  0  0  0  0  1  0  0  0  0  0  0
  -30.9910  -24.3980   19.9640 C   0  0  0  0  0  2  0  0  0  0  0  0
  -29.1910  -19.2400   20.5220 C   0  0  0  0  0  2  0  0  0  0  0  0
  -30.0580  -17.8230   20.0620 C   0  0  0  0  0  2  0  0  0  0  0  0
  -30.4460  -15.0910   20.0900 C   0  0  0  0  0  0  0  0  0  0  0  0
  -30.2920  -12.7560   19.1010 C   0  0  0  0  0  2  0  0  0  0  0  0
  -29.3110  -12.7340   17.9060 C   0  0  0  0  0  2  0  0  0  0  0  0
  -27.8690  -12.5000   18.3910 C   0  0  0  0  0  2  0  0  0  0  0  0
  -27.5060  -13.3880   19.6100 C   0  0  0  0  0  3  0  0  0  0  0  0
  -28.6070  -13.3900   20.6910 C   0  0  0  0  0  2  0  0  0  0  0  0
  -29.8450  -13.8300   20.0390 N   0  0  0  0  0  0  0  0  0  0  0  0
  -31.6310  -15.1520   19.7480 O   0  0  0  0  0  0  0  0  0  0  0  0
  -29.6950  -16.2890   20.3050 N   0  0  0  0  0  0  0  0  0  0  0  0
  -28.7330  -16.1200   20.5590 H   0  0  0  0  0  0  0  0  0  0  0  0
  -25.1480  -13.9200   20.4430 C   0  0  0  0  0  0  0  0  0  0  0  0
  -24.1100  -13.1260   20.8460 C   0  0  0  0  0  0  0  0  0  0  0  0
  -24.5930  -11.7830   20.7840 C   0  0  0  0  0  0  0  0  0  0  0  0
  -26.1940  -13.0610   20.1570 N   0  0  0  0  0  0  0  0  0  0  0  0
  -25.8730  -11.7700   20.4270 N   0  0  0  0  0  0  0  0  0  0  0  0
  -23.8910  -10.5080   20.9860 C   0  0  0  0  0  0  0  0  0  0  0  0
  -24.3560   -9.5470   21.9100 C   0  0  0  0  0  3  0  0  0  0  0  0
  -23.6520   -8.3380   22.1020 C   0  0  0  0  0  3  0  0  0  0  0  0
  -22.4680   -8.0820   21.3700 C   0  0  0  0  0  0  0  0  0  0  0  0
  -22.0220   -9.0320   20.4350 C   0  0  0  0  0  3  0  0  0  0  0  0
  -22.7270  -10.2320   20.2410 C   0  0  0  0  0  3  0  0  0  0  0  0
  -21.7340   -6.9250   21.4720 O   0  0  0  0  0  0  0  0  0  0  0  0
  -21.7080   -6.1890   22.6290 C   0  0  0  0  0  0  0  0  0  0  0  0
  -21.2660   -6.7370   23.8520 C   0  0  0  0  0  3  0  0  0  0  0  0
  -21.1900   -5.9260   25.0020 C   0  0  0  0  0  3  0  0  0  0  0  0
  -21.5450   -4.5650   24.9280 C   0  0  0  0  0  0  0  0  0  0  0  0
  -21.9800   -4.0160   23.7110 C   0  0  0  0  0  3  0  0  0  0  0  0
  -22.0590   -4.8250   22.5630 C   0  0  0  0  0  0  0  0  0  0  0  0
  -22.4580   -4.2840   21.3870 F   0  0  0  0  0  0  0  0  0  0  0  0
  -21.4660   -3.7830   26.0310 F   0  0  0  0  0  0  0  0  0  0  0  0
  -22.7160  -13.5800   21.1680 C   0  0  0  0  0  0  0  0  0  0  0  0
  -22.0280  -12.8660   22.0520 N   0  0  0  0  0  0  0  0  0  0  0  0
  -22.2470  -14.6030   20.6720 O   0  0  0  0  0  0  0  0  0  0  0  0
  -22.4220  -12.0380   22.4730 H   0  0  0  0  0  0  0  0  0  0  0  0
  -21.0940  -13.1520   22.3090 H   0  0  0  0  0  0  0  0  0  0  0  0
  -25.2820  -15.2950   20.2690 N   0  0  0  0  0  0  0  0  0  0  0  0
  -24.5070  -15.9340   20.4090 H   0  0  0  0  0  0  0  0  0  0  0  0
  -26.0960  -15.7460   19.8710 H   0  0  0  0  0  0  0  0  0  0  0  0
  -28.3380  -23.0890   20.3300 C   0  0  0  0  0  2  0  0  0  0  0  0
  -28.0060  -24.6790   19.7400 C   0  0  0  0  0  2  0  0  0  0  0  0
  -28.1910  -26.1740   20.2090 O   0  0  0  0  0  0  0  0  0  0  0  0
  -24.6220  -31.9260   23.2030 C   0  0  0  0  0  0  0  0  0  0  0  0
  -27.1600  -27.1980   20.1110 C   0  0  0  0  0  0  0  0  0  0  0  0
  -23.4080  -30.5450   21.5620 C   0  0  0  0  0  3  0  0  0  0  0  0
  -24.8440  -28.9810   20.1110 C   0  0  0  0  0  0  0  0  0  0  0  0
  -25.9640  -30.7940   21.3890 C   0  0  0  0  0  2  0  0  0  0  0  0
  -26.0280  -29.4040   20.7250 C   0  0  0  0  0  0  0  0  0  0  0  0
  -27.1810  -28.5250   20.7180 C   0  0  0  0  0  3  0  0  0  0  0  0
  -25.9590  -26.9120   19.4210 C   0  0  0  0  0  3  0  0  0  0  0  0
  -24.8240  -27.7500   19.4430 C   0  0  0  0  0  3  0  0  0  0  0  0
  -23.6190  -29.8830   20.1760 C   0  0  0  0  0  2  0  0  0  0  0  0
  -24.6850  -31.1110   22.1060 N   0  0  0  0  0  0  0  0  0  0  0  0
  -23.5390  -32.2110   23.7390 O   0  0  0  0  0  0  0  0  0  0  0  0
  -22.7330  -29.5320   22.5220 C   0  0  0  0  0  0  0  0  0  0  0  0
  -21.4030  -29.3680   22.4070 N   0  0  0  0  0  0  0  0  0  0  0  0
  -23.4090  -28.8960   23.3340 O   0  0  0  0  0  0  0  0  0  0  0  0
  -20.9130  -29.9340   21.7280 H   0  0  0  0  0  0  0  0  0  0  0  0
  -18.0230  -28.1720   22.9300 C   0  0  0  0  0  0  0  0  0  0  0  0
  -20.5850  -28.4280   23.1770 C   0  0  0  0  0  3  0  0  0  0  0  0
  -20.6790  -26.9990   22.5940 C   0  0  0  0  0  2  0  0  0  0  0  0
  -19.5680  -26.6850   21.5850 C   0  0  0  0  0  2  0  0  0  0  0  0
  -18.1920  -26.8270   22.2410 C   0  0  0  0  0  2  0  0  0  0  0  0
  -19.1470  -28.9300   23.3550 C   0  0  0  0  0  0  0  0  0  0  0  0
  -18.9340  -30.1860   23.9610 C   0  0  0  0  0  3  0  0  0  0  0  0
  -17.6310  -30.6870   24.1460 C   0  0  0  0  0  3  0  0  0  0  0  0
  -16.5220  -29.9260   23.7350 C   0  0  0  0  0  3  0  0  0  0  0  0
  -16.7190  -28.6700   23.1330 C   0  0  0  0  0  3  0  0  0  0  0  0
  -25.9050  -32.5570   23.8250 C   0  0  0  0  0  3  0  0  0  0  0  0
  -25.5970  -33.9560   24.1690 N   0  0  0  0  0  0  0  0  0  0  0  0
  -25.9180  -35.0170   23.4160 C   0  0  0  0  0  0  0  0  0  0  0  0
  -26.5720  -34.9220   22.3740 O   0  0  0  0  0  0  0  0  0  0  0  0
  -25.0120  -34.1020   24.9780 H   0  0  0  0  0  0  0  0  0  0  0  0
  -24.1870  -36.8180   23.1100 C   0  0  0  0  0  1  0  0  0  0  0  0
  -25.4410  -36.4020   23.8940 C   0  0  0  0  0  3  0  0  0  0  0  0
  -27.5890  -37.2820   24.6990 C   0  0  0  0  0  1  0  0  0  0  0  0
  -26.4730  -37.4550   23.7730 N   0  0  0  0  0  0  0  0  0  0  0  0
  -26.0690  -38.3740   23.9320 H   0  0  0  0  0  0  0  0  0  0  0  0
  -26.4210  -31.7800   25.0990 C   0  0  1  0  0  0  0  0  0  0  0  0
  -25.3290  -31.5450   26.1700 C   0  0  0  0  0  1  0  0  0  0  0  0
  -26.9990  -30.4000   24.7090 C   0  0  0  0  0  1  0  0  0  0  0  0
  -27.5740  -32.5690   25.7620 C   0  0  0  0  0  1  0  0  0  0  0  0
  1  3  1  0
  2  4  1  0
  2  1  2  0
  3  5  2  0
  3  8  1  0
  4  6  2  0
  6  5  1  0
  8  7  1  0
  9 10  1  0
 10  4  1  0
 11  1  1  0
 12 21  1  0
 12 11  1  0
 13 21  1  0
 14 19  1  0
 15 16  1  0
 15 14  1  0
 17 16  1  0
 17 26  1  0
 17 18  1  0
 19 13  1  0
 19 18  1  0
 20 13  2  0
 21 22  1  0
 23 24  2  0
 24 43  1  0
 25 24  1  0
 25 28  1  0
 26 27  1  0
 26 23  1  0
 27 25  2  0
 28 29  1  0
 29 30  2  0
 31 34  1  0
 31 30  1  0
 32 31  2  0
 33 32  1  0
 33 28  2  0
 34 35  1  0
 35 36  1  0
 36 37  2  0
 38 37  1  0
 38 42  1  0
 39 38  2  0
 40 35  2  0
 40 39  1  0
 41 40  1  0
 43 44  1  0
 44 47  1  0
 44 46  1  0
 45 43  2  0
 48 49  1  0
 48 23  1  0
 50 48  1  0
 51  2  1  0
 52 53  1  0
 52 51  1  0
 54 65  2  0
 55 53  1  0
 55 60  1  0
 56 64  1  0
 56 66  1  0
 57 63  1  0
 57 59  1  0
 58 64  1  0
 59 58  1  0
 60 59  2  0
 61 62  1  0
 61 55  2  0
 62 57  2  0
 63 56  1  0
 64 54  1  0
 66 68  2  0
 67 66  1  0
 69 67  1  0
 70 79  2  0
 70 75  1  0
 71 67  1  0
 71 75  1  0
 72 71  1  0
 73 74  1  0
 73 72  1  0
 74 70  1  0
 75 76  2  0
 76 77  1  0
 78 77  2  0
 79 78  1  0
 80 54  1  0
 80 81  1  0
 80 90  1  0
 81 84  1  0
 82 86  1  0
 82 81  1  0
 83 82  2  0
 86 85  1  0
 88 86  1  0
 88 89  1  0
 88 87  1  0
 90 93  1  1
 90 91  1  0
 92 90  1  0
M  ISO  4  13 100  21 100  52 101  53 101
M  END
>  <TORSDO>  (15) 
F 22

>  <SCORE>  (15) 
-14.621

>  <name>  (15) 
14

>  <ligand_id>  (15) 
14

>  <original_smiles>  (15) 
[H]c1c([H])c([H])c2c(c1[H])C([H])([H])C([H])([H])C([H])([H])C2([H])N([H])C(=O)C1([H])N(C(=O)C([H])(N([H])C(=O)C([H])(N([H])C([H])([H])[H])C([H])([H])[H])C(C([H])([H])[H])(C([H])([H])[H])C([H])([H])[H])C([H])([H])c2c([H])c(OC([H])([H])C([H])([H])c3c(C([H])([H])C([H])([H])[H])nnc(C([H])([H])C([H])([H])[H])c3C([H])([H])C([H])([H])N([H])C(=O)N3C([H])([H])C([H])([H])C([H])([H])C([H])(n4nc(-c5c([H])c([H])c(Oc6c([H])c([H])c(F)c([H])c6F)c([H])c5[H])c(C(=O)N([H])[H])c4N([H])[H])C3([H])[H])c([H])c([H])c2C1([H])[H]

>  <smiles>  (15) 
[H]c1c([H])c([H])c2c(c1[H])C([H])([H])C([H])([H])C([H])([H])C2([H])N([H])C(=O)C1([H])N(C(=O)C([H])(N([H])C(=O)C([H])(N([H])C([H])([H])[H])C([H])([H])[H])C(C([H])([H])[H])(C([H])([H])[H])C([H])([H])[H])C([H])([H])c2c([H])c(OC([H])([H])C([H])([H])c3c(C([H])([H])C([H])([H])[H])nnc(C([H])([H])C([H])([H])[H])c3C([H])([H])C([H])([H])N([H])C(=O)N3C([H])([H])C([H])([H])C([H])([H])C([H])(n4nc(-c5c([H])c([H])c(Oc6c([H])c([H])c(F)c([H])c6F)c([H])c5[H])c(C(=O)N([H])[H])c4N([H])[H])C3([H])[H])c([H])c([H])c2C1([H])[H]

$$$$
15:0:0
     RDKit          3D

 95103  0  0  1  0  0  0  0  0999 V2000
  -29.1110  -21.4540   19.3660 C   0  0  0  0  0  3  0  0  0  0  0  0
  -30.1440  -21.9780   20.1610 C   0  0  0  0  0  0  0  0  0  0  0  0
  -28.9320  -20.0540   19.2580 C   0  0  0  0  0  0  0  0  0  0  0  0
  -30.9150  -21.0550   20.9090 C   0  0  0  0  0  0  0  0  0  0  0  0
  -29.8110  -19.2010   19.9850 C   0  0  0  0  0  0  0  0  0  0  0  0
  -30.7740  -19.7130   20.7860 N   0  0  0  0  0  0  0  0  0  0  0  0
  -30.6880  -17.3440   18.5150 C   0  0  0  0  0  1  0  0  0  0  0  0
  -29.8350  -17.6660   19.7580 C   0  0  0  0  0  3  0  0  0  0  0  0
  -30.2730  -16.8000   20.9830 C   0  0  0  0  0  2  0  0  0  0  0  0
  -30.6750  -14.3610   20.3400 C   0  0  0  0  0  0  0  0  0  0  0  0
  -30.3740  -12.2230   19.1470 C   0  0  0  0  0  2  0  0  0  0  0  0
  -29.4050  -12.4480   17.9690 C   0  0  0  0  0  2  0  0  0  0  0  0
  -27.9380  -12.3000   18.4220 C   0  0  0  0  0  2  0  0  0  0  0  0
  -27.6260  -13.1070   19.7130 C   0  0  0  0  0  3  0  0  0  0  0  0
  -28.7020  -12.8580   20.7900 C   0  0  0  0  0  2  0  0  0  0  0  0
  -30.0140  -13.1820   20.2040 N   0  0  0  0  0  0  0  0  0  0  0  0
  -31.8010  -14.5580   19.8780 O   0  0  0  0  0  0  0  0  0  0  0  0
  -29.9440  -15.3600   20.8720 N   0  0  0  0  0  0  0  0  0  0  0  0
  -29.0320  -15.0870   21.2070 H   0  0  0  0  0  0  0  0  0  0  0  0
  -25.2350  -13.7060   20.4590 C   0  0  0  0  0  0  0  0  0  0  0  0
  -24.1780  -12.9270   20.8470 C   0  0  0  0  0  0  0  0  0  0  0  0
  -24.6440  -11.5780   20.8080 C   0  0  0  0  0  0  0  0  0  0  0  0
  -26.2810  -12.8280   20.2130 N   0  0  0  0  0  0  0  0  0  0  0  0
  -25.9300  -11.5440   20.4790 N   0  0  0  0  0  0  0  0  0  0  0  0
  -23.9280  -10.3120   21.0120 C   0  0  0  0  0  0  0  0  0  0  0  0
  -24.3710   -9.3580   21.9530 C   0  0  0  0  0  3  0  0  0  0  0  0
  -23.6560   -8.1560   22.1430 C   0  0  0  0  0  3  0  0  0  0  0  0
  -22.4850   -7.9000   21.3920 C   0  0  0  0  0  0  0  0  0  0  0  0
  -22.0630   -8.8420   20.4390 C   0  0  0  0  0  3  0  0  0  0  0  0
  -22.7770  -10.0360   20.2470 C   0  0  0  0  0  3  0  0  0  0  0  0
  -21.7410   -6.7480   21.4910 O   0  0  0  0  0  0  0  0  0  0  0  0
  -21.6920   -6.0190   22.6510 C   0  0  0  0  0  0  0  0  0  0  0  0
  -21.2330   -6.5770   23.8640 C   0  0  0  0  0  3  0  0  0  0  0  0
  -21.1350   -5.7730   25.0170 C   0  0  0  0  0  3  0  0  0  0  0  0
  -21.4860   -4.4110   24.9570 C   0  0  0  0  0  0  0  0  0  0  0  0
  -21.9390   -3.8520   23.7490 C   0  0  0  0  0  3  0  0  0  0  0  0
  -22.0380   -4.6530   22.5990 C   0  0  0  0  0  0  0  0  0  0  0  0
  -22.4540   -4.1040   21.4320 F   0  0  0  0  0  0  0  0  0  0  0  0
  -21.3830   -3.6350   26.0620 F   0  0  0  0  0  0  0  0  0  0  0  0
  -22.7830  -13.3970   21.1420 C   0  0  0  0  0  0  0  0  0  0  0  0
  -22.0720  -12.6950   22.0180 N   0  0  0  0  0  0  0  0  0  0  0  0
  -22.3330  -14.4210   20.6310 O   0  0  0  0  0  0  0  0  0  0  0  0
  -22.4480  -11.8670   22.4570 H   0  0  0  0  0  0  0  0  0  0  0  0
  -21.1350  -12.9900   22.2530 H   0  0  0  0  0  0  0  0  0  0  0  0
  -25.3900  -15.0760   20.2780 N   0  0  0  0  0  0  0  0  0  0  0  0
  -24.6210  -15.7270   20.3960 H   0  0  0  0  0  0  0  0  0  0  0  0
  -26.2290  -15.5190   19.9250 H   0  0  0  0  0  0  0  0  0  0  0  0
  -33.4000  -21.4690   21.3190 C   0  0  0  0  0  1  0  0  0  0  0  0
  -31.9810  -21.5030   21.9000 C   0  0  0  0  0  2  0  0  0  0  0  0
  -27.3050  -20.4600   17.2720 C   0  0  0  0  0  1  0  0  0  0  0  0
  -27.8520  -19.4860   18.3300 C   0  0  0  0  0  2  0  0  0  0  0  0
  -30.4840  -23.4780   20.0590 C   0  0  0  0  0  2  0  0  0  0  0  0
  -29.6260  -24.4880   20.8630 C   0  0  0  0  0  2  0  0  0  0  0  0
  -28.4530  -25.1660   20.1030 C   0  0  0  0  0  2  0  0  0  0  0  0
  -28.4960  -26.6000   20.2540 O   0  0  0  0  0  0  0  0  0  0  0  0
  -24.6740  -31.7940   23.2420 C   0  0  0  0  0  0  0  0  0  0  0  0
  -27.3160  -27.3210   20.1990 C   0  0  0  0  0  0  0  0  0  0  0  0
  -23.4720  -30.3980   21.5890 C   0  0  0  0  0  3  0  0  0  0  0  0
  -24.9280  -28.8500   20.1770 C   0  0  0  0  0  0  0  0  0  0  0  0
  -26.0030  -30.7380   21.4150 C   0  0  0  0  0  2  0  0  0  0  0  0
  -26.0830  -29.3670   20.7750 C   0  0  0  0  0  0  0  0  0  0  0  0
  -27.2780  -28.6110   20.7800 C   0  0  0  0  0  3  0  0  0  0  0  0
  -26.1440  -26.8230   19.5830 C   0  0  0  0  0  3  0  0  0  0  0  0
  -24.9550  -27.5790   19.5770 C   0  0  0  0  0  3  0  0  0  0  0  0
  -23.6880  -29.7150   20.2120 C   0  0  0  0  0  2  0  0  0  0  0  0
  -24.7340  -30.9910   22.1400 N   0  0  0  0  0  0  0  0  0  0  0  0
  -23.5900  -32.0730   23.7720 O   0  0  0  0  0  0  0  0  0  0  0  0
  -22.8040  -29.3850   22.5460 C   0  0  0  0  0  0  0  0  0  0  0  0
  -21.4760  -29.2250   22.4190 N   0  0  0  0  0  0  0  0  0  0  0  0
  -23.4780  -28.7440   23.3570 O   0  0  0  0  0  0  0  0  0  0  0  0
  -20.9960  -29.7920   21.7340 H   0  0  0  0  0  0  0  0  0  0  0  0
  -18.0800  -28.1050   22.9280 C   0  0  0  0  0  0  0  0  0  0  0  0
  -20.6450  -28.2970   23.1850 C   0  0  0  0  0  3  0  0  0  0  0  0
  -20.7090  -26.8710   22.5890 C   0  0  0  0  0  2  0  0  0  0  0  0
  -19.5910  -26.5900   21.5790 C   0  0  0  0  0  2  0  0  0  0  0  0
  -18.2190  -26.7600   22.2350 C   0  0  0  0  0  2  0  0  0  0  0  0
  -19.2190  -28.8340   23.3600 C   0  0  0  0  0  0  0  0  0  0  0  0
  -19.0350  -30.0960   23.9670 C   0  0  0  0  0  3  0  0  0  0  0  0
  -17.7440  -30.6260   24.1480 C   0  0  0  0  0  3  0  0  0  0  0  0
  -16.6190  -29.8930   23.7330 C   0  0  0  0  0  3  0  0  0  0  0  0
  -16.7870  -28.6340   23.1290 C   0  0  0  0  0  3  0  0  0  0  0  0
  -25.9600  -32.4150   23.8730 C   0  0  0  0  0  3  0  0  0  0  0  0
  -25.6580  -33.8140   24.2040 N   0  0  0  0  0  0  0  0  0  0  0  0
  -25.9880  -34.8640   23.4400 C   0  0  0  0  0  0  0  0  0  0  0  0
  -26.6510  -34.7570   22.4040 O   0  0  0  0  0  0  0  0  0  0  0  0
  -25.0710  -33.9710   25.0100 H   0  0  0  0  0  0  0  0  0  0  0  0
  -24.2620  -36.6580   23.0970 C   0  0  0  0  0  1  0  0  0  0  0  0
  -25.5090  -36.2550   23.8980 C   0  0  0  0  0  3  0  0  0  0  0  0
  -27.6500  -37.1390   24.7120 C   0  0  0  0  0  1  0  0  0  0  0  0
  -26.5430  -37.3050   23.7740 N   0  0  0  0  0  0  0  0  0  0  0  0
  -26.1410  -38.2260   23.9160 H   0  0  0  0  0  0  0  0  0  0  0  0
  -26.4660  -31.6360   25.1480 C   0  0  1  0  0  0  0  0  0  0  0  0
  -25.3660  -31.4000   26.2090 C   0  0  0  0  0  1  0  0  0  0  0  0
  -27.0430  -30.2560   24.7520 C   0  0  0  0  0  1  0  0  0  0  0  0
  -27.6180  -32.4210   25.8190 C   0  0  0  0  0  1  0  0  0  0  0  0
  1  2  1  0
  2  4  2  0
  3  1  2  0
  3  5  1  0
  4 49  1  0
  5  6  2  0
  6  4  1  0
  8  7  1  0
  8  5  1  0
  8  9  1  0
 10 18  1  0
 11 16  1  0
 12 13  1  0
 12 11  1  0
 14 13  1  0
 14 23  1  0
 14 15  1  0
 16 10  1  0
 16 15  1  0
 17 10  2  0
 18  9  1  0
 18 19  1  0
 20 21  2  0
 21 40  1  0
 22 21  1  0
 22 25  1  0
 23 20  1  0
 23 24  1  0
 24 22  2  0
 25 26  1  0
 26 27  2  0
 28 31  1  0
 28 27  1  0
 29 28  2  0
 30 29  1  0
 30 25  2  0
 31 32  1  0
 32 33  1  0
 33 34  2  0
 35 34  1  0
 35 39  1  0
 36 35  2  0
 37 32  2  0
 37 36  1  0
 38 37  1  0
 40 41  1  0
 41 44  1  0
 41 43  1  0
 42 40  2  0
 45 46  1  0
 45 20  1  0
 47 45  1  0
 48 49  1  0
 50 51  1  0
 51  3  1  0
 52  2  1  0
 52 53  1  0
 54 55  1  0
 54 53  1  0
 56 67  2  0
 57 55  1  0
 57 62  1  0
 58 66  1  0
 58 68  1  0
 59 65  1  0
 59 61  1  0
 60 66  1  0
 61 62  2  0
 61 60  1  0
 63 57  2  0
 64 63  1  0
 64 59  2  0
 65 58  1  0
 66 56  1  0
 68 70  2  0
 69 68  1  0
 71 69  1  0
 72 81  2  0
 72 77  1  0
 73 69  1  0
 73 77  1  0
 74 73  1  0
 75 76  1  0
 75 74  1  0
 76 72  1  0
 77 78  2  0
 78 79  1  0
 80 79  2  0
 81 80  1  0
 82 56  1  0
 82 83  1  0
 82 92  1  0
 83 86  1  0
 84 88  1  0
 84 83  1  0
 85 84  2  0
 88 87  1  0
 90 88  1  0
 90 91  1  0
 90 89  1  0
 92 95  1  1
 92 93  1  0
 94 92  1  0
M  ISO  4  10 100  18 100  54 101  55 101
M  END
>  <TORSDO>  (16) 
F 23

>  <SCORE>  (16) 
-12.747

>  <name>  (16) 
15

>  <ligand_id>  (16) 
15

>  <original_smiles>  (16) 
[H]c1c([H])c([H])c2c(c1[H])C([H])([H])C([H])([H])C([H])([H])C2([H])N([H])C(=O)C1([H])N(C(=O)C([H])(N([H])C(=O)C([H])(N([H])C([H])([H])[H])C([H])([H])[H])C(C([H])([H])[H])(C([H])([H])[H])C([H])([H])[H])C([H])([H])c2c([H])c(OC([H])([H])C([H])([H])C([H])([H])c3c(C([H])([H])C([H])([H])[H])nc(C([H])(C([H])([H])[H])C([H])([H])N([H])C(=O)N4C([H])([H])C([H])([H])C([H])([H])C([H])(n5nc(-c6c([H])c([H])c(Oc7c([H])c([H])c(F)c([H])c7F)c([H])c6[H])c(C(=O)N([H])[H])c5N([H])[H])C4([H])[H])c(C([H])([H])C([H])([H])[H])c3[H])c([H])c([H])c2C1([H])[H]

>  <smiles>  (16) 
[H]c1c([H])c([H])c2c(c1[H])C([H])([H])C([H])([H])C([H])([H])C2([H])N([H])C(=O)C1([H])N(C(=O)C([H])(N([H])C(=O)C([H])(N([H])C([H])([H])[H])C([H])([H])[H])C(C([H])([H])[H])(C([H])([H])[H])C([H])([H])[H])C([H])([H])c2c([H])c(OC([H])([H])C([H])([H])C([H])([H])c3c(C([H])([H])C([H])([H])[H])nc(C([H])(C([H])([H])[H])C([H])([H])N([H])C(=O)N4C([H])([H])C([H])([H])C([H])([H])C([H])(n5nc(-c6c([H])c([H])c(Oc7c([H])c([H])c(F)c([H])c7F)c([H])c6[H])c(C(=O)N([H])[H])c5N([H])[H])C4([H])[H])c(C([H])([H])C([H])([H])[H])c3[H])c([H])c([H])c2C1([H])[H]

$$$$
16:0:0
     RDKit          3D

 97105  0  0  1  0  0  0  0  0999 V2000
  -28.0180  -19.9620   19.6210 C   0  0  0  0  0  3  0  0  0  0  0  0
  -27.6590  -21.1540   18.9420 C   0  0  0  0  0  3  0  0  0  0  0  0
  -29.3180  -20.0730   20.0280 C   0  0  0  0  0  0  0  0  0  0  0  0
  -28.7450  -21.9840   18.9500 C   0  0  0  0  0  0  0  0  0  0  0  0
  -29.7830  -21.3150   19.6000 N   0  0  0  0  0  0  0  0  0  0  0  0
  -30.1560  -19.1050   20.8220 C   0  0  0  0  0  2  0  0  0  0  0  0
  -29.7340  -17.6330   20.6590 C   0  0  0  0  0  2  0  0  0  0  0  0
  -30.5850  -16.6650   21.5040 C   0  0  0  0  0  2  0  0  0  0  0  0
  -30.7070  -14.3870   20.5060 C   0  0  0  0  0  0  0  0  0  0  0  0
  -30.3330  -12.2900   19.2670 C   0  0  0  0  0  2  0  0  0  0  0  0
  -29.3790  -12.5650   18.0870 C   0  0  0  0  0  2  0  0  0  0  0  0
  -27.9110  -12.4340   18.5370 C   0  0  0  0  0  2  0  0  0  0  0  0
  -27.6120  -13.2320   19.8350 C   0  0  0  0  0  3  0  0  0  0  0  0
  -28.6770  -12.9430   20.9150 C   0  0  0  0  0  2  0  0  0  0  0  0
  -30.0040  -13.2380   20.3400 N   0  0  0  0  0  0  0  0  0  0  0  0
  -31.7610  -14.6340   19.9080 O   0  0  0  0  0  0  0  0  0  0  0  0
  -30.1360  -15.2870   21.3170 N   0  0  0  0  0  0  0  0  0  0  0  0
  -29.2840  -15.0080   21.7780 H   0  0  0  0  0  0  0  0  0  0  0  0
  -25.2220  -13.8450   20.5640 C   0  0  0  0  0  0  0  0  0  0  0  0
  -24.1540  -13.0740   20.9370 C   0  0  0  0  0  0  0  0  0  0  0  0
  -24.6100  -11.7220   20.8940 C   0  0  0  0  0  0  0  0  0  0  0  0
  -26.2620  -12.9610   20.3230 N   0  0  0  0  0  0  0  0  0  0  0  0
  -25.8950  -11.6790   20.5730 N   0  0  0  0  0  0  0  0  0  0  0  0
  -23.8810  -10.4620   21.0880 C   0  0  0  0  0  0  0  0  0  0  0  0
  -24.3290   -9.4800   21.9990 C   0  0  0  0  0  3  0  0  0  0  0  0
  -23.5990   -8.2860   22.1790 C   0  0  0  0  0  3  0  0  0  0  0  0
  -22.4090   -8.0630   21.4460 C   0  0  0  0  0  0  0  0  0  0  0  0
  -21.9800   -9.0350   20.5250 C   0  0  0  0  0  3  0  0  0  0  0  0
  -22.7100  -10.2210   20.3430 C   0  0  0  0  0  3  0  0  0  0  0  0
  -21.6480   -6.9210   21.5380 O   0  0  0  0  0  0  0  0  0  0  0  0
  -21.6380   -6.1540   22.6740 C   0  0  0  0  0  0  0  0  0  0  0  0
  -21.2690   -6.6890   23.9280 C   0  0  0  0  0  3  0  0  0  0  0  0
  -21.1980   -5.8510   25.0570 C   0  0  0  0  0  3  0  0  0  0  0  0
  -21.4870   -4.4780   24.9380 C   0  0  0  0  0  0  0  0  0  0  0  0
  -21.8540   -3.9430   23.6910 C   0  0  0  0  0  3  0  0  0  0  0  0
  -21.9250   -4.7770   22.5600 C   0  0  0  0  0  0  0  0  0  0  0  0
  -22.2540   -4.2510   21.3570 F   0  0  0  0  0  0  0  0  0  0  0  0
  -21.4170   -3.6740   26.0240 F   0  0  0  0  0  0  0  0  0  0  0  0
  -22.7620  -13.5540   21.2280 C   0  0  0  0  0  0  0  0  0  0  0  0
  -22.0430  -12.8550   22.0970 N   0  0  0  0  0  0  0  0  0  0  0  0
  -22.3220  -14.5860   20.7230 O   0  0  0  0  0  0  0  0  0  0  0  0
  -22.4160  -12.0190   22.5190 H   0  0  0  0  0  0  0  0  0  0  0  0
  -21.1130  -13.1580   22.3450 H   0  0  0  0  0  0  0  0  0  0  0  0
  -25.3880  -15.2150   20.3940 N   0  0  0  0  0  0  0  0  0  0  0  0
  -24.6240  -15.8710   20.5080 H   0  0  0  0  0  0  0  0  0  0  0  0
  -26.2380  -15.6500   20.0630 H   0  0  0  0  0  0  0  0  0  0  0  0
  -28.8780  -23.3750   18.4070 C   0  0  0  0  0  2  0  0  0  0  0  0
  -28.4620  -24.4550   19.4290 C   0  0  0  0  0  2  0  0  0  0  0  0
  -30.3950  -26.0540   19.1110 C   0  0  0  0  0  1  0  0  0  0  0  0
  -28.3970  -26.3400   17.6530 C   0  0  0  0  0  1  0  0  0  0  0  0
  -28.8620  -25.9080   19.0670 C   0  0  1  0  0  0  0  0  0  0  0  0
  -28.4570  -26.8060   20.1230 O   0  0  0  0  0  0  0  0  0  0  0  0
  -24.5890  -31.9150   23.2350 C   0  0  0  0  0  0  0  0  0  0  0  0
  -27.2370  -27.4570   20.1540 C   0  0  0  0  0  0  0  0  0  0  0  0
  -23.3800  -30.5030   21.6030 C   0  0  0  0  0  3  0  0  0  0  0  0
  -24.8280  -28.9470   20.1990 C   0  0  0  0  0  0  0  0  0  0  0  0
  -25.9080  -30.8520   21.4080 C   0  0  0  0  0  2  0  0  0  0  0  0
  -25.9880  -29.4760   20.7780 C   0  0  0  0  0  0  0  0  0  0  0  0
  -27.1880  -28.7310   20.7640 C   0  0  0  0  0  3  0  0  0  0  0  0
  -26.0430  -26.9200   19.6210 C   0  0  0  0  0  3  0  0  0  0  0  0
  -24.8480  -27.6630   19.6300 C   0  0  0  0  0  3  0  0  0  0  0  0
  -23.5880  -29.8100   20.2320 C   0  0  0  0  0  2  0  0  0  0  0  0
  -24.6430  -31.1060   22.1400 N   0  0  0  0  0  0  0  0  0  0  0  0
  -23.5080  -32.1950   23.7730 O   0  0  0  0  0  0  0  0  0  0  0  0
  -22.7270  -29.4910   22.5700 C   0  0  0  0  0  0  0  0  0  0  0  0
  -21.4020  -29.3160   22.4450 N   0  0  0  0  0  0  0  0  0  0  0  0
  -23.4080  -28.8660   23.3870 O   0  0  0  0  0  0  0  0  0  0  0  0
  -20.9150  -29.8700   21.7540 H   0  0  0  0  0  0  0  0  0  0  0  0
  -18.0200  -28.1490   22.9510 C   0  0  0  0  0  0  0  0  0  0  0  0
  -20.5800  -28.3880   23.2190 C   0  0  0  0  0  3  0  0  0  0  0  0
  -20.6720  -26.9540   22.6480 C   0  0  0  0  0  2  0  0  0  0  0  0
  -19.5650  -26.6350   21.6370 C   0  0  0  0  0  2  0  0  0  0  0  0
  -18.1850  -26.7950   22.2820 C   0  0  0  0  0  2  0  0  0  0  0  0
  -19.1450  -28.9030   23.3770 C   0  0  0  0  0  0  0  0  0  0  0  0
  -18.9380  -30.1720   23.9610 C   0  0  0  0  0  3  0  0  0  0  0  0
  -17.6380  -30.6850   24.1260 C   0  0  0  0  0  3  0  0  0  0  0  0
  -16.5270  -29.9270   23.7170 C   0  0  0  0  0  3  0  0  0  0  0  0
  -16.7180  -28.6620   23.1350 C   0  0  0  0  0  3  0  0  0  0  0  0
  -25.8760  -32.5470   23.8510 C   0  0  0  0  0  3  0  0  0  0  0  0
  -26.3960  -31.7780   25.1280 C   0  0  1  0  0  0  0  0  0  0  0  0
  -25.3060  -31.5430   26.1980 C   0  0  0  0  0  1  0  0  0  0  0  0
  -26.9770  -30.4000   24.7360 C   0  0  0  0  0  1  0  0  0  0  0  0
  -27.5490  -32.5730   25.7860 C   0  0  0  0  0  1  0  0  0  0  0  0
  -25.5700  -33.9460   24.1790 N   0  0  0  0  0  0  0  0  0  0  0  0
  -25.9050  -34.9950   23.4160 C   0  0  0  0  0  0  0  0  0  0  0  0
  -26.5780  -34.8880   22.3880 O   0  0  0  0  0  0  0  0  0  0  0  0
  -24.9730  -34.1030   24.9770 H   0  0  0  0  0  0  0  0  0  0  0  0
  -24.1810  -36.7880   23.0490 C   0  0  0  0  0  1  0  0  0  0  0  0
  -25.4170  -36.3850   23.8690 C   0  0  0  0  0  3  0  0  0  0  0  0
  -27.5490  -37.2650   24.7090 C   0  0  0  0  0  1  0  0  0  0  0  0
  -26.4520  -37.4360   23.7600 N   0  0  0  0  0  0  0  0  0  0  0  0
  -26.0470  -38.3570   23.9070 H   0  0  0  0  0  0  0  0  0  0  0  0
  -31.1380  -21.8330   19.7730 C   0  0  0  0  0  2  0  0  0  0  0  0
  -32.0040  -21.5220   18.5360 C   0  0  0  0  0  2  0  0  0  0  0  0
  -33.5650  -23.5410   18.7110 C   0  0  0  0  0  1  0  0  0  0  0  0
  -34.2790  -21.4740   17.4440 C   0  0  0  0  0  1  0  0  0  0  0  0
  -33.4620  -22.0070   18.6330 C   0  0  0  0  0  3  0  0  0  0  0  0
  1  3  2  0
  2  4  2  0
  2  1  1  0
  3  6  1  0
  4  5  1  0
  5 93  1  0
  5  3  1  0
  7  6  1  0
  7  8  1  0
  9 17  1  0
 10 15  1  0
 11 12  1  0
 11 10  1  0
 13 12  1  0
 13 22  1  0
 13 14  1  0
 15  9  1  0
 15 14  1  0
 16  9  2  0
 17  8  1  0
 17 18  1  0
 19 20  2  0
 20 39  1  0
 21 20  1  0
 21 24  1  0
 22 19  1  0
 22 23  1  0
 23 21  2  0
 24 25  1  0
 25 26  2  0
 27 30  1  0
 27 26  1  0
 28 27  2  0
 29 28  1  0
 29 24  2  0
 30 31  1  0
 31 32  1  0
 32 33  2  0
 34 33  1  0
 34 38  1  0
 35 34  2  0
 36 31  2  0
 36 35  1  0
 37 36  1  0
 39 40  1  0
 40 43  1  0
 40 42  1  0
 41 39  2  0
 44 45  1  0
 44 19  1  0
 46 44  1  0
 47  4  1  0
 47 48  1  0
 51 50  1  6
 51 49  1  0
 51 48  1  0
 51 52  1  0
 52 54  1  0
 53 64  2  0
 54 59  1  0
 55 63  1  0
 55 65  1  0
 56 62  1  0
 56 58  1  0
 57 63  1  0
 58 57  1  0
 59 58  2  0
 60 61  1  0
 60 54  2  0
 61 56  2  0
 62 55  1  0
 63 53  1  0
 65 67  2  0
 66 65  1  0
 68 66  1  0
 69 78  2  0
 69 74  1  0
 70 66  1  0
 70 74  1  0
 71 70  1  0
 72 73  1  0
 72 71  1  0
 73 69  1  0
 74 75  2  0
 75 76  1  0
 77 76  2  0
 78 77  1  0
 79 53  1  0
 79 84  1  0
 79 80  1  0
 80 83  1  1
 80 81  1  0
 82 80  1  0
 84 87  1  0
 85 89  1  0
 85 84  1  0
 86 85  2  0
 89 88  1  0
 91 89  1  0
 91 92  1  0
 91 90  1  0
 94 97  1  0
 94 93  1  0
 96 97  1  0
 97 95  1  0
M  ISO  4   9 100  17 100  51 101  52 101
M  END
>  <TORSDO>  (17) 
F 25

>  <SCORE>  (17) 
-12.473

>  <name>  (17) 
16

>  <ligand_id>  (17) 
16

>  <original_smiles>  (17) 
[H]c1c([H])c([H])c2c(c1[H])C([H])([H])C([H])([H])C([H])([H])C2([H])N([H])C(=O)C1([H])N(C(=O)C([H])(N([H])C(=O)C([H])(N([H])C([H])([H])[H])C([H])([H])[H])C(C([H])([H])[H])(C([H])([H])[H])C([H])([H])[H])C([H])([H])c2c([H])c(OC(C([H])([H])[H])(C([H])([H])[H])C([H])([H])C([H])([H])c3c([H])c([H])c(C([H])([H])C([H])([H])C([H])([H])N([H])C(=O)N4C([H])([H])C([H])([H])C([H])([H])C([H])(n5nc(-c6c([H])c([H])c(Oc7c([H])c([H])c(F)c([H])c7F)c([H])c6[H])c(C(=O)N([H])[H])c5N([H])[H])C4([H])[H])n3C([H])([H])C([H])([H])C([H])(C([H])([H])[H])C([H])([H])[H])c([H])c([H])c2C1([H])[H]

>  <smiles>  (17) 
[H]c1c([H])c([H])c2c(c1[H])C([H])([H])C([H])([H])C([H])([H])C2([H])N([H])C(=O)C1([H])N(C(=O)C([H])(N([H])C(=O)C([H])(N([H])C([H])([H])[H])C([H])([H])[H])C(C([H])([H])[H])(C([H])([H])[H])C([H])([H])[H])C([H])([H])c2c([H])c(OC(C([H])([H])[H])(C([H])([H])[H])C([H])([H])C([H])([H])c3c([H])c([H])c(C([H])([H])C([H])([H])C([H])([H])N([H])C(=O)N4C([H])([H])C([H])([H])C([H])([H])C([H])(n5nc(-c6c([H])c([H])c(Oc7c([H])c([H])c(F)c([H])c7F)c([H])c6[H])c(C(=O)N([H])[H])c5N([H])[H])C4([H])[H])n3C([H])([H])C([H])([H])C([H])(C([H])([H])[H])C([H])([H])[H])c([H])c([H])c2C1([H])[H]

$$$$
17:0:0
     RDKit          3D

 93 87  0  0  1  0  0  0  0  0999 V2000
  -24.6380  -13.5310   18.8880 C   0  0  0  0  0 15  0  0  0  0  0  0
  -24.9140  -12.4480   22.5370 C   0  0  0  0  0  1  0  0  0  0  0  0
  -23.9990  -13.8950   20.9560 C   0  0  0  0  0  1  0  0  0  0  0  0
  -26.0400  -11.9690   18.3230 C   0  0  0  0  0  1  0  0  0  0  0  0
  -26.3110  -10.8700   21.8020 C   0  0  0  0  0  1  0  0  0  0  0  0
  -23.2120  -15.1590   21.2980 C   0  0  0  0  0  1  0  0  0  0  0  0
  -26.6760  -10.5130   19.7710 N   0  0  0  0  0 15  0  0  0  0  0  0
  -27.6620  -10.2150   23.9950 C   0  0  0  0  0  1  0  0  0  0  0  0
  -27.8300  -10.8060   22.5740 C   0  0  0  0  0  3  0  0  0  0  0  0
  -29.5640  -11.1710   22.2590 C   0  0  0  0  0  2  0  0  0  0  0  0
  -31.0230  -12.3070   20.0220 C   0  0  0  0  0  0  0  0  0  0  0  0
  -30.9710  -14.9080   19.4310 C   0  0  0  0  0  1  0  0  0  0  0  0
  -29.9440  -16.7570   19.7570 C   0  0  0  0  0 15  0  0  0  0  0  0
  -27.9710  -16.4570   20.8060 C   0  0  0  0  0 15  0  0  0  0  0  0
  -27.9070  -14.0670   21.3810 C   0  0  0  0  0  2  0  0  0  0  0  0
  -28.8890  -12.9760   20.3520 C   0  0  0  0  0  2  0  0  0  0  0  0
  -30.2960  -13.3670   19.8660 N   0  0  0  0  0  0  0  0  0  0  0  0
  -32.0190  -12.3960   19.2930 O   0  0  0  0  0  0  0  0  0  0  0  0
  -30.6220  -11.3010   20.9970 N   0  0  0  0  0  0  0  0  0  0  0  0
  -31.2510  -10.5100   20.9510 H   0  0  0  0  0  0  0  0  0  0  0  0
  -25.8790  -13.8340   21.5880 C   0  0  0  0  0  0  0  0  0  0  0  0
  -24.5330  -12.3320   21.6730 C   0  0  2  0  0  0  0  0  0  0  0  0
  -24.8590  -10.9900   21.4190 C   0  0  0  0  0  1  0  0  0  0  0  0
  -26.5890  -13.6180   21.6020 N   0  0  0  0  0  2  0  0  0  0  0  0
  -25.1180  -12.3690   21.5890 N   0  0  0  0  0  2  0  0  0  0  0  0
  -23.8550   -9.8630   21.5270 C   0  0  0  0  0  3  0  0  0  0  0  0
  -23.9590   -8.8920   22.5570 C   0  0  0  0  0  3  0  0  0  0  0  0
  -23.0420   -7.8150   22.6610 C   0  0  0  0  0  3  0  0  0  0  0  0
  -21.9820   -7.6940   21.7320 C   0  0  0  0  0  0  0  0  0  0  0  0
  -21.8840   -8.6360   20.6960 C   0  0  0  0  0  3  0  0  0  0  0  0
  -22.8260   -9.6710   20.5720 C   0  0  0  0  0  3  0  0  0  0  0  0
  -21.0640   -6.6640   21.7030 O   0  0  0  0  0  0  0  0  0  0  0  0
  -20.7270   -5.9530   22.8270 C   0  0  0  0  0  0  0  0  0  0  0  0
  -20.2180   -6.5910   23.9760 C   0  0  0  0  0  3  0  0  0  0  0  0
  -19.7960   -5.8230   25.0790 C   0  0  0  0  0  3  0  0  0  0  0  0
  -19.8880   -4.4190   25.0390 C   0  0  0  0  0  0  0  0  0  0  0  0
  -20.3930   -3.7800   23.8930 C   0  0  0  0  0  3  0  0  0  0  0  0
  -20.8100   -4.5460   22.7890 C   0  0  0  0  0  0  0  0  0  0  0  0
  -21.2730   -3.9250   21.6770 F   0  0  0  0  0  0  0  0  0  0  0  0
  -19.4870   -3.6780   26.1000 F   0  0  0  0  0  0  0  0  0  0  0  0
  -22.7790  -12.3650   21.9990 C   0  0  0  0  0  0  0  0  0  0  0  0
  -22.2990  -11.9130   23.1390 N   0  0  0  0  0  0  0  0  0  0  0  0
  -21.9610  -12.9750   21.3080 O   0  0  0  0  0  0  0  0  0  0  0  0
  -22.9100  -11.4890   23.8150 H   0  0  0  0  0  0  0  0  0  0  0  0
  -21.3220  -12.0100   23.3730 H   0  0  0  0  0  0  0  0  0  0  0  0
  -26.0010  -15.3500   21.6140 N   0  0  0  0  0  4  0  0  0  0  0  0
  -25.1690  -15.8250   21.9220 H   0  0  0  0  0  0  0  0  0  0  0  0
  -26.8470  -15.8940   21.6470 H   0  0  0  0  0  0  0  0  0  0  0  0
  -27.5320  -12.6740   17.8570 C   0  0  0  0  0  0  0  0  0  0  0  0
  -28.7310  -12.9710   17.5410 C   0  0  0  0  0  3  0  0  0  0  0  0
  -28.8860  -15.3450   18.8330 C   0  0  0  0  0 15  0  0  0  0  0  0
  -28.6020  -18.5170   19.1770 C   0  0  0  0  0 15  0  0  0  0  0  0
  -28.7970  -21.2560   19.8210 O   0  0  0  0  0 15  0  0  0  0  0  0
  -26.7050  -29.9920   23.6570 C   0  0  0  0  0  0  0  0  0  0  0  0
  -28.3450  -23.3420   20.1290 C   0  0  0  0  0  3  0  0  0  0  0  0
  -25.5320  -28.8490   21.8410 C   0  0  0  0  0  3  0  0  0  0  0  0
  -26.7580  -26.7470   20.4050 C   0  0  0  0  0  0  0  0  0  0  0  0
  -28.0240  -28.0450   22.0650 C   0  0  0  0  0  2  0  0  0  0  0  0
  -27.8910  -26.5070   21.1870 C   0  0  0  0  0  0  0  0  0  0  0  0
  -28.6000  -24.9370   20.9830 C   0  0  0  0  0  3  0  0  0  0  0  0
  -27.3060  -24.2520   19.4430 C   0  0  0  0  0  3  0  0  0  0  0  0
  -26.6090  -25.6190   19.5240 C   0  0  0  0  0  3  0  0  0  0  0  0
  -25.8200  -28.0680   20.4820 C   0  0  0  0  0  2  0  0  0  0  0  0
  -26.8220  -29.0290   22.5890 N   0  0  0  0  0  0  0  0  0  0  0  0
  -25.6070  -30.4870   24.0090 O   0  0  0  0  0  0  0  0  0  0  0  0
  -24.4720  -28.1120   22.7160 C   0  0  0  0  0  0  0  0  0  0  0  0
  -23.1520  -28.1680   22.4190 N   0  0  0  0  0  0  0  0  0  0  0  0
  -24.8780  -27.4590   23.6780 O   0  0  0  0  0  0  0  0  0  0  0  0
  -22.8520  -28.7430   21.6440 H   0  0  0  0  0  0  0  0  0  0  0  0
  -19.6230  -27.1670   22.4280 C   0  0  0  0  0  0  0  0  0  0  0  0
  -22.1340  -27.3100   23.0580 C   0  0  0  0  0  3  0  0  0  0  0  0
  -22.2270  -25.8630   22.5160 C   0  0  0  0  0  2  0  0  0  0  0  0
  -21.2860  -25.6040   21.3350 C   0  0  0  0  0  2  0  0  0  0  0  0
  -19.8310  -25.8190   21.7610 C   0  0  0  0  0  2  0  0  0  0  0  0
  -20.7050  -27.8780   23.0190 C   0  0  0  0  0  0  0  0  0  0  0  0
  -20.4480  -29.1340   23.6110 C   0  0  0  0  0  3  0  0  0  0  0  0
  -19.1500  -29.6810   23.6100 C   0  0  0  0  0  3  0  0  0  0  0  0
  -18.0860  -28.9700   23.0280 C   0  0  0  0  0  3  0  0  0  0  0  0
  -18.3230  -27.7150   22.4430 C   0  0  0  0  0  3  0  0  0  0  0  0
  -27.8860  -30.5550   24.5420 C   0  0  0  0  0  3  0  0  0  0  0  0
  -27.6250  -31.9640   24.9970 N   0  0  0  0  0  0  0  0  0  0  0  0
  -28.1690  -33.0940   24.5070 C   0  0  0  0  0  0  0  0  0  0  0  0
  -28.9490  -33.0730   23.5550 O   0  0  0  0  0  0  0  0  0  0  0  0
  -26.9360  -32.0600   25.7280 H   0  0  0  0  0  0  0  0  0  0  0  0
  -26.6840  -35.1460   24.3550 C   0  0  0  0  0  1  0  0  0  0  0  0
  -27.8050  -34.4590   25.1540 C   0  0  0  0  0  3  0  0  0  0  0  0
  -29.9510  -34.9970   26.2460 C   0  0  0  0  0  1  0  0  0  0  0  0
  -28.9460  -35.4010   25.2670 N   0  0  0  0  0  0  0  0  0  0  0  0
  -28.6210  -36.3320   25.5150 H   0  0  0  0  0  0  0  0  0  0  0  0
  -28.1360  -29.6850   25.8370 C   0  0  1  0  0  0  0  0  0  0  0  0
  -26.8940  -29.5350   26.7490 C   0  0  0  0  0  1  0  0  0  0  0  0
  -28.6010  -28.2730   25.4550 C   0  0  0  0  0  1  0  0  0  0  0  0
  -29.2750  -30.2990   26.6870 C   0  0  0  0  0  1  0  0  0  0  0  0
  3  6  1  0
  5  9  1  0
  9  8  1  0
 10  9  1  0
 11 19  1  0
 12 17  1  0
 15 24  1  0
 16 15  1  0
 17 11  1  0
 17 16  1  0
 18 11  2  0
 19 10  1  0
 20 19  1  0
 21 25  1  0
 21 24  1  0
 21 46  2  0
 22 41  1  0
 22  2  1  1
 23 22  1  0
 25 22  1  0
 26 27  1  0
 27 28  2  0
 29 28  1  0
 30 29  2  0
 31 30  1  0
 31 26  2  0
 32 29  1  0
 32 33  1  0
 33 34  1  0
 34 35  2  0
 36 35  1  0
 36 40  1  0
 37 36  2  0
 38 33  2  0
 38 37  1  0
 39 38  1  0
 41 42  1  0
 42 45  1  0
 42 44  1  0
 43 41  2  0
 46 48  1  0
 46 47  1  0
 49  4  1  0
 50 49  3  0
 54 65  2  0
 55 60  1  0
 56 64  1  0
 56 66  1  0
 57 63  1  0
 57 59  1  0
 58 64  1  0
 59 58  1  0
 60 59  2  0
 61 62  1  0
 61 55  2  0
 62 57  2  0
 63 56  1  0
 64 54  1  0
 66 68  2  0
 67 66  1  0
 69 67  1  0
 70 79  2  0
 70 75  1  0
 71 67  1  0
 72 71  1  0
 73 74  1  0
 73 72  1  0
 74 70  1  0
 75 71  1  0
 75 76  2  0
 77 76  1  0
 78 77  2  0
 79 78  1  0
 80 54  1  0
 80 81  1  0
 80 90  1  0
 81 84  1  0
 82 81  1  0
 82 86  1  0
 83 82  2  0
 86 85  1  0
 86 88  1  0
 88 89  1  0
 88 87  1  0
 90 93  1  1
 90 91  1  0
 92 90  1  0
M  ISO  4  11 100  19 100  52 101  53 101
M  END
>  <TORSDO>  (18) 
F 21

>  <SCORE>  (18) 
1.415

>  <name>  (18) 
17

>  <ligand_id>  (18) 
17

>  <original_smiles>  (18) 
[H]c1c([H])c([H])c2c(c1[H])C([H])([H])C([H])([H])C([H])([H])C2([H])N([H])C(=O)C1([H])N(C(=O)C([H])(N([H])C(=O)C([H])(N([H])C([H])([H])[H])C([H])([H])[H])C(C([H])([H])[H])(C([H])([H])[H])C([H])([H])[H])C([H])([H])c2c([H])c(OC([H])([H])C([H])(C([H])([H])[H])C([H])([H])c3nc(C([H])(C([H])([H])[H])C([H])([H])N([H])C(=O)N4C([H])([H])C([H])([H])C([H])([H])C([H])(n5nc(-c6c([H])c([H])c(Oc7c([H])c([H])c(F)c([H])c7F)c([H])c6[H])c(C(=O)N([H])[H])c5N([H])[H])C4([H])[H])c([H])c(C([H])([H])[H])c3[H])c([H])c([H])c2C1([H])[H]

>  <smiles>  (18) 
[H]c1c([H])c([H])c2c(c1[H])C([H])([H])C([H])([H])C([H])([H])C2([H])N([H])C(=O)C1([H])N(C(=O)C([H])(N([H])C(=O)C([H])(N([H])C([H])([H])[H])C([H])([H])[H])C(C([H])([H])[H])(C([H])([H])[H])C([H])([H])[H])C([H])([H])c2c([H])c(OC([H])([H])C([H])(C([H])([H])[H])C([H])([H])c3nc(C([H])(C([H])([H])[H])C([H])([H])N([H])C(=O)N4C([H])([H])C([H])([H])C([H])([H])C([H])(n5nc(-c6c([H])c([H])c(Oc7c([H])c([H])c(F)c([H])c7F)c([H])c6[H])c(C(=O)N([H])[H])c5N([H])[H])C4([H])[H])c([H])c(C([H])([H])[H])c3[H])c([H])c([H])c2C1([H])[H]

$$$$
18:0:0
     RDKit          3D

 99108  0  0  1  0  0  0  0  0999 V2000
  -30.0680  -20.7100   19.2990 C   0  0  0  0  0  3  0  0  0  0  0  0
  -29.7700  -21.6510   18.2990 C   0  0  0  0  0  3  0  0  0  0  0  0
  -29.9450  -21.0860   20.6530 C   0  0  0  0  0  0  0  0  0  0  0  0
  -29.3490  -22.9350   18.6810 C   0  0  0  0  0  0  0  0  0  0  0  0
  -29.4750  -22.3880   20.9410 C   0  0  0  0  0  0  0  0  0  0  0  0
  -29.2700  -22.8980   22.3570 C   0  0  0  0  0  1  0  0  0  0  0  0
  -29.1820  -23.2800   19.9760 N   0  0  0  0  0  0  0  0  0  0  0  0
  -30.3080  -20.0940   21.7560 C   0  0  0  0  0  2  0  0  0  0  0  0
  -31.1120  -17.7110   21.5110 C   0  0  0  0  0  3  0  0  0  0  0  0
  -33.3350  -17.2540   20.6950 C   0  0  0  0  0  3  0  0  0  0  0  0
  -32.1030  -16.7730   21.1720 C   0  0  0  0  0  0  0  0  0  0  0  0
  -31.3860  -19.0860   21.3600 C   0  0  0  0  0  0  0  0  0  0  0  0
  -32.6630  -19.4680   20.8740 C   0  0  0  0  0  0  0  0  0  0  0  0
  -33.6100  -18.5640   20.5470 N   0  0  0  0  0  0  0  0  0  0  0  0
  -33.1340  -21.3170   19.1930 C   0  0  0  0  0  1  0  0  0  0  0  0
  -33.0870  -20.9180   20.6740 C   0  0  0  0  0  2  0  0  0  0  0  0
  -31.9090  -15.2720   21.3510 C   0  0  0  0  0  2  0  0  0  0  0  0
  -30.5280  -14.3180   19.5250 C   0  0  0  0  0  0  0  0  0  0  0  0
  -29.9080  -12.3010   18.2590 C   0  0  0  0  0  2  0  0  0  0  0  0
  -28.7550  -12.4820   17.2620 C   0  0  0  0  0  2  0  0  0  0  0  0
  -27.4020  -12.2720   17.9610 C   0  0  0  0  0  2  0  0  0  0  0  0
  -27.2710  -13.1170   19.2530 C   0  0  0  0  0  3  0  0  0  0  0  0
  -28.5110  -12.9550   20.1630 C   0  0  0  0  0  2  0  0  0  0  0  0
  -29.7270  -13.2370   19.3780 N   0  0  0  0  0  0  0  0  0  0  0  0
  -31.2620  -14.7530   18.6310 O   0  0  0  0  0  0  0  0  0  0  0  0
  -30.6800  -14.6960   20.8000 N   0  0  0  0  0  0  0  0  0  0  0  0
  -30.0570  -14.2550   21.4610 H   0  0  0  0  0  0  0  0  0  0  0  0
  -25.0530  -13.6560   20.4460 C   0  0  0  0  0  0  0  0  0  0  0  0
  -24.0720  -12.8510   20.9600 C   0  0  0  0  0  0  0  0  0  0  0  0
  -24.5130  -11.5080   20.7510 C   0  0  0  0  0  0  0  0  0  0  0  0
  -26.0330  -12.8020   19.9640 N   0  0  0  0  0  0  0  0  0  0  0  0
  -25.7190  -11.5010   20.2010 N   0  0  0  0  0  0  0  0  0  0  0  0
  -23.8310  -10.2300   20.9920 C   0  0  0  0  0  0  0  0  0  0  0  0
  -24.2950   -9.3180   21.9660 C   0  0  0  0  0  3  0  0  0  0  0  0
  -23.6120   -8.1040   22.1920 C   0  0  0  0  0  3  0  0  0  0  0  0
  -22.4520   -7.7910   21.4450 C   0  0  0  0  0  0  0  0  0  0  0  0
  -22.0070   -8.6920   20.4610 C   0  0  0  0  0  3  0  0  0  0  0  0
  -22.6910   -9.8970   20.2330 C   0  0  0  0  0  3  0  0  0  0  0  0
  -21.7400   -6.6230   21.5790 O   0  0  0  0  0  0  0  0  0  0  0  0
  -21.5500   -6.0310   22.8010 C   0  0  0  0  0  0  0  0  0  0  0  0
  -20.8970   -6.7000   23.8600 C   0  0  0  0  0  3  0  0  0  0  0  0
  -20.6620   -6.0300   25.0770 C   0  0  0  0  0  3  0  0  0  0  0  0
  -21.0700   -4.6920   25.2350 C   0  0  0  0  0  0  0  0  0  0  0  0
  -21.7150   -4.0220   24.1800 C   0  0  0  0  0  3  0  0  0  0  0  0
  -21.9520   -4.6900   22.9660 C   0  0  0  0  0  0  0  0  0  0  0  0
  -22.5550   -4.0350   21.9460 F   0  0  0  0  0  0  0  0  0  0  0  0
  -20.8360   -4.0450   26.4010 F   0  0  0  0  0  0  0  0  0  0  0  0
  -22.7540  -13.2960   21.5270 C   0  0  0  0  0  0  0  0  0  0  0  0
  -22.2260  -12.5620   22.4990 N   0  0  0  0  0  0  0  0  0  0  0  0
  -22.2080  -14.3300   21.1410 O   0  0  0  0  0  0  0  0  0  0  0  0
  -22.6850  -11.7250   22.8290 H   0  0  0  0  0  0  0  0  0  0  0  0
  -21.3520  -12.8410   22.9220 H   0  0  0  0  0  0  0  0  0  0  0  0
  -25.1880  -15.0370   20.3310 N   0  0  0  0  0  0  0  0  0  0  0  0
  -24.4660  -15.6830   20.6300 H   0  0  0  0  0  0  0  0  0  0  0  0
  -25.9760  -15.4970   19.8930 H   0  0  0  0  0  0  0  0  0  0  0  0
  -29.0390  -23.9820   17.6180 C   0  0  0  0  0  2  0  0  0  0  0  0
  -28.9990  -25.4380   18.1270 C   0  0  0  0  0  2  0  0  0  0  0  0
  -27.6020  -25.8460   18.6100 C   0  0  0  0  0  2  0  0  0  0  0  0
  -27.6970  -27.0610   19.3390 O   0  0  0  0  0  0  0  0  0  0  0  0
  -24.5700  -31.9280   23.4500 C   0  0  0  0  0  0  0  0  0  0  0  0
  -26.5350  -27.7510   19.6030 C   0  0  0  0  0  0  0  0  0  0  0  0
  -23.0730  -30.7430   21.8760 C   0  0  0  0  0  3  0  0  0  0  0  0
  -24.2310  -29.3040   20.1240 C   0  0  0  0  0  0  0  0  0  0  0  0
  -25.5590  -31.0320   21.3490 C   0  0  0  0  0  2  0  0  0  0  0  0
  -25.4820  -29.7310   20.5820 C   0  0  0  0  0  0  0  0  0  0  0  0
  -26.6340  -28.9580   20.3240 C   0  0  0  0  0  3  0  0  0  0  0  0
  -25.2570  -27.3190   19.1690 C   0  0  0  0  0  3  0  0  0  0  0  0
  -24.1110  -28.0930   19.4230 C   0  0  0  0  0  3  0  0  0  0  0  0
  -23.0490  -30.1960   20.4240 C   0  0  0  0  0  2  0  0  0  0  0  0
  -24.4270  -31.2440   22.2800 N   0  0  0  0  0  0  0  0  0  0  0  0
  -23.5910  -32.1850   24.1650 O   0  0  0  0  0  0  0  0  0  0  0  0
  -22.5150  -29.6550   22.8210 C   0  0  0  0  0  0  0  0  0  0  0  0
  -21.2240  -29.3230   22.6510 N   0  0  0  0  0  0  0  0  0  0  0  0
  -23.2390  -29.1110   23.6590 O   0  0  0  0  0  0  0  0  0  0  0  0
  -20.6970  -29.8220   21.9500 H   0  0  0  0  0  0  0  0  0  0  0  0
  -18.0840  -27.5480   22.8410 C   0  0  0  0  0  0  0  0  0  0  0  0
  -20.4930  -28.3000   23.3960 C   0  0  0  0  0  3  0  0  0  0  0  0
  -20.9280  -26.8790   22.9680 C   0  0  0  0  0  2  0  0  0  0  0  0
  -20.0500  -26.2900   21.8600 C   0  0  0  0  0  2  0  0  0  0  0  0
  -18.5910  -26.2130   22.3170 C   0  0  0  0  0  2  0  0  0  0  0  0
  -18.9800  -28.5330   23.3330 C   0  0  0  0  0  0  0  0  0  0  0  0
  -18.4640  -29.7700   23.7760 C   0  0  0  0  0  3  0  0  0  0  0  0
  -17.0810  -30.0280   23.7340 C   0  0  0  0  0  3  0  0  0  0  0  0
  -16.1960  -29.0430   23.2620 C   0  0  0  0  0  3  0  0  0  0  0  0
  -16.6980  -27.8050   22.8210 C   0  0  0  0  0  3  0  0  0  0  0  0
  -25.9620  -32.4420   23.9320 C   0  0  0  0  0  3  0  0  0  0  0  0
  -25.7980  -33.8460   24.3300 N   0  0  0  0  0  0  0  0  0  0  0  0
  -26.1590  -34.8950   23.5780 C   0  0  0  0  0  0  0  0  0  0  0  0
  -26.7380  -34.7750   22.4950 O   0  0  0  0  0  0  0  0  0  0  0  0
  -25.2750  -34.0170   25.1750 H   0  0  0  0  0  0  0  0  0  0  0  0
  -24.5690  -36.8370   23.4080 C   0  0  0  0  0  1  0  0  0  0  0  0
  -25.8240  -36.3000   24.1130 C   0  0  0  0  0  3  0  0  0  0  0  0
  -28.0780  -36.9750   24.8160 C   0  0  0  0  0  1  0  0  0  0  0  0
  -26.9310  -37.2680   23.9600 N   0  0  0  0  0  0  0  0  0  0  0  0
  -26.6160  -38.2140   24.1620 H   0  0  0  0  0  0  0  0  0  0  0  0
  -26.5640  -31.5890   25.1160 C   0  0  1  0  0  0  0  0  0  0  0  0
  -25.5680  -31.3390   26.2730 C   0  0  0  0  0  1  0  0  0  0  0  0
  -27.0480  -30.2110   24.6070 C   0  0  0  0  0  1  0  0  0  0  0  0
  -27.8090  -32.3010   25.6950 C   0  0  0  0  0  1  0  0  0  0  0  0
  1  3  1  0
  2  4  1  0
  2  1  2  0
  3  5  2  0
  3  8  1  0
  4  7  2  0
  5  6  1  0
  7  5  1  0
 10 11  1  0
 11 17  1  0
 11  9  2  0
 12  9  1  0
 12  8  1  0
 13 12  2  0
 14 10  2  0
 14 13  1  0
 15 16  1  0
 16 13  1  0
 18 26  1  0
 19 24  1  0
 20 21  1  0
 20 19  1  0
 22 21  1  0
 22 31  1  0
 22 23  1  0
 24 18  1  0
 24 23  1  0
 25 18  2  0
 26 17  1  0
 26 27  1  0
 28 29  2  0
 29 48  1  0
 30 29  1  0
 30 33  1  0
 31 32  1  0
 31 28  1  0
 32 30  2  0
 33 34  1  0
 34 35  2  0
 36 39  1  0
 36 35  1  0
 37 36  2  0
 38 37  1  0
 38 33  2  0
 39 40  1  0
 40 45  2  0
 40 41  1  0
 41 42  2  0
 42 43  1  0
 43 47  1  0
 44 43  2  0
 45 44  1  0
 46 45  1  0
 48 49  1  0
 49 51  1  0
 49 52  1  0
 50 48  2  0
 53 28  1  0
 53 54  1  0
 55 53  1  0
 56 57  1  0
 56  4  1  0
 57 58  1  0
 58 59  1  0
 59 61  1  0
 60 71  2  0
 61 66  1  0
 62 70  1  0
 62 72  1  0
 63 69  1  0
 63 65  1  0
 64 70  1  0
 65 64  1  0
 66 65  2  0
 67 68  1  0
 67 61  2  0
 68 63  2  0
 69 62  1  0
 70 60  1  0
 72 74  2  0
 73 72  1  0
 75 73  1  0
 76 81  1  0
 77 73  1  0
 78 77  1  0
 79 80  1  0
 79 78  1  0
 80 76  1  0
 81 77  1  0
 81 82  2  0
 83 82  1  0
 84 83  2  0
 85 76  2  0
 85 84  1  0
 86 60  1  0
 86 87  1  0
 86 96  1  0
 87 90  1  0
 88 92  1  0
 88 87  1  0
 89 88  2  0
 92 91  1  0
 94 92  1  0
 94 95  1  0
 94 93  1  0
 96 99  1  1
 96 97  1  0
 98 96  1  0
M  ISO  4  18 100  26 100  58 101  59 101
M  END
>  <TORSDO>  (19) 
F 23

>  <SCORE>  (19) 
-9.569

>  <name>  (19) 
18

>  <ligand_id>  (19) 
18

>  <original_smiles>  (19) 
[H]c1nc(C([H])([H])C([H])([H])[H])c(C([H])([H])c2c(C([H])([H])[H])nc(C([H])([H])C([H])([H])C([H])([H])Oc3c([H])c([H])c4c(c3[H])C([H])([H])N(C(=O)C([H])(N([H])C(=O)C([H])(N([H])C([H])([H])[H])C([H])([H])[H])C(C([H])([H])[H])(C([H])([H])[H])C([H])([H])[H])C([H])(C(=O)N([H])C3([H])c5c([H])c([H])c([H])c([H])c5C([H])([H])C([H])([H])C3([H])[H])C4([H])[H])c([H])c2[H])c([H])c1C([H])([H])N([H])C(=O)N1C([H])([H])C([H])([H])C([H])([H])C([H])(n2nc(-c3c([H])c([H])c(Oc4c([H])c([H])c(F)c([H])c4F)c([H])c3[H])c(C(=O)N([H])[H])c2N([H])[H])C1([H])[H]

>  <smiles>  (19) 
[H]c1nc(C([H])([H])C([H])([H])[H])c(C([H])([H])c2c(C([H])([H])[H])nc(C([H])([H])C([H])([H])C([H])([H])Oc3c([H])c([H])c4c(c3[H])C([H])([H])N(C(=O)C([H])(N([H])C(=O)C([H])(N([H])C([H])([H])[H])C([H])([H])[H])C(C([H])([H])[H])(C([H])([H])[H])C([H])([H])[H])C([H])(C(=O)N([H])C3([H])c5c([H])c([H])c([H])c([H])c5C([H])([H])C([H])([H])C3([H])[H])C4([H])[H])c([H])c2[H])c([H])c1C([H])([H])N([H])C(=O)N1C([H])([H])C([H])([H])C([H])([H])C([H])(n2nc(-c3c([H])c([H])c(Oc4c([H])c([H])c(F)c([H])c4F)c([H])c3[H])c(C(=O)N([H])[H])c2N([H])[H])C1([H])[H]

$$$$
19:0:0
     RDKit          3D

 93101  0  0  1  0  0  0  0  0999 V2000
  -30.7130  -19.4340   20.2240 C   0  0  0  0  0  3  0  0  0  0  0  0
  -30.1240  -18.1550   20.0850 C   0  0  0  0  0  0  0  0  0  0  0  0
  -28.0800  -19.1600   19.6990 C   0  0  0  0  0  0  0  0  0  0  0  0
  -28.6890  -20.4480   19.7770 C   0  0  0  0  0  0  0  0  0  0  0  0
  -26.6120  -18.9740   19.3680 C   0  0  0  0  0  1  0  0  0  0  0  0
  -30.0090  -20.5740   20.0510 N   0  0  0  0  0  0  0  0  0  0  0  0
  -28.7960  -18.0110   19.8450 N   0  0  0  0  0  0  0  0  0  0  0  0
  -27.9930  -21.7400   19.3400 C   0  0  0  0  0  2  0  0  0  0  0  0
  -28.2020  -22.9670   20.2630 C   0  0  0  0  0  2  0  0  0  0  0  0
  -27.7630  -24.2890   19.5930 C   0  0  0  0  0  2  0  0  0  0  0  0
  -28.1660  -25.5600   20.3710 C   0  0  0  0  0  2  0  0  0  0  0  0
  -28.0880  -26.7520   19.5840 O   0  0  0  0  0  0  0  0  0  0  0  0
  -24.4120  -31.7130   23.1220 C   0  0  0  0  0  0  0  0  0  0  0  0
  -26.9240  -27.4710   19.7000 C   0  0  0  0  0  0  0  0  0  0  0  0
  -23.1450  -30.4270   21.4290 C   0  0  0  0  0  3  0  0  0  0  0  0
  -24.5440  -28.9740   19.8690 C   0  0  0  0  0  0  0  0  0  0  0  0
  -25.6630  -30.7870   21.1790 C   0  0  0  0  0  2  0  0  0  0  0  0
  -25.7200  -29.4560   20.4580 C   0  0  0  0  0  0  0  0  0  0  0  0
  -26.9160  -28.7110   20.3710 C   0  0  0  0  0  3  0  0  0  0  0  0
  -25.7390  -27.0010   19.0980 C   0  0  0  0  0  3  0  0  0  0  0  0
  -24.5470  -27.7450   19.1860 C   0  0  0  0  0  3  0  0  0  0  0  0
  -23.3080  -29.8340   20.0040 C   0  0  0  0  0  2  0  0  0  0  0  0
  -24.4260  -30.9870   21.9690 N   0  0  0  0  0  0  0  0  0  0  0  0
  -23.3490  -31.9550   23.7120 O   0  0  0  0  0  0  0  0  0  0  0  0
  -22.5160  -29.3500   22.3420 C   0  0  0  0  0  0  0  0  0  0  0  0
  -21.1900  -29.1710   22.2260 N   0  0  0  0  0  0  0  0  0  0  0  0
  -23.2160  -28.6810   23.1070 O   0  0  0  0  0  0  0  0  0  0  0  0
  -20.6870  -29.7640   21.5810 H   0  0  0  0  0  0  0  0  0  0  0  0
  -17.8300  -27.9240   22.6880 C   0  0  0  0  0  0  0  0  0  0  0  0
  -20.3880  -28.1880   22.9540 C   0  0  0  0  0  3  0  0  0  0  0  0
  -20.4970  -26.7900   22.3040 C   0  0  0  0  0  2  0  0  0  0  0  0
  -19.3890  -26.5110   21.2820 C   0  0  0  0  0  2  0  0  0  0  0  0
  -18.0120  -26.6130   21.9440 C   0  0  0  0  0  2  0  0  0  0  0  0
  -18.9460  -28.6720   23.1480 C   0  0  0  0  0  0  0  0  0  0  0  0
  -18.7230  -29.9040   23.8010 C   0  0  0  0  0  3  0  0  0  0  0  0
  -17.4160  -30.3860   24.0020 C   0  0  0  0  0  3  0  0  0  0  0  0
  -16.3140  -29.6340   23.5580 C   0  0  0  0  0  3  0  0  0  0  0  0
  -16.5230  -28.4050   22.9060 C   0  0  0  0  0  3  0  0  0  0  0  0
  -25.7230  -32.2900   23.7430 C   0  0  0  0  0  3  0  0  0  0  0  0
  -25.4600  -33.6910   24.1010 N   0  0  0  0  0  0  0  0  0  0  0  0
  -25.8290  -34.7450   23.3600 C   0  0  0  0  0  0  0  0  0  0  0  0
  -26.4980  -34.6380   22.3290 O   0  0  0  0  0  0  0  0  0  0  0  0
  -24.8710  -33.8500   24.9040 H   0  0  0  0  0  0  0  0  0  0  0  0
  -24.1600  -36.5970   23.0370 C   0  0  0  0  0  1  0  0  0  0  0  0
  -25.3870  -36.1400   23.8420 C   0  0  0  0  0  3  0  0  0  0  0  0
  -27.5410  -36.9470   24.6960 C   0  0  0  0  0  1  0  0  0  0  0  0
  -26.4530  -37.1610   23.7480 N   0  0  0  0  0  0  0  0  0  0  0  0
  -26.0750  -38.0910   23.9020 H   0  0  0  0  0  0  0  0  0  0  0  0
  -26.2270  -31.4790   24.9990 C   0  0  1  0  0  0  0  0  0  0  0  0
  -25.1450  -31.2740   26.0840 C   0  0  0  0  0  1  0  0  0  0  0  0
  -26.7390  -30.0820   24.5740 C   0  0  0  0  0  1  0  0  0  0  0  0
  -27.4240  -32.2100   25.6500 C   0  0  0  0  0  1  0  0  0  0  0  0
  -31.0410  -16.9390   19.9830 C   0  0  0  0  0  3  0  0  0  0  0  0
  -31.1880  -14.5210   20.3930 C   0  0  0  0  0  0  0  0  0  0  0  0
  -30.7700  -12.3810   19.2880 C   0  0  0  0  0  2  0  0  0  0  0  0
  -29.8390  -12.6350   18.0860 C   0  0  0  0  0  2  0  0  0  0  0  0
  -28.3640  -12.5540   18.5250 C   0  0  0  0  0  2  0  0  0  0  0  0
  -28.0590  -13.3890   19.7980 C   0  0  0  0  0  3  0  0  0  0  0  0
  -29.1220  -13.1650   20.8990 C   0  0  0  0  0  2  0  0  0  0  0  0
  -30.4450  -13.3900   20.3060 N   0  0  0  0  0  0  0  0  0  0  0  0
  -32.3750  -14.5590   20.0640 O   0  0  0  0  0  0  0  0  0  0  0  0
  -30.5050  -15.6710   20.5190 N   0  0  0  0  0  0  0  0  0  0  0  0
  -29.5270  -15.6510   20.7600 H   0  0  0  0  0  0  0  0  0  0  0  0
  -25.6910  -14.0450   20.5560 C   0  0  0  0  0  0  0  0  0  0  0  0
  -24.6040  -13.2950   20.9150 C   0  0  0  0  0  0  0  0  0  0  0  0
  -25.0240  -11.9310   20.8420 C   0  0  0  0  0  0  0  0  0  0  0  0
  -26.7070  -13.1400   20.2900 N   0  0  0  0  0  0  0  0  0  0  0  0
  -26.3100  -11.8620   20.5210 N   0  0  0  0  0  0  0  0  0  0  0  0
  -24.2610  -10.6870   21.0040 C   0  0  0  0  0  0  0  0  0  0  0  0
  -24.6410   -9.7040   21.9450 C   0  0  0  0  0  3  0  0  0  0  0  0
  -23.8820   -8.5240   22.0940 C   0  0  0  0  0  3  0  0  0  0  0  0
  -22.7270   -8.3170   21.3020 C   0  0  0  0  0  0  0  0  0  0  0  0
  -22.3660   -9.2880   20.3510 C   0  0  0  0  0  3  0  0  0  0  0  0
  -23.1260  -10.4600   20.2000 C   0  0  0  0  0  3  0  0  0  0  0  0
  -21.9410   -7.1910   21.3610 O   0  0  0  0  0  0  0  0  0  0  0  0
  -21.7860   -6.4840   22.5260 C   0  0  0  0  0  0  0  0  0  0  0  0
  -21.2550   -7.0760   23.6920 C   0  0  0  0  0  3  0  0  0  0  0  0
  -21.0460   -6.2940   24.8460 C   0  0  0  0  0  3  0  0  0  0  0  0
  -21.3590   -4.9220   24.8340 C   0  0  0  0  0  0  0  0  0  0  0  0
  -21.8830   -4.3290   23.6710 C   0  0  0  0  0  3  0  0  0  0  0  0
  -22.0930   -5.1080   22.5200 C   0  0  0  0  0  0  0  0  0  0  0  0
  -22.5790   -4.5280   21.3950 F   0  0  0  0  0  0  0  0  0  0  0  0
  -21.1520   -4.1680   25.9390 F   0  0  0  0  0  0  0  0  0  0  0  0
  -23.2250  -13.8060   21.2140 C   0  0  0  0  0  0  0  0  0  0  0  0
  -22.5030  -13.1360   22.1040 N   0  0  0  0  0  0  0  0  0  0  0  0
  -22.7990  -14.8380   20.6950 O   0  0  0  0  0  0  0  0  0  0  0  0
  -22.8600  -12.3030   22.5480 H   0  0  0  0  0  0  0  0  0  0  0  0
  -21.5770  -13.4620   22.3470 H   0  0  0  0  0  0  0  0  0  0  0  0
  -25.8940  -15.4150   20.4130 N   0  0  0  0  0  0  0  0  0  0  0  0
  -25.1460  -16.0850   20.5460 H   0  0  0  0  0  0  0  0  0  0  0  0
  -26.7590  -15.8430   20.1060 H   0  0  0  0  0  0  0  0  0  0  0  0
  -30.3570  -16.4950   17.5060 C   0  0  0  0  0  1  0  0  0  0  0  0
  -31.4950  -16.7580   18.5070 C   0  0  0  0  0  2  0  0  0  0  0  0
  2  1  1  0
  3  4  2  0
  3  7  1  0
  4  6  1  0
  5  3  1  0
  6  1  2  0
  7  2  2  0
  8  4  1  0
  8  9  1  0
 10  9  1  0
 10 11  1  0
 12 14  1  0
 12 11  1  0
 13 24  2  0
 14 19  1  0
 15 23  1  0
 15 25  1  0
 16 22  1  0
 16 18  1  0
 17 23  1  0
 18 17  1  0
 19 18  2  0
 20 21  1  0
 20 14  2  0
 21 16  2  0
 22 15  1  0
 23 13  1  0
 25 27  2  0
 26 25  1  0
 28 26  1  0
 29 38  2  0
 29 34  1  0
 30 26  1  0
 30 34  1  0
 31 30  1  0
 32 33  1  0
 32 31  1  0
 33 29  1  0
 34 35  2  0
 35 36  1  0
 37 36  2  0
 38 37  1  0
 39 13  1  0
 39 40  1  0
 39 49  1  0
 40 43  1  0
 41 45  1  0
 41 40  1  0
 42 41  2  0
 45 44  1  0
 47 45  1  0
 47 48  1  0
 47 46  1  0
 49 52  1  1
 49 50  1  0
 51 49  1  0
 53 93  1  0
 53  2  1  0
 53 62  1  0
 54 62  1  0
 55 60  1  0
 56 57  1  0
 56 55  1  0
 58 57  1  0
 58 67  1  0
 58 59  1  0
 60 54  1  0
 60 59  1  0
 61 54  2  0
 62 63  1  0
 64 65  2  0
 65 84  1  0
 66 65  1  0
 66 69  1  0
 67 68  1  0
 67 64  1  0
 68 66  2  0
 69 70  1  0
 70 71  2  0
 72 75  1  0
 72 71  1  0
 73 72  2  0
 74 73  1  0
 74 69  2  0
 75 76  1  0
 76 77  1  0
 77 78  2  0
 79 78  1  0
 79 83  1  0
 80 79  2  0
 81 76  2  0
 81 80  1  0
 82 81  1  0
 84 85  1  0
 85 88  1  0
 85 87  1  0
 86 84  2  0
 89 90  1  0
 89 64  1  0
 91 89  1  0
 92 93  1  0
M  ISO  4  11 101  12 101  54 100  62 100
M  END
>  <TORSDO>  (20) 
F 22

>  <SCORE>  (20) 
-11.667

>  <name>  (20) 
19

>  <ligand_id>  (20) 
19

>  <original_smiles>  (20) 
[H]c1nc(C([H])([H])C([H])([H])C([H])([H])C([H])([H])Oc2c([H])c([H])c3c(c2[H])C([H])([H])N(C(=O)C([H])(N([H])C(=O)C([H])(N([H])C([H])([H])[H])C([H])([H])[H])C(C([H])([H])[H])(C([H])([H])[H])C([H])([H])[H])C([H])(C(=O)N([H])C2([H])c4c([H])c([H])c([H])c([H])c4C([H])([H])C([H])([H])C2([H])[H])C3([H])[H])c(C([H])([H])[H])nc1C([H])(N([H])C(=O)N1C([H])([H])C([H])([H])C([H])([H])C([H])(n2nc(-c3c([H])c([H])c(Oc4c([H])c([H])c(F)c([H])c4F)c([H])c3[H])c(C(=O)N([H])[H])c2N([H])[H])C1([H])[H])C([H])([H])C([H])([H])[H]

>  <smiles>  (20) 
[H]c1nc(C([H])([H])C([H])([H])C([H])([H])C([H])([H])Oc2c([H])c([H])c3c(c2[H])C([H])([H])N(C(=O)C([H])(N([H])C(=O)C([H])(N([H])C([H])([H])[H])C([H])([H])[H])C(C([H])([H])[H])(C([H])([H])[H])C([H])([H])[H])C([H])(C(=O)N([H])C2([H])c4c([H])c([H])c([H])c([H])c4C([H])([H])C([H])([H])C2([H])[H])C3([H])[H])c(C([H])([H])[H])nc1C([H])(N([H])C(=O)N1C([H])([H])C([H])([H])C([H])([H])C([H])(n2nc(-c3c([H])c([H])c(Oc4c([H])c([H])c(F)c([H])c4F)c([H])c3[H])c(C(=O)N([H])[H])c2N([H])[H])C1([H])[H])C([H])([H])C([H])([H])[H]

$$$$
20:0:0
     RDKit          3D

 96104  0  0  1  0  0  0  0  0999 V2000
  -30.4090  -20.9330   19.9430 C   0  0  0  0  0  3  0  0  0  0  0  0
  -29.7080  -22.1050   19.6040 C   0  0  0  0  0  0  0  0  0  0  0  0
  -29.8180  -19.6950   19.6200 C   0  0  0  0  0  0  0  0  0  0  0  0
  -28.0090  -20.8240   18.7670 C   0  0  0  0  0  0  0  0  0  0  0  0
  -26.6590  -20.7680   18.0870 C   0  0  0  0  0  1  0  0  0  0  0  0
  -28.5050  -22.0330   19.0090 N   0  0  0  0  0  0  0  0  0  0  0  0
  -28.6030  -19.6640   19.0340 N   0  0  0  0  0  0  0  0  0  0  0  0
  -31.9660  -18.4490   19.1380 C   0  0  0  0  0  1  0  0  0  0  0  0
  -30.5610  -18.3470   19.7740 C   0  0  0  0  0  3  0  0  0  0  0  0
  -31.1870  -18.6820   22.2390 C   0  0  0  0  0  1  0  0  0  0  0  0
  -29.0820  -17.4720   21.6710 C   0  0  0  0  0  1  0  0  0  0  0  0
  -30.5390  -17.7170   21.2210 C   0  0  1  0  0  0  0  0  0  0  0  0
  -31.3220  -16.3660   21.3220 C   0  0  0  0  0  2  0  0  0  0  0  0
  -31.1210  -14.2420   19.9900 C   0  0  0  0  0  0  0  0  0  0  0  0
  -30.6600  -12.1040   18.8400 C   0  0  0  0  0  2  0  0  0  0  0  0
  -29.6740  -12.3140   17.6740 C   0  0  0  0  0  2  0  0  0  0  0  0
  -28.2180  -12.2350   18.1720 C   0  0  0  0  0  2  0  0  0  0  0  0
  -27.9660  -13.1190   19.4220 C   0  0  0  0  0  3  0  0  0  0  0  0
  -29.0540  -12.8800   20.4910 C   0  0  0  0  0  2  0  0  0  0  0  0
  -30.3680  -13.1160   19.8650 N   0  0  0  0  0  0  0  0  0  0  0  0
  -32.1840  -14.4090   19.3880 O   0  0  0  0  0  0  0  0  0  0  0  0
  -30.6200  -15.1810   20.8080 N   0  0  0  0  0  0  0  0  0  0  0  0
  -29.7290  -14.9670   21.2290 H   0  0  0  0  0  0  0  0  0  0  0  0
  -25.6280  -13.8460   20.2230 C   0  0  0  0  0  0  0  0  0  0  0  0
  -24.5440  -13.1280   20.6520 C   0  0  0  0  0  0  0  0  0  0  0  0
  -24.9430  -11.7560   20.6220 C   0  0  0  0  0  0  0  0  0  0  0  0
  -26.6220  -12.9160   19.9610 N   0  0  0  0  0  0  0  0  0  0  0  0
  -26.2160  -11.6540   20.2580 N   0  0  0  0  0  0  0  0  0  0  0  0
  -24.1720  -10.5310   20.8640 C   0  0  0  0  0  0  0  0  0  0  0  0
  -24.5690   -9.5880   21.8380 C   0  0  0  0  0  3  0  0  0  0  0  0
  -23.8020   -8.4250   22.0650 C   0  0  0  0  0  3  0  0  0  0  0  0
  -22.6220   -8.1970   21.3150 C   0  0  0  0  0  0  0  0  0  0  0  0
  -22.2450   -9.1280   20.3310 C   0  0  0  0  0  3  0  0  0  0  0  0
  -23.0130  -10.2810   20.1040 C   0  0  0  0  0  3  0  0  0  0  0  0
  -21.8260   -7.0850   21.4500 O   0  0  0  0  0  0  0  0  0  0  0  0
  -21.7050   -6.4260   22.6460 C   0  0  0  0  0  0  0  0  0  0  0  0
  -21.2470   -7.0770   23.8130 C   0  0  0  0  0  3  0  0  0  0  0  0
  -21.0710   -6.3450   25.0040 C   0  0  0  0  0  3  0  0  0  0  0  0
  -21.3450   -4.9640   25.0300 C   0  0  0  0  0  0  0  0  0  0  0  0
  -21.7950   -4.3130   23.8670 C   0  0  0  0  0  3  0  0  0  0  0  0
  -21.9720   -5.0420   22.6790 C   0  0  0  0  0  0  0  0  0  0  0  0
  -22.3860   -4.4070   21.5560 F   0  0  0  0  0  0  0  0  0  0  0  0
  -21.1690   -4.2580   26.1710 F   0  0  0  0  0  0  0  0  0  0  0  0
  -23.1820  -13.6710   20.9760 C   0  0  0  0  0  0  0  0  0  0  0  0
  -22.4650  -13.0240   21.8900 N   0  0  0  0  0  0  0  0  0  0  0  0
  -22.7640  -14.7020   20.4530 O   0  0  0  0  0  0  0  0  0  0  0  0
  -22.8150  -12.1900   22.3360 H   0  0  0  0  0  0  0  0  0  0  0  0
  -21.5520  -13.3710   22.1470 H   0  0  0  0  0  0  0  0  0  0  0  0
  -25.8470  -15.2060   20.0200 N   0  0  0  0  0  0  0  0  0  0  0  0
  -25.1240  -15.9000   20.1670 H   0  0  0  0  0  0  0  0  0  0  0  0
  -26.7070  -15.6020   19.6580 H   0  0  0  0  0  0  0  0  0  0  0  0
  -30.3600  -23.4810   19.7130 C   0  0  0  0  0  2  0  0  0  0  0  0
  -29.5840  -24.5920   20.4710 C   0  0  0  0  0  2  0  0  0  0  0  0
  -28.7340  -25.5420   18.2220 C   0  0  0  0  0  1  0  0  0  0  0  0
  -28.4460  -25.3320   19.7200 C   0  0  0  0  0  3  0  0  0  0  0  0
  -28.3190  -26.6280   20.3320 O   0  0  0  0  0  0  0  0  0  0  0  0
  -24.5370  -31.8980   23.2500 C   0  0  0  0  0  0  0  0  0  0  0  0
  -27.1310  -27.3390   20.2800 C   0  0  0  0  0  0  0  0  0  0  0  0
  -23.3180  -30.4780   21.6340 C   0  0  0  0  0  3  0  0  0  0  0  0
  -24.7530  -28.8840   20.2540 C   0  0  0  0  0  0  0  0  0  0  0  0
  -25.8500  -30.7900   21.4420 C   0  0  0  0  0  2  0  0  0  0  0  0
  -25.9150  -29.4020   20.8360 C   0  0  0  0  0  0  0  0  0  0  0  0
  -27.1020  -28.6340   20.8500 C   0  0  0  0  0  3  0  0  0  0  0  0
  -25.9450  -26.8360   19.6960 C   0  0  0  0  0  3  0  0  0  0  0  0
  -24.7610  -27.5990   19.6850 C   0  0  0  0  0  3  0  0  0  0  0  0
  -23.5230  -29.7620   20.2720 C   0  0  0  0  0  2  0  0  0  0  0  0
  -24.5860  -31.0730   22.1670 N   0  0  0  0  0  0  0  0  0  0  0  0
  -23.4590  -32.2000   23.7760 O   0  0  0  0  0  0  0  0  0  0  0  0
  -22.6480  -29.4890   22.6150 C   0  0  0  0  0  0  0  0  0  0  0  0
  -21.3220  -29.3150   22.4770 N   0  0  0  0  0  0  0  0  0  0  0  0
  -23.3160  -28.8800   23.4540 O   0  0  0  0  0  0  0  0  0  0  0  0
  -20.8460  -29.8600   21.7720 H   0  0  0  0  0  0  0  0  0  0  0  0
  -17.9320  -28.1670   22.9640 C   0  0  0  0  0  0  0  0  0  0  0  0
  -20.4880  -28.4070   23.2630 C   0  0  0  0  0  3  0  0  0  0  0  0
  -20.5830  -26.9600   22.7270 C   0  0  0  0  0  2  0  0  0  0  0  0
  -19.4910  -26.6190   21.7070 C   0  0  0  0  0  2  0  0  0  0  0  0
  -18.1030  -26.7970   22.3300 C   0  0  0  0  0  2  0  0  0  0  0  0
  -19.0530  -28.9290   23.3890 C   0  0  0  0  0  0  0  0  0  0  0  0
  -18.8400  -30.2110   23.9400 C   0  0  0  0  0  3  0  0  0  0  0  0
  -17.5380  -30.7310   24.0730 C   0  0  0  0  0  3  0  0  0  0  0  0
  -16.4310  -29.9660   23.6680 C   0  0  0  0  0  3  0  0  0  0  0  0
  -16.6290  -28.6860   23.1190 C   0  0  0  0  0  3  0  0  0  0  0  0
  -25.8310  -32.5240   23.8610 C   0  0  0  0  0  3  0  0  0  0  0  0
  -25.5330  -33.9260   24.1840 N   0  0  0  0  0  0  0  0  0  0  0  0
  -25.8810  -34.9730   23.4240 C   0  0  0  0  0  0  0  0  0  0  0  0
  -26.5580  -34.8590   22.3980 O   0  0  0  0  0  0  0  0  0  0  0  0
  -24.9340  -34.0890   24.9800 H   0  0  0  0  0  0  0  0  0  0  0  0
  -24.1790  -36.7830   23.0410 C   0  0  0  0  0  1  0  0  0  0  0  0
  -25.4030  -36.3660   23.8720 C   0  0  0  0  0  3  0  0  0  0  0  0
  -27.5340  -37.2270   24.7360 C   0  0  0  0  0  1  0  0  0  0  0  0
  -26.4490  -37.4080   23.7740 N   0  0  0  0  0  0  0  0  0  0  0  0
  -26.0510  -38.3330   23.9140 H   0  0  0  0  0  0  0  0  0  0  0  0
  -26.3510  -31.7550   25.1360 C   0  0  1  0  0  0  0  0  0  0  0  0
  -25.2610  -31.5180   26.2080 C   0  0  0  0  0  1  0  0  0  0  0  0
  -26.9330  -30.3770   24.7420 C   0  0  0  0  0  1  0  0  0  0  0  0
  -27.5020  -32.5500   25.7960 C   0  0  0  0  0  1  0  0  0  0  0  0
  2 52  1  0
  2  1  2  0
  3  9  1  0
  3  1  1  0
  4  6  2  0
  4  7  1  0
  5  4  1  0
  6  2  1  0
  7  3  2  0
  9  8  1  0
  9 12  1  0
 12 13  1  0
 12 11  1  1
 12 10  1  0
 14 22  1  0
 15 20  1  0
 16 17  1  0
 16 15  1  0
 18 17  1  0
 18 27  1  0
 18 19  1  0
 20 14  1  0
 20 19  1  0
 21 14  2  0
 22 23  1  0
 22 13  1  0
 24 25  2  0
 25 44  1  0
 26 25  1  0
 26 29  1  0
 27 24  1  0
 27 28  1  0
 28 26  2  0
 29 30  1  0
 30 31  2  0
 32 35  1  0
 32 31  1  0
 33 32  2  0
 34 33  1  0
 34 29  2  0
 35 36  1  0
 36 41  2  0
 36 37  1  0
 37 38  2  0
 38 39  1  0
 39 43  1  0
 40 39  2  0
 41 40  1  0
 42 41  1  0
 44 45  1  0
 45 48  1  0
 45 47  1  0
 46 44  2  0
 49 50  1  0
 49 24  1  0
 51 49  1  0
 52 53  1  0
 55 54  1  0
 55 56  1  0
 55 53  1  0
 57 68  2  0
 58 56  1  0
 58 63  1  0
 59 67  1  0
 59 69  1  0
 60 66  1  0
 60 62  1  0
 61 67  1  0
 62 63  2  0
 62 61  1  0
 64 58  2  0
 65 64  1  0
 65 60  2  0
 66 59  1  0
 67 57  1  0
 69 71  2  0
 70 69  1  0
 72 70  1  0
 73 82  2  0
 73 78  1  0
 74 70  1  0
 74 78  1  0
 75 74  1  0
 76 77  1  0
 76 75  1  0
 77 73  1  0
 78 79  2  0
 79 80  1  0
 81 80  2  0
 82 81  1  0
 83 57  1  0
 83 84  1  0
 83 93  1  0
 84 87  1  0
 85 89  1  0
 85 84  1  0
 86 85  2  0
 89 88  1  0
 91 89  1  0
 91 92  1  0
 91 90  1  0
 93 96  1  1
 93 94  1  0
 95 93  1  0
M  ISO  4  14 100  22 100  55 101  56 101
M  END
>  <TORSDO>  (21) 
F 22

>  <SCORE>  (21) 
-12.538

>  <name>  (21) 
20

>  <ligand_id>  (21) 
20

>  <original_smiles>  (21) 
[H]c1c(C([H])([H])C([H])([H])C([H])(Oc2c([H])c([H])c3c(c2[H])C([H])([H])N(C(=O)C([H])(N([H])C(=O)C([H])(N([H])C([H])([H])[H])C([H])([H])[H])C(C([H])([H])[H])(C([H])([H])[H])C([H])([H])[H])C([H])(C(=O)N([H])C2([H])c4c([H])c([H])c([H])c([H])c4C([H])([H])C([H])([H])C2([H])[H])C3([H])[H])C([H])([H])[H])nc(C([H])([H])[H])nc1C([H])(C([H])([H])[H])C(C([H])([H])[H])(C([H])([H])[H])C([H])([H])N([H])C(=O)N1C([H])([H])C([H])([H])C([H])([H])C([H])(n2nc(-c3c([H])c([H])c(Oc4c([H])c([H])c(F)c([H])c4F)c([H])c3[H])c(C(=O)N([H])[H])c2N([H])[H])C1([H])[H]

>  <smiles>  (21) 
[H]c1c(C([H])([H])C([H])([H])C([H])(Oc2c([H])c([H])c3c(c2[H])C([H])([H])N(C(=O)C([H])(N([H])C(=O)C([H])(N([H])C([H])([H])[H])C([H])([H])[H])C(C([H])([H])[H])(C([H])([H])[H])C([H])([H])[H])C([H])(C(=O)N([H])C2([H])c4c([H])c([H])c([H])c([H])c4C([H])([H])C([H])([H])C2([H])[H])C3([H])[H])C([H])([H])[H])nc(C([H])([H])[H])nc1C([H])(C([H])([H])[H])C(C([H])([H])[H])(C([H])([H])[H])C([H])([H])N([H])C(=O)N1C([H])([H])C([H])([H])C([H])([H])C([H])(n2nc(-c3c([H])c([H])c(Oc4c([H])c([H])c(F)c([H])c4F)c([H])c3[H])c(C(=O)N([H])[H])c2N([H])[H])C1([H])[H]

$$$$
21:0:0
     RDKit          3D

 92100  0  0  1  0  0  0  0  0999 V2000
  -27.6620  -22.0360   20.6080 C   0  0  0  0  0  3  0  0  0  0  0  0
  -28.0300  -20.8000   20.0280 C   0  0  0  0  0  0  0  0  0  0  0  0
  -28.5400  -22.9930   20.2170 C   0  0  0  0  0  0  0  0  0  0  0  0
  -29.1720  -21.0160   19.2760 C   0  0  0  0  0  0  0  0  0  0  0  0
  -27.2430  -19.5360   20.2950 C   0  0  0  0  0  1  0  0  0  0  0  0
  -28.5750  -24.4120   20.6840 C   0  0  0  0  0  1  0  0  0  0  0  0
  -29.4370  -22.4220   19.3130 N   0  0  0  0  0  0  0  0  0  0  0  0
  -30.0450  -19.9790   18.5380 C   0  0  0  0  0  3  0  0  0  0  0  0
  -29.9030  -18.4710   18.9920 C   0  0  0  0  0  3  0  0  0  0  0  0
  -30.9940  -17.4180   18.5960 C   0  0  0  0  0  2  0  0  0  0  0  0
  -31.6730  -15.0490   19.2560 C   0  0  0  0  0  0  0  0  0  0  0  0
  -31.5590  -12.6000   18.9380 C   0  0  0  0  0  2  0  0  0  0  0  0
  -30.5950  -12.3170   17.7640 C   0  0  0  0  0  2  0  0  0  0  0  0
  -29.1340  -12.2450   18.2550 C   0  0  0  0  0  2  0  0  0  0  0  0
  -28.7510  -13.4300   19.1800 C   0  0  0  0  0  3  0  0  0  0  0  0
  -29.8280  -13.6560   20.2660 C   0  0  0  0  0  2  0  0  0  0  0  0
  -31.1180  -13.8480   19.5850 N   0  0  0  0  0  0  0  0  0  0  0  0
  -32.8010  -15.1440   18.7630 O   0  0  0  0  0  0  0  0  0  0  0  0
  -30.8310  -16.1130   19.2940 N   0  0  0  0  0  0  0  0  0  0  0  0
  -29.9320  -15.9320   19.7150 H   0  0  0  0  0  0  0  0  0  0  0  0
  -26.4560  -14.2060   20.0430 C   0  0  0  0  0  0  0  0  0  0  0  0
  -25.3720  -13.5130   20.5090 C   0  0  0  0  0  0  0  0  0  0  0  0
  -25.7430  -12.1340   20.4830 C   0  0  0  0  0  0  0  0  0  0  0  0
  -27.4240  -13.2520   19.7620 N   0  0  0  0  0  0  0  0  0  0  0  0
  -27.0020  -12.0040   20.0860 N   0  0  0  0  0  0  0  0  0  0  0  0
  -24.9530  -10.9270   20.7590 C   0  0  0  0  0  0  0  0  0  0  0  0
  -25.1780  -10.1470   21.9150 C   0  0  0  0  0  3  0  0  0  0  0  0
  -24.3960   -9.0000   22.1680 C   0  0  0  0  0  3  0  0  0  0  0  0
  -23.3740   -8.6240   21.2640 C   0  0  0  0  0  0  0  0  0  0  0  0
  -23.1700   -9.3890   20.1030 C   0  0  0  0  0  3  0  0  0  0  0  0
  -23.9530  -10.5280   19.8490 C   0  0  0  0  0  3  0  0  0  0  0  0
  -22.5820   -7.5120   21.4150 O   0  0  0  0  0  0  0  0  0  0  0  0
  -22.0220   -7.1860   22.6250 C   0  0  0  0  0  0  0  0  0  0  0  0
  -21.1420   -8.0600   23.3000 C   0  0  0  0  0  3  0  0  0  0  0  0
  -20.5360   -7.6560   24.5050 C   0  0  0  0  0  3  0  0  0  0  0  0
  -20.8000   -6.3780   25.0330 C   0  0  0  0  0  0  0  0  0  0  0  0
  -21.6710   -5.5030   24.3600 C   0  0  0  0  0  3  0  0  0  0  0  0
  -22.2790   -5.9060   23.1580 C   0  0  0  0  0  0  0  0  0  0  0  0
  -23.1010   -5.0520   22.5020 F   0  0  0  0  0  0  0  0  0  0  0  0
  -20.2100   -5.9850   26.1870 F   0  0  0  0  0  0  0  0  0  0  0  0
  -24.0310  -14.0870   20.8640 C   0  0  0  0  0  0  0  0  0  0  0  0
  -23.3480  -13.4950   21.8360 N   0  0  0  0  0  0  0  0  0  0  0  0
  -23.6010  -15.0980   20.3090 O   0  0  0  0  0  0  0  0  0  0  0  0
  -23.7090  -12.6780   22.3070 H   0  0  0  0  0  0  0  0  0  0  0  0
  -22.4480  -13.8640   22.1140 H   0  0  0  0  0  0  0  0  0  0  0  0
  -26.6930  -15.5570   19.8130 N   0  0  0  0  0  0  0  0  0  0  0  0
  -25.9720  -16.2570   19.9480 H   0  0  0  0  0  0  0  0  0  0  0  0
  -27.5220  -15.9250   19.3630 H   0  0  0  0  0  0  0  0  0  0  0  0
  -30.5290  -23.1890   18.6490 C   0  0  0  0  0  2  0  0  0  0  0  0
  -30.1870  -24.6240   18.0510 C   0  0  0  0  0  3  0  0  0  0  0  0
  -30.6070  -25.8910   18.8900 C   0  0  0  0  0  3  0  0  0  0  0  0
  -30.1510  -27.1960   18.4430 O   0  0  0  0  0  0  0  0  0  0  0  0
  -25.9740  -29.7970   23.6770 C   0  0  0  0  0  0  0  0  0  0  0  0
  -28.9100  -27.6440   18.8640 C   0  0  0  0  0  0  0  0  0  0  0  0
  -24.8320  -29.1330   21.5870 C   0  0  0  0  0  3  0  0  0  0  0  0
  -26.3540  -28.6300   19.5990 C   0  0  0  0  0  0  0  0  0  0  0  0
  -27.2720  -29.9050   21.5440 C   0  0  0  0  0  2  0  0  0  0  0  0
  -27.4820  -28.9940   20.3470 C   0  0  0  0  0  0  0  0  0  0  0  0
  -28.7630  -28.5110   19.9780 C   0  0  0  0  0  3  0  0  0  0  0  0
  -27.7630  -27.2970   18.1230 C   0  0  0  0  0  3  0  0  0  0  0  0
  -26.4890  -27.7820   18.4850 C   0  0  0  0  0  3  0  0  0  0  0  0
  -25.0200  -29.1900   20.0480 C   0  0  0  0  0  2  0  0  0  0  0  0
  -26.0470  -29.6030   22.3290 N   0  0  0  0  0  0  0  0  0  0  0  0
  -24.9120  -29.6290   24.2940 O   0  0  0  0  0  0  0  0  0  0  0  0
  -24.3890  -27.7040   21.9780 C   0  0  0  0  0  0  0  0  0  0  0  0
  -23.1290  -27.3580   21.6670 N   0  0  0  0  0  0  0  0  0  0  0  0
  -25.1770  -26.9260   22.5220 O   0  0  0  0  0  0  0  0  0  0  0  0
  -22.5400  -28.0540   21.2300 H   0  0  0  0  0  0  0  0  0  0  0  0
  -20.0880  -25.4500   21.2350 C   0  0  0  0  0  0  0  0  0  0  0  0
  -22.5140  -26.0510   21.9000 C   0  0  0  0  0  3  0  0  0  0  0  0
  -22.9530  -25.0290   20.8270 C   0  0  0  0  0  2  0  0  0  0  0  0
  -21.9890  -24.9490   19.6400 C   0  0  0  0  0  2  0  0  0  0  0  0
  -20.5860  -24.5560   20.1130 C   0  0  0  0  0  2  0  0  0  0  0  0
  -20.9940  -26.1650   22.0640 C   0  0  0  0  0  0  0  0  0  0  0  0
  -20.4800  -27.0110   23.0710 C   0  0  0  0  0  3  0  0  0  0  0  0
  -19.0910  -27.1450   23.2590 C   0  0  0  0  0  3  0  0  0  0  0  0
  -18.2000  -26.4230   22.4470 C   0  0  0  0  0  3  0  0  0  0  0  0
  -18.6990  -25.5760   21.4410 C   0  0  0  0  0  3  0  0  0  0  0  0
  -27.2120  -30.2610   24.5060 C   0  0  0  0  0  3  0  0  0  0  0  0
  -26.8270  -31.4780   25.2360 N   0  0  0  0  0  0  0  0  0  0  0  0
  -27.1450  -32.7230   24.8590 C   0  0  0  0  0  0  0  0  0  0  0  0
  -27.8600  -32.9660   23.8840 O   0  0  0  0  0  0  0  0  0  0  0  0
  -26.1950  -31.3580   26.0140 H   0  0  0  0  0  0  0  0  0  0  0  0
  -25.3640  -34.4970   24.9770 C   0  0  0  0  0  1  0  0  0  0  0  0
  -26.5760  -33.8860   25.6980 C   0  0  0  0  0  3  0  0  0  0  0  0
  -28.6170  -34.5150   26.9090 C   0  0  0  0  0  1  0  0  0  0  0  0
  -27.5690  -34.9430   25.9870 N   0  0  0  0  0  0  0  0  0  0  0  0
  -27.1150  -35.7630   26.3800 H   0  0  0  0  0  0  0  0  0  0  0  0
  -27.7430  -29.1580   25.5030 C   0  0  1  0  0  0  0  0  0  0  0  0
  -26.6410  -28.5480   26.3990 C   0  0  0  0  0  1  0  0  0  0  0  0
  -28.4210  -28.0040   24.7290 C   0  0  0  0  0  1  0  0  0  0  0  0
  -28.8230  -29.7650   26.4290 C   0  0  0  0  0  1  0  0  0  0  0  0
  2  5  1  0
  2  1  1  0
  3  1  2  0
  3  6  1  0
  4  7  1  0
  4  2  2  0
  7  3  1  0
  8  9  2  0
  8  4  1  0
 10  9  1  0
 10 19  1  0
 11 19  1  0
 11 17  1  0
 12 17  1  0
 13 14  1  0
 13 12  1  0
 15 14  1  0
 15 24  1  0
 15 16  1  0
 17 16  1  0
 18 11  2  0
 19 20  1  0
 21 22  2  0
 22 41  1  0
 23 22  1  0
 23 26  1  0
 24 21  1  0
 24 25  1  0
 25 23  2  0
 26 27  1  0
 27 28  2  0
 29 32  1  0
 29 28  1  0
 30 29  2  0
 31 30  1  0
 31 26  2  0
 32 33  1  0
 33 38  2  0
 33 34  1  0
 34 35  2  0
 35 36  1  0
 36 40  1  0
 37 36  2  0
 38 37  1  0
 39 38  1  0
 41 42  1  0
 42 45  1  0
 42 44  1  0
 43 41  2  0
 46 47  1  0
 46 21  1  0
 48 46  1  0
 49  7  1  0
 50 49  1  0
 50 51  2  0
 52 54  1  0
 52 51  1  0
 53 64  2  0
 54 59  1  0
 55 65  1  0
 55 63  1  0
 56 62  1  0
 56 58  1  0
 57 63  1  0
 58 57  1  0
 59 58  2  0
 60 61  1  0
 60 54  2  0
 61 56  2  0
 62 55  1  0
 63 53  1  0
 65 67  2  0
 66 65  1  0
 68 66  1  0
 69 78  2  0
 69 74  1  0
 70 66  1  0
 70 74  1  0
 71 70  1  0
 72 73  1  0
 72 71  1  0
 73 69  1  0
 74 75  2  0
 75 76  1  0
 77 76  2  0
 78 77  1  0
 79 53  1  0
 79 80  1  0
 79 89  1  0
 80 83  1  0
 81 80  1  0
 81 85  1  0
 82 81  2  0
 85 84  1  0
 85 87  1  0
 87 88  1  0
 87 86  1  0
 89 90  1  1
 89 92  1  0
 91 89  1  0
M  ISO  4  11 100  19 100  51 101  52 101
M  END
>  <TORSDO>  (22) 
F 22

>  <SCORE>  (22) 
-6.261

>  <name>  (22) 
21

>  <ligand_id>  (22) 
21

>  <original_smiles>  (22) 
[H]c1c([H])c([H])c2c(c1[H])C([H])([H])C([H])([H])C([H])([H])C2([H])N([H])C(=O)C1([H])N(C(=O)C([H])(N([H])C(=O)C([H])(N([H])C([H])([H])[H])C([H])([H])[H])C(C([H])([H])[H])(C([H])([H])[H])C([H])([H])[H])C([H])([H])c2c([H])c(OC([H])([H])C([H])([H])C([H])([H])n3c(C([H])([H])[H])c([H])c(C([H])([H])[H])c3C([H])([H])C([H])([H])C([H])([H])N([H])C(=O)N3C([H])([H])C([H])([H])C([H])([H])C([H])(n4nc(-c5c([H])c([H])c(Oc6c([H])c([H])c(F)c([H])c6F)c([H])c5[H])c(C(=O)N([H])[H])c4N([H])[H])C3([H])[H])c([H])c([H])c2C1([H])[H]

>  <smiles>  (22) 
[H]c1c([H])c([H])c2c(c1[H])C([H])([H])C([H])([H])C([H])([H])C2([H])N([H])C(=O)C1([H])N(C(=O)C([H])(N([H])C(=O)C([H])(N([H])C([H])([H])[H])C([H])([H])[H])C(C([H])([H])[H])(C([H])([H])[H])C([H])([H])[H])C([H])([H])c2c([H])c(OC([H])([H])C([H])([H])C([H])([H])n3c(C([H])([H])[H])c([H])c(C([H])([H])[H])c3C([H])([H])C([H])([H])C([H])([H])N([H])C(=O)N3C([H])([H])C([H])([H])C([H])([H])C([H])(n4nc(-c5c([H])c([H])c(Oc6c([H])c([H])c(F)c([H])c6F)c([H])c5[H])c(C(=O)N([H])[H])c4N([H])[H])C3([H])[H])c([H])c([H])c2C1([H])[H]

$$$$
22:0:0
     RDKit          3D

 96104  0  0  1  0  0  0  0  0999 V2000
  -26.0330  -24.6560   21.3000 C   0  0  0  0  0  2  0  0  0  0  0  0
  -27.3670  -24.5700   20.9770 C   0  0  0  0  0  3  0  0  0  0  0  0
  -26.2960  -22.8190   20.1030 C   0  0  0  0  0  3  0  0  0  0  0  0
  -25.9270  -21.6560   19.2310 C   0  0  0  0  0  1  0  0  0  0  0  0
  -27.5200  -23.3030   20.4100 N   0  0  0  0  0  0  0  0  0  0  0  0
  -25.4070  -23.5950   20.7180 N   0  0  0  0  0  0  0  0  0  0  0  0
  -24.4050  -23.4470   20.7070 H   0  0  0  0  0  0  0  0  0  0  0  0
  -28.4330  -25.6290   21.1940 C   0  0  0  0  0  2  0  0  0  0  0  0
  -28.4170  -26.7600   20.2790 O   0  0  0  0  0  0  0  0  0  0  0  0
  -24.6430  -31.9710   23.4050 C   0  0  0  0  0  0  0  0  0  0  0  0
  -27.2880  -27.5560   20.2800 C   0  0  0  0  0  0  0  0  0  0  0  0
  -23.4520  -30.6150   21.7150 C   0  0  0  0  0  3  0  0  0  0  0  0
  -24.9180  -29.0990   20.2740 C   0  0  0  0  0  0  0  0  0  0  0  0
  -25.9850  -30.9480   21.5690 C   0  0  0  0  0  2  0  0  0  0  0  0
  -26.0690  -29.5860   20.9090 C   0  0  0  0  0  0  0  0  0  0  0  0
  -27.2580  -28.8190   20.9180 C   0  0  0  0  0  3  0  0  0  0  0  0
  -26.1410  -27.1140   19.5920 C   0  0  0  0  0  3  0  0  0  0  0  0
  -24.9500  -27.8600   19.6130 C   0  0  0  0  0  3  0  0  0  0  0  0
  -23.6780  -29.9650   20.3240 C   0  0  0  0  0  2  0  0  0  0  0  0
  -24.7110  -31.1910   22.2890 N   0  0  0  0  0  0  0  0  0  0  0  0
  -23.5560  -32.2430   23.9330 O   0  0  0  0  0  0  0  0  0  0  0  0
  -22.7780  -29.5760   22.6420 C   0  0  0  0  0  0  0  0  0  0  0  0
  -21.4540  -29.4080   22.4920 N   0  0  0  0  0  0  0  0  0  0  0  0
  -23.4440  -28.9290   23.4530 O   0  0  0  0  0  0  0  0  0  0  0  0
  -20.9810  -29.9830   21.8090 H   0  0  0  0  0  0  0  0  0  0  0  0
  -18.0640  -28.2350   22.9130 C   0  0  0  0  0  0  0  0  0  0  0  0
  -20.6180  -28.4610   23.2290 C   0  0  0  0  0  3  0  0  0  0  0  0
  -20.7160  -27.0430   22.6210 C   0  0  0  0  0  2  0  0  0  0  0  0
  -19.6260  -26.7530   21.5850 C   0  0  0  0  0  2  0  0  0  0  0  0
  -18.2370  -26.9000   22.2100 C   0  0  0  0  0  2  0  0  0  0  0  0
  -19.1820  -28.9760   23.3780 C   0  0  0  0  0  0  0  0  0  0  0  0
  -18.9670  -30.2280   23.9940 C   0  0  0  0  0  3  0  0  0  0  0  0
  -17.6650  -30.7390   24.1500 C   0  0  0  0  0  3  0  0  0  0  0  0
  -16.5600  -29.9950   23.7050 C   0  0  0  0  0  3  0  0  0  0  0  0
  -16.7590  -28.7440   23.0920 C   0  0  0  0  0  3  0  0  0  0  0  0
  -25.9250  -32.5780   24.0550 C   0  0  0  0  0  3  0  0  0  0  0  0
  -25.6400  -33.9850   24.3690 N   0  0  0  0  0  0  0  0  0  0  0  0
  -26.0140  -35.0230   23.6100 C   0  0  0  0  0  0  0  0  0  0  0  0
  -26.7060  -34.8970   22.5950 O   0  0  0  0  0  0  0  0  0  0  0  0
  -25.0340  -34.1580   25.1570 H   0  0  0  0  0  0  0  0  0  0  0  0
  -24.3280  -36.8430   23.2020 C   0  0  0  0  0  1  0  0  0  0  0  0
  -25.5440  -36.4250   24.0430 C   0  0  0  0  0  3  0  0  0  0  0  0
  -27.6800  -37.2730   24.9060 C   0  0  0  0  0  1  0  0  0  0  0  0
  -26.5990  -37.4560   23.9420 N   0  0  0  0  0  0  0  0  0  0  0  0
  -26.2090  -38.3860   24.0740 H   0  0  0  0  0  0  0  0  0  0  0  0
  -26.3930  -31.8010   25.3480 C   0  0  1  0  0  0  0  0  0  0  0  0
  -25.2680  -31.5920   26.3870 C   0  0  0  0  0  1  0  0  0  0  0  0
  -26.9560  -30.4090   24.9740 C   0  0  0  0  0  1  0  0  0  0  0  0
  -27.5440  -32.5740   26.0340 C   0  0  0  0  0  1  0  0  0  0  0  0
  -28.7610  -22.5580   20.0440 C   0  0  0  0  0  2  0  0  0  0  0  0
  -28.8260  -21.0880   20.6190 C   0  0  0  0  0  2  0  0  0  0  0  0
  -29.3620  -20.0250   18.3230 C   0  0  0  0  0  1  0  0  0  0  0  0
  -29.6390  -19.9880   19.8440 C   0  0  1  0  0  0  0  0  0  0  0  0
  -30.8940  -20.3970   20.0140 F   0  0  0  0  0  0  0  0  0  0  0  0
  -27.9660  -18.1400   20.5610 C   0  0  0  0  0  1  0  0  0  0  0  0
  -29.4720  -18.5140   20.4590 C   0  0  0  0  0  3  0  0  0  0  0  0
  -29.7210  -16.7380   18.5650 C   0  0  0  0  0  1  0  0  0  0  0  0
  -31.7740  -17.7690   19.5840 C   0  0  0  0  0  1  0  0  0  0  0  0
  -30.3320  -17.2850   19.8850 C   0  0  1  0  0  0  0  0  0  0  0  0
  -30.3840  -16.0730   20.9300 C   0  0  0  0  0  2  0  0  0  0  0  0
  -31.0420  -14.7230   20.4780 C   0  0  0  0  0  0  0  0  0  0  0  0
  -30.7240  -12.5320   19.3860 C   0  0  0  0  0  2  0  0  0  0  0  0
  -29.8240  -12.7250   18.1500 C   0  0  0  0  0  2  0  0  0  0  0  0
  -28.3340  -12.6150   18.5350 C   0  0  0  0  0  2  0  0  0  0  0  0
  -27.9720  -13.4680   19.7810 C   0  0  0  0  0  3  0  0  0  0  0  0
  -29.0020  -13.2750   20.9160 C   0  0  0  0  0  2  0  0  0  0  0  0
  -30.3390  -13.5560   20.3750 N   0  0  0  0  0  0  0  0  0  0  0  0
  -32.2140  -14.7730   20.1060 O   0  0  0  0  0  0  0  0  0  0  0  0
  -25.5590  -14.1050   20.4080 C   0  0  0  0  0  0  0  0  0  0  0  0
  -24.4740  -13.3470   20.7600 C   0  0  0  0  0  0  0  0  0  0  0  0
  -24.9270  -11.9920   20.7690 C   0  0  0  0  0  0  0  0  0  0  0  0
  -26.6050  -13.2120   20.2270 N   0  0  0  0  0  0  0  0  0  0  0  0
  -26.2260  -11.9370   20.5030 N   0  0  0  0  0  0  0  0  0  0  0  0
  -24.1850  -10.7400   20.9610 C   0  0  0  0  0  0  0  0  0  0  0  0
  -24.5690   -9.7950   21.9370 C   0  0  0  0  0  3  0  0  0  0  0  0
  -23.8270   -8.6060   22.1120 C   0  0  0  0  0  3  0  0  0  0  0  0
  -22.6890   -8.3550   21.3110 C   0  0  0  0  0  0  0  0  0  0  0  0
  -22.3270   -9.2860   20.3230 C   0  0  0  0  0  3  0  0  0  0  0  0
  -23.0680  -10.4660   20.1470 C   0  0  0  0  0  3  0  0  0  0  0  0
  -21.9270   -7.2140   21.3940 O   0  0  0  0  0  0  0  0  0  0  0  0
  -21.7980   -6.5180   22.5680 C   0  0  0  0  0  0  0  0  0  0  0  0
  -21.3120   -7.1280   23.7460 C   0  0  0  0  0  3  0  0  0  0  0  0
  -21.1320   -6.3590   24.9130 C   0  0  0  0  0  3  0  0  0  0  0  0
  -21.4280   -4.9830   24.9050 C   0  0  0  0  0  0  0  0  0  0  0  0
  -21.9060   -4.3740   23.7320 C   0  0  0  0  0  3  0  0  0  0  0  0
  -22.0880   -5.1390   22.5660 C   0  0  0  0  0  0  0  0  0  0  0  0
  -22.5300   -4.5420   21.4340 F   0  0  0  0  0  0  0  0  0  0  0  0
  -21.2480   -4.2430   26.0240 F   0  0  0  0  0  0  0  0  0  0  0  0
  -23.0740  -13.8390   20.9850 C   0  0  0  0  0  0  0  0  0  0  0  0
  -22.3230  -13.1640   21.8480 N   0  0  0  0  0  0  0  0  0  0  0  0
  -22.6540  -14.8530   20.4280 O   0  0  0  0  0  0  0  0  0  0  0  0
  -22.6750  -12.3400   22.3110 H   0  0  0  0  0  0  0  0  0  0  0  0
  -21.3820  -13.4750   22.0460 H   0  0  0  0  0  0  0  0  0  0  0  0
  -25.7400  -15.4700   20.2090 N   0  0  0  0  0  0  0  0  0  0  0  0
  -24.9820  -16.1380   20.2920 H   0  0  0  0  0  0  0  0  0  0  0  0
  -26.6120  -15.8890   19.9160 H   0  0  0  0  0  0  0  0  0  0  0  0
  2  8  1  0
  2  1  1  0
  3  4  1  0
  3  5  1  0
  3  6  1  0
  5  2  1  0
  6  1  1  0
  7  6  1  0
  9 11  1  0
  9  8  1  0
 10 21  2  0
 11 16  1  0
 12 20  1  0
 12 22  1  0
 13 19  1  0
 13 15  1  0
 14 20  1  0
 15 16  2  0
 15 14  1  0
 17 18  1  0
 17 11  2  0
 18 13  2  0
 19 12  1  0
 20 10  1  0
 22 24  2  0
 23 22  1  0
 25 23  1  0
 26 35  2  0
 26 31  1  0
 27 23  1  0
 27 31  1  0
 28 27  1  0
 29 30  1  0
 29 28  1  0
 30 26  1  0
 31 32  2  0
 32 33  1  0
 34 33  2  0
 35 34  1  0
 36 10  1  0
 36 37  1  0
 36 46  1  0
 37 40  1  0
 38 42  1  0
 38 37  1  0
 39 38  2  0
 42 41  1  0
 44 42  1  0
 44 45  1  0
 44 43  1  0
 46 49  1  1
 46 47  1  0
 48 46  1  0
 50  5  1  0
 50 51  1  0
 53 52  1  6
 53 54  1  0
 53 56  1  0
 53 51  1  0
 56 55  1  0
 59 57  1  6
 58 59  1  0
 59 56  1  0
 59 60  1  0
 61 60  1  0
 62 67  1  0
 63 64  1  0
 63 62  1  0
 65 64  1  0
 65 72  1  0
 65 66  1  0
 67 61  1  0
 67 66  1  0
 68 61  2  0
 69 70  2  0
 70 71  1  0
 70 89  1  0
 71 74  1  0
 72 69  1  0
 72 73  1  0
 73 71  2  0
 74 75  1  0
 75 76  2  0
 77 80  1  0
 77 76  1  0
 78 77  2  0
 79 78  1  0
 79 74  2  0
 80 81  1  0
 81 82  1  0
 82 83  2  0
 84 83  1  0
 84 88  1  0
 85 84  2  0
 86 81  2  0
 86 85  1  0
 87 86  1  0
 89 90  1  0
 90 93  1  0
 90 92  1  0
 91 89  2  0
 94 95  1  0
 94 69  1  0
 96 94  1  0
M  ISO  4   8 101   9 101  60 100  61 100
M  END
>  <TORSDO>  (23) 
F 23

>  <SCORE>  (23) 
-12.437

>  <name>  (23) 
22

>  <ligand_id>  (23) 
22

>  <original_smiles>  (23) 
[H]c1c([H])c([H])c2c(c1[H])C([H])([H])C([H])([H])C([H])([H])C2([H])N([H])C(=O)C1([H])N(C(=O)C([H])(N([H])C(=O)C([H])(N([H])C([H])([H])[H])C([H])([H])[H])C(C([H])([H])[H])(C([H])([H])[H])C([H])([H])[H])C([H])([H])c2c([H])c(OC([H])([H])c3c([H])[n+]([H])c(C([H])([H])[H])n3C([H])([H])C([H])([H])C(F)(C([H])([H])[H])C([H])(C([H])([H])[H])C(C([H])([H])[H])(C([H])([H])[H])C([H])([H])C(=O)N3C([H])([H])C([H])([H])C([H])([H])C([H])(n4nc(-c5c([H])c([H])c(Oc6c([H])c([H])c(F)c([H])c6F)c([H])c5[H])c(C(=O)N([H])[H])c4N([H])[H])C3([H])[H])c([H])c([H])c2C1([H])[H]

>  <smiles>  (23) 
[H]c1c([H])c([H])c2c(c1[H])C([H])([H])C([H])([H])C([H])([H])C2([H])N([H])C(=O)C1([H])N(C(=O)C([H])(N([H])C(=O)C([H])(N([H])C([H])([H])[H])C([H])([H])[H])C(C([H])([H])[H])(C([H])([H])[H])C([H])([H])[H])C([H])([H])c2c([H])c(OC([H])([H])c3c([H])[n+]([H])c(C([H])([H])[H])n3C([H])([H])C([H])([H])C(F)(C([H])([H])[H])C([H])(C([H])([H])[H])C(C([H])([H])[H])(C([H])([H])[H])C([H])([H])C(=O)N3C([H])([H])C([H])([H])C([H])([H])C([H])(n4nc(-c5c([H])c([H])c(Oc6c([H])c([H])c(F)c([H])c6F)c([H])c5[H])c(C(=O)N([H])[H])c4N([H])[H])C3([H])[H])c([H])c([H])c2C1([H])[H]

$$$$
23:0:0
     RDKit          3D

 92100  0  0  1  0  0  0  0  0999 V2000
  -29.5180  -21.2330   20.9850 C   0  0  0  0  0  3  0  0  0  0  0  0
  -29.0130  -20.1390   20.3250 C   0  0  0  0  0  0  0  0  0  0  0  0
  -27.5160  -21.8000   20.2190 C   0  0  0  0  0  3  0  0  0  0  0  0
  -26.2770  -22.5670   19.8710 C   0  0  0  0  0  1  0  0  0  0  0  0
  -28.5800  -22.2320   20.9160 N   0  0  0  0  0  0  0  0  0  0  0  0
  -27.7760  -20.5300   19.8740 N   0  0  0  0  0  0  0  0  0  0  0  0
  -27.1360  -19.9460   19.3470 H   0  0  0  0  0  0  0  0  0  0  0  0
  -29.6030  -18.7730   20.0980 C   0  0  0  0  0  2  0  0  0  0  0  0
  -29.7350  -17.9750   21.4140 C   0  0  0  0  0  2  0  0  0  0  0  0
  -30.8080  -16.8590   21.4040 C   0  0  0  0  0  2  0  0  0  0  0  0
  -30.9280  -14.6250   20.2620 C   0  0  0  0  0  0  0  0  0  0  0  0
  -30.6250  -12.4730   19.0870 C   0  0  0  0  0  2  0  0  0  0  0  0
  -29.6390  -12.6430   17.9140 C   0  0  0  0  0  2  0  0  0  0  0  0
  -28.1800  -12.4990   18.3940 C   0  0  0  0  0  2  0  0  0  0  0  0
  -27.8770  -13.3610   19.6490 C   0  0  0  0  0  3  0  0  0  0  0  0
  -28.9570  -13.1310   20.7260 C   0  0  0  0  0  2  0  0  0  0  0  0
  -30.2640  -13.4480   20.1270 N   0  0  0  0  0  0  0  0  0  0  0  0
  -31.9980  -14.8680   19.6940 O   0  0  0  0  0  0  0  0  0  0  0  0
  -30.2960  -15.5420   21.0160 N   0  0  0  0  0  0  0  0  0  0  0  0
  -29.4210  -15.2500   21.4300 H   0  0  0  0  0  0  0  0  0  0  0  0
  -25.5150  -13.9920   20.4540 C   0  0  0  0  0  0  0  0  0  0  0  0
  -24.4480  -13.2290   20.8460 C   0  0  0  0  0  0  0  0  0  0  0  0
  -24.8850  -11.8710   20.7590 C   0  0  0  0  0  0  0  0  0  0  0  0
  -26.5360  -13.1020   20.1640 N   0  0  0  0  0  0  0  0  0  0  0  0
  -26.1610  -11.8180   20.4000 N   0  0  0  0  0  0  0  0  0  0  0  0
  -24.1460  -10.6160   20.9410 C   0  0  0  0  0  0  0  0  0  0  0  0
  -24.5760   -9.6350   21.8610 C   0  0  0  0  0  3  0  0  0  0  0  0
  -23.8390   -8.4430   22.0310 C   0  0  0  0  0  3  0  0  0  0  0  0
  -22.6590   -8.2260   21.2830 C   0  0  0  0  0  0  0  0  0  0  0  0
  -22.2490   -9.1950   20.3510 C   0  0  0  0  0  3  0  0  0  0  0  0
  -22.9850  -10.3800   20.1780 C   0  0  0  0  0  3  0  0  0  0  0  0
  -21.8920   -7.0880   21.3640 O   0  0  0  0  0  0  0  0  0  0  0  0
  -21.8140   -6.3540   22.5200 C   0  0  0  0  0  0  0  0  0  0  0  0
  -21.3610   -6.9190   23.7330 C   0  0  0  0  0  3  0  0  0  0  0  0
  -21.2320   -6.1120   24.8810 C   0  0  0  0  0  3  0  0  0  0  0  0
  -21.5440   -4.7400   24.8160 C   0  0  0  0  0  0  0  0  0  0  0  0
  -21.9870   -4.1760   23.6070 C   0  0  0  0  0  3  0  0  0  0  0  0
  -22.1210   -4.9810   22.4630 C   0  0  0  0  0  0  0  0  0  0  0  0
  -22.5300   -4.4270   21.2970 F   0  0  0  0  0  0  0  0  0  0  0  0
  -21.4120   -3.9620   25.9150 F   0  0  0  0  0  0  0  0  0  0  0  0
  -23.0720  -13.7200   21.1880 C   0  0  0  0  0  0  0  0  0  0  0  0
  -22.3740  -13.0180   22.0740 N   0  0  0  0  0  0  0  0  0  0  0  0
  -22.6260  -14.7610   20.7060 O   0  0  0  0  0  0  0  0  0  0  0  0
  -22.7470  -12.1770   22.4880 H   0  0  0  0  0  0  0  0  0  0  0  0
  -21.4500  -13.3260   22.3420 H   0  0  0  0  0  0  0  0  0  0  0  0
  -25.6960  -15.3640   20.3020 N   0  0  0  0  0  0  0  0  0  0  0  0
  -24.9340  -16.0200   20.4320 H   0  0  0  0  0  0  0  0  0  0  0  0
  -26.5230  -15.7910   19.9090 H   0  0  0  0  0  0  0  0  0  0  0  0
  -28.6930  -23.5690   21.5290 C   0  0  0  0  0  2  0  0  0  0  0  0
  -28.8080  -24.7130   20.5040 C   0  0  0  0  0  2  0  0  0  0  0  0
  -29.0000  -26.0830   21.1770 C   0  0  0  0  0  2  0  0  0  0  0  0
  -28.9000  -27.1360   20.2240 O   0  0  0  0  0  0  0  0  0  0  0  0
  -24.6960  -31.9760   23.3140 C   0  0  0  0  0  0  0  0  0  0  0  0
  -27.6960  -27.7890   20.2280 C   0  0  0  0  0  0  0  0  0  0  0  0
  -23.6330  -30.5650   21.5780 C   0  0  0  0  0  3  0  0  0  0  0  0
  -25.2220  -29.1420   20.1850 C   0  0  0  0  0  0  0  0  0  0  0  0
  -26.1400  -31.0610   21.5030 C   0  0  0  0  0  2  0  0  0  0  0  0
  -26.3230  -29.7140   20.8340 C   0  0  0  0  0  0  0  0  0  0  0  0
  -27.5640  -29.0450   20.8590 C   0  0  0  0  0  3  0  0  0  0  0  0
  -26.5840  -27.2190   19.5770 C   0  0  0  0  0  3  0  0  0  0  0  0
  -25.3440  -27.8900   19.5570 C   0  0  0  0  0  3  0  0  0  0  0  0
  -23.9350  -29.9320   20.1940 C   0  0  0  0  0  2  0  0  0  0  0  0
  -24.8370  -31.2160   22.1910 N   0  0  0  0  0  0  0  0  0  0  0  0
  -23.5810  -32.1770   23.8130 O   0  0  0  0  0  0  0  0  0  0  0  0
  -22.9970  -29.4840   22.4810 C   0  0  0  0  0  0  0  0  0  0  0  0
  -21.6780  -29.2770   22.3270 N   0  0  0  0  0  0  0  0  0  0  0  0
  -23.6850  -28.8350   23.2720 O   0  0  0  0  0  0  0  0  0  0  0  0
  -21.1820  -29.8590   21.6660 H   0  0  0  0  0  0  0  0  0  0  0  0
  -18.3180  -28.0310   22.7660 C   0  0  0  0  0  0  0  0  0  0  0  0
  -20.8760  -28.2840   23.0390 C   0  0  0  0  0  3  0  0  0  0  0  0
  -20.9820  -26.8940   22.3680 C   0  0  0  0  0  2  0  0  0  0  0  0
  -19.8760  -26.6340   21.3410 C   0  0  0  0  0  2  0  0  0  0  0  0
  -18.4980  -26.7310   22.0020 C   0  0  0  0  0  2  0  0  0  0  0  0
  -19.4360  -28.7690   23.2390 C   0  0  0  0  0  0  0  0  0  0  0  0
  -19.2140  -29.9910   23.9110 C   0  0  0  0  0  3  0  0  0  0  0  0
  -17.9090  -30.4740   24.1160 C   0  0  0  0  0  3  0  0  0  0  0  0
  -16.8060  -29.7320   23.6610 C   0  0  0  0  0  3  0  0  0  0  0  0
  -17.0120  -28.5120   22.9910 C   0  0  0  0  0  3  0  0  0  0  0  0
  -25.9220  -32.6490   24.0050 C   0  0  0  0  0  3  0  0  0  0  0  0
  -25.5590  -34.0440   24.2910 N   0  0  0  0  0  0  0  0  0  0  0  0
  -25.8990  -35.0900   23.5270 C   0  0  0  0  0  0  0  0  0  0  0  0
  -26.6230  -34.9870   22.5330 O   0  0  0  0  0  0  0  0  0  0  0  0
  -24.9270  -34.2000   25.0630 H   0  0  0  0  0  0  0  0  0  0  0  0
  -24.1330  -36.8140   23.0490 C   0  0  0  0  0  1  0  0  0  0  0  0
  -25.3470  -36.4710   23.9260 C   0  0  0  0  0  3  0  0  0  0  0  0
  -27.4090  -37.4440   24.8360 C   0  0  0  0  0  1  0  0  0  0  0  0
  -26.3490  -37.5550   23.8360 N   0  0  0  0  0  0  0  0  0  0  0  0
  -25.9080  -38.4640   23.9420 H   0  0  0  0  0  0  0  0  0  0  0  0
  -26.3800  -31.9100   25.3210 C   0  0  1  0  0  0  0  0  0  0  0  0
  -25.2270  -31.6360   26.3140 C   0  0  0  0  0  1  0  0  0  0  0  0
  -27.0430  -30.5540   24.9830 C   0  0  0  0  0  1  0  0  0  0  0  0
  -27.4500  -32.7540   26.0530 C   0  0  0  0  0  1  0  0  0  0  0  0
  2  1  2  0
  3  4  1  0
  3  5  1  0
  5  1  1  0
  5 49  1  0
  6  3  1  0
  6  2  1  0
  7  6  1  0
  8  2  1  0
  8  9  1  0
 10  9  1  0
 11 19  1  0
 12 17  1  0
 13 14  1  0
 13 12  1  0
 15 14  1  0
 15 24  1  0
 15 16  1  0
 17 11  1  0
 17 16  1  0
 18 11  2  0
 19 10  1  0
 19 20  1  0
 21 22  2  0
 22 41  1  0
 23 22  1  0
 23 26  1  0
 24 25  1  0
 24 21  1  0
 25 23  2  0
 26 27  1  0
 27 28  2  0
 29 32  1  0
 29 28  1  0
 30 29  2  0
 31 30  1  0
 31 26  2  0
 32 33  1  0
 33 34  1  0
 34 35  2  0
 36 35  1  0
 36 40  1  0
 37 36  2  0
 38 33  2  0
 38 37  1  0
 39 38  1  0
 41 42  1  0
 42 45  1  0
 42 44  1  0
 43 41  2  0
 46 47  1  0
 46 21  1  0
 48 46  1  0
 50 51  1  0
 50 49  1  0
 52 54  1  0
 52 51  1  0
 53 64  2  0
 54 59  1  0
 55 63  1  0
 55 65  1  0
 56 62  1  0
 56 58  1  0
 57 63  1  0
 58 59  2  0
 58 57  1  0
 60 54  2  0
 61 60  1  0
 61 56  2  0
 62 55  1  0
 63 53  1  0
 65 67  2  0
 66 65  1  0
 68 66  1  0
 69 78  2  0
 69 74  1  0
 70 66  1  0
 70 74  1  0
 71 70  1  0
 72 73  1  0
 72 71  1  0
 73 69  1  0
 74 75  2  0
 75 76  1  0
 77 76  2  0
 78 77  1  0
 79 53  1  0
 79 80  1  0
 79 89  1  0
 80 83  1  0
 81 85  1  0
 81 80  1  0
 82 81  2  0
 85 84  1  0
 87 85  1  0
 87 88  1  0
 87 86  1  0
 89 92  1  1
 89 90  1  0
 91 89  1  0
M  ISO  4  11 100  19 100  51 101  52 101
M  END
>  <TORSDO>  (24) 
F 22

>  <SCORE>  (24) 
-12.789

>  <name>  (24) 
23

>  <ligand_id>  (24) 
23

>  <original_smiles>  (24) 
[H]c1c([H])c([H])c2c(c1[H])C([H])([H])C([H])([H])C([H])([H])C2([H])N([H])C(=O)C1([H])N(C(=O)C([H])(N([H])C(=O)C([H])(N([H])C([H])([H])[H])C([H])([H])[H])C(C([H])([H])[H])(C([H])([H])[H])C([H])([H])[H])C([H])([H])c2c([H])c(OC([H])([H])C([H])([H])C([H])([H])n3c([H])c(C([H])([H])C([H])([H])C([H])([H])N([H])C(=O)N4C([H])([H])C([H])([H])C([H])([H])C([H])(n5nc(-c6c([H])c([H])c(Oc7c([H])c([H])c(F)c([H])c7F)c([H])c6[H])c(C(=O)N([H])[H])c5N([H])[H])C4([H])[H])[n+]([H])c3C([H])([H])[H])c([H])c([H])c2C1([H])[H]

>  <smiles>  (24) 
[H]c1c([H])c([H])c2c(c1[H])C([H])([H])C([H])([H])C([H])([H])C2([H])N([H])C(=O)C1([H])N(C(=O)C([H])(N([H])C(=O)C([H])(N([H])C([H])([H])[H])C([H])([H])[H])C(C([H])([H])[H])(C([H])([H])[H])C([H])([H])[H])C([H])([H])c2c([H])c(OC([H])([H])C([H])([H])C([H])([H])n3c([H])c(C([H])([H])C([H])([H])C([H])([H])N([H])C(=O)N4C([H])([H])C([H])([H])C([H])([H])C([H])(n5nc(-c6c([H])c([H])c(Oc7c([H])c([H])c(F)c([H])c7F)c([H])c6[H])c(C(=O)N([H])[H])c5N([H])[H])C4([H])[H])[n+]([H])c3C([H])([H])[H])c([H])c([H])c2C1([H])[H]

$$$$
24:0:0
     RDKit          3D

 93101  0  0  1  0  0  0  0  0999 V2000
  -28.5240  -20.3840   20.1180 C   0  0  0  0  0  3  0  0  0  0  0  0
  -30.2190  -21.3820   21.0010 C   0  0  0  0  0  3  0  0  0  0  0  0
  -28.9630  -21.7490   20.5570 C   0  0  0  0  0  0  0  0  0  0  0  0
  -29.4400  -19.2930   20.3030 C   0  0  0  0  0  0  0  0  0  0  0  0
  -30.5070  -19.9970   20.8700 N   0  0  0  0  0  0  0  0  0  0  0  0
  -31.8000  -19.2630   22.8340 C   0  0  0  0  0  1  0  0  0  0  0  0
  -32.9870  -20.1410   20.7540 C   0  0  0  0  0  1  0  0  0  0  0  0
  -31.7650  -19.3880   21.3040 C   0  0  0  0  0  3  0  0  0  0  0  0
  -28.6090  -23.7000   22.2060 C   0  0  0  0  0  1  0  0  0  0  0  0
  -26.7150  -23.0110   20.7640 C   0  0  0  0  0  1  0  0  0  0  0  0
  -28.2300  -23.2740   20.7750 C   0  0  2  0  0  0  0  0  0  0  0  0
  -28.4240  -24.7190   19.8780 C   0  0  0  0  0  2  0  0  0  0  0  0
  -28.3090  -26.2340   20.3240 O   0  0  0  0  0  0  0  0  0  0  0  0
  -24.6190  -31.9140   23.2410 C   0  0  0  0  0  0  0  0  0  0  0  0
  -27.2230  -27.1890   20.2080 C   0  0  0  0  0  0  0  0  0  0  0  0
  -23.4260  -30.5080   21.6040 C   0  0  0  0  0  3  0  0  0  0  0  0
  -24.8800  -28.9350   20.1700 C   0  0  0  0  0  0  0  0  0  0  0  0
  -25.9760  -30.7860   21.4290 C   0  0  0  0  0  2  0  0  0  0  0  0
  -26.0550  -29.3900   20.7780 C   0  0  0  0  0  0  0  0  0  0  0  0
  -27.2210  -28.5300   20.7800 C   0  0  0  0  0  3  0  0  0  0  0  0
  -26.0210  -26.8370   19.5580 C   0  0  0  0  0  3  0  0  0  0  0  0
  -24.8780  -27.6750   19.5440 C   0  0  0  0  0  3  0  0  0  0  0  0
  -23.6460  -29.8270   20.2240 C   0  0  0  0  0  2  0  0  0  0  0  0
  -24.6940  -31.0930   22.1470 N   0  0  0  0  0  0  0  0  0  0  0  0
  -23.5330  -32.1910   23.7730 O   0  0  0  0  0  0  0  0  0  0  0  0
  -22.7560  -29.5020   22.5730 C   0  0  0  0  0  0  0  0  0  0  0  0
  -21.4280  -29.3190   22.4510 N   0  0  0  0  0  0  0  0  0  0  0  0
  -23.4330  -28.8860   23.4000 O   0  0  0  0  0  0  0  0  0  0  0  0
  -20.9360  -29.8710   21.7610 H   0  0  0  0  0  0  0  0  0  0  0  0
  -18.0610  -28.0820   22.9570 C   0  0  0  0  0  0  0  0  0  0  0  0
  -20.6180  -28.3750   23.2250 C   0  0  0  0  0  3  0  0  0  0  0  0
  -20.7360  -26.9420   22.6550 C   0  0  0  0  0  2  0  0  0  0  0  0
  -19.6390  -26.6040   21.6410 C   0  0  0  0  0  2  0  0  0  0  0  0
  -18.2550  -26.7340   22.2840 C   0  0  0  0  0  2  0  0  0  0  0  0
  -19.1700  -28.8590   23.3850 C   0  0  0  0  0  0  0  0  0  0  0  0
  -18.9340  -30.1190   23.9760 C   0  0  0  0  0  3  0  0  0  0  0  0
  -17.6230  -30.6020   24.1440 C   0  0  0  0  0  3  0  0  0  0  0  0
  -16.5290  -29.8220   23.7310 C   0  0  0  0  0  3  0  0  0  0  0  0
  -16.7490  -28.5640   23.1430 C   0  0  0  0  0  3  0  0  0  0  0  0
  -25.8940  -32.5630   23.8650 C   0  0  0  0  0  3  0  0  0  0  0  0
  -26.4010  -31.8120   25.1580 C   0  0  1  0  0  0  0  0  0  0  0  0
  -25.3020  -31.5930   26.2240 C   0  0  0  0  0  1  0  0  0  0  0  0
  -26.9850  -30.4280   24.7940 C   0  0  0  0  0  1  0  0  0  0  0  0
  -27.5500  -32.6140   25.8130 C   0  0  0  0  0  1  0  0  0  0  0  0
  -25.5800  -33.9660   24.1810 N   0  0  0  0  0  0  0  0  0  0  0  0
  -25.9190  -35.0170   23.4230 C   0  0  0  0  0  0  0  0  0  0  0  0
  -26.5970  -34.9070   22.3980 O   0  0  0  0  0  0  0  0  0  0  0  0
  -24.9810  -34.1240   24.9790 H   0  0  0  0  0  0  0  0  0  0  0  0
  -24.2040  -36.8190   23.0450 C   0  0  0  0  0  1  0  0  0  0  0  0
  -25.4330  -36.4100   23.8710 C   0  0  0  0  0  3  0  0  0  0  0  0
  -27.5600  -37.2920   24.7280 C   0  0  0  0  0  1  0  0  0  0  0  0
  -26.4720  -37.4590   23.7670 N   0  0  0  0  0  0  0  0  0  0  0  0
  -26.0680  -38.3820   23.9040 H   0  0  0  0  0  0  0  0  0  0  0  0
  -28.4050  -17.4690   18.8010 C   0  0  0  0  0  1  0  0  0  0  0  0
  -29.5610  -17.6990   19.7880 C   0  0  0  0  0  3  0  0  0  0  0  0
  -30.4590  -15.1250   20.3670 C   0  0  0  0  0  0  0  0  0  0  0  0
  -30.3980  -12.7390   19.4800 C   0  0  0  0  0  2  0  0  0  0  0  0
  -29.4920  -12.6650   18.2250 C   0  0  0  0  0  2  0  0  0  0  0  0
  -28.0240  -12.4400   18.6270 C   0  0  0  0  0  2  0  0  0  0  0  0
  -27.5870  -13.3670   19.7910 C   0  0  0  0  0  3  0  0  0  0  0  0
  -28.6180  -13.4070   20.9410 C   0  0  0  0  0  2  0  0  0  0  0  0
  -29.8960  -13.8400   20.3620 N   0  0  0  0  0  0  0  0  0  0  0  0
  -31.6400  -15.1960   20.0060 O   0  0  0  0  0  0  0  0  0  0  0  0
  -29.6750  -16.3120   20.5770 N   0  0  0  0  0  0  0  0  0  0  0  0
  -28.8180  -16.0990   21.0630 H   0  0  0  0  0  0  0  0  0  0  0  0
  -25.1920  -13.9280   20.4860 C   0  0  0  0  0  0  0  0  0  0  0  0
  -24.1280  -13.1480   20.8440 C   0  0  0  0  0  0  0  0  0  0  0  0
  -24.6030  -11.8010   20.8290 C   0  0  0  0  0  0  0  0  0  0  0  0
  -26.2440  -13.0570   20.2670 N   0  0  0  0  0  0  0  0  0  0  0  0
  -25.8990  -11.7710   20.5390 N   0  0  0  0  0  0  0  0  0  0  0  0
  -23.8820  -10.5340   21.0140 C   0  0  0  0  0  0  0  0  0  0  0  0
  -24.2960   -9.5810   21.9700 C   0  0  0  0  0  3  0  0  0  0  0  0
  -23.5720   -8.3800   22.1440 C   0  0  0  0  0  3  0  0  0  0  0  0
  -22.4200   -8.1260   21.3620 C   0  0  0  0  0  0  0  0  0  0  0  0
  -22.0260   -9.0690   20.3950 C   0  0  0  0  0  3  0  0  0  0  0  0
  -22.7510  -10.2600   20.2200 C   0  0  0  0  0  3  0  0  0  0  0  0
  -21.6710   -6.9780   21.4430 O   0  0  0  0  0  0  0  0  0  0  0  0
  -21.5860   -6.2540   22.6050 C   0  0  0  0  0  0  0  0  0  0  0  0
  -21.0970   -6.8210   23.8020 C   0  0  0  0  0  3  0  0  0  0  0  0
  -20.9630   -6.0220   24.9560 C   0  0  0  0  0  3  0  0  0  0  0  0
  -21.3090   -4.6580   24.9130 C   0  0  0  0  0  0  0  0  0  0  0  0
  -21.7910   -4.0910   23.7200 C   0  0  0  0  0  3  0  0  0  0  0  0
  -21.9270   -4.8870   22.5680 C   0  0  0  0  0  0  0  0  0  0  0  0
  -22.3730   -4.3310   21.4160 F   0  0  0  0  0  0  0  0  0  0  0  0
  -21.1720   -3.8880   26.0170 F   0  0  0  0  0  0  0  0  0  0  0  0
  -22.7250  -13.6170   21.0870 C   0  0  0  0  0  0  0  0  0  0  0  0
  -21.9850  -12.9200   21.9410 N   0  0  0  0  0  0  0  0  0  0  0  0
  -22.2910  -14.6390   20.5550 O   0  0  0  0  0  0  0  0  0  0  0  0
  -22.3490  -12.0950   22.3940 H   0  0  0  0  0  0  0  0  0  0  0  0
  -21.0400  -13.2140   22.1440 H   0  0  0  0  0  0  0  0  0  0  0  0
  -25.3500  -15.2990   20.3030 N   0  0  0  0  0  0  0  0  0  0  0  0
  -24.5750  -15.9460   20.3930 H   0  0  0  0  0  0  0  0  0  0  0  0
  -26.1930  -15.7360   19.9550 H   0  0  0  0  0  0  0  0  0  0  0  0
  1  4  2  0
  1  3  1  0
  3 11  1  0
  3  2  2  0
  4  5  1  0
  5  2  1  0
  5  8  1  0
  7  8  1  0
  8  6  1  0
 11 10  1  1
 11  9  1  0
 12 13  1  0
 12 11  1  0
 14 25  2  0
 15 13  1  0
 15 20  1  0
 16 24  1  0
 16 26  1  0
 17 23  1  0
 17 19  1  0
 18 24  1  0
 19 20  2  0
 19 18  1  0
 21 15  2  0
 22 21  1  0
 22 17  2  0
 23 16  1  0
 24 14  1  0
 26 28  2  0
 27 26  1  0
 29 27  1  0
 30 39  2  0
 30 35  1  0
 31 27  1  0
 31 35  1  0
 32 31  1  0
 33 34  1  0
 33 32  1  0
 34 30  1  0
 35 36  2  0
 36 37  1  0
 38 37  2  0
 39 38  1  0
 40 14  1  0
 40 45  1  0
 40 41  1  0
 41 44  1  1
 41 42  1  0
 43 41  1  0
 45 48  1  0
 46 50  1  0
 46 45  1  0
 47 46  2  0
 50 49  1  0
 52 50  1  0
 52 53  1  0
 52 51  1  0
 55 54  1  0
 55  4  1  0
 55 64  1  0
 56 64  1  0
 57 62  1  0
 58 59  1  0
 58 57  1  0
 60 59  1  0
 60 69  1  0
 60 61  1  0
 62 56  1  0
 62 61  1  0
 63 56  2  0
 64 65  1  0
 66 67  2  0
 67 86  1  0
 68 67  1  0
 68 71  1  0
 69 66  1  0
 69 70  1  0
 70 68  2  0
 71 72  1  0
 72 73  2  0
 74 77  1  0
 74 73  1  0
 75 74  2  0
 76 75  1  0
 76 71  2  0
 77 78  1  0
 78 79  1  0
 79 80  2  0
 81 80  1  0
 81 85  1  0
 82 81  2  0
 83 78  2  0
 83 82  1  0
 84 83  1  0
 86 87  1  0
 87 90  1  0
 87 89  1  0
 88 86  2  0
 91 92  1  0
 91 66  1  0
 93 91  1  0
M  ISO  4  12 101  13 101  56 100  64 100
M  END
>  <TORSDO>  (25) 
F 20

>  <SCORE>  (25) 
-15.098

>  <name>  (25) 
24

>  <ligand_id>  (25) 
24

>  <original_smiles>  (25) 
[H]c1c([H])c([H])c2c(c1[H])C([H])([H])C([H])([H])C([H])([H])C2([H])N([H])C(=O)C1([H])N(C(=O)C([H])(N([H])C(=O)C([H])(N([H])C([H])([H])[H])C([H])([H])[H])C(C([H])([H])[H])(C([H])([H])[H])C([H])([H])[H])C([H])([H])c2c([H])c(OC([H])([H])C(c3c([H])c(C([H])(N([H])C(=O)N4C([H])([H])C([H])([H])C([H])([H])C([H])(n5nc(-c6c([H])c([H])c(Oc7c([H])c([H])c(F)c([H])c7F)c([H])c6[H])c(C(=O)N([H])[H])c5N([H])[H])C4([H])[H])C([H])([H])[H])n(C([H])(C([H])([H])[H])C([H])([H])[H])c3[H])(C([H])([H])[H])C([H])([H])[H])c([H])c([H])c2C1([H])[H]

>  <smiles>  (25) 
[H]c1c([H])c([H])c2c(c1[H])C([H])([H])C([H])([H])C([H])([H])C2([H])N([H])C(=O)C1([H])N(C(=O)C([H])(N([H])C(=O)C([H])(N([H])C([H])([H])[H])C([H])([H])[H])C(C([H])([H])[H])(C([H])([H])[H])C([H])([H])[H])C([H])([H])c2c([H])c(OC([H])([H])C(c3c([H])c(C([H])(N([H])C(=O)N4C([H])([H])C([H])([H])C([H])([H])C([H])(n5nc(-c6c([H])c([H])c(Oc7c([H])c([H])c(F)c([H])c7F)c([H])c6[H])c(C(=O)N([H])[H])c5N([H])[H])C4([H])[H])C([H])([H])[H])n(C([H])(C([H])([H])[H])C([H])([H])[H])c3[H])(C([H])([H])[H])C([H])([H])[H])c([H])c([H])c2C1([H])[H]

$$$$
25:0:0
     RDKit          3D

 94102  0  0  1  0  0  0  0  0999 V2000
  -31.2400  -20.4230   21.2190 C   0  0  0  0  0  3  0  0  0  0  0  0
  -30.9320  -22.6830   20.7240 C   0  0  0  0  0  0  0  0  0  0  0  0
  -29.5530  -22.4820   20.4190 C   0  0  0  0  0  0  0  0  0  0  0  0
  -29.9210  -20.1120   20.8160 C   0  0  0  0  0  0  0  0  0  0  0  0
  -31.7360  -21.6820   21.1690 N   0  0  0  0  0  0  0  0  0  0  0  0
  -29.0700  -21.1670   20.4870 N   0  0  0  0  0  0  0  0  0  0  0  0
  -31.6850  -23.9810   20.4300 C   0  0  0  0  0  2  0  0  0  0  0  0
  -33.6030  -24.8240   18.9120 C   0  0  0  0  0  1  0  0  0  0  0  0
  -32.3470  -23.9510   19.0350 C   0  0  0  0  0  2  0  0  0  0  0  0
  -28.6750  -23.6890   19.8140 C   0  0  0  0  0  3  0  0  0  0  0  0
  -26.1950  -22.8610   19.6930 C   0  0  0  0  0  1  0  0  0  0  0  0
  -27.3360  -23.8820   17.6060 C   0  0  0  0  0  1  0  0  0  0  0  0
  -27.5130  -23.1210   18.9330 C   0  0  0  0  0  3  0  0  0  0  0  0
  -28.3070  -25.0160   20.7110 C   0  0  0  0  0  2  0  0  0  0  0  0
  -28.3830  -26.4480   20.2290 O   0  0  0  0  0  0  0  0  0  0  0  0
  -24.6210  -31.9290   23.2480 C   0  0  0  0  0  0  0  0  0  0  0  0
  -27.2580  -27.3070   20.2570 C   0  0  0  0  0  0  0  0  0  0  0  0
  -23.4320  -30.5090   21.6140 C   0  0  0  0  0  3  0  0  0  0  0  0
  -24.8920  -28.9440   20.2090 C   0  0  0  0  0  0  0  0  0  0  0  0
  -25.9710  -30.8270   21.4390 C   0  0  0  0  0  2  0  0  0  0  0  0
  -26.0600  -29.4350   20.8100 C   0  0  0  0  0  0  0  0  0  0  0  0
  -27.2470  -28.6320   20.8150 C   0  0  0  0  0  3  0  0  0  0  0  0
  -26.0650  -26.8740   19.6490 C   0  0  0  0  0  3  0  0  0  0  0  0
  -24.9050  -27.6760   19.6040 C   0  0  0  0  0  3  0  0  0  0  0  0
  -23.6520  -29.8170   20.2430 C   0  0  0  0  0  2  0  0  0  0  0  0
  -24.6930  -31.1090   22.1570 N   0  0  0  0  0  0  0  0  0  0  0  0
  -23.5340  -32.2060   23.7770 O   0  0  0  0  0  0  0  0  0  0  0  0
  -22.7650  -29.5050   22.5870 C   0  0  0  0  0  0  0  0  0  0  0  0
  -21.4380  -29.3260   22.4590 N   0  0  0  0  0  0  0  0  0  0  0  0
  -23.4420  -28.8890   23.4130 O   0  0  0  0  0  0  0  0  0  0  0  0
  -20.9480  -29.8800   21.7710 H   0  0  0  0  0  0  0  0  0  0  0  0
  -18.0670  -28.1120   22.9660 C   0  0  0  0  0  0  0  0  0  0  0  0
  -20.6230  -28.3920   23.2380 C   0  0  0  0  0  3  0  0  0  0  0  0
  -20.7350  -26.9550   22.6790 C   0  0  0  0  0  2  0  0  0  0  0  0
  -19.6370  -26.6130   21.6650 C   0  0  0  0  0  2  0  0  0  0  0  0
  -18.2530  -26.7570   22.3040 C   0  0  0  0  0  2  0  0  0  0  0  0
  -19.1800  -28.8860   23.3900 C   0  0  0  0  0  0  0  0  0  0  0  0
  -18.9510  -30.1510   23.9730 C   0  0  0  0  0  3  0  0  0  0  0  0
  -17.6410  -30.6430   24.1350 C   0  0  0  0  0  3  0  0  0  0  0  0
  -16.5440  -29.8680   23.7240 C   0  0  0  0  0  3  0  0  0  0  0  0
  -16.7570  -28.6050   23.1440 C   0  0  0  0  0  3  0  0  0  0  0  0
  -25.8960  -32.5750   23.8690 C   0  0  0  0  0  3  0  0  0  0  0  0
  -25.5780  -33.9750   24.1840 N   0  0  0  0  0  0  0  0  0  0  0  0
  -25.9150  -35.0250   23.4220 C   0  0  0  0  0  0  0  0  0  0  0  0
  -26.5940  -34.9150   22.3970 O   0  0  0  0  0  0  0  0  0  0  0  0
  -24.9750  -34.1320   24.9780 H   0  0  0  0  0  0  0  0  0  0  0  0
  -24.1850  -36.8100   23.0440 C   0  0  0  0  0  1  0  0  0  0  0  0
  -25.4230  -36.4160   23.8660 C   0  0  0  0  0  3  0  0  0  0  0  0
  -27.5510  -37.3120   24.7010 C   0  0  0  0  0  1  0  0  0  0  0  0
  -26.4540  -37.4720   23.7520 N   0  0  0  0  0  0  0  0  0  0  0  0
  -26.0440  -38.3910   23.8920 H   0  0  0  0  0  0  0  0  0  0  0  0
  -26.4070  -31.8230   25.1600 C   0  0  1  0  0  0  0  0  0  0  0  0
  -25.3070  -31.5960   26.2240 C   0  0  0  0  0  1  0  0  0  0  0  0
  -26.9950  -30.4420   24.7900 C   0  0  0  0  0  1  0  0  0  0  0  0
  -27.5510  -32.6330   25.8160 C   0  0  0  0  0  1  0  0  0  0  0  0
  -29.4380  -18.7740   20.7370 O   0  0  0  0  0  0  0  0  0  0  0  0
  -30.3590  -17.5950   20.6850 C   0  0  0  0  0  3  0  0  0  0  0  0
  -29.7080  -16.1110   20.6470 C   0  0  0  0  0  3  0  0  0  0  0  0
  -30.5610  -14.7800   20.3440 C   0  0  0  0  0  0  0  0  0  0  0  0
  -30.3650  -12.5150   19.2900 C   0  0  0  0  0  2  0  0  0  0  0  0
  -29.4020  -12.6170   18.0820 C   0  0  0  0  0  2  0  0  0  0  0  0
  -27.9360  -12.4510   18.5310 C   0  0  0  0  0  2  0  0  0  0  0  0
  -27.5840  -13.3270   19.7620 C   0  0  0  0  0  3  0  0  0  0  0  0
  -28.6600  -13.1810   20.8640 C   0  0  0  0  0  2  0  0  0  0  0  0
  -29.9600  -13.5410   20.2790 N   0  0  0  0  0  0  0  0  0  0  0  0
  -31.7330  -14.9010   19.9780 O   0  0  0  0  0  0  0  0  0  0  0  0
  -25.1910  -13.9040   20.4970 C   0  0  0  0  0  0  0  0  0  0  0  0
  -24.1320  -13.1200   20.8700 C   0  0  0  0  0  0  0  0  0  0  0  0
  -24.6050  -11.7720   20.8410 C   0  0  0  0  0  0  0  0  0  0  0  0
  -26.2430  -13.0320   20.2600 N   0  0  0  0  0  0  0  0  0  0  0  0
  -25.8960  -11.7460   20.5310 N   0  0  0  0  0  0  0  0  0  0  0  0
  -23.8830  -10.5070   21.0360 C   0  0  0  0  0  0  0  0  0  0  0  0
  -24.3300   -9.5380   21.9610 C   0  0  0  0  0  3  0  0  0  0  0  0
  -23.6070   -8.3390   22.1460 C   0  0  0  0  0  3  0  0  0  0  0  0
  -22.4260   -8.1020   21.4030 C   0  0  0  0  0  0  0  0  0  0  0  0
  -22.0010   -9.0560   20.4620 C   0  0  0  0  0  3  0  0  0  0  0  0
  -22.7240  -10.2460   20.2770 C   0  0  0  0  0  3  0  0  0  0  0  0
  -21.6750   -6.9560   21.4970 O   0  0  0  0  0  0  0  0  0  0  0  0
  -21.6440   -6.2070   22.6440 C   0  0  0  0  0  0  0  0  0  0  0  0
  -21.2500   -6.7590   23.8820 C   0  0  0  0  0  3  0  0  0  0  0  0
  -21.1700   -5.9400   25.0250 C   0  0  0  0  0  3  0  0  0  0  0  0
  -21.4750   -4.5690   24.9300 C   0  0  0  0  0  0  0  0  0  0  0  0
  -21.8640   -4.0150   23.6970 C   0  0  0  0  0  3  0  0  0  0  0  0
  -21.9450   -4.8340   22.5570 C   0  0  0  0  0  0  0  0  0  0  0  0
  -22.3030   -4.2930   21.3670 F   0  0  0  0  0  0  0  0  0  0  0  0
  -21.3870   -3.7780   26.0250 F   0  0  0  0  0  0  0  0  0  0  0  0
  -22.7330  -13.5870   21.1470 C   0  0  0  0  0  0  0  0  0  0  0  0
  -22.0180  -12.8850   22.0220 N   0  0  0  0  0  0  0  0  0  0  0  0
  -22.2820  -14.6040   20.6290 O   0  0  0  0  0  0  0  0  0  0  0  0
  -22.4000  -12.0630   22.4670 H   0  0  0  0  0  0  0  0  0  0  0  0
  -21.0770  -13.1720   22.2550 H   0  0  0  0  0  0  0  0  0  0  0  0
  -25.3320  -15.2780   20.3220 N   0  0  0  0  0  0  0  0  0  0  0  0
  -24.5430  -15.9060   20.4430 H   0  0  0  0  0  0  0  0  0  0  0  0
  -26.1680  -15.7480   20.0030 H   0  0  0  0  0  0  0  0  0  0  0  0
  2  5  1  0
  3  6  1  0
  3  2  2  0
  4  1  1  0
  5  1  2  0
  6  4  2  0
  7  2  1  0
  8  9  1  0
  9  7  1  0
 10  3  1  0
 10 14  1  0
 12 13  1  0
 13 11  1  0
 13 10  1  0
 15 17  1  0
 15 14  1  0
 16 27  2  0
 17 22  1  0
 18 26  1  0
 18 28  1  0
 19 25  1  0
 19 21  1  0
 20 26  1  0
 21 22  2  0
 21 20  1  0
 23 17  2  0
 24 23  1  0
 24 19  2  0
 25 18  1  0
 26 16  1  0
 28 30  2  0
 29 28  1  0
 31 29  1  0
 32 41  2  0
 32 37  1  0
 33 29  1  0
 33 37  1  0
 34 33  1  0
 35 36  1  0
 35 34  1  0
 36 32  1  0
 37 38  2  0
 38 39  1  0
 40 39  2  0
 41 40  1  0
 42 16  1  0
 42 43  1  0
 42 52  1  0
 43 46  1  0
 44 48  1  0
 44 43  1  0
 45 44  2  0
 48 47  1  0
 50 48  1  0
 50 51  1  0
 50 49  1  0
 52 55  1  1
 52 53  1  0
 54 52  1  0
 56  4  1  0
 57 56  1  0
 58 57  2  0
 59 58  1  0
 60 65  1  0
 61 62  1  0
 61 60  1  0
 63 62  1  0
 63 70  1  0
 63 64  1  0
 65 59  1  0
 65 64  1  0
 66 59  2  0
 67 68  2  0
 68 87  1  0
 69 68  1  0
 69 72  1  0
 70 67  1  0
 70 71  1  0
 71 69  2  0
 72 73  1  0
 73 74  2  0
 75 78  1  0
 75 74  1  0
 76 75  2  0
 77 76  1  0
 77 72  2  0
 78 79  1  0
 79 80  1  0
 80 81  2  0
 82 81  1  0
 82 86  1  0
 83 82  2  0
 84 79  2  0
 84 83  1  0
 85 84  1  0
 87 88  1  0
 88 91  1  0
 88 90  1  0
 89 87  2  0
 92 93  1  0
 92 67  1  0
 94 92  1  0
M  ISO  4  14 101  15 101  58 100  59 100
M  END
>  <TORSDO>  (26) 
F 24

>  <SCORE>  (26) 
-12.650

>  <name>  (26) 
25

>  <ligand_id>  (26) 
25

>  <original_smiles>  (26) 
[H]c1nc(C([H])([H])C([H])([H])C([H])([H])[H])c(C([H])(C([H])([H])Oc2c([H])c([H])c3c(c2[H])C([H])([H])N(C(=O)C([H])(N([H])C(=O)C([H])(N([H])C([H])([H])[H])C([H])([H])[H])C(C([H])([H])[H])(C([H])([H])[H])C([H])([H])[H])C([H])(C(=O)N([H])C2([H])c4c([H])c([H])c([H])c([H])c4C([H])([H])C([H])([H])C2([H])[H])C3([H])[H])C([H])(C([H])([H])[H])C([H])([H])[H])nc1OC([H])([H])C([H])([H])C(=O)N1C([H])([H])C([H])([H])C([H])([H])C([H])(n2nc(-c3c([H])c([H])c(Oc4c([H])c([H])c(F)c([H])c4F)c([H])c3[H])c(C(=O)N([H])[H])c2N([H])[H])C1([H])[H]

>  <smiles>  (26) 
[H]c1nc(C([H])([H])C([H])([H])C([H])([H])[H])c(C([H])(C([H])([H])Oc2c([H])c([H])c3c(c2[H])C([H])([H])N(C(=O)C([H])(N([H])C(=O)C([H])(N([H])C([H])([H])[H])C([H])([H])[H])C(C([H])([H])[H])(C([H])([H])[H])C([H])([H])[H])C([H])(C(=O)N([H])C2([H])c4c([H])c([H])c([H])c([H])c4C([H])([H])C([H])([H])C2([H])[H])C3([H])[H])C([H])(C([H])([H])[H])C([H])([H])[H])nc1OC([H])([H])C([H])([H])C(=O)N1C([H])([H])C([H])([H])C([H])([H])C([H])(n2nc(-c3c([H])c([H])c(Oc4c([H])c([H])c(F)c([H])c4F)c([H])c3[H])c(C(=O)N([H])[H])c2N([H])[H])C1([H])[H]

$$$$
26:0:0
     RDKit          3D

 94102  0  0  1  0  0  0  0  0999 V2000
  -28.3850  -21.5860   20.2600 C   0  0  0  0  0  3  0  0  0  0  0  0
  -28.9130  -22.8410   20.6890 C   0  0  0  0  0  0  0  0  0  0  0  0
  -29.2210  -20.4330   20.1360 C   0  0  0  0  0  0  0  0  0  0  0  0
  -30.2860  -22.7790   21.0720 C   0  0  0  0  0  0  0  0  0  0  0  0
  -31.0670  -23.9260   21.6740 C   0  0  0  0  0  1  0  0  0  0  0  0
  -30.5310  -20.5100   20.4550 N   0  0  0  0  0  0  0  0  0  0  0  0
  -31.0280  -21.6440   20.9570 N   0  0  0  0  0  0  0  0  0  0  0  0
  -28.6360  -19.7650   17.8230 C   0  0  0  0  0  1  0  0  0  0  0  0
  -28.7530  -19.2280   19.2750 C   0  0  0  0  0  3  0  0  0  0  0  0
  -30.6740  -17.7050   18.4480 C   0  0  0  0  0  1  0  0  0  0  0  0
  -28.3720  -16.7880   18.7090 C   0  0  0  0  0  1  0  0  0  0  0  0
  -29.4120  -17.7510   19.3410 C   0  0  2  0  0  0  0  0  0  0  0  0
  -29.8100  -17.1470   20.7570 C   0  0  0  0  0  2  0  0  0  0  0  0
  -30.5480  -14.6270   20.6050 C   0  0  0  0  0  0  0  0  0  0  0  0
  -30.4110  -12.3890   19.5580 C   0  0  0  0  0  2  0  0  0  0  0  0
  -29.4970  -12.4880   18.3150 C   0  0  0  0  0  2  0  0  0  0  0  0
  -28.0080  -12.3430   18.6910 C   0  0  0  0  0  2  0  0  0  0  0  0
  -27.6070  -13.2100   19.9140 C   0  0  0  0  0  3  0  0  0  0  0  0
  -28.6270  -13.0540   21.0640 C   0  0  0  0  0  2  0  0  0  0  0  0
  -29.9550  -13.3970   20.5320 N   0  0  0  0  0  0  0  0  0  0  0  0
  -31.7130  -14.8190   20.2460 O   0  0  0  0  0  0  0  0  0  0  0  0
  -29.7030  -15.6530   20.9070 N   0  0  0  0  0  0  0  0  0  0  0  0
  -28.8030  -15.3370   21.2340 H   0  0  0  0  0  0  0  0  0  0  0  0
  -25.1800  -13.8180   20.4960 C   0  0  0  0  0  0  0  0  0  0  0  0
  -24.1000  -13.0460   20.8370 C   0  0  0  0  0  0  0  0  0  0  0  0
  -24.5710  -11.6990   20.8620 C   0  0  0  0  0  0  0  0  0  0  0  0
  -26.2390  -12.9380   20.3410 N   0  0  0  0  0  0  0  0  0  0  0  0
  -25.8750  -11.6610   20.6150 N   0  0  0  0  0  0  0  0  0  0  0  0
  -23.8470  -10.4370   21.0490 C   0  0  0  0  0  0  0  0  0  0  0  0
  -24.2620   -9.4810   22.0010 C   0  0  0  0  0  3  0  0  0  0  0  0
  -23.5370   -8.2840   22.1770 C   0  0  0  0  0  3  0  0  0  0  0  0
  -22.3840   -8.0300   21.3990 C   0  0  0  0  0  0  0  0  0  0  0  0
  -21.9900   -8.9720   20.4320 C   0  0  0  0  0  3  0  0  0  0  0  0
  -22.7160  -10.1610   20.2560 C   0  0  0  0  0  3  0  0  0  0  0  0
  -21.6350   -6.8820   21.4810 O   0  0  0  0  0  0  0  0  0  0  0  0
  -21.5760   -6.1440   22.6350 C   0  0  0  0  0  0  0  0  0  0  0  0
  -21.1430   -6.7030   23.8560 C   0  0  0  0  0  3  0  0  0  0  0  0
  -21.0330   -5.8920   25.0030 C   0  0  0  0  0  3  0  0  0  0  0  0
  -21.3470   -4.5220   24.9300 C   0  0  0  0  0  0  0  0  0  0  0  0
  -21.7720   -3.9600   23.7120 C   0  0  0  0  0  3  0  0  0  0  0  0
  -21.8850   -4.7700   22.5680 C   0  0  0  0  0  0  0  0  0  0  0  0
  -22.2760   -4.2190   21.3930 F   0  0  0  0  0  0  0  0  0  0  0  0
  -21.2320   -3.7400   26.0290 F   0  0  0  0  0  0  0  0  0  0  0  0
  -22.6900  -13.5210   21.0350 C   0  0  0  0  0  0  0  0  0  0  0  0
  -21.9300  -12.8400   21.8890 N   0  0  0  0  0  0  0  0  0  0  0  0
  -22.2690  -14.5270   20.4720 O   0  0  0  0  0  0  0  0  0  0  0  0
  -22.2890  -12.0300   22.3720 H   0  0  0  0  0  0  0  0  0  0  0  0
  -20.9830  -13.1380   22.0710 H   0  0  0  0  0  0  0  0  0  0  0  0
  -25.3440  -15.1820   20.2880 N   0  0  0  0  0  0  0  0  0  0  0  0
  -24.5710  -15.8390   20.3430 H   0  0  0  0  0  0  0  0  0  0  0  0
  -26.1970  -15.6020   19.9450 H   0  0  0  0  0  0  0  0  0  0  0  0
  -27.9530  -24.0870   20.6780 C   0  0  0  0  0  2  0  0  0  0  0  0
  -28.3470  -25.5650   21.0890 C   0  0  0  0  0  2  0  0  0  0  0  0
  -28.2710  -26.6110   20.0850 O   0  0  0  0  0  0  0  0  0  0  0  0
  -24.5620  -31.8800   23.2320 C   0  0  0  0  0  0  0  0  0  0  0  0
  -27.1370  -27.4050   20.1190 C   0  0  0  0  0  0  0  0  0  0  0  0
  -23.3280  -30.4920   21.5980 C   0  0  0  0  0  3  0  0  0  0  0  0
  -24.7580  -28.9460   20.1520 C   0  0  0  0  0  0  0  0  0  0  0  0
  -25.8540  -30.8310   21.3710 C   0  0  0  0  0  2  0  0  0  0  0  0
  -25.9270  -29.4580   20.7300 C   0  0  0  0  0  0  0  0  0  0  0  0
  -27.1220  -28.6940   20.7130 C   0  0  0  0  0  3  0  0  0  0  0  0
  -25.9560  -26.9200   19.5240 C   0  0  0  0  0  3  0  0  0  0  0  0
  -24.7680  -27.6770   19.5450 C   0  0  0  0  0  3  0  0  0  0  0  0
  -23.5190  -29.8120   20.2150 C   0  0  0  0  0  2  0  0  0  0  0  0
  -24.6010  -31.0850   22.1240 N   0  0  0  0  0  0  0  0  0  0  0  0
  -23.4890  -32.1520   23.7900 O   0  0  0  0  0  0  0  0  0  0  0  0
  -22.6840  -29.4710   22.5650 C   0  0  0  0  0  0  0  0  0  0  0  0
  -21.3580  -29.2880   22.4530 N   0  0  0  0  0  0  0  0  0  0  0  0
  -23.3760  -28.8470   23.3740 O   0  0  0  0  0  0  0  0  0  0  0  0
  -20.8580  -29.8470   21.7750 H   0  0  0  0  0  0  0  0  0  0  0  0
  -17.9980  -28.0610   22.9680 C   0  0  0  0  0  0  0  0  0  0  0  0
  -20.5530  -28.3470   23.2320 C   0  0  0  0  0  3  0  0  0  0  0  0
  -20.6680  -26.9120   22.6670 C   0  0  0  0  0  2  0  0  0  0  0  0
  -19.5680  -26.5710   21.6570 C   0  0  0  0  0  2  0  0  0  0  0  0
  -18.1860  -26.7090   22.3010 C   0  0  0  0  0  2  0  0  0  0  0  0
  -19.1090  -28.8370   23.3910 C   0  0  0  0  0  0  0  0  0  0  0  0
  -18.8790  -30.1020   23.9740 C   0  0  0  0  0  3  0  0  0  0  0  0
  -17.5700  -30.5920   24.1390 C   0  0  0  0  0  3  0  0  0  0  0  0
  -16.4730  -29.8140   23.7300 C   0  0  0  0  0  3  0  0  0  0  0  0
  -16.6870  -28.5500   23.1500 C   0  0  0  0  0  3  0  0  0  0  0  0
  -25.8590  -32.5060   23.8350 C   0  0  0  0  0  3  0  0  0  0  0  0
  -25.5590  -33.9040   24.1760 N   0  0  0  0  0  0  0  0  0  0  0  0
  -25.8870  -34.9590   23.4190 C   0  0  0  0  0  0  0  0  0  0  0  0
  -26.5450  -34.8590   22.3780 O   0  0  0  0  0  0  0  0  0  0  0  0
  -24.9810  -34.0560   24.9890 H   0  0  0  0  0  0  0  0  0  0  0  0
  -24.1670  -36.7640   23.0870 C   0  0  0  0  0  1  0  0  0  0  0  0
  -25.4100  -36.3480   23.8880 C   0  0  0  0  0  3  0  0  0  0  0  0
  -27.5570  -37.2160   24.7060 C   0  0  0  0  0  1  0  0  0  0  0  0
  -26.4480  -37.3950   23.7730 N   0  0  0  0  0  0  0  0  0  0  0  0
  -26.0470  -38.3160   23.9320 H   0  0  0  0  0  0  0  0  0  0  0  0
  -26.3980  -31.7280   25.0990 C   0  0  1  0  0  0  0  0  0  0  0  0
  -25.3260  -31.4920   26.1890 C   0  0  0  0  0  1  0  0  0  0  0  0
  -26.9660  -30.3500   24.6910 C   0  0  0  0  0  1  0  0  0  0  0  0
  -27.5620  -32.5170   25.7450 C   0  0  0  0  0  1  0  0  0  0  0  0
  1  2  1  0
  2  4  2  0
  3  1  2  0
  3  6  1  0
  4  5  1  0
  6  7  2  0
  7  4  1  0
  9  8  1  0
  9 12  1  0
  9  3  1  0
 12 10  1  6
 11 12  1  0
 12 13  1  0
 13 22  1  0
 14 22  1  0
 15 20  1  0
 16 17  1  0
 16 15  1  0
 18 17  1  0
 18 27  1  0
 18 19  1  0
 20 14  1  0
 20 19  1  0
 21 14  2  0
 22 23  1  0
 24 25  2  0
 25 26  1  0
 25 44  1  0
 26 29  1  0
 27 24  1  0
 27 28  1  0
 28 26  2  0
 29 30  1  0
 30 31  2  0
 32 35  1  0
 32 31  1  0
 33 32  2  0
 34 33  1  0
 34 29  2  0
 35 36  1  0
 36 37  1  0
 37 38  2  0
 39 38  1  0
 39 43  1  0
 40 39  2  0
 41 36  2  0
 41 40  1  0
 42 41  1  0
 44 45  1  0
 45 48  1  0
 45 47  1  0
 46 44  2  0
 49 50  1  0
 49 24  1  0
 51 49  1  0
 52  2  1  0
 52 53  1  0
 54 56  1  0
 54 53  1  0
 55 66  2  0
 56 61  1  0
 57 65  1  0
 57 67  1  0
 58 64  1  0
 58 60  1  0
 59 65  1  0
 60 59  1  0
 61 60  2  0
 62 63  1  0
 62 56  2  0
 63 58  2  0
 64 57  1  0
 65 55  1  0
 67 69  2  0
 68 67  1  0
 70 68  1  0
 71 80  2  0
 71 76  1  0
 72 68  1  0
 72 76  1  0
 73 72  1  0
 74 75  1  0
 74 73  1  0
 75 71  1  0
 76 77  2  0
 77 78  1  0
 79 78  2  0
 80 79  1  0
 81 55  1  0
 81 82  1  0
 81 91  1  0
 82 85  1  0
 83 87  1  0
 83 82  1  0
 84 83  2  0
 87 86  1  0
 89 87  1  0
 89 90  1  0
 89 88  1  0
 91 94  1  1
 91 92  1  0
 93 91  1  0
M  ISO  4  14 100  22 100  53 101  54 101
M  END
>  <TORSDO>  (27) 
F 21

>  <SCORE>  (27) 
-13.326

>  <name>  (27) 
26

>  <ligand_id>  (27) 
26

>  <original_smiles>  (27) 
[H]c1c([H])c([H])c2c(c1[H])C([H])([H])C([H])([H])C([H])([H])C2([H])N([H])C(=O)C1([H])N(C(=O)C([H])(N([H])C(=O)C([H])(N([H])C([H])([H])[H])C([H])([H])[H])C(C([H])([H])[H])(C([H])([H])[H])C([H])([H])[H])C([H])([H])c2c([H])c(OC([H])([H])C([H])([H])c3c(C([H])([H])[H])nnc(C([H])(C([H])([H])[H])C(C([H])([H])[H])(C([H])([H])[H])C([H])([H])N([H])C(=O)N4C([H])([H])C([H])([H])C([H])([H])C([H])(n5nc(-c6c([H])c([H])c(Oc7c([H])c([H])c(F)c([H])c7F)c([H])c6[H])c(C(=O)N([H])[H])c5N([H])[H])C4([H])[H])c3[H])c([H])c([H])c2C1([H])[H]

>  <smiles>  (27) 
[H]c1c([H])c([H])c2c(c1[H])C([H])([H])C([H])([H])C([H])([H])C2([H])N([H])C(=O)C1([H])N(C(=O)C([H])(N([H])C(=O)C([H])(N([H])C([H])([H])[H])C([H])([H])[H])C(C([H])([H])[H])(C([H])([H])[H])C([H])([H])[H])C([H])([H])c2c([H])c(OC([H])([H])C([H])([H])c3c(C([H])([H])[H])nnc(C([H])(C([H])([H])[H])C(C([H])([H])[H])(C([H])([H])[H])C([H])([H])N([H])C(=O)N4C([H])([H])C([H])([H])C([H])([H])C([H])(n5nc(-c6c([H])c([H])c(Oc7c([H])c([H])c(F)c([H])c7F)c([H])c6[H])c(C(=O)N([H])[H])c5N([H])[H])C4([H])[H])c3[H])c([H])c([H])c2C1([H])[H]

$$$$
27:0:0
     RDKit          3D

 96104  0  0  1  0  0  0  0  0999 V2000
  -29.1770  -19.0490   19.4500 C   0  0  0  0  0  3  0  0  0  0  0  0
  -28.2140  -19.8410   18.7870 C   0  0  0  0  0  0  0  0  0  0  0  0
  -29.7840  -19.7510   20.4260 C   0  0  0  0  0  0  0  0  0  0  0  0
  -28.3480  -21.1300   19.3090 C   0  0  0  0  0  0  0  0  0  0  0  0
  -27.5780  -22.4010   19.0090 C   0  0  0  0  0  1  0  0  0  0  0  0
  -29.3800  -21.1460   20.2910 N   0  0  0  0  0  0  0  0  0  0  0  0
  -27.0350  -17.6980   18.1990 C   0  0  0  0  0  1  0  0  0  0  0  0
  -28.0370  -19.0490   16.3960 C   0  0  0  0  0  1  0  0  0  0  0  0
  -25.9160  -19.8400   17.6100 C   0  0  0  0  0  1  0  0  0  0  0  0
  -27.2960  -19.1540   17.7490 C   0  0  2  0  0  0  0  0  0  0  0  0
  -30.7820  -19.0180   21.3490 C   0  0  0  0  0  2  0  0  0  0  0  0
  -30.6780  -17.4440   21.8080 C   0  0  0  0  0  2  0  0  0  0  0  0
  -30.9040  -15.1030   20.6240 C   0  0  0  0  0  0  0  0  0  0  0  0
  -30.6860  -12.9730   19.3210 C   0  0  0  0  0  2  0  0  0  0  0  0
  -29.7360  -13.1370   18.1180 C   0  0  0  0  0  2  0  0  0  0  0  0
  -28.2640  -12.9330   18.5310 C   0  0  0  0  0  2  0  0  0  0  0  0
  -27.8870  -13.6640   19.8500 C   0  0  0  0  0  3  0  0  0  0  0  0
  -28.9630  -13.4650   20.9360 C   0  0  0  0  0  2  0  0  0  0  0  0
  -30.2410  -13.9170   20.3680 N   0  0  0  0  0  0  0  0  0  0  0  0
  -32.0960  -15.2110   20.3350 O   0  0  0  0  0  0  0  0  0  0  0  0
  -30.1770  -16.2100   21.0500 N   0  0  0  0  0  0  0  0  0  0  0  0
  -29.1830  -16.0460   21.1340 H   0  0  0  0  0  0  0  0  0  0  0  0
  -25.4630  -14.1320   20.5700 C   0  0  0  0  0  0  0  0  0  0  0  0
  -24.4220  -13.3200   20.8920 C   0  0  0  0  0  0  0  0  0  0  0  0
  -24.9370  -11.9900   20.8370 C   0  0  0  0  0  0  0  0  0  0  0  0
  -26.5460  -13.3070   20.3130 N   0  0  0  0  0  0  0  0  0  0  0  0
  -26.2330  -12.0090   20.5530 N   0  0  0  0  0  0  0  0  0  0  0  0
  -24.2540  -10.7070   21.0030 C   0  0  0  0  0  0  0  0  0  0  0  0
  -24.6390   -9.8020   22.0130 C   0  0  0  0  0  3  0  0  0  0  0  0
  -23.9550   -8.5800   22.1640 C   0  0  0  0  0  3  0  0  0  0  0  0
  -22.8730   -8.2590   21.3110 C   0  0  0  0  0  0  0  0  0  0  0  0
  -22.5090   -9.1560   20.2920 C   0  0  0  0  0  3  0  0  0  0  0  0
  -23.1920  -10.3740   20.1370 C   0  0  0  0  0  3  0  0  0  0  0  0
  -22.1650   -7.0810   21.3700 O   0  0  0  0  0  0  0  0  0  0  0  0
  -21.9660   -6.4210   22.5570 C   0  0  0  0  0  0  0  0  0  0  0  0
  -21.2950   -7.0250   23.6400 C   0  0  0  0  0  3  0  0  0  0  0  0
  -21.0550   -6.2870   24.8150 C   0  0  0  0  0  3  0  0  0  0  0  0
  -21.4710   -4.9410   24.9050 C   0  0  0  0  0  0  0  0  0  0  0  0
  -22.1380   -4.3410   23.8200 C   0  0  0  0  0  3  0  0  0  0  0  0
  -22.3800   -5.0760   22.6480 C   0  0  0  0  0  0  0  0  0  0  0  0
  -22.9980   -4.4840   21.5980 F   0  0  0  0  0  0  0  0  0  0  0  0
  -21.2290   -4.2330   26.0280 F   0  0  0  0  0  0  0  0  0  0  0  0
  -23.0030  -13.7470   21.1310 C   0  0  0  0  0  0  0  0  0  0  0  0
  -22.2830  -13.0360   21.9880 N   0  0  0  0  0  0  0  0  0  0  0  0
  -22.5390  -14.7440   20.5810 O   0  0  0  0  0  0  0  0  0  0  0  0
  -22.6670  -12.2350   22.4620 H   0  0  0  0  0  0  0  0  0  0  0  0
  -21.3230  -13.2920   22.1700 H   0  0  0  0  0  0  0  0  0  0  0  0
  -25.5670  -15.5060   20.4590 N   0  0  0  0  0  0  0  0  0  0  0  0
  -24.7230  -16.0680   20.4790 H   0  0  0  0  0  0  0  0  0  0  0  0
  -26.3290  -15.9430   19.9630 H   0  0  0  0  0  0  0  0  0  0  0  0
  -29.7950  -22.3730   21.1550 C   0  0  0  0  0  2  0  0  0  0  0  0
  -30.8290  -24.5460   21.9300 C   0  0  0  0  0  1  0  0  0  0  0  0
  -31.2020  -23.8910   19.5280 C   0  0  0  0  0  1  0  0  0  0  0  0
  -30.1540  -23.9510   20.6790 C   0  0  1  0  0  0  0  0  0  0  0  0
  -28.9980  -25.1130   20.3630 C   0  0  0  0  0  2  0  0  0  0  0  0
  -29.1230  -26.6310   20.6200 O   0  0  0  0  0  0  0  0  0  0  0  0
  -24.8550  -31.9990   23.3330 C   0  0  0  0  0  0  0  0  0  0  0  0
  -27.9810  -27.4960   20.5250 C   0  0  0  0  0  0  0  0  0  0  0  0
  -23.8820  -30.5200   21.6230 C   0  0  0  0  0  3  0  0  0  0  0  0
  -25.5360  -29.0470   20.3320 C   0  0  0  0  0  0  0  0  0  0  0  0
  -26.4190  -30.9600   21.6570 C   0  0  0  0  0  2  0  0  0  0  0  0
  -26.6350  -29.5800   21.0180 C   0  0  0  0  0  0  0  0  0  0  0  0
  -27.8600  -28.8220   21.0970 C   0  0  0  0  0  3  0  0  0  0  0  0
  -26.8370  -27.0400   19.8340 C   0  0  0  0  0  3  0  0  0  0  0  0
  -25.6460  -27.7870   19.7330 C   0  0  0  0  0  3  0  0  0  0  0  0
  -24.2530  -29.8580   20.2700 C   0  0  0  0  0  2  0  0  0  0  0  0
  -25.0660  -31.1830   22.2590 N   0  0  0  0  0  0  0  0  0  0  0  0
  -23.7140  -32.2110   23.7720 O   0  0  0  0  0  0  0  0  0  0  0  0
  -23.2040  -29.4670   22.5330 C   0  0  0  0  0  0  0  0  0  0  0  0
  -21.8960  -29.2340   22.3240 N   0  0  0  0  0  0  0  0  0  0  0  0
  -23.8560  -28.8710   23.3960 O   0  0  0  0  0  0  0  0  0  0  0  0
  -21.4280  -29.7720   21.6080 H   0  0  0  0  0  0  0  0  0  0  0  0
  -18.5280  -27.9580   22.7040 C   0  0  0  0  0  0  0  0  0  0  0  0
  -21.0760  -28.2530   23.0390 C   0  0  0  0  0  3  0  0  0  0  0  0
  -21.2140  -26.8440   22.4150 C   0  0  0  0  0  2  0  0  0  0  0  0
  -20.1400  -26.5420   21.3650 C   0  0  0  0  0  2  0  0  0  0  0  0
  -18.7420  -26.6390   21.9800 C   0  0  0  0  0  2  0  0  0  0  0  0
  -19.6230  -28.7230   23.1860 C   0  0  0  0  0  0  0  0  0  0  0  0
  -19.3680  -29.9560   23.8230 C   0  0  0  0  0  3  0  0  0  0  0  0
  -18.0520  -30.4270   23.9790 C   0  0  0  0  0  3  0  0  0  0  0  0
  -16.9700  -29.6610   23.5130 C   0  0  0  0  0  3  0  0  0  0  0  0
  -17.2080  -28.4290   22.8790 C   0  0  0  0  0  3  0  0  0  0  0  0
  -26.0300  -32.7210   24.0560 C   0  0  0  0  0  3  0  0  0  0  0  0
  -25.5980  -34.0960   24.3500 N   0  0  0  0  0  0  0  0  0  0  0  0
  -25.8910  -35.1670   23.6010 C   0  0  0  0  0  0  0  0  0  0  0  0
  -26.6180  -35.1060   22.6070 O   0  0  0  0  0  0  0  0  0  0  0  0
  -24.9500  -34.2080   25.1160 H   0  0  0  0  0  0  0  0  0  0  0  0
  -24.0450  -36.8200   23.1440 C   0  0  0  0  0  1  0  0  0  0  0  0
  -25.2750  -36.5180   24.0150 C   0  0  0  0  0  3  0  0  0  0  0  0
  -27.2970  -37.5730   24.9270 C   0  0  0  0  0  1  0  0  0  0  0  0
  -26.2260  -37.6480   23.9340 N   0  0  0  0  0  0  0  0  0  0  0  0
  -25.7470  -38.5360   24.0550 H   0  0  0  0  0  0  0  0  0  0  0  0
  -26.4860  -31.9930   25.3820 C   0  0  1  0  0  0  0  0  0  0  0  0
  -25.3160  -31.6110   26.3190 C   0  0  0  0  0  1  0  0  0  0  0  0
  -27.2660  -30.6990   25.0590 C   0  0  0  0  0  1  0  0  0  0  0  0
  -27.4560  -32.9050   26.1720 C   0  0  0  0  0  1  0  0  0  0  0  0
  1  3  2  0
  2  4  2  0
  2  1  1  0
  3 11  1  0
  4  6  1  0
  5  4  1  0
  6  3  1  0
  6 51  1  0
 10  8  1  6
  9 10  1  0
 10  7  1  0
 10  2  1  0
 11 12  1  0
 13 21  1  0
 14 19  1  0
 15 16  1  0
 15 14  1  0
 17 16  1  0
 17 26  1  0
 17 18  1  0
 19 13  1  0
 19 18  1  0
 20 13  2  0
 21 22  1  0
 21 12  1  0
 23 24  2  0
 24 43  1  0
 25 24  1  0
 25 28  1  0
 26 27  1  0
 26 23  1  0
 27 25  2  0
 28 29  1  0
 29 30  2  0
 31 34  1  0
 31 30  1  0
 32 31  2  0
 33 32  1  0
 33 28  2  0
 34 35  1  0
 35 40  2  0
 35 36  1  0
 36 37  2  0
 37 38  1  0
 38 42  1  0
 39 38  2  0
 40 39  1  0
 41 40  1  0
 43 44  1  0
 44 47  1  0
 44 46  1  0
 45 43  2  0
 48 49  1  0
 48 23  1  0
 50 48  1  0
 54 53  1  6
 54 51  1  0
 54 52  1  0
 55 56  1  0
 55 54  1  0
 57 68  2  0
 58 56  1  0
 58 63  1  0
 59 67  1  0
 59 69  1  0
 60 62  1  0
 61 67  1  0
 62 63  2  0
 62 61  1  0
 64 58  2  0
 65 64  1  0
 65 60  2  0
 66 60  1  0
 66 59  1  0
 67 57  1  0
 69 71  2  0
 70 69  1  0
 72 70  1  0
 73 82  2  0
 73 78  1  0
 74 70  1  0
 74 78  1  0
 75 74  1  0
 76 77  1  0
 76 75  1  0
 77 73  1  0
 78 79  2  0
 79 80  1  0
 81 80  2  0
 82 81  1  0
 83 57  1  0
 83 84  1  0
 83 93  1  0
 84 87  1  0
 85 89  1  0
 85 84  1  0
 86 85  2  0
 89 88  1  0
 91 89  1  0
 91 92  1  0
 91 90  1  0
 93 96  1  1
 93 94  1  0
 95 93  1  0
M  ISO  4  13 100  21 100  55 101  56 101
M  END
>  <TORSDO>  (28) 
F 22

>  <SCORE>  (28) 
-11.797

>  <name>  (28) 
27

>  <ligand_id>  (28) 
27

>  <original_smiles>  (28) 
[H]c1c([H])c([H])c2c(c1[H])C([H])([H])C([H])([H])C([H])([H])C2([H])N([H])C(=O)C1([H])N(C(=O)C([H])(N([H])C(=O)C([H])(N([H])C([H])([H])[H])C([H])([H])[H])C(C([H])([H])[H])(C([H])([H])[H])C([H])([H])[H])C([H])([H])c2c([H])c(OC([H])([H])C(C([H])([H])[H])(C([H])([H])[H])C([H])([H])n3c(C([H])([H])[H])c(C(C([H])([H])[H])(C([H])([H])[H])C([H])([H])[H])c([H])c3C([H])([H])C([H])([H])N([H])C(=O)N3C([H])([H])C([H])([H])C([H])([H])C([H])(n4nc(-c5c([H])c([H])c(Oc6c([H])c([H])c(F)c([H])c6F)c([H])c5[H])c(C(=O)N([H])[H])c4N([H])[H])C3([H])[H])c([H])c([H])c2C1([H])[H]

>  <smiles>  (28) 
[H]c1c([H])c([H])c2c(c1[H])C([H])([H])C([H])([H])C([H])([H])C2([H])N([H])C(=O)C1([H])N(C(=O)C([H])(N([H])C(=O)C([H])(N([H])C([H])([H])[H])C([H])([H])[H])C(C([H])([H])[H])(C([H])([H])[H])C([H])([H])[H])C([H])([H])c2c([H])c(OC([H])([H])C(C([H])([H])[H])(C([H])([H])[H])C([H])([H])n3c(C([H])([H])[H])c(C(C([H])([H])[H])(C([H])([H])[H])C([H])([H])[H])c([H])c3C([H])([H])C([H])([H])N([H])C(=O)N3C([H])([H])C([H])([H])C([H])([H])C([H])(n4nc(-c5c([H])c([H])c(Oc6c([H])c([H])c(F)c([H])c6F)c([H])c5[H])c(C(=O)N([H])[H])c4N([H])[H])C3([H])[H])c([H])c([H])c2C1([H])[H]

$$$$
28:0:0
     RDKit          3D

 93 90  0  0  1  0  0  0  0  0999 V2000
  -25.0460  -15.6230   21.5130 C   0  0  0  0  0 15  0  0  0  0  0  0
  -26.5020  -13.7910   18.4710 C   0  0  0  0  0 15  0  0  0  0  0  0
  -25.7030  -15.7880   19.4050 C   0  0  0  0  0 15  0  0  0  0  0  0
  -25.5010  -13.8220   22.6910 C   0  0  0  0  0  1  0  0  0  0  0  0
  -26.8760  -11.8170   19.8280 C   0  0  0  0  0  2  0  0  0  0  0  0
  -25.1740  -13.7830   24.1640 C   0  0  0  0  0  1  0  0  0  0  0  0
  -26.3920  -12.0810   21.9330 N   0  0  0  0  0 15  0  0  0  0  0  0
  -26.9670   -9.3120   20.2140 C   0  0  0  0  0  1  0  0  0  0  0  0
  -27.8260  -10.5430   19.8870 C   0  0  0  0  0  3  0  0  0  0  0  0
  -29.2270  -10.4680   20.8340 C   0  0  0  0  0  2  0  0  0  0  0  0
  -29.9300  -11.3540   22.0590 C   0  0  0  0  0  2  0  0  0  0  0  0
  -31.5070  -13.2890   21.1170 C   0  0  0  0  0  0  0  0  0  0  0  0
  -31.1700  -12.1480   19.2030 C   0  0  0  0  0  2  0  0  0  0  0  0
  -30.1340  -11.7440   18.2160 C   0  0  0  0  0  3  0  0  0  0  0  0
  -28.7950  -12.4650   18.3360 C   0  0  0  0  0  3  0  0  0  0  0  0
  -28.4530  -13.4670   19.5590 C   0  0  0  0  0  0  0  0  0  0  0  0
  -29.4920  -13.7070   20.5250 C   0  0  0  0  0  3  0  0  0  0  0  0
  -30.7000  -13.0840   20.1980 N   0  0  0  0  0  0  0  0  0  0  0  0
  -32.4030  -14.1340   20.9380 O   0  0  0  0  0  0  0  0  0  0  0  0
  -31.2350  -12.2430   21.9870 N   0  0  0  0  0  0  0  0  0  0  0  0
  -31.9000  -12.1170   22.7380 H   0  0  0  0  0  0  0  0  0  0  0  0
  -26.3510  -13.9730   20.6730 C   0  0  0  0  0  0  0  0  0  0  0  0
  -24.5870  -13.4290   20.4550 C   0  0  0  0  0  0  0  0  0  0  0  0
  -24.3910  -12.1340   20.2680 C   0  0  0  0  0  2  0  0  0  0  0  0
  -27.2500  -13.5480   20.5610 N   0  0  0  0  0  0  0  0  0  0  0  0
  -25.3670  -13.3050   20.4640 N   0  0  0  0  0  2  0  0  0  0  0  0
  -23.9110  -10.6910   20.8000 C   0  0  0  0  0  3  0  0  0  0  0  0
  -24.2710   -9.7610   21.8620 C   0  0  0  0  0  3  0  0  0  0  0  0
  -23.5940   -8.5120   22.0920 C   0  0  0  0  0  3  0  0  0  0  0  0
  -22.4820   -8.1390   21.2990 C   0  0  0  0  0  0  0  0  0  0  0  0
  -22.1520   -8.9980   20.2410 C   0  0  0  0  0  3  0  0  0  0  0  0
  -22.8540  -10.2000   20.0000 C   0  0  0  0  0  3  0  0  0  0  0  0
  -21.7160   -6.9880   21.4160 O   0  0  0  0  0  0  0  0  0  0  0  0
  -21.5480   -6.2830   22.5890 C   0  0  0  0  0  0  0  0  0  0  0  0
  -21.0670   -6.8840   23.7740 C   0  0  0  0  0  3  0  0  0  0  0  0
  -20.8590   -6.1040   24.9320 C   0  0  0  0  0  3  0  0  0  0  0  0
  -21.1190   -4.7200   24.9090 C   0  0  0  0  0  0  0  0  0  0  0  0
  -21.5700   -4.1120   23.7250 C   0  0  0  0  0  3  0  0  0  0  0  0
  -21.7730   -4.8890   22.5690 C   0  0  0  0  0  0  0  0  0  0  0  0
  -22.1790   -4.2830   21.4280 F   0  0  0  0  0  0  0  0  0  0  0  0
  -20.9330   -3.9720   26.0240 F   0  0  0  0  0  0  0  0  0  0  0  0
  -23.0280  -13.8890   20.6330 C   0  0  0  0  0  0  0  0  0  0  0  0
  -22.2850  -13.2530   21.5600 N   0  0  0  0  0  0  0  0  0  0  0  0
  -22.5450  -14.7260   19.8930 O   0  0  0  0  0  0  0  0  0  0  0  0
  -22.6990  -12.5520   22.1560 H   0  0  0  0  0  0  0  0  0  0  0  0
  -21.3120  -13.4960   21.6860 H   0  0  0  0  0  0  0  0  0  0  0  0
  -27.2890  -15.0650   21.0750 N   0  0  0  0  0  4  0  0  0  0  0  0
  -26.5270  -15.6210   21.4670 H   0  0  0  0  0  0  0  0  0  0  0  0
  -27.6200  -15.5290   20.2440 H   0  0  0  0  0  0  0  0  0  0  0  0
  -26.1150  -17.8410   18.8490 C   0  0  0  0  0 15  0  0  0  0  0  0
  -27.1470  -19.8890   19.0190 C   0  0  0  0  0 15  0  0  0  0  0  0
  -27.2740  -22.1770   18.7810 C   0  0  0  0  0 15  0  0  0  0  0  0
  -28.1320  -24.0460   18.9580 O   0  0  0  0  0  1  0  0  0  0  0  0
  -25.8360  -30.8010   22.9420 C   0  0  0  0  0  0  0  0  0  0  0  0
  -27.7660  -25.6790   19.1490 C   0  0  0  0  0  0  0  0  0  0  0  0
  -24.6870  -29.7360   21.0760 C   0  0  0  0  0  3  0  0  0  0  0  0
  -26.0620  -28.2760   19.3920 C   0  0  0  0  0  0  0  0  0  0  0  0
  -27.2670  -29.5880   21.0940 C   0  0  0  0  0  2  0  0  0  0  0  0
  -27.2150  -28.2500   20.1720 C   0  0  0  0  0  0  0  0  0  0  0  0
  -28.0740  -26.9750   20.0240 C   0  0  0  0  0  3  0  0  0  0  0  0
  -26.7730  -26.1430   18.2780 C   0  0  0  0  0  3  0  0  0  0  0  0
  -25.9370  -27.2850   18.4130 C   0  0  0  0  0  3  0  0  0  0  0  0
  -24.9610  -29.3290   19.6010 C   0  0  0  0  0  2  0  0  0  0  0  0
  -25.9680  -30.0890   21.7590 N   0  0  0  0  0  0  0  0  0  0  0  0
  -24.7210  -31.0540   23.4410 O   0  0  0  0  0  0  0  0  0  0  0  0
  -23.9240  -28.6120   21.8330 C   0  0  0  0  0  0  0  0  0  0  0  0
  -22.5870  -28.5330   21.6860 N   0  0  0  0  0  0  0  0  0  0  0  0
  -24.5500  -27.8210   22.5420 O   0  0  0  0  0  0  0  0  0  0  0  0
  -22.1270  -29.2240   21.1090 H   0  0  0  0  0  0  0  0  0  0  0  0
  -19.1620  -27.3590   22.0050 C   0  0  0  0  0  0  0  0  0  0  0  0
  -21.7330  -27.4910   22.2720 C   0  0  0  0  0  3  0  0  0  0  0  0
  -21.7780  -26.1970   21.4260 C   0  0  0  0  0  2  0  0  0  0  0  0
  -20.6590  -26.1210   20.3840 C   0  0  0  0  0  2  0  0  0  0  0  0
  -19.2890  -26.1730   21.0630 C   0  0  0  0  0  2  0  0  0  0  0  0
  -20.3090  -27.9880   22.5610 C   0  0  0  0  0  0  0  0  0  0  0  0
  -20.1320  -29.1020   23.4090 C   0  0  0  0  0  3  0  0  0  0  0  0
  -18.8440  -29.5870   23.7020 C   0  0  0  0  0  3  0  0  0  0  0  0
  -17.7120  -28.9550   23.1570 C   0  0  0  0  0  3  0  0  0  0  0  0
  -17.8730  -27.8410   22.3150 C   0  0  0  0  0  3  0  0  0  0  0  0
  -27.0590  -31.3510   23.7350 C   0  0  0  0  0  3  0  0  0  0  0  0
  -26.6260  -32.5390   24.5080 N   0  0  0  0  0  0  0  0  0  0  0  0
  -26.9210  -33.8160   24.2250 C   0  0  0  0  0  0  0  0  0  0  0  0
  -27.6420  -34.1270   23.2730 O   0  0  0  0  0  0  0  0  0  0  0  0
  -25.9820  -32.3630   25.2660 H   0  0  0  0  0  0  0  0  0  0  0  0
  -25.1160  -35.5660   24.4550 C   0  0  0  0  0  1  0  0  0  0  0  0
  -26.3370  -34.9230   25.1330 C   0  0  0  0  0  3  0  0  0  0  0  0
  -28.3640  -35.5230   26.3880 C   0  0  0  0  0  1  0  0  0  0  0  0
  -27.3110  -35.9800   25.4860 N   0  0  0  0  0  0  0  0  0  0  0  0
  -26.8430  -36.7710   25.9190 H   0  0  0  0  0  0  0  0  0  0  0  0
  -27.6730  -30.2890   24.7310 C   0  0  1  0  0  0  0  0  0  0  0  0
  -26.6370  -29.6580   25.6940 C   0  0  0  0  0  1  0  0  0  0  0  0
  -28.3520  -29.1310   23.9720 C   0  0  0  0  0  1  0  0  0  0  0  0
  -28.7820  -30.9510   25.5850 C   0  0  0  0  0  1  0  0  0  0  0  0
  4  6  1  0
  5  9  1  0
  5 25  1  0
  9  8  1  0
  9 10  1  0
 10 11  1  0
 12 20  1  0
 13 18  1  0
 14 15  2  0
 14 13  1  0
 15 16  1  0
 16 17  2  0
 16 25  1  0
 18 17  1  0
 18 12  1  0
 19 12  2  0
 20 11  1  0
 20 21  1  0
 22 47  2  0
 23 26  1  0
 23 42  1  0
 24 23  2  0
 25 22  1  0
 26 22  1  0
 27 28  1  0
 28 29  2  0
 30 33  1  0
 30 29  1  0
 31 30  2  0
 32 31  1  0
 32 27  2  0
 33 34  1  0
 34 35  1  0
 35 36  2  0
 37 36  1  0
 37 41  1  0
 38 37  2  0
 39 34  2  0
 39 38  1  0
 40 39  1  0
 42 43  1  0
 43 46  1  0
 43 45  1  0
 44 42  2  0
 47 48  1  0
 49 47  1  0
 53 55  1  0
 54 65  2  0
 55 60  1  0
 56 64  1  0
 56 66  1  0
 57 63  1  0
 57 59  1  0
 58 64  1  0
 59 58  1  0
 60 59  2  0
 61 62  1  0
 61 55  2  0
 62 57  2  0
 63 56  1  0
 64 54  1  0
 66 68  2  0
 67 66  1  0
 69 67  1  0
 70 79  2  0
 70 75  1  0
 71 67  1  0
 71 75  1  0
 72 71  1  0
 73 74  1  0
 73 72  1  0
 74 70  1  0
 75 76  2  0
 76 77  1  0
 78 77  2  0
 79 78  1  0
 80 54  1  0
 80 81  1  0
 80 90  1  0
 81 84  1  0
 82 81  1  0
 82 86  1  0
 83 82  2  0
 86 85  1  0
 86 88  1  0
 88 89  1  0
 88 87  1  0
 90 93  1  1
 90 91  1  0
 92 90  1  0
M  ISO  4  12 100  20 100  52 101  53 101
M  END
>  <TORSDO>  (29) 
F 22

>  <SCORE>  (29) 
-2.142

>  <name>  (29) 
28

>  <ligand_id>  (29) 
28

>  <original_smiles>  (29) 
[H]c1c([H])c([H])c2c(c1[H])C([H])([H])C([H])([H])C([H])([H])C2([H])N([H])C(=O)C1([H])N(C(=O)C([H])(N([H])C(=O)C([H])(N([H])C([H])([H])[H])C([H])([H])[H])C(C([H])([H])[H])(C([H])([H])[H])C([H])([H])[H])C([H])([H])c2c([H])c(OC([H])([H])C([H])([H])C([H])([H])c3c([H])c(C([H])([H])[H])nc(C([H])(C([H])([H])[H])C([H])([H])C([H])([H])N([H])C(=O)N4C([H])([H])C([H])([H])C([H])([H])C([H])(n5nc(-c6c([H])c([H])c(Oc7c([H])c([H])c(F)c([H])c7F)c([H])c6[H])c(C(=O)N([H])[H])c5N([H])[H])C4([H])[H])c3[H])c([H])c([H])c2C1([H])[H]

>  <smiles>  (29) 
[H]c1c([H])c([H])c2c(c1[H])C([H])([H])C([H])([H])C([H])([H])C2([H])N([H])C(=O)C1([H])N(C(=O)C([H])(N([H])C(=O)C([H])(N([H])C([H])([H])[H])C([H])([H])[H])C(C([H])([H])[H])(C([H])([H])[H])C([H])([H])[H])C([H])([H])c2c([H])c(OC([H])([H])C([H])([H])C([H])([H])c3c([H])c(C([H])([H])[H])nc(C([H])(C([H])([H])[H])C([H])([H])C([H])([H])N([H])C(=O)N4C([H])([H])C([H])([H])C([H])([H])C([H])(n5nc(-c6c([H])c([H])c(Oc7c([H])c([H])c(F)c([H])c7F)c([H])c6[H])c(C(=O)N([H])[H])c5N([H])[H])C4([H])[H])c3[H])c([H])c([H])c2C1([H])[H]

$$$$
29:0:0
     RDKit          3D

 94102  0  0  1  0  0  0  0  0999 V2000
  -29.8150  -21.7390   21.2750 C   0  0  0  0  0  3  0  0  0  0  0  0
  -29.0230  -20.8710   18.8680 C   0  0  0  0  0  3  0  0  0  0  0  0
  -29.4410  -22.7020   20.2830 C   0  0  0  0  0  0  0  0  0  0  0  0
  -29.3860  -19.9090   19.8660 C   0  0  0  0  0  0  0  0  0  0  0  0
  -29.0550  -22.2280   19.0660 N   0  0  0  0  0  0  0  0  0  0  0  0
  -29.7940  -20.3850   21.0750 N   0  0  0  0  0  0  0  0  0  0  0  0
  -30.7500  -24.7290   19.5230 C   0  0  0  0  0  1  0  0  0  0  0  0
  -30.0620  -24.6060   21.9070 C   0  0  0  0  0  1  0  0  0  0  0  0
  -29.6180  -24.2720   20.4650 C   0  0  2  0  0  0  0  0  0  0  0  0
  -28.3420  -25.1720   20.1640 C   0  0  0  0  0  2  0  0  0  0  0  0
  -28.4950  -26.6340   20.3450 O   0  0  0  0  0  0  0  0  0  0  0  0
  -24.6530  -31.9300   23.3630 C   0  0  0  0  0  0  0  0  0  0  0  0
  -27.3520  -27.4410   20.2990 C   0  0  0  0  0  0  0  0  0  0  0  0
  -23.4840  -30.5450   21.6840 C   0  0  0  0  0  3  0  0  0  0  0  0
  -24.9700  -29.0190   20.2710 C   0  0  0  0  0  0  0  0  0  0  0  0
  -26.0230  -30.8860   21.5470 C   0  0  0  0  0  2  0  0  0  0  0  0
  -26.1230  -29.5170   20.8880 C   0  0  0  0  0  0  0  0  0  0  0  0
  -27.3180  -28.7410   20.8910 C   0  0  0  0  0  3  0  0  0  0  0  0
  -26.1710  -26.9880   19.6670 C   0  0  0  0  0  3  0  0  0  0  0  0
  -24.9940  -27.7600   19.6520 C   0  0  0  0  0  3  0  0  0  0  0  0
  -23.7260  -29.8830   20.3020 C   0  0  0  0  0  2  0  0  0  0  0  0
  -24.7370  -31.1370   22.2550 N   0  0  0  0  0  0  0  0  0  0  0  0
  -23.5590  -32.1950   23.8820 O   0  0  0  0  0  0  0  0  0  0  0  0
  -22.8120  -29.5130   22.6210 C   0  0  0  0  0  0  0  0  0  0  0  0
  -21.4900  -29.3300   22.4670 N   0  0  0  0  0  0  0  0  0  0  0  0
  -23.4790  -28.8820   23.4440 O   0  0  0  0  0  0  0  0  0  0  0  0
  -21.0120  -29.8920   21.7750 H   0  0  0  0  0  0  0  0  0  0  0  0
  -18.1040  -28.1410   22.9120 C   0  0  0  0  0  0  0  0  0  0  0  0
  -20.6600  -28.3820   23.2110 C   0  0  0  0  0  3  0  0  0  0  0  0
  -20.7610  -26.9610   22.6080 C   0  0  0  0  0  2  0  0  0  0  0  0
  -19.6680  -26.6650   21.5780 C   0  0  0  0  0  2  0  0  0  0  0  0
  -18.2810  -26.8040   22.2110 C   0  0  0  0  0  2  0  0  0  0  0  0
  -19.2210  -28.8890   23.3670 C   0  0  0  0  0  0  0  0  0  0  0  0
  -19.0030  -30.1420   23.9810 C   0  0  0  0  0  3  0  0  0  0  0  0
  -17.7000  -30.6460   24.1440 C   0  0  0  0  0  3  0  0  0  0  0  0
  -16.5960  -29.8940   23.7050 C   0  0  0  0  0  3  0  0  0  0  0  0
  -16.7980  -28.6440   23.0950 C   0  0  0  0  0  3  0  0  0  0  0  0
  -25.9210  -32.5610   24.0140 C   0  0  0  0  0  3  0  0  0  0  0  0
  -26.3970  -31.7980   25.3110 C   0  0  1  0  0  0  0  0  0  0  0  0
  -25.2680  -31.5610   26.3410 C   0  0  0  0  0  1  0  0  0  0  0  0
  -26.9990  -30.4210   24.9470 C   0  0  0  0  0  1  0  0  0  0  0  0
  -27.5210  -32.6000   26.0080 C   0  0  0  0  0  1  0  0  0  0  0  0
  -25.6110  -33.9640   24.3230 N   0  0  0  0  0  0  0  0  0  0  0  0
  -25.9420  -35.0050   23.5490 C   0  0  0  0  0  0  0  0  0  0  0  0
  -26.6120  -34.8880   22.5190 O   0  0  0  0  0  0  0  0  0  0  0  0
  -25.0140  -34.1290   25.1210 H   0  0  0  0  0  0  0  0  0  0  0  0
  -24.2000  -36.7840   23.1830 C   0  0  0  0  0  1  0  0  0  0  0  0
  -25.4540  -36.4000   23.9860 C   0  0  0  0  0  3  0  0  0  0  0  0
  -27.5900  -37.3160   24.7760 C   0  0  0  0  0  1  0  0  0  0  0  0
  -26.4790  -37.4560   23.8390 N   0  0  0  0  0  0  0  0  0  0  0  0
  -26.0700  -38.3780   23.9680 H   0  0  0  0  0  0  0  0  0  0  0  0
  -28.5360  -18.0290   18.3320 C   0  0  0  0  0  1  0  0  0  0  0  0
  -28.1820  -17.8770   20.7720 C   0  0  0  0  0  1  0  0  0  0  0  0
  -29.1950  -18.3340   19.7000 C   0  0  2  0  0  0  0  0  0  0  0  0
  -31.4340  -17.6300   18.6050 C   0  0  0  0  0  1  0  0  0  0  0  0
  -30.5010  -17.4050   19.8160 C   0  0  0  0  0  3  0  0  0  0  0  0
  -30.9940  -14.8110   19.9080 C   0  0  0  0  0  0  0  0  0  0  0  0
  -30.7410  -12.4970   19.0490 C   0  0  0  0  0  2  0  0  0  0  0  0
  -29.7650  -12.5230   17.8540 C   0  0  0  0  0  2  0  0  0  0  0  0
  -28.3080  -12.3900   18.3380 C   0  0  0  0  0  2  0  0  0  0  0  0
  -27.9760  -13.3510   19.5110 C   0  0  0  0  0  3  0  0  0  0  0  0
  -29.0690  -13.3140   20.6030 C   0  0  0  0  0  2  0  0  0  0  0  0
  -30.3540  -13.6000   19.9510 N   0  0  0  0  0  0  0  0  0  0  0  0
  -32.1670  -14.8890   19.5440 O   0  0  0  0  0  0  0  0  0  0  0  0
  -30.2130  -15.9290   20.0560 N   0  0  0  0  0  0  0  0  0  0  0  0
  -29.2670  -15.7300   20.3390 H   0  0  0  0  0  0  0  0  0  0  0  0
  -25.6420  -14.0000   20.3660 C   0  0  0  0  0  0  0  0  0  0  0  0
  -24.5730  -13.2490   20.7710 C   0  0  0  0  0  0  0  0  0  0  0  0
  -24.9920  -11.8860   20.6850 C   0  0  0  0  0  0  0  0  0  0  0  0
  -26.6470  -13.0960   20.0590 N   0  0  0  0  0  0  0  0  0  0  0  0
  -26.2640  -11.8180   20.3120 N   0  0  0  0  0  0  0  0  0  0  0  0
  -24.2370  -10.6410   20.8810 C   0  0  0  0  0  0  0  0  0  0  0  0
  -24.6370   -9.6750   21.8300 C   0  0  0  0  0  3  0  0  0  0  0  0
  -23.8830   -8.4960   22.0130 C   0  0  0  0  0  3  0  0  0  0  0  0
  -22.7150   -8.2740   21.2460 C   0  0  0  0  0  0  0  0  0  0  0  0
  -22.3340   -9.2280   20.2860 C   0  0  0  0  0  3  0  0  0  0  0  0
  -23.0880  -10.3990   20.1020 C   0  0  0  0  0  3  0  0  0  0  0  0
  -21.9360   -7.1460   21.3370 O   0  0  0  0  0  0  0  0  0  0  0  0
  -21.7780   -6.4740   22.5210 C   0  0  0  0  0  0  0  0  0  0  0  0
  -21.2570   -7.1030   23.6730 C   0  0  0  0  0  3  0  0  0  0  0  0
  -21.0470   -6.3580   24.8500 C   0  0  0  0  0  3  0  0  0  0  0  0
  -21.3480   -4.9830   24.8770 C   0  0  0  0  0  0  0  0  0  0  0  0
  -21.8630   -4.3530   23.7300 C   0  0  0  0  0  3  0  0  0  0  0  0
  -22.0740   -5.0960   22.5550 C   0  0  0  0  0  0  0  0  0  0  0  0
  -22.5500   -4.4790   21.4470 F   0  0  0  0  0  0  0  0  0  0  0  0
  -21.1400   -4.2650   26.0040 F   0  0  0  0  0  0  0  0  0  0  0  0
  -23.2050  -13.7590   21.1200 C   0  0  0  0  0  0  0  0  0  0  0  0
  -22.5040  -13.0710   22.0140 N   0  0  0  0  0  0  0  0  0  0  0  0
  -22.7700  -14.8050   20.6370 O   0  0  0  0  0  0  0  0  0  0  0  0
  -22.8710  -12.2250   22.4250 H   0  0  0  0  0  0  0  0  0  0  0  0
  -21.5890  -13.3940   22.2940 H   0  0  0  0  0  0  0  0  0  0  0  0
  -25.8350  -15.3690   20.2130 N   0  0  0  0  0  0  0  0  0  0  0  0
  -25.0840  -16.0310   20.3690 H   0  0  0  0  0  0  0  0  0  0  0  0
  -26.6590  -15.7940   19.8130 H   0  0  0  0  0  0  0  0  0  0  0  0
  2  5  2  0
  2  4  1  0
  3  9  1  0
  3  1  2  0
  4  6  2  0
  5  3  1  0
  6  1  1  0
  9  7  1  6
  9  8  1  0
 10 11  1  0
 10  9  1  0
 12 23  2  0
 13 11  1  0
 13 18  1  0
 14 22  1  0
 14 24  1  0
 15 21  1  0
 15 17  1  0
 16 22  1  0
 17 18  2  0
 17 16  1  0
 19 13  2  0
 20 19  1  0
 20 15  2  0
 21 14  1  0
 22 12  1  0
 24 26  2  0
 25 24  1  0
 27 25  1  0
 28 37  2  0
 28 33  1  0
 29 25  1  0
 29 33  1  0
 30 29  1  0
 31 32  1  0
 31 30  1  0
 32 28  1  0
 33 34  2  0
 34 35  1  0
 36 35  2  0
 37 36  1  0
 38 12  1  0
 38 43  1  0
 38 39  1  0
 39 42  1  1
 39 40  1  0
 41 39  1  0
 43 46  1  0
 44 48  1  0
 44 43  1  0
 45 44  2  0
 48 47  1  0
 50 51  1  0
 50 48  1  0
 50 49  1  0
 54 52  1  6
 54 56  1  0
 54  4  1  0
 54 53  1  0
 56 55  1  0
 56 65  1  0
 57 63  1  0
 57 65  1  0
 58 63  1  0
 59 60  1  0
 59 58  1  0
 61 60  1  0
 61 70  1  0
 61 62  1  0
 63 62  1  0
 64 57  2  0
 65 66  1  0
 67 68  2  0
 68 87  1  0
 69 68  1  0
 69 72  1  0
 70 71  1  0
 70 67  1  0
 71 69  2  0
 72 73  1  0
 73 74  2  0
 75 78  1  0
 75 74  1  0
 76 75  2  0
 77 76  1  0
 77 72  2  0
 78 79  1  0
 79 84  2  0
 79 80  1  0
 80 81  2  0
 81 82  1  0
 82 86  1  0
 83 82  2  0
 84 83  1  0
 85 84  1  0
 87 88  1  0
 88 91  1  0
 88 90  1  0
 89 87  2  0
 92 67  1  0
 92 93  1  0
 94 92  1  0
M  ISO  4  10 101  11 101  57 100  65 100
M  END
>  <TORSDO>  (30) 
F 20

>  <SCORE>  (30) 
-13.745

>  <name>  (30) 
29

>  <ligand_id>  (30) 
29

>  <original_smiles>  (30) 
[H]c1nc(C(C([H])([H])[H])(C([H])([H])[H])C([H])(N([H])C(=O)N2C([H])([H])C([H])([H])C([H])([H])C([H])(n3nc(-c4c([H])c([H])c(Oc5c([H])c([H])c(F)c([H])c5F)c([H])c4[H])c(C(=O)N([H])[H])c3N([H])[H])C2([H])[H])C([H])([H])[H])c([H])nc1C(C([H])([H])[H])(C([H])([H])[H])C([H])([H])Oc1c([H])c([H])c2c(c1[H])C([H])([H])N(C(=O)C([H])(N([H])C(=O)C([H])(N([H])C([H])([H])[H])C([H])([H])[H])C(C([H])([H])[H])(C([H])([H])[H])C([H])([H])[H])C([H])(C(=O)N([H])C1([H])c3c([H])c([H])c([H])c([H])c3C([H])([H])C([H])([H])C1([H])[H])C2([H])[H]

>  <smiles>  (30) 
[H]c1nc(C(C([H])([H])[H])(C([H])([H])[H])C([H])(N([H])C(=O)N2C([H])([H])C([H])([H])C([H])([H])C([H])(n3nc(-c4c([H])c([H])c(Oc5c([H])c([H])c(F)c([H])c5F)c([H])c4[H])c(C(=O)N([H])[H])c3N([H])[H])C2([H])[H])C([H])([H])[H])c([H])nc1C(C([H])([H])[H])(C([H])([H])[H])C([H])([H])Oc1c([H])c([H])c2c(c1[H])C([H])([H])N(C(=O)C([H])(N([H])C(=O)C([H])(N([H])C([H])([H])[H])C([H])([H])[H])C(C([H])([H])[H])(C([H])([H])[H])C([H])([H])[H])C([H])(C(=O)N([H])C1([H])c3c([H])c([H])c([H])c([H])c3C([H])([H])C([H])([H])C1([H])[H])C2([H])[H]

$$$$
30:0:0
     RDKit          3D

 95103  0  0  1  0  0  0  0  0999 V2000
  -29.3900  -20.0710   19.2830 C   0  0  0  0  0  0  0  0  0  0  0  0
  -29.5810  -21.2550   20.0670 C   0  0  0  0  0  0  0  0  0  0  0  0
  -31.0570  -20.0070   21.4030 C   0  0  0  0  0  0  0  0  0  0  0  0
  -30.8590  -18.8080   20.6270 C   0  0  0  0  0  0  0  0  0  0  0  0
  -30.4210  -21.1850   21.1230 N   0  0  0  0  0  0  0  0  0  0  0  0
  -30.0220  -18.8820   19.5570 N   0  0  0  0  0  0  0  0  0  0  0  0
  -33.1420  -17.8470   20.1900 C   0  0  0  0  0  1  0  0  0  0  0  0
  -31.7500  -17.5090   20.7620 C   0  0  0  0  0  3  0  0  0  0  0  0
  -31.8740  -14.9530   20.1090 C   0  0  0  0  0  0  0  0  0  0  0  0
  -31.5270  -12.6050   19.3470 C   0  0  0  0  0  2  0  0  0  0  0  0
  -30.6350  -12.5880   18.0890 C   0  0  0  0  0  2  0  0  0  0  0  0
  -29.1440  -12.5590   18.4810 C   0  0  0  0  0  2  0  0  0  0  0  0
  -28.7910  -13.6220   19.5560 C   0  0  0  0  0  3  0  0  0  0  0  0
  -29.8050  -13.6100   20.7200 C   0  0  0  0  0  2  0  0  0  0  0  0
  -31.1420  -13.7930   20.1390 N   0  0  0  0  0  0  0  0  0  0  0  0
  -33.0490  -14.9280   19.7390 O   0  0  0  0  0  0  0  0  0  0  0  0
  -31.2250  -16.1350   20.3760 N   0  0  0  0  0  0  0  0  0  0  0  0
  -30.2320  -16.0300   20.5180 H   0  0  0  0  0  0  0  0  0  0  0  0
  -26.4600  -14.4550   20.2350 C   0  0  0  0  0  0  0  0  0  0  0  0
  -25.3200  -13.7930   20.5990 C   0  0  0  0  0  0  0  0  0  0  0  0
  -25.6510  -12.4030   20.5930 C   0  0  0  0  0  0  0  0  0  0  0  0
  -27.4170  -13.4760   20.0270 N   0  0  0  0  0  0  0  0  0  0  0  0
  -26.9360  -12.2360   20.3030 N   0  0  0  0  0  0  0  0  0  0  0  0
  -24.8040  -11.2180   20.7860 C   0  0  0  0  0  0  0  0  0  0  0  0
  -25.0950  -10.2540   21.7770 C   0  0  0  0  0  3  0  0  0  0  0  0
  -24.2520   -9.1370   21.9580 C   0  0  0  0  0  3  0  0  0  0  0  0
  -23.1040   -8.9750   21.1490 C   0  0  0  0  0  0  0  0  0  0  0  0
  -22.8290   -9.9260   20.1490 C   0  0  0  0  0  3  0  0  0  0  0  0
  -23.6720  -11.0350   19.9680 C   0  0  0  0  0  3  0  0  0  0  0  0
  -22.2440   -7.9080   21.2350 O   0  0  0  0  0  0  0  0  0  0  0  0
  -22.0030   -7.2720   22.4270 C   0  0  0  0  0  0  0  0  0  0  0  0
  -21.5080   -7.9640   23.5530 C   0  0  0  0  0  3  0  0  0  0  0  0
  -21.2080   -7.2600   24.7360 C   0  0  0  0  0  3  0  0  0  0  0  0
  -21.3940   -5.8660   24.7920 C   0  0  0  0  0  0  0  0  0  0  0  0
  -21.8800   -5.1740   23.6690 C   0  0  0  0  0  3  0  0  0  0  0  0
  -22.1810   -5.8760   22.4880 C   0  0  0  0  0  0  0  0  0  0  0  0
  -22.6300   -5.2000   21.4030 F   0  0  0  0  0  0  0  0  0  0  0  0
  -21.0970   -5.1880   25.9260 F   0  0  0  0  0  0  0  0  0  0  0  0
  -23.9710  -14.4050   20.8420 C   0  0  0  0  0  0  0  0  0  0  0  0
  -23.1740  -13.8060   21.7210 N   0  0  0  0  0  0  0  0  0  0  0  0
  -23.6360  -15.4520   20.2880 O   0  0  0  0  0  0  0  0  0  0  0  0
  -23.4580  -12.9600   22.1920 H   0  0  0  0  0  0  0  0  0  0  0  0
  -22.2680  -14.2030   21.9270 H   0  0  0  0  0  0  0  0  0  0  0  0
  -26.7560  -15.8020   20.0400 N   0  0  0  0  0  0  0  0  0  0  0  0
  -26.0530  -16.5270   20.1320 H   0  0  0  0  0  0  0  0  0  0  0  0
  -27.6390  -16.1540   19.6910 H   0  0  0  0  0  0  0  0  0  0  0  0
  -29.2710  -20.4430   16.7800 C   0  0  0  0  0  1  0  0  0  0  0  0
  -28.5040  -20.0340   18.0450 C   0  0  0  0  0  2  0  0  0  0  0  0
  -28.7280  -22.5700   19.9550 C   0  0  0  0  0  2  0  0  0  0  0  0
  -29.3660  -24.0230   19.8430 C   0  0  0  0  0  2  0  0  0  0  0  0
  -28.2600  -25.1450   19.6410 C   0  0  0  0  0  2  0  0  0  0  0  0
  -28.4840  -26.6000   19.8230 O   0  0  0  0  0  0  0  0  0  0  0  0
  -24.5630  -31.7370   23.0690 C   0  0  0  0  0  0  0  0  0  0  0  0
  -27.3340  -27.4170   19.8050 C   0  0  0  0  0  0  0  0  0  0  0  0
  -23.3970  -30.3230   21.4160 C   0  0  0  0  0  3  0  0  0  0  0  0
  -24.8920  -28.9070   19.9070 C   0  0  0  0  0  0  0  0  0  0  0  0
  -25.9140  -30.7800   21.1900 C   0  0  0  0  0  2  0  0  0  0  0  0
  -26.0500  -29.4340   20.4940 C   0  0  0  0  0  0  0  0  0  0  0  0
  -27.2760  -28.7000   20.4340 C   0  0  0  0  0  3  0  0  0  0  0  0
  -26.1460  -26.9600   19.1830 C   0  0  0  0  0  3  0  0  0  0  0  0
  -24.9420  -27.6750   19.2450 C   0  0  0  0  0  3  0  0  0  0  0  0
  -23.6110  -29.7070   20.0110 C   0  0  0  0  0  2  0  0  0  0  0  0
  -24.6440  -30.9610   21.9490 N   0  0  0  0  0  0  0  0  0  0  0  0
  -23.4780  -31.9410   23.6330 O   0  0  0  0  0  0  0  0  0  0  0  0
  -22.8140  -29.2410   22.3550 C   0  0  0  0  0  0  0  0  0  0  0  0
  -21.4970  -28.9890   22.2460 N   0  0  0  0  0  0  0  0  0  0  0  0
  -23.5420  -28.6330   23.1440 O   0  0  0  0  0  0  0  0  0  0  0  0
  -20.9650  -29.5370   21.5840 H   0  0  0  0  0  0  0  0  0  0  0  0
  -18.2080  -27.5700   22.7500 C   0  0  0  0  0  0  0  0  0  0  0  0
  -20.7470  -27.9850   23.0030 C   0  0  0  0  0  3  0  0  0  0  0  0
  -20.9320  -26.5740   22.3990 C   0  0  0  0  0  2  0  0  0  0  0  0
  -19.8430  -26.2010   21.3890 C   0  0  0  0  0  2  0  0  0  0  0  0
  -18.4600  -26.2490   22.0460 C   0  0  0  0  0  2  0  0  0  0  0  0
  -19.2790  -28.3930   23.1850 C   0  0  0  0  0  0  0  0  0  0  0  0
  -18.9860  -29.6280   23.8030 C   0  0  0  0  0  3  0  0  0  0  0  0
  -17.6550  -30.0450   23.9860 C   0  0  0  0  0  3  0  0  0  0  0  0
  -16.5960  -29.2180   23.5700 C   0  0  0  0  0  3  0  0  0  0  0  0
  -16.8740  -27.9810   22.9580 C   0  0  0  0  0  3  0  0  0  0  0  0
  -25.8220  -32.4210   23.6810 C   0  0  0  0  0  3  0  0  0  0  0  0
  -25.4470  -33.7900   24.0640 N   0  0  0  0  0  0  0  0  0  0  0  0
  -25.6900  -34.8800   23.3250 C   0  0  0  0  0  0  0  0  0  0  0  0
  -26.3270  -34.8430   22.2690 O   0  0  0  0  0  0  0  0  0  0  0  0
  -24.8820  -33.8910   24.8960 H   0  0  0  0  0  0  0  0  0  0  0  0
  -23.8490  -36.5740   23.0870 C   0  0  0  0  0  1  0  0  0  0  0  0
  -25.1410  -36.2240   23.8390 C   0  0  0  0  0  3  0  0  0  0  0  0
  -27.2520  -37.2110   24.6150 C   0  0  0  0  0  1  0  0  0  0  0  0
  -26.1080  -37.3380   23.7180 N   0  0  0  0  0  0  0  0  0  0  0  0
  -25.6550  -38.2290   23.9060 H   0  0  0  0  0  0  0  0  0  0  0  0
  -26.4100  -31.6430   24.9220 C   0  0  1  0  0  0  0  0  0  0  0  0
  -25.3590  -31.3150   26.0080 C   0  0  0  0  0  1  0  0  0  0  0  0
  -27.0550  -30.3110   24.4760 C   0  0  0  0  0  1  0  0  0  0  0  0
  -27.5310  -32.4810   25.5800 C   0  0  0  0  0  1  0  0  0  0  0  0
  -32.0450  -20.1570   22.5600 C   0  0  0  0  0  2  0  0  0  0  0  0
  -32.3990  -21.0150   24.9550 C   0  0  0  0  0  1  0  0  0  0  0  0
  -31.3940  -20.7540   23.8270 C   0  0  0  0  0  2  0  0  0  0  0  0
  1  6  2  0
  1  2  1  0
  2  5  2  0
  3 93  1  0
  4  8  1  0
  4  3  2  0
  5  3  1  0
  6  4  1  0
  8  7  1  0
  9 15  1  0
  9 17  1  0
 10 15  1  0
 11 12  1  0
 11 10  1  0
 13 12  1  0
 13 22  1  0
 13 14  1  0
 15 14  1  0
 16  9  2  0
 17 18  1  0
 17  8  1  0
 19 20  2  0
 20 39  1  0
 21 20  1  0
 21 24  1  0
 22 19  1  0
 22 23  1  0
 23 21  2  0
 24 25  1  0
 25 26  2  0
 27 30  1  0
 27 26  1  0
 28 27  2  0
 29 28  1  0
 29 24  2  0
 30 31  1  0
 31 36  2  0
 31 32  1  0
 32 33  2  0
 33 34  1  0
 34 38  1  0
 35 34  2  0
 36 35  1  0
 37 36  1  0
 39 40  1  0
 40 43  1  0
 40 42  1  0
 41 39  2  0
 44 45  1  0
 44 19  1  0
 46 44  1  0
 47 48  1  0
 48  1  1  0
 49  2  1  0
 50 49  1  0
 51 52  1  0
 51 50  1  0
 53 64  2  0
 54 52  1  0
 54 59  1  0
 55 63  1  0
 55 65  1  0
 56 62  1  0
 56 58  1  0
 57 63  1  0
 58 57  1  0
 59 58  2  0
 60 61  1  0
 60 54  2  0
 61 56  2  0
 62 55  1  0
 63 53  1  0
 65 67  2  0
 66 65  1  0
 68 66  1  0
 69 78  2  0
 69 74  1  0
 70 66  1  0
 70 74  1  0
 71 70  1  0
 72 73  1  0
 72 71  1  0
 73 69  1  0
 74 75  2  0
 75 76  1  0
 77 76  2  0
 78 77  1  0
 79 53  1  0
 79 80  1  0
 79 89  1  0
 80 83  1  0
 81 85  1  0
 81 80  1  0
 82 81  2  0
 85 84  1  0
 87 85  1  0
 87 88  1  0
 87 86  1  0
 89 92  1  1
 89 90  1  0
 91 89  1  0
 93 95  1  0
 95 94  1  0
M  ISO  4   9 100  17 100  51 101  52 101
M  END
>  <TORSDO>  (31) 
F 23

>  <SCORE>  (31) 
-10.702

>  <name>  (31) 
30

>  <ligand_id>  (31) 
30

>  <original_smiles>  (31) 
[H]c1c([H])c([H])c2c(c1[H])C([H])([H])C([H])([H])C([H])([H])C2([H])N([H])C(=O)C1([H])N(C(=O)C([H])(N([H])C(=O)C([H])(N([H])C([H])([H])[H])C([H])([H])[H])C(C([H])([H])[H])(C([H])([H])[H])C([H])([H])[H])C([H])([H])c2c([H])c(OC([H])([H])C([H])([H])C([H])([H])c3nc(C([H])([H])C([H])([H])C([H])([H])[H])c(C([H])(N([H])C(=O)N4C([H])([H])C([H])([H])C([H])([H])C([H])(n5nc(-c6c([H])c([H])c(Oc7c([H])c([H])c(F)c([H])c7F)c([H])c6[H])c(C(=O)N([H])[H])c5N([H])[H])C4([H])[H])C([H])([H])[H])nc3C([H])([H])C([H])([H])[H])c([H])c([H])c2C1([H])[H]

>  <smiles>  (31) 
[H]c1c([H])c([H])c2c(c1[H])C([H])([H])C([H])([H])C([H])([H])C2([H])N([H])C(=O)C1([H])N(C(=O)C([H])(N([H])C(=O)C([H])(N([H])C([H])([H])[H])C([H])([H])[H])C(C([H])([H])[H])(C([H])([H])[H])C([H])([H])[H])C([H])([H])c2c([H])c(OC([H])([H])C([H])([H])C([H])([H])c3nc(C([H])([H])C([H])([H])C([H])([H])[H])c(C([H])(N([H])C(=O)N4C([H])([H])C([H])([H])C([H])([H])C([H])(n5nc(-c6c([H])c([H])c(Oc7c([H])c([H])c(F)c([H])c7F)c([H])c6[H])c(C(=O)N([H])[H])c5N([H])[H])C4([H])[H])C([H])([H])[H])nc3C([H])([H])C([H])([H])[H])c([H])c([H])c2C1([H])[H]

$$$$
31:0:0
     RDKit          3D

 93101  0  0  1  0  0  0  0  0999 V2000
  -28.2510  -19.5660   20.5110 C   0  0  0  0  0  3  0  0  0  0  0  0
  -29.0140  -20.0380   19.4720 C   0  0  0  0  0  0  0  0  0  0  0  0
  -27.5950  -21.6520   20.1940 C   0  0  0  0  0  3  0  0  0  0  0  0
  -26.6670  -22.7690   20.6130 C   0  0  0  0  0  1  0  0  0  0  0  0
  -28.5700  -21.4180   19.2430 N   0  0  0  0  0  0  0  0  0  0  0  0
  -27.4270  -20.5460   20.9060 N   0  0  0  0  0  0  0  0  0  0  0  0
  -26.7530  -20.4460   21.6540 H   0  0  0  0  0  0  0  0  0  0  0  0
  -30.0570  -19.0420   18.8410 C   0  0  0  0  0  3  0  0  0  0  0  0
  -30.2380  -17.5940   19.6140 C   0  0  0  0  0  3  0  0  0  0  0  0
  -31.6650  -15.3380   19.4370 C   0  0  0  0  0  0  0  0  0  0  0  0
  -31.3970  -12.9060   18.9490 C   0  0  0  0  0  2  0  0  0  0  0  0
  -30.4270  -12.7220   17.7630 C   0  0  0  0  0  2  0  0  0  0  0  0
  -28.9730  -12.6640   18.2660 C   0  0  0  0  0  2  0  0  0  0  0  0
  -28.6390  -13.7890   19.2830 C   0  0  0  0  0  3  0  0  0  0  0  0
  -29.7340  -13.9680   20.3530 C   0  0  0  0  0  2  0  0  0  0  0  0
  -30.9950  -14.1550   19.6360 N   0  0  0  0  0  0  0  0  0  0  0  0
  -32.8620  -15.3060   19.1540 O   0  0  0  0  0  0  0  0  0  0  0  0
  -30.9720  -16.4390   18.9570 N   0  0  0  0  0  0  0  0  0  0  0  0
  -31.5290  -16.8110   18.2010 H   0  0  0  0  0  0  0  0  0  0  0  0
  -26.4150  -14.5720   20.2780 C   0  0  0  0  0  0  0  0  0  0  0  0
  -25.3010  -13.8900   20.6910 C   0  0  0  0  0  0  0  0  0  0  0  0
  -25.6000  -12.5030   20.5220 C   0  0  0  0  0  0  0  0  0  0  0  0
  -27.3220  -13.6050   19.8820 N   0  0  0  0  0  0  0  0  0  0  0  0
  -26.8460  -12.3490   20.0920 N   0  0  0  0  0  0  0  0  0  0  0  0
  -24.7490  -11.3180   20.6890 C   0  0  0  0  0  0  0  0  0  0  0  0
  -25.1180  -10.2580   21.5470 C   0  0  0  0  0  3  0  0  0  0  0  0
  -24.2720   -9.1390   21.7070 C   0  0  0  0  0  3  0  0  0  0  0  0
  -23.0430   -9.0740   21.0060 C   0  0  0  0  0  0  0  0  0  0  0  0
  -22.6930  -10.1200   20.1350 C   0  0  0  0  0  3  0  0  0  0  0  0
  -23.5390  -11.2280   19.9740 C   0  0  0  0  0  3  0  0  0  0  0  0
  -22.1710   -8.0130   21.0770 O   0  0  0  0  0  0  0  0  0  0  0  0
  -22.0400   -7.2640   22.2190 C   0  0  0  0  0  0  0  0  0  0  0  0
  -21.6460   -7.8400   23.4460 C   0  0  0  0  0  3  0  0  0  0  0  0
  -21.4550   -7.0240   24.5790 C   0  0  0  0  0  3  0  0  0  0  0  0
  -21.6500   -5.6320   24.4850 C   0  0  0  0  0  0  0  0  0  0  0  0
  -22.0360   -5.0560   23.2620 C   0  0  0  0  0  3  0  0  0  0  0  0
  -22.2290   -5.8700   22.1320 C   0  0  0  0  0  0  0  0  0  0  0  0
  -22.5810   -5.3090   20.9500 F   0  0  0  0  0  0  0  0  0  0  0  0
  -21.4610   -4.8450   25.5680 F   0  0  0  0  0  0  0  0  0  0  0  0
  -23.9990  -14.4960   21.1250 C   0  0  0  0  0  0  0  0  0  0  0  0
  -23.2770  -13.8170   22.0100 N   0  0  0  0  0  0  0  0  0  0  0  0
  -23.6400  -15.5980   20.7170 O   0  0  0  0  0  0  0  0  0  0  0  0
  -23.5860  -12.9220   22.3570 H   0  0  0  0  0  0  0  0  0  0  0  0
  -22.4070  -14.1990   22.3500 H   0  0  0  0  0  0  0  0  0  0  0  0
  -26.7220  -15.9240   20.1780 N   0  0  0  0  0  0  0  0  0  0  0  0
  -26.0300  -16.6430   20.3720 H   0  0  0  0  0  0  0  0  0  0  0  0
  -27.5560  -16.2800   19.7290 H   0  0  0  0  0  0  0  0  0  0  0  0
  -28.9940  -22.4820   18.1440 C   0  0  0  0  0  2  0  0  0  0  0  0
  -26.8570  -23.9370   17.8920 C   0  0  0  0  0  1  0  0  0  0  0  0
  -28.9350  -24.8390   19.2080 C   0  0  0  0  0  1  0  0  0  0  0  0
  -28.4020  -24.0340   18.0050 C   0  0  1  0  0  0  0  0  0  0  0  0
  -28.7810  -25.0140   16.7440 C   0  0  0  0  0  2  0  0  0  0  0  0
  -28.5840  -26.5240   16.7460 O   0  0  0  0  0  0  0  0  0  0  0  0
  -24.9800  -30.1200   21.9310 C   0  0  0  0  0  0  0  0  0  0  0  0
  -27.4040  -27.2070   17.1300 C   0  0  0  0  0  0  0  0  0  0  0  0
  -23.6420  -29.1390   20.1080 C   0  0  0  0  0  3  0  0  0  0  0  0
  -24.9430  -28.3920   18.0320 C   0  0  0  0  0  0  0  0  0  0  0  0
  -26.0610  -29.8950   19.6750 C   0  0  0  0  0  2  0  0  0  0  0  0
  -26.1540  -28.8230   18.5870 C   0  0  0  0  0  0  0  0  0  0  0  0
  -27.3830  -28.2410   18.1340 C   0  0  0  0  0  3  0  0  0  0  0  0
  -26.1640  -26.8830   16.5480 C   0  0  0  0  0  3  0  0  0  0  0  0
  -24.9510  -27.4380   17.0040 C   0  0  0  0  0  3  0  0  0  0  0  0
  -23.6570  -28.9920   18.5640 C   0  0  0  0  0  2  0  0  0  0  0  0
  -24.9220  -29.7210   20.6270 N   0  0  0  0  0  0  0  0  0  0  0  0
  -23.9960  -30.0290   22.6780 O   0  0  0  0  0  0  0  0  0  0  0  0
  -23.2880  -27.7730   20.7430 C   0  0  0  0  0  0  0  0  0  0  0  0
  -21.9960  -27.4080   20.7110 N   0  0  0  0  0  0  0  0  0  0  0  0
  -24.1690  -27.0600   21.2300 O   0  0  0  0  0  0  0  0  0  0  0  0
  -21.3320  -28.0450   20.2950 H   0  0  0  0  0  0  0  0  0  0  0  0
  -18.9400  -25.5250   21.1550 C   0  0  0  0  0  0  0  0  0  0  0  0
  -21.4490  -26.1460   21.2110 C   0  0  0  0  0  3  0  0  0  0  0  0
  -21.6470  -25.0090   20.1800 C   0  0  0  0  0  2  0  0  0  0  0  0
  -20.4470  -24.8300   19.2460 C   0  0  0  0  0  2  0  0  0  0  0  0
  -19.1810  -24.5120   20.0500 C   0  0  0  0  0  2  0  0  0  0  0  0
  -20.0010  -26.3050   21.6890 C   0  0  0  0  0  0  0  0  0  0  0  0
  -19.7120  -27.2590   22.6890 C   0  0  0  0  0  3  0  0  0  0  0  0
  -18.3960  -27.4390   23.1540 C   0  0  0  0  0  3  0  0  0  0  0  0
  -17.3530  -26.6520   22.6350 C   0  0  0  0  0  3  0  0  0  0  0  0
  -17.6270  -25.6960   21.6400 C   0  0  0  0  0  3  0  0  0  0  0  0
  -26.2810  -30.7260   22.5430 C   0  0  0  0  0  3  0  0  0  0  0  0
  -25.8820  -31.8050   23.4580 N   0  0  0  0  0  0  0  0  0  0  0  0
  -25.9800  -33.1120   23.1840 C   0  0  0  0  0  0  0  0  0  0  0  0
  -26.4860  -33.5410   22.1440 O   0  0  0  0  0  0  0  0  0  0  0  0
  -25.4040  -31.5280   24.3030 H   0  0  0  0  0  0  0  0  0  0  0  0
  -24.0670  -34.6400   23.7660 C   0  0  0  0  0  1  0  0  0  0  0  0
  -25.4290  -34.1010   24.2300 C   0  0  0  0  0  3  0  0  0  0  0  0
  -27.5550  -34.8370   25.2180 C   0  0  0  0  0  1  0  0  0  0  0  0
  -26.3400  -35.2320   24.5090 N   0  0  0  0  0  0  0  0  0  0  0  0
  -25.8700  -35.9470   25.0590 H   0  0  0  0  0  0  0  0  0  0  0  0
  -27.1660  -29.6590   23.2980 C   0  0  1  0  0  0  0  0  0  0  0  0
  -26.3840  -28.8280   24.3430 C   0  0  0  0  0  1  0  0  0  0  0  0
  -27.8070  -28.6720   22.2950 C   0  0  0  0  0  1  0  0  0  0  0  0
  -28.3310  -30.3680   24.0290 C   0  0  0  0  0  1  0  0  0  0  0  0
  1  6  1  0
  2  1  2  0
  3  4  1  0
  3  6  1  0
  5  2  1  0
  5  3  1  0
  6  7  1  0
  8  2  1  0
  8  9  2  0
 10 16  1  0
 11 16  1  0
 12 13  1  0
 12 11  1  0
 14 13  1  0
 14 23  1  0
 14 15  1  0
 16 15  1  0
 17 10  2  0
 18 10  1  0
 18  9  1  0
 19 18  1  0
 20 21  2  0
 21 40  1  0
 22 25  1  0
 22 21  1  0
 23 24  1  0
 23 20  1  0
 24 22  2  0
 25 26  1  0
 26 27  2  0
 28 31  1  0
 28 27  1  0
 29 28  2  0
 30 29  1  0
 30 25  2  0
 31 32  1  0
 32 33  1  0
 33 34  2  0
 35 34  1  0
 35 39  1  0
 36 35  2  0
 37 32  2  0
 37 36  1  0
 38 37  1  0
 40 41  1  0
 41 44  1  0
 41 43  1  0
 42 40  2  0
 45 20  1  0
 45 46  1  0
 47 45  1  0
 48  5  1  0
 51 49  1  1
 51 48  1  0
 51 50  1  0
 52 53  1  0
 52 51  1  0
 53 55  1  0
 54 65  2  0
 55 60  1  0
 56 64  1  0
 56 66  1  0
 57 63  1  0
 57 59  1  0
 58 64  1  0
 59 58  1  0
 60 59  2  0
 61 62  1  0
 61 55  2  0
 62 57  2  0
 63 56  1  0
 64 54  1  0
 66 68  2  0
 67 66  1  0
 69 67  1  0
 70 79  2  0
 70 75  1  0
 71 67  1  0
 71 75  1  0
 72 71  1  0
 73 74  1  0
 73 72  1  0
 74 70  1  0
 75 76  2  0
 76 77  1  0
 78 77  2  0
 79 78  1  0
 80 54  1  0
 80 90  1  0
 80 81  1  0
 81 84  1  0
 82 81  1  0
 82 86  1  0
 83 82  2  0
 86 85  1  0
 86 88  1  0
 88 89  1  0
 88 87  1  0
 90 93  1  1
 90 91  1  0
 92 90  1  0
M  ISO  4  10 100  18 100  52 101  53 101
M  END
>  <TORSDO>  (32) 
F 21

>  <SCORE>  (32) 
-6.804

>  <name>  (32) 
31

>  <ligand_id>  (32) 
31

>  <original_smiles>  (32) 
[H]c1c([H])c([H])c2c(c1[H])C([H])([H])C([H])([H])C([H])([H])C2([H])N([H])C(=O)C1([H])N(C(=O)C([H])(N([H])C(=O)C([H])(N([H])C([H])([H])[H])C([H])([H])[H])C(C([H])([H])[H])(C([H])([H])[H])C([H])([H])[H])C([H])([H])c2c([H])c(OC([H])([H])C(C([H])([H])[H])(C([H])([H])[H])C([H])([H])n3c(C([H])([H])C([H])([H])N([H])C(=O)N4C([H])([H])C([H])([H])C([H])([H])C([H])(n5nc(-c6c([H])c([H])c(Oc7c([H])c([H])c(F)c([H])c7F)c([H])c6[H])c(C(=O)N([H])[H])c5N([H])[H])C4([H])[H])c([H])[n+]([H])c3C([H])([H])[H])c([H])c([H])c2C1([H])[H]

>  <smiles>  (32) 
[H]c1c([H])c([H])c2c(c1[H])C([H])([H])C([H])([H])C([H])([H])C2([H])N([H])C(=O)C1([H])N(C(=O)C([H])(N([H])C(=O)C([H])(N([H])C([H])([H])[H])C([H])([H])[H])C(C([H])([H])[H])(C([H])([H])[H])C([H])([H])[H])C([H])([H])c2c([H])c(OC([H])([H])C(C([H])([H])[H])(C([H])([H])[H])C([H])([H])n3c(C([H])([H])C([H])([H])N([H])C(=O)N4C([H])([H])C([H])([H])C([H])([H])C([H])(n5nc(-c6c([H])c([H])c(Oc7c([H])c([H])c(F)c([H])c7F)c([H])c6[H])c(C(=O)N([H])[H])c5N([H])[H])C4([H])[H])c([H])[n+]([H])c3C([H])([H])[H])c([H])c([H])c2C1([H])[H]

$$$$
32:0:0
     RDKit          3D

 92100  0  0  1  0  0  0  0  0999 V2000
  -30.0490  -19.2300   22.1680 C   0  0  0  0  0  3  0  0  0  0  0  0
  -30.0080  -20.3890   21.3260 C   0  0  0  0  0  0  0  0  0  0  0  0
  -30.2880  -18.1520   21.3460 C   0  0  0  0  0  0  0  0  0  0  0  0
  -30.1300  -20.0280   20.0570 N   0  0  0  0  0  0  0  0  0  0  0  0
  -30.2810  -18.6680   20.0580 N   0  0  0  0  0  0  0  0  0  0  0  0
  -30.2580  -18.7400   17.5300 C   0  0  0  0  0  1  0  0  0  0  0  0
  -30.5430  -17.9480   18.8160 C   0  0  0  0  0  2  0  0  0  0  0  0
  -30.0910  -21.8680   21.7530 C   0  0  0  0  0  2  0  0  0  0  0  0
  -29.1730  -22.9360   21.0590 C   0  0  0  0  0  2  0  0  0  0  0  0
  -29.3230  -24.4020   21.6470 C   0  0  0  0  0  2  0  0  0  0  0  0
  -26.8060  -24.8070   21.4650 C   0  0  0  0  0  1  0  0  0  0  0  0
  -28.1950  -25.4920   21.4460 C   0  0  0  0  0  3  0  0  0  0  0  0
  -28.3960  -26.5320   20.4170 O   0  0  0  0  0  0  0  0  0  0  0  0
  -24.6340  -31.9080   23.2610 C   0  0  0  0  0  0  0  0  0  0  0  0
  -27.3310  -27.4190   20.2720 C   0  0  0  0  0  0  0  0  0  0  0  0
  -23.4700  -30.5000   21.5970 C   0  0  0  0  0  3  0  0  0  0  0  0
  -24.9630  -28.9840   20.1820 C   0  0  0  0  0  0  0  0  0  0  0  0
  -26.0050  -30.8540   21.4660 C   0  0  0  0  0  2  0  0  0  0  0  0
  -26.1070  -29.4860   20.8180 C   0  0  0  0  0  0  0  0  0  0  0  0
  -27.2990  -28.7100   20.8630 C   0  0  0  0  0  3  0  0  0  0  0  0
  -26.1950  -26.9870   19.5590 C   0  0  0  0  0  3  0  0  0  0  0  0
  -25.0060  -27.7350   19.5410 C   0  0  0  0  0  3  0  0  0  0  0  0
  -23.7120  -29.8340   20.2160 C   0  0  0  0  0  2  0  0  0  0  0  0
  -24.7180  -31.1050   22.1640 N   0  0  0  0  0  0  0  0  0  0  0  0
  -23.5380  -32.1760   23.7780 O   0  0  0  0  0  0  0  0  0  0  0  0
  -22.8050  -29.4740   22.5440 C   0  0  0  0  0  0  0  0  0  0  0  0
  -21.4830  -29.2810   22.3970 N   0  0  0  0  0  0  0  0  0  0  0  0
  -23.4770  -28.8560   23.3740 O   0  0  0  0  0  0  0  0  0  0  0  0
  -21.0000  -29.8330   21.7010 H   0  0  0  0  0  0  0  0  0  0  0  0
  -18.1100  -28.0590   22.8460 C   0  0  0  0  0  0  0  0  0  0  0  0
  -20.6620  -28.3390   23.1550 C   0  0  0  0  0  3  0  0  0  0  0  0
  -20.7850  -26.9080   22.5830 C   0  0  0  0  0  2  0  0  0  0  0  0
  -19.7010  -26.5750   21.5510 C   0  0  0  0  0  2  0  0  0  0  0  0
  -18.3090  -26.7100   22.1720 C   0  0  0  0  0  2  0  0  0  0  0  0
  -19.2170  -28.8290   23.2920 C   0  0  0  0  0  0  0  0  0  0  0  0
  -18.9790  -30.0910   23.8810 C   0  0  0  0  0  3  0  0  0  0  0  0
  -17.6700  -30.5820   24.0280 C   0  0  0  0  0  3  0  0  0  0  0  0
  -16.5770  -29.8090   23.5980 C   0  0  0  0  0  3  0  0  0  0  0  0
  -16.7980  -28.5490   23.0120 C   0  0  0  0  0  3  0  0  0  0  0  0
  -25.9020  -32.5510   23.9030 C   0  0  0  0  0  3  0  0  0  0  0  0
  -25.5840  -33.9510   24.2120 N   0  0  0  0  0  0  0  0  0  0  0  0
  -25.9220  -34.9960   23.4440 C   0  0  0  0  0  0  0  0  0  0  0  0
  -26.6080  -34.8840   22.4250 O   0  0  0  0  0  0  0  0  0  0  0  0
  -24.9700  -34.1130   24.9980 H   0  0  0  0  0  0  0  0  0  0  0  0
  -24.1880  -36.7750   23.0460 C   0  0  0  0  0  1  0  0  0  0  0  0
  -25.4210  -36.3870   23.8780 C   0  0  0  0  0  3  0  0  0  0  0  0
  -27.5370  -37.2940   24.7270 C   0  0  0  0  0  1  0  0  0  0  0  0
  -26.4480  -37.4440   23.7650 N   0  0  0  0  0  0  0  0  0  0  0  0
  -26.0370  -38.3650   23.8940 H   0  0  0  0  0  0  0  0  0  0  0  0
  -26.3910  -31.7970   25.2000 C   0  0  1  0  0  0  0  0  0  0  0  0
  -25.2730  -31.5690   26.2430 C   0  0  0  0  0  1  0  0  0  0  0  0
  -26.9930  -30.4180   24.8450 C   0  0  0  0  0  1  0  0  0  0  0  0
  -27.5190  -32.6030   25.8840 C   0  0  0  0  0  1  0  0  0  0  0  0
  -30.6890  -16.7250   21.7330 C   0  0  0  0  0  2  0  0  0  0  0  0
  -30.7070  -14.5930   20.3680 C   0  0  0  0  0  0  0  0  0  0  0  0
  -30.3770  -12.4760   19.1120 C   0  0  0  0  0  2  0  0  0  0  0  0
  -29.4040  -12.6870   17.9330 C   0  0  0  0  0  2  0  0  0  0  0  0
  -27.9410  -12.5390   18.3950 C   0  0  0  0  0  2  0  0  0  0  0  0
  -27.6280  -13.3480   19.6810 C   0  0  0  0  0  3  0  0  0  0  0  0
  -28.7060  -13.1080   20.7600 C   0  0  0  0  0  2  0  0  0  0  0  0
  -30.0140  -13.4370   20.1690 N   0  0  0  0  0  0  0  0  0  0  0  0
  -31.8260  -14.7820   19.8840 O   0  0  0  0  0  0  0  0  0  0  0  0
  -30.0670  -15.5630   21.0580 N   0  0  0  0  0  0  0  0  0  0  0  0
  -29.1150  -15.3630   21.3210 H   0  0  0  0  0  0  0  0  0  0  0  0
  -25.2430  -13.9430   20.4330 C   0  0  0  0  0  0  0  0  0  0  0  0
  -24.1840  -13.1650   20.8200 C   0  0  0  0  0  0  0  0  0  0  0  0
  -24.6520  -11.8160   20.7820 C   0  0  0  0  0  0  0  0  0  0  0  0
  -26.2870  -13.0650   20.1850 N   0  0  0  0  0  0  0  0  0  0  0  0
  -25.9380  -11.7810   20.4540 N   0  0  0  0  0  0  0  0  0  0  0  0
  -23.9330  -10.5530   20.9890 C   0  0  0  0  0  0  0  0  0  0  0  0
  -24.3810   -9.5900   21.9200 C   0  0  0  0  0  3  0  0  0  0  0  0
  -23.6630   -8.3890   22.1120 C   0  0  0  0  0  3  0  0  0  0  0  0
  -22.4840   -8.1420   21.3710 C   0  0  0  0  0  0  0  0  0  0  0  0
  -22.0540   -9.0930   20.4260 C   0  0  0  0  0  3  0  0  0  0  0  0
  -22.7730  -10.2850   20.2350 C   0  0  0  0  0  3  0  0  0  0  0  0
  -21.7380   -6.9930   21.4710 O   0  0  0  0  0  0  0  0  0  0  0  0
  -21.7020   -6.2540   22.6250 C   0  0  0  0  0  0  0  0  0  0  0  0
  -21.2800   -6.8090   23.8520 C   0  0  0  0  0  3  0  0  0  0  0  0
  -21.1930   -5.9980   25.0000 C   0  0  0  0  0  3  0  0  0  0  0  0
  -21.5170   -4.6300   24.9220 C   0  0  0  0  0  0  0  0  0  0  0  0
  -21.9290   -4.0730   23.7020 C   0  0  0  0  0  3  0  0  0  0  0  0
  -22.0210   -4.8820   22.5530 C   0  0  0  0  0  0  0  0  0  0  0  0
  -22.4000   -4.3350   21.3740 F   0  0  0  0  0  0  0  0  0  0  0  0
  -21.4250   -3.8490   26.0240 F   0  0  0  0  0  0  0  0  0  0  0  0
  -22.7890  -13.6360   21.1070 C   0  0  0  0  0  0  0  0  0  0  0  0
  -22.0750  -12.9420   21.9850 N   0  0  0  0  0  0  0  0  0  0  0  0
  -22.3380  -14.6560   20.5870 O   0  0  0  0  0  0  0  0  0  0  0  0
  -22.4520  -12.1190   22.4300 H   0  0  0  0  0  0  0  0  0  0  0  0
  -21.1360  -13.2410   22.2140 H   0  0  0  0  0  0  0  0  0  0  0  0
  -25.3980  -15.3140   20.2500 N   0  0  0  0  0  0  0  0  0  0  0  0
  -24.6260  -15.9600   20.3640 H   0  0  0  0  0  0  0  0  0  0  0  0
  -26.2310  -15.7580   19.8820 H   0  0  0  0  0  0  0  0  0  0  0  0
  2  8  1  0
  2  1  1  0
  3 54  1  0
  3  1  2  0
  4  5  1  0
  4  2  2  0
  5  3  1  0
  6  7  1  0
  7  5  1  0
  9 10  1  0
  9  8  1  0
 12 11  1  0
 12 10  1  0
 13 12  1  0
 14 25  2  0
 15 13  1  0
 15 20  1  0
 16 24  1  0
 16 26  1  0
 17 23  1  0
 17 19  1  0
 18 24  1  0
 19 20  2  0
 19 18  1  0
 21 15  2  0
 22 21  1  0
 22 17  2  0
 23 16  1  0
 24 14  1  0
 26 28  2  0
 27 26  1  0
 29 27  1  0
 30 39  2  0
 30 35  1  0
 31 27  1  0
 31 35  1  0
 32 31  1  0
 33 34  1  0
 33 32  1  0
 34 30  1  0
 35 36  2  0
 36 37  1  0
 38 37  2  0
 39 38  1  0
 40 14  1  0
 40 41  1  0
 40 50  1  0
 41 44  1  0
 42 46  1  0
 42 41  1  0
 43 42  2  0
 46 45  1  0
 48 46  1  0
 48 49  1  0
 48 47  1  0
 50 53  1  1
 50 51  1  0
 52 50  1  0
 55 63  1  0
 56 61  1  0
 57 58  1  0
 57 56  1  0
 59 58  1  0
 59 68  1  0
 59 60  1  0
 61 55  1  0
 61 60  1  0
 62 55  2  0
 63 64  1  0
 63 54  1  0
 65 66  2  0
 66 85  1  0
 67 66  1  0
 67 70  1  0
 68 65  1  0
 68 69  1  0
 69 67  2  0
 70 71  1  0
 71 72  2  0
 73 76  1  0
 73 72  1  0
 74 73  2  0
 75 74  1  0
 75 70  2  0
 76 77  1  0
 77 78  1  0
 78 79  2  0
 80 79  1  0
 80 84  1  0
 81 80  2  0
 82 77  2  0
 82 81  1  0
 83 82  1  0
 85 86  1  0
 86 89  1  0
 86 88  1  0
 87 85  2  0
 90 91  1  0
 90 65  1  0
 92 90  1  0
M  ISO  4  12 101  13 101  55 100  63 100
M  END
>  <TORSDO>  (33) 
F 22

>  <SCORE>  (33) 
-12.923

>  <name>  (33) 
32

>  <ligand_id>  (33) 
32

>  <original_smiles>  (33) 
[H]c1c([H])c([H])c2c(c1[H])C([H])([H])C([H])([H])C([H])([H])C2([H])N([H])C(=O)C1([H])N(C(=O)C([H])(N([H])C(=O)C([H])(N([H])C([H])([H])[H])C([H])([H])[H])C(C([H])([H])[H])(C([H])([H])[H])C([H])([H])[H])C([H])([H])c2c([H])c(OC([H])(C([H])([H])[H])C([H])([H])C([H])([H])C([H])([H])c3nn(C([H])([H])C([H])([H])[H])c(C([H])([H])N([H])C(=O)N4C([H])([H])C([H])([H])C([H])([H])C([H])(n5nc(-c6c([H])c([H])c(Oc7c([H])c([H])c(F)c([H])c7F)c([H])c6[H])c(C(=O)N([H])[H])c5N([H])[H])C4([H])[H])c3[H])c([H])c([H])c2C1([H])[H]

>  <smiles>  (33) 
[H]c1c([H])c([H])c2c(c1[H])C([H])([H])C([H])([H])C([H])([H])C2([H])N([H])C(=O)C1([H])N(C(=O)C([H])(N([H])C(=O)C([H])(N([H])C([H])([H])[H])C([H])([H])[H])C(C([H])([H])[H])(C([H])([H])[H])C([H])([H])[H])C([H])([H])c2c([H])c(OC([H])(C([H])([H])[H])C([H])([H])C([H])([H])C([H])([H])c3nn(C([H])([H])C([H])([H])[H])c(C([H])([H])N([H])C(=O)N4C([H])([H])C([H])([H])C([H])([H])C([H])(n5nc(-c6c([H])c([H])c(Oc7c([H])c([H])c(F)c([H])c7F)c([H])c6[H])c(C(=O)N([H])[H])c5N([H])[H])C4([H])[H])c3[H])c([H])c([H])c2C1([H])[H]

$$$$
33:0:0
     RDKit          3D

 96104  0  0  1  0  0  0  0  0999 V2000
  -28.0760  -20.7310   19.7310 C   0  0  0  0  0  3  0  0  0  0  0  0
  -27.6410  -22.0700   19.5180 C   0  0  0  0  0  0  0  0  0  0  0  0
  -28.3000  -23.1770   20.1590 C   0  0  0  0  0  0  0  0  0  0  0  0
  -29.0990  -20.4160   20.6400 C   0  0  0  0  0  0  0  0  0  0  0  0
  -29.3820  -22.7550   21.0180 C   0  0  0  0  0  0  0  0  0  0  0  0
  -29.7390  -21.4460   21.2470 N   0  0  0  0  0  0  0  0  0  0  0  0
  -26.7610  -25.0700   21.0370 C   0  0  0  0  0  1  0  0  0  0  0  0
  -27.7560  -24.6800   19.9280 C   0  0  0  0  0  3  0  0  0  0  0  0
  -28.7290  -25.9140   19.7400 C   0  0  0  0  0  2  0  0  0  0  0  0
  -28.3870  -27.3410   19.5770 O   0  0  0  0  0  0  0  0  0  0  0  0
  -24.6010  -32.0140   23.5290 C   0  0  0  0  0  0  0  0  0  0  0  0
  -27.1790  -27.9890   19.8210 C   0  0  0  0  0  0  0  0  0  0  0  0
  -23.3590  -30.8510   21.7340 C   0  0  0  0  0  3  0  0  0  0  0  0
  -24.7830  -29.5170   20.0790 C   0  0  0  0  0  0  0  0  0  0  0  0
  -25.8810  -31.2290   21.5310 C   0  0  0  0  0  2  0  0  0  0  0  0
  -25.9530  -29.9500   20.7110 C   0  0  0  0  0  0  0  0  0  0  0  0
  -27.1510  -29.2000   20.5700 C   0  0  0  0  0  3  0  0  0  0  0  0
  -25.9880  -27.5880   19.1790 C   0  0  0  0  0  3  0  0  0  0  0  0
  -24.7990  -28.3410   19.3040 C   0  0  0  0  0  3  0  0  0  0  0  0
  -23.5400  -30.3650   20.2690 C   0  0  0  0  0  2  0  0  0  0  0  0
  -24.6340  -31.3750   22.3250 N   0  0  0  0  0  0  0  0  0  0  0  0
  -23.5340  -32.2050   24.1300 O   0  0  0  0  0  0  0  0  0  0  0  0
  -22.7290  -29.7060   22.5620 C   0  0  0  0  0  0  0  0  0  0  0  0
  -21.4250  -29.4610   22.3540 N   0  0  0  0  0  0  0  0  0  0  0  0
  -23.4140  -29.0410   23.3440 O   0  0  0  0  0  0  0  0  0  0  0  0
  -20.9340  -30.0550   21.7020 H   0  0  0  0  0  0  0  0  0  0  0  0
  -18.1090  -28.0370   22.5850 C   0  0  0  0  0  0  0  0  0  0  0  0
  -20.6380  -28.4010   22.9840 C   0  0  0  0  0  3  0  0  0  0  0  0
  -20.8430  -27.0520   22.2600 C   0  0  0  0  0  2  0  0  0  0  0  0
  -19.7980  -26.7840   21.1730 C   0  0  0  0  0  2  0  0  0  0  0  0
  -18.3880  -26.7810   21.7740 C   0  0  0  0  0  2  0  0  0  0  0  0
  -19.1680  -28.8050   23.1390 C   0  0  0  0  0  0  0  0  0  0  0  0
  -18.8580  -29.9810   23.8550 C   0  0  0  0  0  3  0  0  0  0  0  0
  -17.5220  -30.3920   24.0250 C   0  0  0  0  0  3  0  0  0  0  0  0
  -16.4770  -29.6190   23.4880 C   0  0  0  0  0  3  0  0  0  0  0  0
  -16.7710  -28.4430   22.7740 C   0  0  0  0  0  3  0  0  0  0  0  0
  -25.9010  -32.5570   24.2000 C   0  0  0  0  0  3  0  0  0  0  0  0
  -25.6860  -33.9820   24.4870 N   0  0  0  0  0  0  0  0  0  0  0  0
  -26.1020  -34.9890   23.7060 C   0  0  0  0  0  0  0  0  0  0  0  0
  -26.7780  -34.8100   22.6890 O   0  0  0  0  0  0  0  0  0  0  0  0
  -25.0860  -34.1980   25.2680 H   0  0  0  0  0  0  0  0  0  0  0  0
  -24.5130  -36.8920   23.2730 C   0  0  0  0  0  1  0  0  0  0  0  0
  -25.7060  -36.4200   24.1180 C   0  0  0  0  0  3  0  0  0  0  0  0
  -27.8780  -37.1810   24.9720 C   0  0  0  0  0  1  0  0  0  0  0  0
  -26.8110  -37.3950   23.9990 N   0  0  0  0  0  0  0  0  0  0  0  0
  -26.4670  -38.3450   24.1100 H   0  0  0  0  0  0  0  0  0  0  0  0
  -26.2940  -31.7770   25.5160 C   0  0  1  0  0  0  0  0  0  0  0  0
  -25.1320  -31.6480   26.5290 C   0  0  0  0  0  1  0  0  0  0  0  0
  -26.7870  -30.3500   25.1770 C   0  0  0  0  0  1  0  0  0  0  0  0
  -27.4660  -32.4980   26.2210 C   0  0  0  0  0  1  0  0  0  0  0  0
  -31.5700  -24.0480   21.0650 C   0  0  0  0  0  1  0  0  0  0  0  0
  -30.2720  -23.7020   21.8110 C   0  0  0  0  0  2  0  0  0  0  0  0
  -26.3980  -22.2190   18.6290 C   0  0  0  0  0  2  0  0  0  0  0  0
  -23.9240  -21.7820   19.1450 C   0  0  0  0  0  1  0  0  0  0  0  0
  -25.2530  -23.1590   20.8120 C   0  0  0  0  0  1  0  0  0  0  0  0
  -25.1090  -22.7460   19.3330 C   0  0  0  0  0  3  0  0  0  0  0  0
  -29.3100  -18.9290   21.1410 C   0  0  0  0  0  3  0  0  0  0  0  0
  -30.1710  -17.8560   20.3360 C   0  0  0  0  0  3  0  0  0  0  0  0
  -30.8320  -15.3340   20.4360 C   0  0  0  0  0  0  0  0  0  0  0  0
  -30.6850  -13.0520   19.4520 C   0  0  0  0  0  2  0  0  0  0  0  0
  -29.7880  -13.1480   18.1980 C   0  0  0  0  0  2  0  0  0  0  0  0
  -28.3070  -12.9640   18.5800 C   0  0  0  0  0  2  0  0  0  0  0  0
  -27.8930  -13.8570   19.7780 C   0  0  0  0  0  3  0  0  0  0  0  0
  -28.9130  -13.7550   20.9370 C   0  0  0  0  0  2  0  0  0  0  0  0
  -30.2380  -14.0980   20.3970 N   0  0  0  0  0  0  0  0  0  0  0  0
  -31.9810  -15.5030   20.0160 O   0  0  0  0  0  0  0  0  0  0  0  0
  -30.0310  -16.4030   20.7540 N   0  0  0  0  0  0  0  0  0  0  0  0
  -29.1320  -16.1420   21.1350 H   0  0  0  0  0  0  0  0  0  0  0  0
  -25.4730  -14.4310   20.4150 C   0  0  0  0  0  0  0  0  0  0  0  0
  -24.4050  -13.6490   20.7570 C   0  0  0  0  0  0  0  0  0  0  0  0
  -24.8840  -12.3010   20.7470 C   0  0  0  0  0  0  0  0  0  0  0  0
  -26.5340  -13.5620   20.2200 N   0  0  0  0  0  0  0  0  0  0  0  0
  -26.1820  -12.2770   20.4790 N   0  0  0  0  0  0  0  0  0  0  0  0
  -24.1650  -11.0320   20.9200 C   0  0  0  0  0  0  0  0  0  0  0  0
  -24.6130  -10.0480   21.8310 C   0  0  0  0  0  3  0  0  0  0  0  0
  -23.8960   -8.8440   21.9950 C   0  0  0  0  0  3  0  0  0  0  0  0
  -22.7190   -8.6130   21.2430 C   0  0  0  0  0  0  0  0  0  0  0  0
  -22.2920   -9.5830   20.3190 C   0  0  0  0  0  3  0  0  0  0  0  0
  -23.0100  -10.7780   20.1550 C   0  0  0  0  0  3  0  0  0  0  0  0
  -21.9710   -7.4610   21.3170 O   0  0  0  0  0  0  0  0  0  0  0  0
  -21.9250   -6.7040   22.4600 C   0  0  0  0  0  0  0  0  0  0  0  0
  -21.5230   -7.2470   23.6990 C   0  0  0  0  0  3  0  0  0  0  0  0
  -21.4250   -6.4180   24.8320 C   0  0  0  0  0  3  0  0  0  0  0  0
  -21.7210   -5.0460   24.7300 C   0  0  0  0  0  0  0  0  0  0  0  0
  -22.1180   -4.5010   23.4960 C   0  0  0  0  0  3  0  0  0  0  0  0
  -22.2190   -5.3280   22.3630 C   0  0  0  0  0  0  0  0  0  0  0  0
  -22.5810   -4.7950   21.1720 F   0  0  0  0  0  0  0  0  0  0  0  0
  -21.6200   -4.2460   25.8180 F   0  0  0  0  0  0  0  0  0  0  0  0
  -22.9960  -14.1080   20.9920 C   0  0  0  0  0  0  0  0  0  0  0  0
  -22.2670  -13.4240   21.8650 N   0  0  0  0  0  0  0  0  0  0  0  0
  -22.5490  -15.1130   20.4370 O   0  0  0  0  0  0  0  0  0  0  0  0
  -22.6420  -12.6070   22.3270 H   0  0  0  0  0  0  0  0  0  0  0  0
  -21.3250  -13.7190   22.0800 H   0  0  0  0  0  0  0  0  0  0  0  0
  -25.6300  -15.8040   20.2320 N   0  0  0  0  0  0  0  0  0  0  0  0
  -24.8550  -16.4550   20.2980 H   0  0  0  0  0  0  0  0  0  0  0  0
  -26.4790  -16.2360   19.8950 H   0  0  0  0  0  0  0  0  0  0  0  0
  1  4  1  0
  2  1  2  0
  2  3  1  0
  3  5  2  0
  4 57  1  0
  4  6  2  0
  5  6  1  0
  5 52  1  0
  8  3  1  0
  8  7  1  0
  9  8  1  0
 10  9  1  0
 10 12  1  0
 11 22  2  0
 12 17  1  0
 13 21  1  0
 13 23  1  0
 14 20  1  0
 14 16  1  0
 15 21  1  0
 16 15  1  0
 17 16  2  0
 18 19  1  0
 18 12  2  0
 19 14  2  0
 20 13  1  0
 21 11  1  0
 23 25  2  0
 24 23  1  0
 26 24  1  0
 27 36  2  0
 27 32  1  0
 28 24  1  0
 28 32  1  0
 29 28  1  0
 30 31  1  0
 30 29  1  0
 31 27  1  0
 32 33  2  0
 33 34  1  0
 35 34  2  0
 36 35  1  0
 37 11  1  0
 37 38  1  0
 37 47  1  0
 38 41  1  0
 39 43  1  0
 39 38  1  0
 40 39  2  0
 43 42  1  0
 45 46  1  0
 45 43  1  0
 45 44  1  0
 47 50  1  1
 47 48  1  0
 49 47  1  0
 51 52  1  0
 53 56  1  0
 53  2  1  0
 54 56  1  0
 56 55  1  0
 58 67  1  0
 58 57  2  0
 59 67  1  0
 60 65  1  0
 61 62  1  0
 61 60  1  0
 63 62  1  0
 63 72  1  0
 63 64  1  0
 65 59  1  0
 65 64  1  0
 66 59  2  0
 67 68  1  0
 69 70  2  0
 70 89  1  0
 71 70  1  0
 71 74  1  0
 72 69  1  0
 72 73  1  0
 73 71  2  0
 74 75  1  0
 75 76  2  0
 77 80  1  0
 77 76  1  0
 78 77  2  0
 79 78  1  0
 79 74  2  0
 80 81  1  0
 81 82  1  0
 82 83  2  0
 84 83  1  0
 84 88  1  0
 85 84  2  0
 86 81  2  0
 86 85  1  0
 87 86  1  0
 89 90  1  0
 90 93  1  0
 90 92  1  0
 91 89  2  0
 94 95  1  0
 94 69  1  0
 96 94  1  0
M  ISO  4   9 101  10 101  59 100  67 100
M  END
>  <TORSDO>  (34) 
F 23

>  <SCORE>  (34) 
-11.047

>  <name>  (34) 
33

>  <ligand_id>  (34) 
33

>  <original_smiles>  (34) 
[H]c1c([H])c([H])c2c(c1[H])C([H])([H])C([H])([H])C([H])([H])C2([H])N([H])C(=O)C1([H])N(C(=O)C([H])(N([H])C(=O)C([H])(N([H])C([H])([H])[H])C([H])([H])[H])C(C([H])([H])[H])(C([H])([H])[H])C([H])([H])[H])C([H])([H])c2c([H])c(OC([H])([H])C([H])(c3c(C([H])([H])C([H])([H])[H])nc(C([H])([H])C([H])([H])N([H])C(=O)N4C([H])([H])C([H])([H])C([H])([H])C([H])(n5nc(-c6c([H])c([H])c(Oc7c([H])c([H])c(F)c([H])c7F)c([H])c6[H])c(C(=O)N([H])[H])c5N([H])[H])C4([H])[H])c([H])c3C([H])([H])C([H])(C([H])([H])[H])C([H])([H])[H])C([H])([H])[H])c([H])c([H])c2C1([H])[H]

>  <smiles>  (34) 
[H]c1c([H])c([H])c2c(c1[H])C([H])([H])C([H])([H])C([H])([H])C2([H])N([H])C(=O)C1([H])N(C(=O)C([H])(N([H])C(=O)C([H])(N([H])C([H])([H])[H])C([H])([H])[H])C(C([H])([H])[H])(C([H])([H])[H])C([H])([H])[H])C([H])([H])c2c([H])c(OC([H])([H])C([H])(c3c(C([H])([H])C([H])([H])[H])nc(C([H])([H])C([H])([H])N([H])C(=O)N4C([H])([H])C([H])([H])C([H])([H])C([H])(n5nc(-c6c([H])c([H])c(Oc7c([H])c([H])c(F)c([H])c7F)c([H])c6[H])c(C(=O)N([H])[H])c5N([H])[H])C4([H])[H])c([H])c3C([H])([H])C([H])(C([H])([H])[H])C([H])([H])[H])C([H])([H])[H])c([H])c([H])c2C1([H])[H]

$$$$
34:0:0
     RDKit          3D

 96104  0  0  1  0  0  0  0  0999 V2000
  -29.3030  -23.6370   21.8800 C   0  0  0  0  0  3  0  0  0  0  0  0
  -29.3010  -22.3870   19.8340 C   0  0  0  0  0  3  0  0  0  0  0  0
  -28.9260  -23.6140   20.5180 C   0  0  0  0  0  0  0  0  0  0  0  0
  -29.9560  -22.5330   22.4710 C   0  0  0  0  0  0  0  0  0  0  0  0
  -29.8130  -21.2370   20.5210 C   0  0  0  0  0  0  0  0  0  0  0  0
  -30.1680  -21.3710   21.8200 N   0  0  0  0  0  0  0  0  0  0  0  0
  -31.8320  -22.0440   24.1410 C   0  0  0  0  0  1  0  0  0  0  0  0
  -29.4020  -21.8750   24.8840 C   0  0  0  0  0  1  0  0  0  0  0  0
  -30.3980  -22.5850   23.9390 C   0  0  0  0  0  3  0  0  0  0  0  0
  -27.5510  -24.4730   18.4470 C   0  0  0  0  0  1  0  0  0  0  0  0
  -27.9690  -24.7640   19.9370 C   0  0  0  0  0  3  0  0  0  0  0  0
  -28.2320  -26.2440   20.2230 O   0  0  0  0  0  0  0  0  0  0  0  0
  -24.6880  -31.8700   23.2650 C   0  0  0  0  0  0  0  0  0  0  0  0
  -27.1690  -27.2030   20.1870 C   0  0  0  0  0  0  0  0  0  0  0  0
  -23.4620  -30.5240   21.6080 C   0  0  0  0  0  3  0  0  0  0  0  0
  -24.8700  -28.9660   20.1840 C   0  0  0  0  0  0  0  0  0  0  0  0
  -26.0300  -30.7450   21.4710 C   0  0  0  0  0  2  0  0  0  0  0  0
  -26.0580  -29.3710   20.8070 C   0  0  0  0  0  0  0  0  0  0  0  0
  -27.1990  -28.5040   20.8140 C   0  0  0  0  0  3  0  0  0  0  0  0
  -25.9500  -26.8920   19.5360 C   0  0  0  0  0  3  0  0  0  0  0  0
  -24.8180  -27.7260   19.5520 C   0  0  0  0  0  3  0  0  0  0  0  0
  -23.6680  -29.8860   20.2120 C   0  0  0  0  0  2  0  0  0  0  0  0
  -24.7450  -31.0730   22.1630 N   0  0  0  0  0  0  0  0  0  0  0  0
  -23.6080  -32.1660   23.7970 O   0  0  0  0  0  0  0  0  0  0  0  0
  -22.7780  -29.5000   22.5520 C   0  0  0  0  0  0  0  0  0  0  0  0
  -21.4560  -29.3150   22.3920 N   0  0  0  0  0  0  0  0  0  0  0  0
  -23.4330  -28.8880   23.3960 O   0  0  0  0  0  0  0  0  0  0  0  0
  -20.9820  -29.8420   21.6750 H   0  0  0  0  0  0  0  0  0  0  0  0
  -18.0770  -28.0480   22.7330 C   0  0  0  0  0  0  0  0  0  0  0  0
  -20.6150  -28.3810   23.1480 C   0  0  0  0  0  3  0  0  0  0  0  0
  -20.7860  -26.9330   22.6350 C   0  0  0  0  0  2  0  0  0  0  0  0
  -19.7490  -26.5410   21.5750 C   0  0  0  0  0  2  0  0  0  0  0  0
  -18.3250  -26.6800   22.1220 C   0  0  0  0  0  2  0  0  0  0  0  0
  -19.1510  -28.8550   23.1990 C   0  0  0  0  0  0  0  0  0  0  0  0
  -18.8640  -30.1360   23.7170 C   0  0  0  0  0  3  0  0  0  0  0  0
  -17.5380  -30.6080   23.7880 C   0  0  0  0  0  3  0  0  0  0  0  0
  -16.4790  -29.8000   23.3370 C   0  0  0  0  0  3  0  0  0  0  0  0
  -16.7500  -28.5240   22.8150 C   0  0  0  0  0  3  0  0  0  0  0  0
  -25.9790  -32.4690   23.9010 C   0  0  0  0  0  3  0  0  0  0  0  0
  -25.6940  -33.8740   24.2420 N   0  0  0  0  0  0  0  0  0  0  0  0
  -26.0400  -34.9250   23.4940 C   0  0  0  0  0  0  0  0  0  0  0  0
  -26.6970  -34.8170   22.4510 O   0  0  0  0  0  0  0  0  0  0  0  0
  -25.1250  -34.0350   25.0610 H   0  0  0  0  0  0  0  0  0  0  0  0
  -24.3370  -36.7480   23.1720 C   0  0  0  0  0  1  0  0  0  0  0  0
  -25.5820  -36.3190   23.9670 C   0  0  0  0  0  3  0  0  0  0  0  0
  -27.7410  -37.1710   24.7690 C   0  0  0  0  0  1  0  0  0  0  0  0
  -26.6260  -37.3590   23.8410 N   0  0  0  0  0  0  0  0  0  0  0  0
  -26.2390  -38.2840   23.9880 H   0  0  0  0  0  0  0  0  0  0  0  0
  -26.4650  -31.6750   25.1720 C   0  0  1  0  0  0  0  0  0  0  0  0
  -25.3640  -31.4450   26.2320 C   0  0  0  0  0  1  0  0  0  0  0  0
  -27.0260  -30.2910   24.7810 C   0  0  0  0  0  1  0  0  0  0  0  0
  -27.6290  -32.4400   25.8400 C   0  0  0  0  0  1  0  0  0  0  0  0
  -31.6530  -19.8880   19.4130 C   0  0  0  0  0  1  0  0  0  0  0  0
  -30.1610  -19.8540   19.8000 C   0  0  0  0  0  3  0  0  0  0  0  0
  -30.1590  -18.3850   21.9730 C   0  0  0  0  0  1  0  0  0  0  0  0
  -28.2790  -18.1630   20.3150 C   0  0  0  0  0  1  0  0  0  0  0  0
  -29.7950  -18.4100   20.4670 C   0  0  1  0  0  0  0  0  0  0  0  0
  -30.5440  -17.1430   19.8200 C   0  0  0  0  0  2  0  0  0  0  0  0
  -30.6460  -14.5890   19.8310 C   0  0  0  0  0  0  0  0  0  0  0  0
  -30.2660  -12.3610   18.8000 C   0  0  0  0  0  2  0  0  0  0  0  0
  -29.2230  -12.4630   17.6670 C   0  0  0  0  0  2  0  0  0  0  0  0
  -27.7810  -12.3570   18.2090 C   0  0  0  0  0  2  0  0  0  0  0  0
  -27.5320  -13.2190   19.4760 C   0  0  0  0  0  3  0  0  0  0  0  0
  -28.6900  -13.0960   20.4940 C   0  0  0  0  0  2  0  0  0  0  0  0
  -29.9390  -13.4040   19.7910 N   0  0  0  0  0  0  0  0  0  0  0  0
  -31.8070  -14.6390   19.4220 O   0  0  0  0  0  0  0  0  0  0  0  0
  -29.9890  -15.7580   20.0850 N   0  0  0  0  0  0  0  0  0  0  0  0
  -29.0060  -15.7120   20.3050 H   0  0  0  0  0  0  0  0  0  0  0  0
  -25.2160  -13.8000   20.4380 C   0  0  0  0  0  0  0  0  0  0  0  0
  -24.1750  -13.0200   20.8650 C   0  0  0  0  0  0  0  0  0  0  0  0
  -24.6180  -11.6650   20.7480 C   0  0  0  0  0  0  0  0  0  0  0  0
  -26.2270  -12.9230   20.0800 N   0  0  0  0  0  0  0  0  0  0  0  0
  -25.8800  -11.6330   20.3300 N   0  0  0  0  0  0  0  0  0  0  0  0
  -23.8920  -10.4050   20.9560 C   0  0  0  0  0  0  0  0  0  0  0  0
  -24.3470   -9.4280   21.8690 C   0  0  0  0  0  3  0  0  0  0  0  0
  -23.6130   -8.2400   22.0680 C   0  0  0  0  0  3  0  0  0  0  0  0
  -22.4110   -8.0140   21.3570 C   0  0  0  0  0  0  0  0  0  0  0  0
  -21.9740   -8.9830   20.4330 C   0  0  0  0  0  3  0  0  0  0  0  0
  -22.7070  -10.1630   20.2320 C   0  0  0  0  0  3  0  0  0  0  0  0
  -21.6470   -6.8820   21.4650 O   0  0  0  0  0  0  0  0  0  0  0  0
  -21.5920   -6.1590   22.6320 C   0  0  0  0  0  0  0  0  0  0  0  0
  -21.1610   -6.7410   23.8440 C   0  0  0  0  0  3  0  0  0  0  0  0
  -21.0520   -5.9460   25.0050 C   0  0  0  0  0  3  0  0  0  0  0  0
  -21.3670   -4.5760   24.9520 C   0  0  0  0  0  0  0  0  0  0  0  0
  -21.7910   -3.9960   23.7440 C   0  0  0  0  0  3  0  0  0  0  0  0
  -21.9010   -4.7850   22.5860 C   0  0  0  0  0  0  0  0  0  0  0  0
  -22.2910   -4.2180   21.4200 F   0  0  0  0  0  0  0  0  0  0  0  0
  -21.2550   -3.8120   26.0630 F   0  0  0  0  0  0  0  0  0  0  0  0
  -22.8090  -13.4970   21.2590 C   0  0  0  0  0  0  0  0  0  0  0  0
  -22.1490  -12.7950   22.1700 N   0  0  0  0  0  0  0  0  0  0  0  0
  -22.3370  -14.5360   20.7930 O   0  0  0  0  0  0  0  0  0  0  0  0
  -22.5390  -11.9590   22.5760 H   0  0  0  0  0  0  0  0  0  0  0  0
  -21.2300  -13.1010   22.4660 H   0  0  0  0  0  0  0  0  0  0  0  0
  -25.3650  -15.1740   20.3020 N   0  0  0  0  0  0  0  0  0  0  0  0
  -24.6290  -15.8080   20.6000 H   0  0  0  0  0  0  0  0  0  0  0  0
  -26.1500  -15.6540   19.8770 H   0  0  0  0  0  0  0  0  0  0  0  0
  1  4  1  0
  2  3  1  0
  2  5  2  0
  3  1  2  0
  4  9  1  0
  5  6  1  0
  6  4  2  0
  9  7  1  0
  9  8  1  0
 11 10  1  0
 11 12  1  0
 11  3  1  0
 13 24  2  0
 14 12  1  0
 14 19  1  0
 15 23  1  0
 15 25  1  0
 16 22  1  0
 16 18  1  0
 17 23  1  0
 18 19  2  0
 18 17  1  0
 20 21  1  0
 20 14  2  0
 21 16  2  0
 22 15  1  0
 23 13  1  0
 25 27  2  0
 26 25  1  0
 28 26  1  0
 29 38  2  0
 29 34  1  0
 30 26  1  0
 30 34  1  0
 31 30  1  0
 32 33  1  0
 32 31  1  0
 33 29  1  0
 34 35  2  0
 35 36  1  0
 37 36  2  0
 38 37  1  0
 39 13  1  0
 39 40  1  0
 39 49  1  0
 40 43  1  0
 41 45  1  0
 41 40  1  0
 42 41  2  0
 45 44  1  0
 47 45  1  0
 47 48  1  0
 47 46  1  0
 49 52  1  1
 49 50  1  0
 51 49  1  0
 54 53  1  0
 54 57  1  0
 54  5  1  0
 57 56  1  1
 57 55  1  0
 58 67  1  0
 58 57  1  0
 59 67  1  0
 60 65  1  0
 61 62  1  0
 61 60  1  0
 63 62  1  0
 63 72  1  0
 63 64  1  0
 65 59  1  0
 65 64  1  0
 66 59  2  0
 67 68  1  0
 69 70  2  0
 70 89  1  0
 71 70  1  0
 71 74  1  0
 72 73  1  0
 72 69  1  0
 73 71  2  0
 74 75  1  0
 75 76  2  0
 77 80  1  0
 77 76  1  0
 78 77  2  0
 79 78  1  0
 79 74  2  0
 80 81  1  0
 81 82  1  0
 82 83  2  0
 84 83  1  0
 84 88  1  0
 85 84  2  0
 86 81  2  0
 86 85  1  0
 87 86  1  0
 89 90  1  0
 90 93  1  0
 90 92  1  0
 91 89  2  0
 94 69  1  0
 94 95  1  0
 96 94  1  0
M  ISO  4  11 101  12 101  59 100  67 100
M  END
>  <TORSDO>  (35) 
F 21

>  <SCORE>  (35) 
-12.078

>  <name>  (35) 
34

>  <ligand_id>  (35) 
34

>  <original_smiles>  (35) 
[H]c1c([H])c([H])c2c(c1[H])C([H])([H])C([H])([H])C([H])([H])C2([H])N([H])C(=O)C1([H])N(C(=O)C([H])(N([H])C(=O)C([H])(N([H])C([H])([H])[H])C([H])([H])[H])C(C([H])([H])[H])(C([H])([H])[H])C([H])([H])[H])C([H])([H])c2c([H])c(OC([H])(c3c([H])c(C([H])(C([H])([H])[H])C([H])([H])[H])nc(C([H])(C([H])([H])[H])C(C([H])([H])[H])(C([H])([H])[H])C([H])([H])N([H])C(=O)N4C([H])([H])C([H])([H])C([H])([H])C([H])(n5nc(-c6c([H])c([H])c(Oc7c([H])c([H])c(F)c([H])c7F)c([H])c6[H])c(C(=O)N([H])[H])c5N([H])[H])C4([H])[H])c3[H])C([H])([H])[H])c([H])c([H])c2C1([H])[H]

>  <smiles>  (35) 
[H]c1c([H])c([H])c2c(c1[H])C([H])([H])C([H])([H])C([H])([H])C2([H])N([H])C(=O)C1([H])N(C(=O)C([H])(N([H])C(=O)C([H])(N([H])C([H])([H])[H])C([H])([H])[H])C(C([H])([H])[H])(C([H])([H])[H])C([H])([H])[H])C([H])([H])c2c([H])c(OC([H])(c3c([H])c(C([H])(C([H])([H])[H])C([H])([H])[H])nc(C([H])(C([H])([H])[H])C(C([H])([H])[H])(C([H])([H])[H])C([H])([H])N([H])C(=O)N4C([H])([H])C([H])([H])C([H])([H])C([H])(n5nc(-c6c([H])c([H])c(Oc7c([H])c([H])c(F)c([H])c7F)c([H])c6[H])c(C(=O)N([H])[H])c5N([H])[H])C4([H])[H])c3[H])C([H])([H])[H])c([H])c([H])c2C1([H])[H]

$$$$
35:0:0
     RDKit          3D

 96104  0  0  1  0  0  0  0  0999 V2000
  -27.1490  -22.6670   19.9300 C   0  0  0  0  0  3  0  0  0  0  0  0
  -29.3130  -21.6490   20.2820 C   0  0  0  0  0  3  0  0  0  0  0  0
  -28.5270  -22.8140   20.1670 C   0  0  0  0  0  0  0  0  0  0  0  0
  -26.6160  -21.3740   19.7980 C   0  0  0  0  0  0  0  0  0  0  0  0
  -28.7000  -20.3900   20.1130 C   0  0  0  0  0  0  0  0  0  0  0  0
  -25.1380  -21.1770   19.5340 C   0  0  0  0  0  1  0  0  0  0  0  0
  -27.3730  -20.2610   19.8750 N   0  0  0  0  0  0  0  0  0  0  0  0
  -28.9900  -18.1000   21.1660 C   0  0  0  0  0  1  0  0  0  0  0  0
  -29.5180  -19.0970   20.1180 C   0  0  0  0  0  3  0  0  0  0  0  0
  -29.6130  -18.4710   18.6970 C   0  0  0  0  0  2  0  0  0  0  0  0
  -30.9240  -17.3620   16.8640 C   0  0  0  0  0  1  0  0  0  0  0  0
  -31.5860  -19.6430   17.5510 C   0  0  0  0  0  1  0  0  0  0  0  0
  -31.0350  -18.3050   18.0840 C   0  0  1  0  0  0  0  0  0  0  0  0
  -32.0250  -17.7360   19.1430 C   0  0  0  0  0  2  0  0  0  0  0  0
  -32.2670  -15.2670   19.3720 C   0  0  0  0  0  0  0  0  0  0  0  0
  -31.9380  -12.8470   19.0680 C   0  0  0  0  0  2  0  0  0  0  0  0
  -30.9860  -12.6090   17.8800 C   0  0  0  0  0  2  0  0  0  0  0  0
  -29.5170  -12.6450   18.3420 C   0  0  0  0  0  2  0  0  0  0  0  0
  -29.1930  -13.8860   19.2150 C   0  0  0  0  0  3  0  0  0  0  0  0
  -30.2560  -14.0750   20.3200 C   0  0  0  0  0  2  0  0  0  0  0  0
  -31.5810  -14.1350   19.6780 N   0  0  0  0  0  0  0  0  0  0  0  0
  -33.3490  -15.2590   18.7760 O   0  0  0  0  0  0  0  0  0  0  0  0
  -31.6350  -16.4160   19.6510 N   0  0  0  0  0  0  0  0  0  0  0  0
  -30.7590  -16.3470   20.1470 H   0  0  0  0  0  0  0  0  0  0  0  0
  -26.9810  -14.8410   20.1220 C   0  0  0  0  0  0  0  0  0  0  0  0
  -25.8190  -14.2360   20.5180 C   0  0  0  0  0  0  0  0  0  0  0  0
  -26.0350  -12.8310   20.3710 C   0  0  0  0  0  0  0  0  0  0  0  0
  -27.8420  -13.8140   19.7660 N   0  0  0  0  0  0  0  0  0  0  0  0
  -27.2770  -12.5960   19.9690 N   0  0  0  0  0  0  0  0  0  0  0  0
  -25.1140  -11.7000   20.5330 C   0  0  0  0  0  0  0  0  0  0  0  0
  -25.4010  -10.6370   21.4180 C   0  0  0  0  0  3  0  0  0  0  0  0
  -24.4910   -9.5680   21.5710 C   0  0  0  0  0  3  0  0  0  0  0  0
  -23.2810   -9.5560   20.8380 C   0  0  0  0  0  0  0  0  0  0  0  0
  -23.0120  -10.6050   19.9410 C   0  0  0  0  0  3  0  0  0  0  0  0
  -23.9210  -11.6660   19.7870 C   0  0  0  0  0  3  0  0  0  0  0  0
  -22.3500   -8.5480   20.9030 O   0  0  0  0  0  0  0  0  0  0  0  0
  -22.1300   -7.8450   22.0600 C   0  0  0  0  0  0  0  0  0  0  0  0
  -21.7440   -8.4840   23.2580 C   0  0  0  0  0  3  0  0  0  0  0  0
  -21.4600   -7.7170   24.4070 C   0  0  0  0  0  3  0  0  0  0  0  0
  -21.5520   -6.3140   24.3560 C   0  0  0  0  0  0  0  0  0  0  0  0
  -21.9320   -5.6750   23.1620 C   0  0  0  0  0  3  0  0  0  0  0  0
  -22.2160   -6.4380   22.0170 C   0  0  0  0  0  0  0  0  0  0  0  0
  -22.5600   -5.8170   20.8630 F   0  0  0  0  0  0  0  0  0  0  0  0
  -21.2730   -5.5750   25.4550 F   0  0  0  0  0  0  0  0  0  0  0  0
  -24.5450  -14.9200   20.9220 C   0  0  0  0  0  0  0  0  0  0  0  0
  -23.7770  -14.3080   21.8160 N   0  0  0  0  0  0  0  0  0  0  0  0
  -24.2460  -16.0290   20.4800 O   0  0  0  0  0  0  0  0  0  0  0  0
  -24.0310  -13.4080   22.1950 H   0  0  0  0  0  0  0  0  0  0  0  0
  -22.9220  -14.7470   22.1270 H   0  0  0  0  0  0  0  0  0  0  0  0
  -27.3680  -16.1730   20.0160 N   0  0  0  0  0  0  0  0  0  0  0  0
  -26.7340  -16.9370   20.2180 H   0  0  0  0  0  0  0  0  0  0  0  0
  -28.2570  -16.4840   19.6470 H   0  0  0  0  0  0  0  0  0  0  0  0
  -29.1440  -24.2000   20.2390 C   0  0  0  0  0  2  0  0  0  0  0  0
  -28.6300  -25.0340   21.4260 C   0  0  0  0  0  2  0  0  0  0  0  0
  -29.1110  -26.4940   21.3720 C   0  0  0  0  0  2  0  0  0  0  0  0
  -28.6820  -27.1090   20.1580 O   0  0  0  0  0  0  0  0  0  0  0  0
  -24.7030  -32.0650   23.3830 C   0  0  0  0  0  0  0  0  0  0  0  0
  -27.4950  -27.7950   20.2280 C   0  0  0  0  0  0  0  0  0  0  0  0
  -23.5350  -30.6400   21.7300 C   0  0  0  0  0  3  0  0  0  0  0  0
  -25.0350  -29.1740   20.2770 C   0  0  0  0  0  0  0  0  0  0  0  0
  -26.0380  -31.1040   21.5150 C   0  0  0  0  0  2  0  0  0  0  0  0
  -26.1710  -29.7440   20.8670 C   0  0  0  0  0  0  0  0  0  0  0  0
  -27.4030  -29.0600   20.8480 C   0  0  0  0  0  3  0  0  0  0  0  0
  -26.3500  -27.2320   19.6290 C   0  0  0  0  0  3  0  0  0  0  0  0
  -25.1160  -27.9130   19.6580 C   0  0  0  0  0  3  0  0  0  0  0  0
  -23.7570  -29.9810   20.3410 C   0  0  0  0  0  2  0  0  0  0  0  0
  -24.7760  -31.2840   22.2690 N   0  0  0  0  0  0  0  0  0  0  0  0
  -23.6190  -32.2890   23.9380 O   0  0  0  0  0  0  0  0  0  0  0  0
  -22.9320  -29.5840   22.6820 C   0  0  0  0  0  0  0  0  0  0  0  0
  -21.6330  -29.2910   22.5050 N   0  0  0  0  0  0  0  0  0  0  0  0
  -23.6310  -29.0260   23.5340 O   0  0  0  0  0  0  0  0  0  0  0  0
  -21.1290  -29.7970   21.7890 H   0  0  0  0  0  0  0  0  0  0  0  0
  -18.3650  -27.7930   22.8390 C   0  0  0  0  0  0  0  0  0  0  0  0
  -20.8630  -28.3020   23.2570 C   0  0  0  0  0  3  0  0  0  0  0  0
  -21.1380  -26.8730   22.7370 C   0  0  0  0  0  2  0  0  0  0  0  0
  -20.1370  -26.4170   21.6700 C   0  0  0  0  0  2  0  0  0  0  0  0
  -18.7100  -26.4480   22.2240 C   0  0  0  0  0  2  0  0  0  0  0  0
  -19.3780  -28.6700   23.3100 C   0  0  0  0  0  0  0  0  0  0  0  0
  -19.0050  -29.9240   23.8420 C   0  0  0  0  0  3  0  0  0  0  0  0
  -17.6520  -30.3040   23.9110 C   0  0  0  0  0  3  0  0  0  0  0  0
  -16.6530  -29.4260   23.4580 C   0  0  0  0  0  3  0  0  0  0  0  0
  -17.0090  -28.1730   22.9270 C   0  0  0  0  0  3  0  0  0  0  0  0
  -25.9740  -32.7310   24.0000 C   0  0  0  0  0  3  0  0  0  0  0  0
  -25.6580  -34.1450   24.2420 N   0  0  0  0  0  0  0  0  0  0  0  0
  -26.0220  -35.1530   23.4380 C   0  0  0  0  0  0  0  0  0  0  0  0
  -26.7340  -34.9920   22.4410 O   0  0  0  0  0  0  0  0  0  0  0  0
  -25.0330  -34.3440   25.0090 H   0  0  0  0  0  0  0  0  0  0  0  0
  -24.3150  -36.9220   22.9110 C   0  0  0  0  0  1  0  0  0  0  0  0
  -25.5200  -36.5640   23.7970 C   0  0  0  0  0  3  0  0  0  0  0  0
  -27.6270  -37.4820   24.6600 C   0  0  0  0  0  1  0  0  0  0  0  0
  -26.5580  -37.6090   23.6710 N   0  0  0  0  0  0  0  0  0  0  0  0
  -26.1510  -38.5350   23.7630 H   0  0  0  0  0  0  0  0  0  0  0  0
  -26.4610  -32.0330   25.3280 C   0  0  1  0  0  0  0  0  0  0  0  0
  -25.3320  -31.8000   26.3590 C   0  0  0  0  0  1  0  0  0  0  0  0
  -27.1070  -30.6620   25.0160 C   0  0  0  0  0  1  0  0  0  0  0  0
  -27.5540  -32.8930   26.0040 C   0  0  0  0  0  1  0  0  0  0  0  0
  1  3  1  0
  3 53  1  0
  3  2  2  0
  4  7  1  0
  4  1  2  0
  5  9  1  0
  5  2  1  0
  6  4  1  0
  7  5  2  0
  9  8  1  0
 10  9  1  0
 13 11  1  6
 12 13  1  0
 13 10  1  0
 13 14  1  0
 14 23  1  0
 15 23  1  0
 15 21  1  0
 16 21  1  0
 17 18  1  0
 17 16  1  0
 19 18  1  0
 19 28  1  0
 19 20  1  0
 21 20  1  0
 22 15  2  0
 23 24  1  0
 25 26  2  0
 26 45  1  0
 27 26  1  0
 27 30  1  0
 28 29  1  0
 28 25  1  0
 29 27  2  0
 30 31  1  0
 31 32  2  0
 33 36  1  0
 33 32  1  0
 34 33  2  0
 35 34  1  0
 35 30  2  0
 36 37  1  0
 37 38  1  0
 38 39  2  0
 40 39  1  0
 40 44  1  0
 41 40  2  0
 42 37  2  0
 42 41  1  0
 43 42  1  0
 45 46  1  0
 46 49  1  0
 46 48  1  0
 47 45  2  0
 50 25  1  0
 50 51  1  0
 52 50  1  0
 53 54  1  0
 55 54  1  0
 56 58  1  0
 56 55  1  0
 57 68  2  0
 58 63  1  0
 59 67  1  0
 59 69  1  0
 60 66  1  0
 60 62  1  0
 61 67  1  0
 62 61  1  0
 63 62  2  0
 64 65  1  0
 64 58  2  0
 65 60  2  0
 66 59  1  0
 67 57  1  0
 69 71  2  0
 70 69  1  0
 72 70  1  0
 73 82  2  0
 73 78  1  0
 74 70  1  0
 74 78  1  0
 75 74  1  0
 76 77  1  0
 76 75  1  0
 77 73  1  0
 78 79  2  0
 79 80  1  0
 81 80  2  0
 82 81  1  0
 83 57  1  0
 83 84  1  0
 83 93  1  0
 84 87  1  0
 85 89  1  0
 85 84  1  0
 86 85  2  0
 89 88  1  0
 91 92  1  0
 91 89  1  0
 91 90  1  0
 93 96  1  1
 93 94  1  0
 95 93  1  0
M  ISO  4  15 100  23 100  55 101  56 101
M  END
>  <TORSDO>  (36) 
F 23

>  <SCORE>  (36) 
-8.334

>  <name>  (36) 
35

>  <ligand_id>  (36) 
35

>  <original_smiles>  (36) 
[H]c1c([H])c([H])c2c(c1[H])C([H])([H])C([H])([H])C([H])([H])C2([H])N([H])C(=O)C1([H])N(C(=O)C([H])(N([H])C(=O)C([H])(N([H])C([H])([H])[H])C([H])([H])[H])C(C([H])([H])[H])(C([H])([H])[H])C([H])([H])[H])C([H])([H])c2c([H])c(OC([H])([H])C([H])([H])C([H])([H])c3c([H])c(C([H])([H])[H])nc(C([H])(C([H])([H])[H])C([H])([H])C(C([H])([H])[H])(C([H])([H])[H])C([H])([H])N([H])C(=O)N4C([H])([H])C([H])([H])C([H])([H])C([H])(n5nc(-c6c([H])c([H])c(Oc7c([H])c([H])c(F)c([H])c7F)c([H])c6[H])c(C(=O)N([H])[H])c5N([H])[H])C4([H])[H])c3[H])c([H])c([H])c2C1([H])[H]

>  <smiles>  (36) 
[H]c1c([H])c([H])c2c(c1[H])C([H])([H])C([H])([H])C([H])([H])C2([H])N([H])C(=O)C1([H])N(C(=O)C([H])(N([H])C(=O)C([H])(N([H])C([H])([H])[H])C([H])([H])[H])C(C([H])([H])[H])(C([H])([H])[H])C([H])([H])[H])C([H])([H])c2c([H])c(OC([H])([H])C([H])([H])C([H])([H])c3c([H])c(C([H])([H])[H])nc(C([H])(C([H])([H])[H])C([H])([H])C(C([H])([H])[H])(C([H])([H])[H])C([H])([H])N([H])C(=O)N4C([H])([H])C([H])([H])C([H])([H])C([H])(n5nc(-c6c([H])c([H])c(Oc7c([H])c([H])c(F)c([H])c7F)c([H])c6[H])c(C(=O)N([H])[H])c5N([H])[H])C4([H])[H])c3[H])c([H])c([H])c2C1([H])[H]

$$$$
36:0:0
     RDKit          3D

 87 95  0  0  1  0  0  0  0  0999 V2000
  -28.5950  -21.2670   19.5020 C   0  0  0  0  0  2  0  0  0  0  0  0
  -28.4840  -17.0720   19.8860 C   0  0  0  0  0  3  0  0  0  0  0  0
  -30.6660  -17.8180   19.9240 C   0  0  0  0  0  3  0  0  0  0  0  0
  -29.8530  -16.6160   19.8780 C   0  0  0  0  0  0  0  0  0  0  0  0
  -28.0610  -18.4900   19.8730 C   0  0  0  0  0  0  0  0  0  0  0  0
  -28.9700  -19.6330   19.8840 C   0  0  0  0  0  0  0  0  0  0  0  0
  -26.5540  -18.7200   19.8010 C   0  0  0  0  0  1  0  0  0  0  0  0
  -30.2770  -19.1790   19.9130 N   0  0  0  0  0  0  0  0  0  0  0  0
  -30.4800  -15.0860   19.8680 C   0  0  0  0  0  0  0  0  0  0  0  0
  -30.3450  -12.6400   19.1180 C   0  0  0  0  0  2  0  0  0  0  0  0
  -29.3950  -12.4610   17.9120 C   0  0  0  0  0  2  0  0  0  0  0  0
  -27.9500  -12.2380   18.3960 C   0  0  0  0  0  2  0  0  0  0  0  0
  -27.5470  -13.2260   19.5230 C   0  0  0  0  0  3  0  0  0  0  0  0
  -28.6360  -13.3950   20.6000 C   0  0  0  0  0  2  0  0  0  0  0  0
  -29.8640  -13.8170   19.9200 N   0  0  0  0  0  0  0  0  0  0  0  0
  -31.6810  -15.0190   19.5790 O   0  0  0  0  0  0  0  0  0  0  0  0
  -25.2380  -13.7890   20.4520 C   0  0  0  0  0  0  0  0  0  0  0  0
  -24.1960  -13.0130   20.8780 C   0  0  0  0  0  0  0  0  0  0  0  0
  -24.6380  -11.6580   20.7650 C   0  0  0  0  0  0  0  0  0  0  0  0
  -26.2470  -12.9110   20.1030 N   0  0  0  0  0  0  0  0  0  0  0  0
  -25.9050  -11.6210   20.3620 N   0  0  0  0  0  0  0  0  0  0  0  0
  -23.9020  -10.4010   20.9570 C   0  0  0  0  0  0  0  0  0  0  0  0
  -24.3340   -9.4220   21.8790 C   0  0  0  0  0  3  0  0  0  0  0  0
  -23.5960   -8.2320   22.0610 C   0  0  0  0  0  3  0  0  0  0  0  0
  -22.4110   -8.0110   21.3190 C   0  0  0  0  0  0  0  0  0  0  0  0
  -21.9960   -8.9780   20.3870 C   0  0  0  0  0  3  0  0  0  0  0  0
  -22.7360  -10.1600   20.2020 C   0  0  0  0  0  3  0  0  0  0  0  0
  -21.6430   -6.8750   21.4120 O   0  0  0  0  0  0  0  0  0  0  0  0
  -21.5380   -6.1690   22.5840 C   0  0  0  0  0  0  0  0  0  0  0  0
  -21.0370   -6.7560   23.7680 C   0  0  0  0  0  3  0  0  0  0  0  0
  -20.8820   -5.9740   24.9300 C   0  0  0  0  0  3  0  0  0  0  0  0
  -21.2190   -4.6070   24.9100 C   0  0  0  0  0  0  0  0  0  0  0  0
  -21.7150   -4.0200   23.7330 C   0  0  0  0  0  3  0  0  0  0  0  0
  -21.8720   -4.7990   22.5740 C   0  0  0  0  0  0  0  0  0  0  0  0
  -22.3270   -4.2230   21.4360 F   0  0  0  0  0  0  0  0  0  0  0  0
  -21.0640   -3.8550   26.0250 F   0  0  0  0  0  0  0  0  0  0  0  0
  -22.8260  -13.5000   21.2510 C   0  0  0  0  0  0  0  0  0  0  0  0
  -22.1470  -12.7980   22.1520 N   0  0  0  0  0  0  0  0  0  0  0  0
  -22.3670  -14.5390   20.7770 O   0  0  0  0  0  0  0  0  0  0  0  0
  -22.5370  -11.9620   22.5660 H   0  0  0  0  0  0  0  0  0  0  0  0
  -21.2270  -13.1030   22.4380 H   0  0  0  0  0  0  0  0  0  0  0  0
  -25.4020  -15.1620   20.3000 N   0  0  0  0  0  0  0  0  0  0  0  0
  -24.6040  -15.7800   20.4090 H   0  0  0  0  0  0  0  0  0  0  0  0
  -26.1200  -15.5560   19.7060 H   0  0  0  0  0  0  0  0  0  0  0  0
  -28.7080  -22.8230   20.2990 C   0  0  0  0  0  3  0  0  0  0  0  0
  -28.0630  -24.3810   19.7830 C   0  0  0  0  0  3  0  0  0  0  0  0
  -28.2020  -25.9050   20.3060 O   0  0  0  0  0  0  0  0  0  0  0  0
  -24.6060  -31.7710   23.2190 C   0  0  0  0  0  0  0  0  0  0  0  0
  -27.2000  -26.9770   20.1910 C   0  0  0  0  0  0  0  0  0  0  0  0
  -23.4410  -30.4050   21.5320 C   0  0  0  0  0  3  0  0  0  0  0  0
  -24.9120  -28.8280   20.1160 C   0  0  0  0  0  0  0  0  0  0  0  0
  -26.0080  -30.6190   21.4480 C   0  0  0  0  0  2  0  0  0  0  0  0
  -26.0820  -29.2260   20.7750 C   0  0  0  0  0  0  0  0  0  0  0  0
  -27.2210  -28.3160   20.7950 C   0  0  0  0  0  3  0  0  0  0  0  0
  -26.0080  -26.7180   19.4740 C   0  0  0  0  0  3  0  0  0  0  0  0
  -24.8950  -27.5930   19.4500 C   0  0  0  0  0  3  0  0  0  0  0  0
  -23.6970  -29.7490   20.1470 C   0  0  0  0  0  2  0  0  0  0  0  0
  -24.7040  -30.9570   22.1210 N   0  0  0  0  0  0  0  0  0  0  0  0
  -23.5080  -32.0540   23.7250 O   0  0  0  0  0  0  0  0  0  0  0  0
  -22.7320  -29.3900   22.4650 C   0  0  0  0  0  0  0  0  0  0  0  0
  -21.4010  -29.2450   22.3240 N   0  0  0  0  0  0  0  0  0  0  0  0
  -23.3810  -28.7360   23.2860 O   0  0  0  0  0  0  0  0  0  0  0  0
  -20.9310  -29.8240   21.6420 H   0  0  0  0  0  0  0  0  0  0  0  0
  -17.9880  -28.1150   22.8060 C   0  0  0  0  0  0  0  0  0  0  0  0
  -20.5560  -28.3040   23.0650 C   0  0  0  0  0  3  0  0  0  0  0  0
  -20.6160  -26.8890   22.4410 C   0  0  0  0  0  2  0  0  0  0  0  0
  -19.5020  -26.6310   21.4230 C   0  0  0  0  0  2  0  0  0  0  0  0
  -18.1270  -26.7870   22.0780 C   0  0  0  0  0  2  0  0  0  0  0  0
  -19.1280  -28.8350   23.2540 C   0  0  0  0  0  0  0  0  0  0  0  0
  -18.9400  -30.0780   23.8970 C   0  0  0  0  0  3  0  0  0  0  0  0
  -17.6490  -30.6030   24.0910 C   0  0  0  0  0  3  0  0  0  0  0  0
  -16.5240  -29.8810   23.6520 C   0  0  0  0  0  3  0  0  0  0  0  0
  -16.6950  -28.6380   23.0180 C   0  0  0  0  0  3  0  0  0  0  0  0
  -25.8670  -32.3970   23.8860 C   0  0  0  0  0  3  0  0  0  0  0  0
  -26.3200  -31.6350   25.1950 C   0  0  1  0  0  0  0  0  0  0  0  0
  -25.1770  -31.4240   26.2160 C   0  0  0  0  0  1  0  0  0  0  0  0
  -26.9040  -30.2460   24.8490 C   0  0  0  0  0  1  0  0  0  0  0  0
  -27.4490  -32.4260   25.8970 C   0  0  0  0  0  1  0  0  0  0  0  0
  -25.5640  -33.8050   24.1990 N   0  0  0  0  0  0  0  0  0  0  0  0
  -25.9070  -34.8490   23.4330 C   0  0  0  0  0  0  0  0  0  0  0  0
  -26.5750  -34.7300   22.4030 O   0  0  0  0  0  0  0  0  0  0  0  0
  -24.9780  -33.9690   25.0030 H   0  0  0  0  0  0  0  0  0  0  0  0
  -24.1850  -36.6530   23.0790 C   0  0  0  0  0  1  0  0  0  0  0  0
  -25.4330  -36.2480   23.8800 C   0  0  0  0  0  3  0  0  0  0  0  0
  -27.5770  -37.1410   24.6830 C   0  0  0  0  0  1  0  0  0  0  0  0
  -26.4720  -37.2930   23.7420 N   0  0  0  0  0  0  0  0  0  0  0  0
  -26.0700  -38.2190   23.8710 H   0  0  0  0  0  0  0  0  0  0  0  0
  1  6  1  0
  1 45  1  0
  4  2  1  0
  4  3  2  0
  5  6  1  0
  5  2  2  0
  6  8  2  0
  7  5  1  0
  8  3  1  0
  9  4  1  0
  9 15  1  0
 10 15  1  0
 11 12  1  0
 11 10  1  0
 13 12  1  0
 13 20  1  0
 13 14  1  0
 15 14  1  0
 16  9  2  0
 17 18  2  0
 18 37  1  0
 19 18  1  0
 19 22  1  0
 20 21  1  0
 20 17  1  0
 21 19  2  0
 22 23  1  0
 23 24  2  0
 25 28  1  0
 25 24  1  0
 26 25  2  0
 27 26  1  0
 27 22  2  0
 28 29  1  0
 29 30  1  0
 30 31  2  0
 32 31  1  0
 32 36  1  0
 33 32  2  0
 34 29  2  0
 34 33  1  0
 35 34  1  0
 37 38  1  0
 38 41  1  0
 38 40  1  0
 39 37  2  0
 42 43  1  0
 42 17  1  0
 44 42  1  0
 46 45  2  0
 46 47  1  0
 48 59  2  0
 49 47  1  0
 49 54  1  0
 50 58  1  0
 50 60  1  0
 51 57  1  0
 51 53  1  0
 52 58  1  0
 53 54  2  0
 53 52  1  0
 55 49  2  0
 56 55  1  0
 56 51  2  0
 57 50  1  0
 58 48  1  0
 60 62  2  0
 61 60  1  0
 63 61  1  0
 64 73  2  0
 64 69  1  0
 65 61  1  0
 65 69  1  0
 66 65  1  0
 67 68  1  0
 67 66  1  0
 68 64  1  0
 69 70  2  0
 70 71  1  0
 72 71  2  0
 73 72  1  0
 74 48  1  0
 74 79  1  0
 74 75  1  0
 75 78  1  1
 75 76  1  0
 77 75  1  0
 79 82  1  0
 80 84  1  0
 80 79  1  0
 81 80  2  0
 84 83  1  0
 86 87  1  0
 86 84  1  0
 86 85  1  0
M  ISO  4   4 100   9 100  46 101  47 101
M  END
>  <TORSDO>  (37) 
F 19

>  <SCORE>  (37) 
-15.245

>  <name>  (37) 
36

>  <ligand_id>  (37) 
36

>  <original_smiles>  (37) 
[H]c1nc(C([H])([H])C([H])([H])C([H])([H])Oc2c([H])c([H])c3c(c2[H])C([H])([H])N(C(=O)C([H])(N([H])C(=O)C([H])(N([H])C([H])([H])[H])C([H])([H])[H])C(C([H])([H])[H])(C([H])([H])[H])C([H])([H])[H])C([H])(C(=O)N([H])C2([H])c4c([H])c([H])c([H])c([H])c4C([H])([H])C([H])([H])C2([H])[H])C3([H])[H])c(C([H])([H])[H])c([H])c1C(=O)N1C([H])([H])C([H])([H])C([H])([H])C([H])(n2nc(-c3c([H])c([H])c(Oc4c([H])c([H])c(F)c([H])c4F)c([H])c3[H])c(C(=O)N([H])[H])c2N([H])[H])C1([H])[H]

>  <smiles>  (37) 
[H]c1nc(C([H])([H])C([H])([H])C([H])([H])Oc2c([H])c([H])c3c(c2[H])C([H])([H])N(C(=O)C([H])(N([H])C(=O)C([H])(N([H])C([H])([H])[H])C([H])([H])[H])C(C([H])([H])[H])(C([H])([H])[H])C([H])([H])[H])C([H])(C(=O)N([H])C2([H])c4c([H])c([H])c([H])c([H])c4C([H])([H])C([H])([H])C2([H])[H])C3([H])[H])c(C([H])([H])[H])c([H])c1C(=O)N1C([H])([H])C([H])([H])C([H])([H])C([H])(n2nc(-c3c([H])c([H])c(Oc4c([H])c([H])c(F)c([H])c4F)c([H])c3[H])c(C(=O)N([H])[H])c2N([H])[H])C1([H])[H]

$$$$
37:0:0
     RDKit          3D

 93101  0  0  1  0  0  0  0  0999 V2000
  -29.7520  -21.0060   21.4010 C   0  0  0  0  0  3  0  0  0  0  0  0
  -29.6650  -19.8820   20.6070 C   0  0  0  0  0  0  0  0  0  0  0  0
  -28.5390  -21.5520   19.6280 C   0  0  0  0  0  3  0  0  0  0  0  0
  -27.6910  -22.2670   18.6260 C   0  0  0  0  0  1  0  0  0  0  0  0
  -29.0520  -22.0180   20.7820 N   0  0  0  0  0  0  0  0  0  0  0  0
  -28.9120  -20.2710   19.5300 N   0  0  0  0  0  0  0  0  0  0  0  0
  -28.6470  -19.6660   18.7600 H   0  0  0  0  0  0  0  0  0  0  0  0
  -29.8360  -17.9800   22.2030 C   0  0  0  0  0  1  0  0  0  0  0  0
  -30.1440  -18.4570   20.7760 C   0  0  0  0  0  3  0  0  0  0  0  0
  -31.6440  -18.2730   20.4280 C   0  0  0  0  0  2  0  0  0  0  0  0
  -31.9800  -17.0340   19.5670 C   0  0  0  0  0  2  0  0  0  0  0  0
  -32.2530  -14.5800   19.8500 C   0  0  0  0  0  0  0  0  0  0  0  0
  -31.7940  -12.2700   19.1340 C   0  0  0  0  0  2  0  0  0  0  0  0
  -30.8360  -12.3160   17.9260 C   0  0  0  0  0  2  0  0  0  0  0  0
  -29.3660  -12.3660   18.3880 C   0  0  0  0  0  2  0  0  0  0  0  0
  -29.1160  -13.4300   19.4900 C   0  0  0  0  0  3  0  0  0  0  0  0
  -30.1870  -13.3440   20.6040 C   0  0  0  0  0  2  0  0  0  0  0  0
  -31.5120  -13.4470   19.9730 N   0  0  0  0  0  0  0  0  0  0  0  0
  -33.3660  -14.5920   19.3170 O   0  0  0  0  0  0  0  0  0  0  0  0
  -31.6200  -15.7290   20.1530 N   0  0  0  0  0  0  0  0  0  0  0  0
  -30.7110  -15.6400   20.5810 H   0  0  0  0  0  0  0  0  0  0  0  0
  -26.8830  -14.3400   20.3900 C   0  0  0  0  0  0  0  0  0  0  0  0
  -25.7290  -13.7150   20.7760 C   0  0  0  0  0  0  0  0  0  0  0  0
  -25.9670  -12.3160   20.6220 C   0  0  0  0  0  0  0  0  0  0  0  0
  -27.7620  -13.3300   20.0320 N   0  0  0  0  0  0  0  0  0  0  0  0
  -27.2150  -12.1030   20.2260 N   0  0  0  0  0  0  0  0  0  0  0  0
  -25.0620  -11.1680   20.7740 C   0  0  0  0  0  0  0  0  0  0  0  0
  -25.3500  -10.1130   21.6680 C   0  0  0  0  0  3  0  0  0  0  0  0
  -24.4560   -9.0290   21.8070 C   0  0  0  0  0  3  0  0  0  0  0  0
  -23.2610   -8.9910   21.0510 C   0  0  0  0  0  0  0  0  0  0  0  0
  -22.9900  -10.0320   20.1460 C   0  0  0  0  0  3  0  0  0  0  0  0
  -23.8820  -11.1080   20.0040 C   0  0  0  0  0  3  0  0  0  0  0  0
  -22.3470   -7.9670   21.1030 O   0  0  0  0  0  0  0  0  0  0  0  0
  -22.1070   -7.2730   22.2620 C   0  0  0  0  0  0  0  0  0  0  0  0
  -21.6610   -7.9160   23.4370 C   0  0  0  0  0  3  0  0  0  0  0  0
  -21.3620   -7.1550   24.5850 C   0  0  0  0  0  3  0  0  0  0  0  0
  -21.4970   -5.7540   24.5570 C   0  0  0  0  0  0  0  0  0  0  0  0
  -21.9340   -5.1120   23.3860 C   0  0  0  0  0  3  0  0  0  0  0  0
  -22.2350   -5.8700   22.2410 C   0  0  0  0  0  0  0  0  0  0  0  0
  -22.6370   -5.2450   21.1090 F   0  0  0  0  0  0  0  0  0  0  0  0
  -21.2010   -5.0230   25.6570 F   0  0  0  0  0  0  0  0  0  0  0  0
  -24.4400  -14.3780   21.1700 C   0  0  0  0  0  0  0  0  0  0  0  0
  -23.6710  -13.7530   22.0570 N   0  0  0  0  0  0  0  0  0  0  0  0
  -24.1300  -15.4840   20.7260 O   0  0  0  0  0  0  0  0  0  0  0  0
  -23.9320  -12.8550   22.4360 H   0  0  0  0  0  0  0  0  0  0  0  0
  -22.8070  -14.1790   22.3600 H   0  0  0  0  0  0  0  0  0  0  0  0
  -27.2560  -15.6780   20.2920 N   0  0  0  0  0  0  0  0  0  0  0  0
  -26.5950  -16.4280   20.4640 H   0  0  0  0  0  0  0  0  0  0  0  0
  -28.1160  -15.9960   19.8640 H   0  0  0  0  0  0  0  0  0  0  0  0
  -28.7830  -23.3660   21.3440 C   0  0  0  0  0  2  0  0  0  0  0  0
  -29.1330  -24.5820   20.4490 C   0  0  0  0  0  2  0  0  0  0  0  0
  -29.0100  -25.9210   21.2140 C   0  0  0  0  0  2  0  0  0  0  0  0
  -28.9960  -27.0620   20.3490 O   0  0  0  0  0  0  0  0  0  0  0  0
  -24.6770  -31.8670   23.3520 C   0  0  0  0  0  0  0  0  0  0  0  0
  -27.7950  -27.7280   20.3100 C   0  0  0  0  0  0  0  0  0  0  0  0
  -23.6730  -30.4630   21.5790 C   0  0  0  0  0  3  0  0  0  0  0  0
  -25.3150  -29.0700   20.2070 C   0  0  0  0  0  0  0  0  0  0  0  0
  -26.1770  -30.9830   21.5690 C   0  0  0  0  0  2  0  0  0  0  0  0
  -26.3930  -29.6450   20.8930 C   0  0  0  0  0  0  0  0  0  0  0  0
  -27.6370  -28.9800   20.9460 C   0  0  0  0  0  3  0  0  0  0  0  0
  -26.7050  -27.1610   19.6190 C   0  0  0  0  0  3  0  0  0  0  0  0
  -25.4640  -27.8250   19.5680 C   0  0  0  0  0  3  0  0  0  0  0  0
  -24.0190  -29.8510   20.1940 C   0  0  0  0  0  2  0  0  0  0  0  0
  -24.8550  -31.1180   22.2270 N   0  0  0  0  0  0  0  0  0  0  0  0
  -23.5480  -32.0530   23.8260 O   0  0  0  0  0  0  0  0  0  0  0  0
  -23.0240  -29.3680   22.4540 C   0  0  0  0  0  0  0  0  0  0  0  0
  -21.7130  -29.1480   22.2620 N   0  0  0  0  0  0  0  0  0  0  0  0
  -23.6970  -28.7210   23.2620 O   0  0  0  0  0  0  0  0  0  0  0  0
  -21.2310  -29.7290   21.5910 H   0  0  0  0  0  0  0  0  0  0  0  0
  -18.3510  -27.8760   22.6200 C   0  0  0  0  0  0  0  0  0  0  0  0
  -20.9020  -28.1390   22.9430 C   0  0  0  0  0  3  0  0  0  0  0  0
  -21.0290  -26.7620   22.2500 C   0  0  0  0  0  2  0  0  0  0  0  0
  -19.9420  -26.5110   21.2010 C   0  0  0  0  0  2  0  0  0  0  0  0
  -18.5520  -26.5870   21.8390 C   0  0  0  0  0  2  0  0  0  0  0  0
  -19.4560  -28.6120   23.1250 C   0  0  0  0  0  0  0  0  0  0  0  0
  -19.2150  -29.8180   23.8160 C   0  0  0  0  0  3  0  0  0  0  0  0
  -17.9040  -30.2900   24.0070 C   0  0  0  0  0  3  0  0  0  0  0  0
  -16.8130  -29.5510   23.5170 C   0  0  0  0  0  3  0  0  0  0  0  0
  -17.0380  -28.3440   22.8310 C   0  0  0  0  0  3  0  0  0  0  0  0
  -25.8790  -32.5450   24.0830 C   0  0  0  0  0  3  0  0  0  0  0  0
  -25.5090  -33.9440   24.3380 N   0  0  0  0  0  0  0  0  0  0  0  0
  -25.8930  -34.9810   23.5830 C   0  0  0  0  0  0  0  0  0  0  0  0
  -26.6630  -34.8660   22.6260 O   0  0  0  0  0  0  0  0  0  0  0  0
  -24.8380  -34.1060   25.0740 H   0  0  0  0  0  0  0  0  0  0  0  0
  -24.1660  -36.7150   23.0010 C   0  0  0  0  0  1  0  0  0  0  0  0
  -25.3290  -36.3680   23.9450 C   0  0  0  0  0  3  0  0  0  0  0  0
  -27.3510  -37.3310   24.9540 C   0  0  0  0  0  1  0  0  0  0  0  0
  -26.3420  -37.4450   23.9030 N   0  0  0  0  0  0  0  0  0  0  0  0
  -25.9030  -38.3570   23.9820 H   0  0  0  0  0  0  0  0  0  0  0  0
  -26.2820  -31.8190   25.4250 C   0  0  1  0  0  0  0  0  0  0  0  0
  -25.0860  -31.5390   26.3630 C   0  0  0  0  0  1  0  0  0  0  0  0
  -26.9750  -30.4680   25.1270 C   0  0  0  0  0  1  0  0  0  0  0  0
  -27.3050  -32.6810   26.2010 C   0  0  0  0  0  1  0  0  0  0  0  0
  2  9  1  0
  2  1  2  0
  3  4  1  0
  3  5  1  0
  5 50  1  0
  5  1  1  0
  6  3  1  0
  6  2  1  0
  7  6  1  0
  9  8  1  0
 10  9  1  0
 11 20  1  0
 11 10  1  0
 12 18  1  0
 12 20  1  0
 13 18  1  0
 14 15  1  0
 14 13  1  0
 16 15  1  0
 16 25  1  0
 16 17  1  0
 18 17  1  0
 19 12  2  0
 20 21  1  0
 22 23  2  0
 23 42  1  0
 24 27  1  0
 24 23  1  0
 25 26  1  0
 25 22  1  0
 26 24  2  0
 27 28  1  0
 28 29  2  0
 30 33  1  0
 30 29  1  0
 31 30  2  0
 32 31  1  0
 32 27  2  0
 33 34  1  0
 34 35  1  0
 35 36  2  0
 37 36  1  0
 37 41  1  0
 38 37  2  0
 39 34  2  0
 39 38  1  0
 40 39  1  0
 42 43  1  0
 43 46  1  0
 43 45  1  0
 44 42  2  0
 47 22  1  0
 47 48  1  0
 49 47  1  0
 51 52  1  0
 51 50  1  0
 53 52  1  0
 54 65  2  0
 55 53  1  0
 55 60  1  0
 56 64  1  0
 56 66  1  0
 57 59  1  0
 58 64  1  0
 59 60  2  0
 59 58  1  0
 61 55  2  0
 62 61  1  0
 62 57  2  0
 63 57  1  0
 63 56  1  0
 64 54  1  0
 66 68  2  0
 67 66  1  0
 69 67  1  0
 70 79  2  0
 70 75  1  0
 71 67  1  0
 71 75  1  0
 72 71  1  0
 73 74  1  0
 73 72  1  0
 74 70  1  0
 75 76  2  0
 76 77  1  0
 78 77  2  0
 79 78  1  0
 80 54  1  0
 80 81  1  0
 80 90  1  0
 81 84  1  0
 82 86  1  0
 82 81  1  0
 83 82  2  0
 86 85  1  0
 88 86  1  0
 88 89  1  0
 88 87  1  0
 90 93  1  1
 90 91  1  0
 92 90  1  0
M  ISO  4  12 100  20 100  52 101  53 101
M  END
>  <TORSDO>  (38) 
F 22

>  <SCORE>  (38) 
-11.005

>  <name>  (38) 
37

>  <ligand_id>  (38) 
37

>  <original_smiles>  (38) 
[H]c1c([H])c([H])c2c(c1[H])C([H])([H])C([H])([H])C([H])([H])C2([H])N([H])C(=O)C1([H])N(C(=O)C([H])(N([H])C(=O)C([H])(N([H])C([H])([H])[H])C([H])([H])[H])C(C([H])([H])[H])(C([H])([H])[H])C([H])([H])[H])C([H])([H])c2c([H])c(OC([H])([H])C([H])([H])C([H])([H])n3c([H])c(C([H])(C([H])([H])[H])C([H])([H])C([H])([H])N([H])C(=O)N4C([H])([H])C([H])([H])C([H])([H])C([H])(n5nc(-c6c([H])c([H])c(Oc7c([H])c([H])c(F)c([H])c7F)c([H])c6[H])c(C(=O)N([H])[H])c5N([H])[H])C4([H])[H])[n+]([H])c3C([H])([H])[H])c([H])c([H])c2C1([H])[H]

>  <smiles>  (38) 
[H]c1c([H])c([H])c2c(c1[H])C([H])([H])C([H])([H])C([H])([H])C2([H])N([H])C(=O)C1([H])N(C(=O)C([H])(N([H])C(=O)C([H])(N([H])C([H])([H])[H])C([H])([H])[H])C(C([H])([H])[H])(C([H])([H])[H])C([H])([H])[H])C([H])([H])c2c([H])c(OC([H])([H])C([H])([H])C([H])([H])n3c([H])c(C([H])(C([H])([H])[H])C([H])([H])C([H])([H])N([H])C(=O)N4C([H])([H])C([H])([H])C([H])([H])C([H])(n5nc(-c6c([H])c([H])c(Oc7c([H])c([H])c(F)c([H])c7F)c([H])c6[H])c(C(=O)N([H])[H])c5N([H])[H])C4([H])[H])[n+]([H])c3C([H])([H])[H])c([H])c([H])c2C1([H])[H]

$$$$
38:0:0
     RDKit          3D

 96104  0  0  1  0  0  0  0  0999 V2000
  -30.5400  -22.5380   20.6710 C   0  0  0  0  0  3  0  0  0  0  0  0
  -29.1810  -20.5480   20.6530 C   0  0  0  0  0  3  0  0  0  0  0  0
  -29.2670  -21.9450   20.8030 C   0  0  0  0  0  0  0  0  0  0  0  0
  -31.6500  -21.7160   20.3970 C   0  0  0  0  0  0  0  0  0  0  0  0
  -30.3410  -19.7940   20.3920 C   0  0  0  0  0  0  0  0  0  0  0  0
  -33.0340  -22.3140   20.2760 C   0  0  0  0  0  1  0  0  0  0  0  0
  -31.5560  -20.3760   20.2520 N   0  0  0  0  0  0  0  0  0  0  0  0
  -30.6570  -17.8170   18.8610 C   0  0  0  0  0  1  0  0  0  0  0  0
  -30.2570  -18.2640   20.2830 C   0  0  0  0  0  3  0  0  0  0  0  0
  -31.7370  -18.3230   22.4340 C   0  0  0  0  0  1  0  0  0  0  0  0
  -29.6930  -16.9380   22.3980 C   0  0  0  0  0  1  0  0  0  0  0  0
  -30.8580  -17.4450   21.5100 C   0  0  1  0  0  0  0  0  0  0  0  0
  -31.7480  -16.2320   21.1020 C   0  0  0  0  0  2  0  0  0  0  0  0
  -31.3510  -14.1290   19.8200 C   0  0  0  0  0  0  0  0  0  0  0  0
  -30.7810  -12.0010   18.7140 C   0  0  0  0  0  2  0  0  0  0  0  0
  -29.7820  -12.2240   17.5650 C   0  0  0  0  0  2  0  0  0  0  0  0
  -28.3310  -12.2010   18.0850 C   0  0  0  0  0  2  0  0  0  0  0  0
  -28.1290  -13.1140   19.3260 C   0  0  0  0  0  3  0  0  0  0  0  0
  -29.2330  -12.8700   20.3780 C   0  0  0  0  0  2  0  0  0  0  0  0
  -30.5470  -13.0400   19.7270 N   0  0  0  0  0  0  0  0  0  0  0  0
  -32.3540  -14.2910   19.1170 O   0  0  0  0  0  0  0  0  0  0  0  0
  -30.9970  -15.0260   20.7450 N   0  0  0  0  0  0  0  0  0  0  0  0
  -30.1670  -14.8250   21.2810 H   0  0  0  0  0  0  0  0  0  0  0  0
  -25.8460  -13.9150   20.2090 C   0  0  0  0  0  0  0  0  0  0  0  0
  -24.7450  -13.2300   20.6500 C   0  0  0  0  0  0  0  0  0  0  0  0
  -25.0860  -11.8450   20.5750 C   0  0  0  0  0  0  0  0  0  0  0  0
  -26.7930  -12.9510   19.8960 N   0  0  0  0  0  0  0  0  0  0  0  0
  -26.3410  -11.7000   20.1710 N   0  0  0  0  0  0  0  0  0  0  0  0
  -24.2700  -10.6460   20.8130 C   0  0  0  0  0  0  0  0  0  0  0  0
  -24.6620   -9.6580   21.7420 C   0  0  0  0  0  3  0  0  0  0  0  0
  -23.8520   -8.5230   21.9660 C   0  0  0  0  0  3  0  0  0  0  0  0
  -22.6350   -8.3700   21.2600 C   0  0  0  0  0  0  0  0  0  0  0  0
  -22.2590   -9.3450   20.3190 C   0  0  0  0  0  3  0  0  0  0  0  0
  -23.0690  -10.4710   20.0940 C   0  0  0  0  0  3  0  0  0  0  0  0
  -21.7960   -7.2890   21.3940 O   0  0  0  0  0  0  0  0  0  0  0  0
  -21.6980   -6.5950   22.5730 C   0  0  0  0  0  0  0  0  0  0  0  0
  -21.3360   -7.2250   23.7830 C   0  0  0  0  0  3  0  0  0  0  0  0
  -21.1820   -6.4610   24.9560 C   0  0  0  0  0  3  0  0  0  0  0  0
  -21.3780   -5.0670   24.9200 C   0  0  0  0  0  0  0  0  0  0  0  0
  -21.7330   -4.4360   23.7150 C   0  0  0  0  0  3  0  0  0  0  0  0
  -21.8900   -5.1970   22.5430 C   0  0  0  0  0  0  0  0  0  0  0  0
  -22.2110   -4.5820   21.3800 F   0  0  0  0  0  0  0  0  0  0  0  0
  -21.2220   -4.3310   26.0470 F   0  0  0  0  0  0  0  0  0  0  0  0
  -23.4170  -13.8200   21.0250 C   0  0  0  0  0  0  0  0  0  0  0  0
  -22.7060  -13.1920   21.9560 N   0  0  0  0  0  0  0  0  0  0  0  0
  -23.0220  -14.8730   20.5300 O   0  0  0  0  0  0  0  0  0  0  0  0
  -23.0360  -12.3380   22.3810 H   0  0  0  0  0  0  0  0  0  0  0  0
  -21.8170  -13.5720   22.2470 H   0  0  0  0  0  0  0  0  0  0  0  0
  -26.1150  -15.2690   20.0280 N   0  0  0  0  0  0  0  0  0  0  0  0
  -25.4200  -15.9870   20.2030 H   0  0  0  0  0  0  0  0  0  0  0  0
  -26.9790  -15.6370   19.6490 H   0  0  0  0  0  0  0  0  0  0  0  0
  -27.9910  -22.7200   21.1200 C   0  0  0  0  0  2  0  0  0  0  0  0
  -26.8510  -24.7190   22.1380 C   0  0  0  0  0  1  0  0  0  0  0  0
  -28.0880  -24.2540   21.3410 C   0  0  0  0  0  3  0  0  0  0  0  0
  -28.2580  -25.0190   19.9990 C   0  0  0  0  0  2  0  0  0  0  0  0
  -28.3180  -26.4490   20.1480 O   0  0  0  0  0  0  0  0  0  0  0  0
  -24.5670  -31.6780   23.1690 C   0  0  0  0  0  0  0  0  0  0  0  0
  -27.1490  -27.1870   20.0990 C   0  0  0  0  0  0  0  0  0  0  0  0
  -23.3570  -30.3240   21.4920 C   0  0  0  0  0  3  0  0  0  0  0  0
  -24.7930  -28.7600   20.0860 C   0  0  0  0  0  0  0  0  0  0  0  0
  -25.8970  -30.6110   21.3510 C   0  0  0  0  0  2  0  0  0  0  0  0
  -25.9540  -29.2460   20.6960 C   0  0  0  0  0  0  0  0  0  0  0  0
  -27.1350  -28.4670   20.6970 C   0  0  0  0  0  3  0  0  0  0  0  0
  -25.9630  -26.7200   19.4790 C   0  0  0  0  0  3  0  0  0  0  0  0
  -24.7930  -27.4980   19.4740 C   0  0  0  0  0  3  0  0  0  0  0  0
  -23.5740  -29.6520   20.1120 C   0  0  0  0  0  2  0  0  0  0  0  0
  -24.6240  -30.8830   22.0630 N   0  0  0  0  0  0  0  0  0  0  0  0
  -23.4820  -31.9740   23.6900 O   0  0  0  0  0  0  0  0  0  0  0  0
  -22.6600  -29.3100   22.4290 C   0  0  0  0  0  0  0  0  0  0  0  0
  -21.3320  -29.1760   22.2800 N   0  0  0  0  0  0  0  0  0  0  0  0
  -23.3100  -28.6490   23.2420 O   0  0  0  0  0  0  0  0  0  0  0  0
  -20.8700  -29.7580   21.5950 H   0  0  0  0  0  0  0  0  0  0  0  0
  -17.9100  -28.1020   22.7190 C   0  0  0  0  0  0  0  0  0  0  0  0
  -20.4710  -28.2570   23.0250 C   0  0  0  0  0  3  0  0  0  0  0  0
  -20.5260  -26.8310   22.4290 C   0  0  0  0  0  2  0  0  0  0  0  0
  -19.4260  -26.5650   21.3970 C   0  0  0  0  0  2  0  0  0  0  0  0
  -18.0420  -26.7570   22.0250 C   0  0  0  0  0  2  0  0  0  0  0  0
  -19.0500  -28.8160   23.1730 C   0  0  0  0  0  0  0  0  0  0  0  0
  -18.8740  -30.0800   23.7760 C   0  0  0  0  0  3  0  0  0  0  0  0
  -17.5870  -30.6290   23.9310 C   0  0  0  0  0  3  0  0  0  0  0  0
  -16.4590  -29.9110   23.4970 C   0  0  0  0  0  3  0  0  0  0  0  0
  -16.6210  -28.6490   22.8970 C   0  0  0  0  0  3  0  0  0  0  0  0
  -25.8560  -32.2720   23.8160 C   0  0  0  0  0  3  0  0  0  0  0  0
  -25.5780  -33.6740   24.1570 N   0  0  0  0  0  0  0  0  0  0  0  0
  -25.9430  -34.7240   23.4100 C   0  0  0  0  0  0  0  0  0  0  0  0
  -26.6230  -34.6150   22.3860 O   0  0  0  0  0  0  0  0  0  0  0  0
  -24.9960  -33.8340   24.9660 H   0  0  0  0  0  0  0  0  0  0  0  0
  -24.2590  -36.5540   23.0440 C   0  0  0  0  0  1  0  0  0  0  0  0
  -25.4790  -36.1200   23.8730 C   0  0  0  0  0  3  0  0  0  0  0  0
  -27.6190  -36.9470   24.7440 C   0  0  0  0  0  1  0  0  0  0  0  0
  -26.5370  -37.1500   23.7860 N   0  0  0  0  0  0  0  0  0  0  0  0
  -26.1490  -38.0780   23.9390 H   0  0  0  0  0  0  0  0  0  0  0  0
  -26.3340  -31.4750   25.0900 C   0  0  1  0  0  0  0  0  0  0  0  0
  -25.2180  -31.2440   26.1350 C   0  0  0  0  0  1  0  0  0  0  0  0
  -26.8960  -30.0930   24.6850 C   0  0  0  0  0  1  0  0  0  0  0  0
  -27.4910  -32.2330   25.7810 C   0  0  0  0  0  1  0  0  0  0  0  0
  1  3  1  0
  2  3  2  0
  3 52  1  0
  4  1  2  0
  5  2  1  0
  6  4  1  0
  7  5  2  0
  7  4  1  0
  9  8  1  0
  9  5  1  0
  9 12  1  0
 12 11  1  1
 12 10  1  0
 13 12  1  0
 14 22  1  0
 15 20  1  0
 16 17  1  0
 16 15  1  0
 18 17  1  0
 18 27  1  0
 18 19  1  0
 20 14  1  0
 20 19  1  0
 21 14  2  0
 22 13  1  0
 22 23  1  0
 24 25  2  0
 25 44  1  0
 26 25  1  0
 26 29  1  0
 27 28  1  0
 27 24  1  0
 28 26  2  0
 29 30  1  0
 30 31  2  0
 32 35  1  0
 32 31  1  0
 33 32  2  0
 34 33  1  0
 34 29  2  0
 35 36  1  0
 36 37  1  0
 37 38  2  0
 39 38  1  0
 39 43  1  0
 40 39  2  0
 41 36  2  0
 41 40  1  0
 42 41  1  0
 44 45  1  0
 45 48  1  0
 45 47  1  0
 46 44  2  0
 49 50  1  0
 49 24  1  0
 51 49  1  0
 52 54  1  0
 54 53  1  0
 55 56  1  0
 55 54  1  0
 57 68  2  0
 58 56  1  0
 58 63  1  0
 59 67  1  0
 59 69  1  0
 60 66  1  0
 60 62  1  0
 61 67  1  0
 62 63  2  0
 62 61  1  0
 64 58  2  0
 65 64  1  0
 65 60  2  0
 66 59  1  0
 67 57  1  0
 69 71  2  0
 70 69  1  0
 72 70  1  0
 73 82  2  0
 73 78  1  0
 74 70  1  0
 74 78  1  0
 75 74  1  0
 76 77  1  0
 76 75  1  0
 77 73  1  0
 78 79  2  0
 79 80  1  0
 81 80  2  0
 82 81  1  0
 83 57  1  0
 83 84  1  0
 83 93  1  0
 84 87  1  0
 85 89  1  0
 85 84  1  0
 86 85  2  0
 89 88  1  0
 91 89  1  0
 91 92  1  0
 91 90  1  0
 93 96  1  1
 93 94  1  0
 95 93  1  0
M  ISO  4  14 100  22 100  55 101  56 101
M  END
>  <TORSDO>  (39) 
F 22

>  <SCORE>  (39) 
-11.755

>  <name>  (39) 
38

>  <ligand_id>  (39) 
38

>  <original_smiles>  (39) 
[H]c1c([H])c([H])c2c(c1[H])C([H])([H])C([H])([H])C([H])([H])C2([H])N([H])C(=O)C1([H])N(C(=O)C([H])(N([H])C(=O)C([H])(N([H])C([H])([H])[H])C([H])([H])[H])C(C([H])([H])[H])(C([H])([H])[H])C([H])([H])[H])C([H])([H])c2c([H])c(OC([H])([H])C([H])(C([H])([H])[H])C([H])([H])c3c([H])c(C([H])([H])[H])nc(C([H])(C([H])([H])[H])C(C([H])([H])[H])(C([H])([H])[H])C([H])([H])N([H])C(=O)N4C([H])([H])C([H])([H])C([H])([H])C([H])(n5nc(-c6c([H])c([H])c(Oc7c([H])c([H])c(F)c([H])c7F)c([H])c6[H])c(C(=O)N([H])[H])c5N([H])[H])C4([H])[H])c3[H])c([H])c([H])c2C1([H])[H]

>  <smiles>  (39) 
[H]c1c([H])c([H])c2c(c1[H])C([H])([H])C([H])([H])C([H])([H])C2([H])N([H])C(=O)C1([H])N(C(=O)C([H])(N([H])C(=O)C([H])(N([H])C([H])([H])[H])C([H])([H])[H])C(C([H])([H])[H])(C([H])([H])[H])C([H])([H])[H])C([H])([H])c2c([H])c(OC([H])([H])C([H])(C([H])([H])[H])C([H])([H])c3c([H])c(C([H])([H])[H])nc(C([H])(C([H])([H])[H])C(C([H])([H])[H])(C([H])([H])[H])C([H])([H])N([H])C(=O)N4C([H])([H])C([H])([H])C([H])([H])C([H])(n5nc(-c6c([H])c([H])c(Oc7c([H])c([H])c(F)c([H])c7F)c([H])c6[H])c(C(=O)N([H])[H])c5N([H])[H])C4([H])[H])c3[H])c([H])c([H])c2C1([H])[H]

$$$$
39:0:0
     RDKit          3D

 93101  0  0  1  0  0  0  0  0999 V2000
  -29.1800  -20.3290   19.9840 C   0  0  0  0  0  3  0  0  0  0  0  0
  -29.0950  -21.6540   20.4360 C   0  0  0  0  0  3  0  0  0  0  0  0
  -30.8340  -19.9380   21.6950 C   0  0  0  0  0  3  0  0  0  0  0  0
  -30.0560  -19.4310   20.6260 C   0  0  0  0  0  0  0  0  0  0  0  0
  -29.9270  -22.0900   21.4860 C   0  0  0  0  0  0  0  0  0  0  0  0
  -30.7790  -21.2340   22.1060 N   0  0  0  0  0  0  0  0  0  0  0  0
  -31.0970  -17.8450   18.9580 C   0  0  0  0  0  1  0  0  0  0  0  0
  -30.1040  -17.9720   20.1340 C   0  0  0  0  0  3  0  0  0  0  0  0
  -30.3570  -16.9350   21.2730 C   0  0  0  0  0  2  0  0  0  0  0  0
  -30.6600  -14.5340   20.4900 C   0  0  0  0  0  0  0  0  0  0  0  0
  -30.3800  -12.3870   19.3080 C   0  0  0  0  0  2  0  0  0  0  0  0
  -29.4410  -12.6020   18.1050 C   0  0  0  0  0  2  0  0  0  0  0  0
  -27.9610  -12.4650   18.5230 C   0  0  0  0  0  2  0  0  0  0  0  0
  -27.6150  -13.2750   19.8030 C   0  0  0  0  0  3  0  0  0  0  0  0
  -28.6680  -13.0390   20.9090 C   0  0  0  0  0  2  0  0  0  0  0  0
  -29.9910  -13.3540   20.3450 N   0  0  0  0  0  0  0  0  0  0  0  0
  -31.8100  -14.7060   20.0860 O   0  0  0  0  0  0  0  0  0  0  0  0
  -29.9240  -15.5580   20.9700 N   0  0  0  0  0  0  0  0  0  0  0  0
  -28.9640  -15.3380   21.1880 H   0  0  0  0  0  0  0  0  0  0  0  0
  -25.2130  -13.8900   20.5020 C   0  0  0  0  0  0  0  0  0  0  0  0
  -24.1380  -13.1240   20.8730 C   0  0  0  0  0  0  0  0  0  0  0  0
  -24.5930  -11.7720   20.8410 C   0  0  0  0  0  0  0  0  0  0  0  0
  -26.2570  -13.0030   20.2760 N   0  0  0  0  0  0  0  0  0  0  0  0
  -25.8850  -11.7240   20.5330 N   0  0  0  0  0  0  0  0  0  0  0  0
  -23.8560  -10.5140   21.0310 C   0  0  0  0  0  0  0  0  0  0  0  0
  -24.2770   -9.5470   21.9720 C   0  0  0  0  0  3  0  0  0  0  0  0
  -23.5410   -8.3540   22.1520 C   0  0  0  0  0  3  0  0  0  0  0  0
  -22.3730   -8.1210   21.3910 C   0  0  0  0  0  0  0  0  0  0  0  0
  -21.9700   -9.0750   20.4400 C   0  0  0  0  0  3  0  0  0  0  0  0
  -22.7040  -10.2590   20.2590 C   0  0  0  0  0  3  0  0  0  0  0  0
  -21.6130   -6.9790   21.4760 O   0  0  0  0  0  0  0  0  0  0  0  0
  -21.5530   -6.2390   22.6270 C   0  0  0  0  0  0  0  0  0  0  0  0
  -21.1190   -6.7970   23.8510 C   0  0  0  0  0  3  0  0  0  0  0  0
  -21.0060   -5.9840   24.9950 C   0  0  0  0  0  3  0  0  0  0  0  0
  -21.3140   -4.6120   24.9190 C   0  0  0  0  0  0  0  0  0  0  0  0
  -21.7400   -4.0530   23.7000 C   0  0  0  0  0  3  0  0  0  0  0  0
  -21.8530   -4.8640   22.5580 C   0  0  0  0  0  0  0  0  0  0  0  0
  -22.2450   -4.3150   21.3820 F   0  0  0  0  0  0  0  0  0  0  0  0
  -21.1970   -3.8280   26.0160 F   0  0  0  0  0  0  0  0  0  0  0  0
  -22.7430  -13.6110   21.1400 C   0  0  0  0  0  0  0  0  0  0  0  0
  -22.0080  -12.9140   22.0020 N   0  0  0  0  0  0  0  0  0  0  0  0
  -22.3120  -14.6390   20.6210 O   0  0  0  0  0  0  0  0  0  0  0  0
  -22.3730  -12.0850   22.4460 H   0  0  0  0  0  0  0  0  0  0  0  0
  -21.0700  -13.2170   22.2220 H   0  0  0  0  0  0  0  0  0  0  0  0
  -25.3770  -15.2590   20.3290 N   0  0  0  0  0  0  0  0  0  0  0  0
  -24.5930  -15.8960   20.4170 H   0  0  0  0  0  0  0  0  0  0  0  0
  -26.2190  -15.7120   19.9950 H   0  0  0  0  0  0  0  0  0  0  0  0
  -29.8100  -23.5130   22.0580 C   0  0  0  0  0  2  0  0  0  0  0  0
  -29.5260  -24.6570   21.0240 C   0  0  0  0  0  2  0  0  0  0  0  0
  -27.4190  -25.5200   22.2520 C   0  0  0  0  0  1  0  0  0  0  0  0
  -29.6720  -26.7900   22.4010 C   0  0  0  0  0  1  0  0  0  0  0  0
  -28.7450  -25.9200   21.5140 C   0  0  1  0  0  0  0  0  0  0  0  0
  -28.4640  -26.6770   20.2950 O   0  0  0  0  0  0  0  0  0  0  0  0
  -24.5910  -31.8820   23.2440 C   0  0  0  0  0  0  0  0  0  0  0  0
  -27.3230  -27.4540   20.2420 C   0  0  0  0  0  0  0  0  0  0  0  0
  -23.4150  -30.4610   21.5960 C   0  0  0  0  0  3  0  0  0  0  0  0
  -24.9060  -28.9280   20.1910 C   0  0  0  0  0  0  0  0  0  0  0  0
  -25.9370  -30.8490   21.4180 C   0  0  0  0  0  2  0  0  0  0  0  0
  -26.0480  -29.4730   20.7910 C   0  0  0  0  0  0  0  0  0  0  0  0
  -27.2620  -28.7470   20.8120 C   0  0  0  0  0  3  0  0  0  0  0  0
  -26.1720  -26.9300   19.6180 C   0  0  0  0  0  3  0  0  0  0  0  0
  -24.9620  -27.6550   19.5990 C   0  0  0  0  0  3  0  0  0  0  0  0
  -23.6420  -29.7630   20.2260 C   0  0  0  0  0  2  0  0  0  0  0  0
  -24.6650  -31.0760   22.1460 N   0  0  0  0  0  0  0  0  0  0  0  0
  -23.5050  -32.1500   23.7740 O   0  0  0  0  0  0  0  0  0  0  0  0
  -22.7570  -29.4470   22.5630 C   0  0  0  0  0  0  0  0  0  0  0  0
  -21.4330  -29.2700   22.4410 N   0  0  0  0  0  0  0  0  0  0  0  0
  -23.4390  -28.8220   23.3800 O   0  0  0  0  0  0  0  0  0  0  0  0
  -20.9430  -29.8230   21.7520 H   0  0  0  0  0  0  0  0  0  0  0  0
  -18.0540  -28.0870   22.9410 C   0  0  0  0  0  0  0  0  0  0  0  0
  -20.6130  -28.3300   23.2060 C   0  0  0  0  0  3  0  0  0  0  0  0
  -20.7070  -26.9040   22.6180 C   0  0  0  0  0  2  0  0  0  0  0  0
  -19.6010  -26.5930   21.6060 C   0  0  0  0  0  2  0  0  0  0  0  0
  -18.2210  -26.7400   22.2550 C   0  0  0  0  0  2  0  0  0  0  0  0
  -19.1760  -28.8420   23.3730 C   0  0  0  0  0  0  0  0  0  0  0  0
  -18.9660  -30.1030   23.9730 C   0  0  0  0  0  3  0  0  0  0  0  0
  -17.6650  -30.6120   24.1440 C   0  0  0  0  0  3  0  0  0  0  0  0
  -16.5550  -29.8500   23.7360 C   0  0  0  0  0  3  0  0  0  0  0  0
  -16.7500  -28.5920   23.1380 C   0  0  0  0  0  3  0  0  0  0  0  0
  -25.8670  -32.5210   23.8720 C   0  0  0  0  0  3  0  0  0  0  0  0
  -25.5530  -33.9200   24.1930 N   0  0  0  0  0  0  0  0  0  0  0  0
  -25.8840  -34.9660   23.4250 C   0  0  0  0  0  0  0  0  0  0  0  0
  -26.5630  -34.8570   22.4000 O   0  0  0  0  0  0  0  0  0  0  0  0
  -24.9570  -34.0780   24.9940 H   0  0  0  0  0  0  0  0  0  0  0  0
  -24.1580  -36.7510   23.0510 C   0  0  0  0  0  1  0  0  0  0  0  0
  -25.3920  -36.3560   23.8730 C   0  0  0  0  0  3  0  0  0  0  0  0
  -27.5250  -37.2540   24.7020 C   0  0  0  0  0  1  0  0  0  0  0  0
  -26.4200  -37.4120   23.7600 N   0  0  0  0  0  0  0  0  0  0  0  0
  -26.0060  -38.3280   23.9070 H   0  0  0  0  0  0  0  0  0  0  0  0
  -26.3820  -31.7560   25.1530 C   0  0  1  0  0  0  0  0  0  0  0  0
  -25.2820  -31.5110   26.2160 C   0  0  0  0  0  1  0  0  0  0  0  0
  -26.9750  -30.3800   24.7630 C   0  0  0  0  0  1  0  0  0  0  0  0
  -27.5280  -32.5550   25.8180 C   0  0  0  0  0  1  0  0  0  0  0  0
  1  2  2  0
  1  4  1  0
  2  5  1  0
  3  6  1  0
  4  3  2  0
  5 48  1  0
  5  6  2  0
  8  7  1  0
  8  4  1  0
  8  9  1  0
 10 18  1  0
 11 16  1  0
 12 13  1  0
 12 11  1  0
 14 13  1  0
 14 23  1  0
 14 15  1  0
 16 10  1  0
 16 15  1  0
 17 10  2  0
 18 19  1  0
 18  9  1  0
 20 21  2  0
 21 40  1  0
 22 21  1  0
 22 25  1  0
 23 20  1  0
 23 24  1  0
 24 22  2  0
 25 26  1  0
 26 27  2  0
 28 31  1  0
 28 27  1  0
 29 28  2  0
 30 29  1  0
 30 25  2  0
 31 32  1  0
 32 33  1  0
 33 34  2  0
 35 34  1  0
 35 39  1  0
 36 35  2  0
 37 32  2  0
 37 36  1  0
 38 37  1  0
 40 41  1  0
 41 44  1  0
 41 43  1  0
 42 40  2  0
 45 46  1  0
 45 20  1  0
 47 45  1  0
 49 52  1  0
 49 48  1  0
 52 50  1  1
 52 51  1  0
 53 52  1  0
 54 65  2  0
 55 53  1  0
 55 60  1  0
 56 64  1  0
 56 66  1  0
 57 63  1  0
 57 59  1  0
 58 64  1  0
 59 60  2  0
 59 58  1  0
 61 55  2  0
 62 61  1  0
 62 57  2  0
 63 56  1  0
 64 54  1  0
 66 68  2  0
 67 66  1  0
 69 67  1  0
 70 79  2  0
 70 75  1  0
 71 67  1  0
 71 75  1  0
 72 71  1  0
 73 74  1  0
 73 72  1  0
 74 70  1  0
 75 76  2  0
 76 77  1  0
 78 77  2  0
 79 78  1  0
 80 54  1  0
 80 81  1  0
 80 90  1  0
 81 84  1  0
 82 86  1  0
 82 81  1  0
 83 82  2  0
 86 85  1  0
 88 86  1  0
 88 89  1  0
 88 87  1  0
 90 93  1  1
 90 91  1  0
 92 90  1  0
M  ISO  4  10 100  18 100  52 101  53 101
M  END
>  <TORSDO>  (40) 
F 21

>  <SCORE>  (40) 
-13.914

>  <name>  (40) 
39

>  <ligand_id>  (40) 
39

>  <original_smiles>  (40) 
[H]c1nc(C([H])([H])C([H])([H])C(Oc2c([H])c([H])c3c(c2[H])C([H])([H])N(C(=O)C([H])(N([H])C(=O)C([H])(N([H])C([H])([H])[H])C([H])([H])[H])C(C([H])([H])[H])(C([H])([H])[H])C([H])([H])[H])C([H])(C(=O)N([H])C2([H])c4c([H])c([H])c([H])c([H])c4C([H])([H])C([H])([H])C2([H])[H])C3([H])[H])(C([H])([H])[H])C([H])([H])[H])c([H])c([H])c1C([H])(C([H])([H])[H])C([H])([H])N([H])C(=O)N1C([H])([H])C([H])([H])C([H])([H])C([H])(n2nc(-c3c([H])c([H])c(Oc4c([H])c([H])c(F)c([H])c4F)c([H])c3[H])c(C(=O)N([H])[H])c2N([H])[H])C1([H])[H]

>  <smiles>  (40) 
[H]c1nc(C([H])([H])C([H])([H])C(Oc2c([H])c([H])c3c(c2[H])C([H])([H])N(C(=O)C([H])(N([H])C(=O)C([H])(N([H])C([H])([H])[H])C([H])([H])[H])C(C([H])([H])[H])(C([H])([H])[H])C([H])([H])[H])C([H])(C(=O)N([H])C2([H])c4c([H])c([H])c([H])c([H])c4C([H])([H])C([H])([H])C2([H])[H])C3([H])[H])(C([H])([H])[H])C([H])([H])[H])c([H])c([H])c1C([H])(C([H])([H])[H])C([H])([H])N([H])C(=O)N1C([H])([H])C([H])([H])C([H])([H])C([H])(n2nc(-c3c([H])c([H])c(Oc4c([H])c([H])c(F)c([H])c4F)c([H])c3[H])c(C(=O)N([H])[H])c2N([H])[H])C1([H])[H]

$$$$
40:0:0
     RDKit          3D

 94102  0  0  1  0  0  0  0  0999 V2000
  -31.7140  -22.2600   20.2370 C   0  0  0  0  0  3  0  0  0  0  0  0
  -29.5580  -21.2460   20.6080 C   0  0  0  0  0  3  0  0  0  0  0  0
  -30.4180  -22.3460   20.7770 C   0  0  0  0  0  0  0  0  0  0  0  0
  -32.0850  -21.0920   19.5410 C   0  0  0  0  0  0  0  0  0  0  0  0
  -30.0010  -20.1200   19.8820 C   0  0  0  0  0  0  0  0  0  0  0  0
  -33.4590  -20.9600   18.9200 C   0  0  0  0  0  1  0  0  0  0  0  0
  -31.2440  -20.0520   19.3510 N   0  0  0  0  0  0  0  0  0  0  0  0
  -28.4770  -19.5230   18.0220 C   0  0  0  0  0  1  0  0  0  0  0  0
  -28.9810  -19.0810   19.4160 C   0  0  0  0  0  3  0  0  0  0  0  0
  -28.3890  -16.6730   18.7970 C   0  0  0  0  0  1  0  0  0  0  0  0
  -29.4290  -17.5770   19.4970 C   0  0  0  0  0  3  0  0  0  0  0  0
  -29.7760  -17.1000   20.9490 C   0  0  0  0  0  2  0  0  0  0  0  0
  -30.5100  -14.6630   20.8970 C   0  0  0  0  0  0  0  0  0  0  0  0
  -30.4180  -12.4530   19.8120 C   0  0  0  0  0  2  0  0  0  0  0  0
  -29.5420  -12.5770   18.5470 C   0  0  0  0  0  2  0  0  0  0  0  0
  -28.0440  -12.4180   18.8820 C   0  0  0  0  0  2  0  0  0  0  0  0
  -27.5950  -13.2390   20.1210 C   0  0  0  0  0  3  0  0  0  0  0  0
  -28.5940  -13.0740   21.2900 C   0  0  0  0  0  2  0  0  0  0  0  0
  -29.9330  -13.4340   20.7920 N   0  0  0  0  0  0  0  0  0  0  0  0
  -31.6650  -14.9050   20.5430 O   0  0  0  0  0  0  0  0  0  0  0  0
  -29.6420  -15.6490   21.1900 N   0  0  0  0  0  0  0  0  0  0  0  0
  -28.7260  -15.3340   21.4700 H   0  0  0  0  0  0  0  0  0  0  0  0
  -25.1300  -13.7560   20.6540 C   0  0  0  0  0  0  0  0  0  0  0  0
  -24.0740  -12.9410   20.9650 C   0  0  0  0  0  0  0  0  0  0  0  0
  -24.5970  -11.6130   20.9930 C   0  0  0  0  0  0  0  0  0  0  0  0
  -26.2250  -12.9180   20.5140 N   0  0  0  0  0  0  0  0  0  0  0  0
  -25.9050  -11.6270   20.7730 N   0  0  0  0  0  0  0  0  0  0  0  0
  -23.9190  -10.3210   21.1600 C   0  0  0  0  0  0  0  0  0  0  0  0
  -24.3440   -9.3840   22.1250 C   0  0  0  0  0  3  0  0  0  0  0  0
  -23.6630   -8.1580   22.2810 C   0  0  0  0  0  3  0  0  0  0  0  0
  -22.5440   -7.8600   21.4660 C   0  0  0  0  0  0  0  0  0  0  0  0
  -22.1390   -8.7890   20.4910 C   0  0  0  0  0  3  0  0  0  0  0  0
  -22.8200  -10.0070   20.3360 C   0  0  0  0  0  3  0  0  0  0  0  0
  -21.8380   -6.6820   21.5260 O   0  0  0  0  0  0  0  0  0  0  0  0
  -21.7770   -5.9390   22.6790 C   0  0  0  0  0  0  0  0  0  0  0  0
  -21.2650   -6.4720   23.8820 C   0  0  0  0  0  3  0  0  0  0  0  0
  -21.1520   -5.6540   25.0230 C   0  0  0  0  0  3  0  0  0  0  0  0
  -21.5430   -4.3020   24.9620 C   0  0  0  0  0  0  0  0  0  0  0  0
  -22.0490   -3.7680   23.7640 C   0  0  0  0  0  3  0  0  0  0  0  0
  -22.1620   -4.5830   22.6250 C   0  0  0  0  0  0  0  0  0  0  0  0
  -22.6300   -4.0590   21.4650 F   0  0  0  0  0  0  0  0  0  0  0  0
  -21.4300   -3.5150   26.0540 F   0  0  0  0  0  0  0  0  0  0  0  0
  -22.6410  -13.3560   21.1370 C   0  0  0  0  0  0  0  0  0  0  0  0
  -21.8960  -12.6380   21.9700 N   0  0  0  0  0  0  0  0  0  0  0  0
  -22.1890  -14.3500   20.5710 O   0  0  0  0  0  0  0  0  0  0  0  0
  -22.2750  -11.8300   22.4410 H   0  0  0  0  0  0  0  0  0  0  0  0
  -20.9350  -12.9000   22.1400 H   0  0  0  0  0  0  0  0  0  0  0  0
  -25.2450  -15.1300   20.4610 N   0  0  0  0  0  0  0  0  0  0  0  0
  -24.4440  -15.7500   20.4970 H   0  0  0  0  0  0  0  0  0  0  0  0
  -26.0910  -15.5950   20.1580 H   0  0  0  0  0  0  0  0  0  0  0  0
  -29.9320  -23.6090   21.4750 C   0  0  0  0  0  2  0  0  0  0  0  0
  -29.6130  -24.7570   20.4940 C   0  0  0  0  0  2  0  0  0  0  0  0
  -28.7150  -25.8440   21.1120 C   0  0  0  0  0  2  0  0  0  0  0  0
  -28.6090  -26.9510   20.2190 O   0  0  0  0  0  0  0  0  0  0  0  0
  -24.6210  -31.9970   23.2930 C   0  0  0  0  0  0  0  0  0  0  0  0
  -27.4150  -27.6250   20.2610 C   0  0  0  0  0  0  0  0  0  0  0  0
  -23.4720  -30.5680   21.6320 C   0  0  0  0  0  3  0  0  0  0  0  0
  -24.9810  -29.0520   20.2420 C   0  0  0  0  0  0  0  0  0  0  0  0
  -25.9900  -30.9830   21.4730 C   0  0  0  0  0  2  0  0  0  0  0  0
  -26.1160  -29.6120   20.8440 C   0  0  0  0  0  0  0  0  0  0  0  0
  -27.3380  -28.9040   20.8500 C   0  0  0  0  0  3  0  0  0  0  0  0
  -26.2660  -27.0670   19.6630 C   0  0  0  0  0  3  0  0  0  0  0  0
  -25.0490  -27.7770   19.6500 C   0  0  0  0  0  3  0  0  0  0  0  0
  -23.7180  -29.8840   20.2600 C   0  0  0  0  0  2  0  0  0  0  0  0
  -24.7110  -31.1970   22.1930 N   0  0  0  0  0  0  0  0  0  0  0  0
  -23.5260  -32.2480   23.8140 O   0  0  0  0  0  0  0  0  0  0  0  0
  -22.8210  -29.5390   22.5830 C   0  0  0  0  0  0  0  0  0  0  0  0
  -21.5060  -29.3210   22.4210 N   0  0  0  0  0  0  0  0  0  0  0  0
  -23.4980  -28.9370   23.4220 O   0  0  0  0  0  0  0  0  0  0  0  0
  -21.0220  -29.8610   21.7180 H   0  0  0  0  0  0  0  0  0  0  0  0
  -18.1520  -28.0360   22.8210 C   0  0  0  0  0  0  0  0  0  0  0  0
  -20.6910  -28.3680   23.1730 C   0  0  0  0  0  3  0  0  0  0  0  0
  -20.8530  -26.9350   22.6130 C   0  0  0  0  0  2  0  0  0  0  0  0
  -19.7930  -26.5740   21.5680 C   0  0  0  0  0  2  0  0  0  0  0  0
  -18.3870  -26.6860   22.1650 C   0  0  0  0  0  2  0  0  0  0  0  0
  -19.2350  -28.8330   23.2800 C   0  0  0  0  0  0  0  0  0  0  0  0
  -18.9610  -30.0960   23.8490 C   0  0  0  0  0  3  0  0  0  0  0  0
  -17.6380  -30.5620   23.9660 C   0  0  0  0  0  3  0  0  0  0  0  0
  -16.5700  -29.7620   23.5240 C   0  0  0  0  0  3  0  0  0  0  0  0
  -16.8280  -28.5020   22.9580 C   0  0  0  0  0  3  0  0  0  0  0  0
  -25.8840  -32.6500   23.9370 C   0  0  0  0  0  3  0  0  0  0  0  0
  -25.5580  -34.0510   24.2320 N   0  0  0  0  0  0  0  0  0  0  0  0
  -25.9060  -35.0910   23.4620 C   0  0  0  0  0  0  0  0  0  0  0  0
  -26.6080  -34.9720   22.4530 O   0  0  0  0  0  0  0  0  0  0  0  0
  -24.9380  -34.2170   25.0120 H   0  0  0  0  0  0  0  0  0  0  0  0
  -24.1820  -36.8650   23.0130 C   0  0  0  0  0  1  0  0  0  0  0  0
  -25.3960  -36.4840   23.8750 C   0  0  0  0  0  3  0  0  0  0  0  0
  -27.4940  -37.3950   24.7670 C   0  0  0  0  0  1  0  0  0  0  0  0
  -26.4260  -37.5410   23.7820 N   0  0  0  0  0  0  0  0  0  0  0  0
  -26.0100  -38.4600   23.9000 H   0  0  0  0  0  0  0  0  0  0  0  0
  -26.3760  -31.9050   25.2380 C   0  0  1  0  0  0  0  0  0  0  0  0
  -25.2590  -31.6690   26.2820 C   0  0  0  0  0  1  0  0  0  0  0  0
  -26.9820  -30.5290   24.8780 C   0  0  0  0  0  1  0  0  0  0  0  0
  -27.5020  -32.7210   25.9160 C   0  0  0  0  0  1  0  0  0  0  0  0
  1  3  1  0
  2  3  2  0
  3 51  1  0
  4  1  2  0
  5  2  1  0
  6  4  1  0
  7  4  1  0
  7  5  2  0
  9  8  1  0
  9 11  1  0
  9  5  1  0
 11 10  1  0
 11 12  1  0
 12 21  1  0
 13 21  1  0
 14 19  1  0
 15 16  1  0
 15 14  1  0
 17 16  1  0
 17 26  1  0
 17 18  1  0
 19 13  1  0
 19 18  1  0
 20 13  2  0
 21 22  1  0
 23 24  2  0
 24 25  1  0
 24 43  1  0
 25 28  1  0
 26 23  1  0
 26 27  1  0
 27 25  2  0
 28 29  1  0
 29 30  2  0
 31 34  1  0
 31 30  1  0
 32 31  2  0
 33 32  1  0
 33 28  2  0
 34 35  1  0
 35 36  1  0
 36 37  2  0
 38 37  1  0
 38 42  1  0
 39 38  2  0
 40 35  2  0
 40 39  1  0
 41 40  1  0
 43 44  1  0
 44 47  1  0
 44 46  1  0
 45 43  2  0
 48 49  1  0
 48 23  1  0
 50 48  1  0
 52 53  1  0
 52 51  1  0
 54 56  1  0
 54 53  1  0
 55 66  2  0
 56 61  1  0
 57 65  1  0
 57 67  1  0
 58 64  1  0
 58 60  1  0
 59 65  1  0
 60 61  2  0
 60 59  1  0
 62 56  2  0
 63 62  1  0
 63 58  2  0
 64 57  1  0
 65 55  1  0
 67 69  2  0
 68 67  1  0
 70 68  1  0
 71 80  2  0
 71 76  1  0
 72 68  1  0
 72 76  1  0
 73 72  1  0
 74 75  1  0
 74 73  1  0
 75 71  1  0
 76 77  2  0
 77 78  1  0
 79 78  2  0
 80 79  1  0
 81 55  1  0
 81 82  1  0
 81 91  1  0
 82 85  1  0
 83 87  1  0
 83 82  1  0
 84 83  2  0
 87 86  1  0
 89 87  1  0
 89 90  1  0
 89 88  1  0
 91 94  1  1
 91 92  1  0
 93 91  1  0
M  ISO  4  13 100  21 100  53 101  54 101
M  END
>  <TORSDO>  (41) 
F 22

>  <SCORE>  (41) 
-13.161

>  <name>  (41) 
40

>  <ligand_id>  (41) 
40

>  <original_smiles>  (41) 
[H]c1c([H])c([H])c2c(c1[H])C([H])([H])C([H])([H])C([H])([H])C2([H])N([H])C(=O)C1([H])N(C(=O)C([H])(N([H])C(=O)C([H])(N([H])C([H])([H])[H])C([H])([H])[H])C(C([H])([H])[H])(C([H])([H])[H])C([H])([H])[H])C([H])([H])c2c([H])c(OC([H])([H])C([H])([H])C([H])([H])c3c([H])c(C([H])([H])[H])nc(C([H])(C([H])([H])[H])C([H])(C([H])([H])[H])C([H])([H])N([H])C(=O)N4C([H])([H])C([H])([H])C([H])([H])C([H])(n5nc(-c6c([H])c([H])c(Oc7c([H])c([H])c(F)c([H])c7F)c([H])c6[H])c(C(=O)N([H])[H])c5N([H])[H])C4([H])[H])c3[H])c([H])c([H])c2C1([H])[H]

>  <smiles>  (41) 
[H]c1c([H])c([H])c2c(c1[H])C([H])([H])C([H])([H])C([H])([H])C2([H])N([H])C(=O)C1([H])N(C(=O)C([H])(N([H])C(=O)C([H])(N([H])C([H])([H])[H])C([H])([H])[H])C(C([H])([H])[H])(C([H])([H])[H])C([H])([H])[H])C([H])([H])c2c([H])c(OC([H])([H])C([H])([H])C([H])([H])c3c([H])c(C([H])([H])[H])nc(C([H])(C([H])([H])[H])C([H])(C([H])([H])[H])C([H])([H])N([H])C(=O)N4C([H])([H])C([H])([H])C([H])([H])C([H])(n5nc(-c6c([H])c([H])c(Oc7c([H])c([H])c(F)c([H])c7F)c([H])c6[H])c(C(=O)N([H])[H])c5N([H])[H])C4([H])[H])c3[H])c([H])c([H])c2C1([H])[H]

$$$$
41:0:0
     RDKit          3D

 95103  0  0  1  0  0  0  0  0999 V2000
  -29.0430  -21.3580   19.2930 C   0  0  0  0  0  0  0  0  0  0  0  0
  -30.0860  -20.4170   19.0780 C   0  0  0  0  0  0  0  0  0  0  0  0
  -30.5210  -23.0260   18.7910 C   0  0  0  0  0  0  0  0  0  0  0  0
  -27.6130  -21.0070   19.6620 C   0  0  0  0  0  1  0  0  0  0  0  0
  -29.2740  -22.6770   19.1190 N   0  0  0  0  0  0  0  0  0  0  0  0
  -31.3400  -20.8680   18.8190 N   0  0  0  0  0  0  0  0  0  0  0  0
  -31.5610  -22.1830   18.6800 N   0  0  0  0  0  0  0  0  0  0  0  0
  -30.1500  -18.5000   17.4480 C   0  0  0  0  0  1  0  0  0  0  0  0
  -29.8590  -18.9030   18.9130 C   0  0  0  0  0  3  0  0  0  0  0  0
  -31.9770  -17.6870   19.7250 C   0  0  0  0  0  1  0  0  0  0  0  0
  -30.3670  -18.5780   21.4050 C   0  0  0  0  0  1  0  0  0  0  0  0
  -30.4780  -17.9440   20.0040 C   0  0  1  0  0  0  0  0  0  0  0  0
  -29.6550  -16.6110   19.9640 C   0  0  0  0  0  2  0  0  0  0  0  0
  -30.7210  -14.4540   20.4630 C   0  0  0  0  0  0  0  0  0  0  0  0
  -30.4070  -12.2840   19.3640 C   0  0  0  0  0  2  0  0  0  0  0  0
  -29.5030  -12.5310   18.1380 C   0  0  0  0  0  2  0  0  0  0  0  0
  -28.0160  -12.4190   18.5300 C   0  0  0  0  0  2  0  0  0  0  0  0
  -27.6690  -13.2490   19.7960 C   0  0  0  0  0  3  0  0  0  0  0  0
  -28.6990  -13.0120   20.9270 C   0  0  0  0  0  2  0  0  0  0  0  0
  -30.0460  -13.2760   20.3890 N   0  0  0  0  0  0  0  0  0  0  0  0
  -31.8380  -14.6170   19.9690 O   0  0  0  0  0  0  0  0  0  0  0  0
  -29.9890  -15.5040   20.8780 N   0  0  0  0  0  0  0  0  0  0  0  0
  -29.2170  -15.2280   21.4660 H   0  0  0  0  0  0  0  0  0  0  0  0
  -25.2600  -13.8860   20.4480 C   0  0  0  0  0  0  0  0  0  0  0  0
  -24.1810  -13.1270   20.8140 C   0  0  0  0  0  0  0  0  0  0  0  0
  -24.6330  -11.7710   20.8080 C   0  0  0  0  0  0  0  0  0  0  0  0
  -26.3030  -12.9930   20.2500 N   0  0  0  0  0  0  0  0  0  0  0  0
  -25.9270  -11.7170   20.5210 N   0  0  0  0  0  0  0  0  0  0  0  0
  -23.8950  -10.5170   21.0070 C   0  0  0  0  0  0  0  0  0  0  0  0
  -24.3160   -9.5540   21.9500 C   0  0  0  0  0  3  0  0  0  0  0  0
  -23.5790   -8.3640   22.1340 C   0  0  0  0  0  3  0  0  0  0  0  0
  -22.4070   -8.1300   21.3760 C   0  0  0  0  0  0  0  0  0  0  0  0
  -22.0060   -9.0820   20.4240 C   0  0  0  0  0  3  0  0  0  0  0  0
  -22.7410  -10.2630   20.2380 C   0  0  0  0  0  3  0  0  0  0  0  0
  -21.6400   -6.9930   21.4700 O   0  0  0  0  0  0  0  0  0  0  0  0
  -21.5910   -6.2520   22.6230 C   0  0  0  0  0  0  0  0  0  0  0  0
  -21.1890   -6.8150   23.8540 C   0  0  0  0  0  3  0  0  0  0  0  0
  -21.0850   -5.9990   24.9990 C   0  0  0  0  0  3  0  0  0  0  0  0
  -21.3700   -4.6230   24.9140 C   0  0  0  0  0  0  0  0  0  0  0  0
  -21.7670   -4.0620   23.6880 C   0  0  0  0  0  3  0  0  0  0  0  0
  -21.8740   -4.8730   22.5450 C   0  0  0  0  0  0  0  0  0  0  0  0
  -22.2330   -4.3220   21.3610 F   0  0  0  0  0  0  0  0  0  0  0  0
  -21.2670   -3.8390   26.0130 F   0  0  0  0  0  0  0  0  0  0  0  0
  -22.7840  -13.6170   21.0580 C   0  0  0  0  0  0  0  0  0  0  0  0
  -22.0380  -12.9380   21.9220 N   0  0  0  0  0  0  0  0  0  0  0  0
  -22.3600  -14.6380   20.5170 O   0  0  0  0  0  0  0  0  0  0  0  0
  -22.3900  -12.1110   22.3810 H   0  0  0  0  0  0  0  0  0  0  0  0
  -21.0980  -13.2480   22.1260 H   0  0  0  0  0  0  0  0  0  0  0  0
  -25.4360  -15.2530   20.2500 N   0  0  0  0  0  0  0  0  0  0  0  0
  -24.6680  -15.9110   20.3290 H   0  0  0  0  0  0  0  0  0  0  0  0
  -26.2930  -15.6820   19.9240 H   0  0  0  0  0  0  0  0  0  0  0  0
  -30.7570  -24.4650   18.3540 C   0  0  0  0  0  2  0  0  0  0  0  0
  -30.2480  -25.5400   19.3280 C   0  0  0  0  0  2  0  0  0  0  0  0
  -28.7430  -25.8530   19.2040 C   0  0  0  0  0  2  0  0  0  0  0  0
  -28.4580  -26.8630   20.1590 O   0  0  0  0  0  0  0  0  0  0  0  0
  -24.5640  -31.9080   23.2280 C   0  0  0  0  0  0  0  0  0  0  0  0
  -27.2380  -27.4950   20.1450 C   0  0  0  0  0  0  0  0  0  0  0  0
  -23.3530  -30.4940   21.5900 C   0  0  0  0  0  3  0  0  0  0  0  0
  -24.8120  -28.9500   20.1700 C   0  0  0  0  0  0  0  0  0  0  0  0
  -25.8720  -30.8620   21.3870 C   0  0  0  0  0  2  0  0  0  0  0  0
  -25.9610  -29.4890   20.7580 C   0  0  0  0  0  0  0  0  0  0  0  0
  -27.1670  -28.7620   20.7530 C   0  0  0  0  0  3  0  0  0  0  0  0
  -26.0720  -26.9530   19.5570 C   0  0  0  0  0  3  0  0  0  0  0  0
  -24.8600  -27.6780   19.5690 C   0  0  0  0  0  3  0  0  0  0  0  0
  -23.5570  -29.7950   20.2170 C   0  0  0  0  0  2  0  0  0  0  0  0
  -24.6150  -31.1040   22.1290 N   0  0  0  0  0  0  0  0  0  0  0  0
  -23.4850  -32.1850   23.7670 O   0  0  0  0  0  0  0  0  0  0  0  0
  -22.7030  -29.4820   22.5580 C   0  0  0  0  0  0  0  0  0  0  0  0
  -21.3770  -29.3050   22.4360 N   0  0  0  0  0  0  0  0  0  0  0  0
  -23.3880  -28.8580   23.3720 O   0  0  0  0  0  0  0  0  0  0  0  0
  -20.8850  -29.8640   21.7530 H   0  0  0  0  0  0  0  0  0  0  0  0
  -18.0040  -28.1280   22.9540 C   0  0  0  0  0  0  0  0  0  0  0  0
  -20.5650  -28.3710   23.2110 C   0  0  0  0  0  3  0  0  0  0  0  0
  -20.6550  -26.9380   22.6330 C   0  0  0  0  0  2  0  0  0  0  0  0
  -19.5460  -26.6220   21.6250 C   0  0  0  0  0  2  0  0  0  0  0  0
  -18.1680  -26.7780   22.2770 C   0  0  0  0  0  2  0  0  0  0  0  0
  -19.1280  -28.8830   23.3800 C   0  0  0  0  0  0  0  0  0  0  0  0
  -18.9220  -30.1510   23.9670 C   0  0  0  0  0  3  0  0  0  0  0  0
  -17.6230  -30.6640   24.1360 C   0  0  0  0  0  3  0  0  0  0  0  0
  -16.5110  -29.9040   23.7330 C   0  0  0  0  0  3  0  0  0  0  0  0
  -16.7030  -28.6390   23.1490 C   0  0  0  0  0  3  0  0  0  0  0  0
  -25.8540  -32.5400   23.8400 C   0  0  0  0  0  3  0  0  0  0  0  0
  -25.5520  -33.9390   24.1720 N   0  0  0  0  0  0  0  0  0  0  0  0
  -25.8820  -34.9900   23.4100 C   0  0  0  0  0  0  0  0  0  0  0  0
  -26.5490  -34.8860   22.3750 O   0  0  0  0  0  0  0  0  0  0  0  0
  -24.9810  -34.0990   24.9890 H   0  0  0  0  0  0  0  0  0  0  0  0
  -24.1630  -36.7850   23.0500 C   0  0  0  0  0  1  0  0  0  0  0  0
  -25.3970  -36.3760   23.8690 C   0  0  0  0  0  3  0  0  0  0  0  0
  -27.5270  -37.2540   24.7140 C   0  0  0  0  0  1  0  0  0  0  0  0
  -26.4310  -37.4280   23.7650 N   0  0  0  0  0  0  0  0  0  0  0  0
  -26.0260  -38.3480   23.9170 H   0  0  0  0  0  0  0  0  0  0  0  0
  -26.3850  -31.7670   25.1100 C   0  0  1  0  0  0  0  0  0  0  0  0
  -25.3020  -31.5210   26.1850 C   0  0  0  0  0  1  0  0  0  0  0  0
  -26.9670  -30.3920   24.7050 C   0  0  0  0  0  1  0  0  0  0  0  0
  -27.5350  -32.5660   25.7660 C   0  0  0  0  0  1  0  0  0  0  0  0
  1  4  1  0
  2  1  2  0
  3  5  2  0
  5  1  1  0
  6  2  1  0
  7  3  1  0
  7  6  2  0
  9  8  1  0
  9  2  1  0
  9 12  1  0
 12 10  1  6
 12 11  1  0
 13 12  1  0
 13 22  1  0
 14 22  1  0
 15 20  1  0
 16 17  1  0
 16 15  1  0
 18 17  1  0
 18 27  1  0
 18 19  1  0
 20 14  1  0
 20 19  1  0
 21 14  2  0
 22 23  1  0
 24 25  2  0
 25 44  1  0
 26 25  1  0
 26 29  1  0
 27 24  1  0
 27 28  1  0
 28 26  2  0
 29 30  1  0
 30 31  2  0
 32 35  1  0
 32 31  1  0
 33 32  2  0
 34 33  1  0
 34 29  2  0
 35 36  1  0
 36 37  1  0
 37 38  2  0
 39 38  1  0
 39 43  1  0
 40 39  2  0
 41 36  2  0
 41 40  1  0
 42 41  1  0
 44 45  1  0
 45 48  1  0
 45 47  1  0
 46 44  2  0
 49 50  1  0
 49 24  1  0
 51 49  1  0
 52  3  1  0
 52 53  1  0
 54 53  1  0
 54 55  1  0
 56 67  2  0
 57 55  1  0
 57 62  1  0
 58 66  1  0
 58 68  1  0
 59 65  1  0
 59 61  1  0
 60 66  1  0
 61 60  1  0
 62 61  2  0
 63 64  1  0
 63 57  2  0
 64 59  2  0
 65 58  1  0
 66 56  1  0
 68 70  2  0
 69 68  1  0
 71 69  1  0
 72 81  2  0
 72 77  1  0
 73 69  1  0
 73 77  1  0
 74 73  1  0
 75 76  1  0
 75 74  1  0
 76 72  1  0
 77 78  2  0
 78 79  1  0
 80 79  2  0
 81 80  1  0
 82 56  1  0
 82 83  1  0
 82 92  1  0
 83 86  1  0
 84 88  1  0
 84 83  1  0
 85 84  2  0
 88 87  1  0
 90 88  1  0
 90 91  1  0
 90 89  1  0
 92 95  1  1
 92 93  1  0
 94 92  1  0
M  ISO  4  14 100  22 100  54 101  55 101
M  END
>  <TORSDO>  (42) 
F 22

>  <SCORE>  (42) 
-13.079

>  <name>  (42) 
41

>  <ligand_id>  (42) 
41

>  <original_smiles>  (42) 
[H]c1c([H])c([H])c2c(c1[H])C([H])([H])C([H])([H])C([H])([H])C2([H])N([H])C(=O)C1([H])N(C(=O)C([H])(N([H])C(=O)C([H])(N([H])C([H])([H])[H])C([H])([H])[H])C(C([H])([H])[H])(C([H])([H])[H])C([H])([H])[H])C([H])([H])c2c([H])c(OC([H])([H])C([H])([H])C([H])([H])c3nnc(C([H])(C([H])([H])[H])C(C([H])([H])[H])(C([H])([H])[H])C([H])([H])N([H])C(=O)N4C([H])([H])C([H])([H])C([H])([H])C([H])(n5nc(-c6c([H])c([H])c(Oc7c([H])c([H])c(F)c([H])c7F)c([H])c6[H])c(C(=O)N([H])[H])c5N([H])[H])C4([H])[H])c(C([H])([H])[H])n3)c([H])c([H])c2C1([H])[H]

>  <smiles>  (42) 
[H]c1c([H])c([H])c2c(c1[H])C([H])([H])C([H])([H])C([H])([H])C2([H])N([H])C(=O)C1([H])N(C(=O)C([H])(N([H])C(=O)C([H])(N([H])C([H])([H])[H])C([H])([H])[H])C(C([H])([H])[H])(C([H])([H])[H])C([H])([H])[H])C([H])([H])c2c([H])c(OC([H])([H])C([H])([H])C([H])([H])c3nnc(C([H])(C([H])([H])[H])C(C([H])([H])[H])(C([H])([H])[H])C([H])([H])N([H])C(=O)N4C([H])([H])C([H])([H])C([H])([H])C([H])(n5nc(-c6c([H])c([H])c(Oc7c([H])c([H])c(F)c([H])c7F)c([H])c6[H])c(C(=O)N([H])[H])c5N([H])[H])C4([H])[H])c(C([H])([H])[H])n3)c([H])c([H])c2C1([H])[H]

$$$$
42:0:0
     RDKit          3D

 93101  0  0  1  0  0  0  0  0999 V2000
  -31.3940  -22.3050   20.9550 C   0  0  0  0  0  3  0  0  0  0  0  0
  -32.1010  -21.2500   20.3650 C   0  0  0  0  0  0  0  0  0  0  0  0
  -30.0040  -22.1630   21.0630 C   0  0  0  0  0  0  0  0  0  0  0  0
  -30.1530  -20.0750   20.0980 C   0  0  0  0  0  0  0  0  0  0  0  0
  -33.6030  -21.3090   20.1880 C   0  0  0  0  0  1  0  0  0  0  0  0
  -31.4700  -20.1460   19.9200 N   0  0  0  0  0  0  0  0  0  0  0  0
  -29.4000  -21.0330   20.6380 N   0  0  0  0  0  0  0  0  0  0  0  0
  -29.1180  -23.2320   21.7040 C   0  0  0  0  0  2  0  0  0  0  0  0
  -29.6250  -25.5820   22.5310 C   0  0  0  0  0  1  0  0  0  0  0  0
  -29.3790  -24.7130   21.2800 C   0  0  0  0  0  3  0  0  0  0  0  0
  -28.2090  -25.2930   20.4490 C   0  0  0  0  0  2  0  0  0  0  0  0
  -28.3680  -26.7010   20.2010 O   0  0  0  0  0  0  0  0  0  0  0  0
  -24.5810  -31.8890   23.2470 C   0  0  0  0  0  0  0  0  0  0  0  0
  -27.2030  -27.4390   20.1690 C   0  0  0  0  0  0  0  0  0  0  0  0
  -23.3660  -30.4860   21.6140 C   0  0  0  0  0  3  0  0  0  0  0  0
  -24.8090  -28.9470   20.1810 C   0  0  0  0  0  0  0  0  0  0  0  0
  -25.8900  -30.8430   21.4010 C   0  0  0  0  0  2  0  0  0  0  0  0
  -25.9720  -29.4730   20.7620 C   0  0  0  0  0  0  0  0  0  0  0  0
  -27.1730  -28.7280   20.7480 C   0  0  0  0  0  3  0  0  0  0  0  0
  -26.0250  -26.9300   19.5770 C   0  0  0  0  0  3  0  0  0  0  0  0
  -24.8320  -27.6750   19.5830 C   0  0  0  0  0  3  0  0  0  0  0  0
  -23.5660  -29.8040   20.2330 C   0  0  0  0  0  2  0  0  0  0  0  0
  -24.6310  -31.0870   22.1450 N   0  0  0  0  0  0  0  0  0  0  0  0
  -23.5030  -32.1630   23.7910 O   0  0  0  0  0  0  0  0  0  0  0  0
  -22.7180  -29.4660   22.5780 C   0  0  0  0  0  0  0  0  0  0  0  0
  -21.3930  -29.2830   22.4540 N   0  0  0  0  0  0  0  0  0  0  0  0
  -23.4030  -28.8440   23.3950 O   0  0  0  0  0  0  0  0  0  0  0  0
  -20.9010  -29.8390   21.7690 H   0  0  0  0  0  0  0  0  0  0  0  0
  -18.0220  -28.0800   22.9460 C   0  0  0  0  0  0  0  0  0  0  0  0
  -20.5770  -28.3480   23.2270 C   0  0  0  0  0  3  0  0  0  0  0  0
  -20.6870  -26.9120   22.6620 C   0  0  0  0  0  2  0  0  0  0  0  0
  -19.5900  -26.5790   21.6450 C   0  0  0  0  0  2  0  0  0  0  0  0
  -18.2060  -26.7250   22.2830 C   0  0  0  0  0  2  0  0  0  0  0  0
  -19.1360  -28.8480   23.3760 C   0  0  0  0  0  0  0  0  0  0  0  0
  -18.9120  -30.1160   23.9540 C   0  0  0  0  0  3  0  0  0  0  0  0
  -17.6050  -30.6150   24.1120 C   0  0  0  0  0  3  0  0  0  0  0  0
  -16.5040  -29.8440   23.6980 C   0  0  0  0  0  3  0  0  0  0  0  0
  -16.7140  -28.5780   23.1220 C   0  0  0  0  0  3  0  0  0  0  0  0
  -25.8710  -32.5170   23.8600 C   0  0  0  0  0  3  0  0  0  0  0  0
  -25.5670  -33.9160   24.1910 N   0  0  0  0  0  0  0  0  0  0  0  0
  -25.9020  -34.9670   23.4300 C   0  0  0  0  0  0  0  0  0  0  0  0
  -26.5700  -34.8610   22.3970 O   0  0  0  0  0  0  0  0  0  0  0  0
  -24.9760  -34.0730   24.9940 H   0  0  0  0  0  0  0  0  0  0  0  0
  -24.1780  -36.7630   23.0730 C   0  0  0  0  0  1  0  0  0  0  0  0
  -25.4180  -36.3560   23.8860 C   0  0  0  0  0  3  0  0  0  0  0  0
  -27.5560  -37.2330   24.7150 C   0  0  0  0  0  1  0  0  0  0  0  0
  -26.4530  -37.4060   23.7720 N   0  0  0  0  0  0  0  0  0  0  0  0
  -26.0510  -38.3270   23.9220 H   0  0  0  0  0  0  0  0  0  0  0  0
  -26.3980  -31.7450   25.1320 C   0  0  1  0  0  0  0  0  0  0  0  0
  -25.3130  -31.5090   26.2080 C   0  0  0  0  0  1  0  0  0  0  0  0
  -26.9740  -30.3670   24.7300 C   0  0  0  0  0  1  0  0  0  0  0  0
  -27.5540  -32.5380   25.7840 C   0  0  0  0  0  1  0  0  0  0  0  0
  -29.4130  -18.9060   19.4510 C   0  0  0  0  0  2  0  0  0  0  0  0
  -30.0100  -17.4830   19.5940 C   0  0  0  0  0  2  0  0  0  0  0  0
  -30.1560  -16.9040   21.0240 C   0  0  0  0  0  2  0  0  0  0  0  0
  -30.6460  -14.4740   20.5010 C   0  0  0  0  0  0  0  0  0  0  0  0
  -30.3590  -12.3330   19.3130 C   0  0  0  0  0  2  0  0  0  0  0  0
  -29.4090  -12.5610   18.1170 C   0  0  0  0  0  2  0  0  0  0  0  0
  -27.9360  -12.4180   18.5470 C   0  0  0  0  0  2  0  0  0  0  0  0
  -27.6040  -13.2360   19.8230 C   0  0  0  0  0  3  0  0  0  0  0  0
  -28.6610  -12.9800   20.9230 C   0  0  0  0  0  2  0  0  0  0  0  0
  -29.9880  -13.2920   20.3640 N   0  0  0  0  0  0  0  0  0  0  0  0
  -31.7560  -14.6950   20.0100 O   0  0  0  0  0  0  0  0  0  0  0  0
  -29.9160  -15.4540   21.0600 N   0  0  0  0  0  0  0  0  0  0  0  0
  -29.0290  -15.1600   21.4430 H   0  0  0  0  0  0  0  0  0  0  0  0
  -25.2020  -13.8480   20.5270 C   0  0  0  0  0  0  0  0  0  0  0  0
  -24.1350  -13.0780   20.8990 C   0  0  0  0  0  0  0  0  0  0  0  0
  -24.5950  -11.7260   20.8720 C   0  0  0  0  0  0  0  0  0  0  0  0
  -26.2490  -12.9650   20.2990 N   0  0  0  0  0  0  0  0  0  0  0  0
  -25.8850  -11.6850   20.5620 N   0  0  0  0  0  0  0  0  0  0  0  0
  -23.8700  -10.4650   21.0660 C   0  0  0  0  0  0  0  0  0  0  0  0
  -24.3170   -9.4910   21.9880 C   0  0  0  0  0  3  0  0  0  0  0  0
  -23.5920   -8.2930   22.1710 C   0  0  0  0  0  3  0  0  0  0  0  0
  -22.4070   -8.0620   21.4330 C   0  0  0  0  0  0  0  0  0  0  0  0
  -21.9790   -9.0240   20.5010 C   0  0  0  0  0  3  0  0  0  0  0  0
  -22.7050  -10.2130   20.3160 C   0  0  0  0  0  3  0  0  0  0  0  0
  -21.6530   -6.9160   21.5250 O   0  0  0  0  0  0  0  0  0  0  0  0
  -21.6360   -6.1560   22.6670 C   0  0  0  0  0  0  0  0  0  0  0  0
  -21.2580   -6.6950   23.9150 C   0  0  0  0  0  3  0  0  0  0  0  0
  -21.1870   -5.8630   25.0490 C   0  0  0  0  0  3  0  0  0  0  0  0
  -21.4820   -4.4910   24.9360 C   0  0  0  0  0  0  0  0  0  0  0  0
  -21.8520   -3.9500   23.6910 C   0  0  0  0  0  3  0  0  0  0  0  0
  -21.9250   -4.7810   22.5600 C   0  0  0  0  0  0  0  0  0  0  0  0
  -22.2610   -4.2520   21.3590 F   0  0  0  0  0  0  0  0  0  0  0  0
  -21.4070   -3.6880   26.0230 F   0  0  0  0  0  0  0  0  0  0  0  0
  -22.7380  -13.5560   21.1750 C   0  0  0  0  0  0  0  0  0  0  0  0
  -22.0130  -12.8640   22.0460 N   0  0  0  0  0  0  0  0  0  0  0  0
  -22.2980  -14.5820   20.6550 O   0  0  0  0  0  0  0  0  0  0  0  0
  -22.3800  -12.0340   22.4900 H   0  0  0  0  0  0  0  0  0  0  0  0
  -21.0780  -13.1660   22.2750 H   0  0  0  0  0  0  0  0  0  0  0  0
  -25.3660  -15.2180   20.3470 N   0  0  0  0  0  0  0  0  0  0  0  0
  -24.5970  -15.8700   20.4580 H   0  0  0  0  0  0  0  0  0  0  0  0
  -26.2180  -15.6640   20.0310 H   0  0  0  0  0  0  0  0  0  0  0  0
  1  3  1  0
  2  1  2  0
  3  8  1  0
  4  7  1  0
  5  2  1  0
  6  4  2  0
  6  2  1  0
  7  3  2  0
 10  8  1  0
 10  9  1  0
 11 10  1  0
 12 11  1  0
 13 24  2  0
 14 12  1  0
 14 19  1  0
 15 23  1  0
 15 25  1  0
 16 22  1  0
 16 18  1  0
 17 23  1  0
 18 17  1  0
 19 18  2  0
 20 21  1  0
 20 14  2  0
 21 16  2  0
 22 15  1  0
 23 13  1  0
 25 27  2  0
 26 25  1  0
 28 26  1  0
 29 38  2  0
 29 34  1  0
 30 26  1  0
 30 34  1  0
 31 30  1  0
 32 33  1  0
 32 31  1  0
 33 29  1  0
 34 35  2  0
 35 36  1  0
 37 36  2  0
 38 37  1  0
 39 13  1  0
 39 40  1  0
 39 49  1  0
 40 43  1  0
 41 45  1  0
 41 40  1  0
 42 41  2  0
 45 44  1  0
 47 45  1  0
 47 48  1  0
 47 46  1  0
 49 52  1  1
 49 50  1  0
 51 49  1  0
 53 54  1  0
 53  4  1  0
 54 55  1  0
 55 64  1  0
 56 64  1  0
 57 62  1  0
 58 59  1  0
 58 57  1  0
 60 59  1  0
 60 69  1  0
 60 61  1  0
 62 56  1  0
 62 61  1  0
 63 56  2  0
 64 65  1  0
 66 67  2  0
 67 86  1  0
 68 67  1  0
 68 71  1  0
 69 66  1  0
 69 70  1  0
 70 68  2  0
 71 72  1  0
 72 73  2  0
 74 77  1  0
 74 73  1  0
 75 74  2  0
 76 75  1  0
 76 71  2  0
 77 78  1  0
 78 79  1  0
 79 80  2  0
 81 80  1  0
 81 85  1  0
 82 81  2  0
 83 78  2  0
 83 82  1  0
 84 83  1  0
 86 87  1  0
 87 90  1  0
 87 89  1  0
 88 86  2  0
 91 92  1  0
 91 66  1  0
 93 91  1  0
M  ISO  4  11 101  12 101  56 100  64 100
M  END
>  <TORSDO>  (43) 
F 22

>  <SCORE>  (43) 
-13.378

>  <name>  (43) 
42

>  <ligand_id>  (43) 
42

>  <original_smiles>  (43) 
[H]c1c(C([H])([H])[H])nc(C([H])([H])C([H])([H])C([H])([H])N([H])C(=O)N2C([H])([H])C([H])([H])C([H])([H])C([H])(n3nc(-c4c([H])c([H])c(Oc5c([H])c([H])c(F)c([H])c5F)c([H])c4[H])c(C(=O)N([H])[H])c3N([H])[H])C2([H])[H])nc1C([H])([H])C([H])(C([H])([H])[H])C([H])([H])Oc1c([H])c([H])c2c(c1[H])C([H])([H])N(C(=O)C([H])(N([H])C(=O)C([H])(N([H])C([H])([H])[H])C([H])([H])[H])C(C([H])([H])[H])(C([H])([H])[H])C([H])([H])[H])C([H])(C(=O)N([H])C1([H])c3c([H])c([H])c([H])c([H])c3C([H])([H])C([H])([H])C1([H])[H])C2([H])[H]

>  <smiles>  (43) 
[H]c1c(C([H])([H])[H])nc(C([H])([H])C([H])([H])C([H])([H])N([H])C(=O)N2C([H])([H])C([H])([H])C([H])([H])C([H])(n3nc(-c4c([H])c([H])c(Oc5c([H])c([H])c(F)c([H])c5F)c([H])c4[H])c(C(=O)N([H])[H])c3N([H])[H])C2([H])[H])nc1C([H])([H])C([H])(C([H])([H])[H])C([H])([H])Oc1c([H])c([H])c2c(c1[H])C([H])([H])N(C(=O)C([H])(N([H])C(=O)C([H])(N([H])C([H])([H])[H])C([H])([H])[H])C(C([H])([H])[H])(C([H])([H])[H])C([H])([H])[H])C([H])(C(=O)N([H])C1([H])c3c([H])c([H])c([H])c([H])c3C([H])([H])C([H])([H])C1([H])[H])C2([H])[H]

$$$$
43:0:0
     RDKit          3D

 91 99  0  0  1  0  0  0  0  0999 V2000
  -29.6590  -19.0690   20.4900 C   0  0  0  0  0  3  0  0  0  0  0  0
  -30.9010  -20.8440   19.4260 C   0  0  0  0  0  3  0  0  0  0  0  0
  -29.9860  -20.4610   20.4240 C   0  0  0  0  0  0  0  0  0  0  0  0
  -30.2790  -18.1810   19.5620 C   0  0  0  0  0  0  0  0  0  0  0  0
  -31.4760  -19.9550   18.5820 N   0  0  0  0  0  0  0  0  0  0  0  0
  -31.1670  -18.6570   18.6520 N   0  0  0  0  0  0  0  0  0  0  0  0
  -28.5140  -16.7220   18.5320 C   0  0  0  0  0  1  0  0  0  0  0  0
  -29.8520  -16.7150   19.2850 C   0  0  0  0  0  3  0  0  0  0  0  0
  -30.6130  -14.6100   20.3730 C   0  0  0  0  0  0  0  0  0  0  0  0
  -30.3360  -12.4320   19.2980 C   0  0  0  0  0  2  0  0  0  0  0  0
  -29.3620  -12.6390   18.1190 C   0  0  0  0  0  2  0  0  0  0  0  0
  -27.9060  -12.4450   18.5820 C   0  0  0  0  0  2  0  0  0  0  0  0
  -27.5720  -13.2660   19.8570 C   0  0  0  0  0  3  0  0  0  0  0  0
  -28.6640  -13.0990   20.9410 C   0  0  0  0  0  2  0  0  0  0  0  0
  -29.9700  -13.4100   20.3350 N   0  0  0  0  0  0  0  0  0  0  0  0
  -31.7970  -14.7350   20.0560 O   0  0  0  0  0  0  0  0  0  0  0  0
  -29.7990  -15.6910   20.3680 N   0  0  0  0  0  0  0  0  0  0  0  0
  -28.8760  -15.5180   20.7310 H   0  0  0  0  0  0  0  0  0  0  0  0
  -25.1870  -13.8440   20.6070 C   0  0  0  0  0  0  0  0  0  0  0  0
  -24.1270  -13.0590   20.9730 C   0  0  0  0  0  0  0  0  0  0  0  0
  -24.6010  -11.7120   20.9230 C   0  0  0  0  0  0  0  0  0  0  0  0
  -26.2330  -12.9730   20.3540 N   0  0  0  0  0  0  0  0  0  0  0  0
  -25.8880  -11.6850   20.6040 N   0  0  0  0  0  0  0  0  0  0  0  0
  -23.8890  -10.4410   21.1050 C   0  0  0  0  0  0  0  0  0  0  0  0
  -24.3360   -9.4690   22.0260 C   0  0  0  0  0  3  0  0  0  0  0  0
  -23.6250   -8.2610   22.1940 C   0  0  0  0  0  3  0  0  0  0  0  0
  -22.4510   -8.0200   21.4420 C   0  0  0  0  0  0  0  0  0  0  0  0
  -22.0240   -8.9810   20.5090 C   0  0  0  0  0  3  0  0  0  0  0  0
  -22.7370  -10.1790   20.3400 C   0  0  0  0  0  3  0  0  0  0  0  0
  -21.7080   -6.8660   21.5240 O   0  0  0  0  0  0  0  0  0  0  0  0
  -21.6710   -6.1140   22.6710 C   0  0  0  0  0  0  0  0  0  0  0  0
  -21.2200   -6.6470   23.8980 C   0  0  0  0  0  3  0  0  0  0  0  0
  -21.1320   -5.8190   25.0340 C   0  0  0  0  0  3  0  0  0  0  0  0
  -21.4850   -4.4590   24.9450 C   0  0  0  0  0  0  0  0  0  0  0  0
  -21.9290   -3.9260   23.7220 C   0  0  0  0  0  3  0  0  0  0  0  0
  -22.0190   -4.7510   22.5880 C   0  0  0  0  0  0  0  0  0  0  0  0
  -22.4270   -4.2280   21.4070 F   0  0  0  0  0  0  0  0  0  0  0  0
  -21.3920   -3.6620   26.0330 F   0  0  0  0  0  0  0  0  0  0  0  0
  -22.7300  -13.5220   21.2610 C   0  0  0  0  0  0  0  0  0  0  0  0
  -22.0060  -12.8080   22.1160 N   0  0  0  0  0  0  0  0  0  0  0  0
  -22.2850  -14.5540   20.7600 O   0  0  0  0  0  0  0  0  0  0  0  0
  -22.3740  -11.9740   22.5490 H   0  0  0  0  0  0  0  0  0  0  0  0
  -21.0660  -13.1040   22.3400 H   0  0  0  0  0  0  0  0  0  0  0  0
  -25.3380  -15.2200   20.4450 N   0  0  0  0  0  0  0  0  0  0  0  0
  -24.5640  -15.8600   20.5830 H   0  0  0  0  0  0  0  0  0  0  0  0
  -26.1660  -15.6750   20.0860 H   0  0  0  0  0  0  0  0  0  0  0  0
  -29.4700  -21.5090   21.4290 C   0  0  0  0  0  2  0  0  0  0  0  0
  -28.5040  -22.6520   20.9380 C   0  0  0  0  0  2  0  0  0  0  0  0
  -29.0820  -24.0720   20.5720 C   0  0  0  0  0  2  0  0  0  0  0  0
  -28.1580  -25.2650   21.0100 C   0  0  0  0  0  2  0  0  0  0  0  0
  -28.4180  -26.5930   20.4450 O   0  0  0  0  0  0  0  0  0  0  0  0
  -24.5930  -31.9450   23.3040 C   0  0  0  0  0  0  0  0  0  0  0  0
  -27.3010  -27.4170   20.3570 C   0  0  0  0  0  0  0  0  0  0  0  0
  -23.4320  -30.5130   21.6590 C   0  0  0  0  0  3  0  0  0  0  0  0
  -24.9190  -28.9650   20.2810 C   0  0  0  0  0  0  0  0  0  0  0  0
  -25.9660  -30.8660   21.5170 C   0  0  0  0  0  2  0  0  0  0  0  0
  -26.0700  -29.4860   20.8890 C   0  0  0  0  0  0  0  0  0  0  0  0
  -27.2670  -28.7200   20.9190 C   0  0  0  0  0  3  0  0  0  0  0  0
  -26.1370  -26.9430   19.7100 C   0  0  0  0  0  3  0  0  0  0  0  0
  -24.9510  -27.6950   19.6880 C   0  0  0  0  0  3  0  0  0  0  0  0
  -23.6750  -29.8220   20.2940 C   0  0  0  0  0  2  0  0  0  0  0  0
  -24.6800  -31.1260   22.2160 N   0  0  0  0  0  0  0  0  0  0  0  0
  -23.4970  -32.2150   23.8170 O   0  0  0  0  0  0  0  0  0  0  0  0
  -22.7660  -29.4990   22.6200 C   0  0  0  0  0  0  0  0  0  0  0  0
  -21.4460  -29.3000   22.4650 N   0  0  0  0  0  0  0  0  0  0  0  0
  -23.4370  -28.8930   23.4590 O   0  0  0  0  0  0  0  0  0  0  0  0
  -20.9620  -29.8450   21.7650 H   0  0  0  0  0  0  0  0  0  0  0  0
  -18.0730  -28.0730   22.9060 C   0  0  0  0  0  0  0  0  0  0  0  0
  -20.6210  -28.3650   23.2290 C   0  0  0  0  0  3  0  0  0  0  0  0
  -20.7550  -26.9240   22.6800 C   0  0  0  0  0  2  0  0  0  0  0  0
  -19.6770  -26.5720   21.6460 C   0  0  0  0  0  2  0  0  0  0  0  0
  -18.2810  -26.7140   22.2560 C   0  0  0  0  0  2  0  0  0  0  0  0
  -19.1740  -28.8550   23.3480 C   0  0  0  0  0  0  0  0  0  0  0  0
  -18.9270  -30.1230   23.9130 C   0  0  0  0  0  3  0  0  0  0  0  0
  -17.6140  -30.6100   24.0440 C   0  0  0  0  0  3  0  0  0  0  0  0
  -16.5280  -29.8260   23.6200 C   0  0  0  0  0  3  0  0  0  0  0  0
  -16.7580  -28.5590   23.0530 C   0  0  0  0  0  3  0  0  0  0  0  0
  -25.8590  -32.5950   23.9410 C   0  0  0  0  0  3  0  0  0  0  0  0
  -25.5350  -33.9970   24.2350 N   0  0  0  0  0  0  0  0  0  0  0  0
  -25.8780  -35.0370   23.4630 C   0  0  0  0  0  0  0  0  0  0  0  0
  -26.5700  -34.9180   22.4480 O   0  0  0  0  0  0  0  0  0  0  0  0
  -24.9260  -34.1660   25.0220 H   0  0  0  0  0  0  0  0  0  0  0  0
  -24.1520  -36.8140   23.0330 C   0  0  0  0  0  1  0  0  0  0  0  0
  -25.3740  -36.4310   23.8830 C   0  0  0  0  0  3  0  0  0  0  0  0
  -27.4810  -37.3410   24.7570 C   0  0  0  0  0  1  0  0  0  0  0  0
  -26.4060  -37.4870   23.7780 N   0  0  0  0  0  0  0  0  0  0  0  0
  -25.9920  -38.4060   23.8980 H   0  0  0  0  0  0  0  0  0  0  0  0
  -26.3530  -31.8540   25.2440 C   0  0  1  0  0  0  0  0  0  0  0  0
  -25.2380  -31.6250   26.2920 C   0  0  0  0  0  1  0  0  0  0  0  0
  -26.9570  -30.4760   24.8930 C   0  0  0  0  0  1  0  0  0  0  0  0
  -27.4790  -32.6750   25.9160 C   0  0  0  0  0  1  0  0  0  0  0  0
  2  3  2  0
  3  1  1  0
  3 47  1  0
  4  1  2  0
  5  6  2  0
  5  2  1  0
  6  4  1  0
  8  7  1  0
  8  4  1  0
  8 17  1  0
 10 15  1  0
 11 12  1  0
 11 10  1  0
 13 12  1  0
 13 22  1  0
 13 14  1  0
 15  9  1  0
 15 14  1  0
 16  9  2  0
 17  9  1  0
 17 18  1  0
 19 20  2  0
 20 39  1  0
 21 20  1  0
 21 24  1  0
 22 23  1  0
 22 19  1  0
 23 21  2  0
 24 25  1  0
 25 26  2  0
 27 30  1  0
 27 26  1  0
 28 27  2  0
 29 28  1  0
 29 24  2  0
 30 31  1  0
 31 32  1  0
 32 33  2  0
 34 33  1  0
 34 38  1  0
 35 34  2  0
 36 31  2  0
 36 35  1  0
 37 36  1  0
 39 40  1  0
 40 43  1  0
 40 42  1  0
 41 39  2  0
 44 45  1  0
 44 19  1  0
 46 44  1  0
 48 47  1  0
 49 48  1  0
 49 50  1  0
 51 50  1  0
 52 63  2  0
 53 51  1  0
 53 58  1  0
 54 62  1  0
 54 64  1  0
 55 61  1  0
 55 57  1  0
 56 62  1  0
 57 58  2  0
 57 56  1  0
 59 53  2  0
 60 59  1  0
 60 55  2  0
 61 54  1  0
 62 52  1  0
 64 66  2  0
 65 64  1  0
 67 65  1  0
 68 77  2  0
 68 73  1  0
 69 65  1  0
 69 73  1  0
 70 69  1  0
 71 72  1  0
 71 70  1  0
 72 68  1  0
 73 74  2  0
 74 75  1  0
 76 75  2  0
 77 76  1  0
 78 52  1  0
 78 79  1  0
 78 88  1  0
 79 82  1  0
 80 84  1  0
 80 79  1  0
 81 80  2  0
 84 83  1  0
 86 84  1  0
 86 87  1  0
 86 85  1  0
 88 91  1  1
 88 89  1  0
 90 88  1  0
M  ISO  4   9 100  17 100  50 101  51 101
M  END
>  <TORSDO>  (44) 
F 21

>  <SCORE>  (44) 
-13.469

>  <name>  (44) 
43

>  <ligand_id>  (44) 
43

>  <original_smiles>  (44) 
[H]c1nnc(C([H])(N([H])C(=O)N2C([H])([H])C([H])([H])C([H])([H])C([H])(n3nc(-c4c([H])c([H])c(Oc5c([H])c([H])c(F)c([H])c5F)c([H])c4[H])c(C(=O)N([H])[H])c3N([H])[H])C2([H])[H])C([H])([H])[H])c([H])c1C([H])([H])C([H])([H])C([H])([H])C([H])([H])Oc1c([H])c([H])c2c(c1[H])C([H])([H])N(C(=O)C([H])(N([H])C(=O)C([H])(N([H])C([H])([H])[H])C([H])([H])[H])C(C([H])([H])[H])(C([H])([H])[H])C([H])([H])[H])C([H])(C(=O)N([H])C1([H])c3c([H])c([H])c([H])c([H])c3C([H])([H])C([H])([H])C1([H])[H])C2([H])[H]

>  <smiles>  (44) 
[H]c1nnc(C([H])(N([H])C(=O)N2C([H])([H])C([H])([H])C([H])([H])C([H])(n3nc(-c4c([H])c([H])c(Oc5c([H])c([H])c(F)c([H])c5F)c([H])c4[H])c(C(=O)N([H])[H])c3N([H])[H])C2([H])[H])C([H])([H])[H])c([H])c1C([H])([H])C([H])([H])C([H])([H])C([H])([H])Oc1c([H])c([H])c2c(c1[H])C([H])([H])N(C(=O)C([H])(N([H])C(=O)C([H])(N([H])C([H])([H])[H])C([H])([H])[H])C(C([H])([H])[H])(C([H])([H])[H])C([H])([H])[H])C([H])(C(=O)N([H])C1([H])c3c([H])c([H])c([H])c([H])c3C([H])([H])C([H])([H])C1([H])[H])C2([H])[H]

$$$$
44:0:0
     RDKit          3D

 94102  0  0  1  0  0  0  0  0999 V2000
  -30.0110  -19.7330   19.6960 C   0  0  0  0  0  3  0  0  0  0  0  0
  -30.7090  -19.0470   20.7270 C   0  0  0  0  0  0  0  0  0  0  0  0
  -29.5280  -20.8850   20.2660 C   0  0  0  0  0  0  0  0  0  0  0  0
  -29.6700  -21.7150   22.7220 C   0  0  0  0  0  1  0  0  0  0  0  0
  -30.6360  -19.7090   21.8700 N   0  0  0  0  0  0  0  0  0  0  0  0
  -29.8950  -20.8070   21.6110 N   0  0  0  0  0  0  0  0  0  0  0  0
  -29.0580  -22.0730   18.0980 C   0  0  0  0  0  1  0  0  0  0  0  0
  -27.2420  -21.7750   19.7730 C   0  0  0  0  0  1  0  0  0  0  0  0
  -28.7540  -22.0290   19.6160 C   0  0  1  0  0  0  0  0  0  0  0  0
  -29.1470  -23.4050   20.2390 C   0  0  0  0  0  2  0  0  0  0  0  0
  -28.6380  -24.6830   19.5370 C   0  0  0  0  0  2  0  0  0  0  0  0
  -28.7440  -25.9160   20.4490 C   0  0  0  0  0  2  0  0  0  0  0  0
  -28.6330  -27.1360   19.7220 O   0  0  0  0  0  0  0  0  0  0  0  0
  -24.5850  -31.8760   23.1500 C   0  0  0  0  0  0  0  0  0  0  0  0
  -27.4170  -27.7660   19.8090 C   0  0  0  0  0  0  0  0  0  0  0  0
  -23.4300  -30.4970   21.4520 C   0  0  0  0  0  3  0  0  0  0  0  0
  -24.9410  -29.1090   19.9390 C   0  0  0  0  0  0  0  0  0  0  0  0
  -25.9270  -31.0030   21.2440 C   0  0  0  0  0  2  0  0  0  0  0  0
  -26.0750  -29.6730   20.5350 C   0  0  0  0  0  0  0  0  0  0  0  0
  -27.3170  -29.0070   20.4710 C   0  0  0  0  0  3  0  0  0  0  0  0
  -26.2670  -27.2040   19.2170 C   0  0  0  0  0  3  0  0  0  0  0  0
  -25.0260  -27.8680   19.2850 C   0  0  0  0  0  3  0  0  0  0  0  0
  -23.6510  -29.8940   20.0400 C   0  0  0  0  0  2  0  0  0  0  0  0
  -24.6650  -31.1380   22.0070 N   0  0  0  0  0  0  0  0  0  0  0  0
  -23.4980  -32.0630   23.7140 O   0  0  0  0  0  0  0  0  0  0  0  0
  -22.8480  -29.3970   22.3660 C   0  0  0  0  0  0  0  0  0  0  0  0
  -21.5350  -29.1470   22.2350 N   0  0  0  0  0  0  0  0  0  0  0  0
  -23.5730  -28.7740   23.1460 O   0  0  0  0  0  0  0  0  0  0  0  0
  -21.0110  -29.7000   21.5710 H   0  0  0  0  0  0  0  0  0  0  0  0
  -18.2440  -27.7260   22.6740 C   0  0  0  0  0  0  0  0  0  0  0  0
  -20.7800  -28.1330   22.9660 C   0  0  0  0  0  3  0  0  0  0  0  0
  -20.9730  -26.7360   22.3330 C   0  0  0  0  0  2  0  0  0  0  0  0
  -19.8930  -26.3840   21.3050 C   0  0  0  0  0  2  0  0  0  0  0  0
  -18.5040  -26.4190   21.9460 C   0  0  0  0  0  2  0  0  0  0  0  0
  -19.3120  -28.5380   23.1380 C   0  0  0  0  0  0  0  0  0  0  0  0
  -19.0150  -29.7610   23.7800 C   0  0  0  0  0  3  0  0  0  0  0  0
  -17.6830  -30.1760   23.9580 C   0  0  0  0  0  3  0  0  0  0  0  0
  -16.6280  -29.3630   23.5110 C   0  0  0  0  0  3  0  0  0  0  0  0
  -16.9090  -28.1390   22.8750 C   0  0  0  0  0  3  0  0  0  0  0  0
  -25.8460  -32.5370   23.7880 C   0  0  0  0  0  3  0  0  0  0  0  0
  -25.4940  -33.9240   24.1190 N   0  0  0  0  0  0  0  0  0  0  0  0
  -25.8160  -34.9880   23.3720 C   0  0  0  0  0  0  0  0  0  0  0  0
  -26.5110  -34.9100   22.3560 O   0  0  0  0  0  0  0  0  0  0  0  0
  -24.8730  -34.0570   24.9030 H   0  0  0  0  0  0  0  0  0  0  0  0
  -24.0430  -36.7320   22.9970 C   0  0  0  0  0  1  0  0  0  0  0  0
  -25.2830  -36.3610   23.8240 C   0  0  0  0  0  3  0  0  0  0  0  0
  -27.3780  -37.3030   24.6910 C   0  0  0  0  0  1  0  0  0  0  0  0
  -26.2860  -37.4440   23.7300 N   0  0  0  0  0  0  0  0  0  0  0  0
  -25.8520  -38.3510   23.8750 H   0  0  0  0  0  0  0  0  0  0  0  0
  -26.3750  -31.7750   25.0650 C   0  0  1  0  0  0  0  0  0  0  0  0
  -25.2830  -31.4990   26.1250 C   0  0  0  0  0  1  0  0  0  0  0  0
  -27.0000  -30.4170   24.6680 C   0  0  0  0  0  1  0  0  0  0  0  0
  -27.5020  -32.5970   25.7340 C   0  0  0  0  0  1  0  0  0  0  0  0
  -33.0810  -18.3500   20.7520 C   0  0  0  0  0  1  0  0  0  0  0  0
  -31.6360  -17.8560   20.5880 C   0  0  0  0  0  3  0  0  0  0  0  0
  -31.3540  -16.6780   21.5670 C   0  0  0  0  0  2  0  0  0  0  0  0
  -31.0900  -14.6310   20.1740 C   0  0  0  0  0  0  0  0  0  0  0  0
  -30.7010  -12.4780   19.0300 C   0  0  0  0  0  2  0  0  0  0  0  0
  -29.7150  -12.6310   17.8560 C   0  0  0  0  0  2  0  0  0  0  0  0
  -28.2570  -12.5280   18.3420 C   0  0  0  0  0  2  0  0  0  0  0  0
  -27.9720  -13.4150   19.5820 C   0  0  0  0  0  3  0  0  0  0  0  0
  -29.0570  -13.2140   20.6610 C   0  0  0  0  0  2  0  0  0  0  0  0
  -30.3650  -13.4890   20.0440 N   0  0  0  0  0  0  0  0  0  0  0  0
  -32.1460  -14.8290   19.5670 O   0  0  0  0  0  0  0  0  0  0  0  0
  -30.5940  -15.5480   21.0190 N   0  0  0  0  0  0  0  0  0  0  0  0
  -29.6990  -15.3450   21.4390 H   0  0  0  0  0  0  0  0  0  0  0  0
  -25.6330  -14.0800   20.4240 C   0  0  0  0  0  0  0  0  0  0  0  0
  -24.5530  -13.3310   20.8100 C   0  0  0  0  0  0  0  0  0  0  0  0
  -24.9600  -11.9660   20.7010 C   0  0  0  0  0  0  0  0  0  0  0  0
  -26.6320  -13.1700   20.1100 N   0  0  0  0  0  0  0  0  0  0  0  0
  -26.2320  -11.8920   20.3320 N   0  0  0  0  0  0  0  0  0  0  0  0
  -24.1960  -10.7240   20.8710 C   0  0  0  0  0  0  0  0  0  0  0  0
  -24.6030   -9.7250   21.7810 C   0  0  0  0  0  3  0  0  0  0  0  0
  -23.8390   -8.5470   21.9420 C   0  0  0  0  0  3  0  0  0  0  0  0
  -22.6560   -8.3620   21.1900 C   0  0  0  0  0  0  0  0  0  0  0  0
  -22.2680   -9.3500   20.2670 C   0  0  0  0  0  3  0  0  0  0  0  0
  -23.0300  -10.5190   20.1050 C   0  0  0  0  0  3  0  0  0  0  0  0
  -21.8670   -7.2400   21.2590 O   0  0  0  0  0  0  0  0  0  0  0  0
  -21.7590   -6.5060   22.4140 C   0  0  0  0  0  0  0  0  0  0  0  0
  -21.2920   -7.0770   23.6180 C   0  0  0  0  0  3  0  0  0  0  0  0
  -21.1300   -6.2710   24.7630 C   0  0  0  0  0  3  0  0  0  0  0  0
  -21.4240   -4.8960   24.7030 C   0  0  0  0  0  0  0  0  0  0  0  0
  -21.8820   -4.3240   23.5030 C   0  0  0  0  0  3  0  0  0  0  0  0
  -22.0450   -5.1280   22.3610 C   0  0  0  0  0  0  0  0  0  0  0  0
  -22.4670   -4.5680   21.2000 F   0  0  0  0  0  0  0  0  0  0  0  0
  -21.2610   -4.1190   25.8000 F   0  0  0  0  0  0  0  0  0  0  0  0
  -23.1900  -13.8470   21.1700 C   0  0  0  0  0  0  0  0  0  0  0  0
  -22.4840  -13.1460   22.0510 N   0  0  0  0  0  0  0  0  0  0  0  0
  -22.7640  -14.9040   20.7070 O   0  0  0  0  0  0  0  0  0  0  0  0
  -22.8450  -12.2890   22.4440 H   0  0  0  0  0  0  0  0  0  0  0  0
  -21.5720  -13.4720   22.3370 H   0  0  0  0  0  0  0  0  0  0  0  0
  -25.8450  -15.4480   20.2940 N   0  0  0  0  0  0  0  0  0  0  0  0
  -25.1140  -16.1300   20.4680 H   0  0  0  0  0  0  0  0  0  0  0  0
  -26.7000  -15.8640   19.9460 H   0  0  0  0  0  0  0  0  0  0  0  0
  1  3  2  0
  1  2  1  0
  2  5  2  0
  3  6  1  0
  6  5  1  0
  6  4  1  0
  9  7  1  6
  9  8  1  0
  9 10  1  0
  9  3  1  0
 11 10  1  0
 11 12  1  0
 13 15  1  0
 13 12  1  0
 14 25  2  0
 15 20  1  0
 16 24  1  0
 16 26  1  0
 17 23  1  0
 17 19  1  0
 18 24  1  0
 19 18  1  0
 20 19  2  0
 21 22  1  0
 21 15  2  0
 22 17  2  0
 23 16  1  0
 24 14  1  0
 26 28  2  0
 27 26  1  0
 29 27  1  0
 30 39  2  0
 30 35  1  0
 31 27  1  0
 31 35  1  0
 32 31  1  0
 33 34  1  0
 33 32  1  0
 34 30  1  0
 35 36  2  0
 36 37  1  0
 38 37  2  0
 39 38  1  0
 40 14  1  0
 40 41  1  0
 40 50  1  0
 41 44  1  0
 42 46  1  0
 42 41  1  0
 43 42  2  0
 46 45  1  0
 48 46  1  0
 48 49  1  0
 48 47  1  0
 50 53  1  1
 50 51  1  0
 52 50  1  0
 55  2  1  0
 55 54  1  0
 55 56  1  0
 57 65  1  0
 58 63  1  0
 59 60  1  0
 59 58  1  0
 61 60  1  0
 61 70  1  0
 61 62  1  0
 63 57  1  0
 63 62  1  0
 64 57  2  0
 65 66  1  0
 65 56  1  0
 67 68  2  0
 68 87  1  0
 69 68  1  0
 69 72  1  0
 70 71  1  0
 70 67  1  0
 71 69  2  0
 72 73  1  0
 73 74  2  0
 75 78  1  0
 75 74  1  0
 76 75  2  0
 77 76  1  0
 77 72  2  0
 78 79  1  0
 79 80  1  0
 80 81  2  0
 82 81  1  0
 82 86  1  0
 83 82  2  0
 84 79  2  0
 84 83  1  0
 85 84  1  0
 87 88  1  0
 88 91  1  0
 88 90  1  0
 89 87  2  0
 92 67  1  0
 92 93  1  0
 94 92  1  0
M  ISO  4  12 101  13 101  57 100  65 100
M  END
>  <TORSDO>  (45) 
F 22

>  <SCORE>  (45) 
-12.696

>  <name>  (45) 
44

>  <ligand_id>  (45) 
44

>  <original_smiles>  (45) 
[H]c1c([H])c([H])c2c(c1[H])C([H])([H])C([H])([H])C([H])([H])C2([H])N([H])C(=O)C1([H])N(C(=O)C([H])(N([H])C(=O)C([H])(N([H])C([H])([H])[H])C([H])([H])[H])C(C([H])([H])[H])(C([H])([H])[H])C([H])([H])[H])C([H])([H])c2c([H])c(OC([H])([H])C([H])([H])C([H])([H])C(c3c([H])c(C([H])(C([H])([H])[H])C([H])([H])N([H])C(=O)N4C([H])([H])C([H])([H])C([H])([H])C([H])(n5nc(-c6c([H])c([H])c(Oc7c([H])c([H])c(F)c([H])c7F)c([H])c6[H])c(C(=O)N([H])[H])c5N([H])[H])C4([H])[H])nn3C([H])([H])[H])(C([H])([H])[H])C([H])([H])[H])c([H])c([H])c2C1([H])[H]

>  <smiles>  (45) 
[H]c1c([H])c([H])c2c(c1[H])C([H])([H])C([H])([H])C([H])([H])C2([H])N([H])C(=O)C1([H])N(C(=O)C([H])(N([H])C(=O)C([H])(N([H])C([H])([H])[H])C([H])([H])[H])C(C([H])([H])[H])(C([H])([H])[H])C([H])([H])[H])C([H])([H])c2c([H])c(OC([H])([H])C([H])([H])C([H])([H])C(c3c([H])c(C([H])(C([H])([H])[H])C([H])([H])N([H])C(=O)N4C([H])([H])C([H])([H])C([H])([H])C([H])(n5nc(-c6c([H])c([H])c(Oc7c([H])c([H])c(F)c([H])c7F)c([H])c6[H])c(C(=O)N([H])[H])c5N([H])[H])C4([H])[H])nn3C([H])([H])[H])(C([H])([H])[H])C([H])([H])[H])c([H])c([H])c2C1([H])[H]

$$$$
45:0:0
     RDKit          3D

 97104  0  0  1  0  0  0  0  0999 V2000
  -29.5270  -21.3540   22.4010 C   0  0  0  0  0  1  0  0  0  0  0  0
  -29.4360  -21.1380   20.8740 C   0  0  0  0  0  3  0  0  0  0  0  0
  -30.1970  -19.6590   18.9220 C   0  0  0  0  0  1  0  0  0  0  0  0
  -30.2710  -19.8890   20.4460 C   0  0  0  0  0  3  0  0  0  0  0  0
  -30.0460  -18.5640   21.2670 C   0  0  1  0  0  0  0  0  0  0  0  0
  -29.3870  -18.8210   22.3980 F   0  0  0  0  0  0  0  0  0  0  0  0
  -29.2580  -17.7520   20.5570 F   0  0  0  0  0  0  0  0  0  0  0  0
  -30.9920  -16.9130   22.9470 C   0  0  0  0  0  1  0  0  0  0  0  0
  -32.4350  -18.7790   22.1650 C   0  0  0  0  0  1  0  0  0  0  0  0
  -31.3350  -17.7890   21.7170 C   0  0  2  0  0  0  0  0  0  0  0  0
  -31.9330  -16.8920   20.6020 C   0  0  0  0  0  2  0  0  0  0  0  0
  -31.6720  -14.5910   19.7480 C   0  0  0  0  0  0  0  0  0  0  0  0
  -31.2440  -12.2720   19.0340 C   0  0  0  0  0  2  0  0  0  0  0  0
  -30.2540  -12.2430   17.8550 C   0  0  0  0  0  2  0  0  0  0  0  0
  -28.7990  -12.2410   18.3630 C   0  0  0  0  0  2  0  0  0  0  0  0
  -28.5340  -13.3450   19.4210 C   0  0  0  0  0  3  0  0  0  0  0  0
  -29.6260  -13.3280   20.5130 C   0  0  0  0  0  2  0  0  0  0  0  0
  -30.9370  -13.4550   19.8500 N   0  0  0  0  0  0  0  0  0  0  0  0
  -32.7080  -14.6740   19.0810 O   0  0  0  0  0  0  0  0  0  0  0  0
  -31.2050  -15.6390   20.4290 N   0  0  0  0  0  0  0  0  0  0  0  0
  -30.3270  -15.5430   20.9130 H   0  0  0  0  0  0  0  0  0  0  0  0
  -26.3110  -14.2140   20.3850 C   0  0  0  0  0  0  0  0  0  0  0  0
  -25.1740  -13.5670   20.7860 C   0  0  0  0  0  0  0  0  0  0  0  0
  -25.4280  -12.1730   20.6070 C   0  0  0  0  0  0  0  0  0  0  0  0
  -27.1960  -13.2200   19.9960 N   0  0  0  0  0  0  0  0  0  0  0  0
  -26.6700  -11.9830   20.1820 N   0  0  0  0  0  0  0  0  0  0  0  0
  -24.5430  -11.0120   20.7610 C   0  0  0  0  0  0  0  0  0  0  0  0
  -24.8900   -9.9250   21.5940 C   0  0  0  0  0  3  0  0  0  0  0  0
  -24.0120   -8.8280   21.7400 C   0  0  0  0  0  3  0  0  0  0  0  0
  -22.7750   -8.8120   21.0550 C   0  0  0  0  0  0  0  0  0  0  0  0
  -22.4450   -9.8860   20.2100 C   0  0  0  0  0  3  0  0  0  0  0  0
  -23.3200  -10.9750   20.0620 C   0  0  0  0  0  3  0  0  0  0  0  0
  -21.8730   -7.7770   21.1160 O   0  0  0  0  0  0  0  0  0  0  0  0
  -21.7510   -6.9950   22.2360 C   0  0  0  0  0  0  0  0  0  0  0  0
  -21.4560   -7.5470   23.5020 C   0  0  0  0  0  3  0  0  0  0  0  0
  -21.2680   -6.7010   24.6130 C   0  0  0  0  0  3  0  0  0  0  0  0
  -21.3660   -5.3050   24.4610 C   0  0  0  0  0  0  0  0  0  0  0  0
  -21.6540   -4.7530   23.1990 C   0  0  0  0  0  3  0  0  0  0  0  0
  -21.8420   -5.5950   22.0910 C   0  0  0  0  0  0  0  0  0  0  0  0
  -22.0990   -5.0580   20.8740 F   0  0  0  0  0  0  0  0  0  0  0  0
  -21.1790   -4.4910   25.5260 F   0  0  0  0  0  0  0  0  0  0  0  0
  -23.8880  -14.2080   21.2240 C   0  0  0  0  0  0  0  0  0  0  0  0
  -23.1500  -13.5540   22.1140 N   0  0  0  0  0  0  0  0  0  0  0  0
  -23.5520  -15.3170   20.8120 O   0  0  0  0  0  0  0  0  0  0  0  0
  -23.4350  -12.6530   22.4680 H   0  0  0  0  0  0  0  0  0  0  0  0
  -22.2870  -13.9600   22.4480 H   0  0  0  0  0  0  0  0  0  0  0  0
  -26.6610  -15.5580   20.3030 N   0  0  0  0  0  0  0  0  0  0  0  0
  -26.0250  -16.3020   20.5650 H   0  0  0  0  0  0  0  0  0  0  0  0
  -27.5720  -15.8960   20.0210 H   0  0  0  0  0  0  0  0  0  0  0  0
  -27.9820  -21.1710   20.3180 C   0  0  0  0  0  2  0  0  0  0  0  0
  -25.6830  -22.2480   20.2850 C   0  0  0  0  0  1  0  0  0  0  0  0
  -27.1780  -22.4690   20.5820 C   0  0  0  0  0  3  0  0  0  0  0  0
  -27.7080  -23.6990   19.8020 C   0  0  0  0  0  2  0  0  0  0  0  0
  -28.0260  -24.9380   20.6710 C   0  0  0  0  0  2  0  0  0  0  0  0
  -29.5080  -25.3620   20.6040 C   0  0  0  0  0  2  0  0  0  0  0  0
  -29.8460  -26.6770   21.3350 C   0  0  0  0  0  2  0  0  0  0  0  0
  -29.6750  -27.8190   20.4940 O   0  0  0  0  0  0  0  0  0  0  0  0
  -25.0540  -32.0120   23.9430 C   0  0  0  0  0  0  0  0  0  0  0  0
  -28.4340  -28.3980   20.5350 C   0  0  0  0  0  0  0  0  0  0  0  0
  -24.1620  -30.7700   22.0010 C   0  0  0  0  0  3  0  0  0  0  0  0
  -25.8970  -29.6220   20.5250 C   0  0  0  0  0  0  0  0  0  0  0  0
  -26.6370  -31.3990   22.1220 C   0  0  0  0  0  2  0  0  0  0  0  0
  -26.9290  -30.1590   21.3060 C   0  0  0  0  0  0  0  0  0  0  0  0
  -28.2020  -29.5470   21.3190 C   0  0  0  0  0  3  0  0  0  0  0  0
  -27.3960  -27.8770   19.7410 C   0  0  0  0  0  3  0  0  0  0  0  0
  -26.1210  -28.4740   19.7460 C   0  0  0  0  0  3  0  0  0  0  0  0
  -24.5650  -30.3380   20.5670 C   0  0  0  0  0  2  0  0  0  0  0  0
  -25.2960  -31.4000   22.7500 N   0  0  0  0  0  0  0  0  0  0  0  0
  -23.9070  -32.0920   24.4030 O   0  0  0  0  0  0  0  0  0  0  0  0
  -23.5470  -29.5550   22.7300 C   0  0  0  0  0  0  0  0  0  0  0  0
  -22.2700  -29.2630   22.4340 N   0  0  0  0  0  0  0  0  0  0  0  0
  -24.2190  -28.8830   23.5170 O   0  0  0  0  0  0  0  0  0  0  0  0
  -21.7860  -29.8680   21.7870 H   0  0  0  0  0  0  0  0  0  0  0  0
  -19.0230  -27.6790   22.3770 C   0  0  0  0  0  0  0  0  0  0  0  0
  -21.4950  -28.1420   22.9660 C   0  0  0  0  0  3  0  0  0  0  0  0
  -21.8170  -26.8340   22.2070 C   0  0  0  0  0  2  0  0  0  0  0  0
  -20.8610  -26.5630   21.0430 C   0  0  0  0  0  2  0  0  0  0  0  0
  -19.4170  -26.4720   21.5420 C   0  0  0  0  0  2  0  0  0  0  0  0
  -20.0010  -28.4730   23.0320 C   0  0  0  0  0  0  0  0  0  0  0  0
  -19.5830  -29.6060   23.7640 C   0  0  0  0  0  3  0  0  0  0  0  0
  -18.2200  -29.9440   23.8520 C   0  0  0  0  0  3  0  0  0  0  0  0
  -17.2560  -29.1450   23.2150 C   0  0  0  0  0  3  0  0  0  0  0  0
  -17.6560  -28.0140   22.4830 C   0  0  0  0  0  3  0  0  0  0  0  0
  -26.2030  -32.6610   24.7780 C   0  0  0  0  0  3  0  0  0  0  0  0
  -26.5300  -31.8690   26.1040 C   0  0  1  0  0  0  0  0  0  0  0  0
  -25.2830  -31.5650   26.9680 C   0  0  0  0  0  1  0  0  0  0  0  0
  -27.2190  -30.5230   25.7790 C   0  0  0  0  0  1  0  0  0  0  0  0
  -27.5280  -32.6800   26.9640 C   0  0  0  0  0  1  0  0  0  0  0  0
  -25.8040  -34.0410   25.0810 N   0  0  0  0  0  0  0  0  0  0  0  0
  -26.2350  -35.1190   24.4120 C   0  0  0  0  0  0  0  0  0  0  0  0
  -27.0750  -35.0560   23.5080 O   0  0  0  0  0  0  0  0  0  0  0  0
  -25.0720  -34.1600   25.7680 H   0  0  0  0  0  0  0  0  0  0  0  0
  -24.5410  -36.8760   23.8050 C   0  0  0  0  0  1  0  0  0  0  0  0
  -25.6400  -36.4850   24.8050 C   0  0  0  0  0  3  0  0  0  0  0  0
  -27.5950  -37.3850   25.9870 C   0  0  0  0  0  1  0  0  0  0  0  0
  -26.6500  -37.5620   24.8890 N   0  0  0  0  0  0  0  0  0  0  0  0
  -26.2030  -38.4660   25.0010 H   0  0  0  0  0  0  0  0  0  0  0  0
  2  1  1  0
  4  3  1  0
  4  2  1  0
  4  5  1  0
  5 10  1  0
  5  6  1  1
  7  5  1  0
 10  9  1  1
 10  8  1  0
 11 10  1  0
 12 18  1  0
 12 20  1  0
 13 18  1  0
 14 15  1  0
 14 13  1  0
 16 15  1  0
 16 25  1  0
 16 17  1  0
 18 17  1  0
 19 12  2  0
 20 11  1  0
 20 21  1  0
 22 23  2  0
 23 42  1  0
 24 27  1  0
 24 23  1  0
 25 26  1  0
 25 22  1  0
 26 24  2  0
 27 28  1  0
 28 29  2  0
 30 33  1  0
 30 29  1  0
 31 30  2  0
 32 31  1  0
 32 27  2  0
 33 34  1  0
 34 35  1  0
 35 36  2  0
 37 36  1  0
 37 41  1  0
 38 37  2  0
 39 34  2  0
 39 38  1  0
 40 39  1  0
 42 43  1  0
 43 46  1  0
 43 45  1  0
 44 42  2  0
 47 22  1  0
 47 48  1  0
 49 47  1  0
 50 52  1  0
 50  2  1  0
 52 51  1  0
 53 52  1  0
 53 54  1  0
 55 54  1  0
 55 56  1  0
 57 59  1  0
 57 56  1  0
 58 69  2  0
 59 64  1  0
 60 70  1  0
 60 68  1  0
 61 67  1  0
 61 63  1  0
 62 68  1  0
 63 64  2  0
 63 62  1  0
 65 66  1  0
 65 59  2  0
 66 61  2  0
 67 60  1  0
 68 58  1  0
 70 72  2  0
 71 70  1  0
 73 71  1  0
 74 83  2  0
 74 79  1  0
 75 71  1  0
 75 79  1  0
 76 75  1  0
 77 78  1  0
 77 76  1  0
 78 74  1  0
 79 80  2  0
 80 81  1  0
 82 81  2  0
 83 82  1  0
 84 58  1  0
 84 89  1  0
 84 85  1  0
 85 88  1  1
 85 86  1  0
 87 85  1  0
 89 92  1  0
 90 94  1  0
 90 89  1  0
 91 90  2  0
 94 93  1  0
 94 96  1  0
 96 97  1  0
 96 95  1  0
M  ISO  4  12 100  20 100  56 101  57 101
M  END
>  <TORSDO>  (46) 
F 26

>  <SCORE>  (46) 
-7.200

>  <name>  (46) 
45

>  <ligand_id>  (46) 
45

>  <original_smiles>  (46) 
[H]c1c([H])c([H])c2c(c1[H])C([H])([H])C([H])([H])C([H])([H])C2([H])N([H])C(=O)C1([H])N(C(=O)C([H])(N([H])C(=O)C([H])(N([H])C([H])([H])[H])C([H])([H])[H])C(C([H])([H])[H])(C([H])([H])[H])C([H])([H])[H])C([H])([H])c2c([H])c(OC([H])([H])C([H])([H])C([H])([H])C([H])([H])C([H])(C([H])([H])[H])C([H])([H])C([H])(C([H])([H])[H])C([H])(C([H])([H])[H])C(F)(F)C(C([H])([H])[H])(C([H])([H])[H])C([H])([H])N([H])C(=O)N3C([H])([H])C([H])([H])C([H])([H])C([H])(n4nc(-c5c([H])c([H])c(Oc6c([H])c([H])c(F)c([H])c6F)c([H])c5[H])c(C(=O)N([H])[H])c4N([H])[H])C3([H])[H])c([H])c([H])c2C1([H])[H]

>  <smiles>  (46) 
[H]c1c([H])c([H])c2c(c1[H])C([H])([H])C([H])([H])C([H])([H])C2([H])N([H])C(=O)C1([H])N(C(=O)C([H])(N([H])C(=O)C([H])(N([H])C([H])([H])[H])C([H])([H])[H])C(C([H])([H])[H])(C([H])([H])[H])C([H])([H])[H])C([H])([H])c2c([H])c(OC([H])([H])C([H])([H])C([H])([H])C([H])([H])C([H])(C([H])([H])[H])C([H])([H])C([H])(C([H])([H])[H])C([H])(C([H])([H])[H])C(F)(F)C(C([H])([H])[H])(C([H])([H])[H])C([H])([H])N([H])C(=O)N3C([H])([H])C([H])([H])C([H])([H])C([H])(n4nc(-c5c([H])c([H])c(Oc6c([H])c([H])c(F)c([H])c6F)c([H])c5[H])c(C(=O)N([H])[H])c4N([H])[H])C3([H])[H])c([H])c([H])c2C1([H])[H]

$$$$
46:0:0
     RDKit          3D

 88 95  0  0  1  0  0  0  0  0999 V2000
  -30.5510  -23.3700   19.7790 C   0  0  0  0  0  1  0  0  0  0  0  0
  -29.1490  -22.9060   21.8070 C   0  0  0  0  0  1  0  0  0  0  0  0
  -29.1690  -22.8960   20.2700 C   0  0  2  0  0  0  0  0  0  0  0  0
  -29.0880  -21.1710   19.7770 C   0  0  0  0  0  2  0  0  0  0  0  0
  -29.8310  -19.5490   21.7390 C   0  0  0  0  0  1  0  0  0  0  0  0
  -31.4850  -20.1050   19.9930 C   0  0  0  0  0  1  0  0  0  0  0  0
  -30.0160  -19.6990   20.2170 C   0  0  2  0  0  0  0  0  0  0  0  0
  -29.9410  -18.0480   19.5160 C   0  0  0  0  0  2  0  0  0  0  0  0
  -30.6670  -15.2100   19.8700 C   0  0  0  0  0  0  0  0  0  0  0  0
  -30.5430  -12.7870   18.9490 C   0  0  0  0  0  2  0  0  0  0  0  0
  -29.5380  -12.6270   17.7760 C   0  0  0  0  0  2  0  0  0  0  0  0
  -28.1020  -12.3920   18.2840 C   0  0  0  0  0  2  0  0  0  0  0  0
  -27.7520  -13.3310   19.4640 C   0  0  0  0  0  3  0  0  0  0  0  0
  -28.8770  -13.3480   20.5260 C   0  0  0  0  0  2  0  0  0  0  0  0
  -30.0780  -13.9040   19.8560 N   0  0  0  0  0  0  0  0  0  0  0  0
  -31.8280  -15.2050   19.4360 O   0  0  0  0  0  0  0  0  0  0  0  0
  -28.8430  -16.4270   21.0710 C   0  0  0  0  0  1  0  0  0  0  0  0
  -29.9620  -16.5010   20.1340 N   0  0  0  0  0  0  0  0  0  0  0  0
  -25.4240  -13.9590   20.3240 C   0  0  0  0  0  0  0  0  0  0  0  0
  -24.3600  -13.2090   20.7430 C   0  0  0  0  0  0  0  0  0  0  0  0
  -24.7840  -11.8480   20.6700 C   0  0  0  0  0  0  0  0  0  0  0  0
  -26.4340  -13.0590   20.0260 N   0  0  0  0  0  0  0  0  0  0  0  0
  -26.0570  -11.7800   20.2910 N   0  0  0  0  0  0  0  0  0  0  0  0
  -24.0280  -10.6080   20.8800 C   0  0  0  0  0  0  0  0  0  0  0  0
  -24.4420   -9.6410   21.8250 C   0  0  0  0  0  3  0  0  0  0  0  0
  -23.6850   -8.4670   22.0230 C   0  0  0  0  0  3  0  0  0  0  0  0
  -22.5000   -8.2520   21.2790 C   0  0  0  0  0  0  0  0  0  0  0  0
  -22.1050   -9.2060   20.3240 C   0  0  0  0  0  3  0  0  0  0  0  0
  -22.8620  -10.3710   20.1230 C   0  0  0  0  0  3  0  0  0  0  0  0
  -21.7160   -7.1270   21.3880 O   0  0  0  0  0  0  0  0  0  0  0  0
  -21.6110   -6.4350   22.5680 C   0  0  0  0  0  0  0  0  0  0  0  0
  -21.1560   -7.0510   23.7550 C   0  0  0  0  0  3  0  0  0  0  0  0
  -20.9950   -6.2860   24.9280 C   0  0  0  0  0  3  0  0  0  0  0  0
  -21.2790   -4.9070   24.9150 C   0  0  0  0  0  0  0  0  0  0  0  0
  -21.7280   -4.2920   23.7330 C   0  0  0  0  0  3  0  0  0  0  0  0
  -21.8890   -5.0530   22.5630 C   0  0  0  0  0  0  0  0  0  0  0  0
  -22.3020   -4.4510   21.4200 F   0  0  0  0  0  0  0  0  0  0  0  0
  -21.1160   -4.1700   26.0390 F   0  0  0  0  0  0  0  0  0  0  0  0
  -22.9960  -13.7300   21.0920 C   0  0  0  0  0  0  0  0  0  0  0  0
  -22.2940  -13.0540   21.9950 N   0  0  0  0  0  0  0  0  0  0  0  0
  -22.5650  -14.7730   20.6030 O   0  0  0  0  0  0  0  0  0  0  0  0
  -22.6560  -12.2120   22.4170 H   0  0  0  0  0  0  0  0  0  0  0  0
  -21.3820  -13.3870   22.2690 H   0  0  0  0  0  0  0  0  0  0  0  0
  -25.5970  -15.3270   20.1440 N   0  0  0  0  0  0  0  0  0  0  0  0
  -24.8500  -15.9910   20.3190 H   0  0  0  0  0  0  0  0  0  0  0  0
  -26.4250  -15.7560   19.7530 H   0  0  0  0  0  0  0  0  0  0  0  0
  -28.1170  -24.2740   19.8660 C   0  0  0  0  0  2  0  0  0  0  0  0
  -28.2420  -25.8690   20.1650 O   0  0  0  0  0  0  0  0  0  0  0  0
  -24.4370  -31.6520   23.0480 C   0  0  0  0  0  0  0  0  0  0  0  0
  -27.1820  -26.8960   20.0680 C   0  0  0  0  0  0  0  0  0  0  0  0
  -23.3050  -30.2300   21.3850 C   0  0  0  0  0  3  0  0  0  0  0  0
  -24.8200  -28.6700   19.9890 C   0  0  0  0  0  0  0  0  0  0  0  0
  -25.8650  -30.5230   21.2800 C   0  0  0  0  0  2  0  0  0  0  0  0
  -25.9840  -29.1200   20.6240 C   0  0  0  0  0  0  0  0  0  0  0  0
  -27.1590  -28.2530   20.6390 C   0  0  0  0  0  3  0  0  0  0  0  0
  -25.9850  -26.5780   19.3840 C   0  0  0  0  0  3  0  0  0  0  0  0
  -24.8420  -27.4190   19.3500 C   0  0  0  0  0  3  0  0  0  0  0  0
  -23.5740  -29.5520   20.0130 C   0  0  0  0  0  2  0  0  0  0  0  0
  -24.5560  -30.8270   21.9580 N   0  0  0  0  0  0  0  0  0  0  0  0
  -23.3330  -31.9110   23.5540 O   0  0  0  0  0  0  0  0  0  0  0  0
  -22.6190  -29.2170   22.3360 C   0  0  0  0  0  0  0  0  0  0  0  0
  -21.2930  -29.0390   22.2020 N   0  0  0  0  0  0  0  0  0  0  0  0
  -23.2870  -28.5910   23.1630 O   0  0  0  0  0  0  0  0  0  0  0  0
  -20.8030  -29.5910   21.5130 H   0  0  0  0  0  0  0  0  0  0  0  0
  -17.9180  -27.8000   22.6940 C   0  0  0  0  0  0  0  0  0  0  0  0
  -20.4760  -28.0850   22.9630 C   0  0  0  0  0  3  0  0  0  0  0  0
  -20.5900  -26.6600   22.3710 C   0  0  0  0  0  2  0  0  0  0  0  0
  -19.4910  -26.3410   21.3520 C   0  0  0  0  0  2  0  0  0  0  0  0
  -18.1080  -26.4620   21.9970 C   0  0  0  0  0  2  0  0  0  0  0  0
  -19.0300  -28.5680   23.1330 C   0  0  0  0  0  0  0  0  0  0  0  0
  -18.7950  -29.8180   23.7470 C   0  0  0  0  0  3  0  0  0  0  0  0
  -17.4850  -30.3000   23.9220 C   0  0  0  0  0  3  0  0  0  0  0  0
  -16.3890  -29.5300   23.4950 C   0  0  0  0  0  3  0  0  0  0  0  0
  -16.6070  -28.2810   22.8870 C   0  0  0  0  0  3  0  0  0  0  0  0
  -25.6840  -32.3230   23.7020 C   0  0  0  0  0  3  0  0  0  0  0  0
  -26.1930  -31.5580   24.9860 C   0  0  1  0  0  0  0  0  0  0  0  0
  -25.0830  -31.2920   26.0310 C   0  0  0  0  0  1  0  0  0  0  0  0
  -26.8160  -30.1960   24.6090 C   0  0  0  0  0  1  0  0  0  0  0  0
  -27.3120  -32.3750   25.6740 C   0  0  0  0  0  1  0  0  0  0  0  0
  -25.3230  -33.7080   24.0470 N   0  0  0  0  0  0  0  0  0  0  0  0
  -25.6330  -34.7870   23.3130 C   0  0  0  0  0  0  0  0  0  0  0  0
  -26.3150  -34.7200   22.2870 O   0  0  0  0  0  0  0  0  0  0  0  0
  -24.7130  -33.8310   24.8420 H   0  0  0  0  0  0  0  0  0  0  0  0
  -23.8520  -36.5380   22.9880 C   0  0  0  0  0  1  0  0  0  0  0  0
  -25.1050  -36.1540   23.7920 C   0  0  0  0  0  3  0  0  0  0  0  0
  -27.2120  -37.0920   24.6390 C   0  0  0  0  0  1  0  0  0  0  0  0
  -26.1050  -37.2420   23.6980 N   0  0  0  0  0  0  0  0  0  0  0  0
  -25.6690  -38.1460   23.8610 H   0  0  0  0  0  0  0  0  0  0  0  0
  3  1  1  1
  3  2  1  0
  4  7  1  0
  4  3  1  0
  7  6  1  1
  7  5  1  0
  8 18  1  0
  8  7  1  0
  9 18  1  0
 10 15  1  0
 11 12  1  0
 11 10  1  0
 13 12  1  0
 13 22  1  0
 13 14  1  0
 15  9  1  0
 15 14  1  0
 16  9  2  0
 18 17  1  0
 19 20  2  0
 20 39  1  0
 21 20  1  0
 21 24  1  0
 22 23  1  0
 22 19  1  0
 23 21  2  0
 24 25  1  0
 25 26  2  0
 27 30  1  0
 27 26  1  0
 28 27  2  0
 29 28  1  0
 29 24  2  0
 30 31  1  0
 31 32  1  0
 32 33  2  0
 34 33  1  0
 34 38  1  0
 35 34  2  0
 36 31  2  0
 36 35  1  0
 37 36  1  0
 39 40  1  0
 40 43  1  0
 40 42  1  0
 41 39  2  0
 44 45  1  0
 44 19  1  0
 46 44  1  0
 47 48  1  0
 47  3  1  0
 49 60  2  0
 50 48  1  0
 50 55  1  0
 51 59  1  0
 51 61  1  0
 52 58  1  0
 52 54  1  0
 53 59  1  0
 54 55  2  0
 54 53  1  0
 56 50  2  0
 57 56  1  0
 57 52  2  0
 58 51  1  0
 59 49  1  0
 61 63  2  0
 62 61  1  0
 64 62  1  0
 65 74  2  0
 65 70  1  0
 66 62  1  0
 66 70  1  0
 67 66  1  0
 68 69  1  0
 68 67  1  0
 69 65  1  0
 70 71  2  0
 71 72  1  0
 73 72  2  0
 74 73  1  0
 75 49  1  0
 75 80  1  0
 75 76  1  0
 76 79  1  1
 76 77  1  0
 78 76  1  0
 80 83  1  0
 81 85  1  0
 81 80  1  0
 82 81  2  0
 85 84  1  0
 87 85  1  0
 87 88  1  0
 87 86  1  0
M  ISO  4   9 100  18 100  47 101  48 101
M  END
>  <TORSDO>  (47) 
F 20

>  <SCORE>  (47) 
-14.874

>  <name>  (47) 
46

>  <ligand_id>  (47) 
46

>  <original_smiles>  (47) 
[H]c1c([H])c([H])c2c(c1[H])C([H])([H])C([H])([H])C([H])([H])C2([H])N([H])C(=O)C1([H])N(C(=O)C([H])(N([H])C(=O)C([H])(N([H])C([H])([H])[H])C([H])([H])[H])C(C([H])([H])[H])(C([H])([H])[H])C([H])([H])[H])C([H])([H])c2c([H])c(OC([H])([H])C(C([H])([H])[H])(C([H])([H])[H])C([H])([H])C(C([H])([H])[H])(C([H])([H])[H])C([H])([H])N(C(=O)N3C([H])([H])C([H])([H])C([H])([H])C([H])(n4nc(-c5c([H])c([H])c(Oc6c([H])c([H])c(F)c([H])c6F)c([H])c5[H])c(C(=O)N([H])[H])c4N([H])[H])C3([H])[H])C([H])([H])[H])c([H])c([H])c2C1([H])[H]

>  <smiles>  (47) 
[H]c1c([H])c([H])c2c(c1[H])C([H])([H])C([H])([H])C([H])([H])C2([H])N([H])C(=O)C1([H])N(C(=O)C([H])(N([H])C(=O)C([H])(N([H])C([H])([H])[H])C([H])([H])[H])C(C([H])([H])[H])(C([H])([H])[H])C([H])([H])[H])C([H])([H])c2c([H])c(OC([H])([H])C(C([H])([H])[H])(C([H])([H])[H])C([H])([H])C(C([H])([H])[H])(C([H])([H])[H])C([H])([H])N(C(=O)N3C([H])([H])C([H])([H])C([H])([H])C([H])(n4nc(-c5c([H])c([H])c(Oc6c([H])c([H])c(F)c([H])c6F)c([H])c5[H])c(C(=O)N([H])[H])c4N([H])[H])C3([H])[H])C([H])([H])[H])c([H])c([H])c2C1([H])[H]

$$$$
47:0:0
     RDKit          3D

 94102  0  0  1  0  0  0  0  0999 V2000
  -29.7280  -20.4250   19.8420 C   0  0  0  0  0  3  0  0  0  0  0  0
  -27.5950  -20.4990   19.5880 C   0  0  0  0  0  3  0  0  0  0  0  0
  -28.6040  -21.4070   19.8480 C   0  0  0  0  0  0  0  0  0  0  0  0
  -29.3940  -19.0480   19.5960 C   0  0  0  0  0  0  0  0  0  0  0  0
  -28.0050  -19.1500   19.4850 N   0  0  0  0  0  0  0  0  0  0  0  0
  -25.8510  -18.3570   18.4680 C   0  0  0  0  0  1  0  0  0  0  0  0
  -26.6440  -17.4820   20.7080 C   0  0  0  0  0  1  0  0  0  0  0  0
  -27.0800  -18.0180   19.3360 C   0  0  0  0  0  3  0  0  0  0  0  0
  -29.3020  -23.2320   21.4890 C   0  0  0  0  0  1  0  0  0  0  0  0
  -26.8980  -23.0450   20.8500 C   0  0  0  0  0  1  0  0  0  0  0  0
  -28.3430  -23.0280   20.3050 C   0  0  2  0  0  0  0  0  0  0  0  0
  -28.3400  -24.4800   19.3910 C   0  0  0  0  0  2  0  0  0  0  0  0
  -28.3180  -25.9680   19.9470 O   0  0  0  0  0  0  0  0  0  0  0  0
  -24.6160  -31.6270   22.9920 C   0  0  0  0  0  0  0  0  0  0  0  0
  -27.2570  -26.9620   19.8590 C   0  0  0  0  0  0  0  0  0  0  0  0
  -23.4470  -30.2610   21.3090 C   0  0  0  0  0  3  0  0  0  0  0  0
  -24.9190  -28.7290   19.8530 C   0  0  0  0  0  0  0  0  0  0  0  0
  -26.0020  -30.5290   21.1870 C   0  0  0  0  0  2  0  0  0  0  0  0
  -26.0880  -29.1510   20.4980 C   0  0  0  0  0  0  0  0  0  0  0  0
  -27.2450  -28.2840   20.4870 C   0  0  0  0  0  3  0  0  0  0  0  0
  -26.0670  -26.6650   19.1550 C   0  0  0  0  0  3  0  0  0  0  0  0
  -24.9240  -27.5090   19.1610 C   0  0  0  0  0  3  0  0  0  0  0  0
  -23.6810  -29.6150   19.9170 C   0  0  0  0  0  2  0  0  0  0  0  0
  -24.7080  -30.8290   21.8830 N   0  0  0  0  0  0  0  0  0  0  0  0
  -23.5210  -31.8950   23.5170 O   0  0  0  0  0  0  0  0  0  0  0  0
  -22.7670  -29.2290   22.2410 C   0  0  0  0  0  0  0  0  0  0  0  0
  -21.4300  -29.0980   22.1420 N   0  0  0  0  0  0  0  0  0  0  0  0
  -23.4400  -28.5510   23.0220 O   0  0  0  0  0  0  0  0  0  0  0  0
  -20.9480  -29.6890   21.4780 H   0  0  0  0  0  0  0  0  0  0  0  0
  -18.0210  -28.0130   22.7280 C   0  0  0  0  0  0  0  0  0  0  0  0
  -20.6020  -28.1440   22.8840 C   0  0  0  0  0  3  0  0  0  0  0  0
  -20.6120  -26.7550   22.2080 C   0  0  0  0  0  2  0  0  0  0  0  0
  -19.4500  -26.5540   21.2320 C   0  0  0  0  0  2  0  0  0  0  0  0
  -18.1050  -26.7130   21.9500 C   0  0  0  0  0  2  0  0  0  0  0  0
  -19.1930  -28.6960   23.1490 C   0  0  0  0  0  0  0  0  0  0  0  0
  -19.0560  -29.9220   23.8370 C   0  0  0  0  0  3  0  0  0  0  0  0
  -17.7830  -30.4580   24.1100 C   0  0  0  0  0  3  0  0  0  0  0  0
  -16.6280  -29.7680   23.7040 C   0  0  0  0  0  3  0  0  0  0  0  0
  -16.7480  -28.5490   23.0160 C   0  0  0  0  0  3  0  0  0  0  0  0
  -25.8840  -32.2560   23.6490 C   0  0  0  0  0  3  0  0  0  0  0  0
  -25.5560  -33.6380   24.0350 N   0  0  0  0  0  0  0  0  0  0  0  0
  -25.8680  -34.7290   23.3230 C   0  0  0  0  0  0  0  0  0  0  0  0
  -26.5320  -34.6770   22.2850 O   0  0  0  0  0  0  0  0  0  0  0  0
  -24.9760  -33.7510   24.8530 H   0  0  0  0  0  0  0  0  0  0  0  0
  -24.1070  -36.5070   23.0640 C   0  0  0  0  0  1  0  0  0  0  0  0
  -25.3660  -36.0900   23.8420 C   0  0  0  0  0  3  0  0  0  0  0  0
  -27.4950  -36.9780   24.6830 C   0  0  0  0  0  1  0  0  0  0  0  0
  -26.3780  -37.1650   23.7610 N   0  0  0  0  0  0  0  0  0  0  0  0
  -25.9570  -38.0700   23.9510 H   0  0  0  0  0  0  0  0  0  0  0  0
  -26.4010  -31.4500   24.9060 C   0  0  1  0  0  0  0  0  0  0  0  0
  -25.3020  -31.1740   25.9590 C   0  0  0  0  0  1  0  0  0  0  0  0
  -26.9990  -30.0880   24.4840 C   0  0  0  0  0  1  0  0  0  0  0  0
  -27.5410  -32.2320   25.6020 C   0  0  0  0  0  1  0  0  0  0  0  0
  -30.2770  -17.6620   19.3060 C   0  0  0  0  0  0  0  0  0  0  0  0
  -30.9140  -14.9770   19.8180 C   0  0  0  0  0  0  0  0  0  0  0  0
  -30.6450  -12.5980   18.9780 C   0  0  0  0  0  2  0  0  0  0  0  0
  -29.6730  -12.5690   17.7750 C   0  0  0  0  0  2  0  0  0  0  0  0
  -28.2180  -12.4420   18.2610 C   0  0  0  0  0  2  0  0  0  0  0  0
  -27.9070  -13.3800   19.4610 C   0  0  0  0  0  3  0  0  0  0  0  0
  -29.0080  -13.3820   20.5440 C   0  0  0  0  0  2  0  0  0  0  0  0
  -30.2660  -13.7350   19.8730 N   0  0  0  0  0  0  0  0  0  0  0  0
  -32.0840  -14.9420   19.4200 O   0  0  0  0  0  0  0  0  0  0  0  0
  -30.2210  -16.2200   20.0080 N   0  0  0  0  0  4  0  0  0  0  0  0
  -29.3620  -16.0660   20.5240 H   0  0  0  0  0  0  0  0  0  0  0  0
  -25.5700  -14.0470   20.2630 C   0  0  0  0  0  0  0  0  0  0  0  0
  -24.4900  -13.3190   20.6690 C   0  0  0  0  0  0  0  0  0  0  0  0
  -24.8970  -11.9490   20.6250 C   0  0  0  0  0  0  0  0  0  0  0  0
  -26.5720  -13.1310   19.9980 N   0  0  0  0  0  0  0  0  0  0  0  0
  -26.1760  -11.8600   20.2760 N   0  0  0  0  0  0  0  0  0  0  0  0
  -24.1190  -10.7210   20.8330 C   0  0  0  0  0  0  0  0  0  0  0  0
  -24.5100   -9.7500   21.7780 C   0  0  0  0  0  3  0  0  0  0  0  0
  -23.7290   -8.5860   21.9750 C   0  0  0  0  0  3  0  0  0  0  0  0
  -22.5390   -8.3940   21.2300 C   0  0  0  0  0  0  0  0  0  0  0  0
  -22.1700   -9.3550   20.2730 C   0  0  0  0  0  3  0  0  0  0  0  0
  -22.9510  -10.5080   20.0730 C   0  0  0  0  0  3  0  0  0  0  0  0
  -21.7360   -7.2870   21.3370 O   0  0  0  0  0  0  0  0  0  0  0  0
  -21.6250   -6.5920   22.5160 C   0  0  0  0  0  0  0  0  0  0  0  0
  -21.1950   -7.2160   23.7090 C   0  0  0  0  0  3  0  0  0  0  0  0
  -21.0240   -6.4550   24.8780 C   0  0  0  0  0  3  0  0  0  0  0  0
  -21.2670   -5.0650   24.8610 C   0  0  0  0  0  0  0  0  0  0  0  0
  -21.6880   -4.4440   23.6720 C   0  0  0  0  0  3  0  0  0  0  0  0
  -21.8600   -5.2040   22.5030 C   0  0  0  0  0  0  0  0  0  0  0  0
  -22.2440   -4.5920   21.3560 F   0  0  0  0  0  0  0  0  0  0  0  0
  -21.0950   -4.3310   25.9840 F   0  0  0  0  0  0  0  0  0  0  0  0
  -23.1290  -13.8600   20.9860 C   0  0  0  0  0  0  0  0  0  0  0  0
  -22.4100  -13.2120   21.8940 N   0  0  0  0  0  0  0  0  0  0  0  0
  -22.7220  -14.9020   20.4730 O   0  0  0  0  0  0  0  0  0  0  0  0
  -22.7680  -12.3720   22.3270 H   0  0  0  0  0  0  0  0  0  0  0  0
  -21.5030  -13.5660   22.1620 H   0  0  0  0  0  0  0  0  0  0  0  0
  -25.7770  -15.4040   20.0510 N   0  0  0  0  0  0  0  0  0  0  0  0
  -24.9930  -16.0430   20.0420 H   0  0  0  0  0  0  0  0  0  0  0  0
  -26.5980  -15.7850   19.6070 H   0  0  0  0  0  0  0  0  0  0  0  0
  -31.6440  -18.7070   17.3970 C   0  0  0  0  0  1  0  0  0  0  0  0
  -31.6870  -18.0740   18.8000 C   0  0  0  0  0  2  0  0  0  0  0  0
  1  3  1  0
  2  3  2  0
  3 11  1  0
  4  1  2  0
  5  2  1  0
  5  4  1  0
  6  8  1  0
  8  5  1  0
  8  7  1  0
 11 10  1  1
 11  9  1  0
 12 13  1  0
 12 11  1  0
 14 25  2  0
 15 13  1  0
 15 20  1  0
 16 24  1  0
 16 26  1  0
 17 23  1  0
 17 19  1  0
 18 24  1  0
 19 18  1  0
 20 19  2  0
 21 22  1  0
 21 15  2  0
 22 17  2  0
 23 16  1  0
 24 14  1  0
 26 28  2  0
 27 26  1  0
 29 27  1  0
 30 39  2  0
 30 35  1  0
 31 27  1  0
 31 35  1  0
 32 31  1  0
 33 34  1  0
 33 32  1  0
 34 30  1  0
 35 36  2  0
 36 37  1  0
 38 37  2  0
 39 38  1  0
 40 14  1  0
 40 41  1  0
 40 50  1  0
 41 44  1  0
 42 46  1  0
 42 41  1  0
 43 42  2  0
 46 45  1  0
 48 46  1  0
 48 49  1  0
 48 47  1  0
 50 53  1  1
 50 51  1  0
 52 50  1  0
 54  4  1  0
 54 63  2  0
 55 61  1  0
 55 63  1  0
 56 61  1  0
 57 58  1  0
 57 56  1  0
 59 58  1  0
 59 68  1  0
 59 60  1  0
 61 60  1  0
 62 55  2  0
 63 64  1  0
 65 66  2  0
 66 85  1  0
 67 66  1  0
 67 70  1  0
 68 65  1  0
 68 69  1  0
 69 67  2  0
 70 71  1  0
 71 72  2  0
 73 76  1  0
 73 72  1  0
 74 73  2  0
 75 74  1  0
 75 70  2  0
 76 77  1  0
 77 78  1  0
 78 79  2  0
 80 79  1  0
 80 84  1  0
 81 80  2  0
 82 77  2  0
 82 81  1  0
 83 82  1  0
 85 86  1  0
 86 89  1  0
 86 88  1  0
 87 85  2  0
 90 65  1  0
 91 90  1  0
 92 90  1  0
 93 94  1  0
 94 54  1  0
M  ISO  4  12 101  13 101  55 100  63 100
M  END
>  <TORSDO>  (48) 
F 21

>  <SCORE>  (48) 
-12.431

>  <name>  (48) 
47

>  <ligand_id>  (48) 
47

>  <original_smiles>  (48) 
[H]c1c([H])c([H])c2c(c1[H])C([H])([H])C([H])([H])C([H])([H])C2([H])N([H])C(=O)C1([H])N(C(=O)C([H])(N([H])C(=O)C([H])(N([H])C([H])([H])[H])C([H])([H])[H])C(C([H])([H])[H])(C([H])([H])[H])C([H])([H])[H])C([H])([H])c2c([H])c(OC([H])([H])C(c3c([H])c(C([H])(N([H])C(=O)N4C([H])([H])C([H])([H])C([H])([H])C([H])(n5nc(-c6c([H])c([H])c(Oc7c([H])c([H])c(F)c([H])c7F)c([H])c6[H])c(C(=O)N([H])[H])c5N([H])[H])C4([H])[H])C([H])([H])C([H])([H])[H])n(C([H])(C([H])([H])[H])C([H])([H])[H])c3[H])(C([H])([H])[H])C([H])([H])[H])c([H])c([H])c2C1([H])[H]

>  <smiles>  (48) 
[H]c1c([H])c([H])c2c(c1[H])C([H])([H])C([H])([H])C([H])([H])C2([H])N([H])C(=O)C1([H])N(C(=O)C([H])(N([H])C(=O)C([H])(N([H])C([H])([H])[H])C([H])([H])[H])C(C([H])([H])[H])(C([H])([H])[H])C([H])([H])[H])C([H])([H])c2c([H])c(OC([H])([H])C(c3c([H])c(C([H])(N([H])C(=O)N4C([H])([H])C([H])([H])C([H])([H])C([H])(n5nc(-c6c([H])c([H])c(Oc7c([H])c([H])c(F)c([H])c7F)c([H])c6[H])c(C(=O)N([H])[H])c5N([H])[H])C4([H])[H])C([H])([H])C([H])([H])[H])n(C([H])(C([H])([H])[H])C([H])([H])[H])c3[H])(C([H])([H])[H])C([H])([H])[H])c([H])c([H])c2C1([H])[H]

$$$$
48:0:0
     RDKit          3D

 90 98  0  0  1  0  0  0  0  0999 V2000
  -28.3130  -21.9990   17.6540 C   0  0  0  0  0  3  0  0  0  0  0  0
  -28.6850  -20.7800   18.2440 C   0  0  0  0  0  3  0  0  0  0  0  0
  -28.2940  -23.2050   18.3760 C   0  0  0  0  0  0  0  0  0  0  0  0
  -29.1270  -20.6900   19.5820 C   0  0  0  0  0  0  0  0  0  0  0  0
  -28.5750  -23.2100   19.7660 C   0  0  0  0  0  0  0  0  0  0  0  0
  -27.9110  -24.4460   17.5880 C   0  0  0  0  0  1  0  0  0  0  0  0
  -29.0190  -21.9340   20.3180 N   0  0  0  0  0  0  0  0  0  0  0  0
  -31.2460  -19.5020   20.5980 C   0  0  0  0  0  1  0  0  0  0  0  0
  -29.8950  -19.2090   19.9380 C   0  0  0  0  0  3  0  0  0  0  0  0
  -29.3300  -17.7710   20.6630 C   0  0  0  0  0  2  0  0  0  0  0  0
  -30.4350  -15.0520   20.3240 C   0  0  0  0  0  0  0  0  0  0  0  0
  -30.4040  -12.6990   19.3450 C   0  0  0  0  0  2  0  0  0  0  0  0
  -29.4420  -12.6320   18.1300 C   0  0  0  0  0  2  0  0  0  0  0  0
  -27.9850  -12.3690   18.5740 C   0  0  0  0  0  2  0  0  0  0  0  0
  -27.5790  -13.2800   19.7590 C   0  0  0  0  0  3  0  0  0  0  0  0
  -28.6460  -13.2890   20.8730 C   0  0  0  0  0  2  0  0  0  0  0  0
  -29.8960  -13.7620   20.2610 N   0  0  0  0  0  0  0  0  0  0  0  0
  -31.6540  -15.1500   20.1350 O   0  0  0  0  0  0  0  0  0  0  0  0
  -29.5460  -16.1800   20.3890 N   0  0  0  0  0  0  0  0  0  0  0  0
  -28.6240  -15.7660   20.4170 H   0  0  0  0  0  0  0  0  0  0  0  0
  -25.1990  -13.8720   20.5070 C   0  0  0  0  0  0  0  0  0  0  0  0
  -24.1370  -13.0950   20.8930 C   0  0  0  0  0  0  0  0  0  0  0  0
  -24.6060  -11.7450   20.8660 C   0  0  0  0  0  0  0  0  0  0  0  0
  -26.2430  -12.9890   20.2690 N   0  0  0  0  0  0  0  0  0  0  0  0
  -25.8970  -11.7090   20.5490 N   0  0  0  0  0  0  0  0  0  0  0  0
  -23.8820  -10.4780   21.0510 C   0  0  0  0  0  0  0  0  0  0  0  0
  -24.3210   -9.5050   21.9740 C   0  0  0  0  0  3  0  0  0  0  0  0
  -23.5950   -8.3070   22.1540 C   0  0  0  0  0  3  0  0  0  0  0  0
  -22.4170   -8.0780   21.4080 C   0  0  0  0  0  0  0  0  0  0  0  0
  -21.9990   -9.0320   20.4660 C   0  0  0  0  0  3  0  0  0  0  0  0
  -22.7260  -10.2210   20.2850 C   0  0  0  0  0  3  0  0  0  0  0  0
  -21.6630   -6.9310   21.4960 O   0  0  0  0  0  0  0  0  0  0  0  0
  -21.6220   -6.1830   22.6430 C   0  0  0  0  0  0  0  0  0  0  0  0
  -21.2080   -6.7290   23.8800 C   0  0  0  0  0  3  0  0  0  0  0  0
  -21.1130   -5.9050   25.0180 C   0  0  0  0  0  3  0  0  0  0  0  0
  -21.4270   -4.5360   24.9270 C   0  0  0  0  0  0  0  0  0  0  0  0
  -21.8390   -3.9890   23.6980 C   0  0  0  0  0  3  0  0  0  0  0  0
  -21.9310   -4.8090   22.5610 C   0  0  0  0  0  0  0  0  0  0  0  0
  -22.3060   -4.2710   21.3750 F   0  0  0  0  0  0  0  0  0  0  0  0
  -21.3300   -3.7440   26.0190 F   0  0  0  0  0  0  0  0  0  0  0  0
  -22.7400  -13.5700   21.1640 C   0  0  0  0  0  0  0  0  0  0  0  0
  -22.0160  -12.8720   22.0320 N   0  0  0  0  0  0  0  0  0  0  0  0
  -22.3000  -14.5920   20.6390 O   0  0  0  0  0  0  0  0  0  0  0  0
  -22.3930  -12.0430   22.4670 H   0  0  0  0  0  0  0  0  0  0  0  0
  -21.0710  -13.1610   22.2550 H   0  0  0  0  0  0  0  0  0  0  0  0
  -25.3590  -15.2390   20.3110 N   0  0  0  0  0  0  0  0  0  0  0  0
  -24.5490  -15.8460   20.2820 H   0  0  0  0  0  0  0  0  0  0  0  0
  -26.1460  -15.6190   19.8010 H   0  0  0  0  0  0  0  0  0  0  0  0
  -28.2060  -24.6060   20.6350 C   0  0  0  0  0  2  0  0  0  0  0  0
  -28.3010  -26.1350   20.2030 O   0  0  0  0  0  0  0  0  0  0  0  0
  -24.6050  -31.8530   23.2250 C   0  0  0  0  0  0  0  0  0  0  0  0
  -27.2140  -27.1030   20.2300 C   0  0  0  0  0  0  0  0  0  0  0  0
  -23.4080  -30.4470   21.5860 C   0  0  0  0  0  3  0  0  0  0  0  0
  -24.8710  -28.8570   20.1850 C   0  0  0  0  0  0  0  0  0  0  0  0
  -25.9650  -30.7130   21.4320 C   0  0  0  0  0  2  0  0  0  0  0  0
  -26.0520  -29.3130   20.7840 C   0  0  0  0  0  0  0  0  0  0  0  0
  -27.2240  -28.4560   20.7800 C   0  0  0  0  0  3  0  0  0  0  0  0
  -25.9970  -26.7530   19.6090 C   0  0  0  0  0  3  0  0  0  0  0  0
  -24.8570  -27.5890   19.5790 C   0  0  0  0  0  3  0  0  0  0  0  0
  -23.6410  -29.7560   20.2160 C   0  0  0  0  0  2  0  0  0  0  0  0
  -24.6780  -31.0280   22.1340 N   0  0  0  0  0  0  0  0  0  0  0  0
  -23.5200  -32.1410   23.7540 O   0  0  0  0  0  0  0  0  0  0  0  0
  -22.7270  -29.4500   22.5580 C   0  0  0  0  0  0  0  0  0  0  0  0
  -21.3970  -29.2790   22.4380 N   0  0  0  0  0  0  0  0  0  0  0  0
  -23.4030  -28.8240   23.3780 O   0  0  0  0  0  0  0  0  0  0  0  0
  -20.9120  -29.8340   21.7490 H   0  0  0  0  0  0  0  0  0  0  0  0
  -18.0220  -28.0740   22.9570 C   0  0  0  0  0  0  0  0  0  0  0  0
  -20.5810  -28.3450   23.2150 C   0  0  0  0  0  3  0  0  0  0  0  0
  -20.6830  -26.9090   22.6490 C   0  0  0  0  0  2  0  0  0  0  0  0
  -19.5780  -26.5800   21.6380 C   0  0  0  0  0  2  0  0  0  0  0  0
  -18.1990  -26.7220   22.2860 C   0  0  0  0  0  2  0  0  0  0  0  0
  -19.1390  -28.8430   23.3790 C   0  0  0  0  0  0  0  0  0  0  0  0
  -18.9170  -30.1070   23.9680 C   0  0  0  0  0  3  0  0  0  0  0  0
  -17.6110  -30.6040   24.1370 C   0  0  0  0  0  3  0  0  0  0  0  0
  -16.5090  -29.8330   23.7290 C   0  0  0  0  0  3  0  0  0  0  0  0
  -16.7140  -28.5700   23.1460 C   0  0  0  0  0  3  0  0  0  0  0  0
  -25.8850  -32.4920   23.8460 C   0  0  0  0  0  3  0  0  0  0  0  0
  -26.4050  -31.7260   25.1260 C   0  0  1  0  0  0  0  0  0  0  0  0
  -25.3140  -31.4940   26.1970 C   0  0  0  0  0  1  0  0  0  0  0  0
  -26.9890  -30.3430   24.7550 C   0  0  0  0  0  1  0  0  0  0  0  0
  -27.5560  -32.5240   25.7820 C   0  0  0  0  0  1  0  0  0  0  0  0
  -25.5730  -33.8920   24.1770 N   0  0  0  0  0  0  0  0  0  0  0  0
  -25.9010  -34.9480   23.4240 C   0  0  0  0  0  0  0  0  0  0  0  0
  -26.5680  -34.8480   22.3890 O   0  0  0  0  0  0  0  0  0  0  0  0
  -24.9780  -34.0430   24.9800 H   0  0  0  0  0  0  0  0  0  0  0  0
  -24.1720  -36.7450   23.0810 C   0  0  0  0  0  1  0  0  0  0  0  0
  -25.4160  -36.3350   23.8880 C   0  0  0  0  0  3  0  0  0  0  0  0
  -27.5500  -37.2200   24.7210 C   0  0  0  0  0  1  0  0  0  0  0  0
  -26.4480  -37.3890   23.7770 N   0  0  0  0  0  0  0  0  0  0  0  0
  -26.0380  -38.3060   23.9290 H   0  0  0  0  0  0  0  0  0  0  0  0
  1  2  2  0
  1  3  1  0
  2  4  1  0
  3  5  2  0
  4  9  1  0
  4  7  2  0
  5  7  1  0
  5 49  1  0
  6  3  1  0
  9  8  1  0
  9 10  1  0
 11 19  1  0
 12 17  1  0
 13 14  1  0
 13 12  1  0
 15 14  1  0
 15 24  1  0
 15 16  1  0
 17 11  1  0
 17 16  1  0
 18 11  2  0
 19 20  1  0
 19 10  1  0
 21 22  2  0
 22 41  1  0
 23 22  1  0
 23 26  1  0
 24 21  1  0
 24 25  1  0
 25 23  2  0
 26 27  1  0
 27 28  2  0
 29 32  1  0
 29 28  1  0
 30 29  2  0
 31 30  1  0
 31 26  2  0
 32 33  1  0
 33 34  1  0
 34 35  2  0
 36 35  1  0
 36 40  1  0
 37 36  2  0
 38 33  2  0
 38 37  1  0
 39 38  1  0
 41 42  1  0
 42 45  1  0
 42 44  1  0
 43 41  2  0
 46 21  1  0
 47 46  1  0
 48 46  1  0
 50 52  1  0
 50 49  1  0
 51 62  2  0
 52 57  1  0
 53 61  1  0
 53 63  1  0
 54 60  1  0
 54 56  1  0
 55 61  1  0
 56 55  1  0
 57 56  2  0
 58 52  2  0
 59 58  1  0
 59 54  2  0
 60 53  1  0
 61 51  1  0
 63 65  2  0
 64 63  1  0
 66 64  1  0
 67 76  2  0
 67 72  1  0
 68 64  1  0
 68 72  1  0
 69 68  1  0
 70 71  1  0
 70 69  1  0
 71 67  1  0
 72 73  2  0
 73 74  1  0
 75 74  2  0
 76 75  1  0
 77 51  1  0
 77 82  1  0
 77 78  1  0
 78 81  1  1
 78 79  1  0
 80 78  1  0
 82 85  1  0
 83 87  1  0
 83 82  1  0
 84 83  2  0
 87 86  1  0
 89 87  1  0
 89 90  1  0
 89 88  1  0
M  ISO  4  11 100  19 100  49 101  50 101
M  END
>  <TORSDO>  (49) 
F 19

>  <SCORE>  (49) 
-15.174

>  <name>  (49) 
48

>  <ligand_id>  (49) 
48

>  <original_smiles>  (49) 
[H]c1c(C([H])(C([H])([H])[H])C([H])([H])N([H])C(=O)N2C([H])([H])C([H])([H])C([H])([H])C([H])(n3nc(-c4c([H])c([H])c(Oc5c([H])c([H])c(F)c([H])c5F)c([H])c4[H])c(C(=O)N([H])[H])c3N([H])[H])C2([H])[H])nc(C([H])([H])Oc2c([H])c([H])c3c(c2[H])C([H])([H])N(C(=O)C([H])(N([H])C(=O)C([H])(N([H])C([H])([H])[H])C([H])([H])[H])C(C([H])([H])[H])(C([H])([H])[H])C([H])([H])[H])C([H])(C(=O)N([H])C2([H])c4c([H])c([H])c([H])c([H])c4C([H])([H])C([H])([H])C2([H])[H])C3([H])[H])c(C([H])([H])[H])c1[H]

>  <smiles>  (49) 
[H]c1c(C([H])(C([H])([H])[H])C([H])([H])N([H])C(=O)N2C([H])([H])C([H])([H])C([H])([H])C([H])(n3nc(-c4c([H])c([H])c(Oc5c([H])c([H])c(F)c([H])c5F)c([H])c4[H])c(C(=O)N([H])[H])c3N([H])[H])C2([H])[H])nc(C([H])([H])Oc2c([H])c([H])c3c(c2[H])C([H])([H])N(C(=O)C([H])(N([H])C(=O)C([H])(N([H])C([H])([H])[H])C([H])([H])[H])C(C([H])([H])[H])(C([H])([H])[H])C([H])([H])[H])C([H])(C(=O)N([H])C2([H])c4c([H])c([H])c([H])c([H])c4C([H])([H])C([H])([H])C2([H])[H])C3([H])[H])c(C([H])([H])[H])c1[H]

$$$$
49:0:0
     RDKit          3D

 93101  0  0  1  0  0  0  0  0999 V2000
  -27.5240  -20.4910   20.6120 C   0  0  0  0  0  3  0  0  0  0  0  0
  -28.2260  -19.2940   20.4100 C   0  0  0  0  0  3  0  0  0  0  0  0
  -28.0240  -21.7040   20.0890 C   0  0  0  0  0  0  0  0  0  0  0  0
  -29.4640  -19.3180   19.7500 C   0  0  0  0  0  0  0  0  0  0  0  0
  -29.2360  -21.6630   19.3460 C   0  0  0  0  0  0  0  0  0  0  0  0
  -29.9390  -20.4910   19.2200 N   0  0  0  0  0  0  0  0  0  0  0  0
  -26.2330  -23.0050   21.4580 C   0  0  0  0  0  1  0  0  0  0  0  0
  -27.2360  -23.0010   20.2920 C   0  0  0  0  0  2  0  0  0  0  0  0
  -30.2930  -18.0110   19.5390 C   0  0  0  0  0  2  0  0  0  0  0  0
  -29.9290  -17.0790   21.9410 C   0  0  0  0  0  1  0  0  0  0  0  0
  -29.9900  -16.7340   20.4390 C   0  0  0  0  0  3  0  0  0  0  0  0
  -31.2290  -14.6940   19.4530 C   0  0  0  0  0  0  0  0  0  0  0  0
  -30.7700  -12.4370   18.5490 C   0  0  0  0  0  2  0  0  0  0  0  0
  -29.7220  -12.4990   17.4220 C   0  0  0  0  0  2  0  0  0  0  0  0
  -28.3040  -12.3920   18.0070 C   0  0  0  0  0  2  0  0  0  0  0  0
  -28.0770  -13.3610   19.1970 C   0  0  0  0  0  3  0  0  0  0  0  0
  -29.2390  -13.3030   20.2180 C   0  0  0  0  0  2  0  0  0  0  0  0
  -30.4980  -13.5380   19.4960 N   0  0  0  0  0  0  0  0  0  0  0  0
  -32.2150  -14.8150   18.7290 O   0  0  0  0  0  0  0  0  0  0  0  0
  -31.0140  -15.6580   20.3700 N   0  0  0  0  0  0  0  0  0  0  0  0
  -31.9120  -16.0350   20.6370 H   0  0  0  0  0  0  0  0  0  0  0  0
  -25.8220  -14.0420   20.2260 C   0  0  0  0  0  0  0  0  0  0  0  0
  -24.7640  -13.3040   20.6860 C   0  0  0  0  0  0  0  0  0  0  0  0
  -25.1380  -11.9350   20.5290 C   0  0  0  0  0  0  0  0  0  0  0  0
  -26.7810  -13.1250   19.8300 N   0  0  0  0  0  0  0  0  0  0  0  0
  -26.3800  -11.8480   20.0660 N   0  0  0  0  0  0  0  0  0  0  0  0
  -24.3670  -10.7030   20.7400 C   0  0  0  0  0  0  0  0  0  0  0  0
  -24.7580   -9.7440   21.7010 C   0  0  0  0  0  3  0  0  0  0  0  0
  -23.9890   -8.5780   21.9030 C   0  0  0  0  0  3  0  0  0  0  0  0
  -22.8160   -8.3610   21.1430 C   0  0  0  0  0  0  0  0  0  0  0  0
  -22.4420   -9.3080   20.1710 C   0  0  0  0  0  3  0  0  0  0  0  0
  -23.2120  -10.4660   19.9700 C   0  0  0  0  0  3  0  0  0  0  0  0
  -22.0230   -7.2440   21.2510 O   0  0  0  0  0  0  0  0  0  0  0  0
  -21.8130   -6.6230   22.4570 C   0  0  0  0  0  0  0  0  0  0  0  0
  -21.2410   -7.3030   23.5550 C   0  0  0  0  0  3  0  0  0  0  0  0
  -20.9770   -6.6080   24.7520 C   0  0  0  0  0  3  0  0  0  0  0  0
  -21.2780   -5.2370   24.8510 C   0  0  0  0  0  0  0  0  0  0  0  0
  -21.8440   -4.5580   23.7590 C   0  0  0  0  0  3  0  0  0  0  0  0
  -22.1080   -5.2490   22.5640 C   0  0  0  0  0  0  0  0  0  0  0  0
  -22.6330   -4.5870   21.5040 F   0  0  0  0  0  0  0  0  0  0  0  0
  -21.0180   -4.5680   26.0000 F   0  0  0  0  0  0  0  0  0  0  0  0
  -23.4410  -13.8390   21.1530 C   0  0  0  0  0  0  0  0  0  0  0  0
  -22.8030  -13.1540   22.0960 N   0  0  0  0  0  0  0  0  0  0  0  0
  -22.9890  -14.8960   20.7170 O   0  0  0  0  0  0  0  0  0  0  0  0
  -23.1880  -12.3000   22.4700 H   0  0  0  0  0  0  0  0  0  0  0  0
  -21.9220  -13.4930   22.4520 H   0  0  0  0  0  0  0  0  0  0  0  0
  -26.0370  -15.4110   20.0920 N   0  0  0  0  0  0  0  0  0  0  0  0
  -25.3220  -16.0920   20.3220 H   0  0  0  0  0  0  0  0  0  0  0  0
  -26.8540  -15.8260   19.6630 H   0  0  0  0  0  0  0  0  0  0  0  0
  -29.7090  -22.8490   18.4510 C   0  0  0  0  0  2  0  0  0  0  0  0
  -29.8720  -24.3240   18.9950 C   0  0  0  0  0  2  0  0  0  0  0  0
  -28.8420  -25.3430   18.3970 C   0  0  0  0  0  2  0  0  0  0  0  0
  -28.8360  -26.7100   18.9120 O   0  0  0  0  0  0  0  0  0  0  0  0
  -24.7000  -30.9010   23.0010 C   0  0  0  0  0  0  0  0  0  0  0  0
  -27.6140  -27.3770   19.0310 C   0  0  0  0  0  0  0  0  0  0  0  0
  -23.5640  -29.7030   21.1650 C   0  0  0  0  0  3  0  0  0  0  0  0
  -25.0880  -28.6430   19.4160 C   0  0  0  0  0  0  0  0  0  0  0  0
  -26.0360  -30.3550   20.9620 C   0  0  0  0  0  2  0  0  0  0  0  0
  -26.2240  -29.1440   20.0630 C   0  0  0  0  0  0  0  0  0  0  0  0
  -27.4850  -28.5190   19.8710 C   0  0  0  0  0  3  0  0  0  0  0  0
  -26.4520  -26.9450   18.3430 C   0  0  0  0  0  3  0  0  0  0  0  0
  -25.2010  -27.5480   18.5500 C   0  0  0  0  0  3  0  0  0  0  0  0
  -23.7690  -29.3380   19.6730 C   0  0  0  0  0  2  0  0  0  0  0  0
  -24.7860  -30.3280   21.7670 N   0  0  0  0  0  0  0  0  0  0  0  0
  -23.6250  -30.9420   23.6180 O   0  0  0  0  0  0  0  0  0  0  0  0
  -23.0780  -28.4470   21.9290 C   0  0  0  0  0  0  0  0  0  0  0  0
  -21.8020  -28.0780   21.7310 N   0  0  0  0  0  0  0  0  0  0  0  0
  -23.8470  -27.8170   22.6590 O   0  0  0  0  0  0  0  0  0  0  0  0
  -21.2310  -28.6580   21.1330 H   0  0  0  0  0  0  0  0  0  0  0  0
  -18.6910  -26.2410   21.8490 C   0  0  0  0  0  0  0  0  0  0  0  0
  -21.1410  -26.9130   22.3210 C   0  0  0  0  0  3  0  0  0  0  0  0
  -21.5320  -25.6130   21.5810 C   0  0  0  0  0  2  0  0  0  0  0  0
  -20.5550  -25.2390   20.4620 C   0  0  0  0  0  2  0  0  0  0  0  0
  -19.1430  -25.0470   21.0250 C   0  0  0  0  0  2  0  0  0  0  0  0
  -19.6280  -27.1250   22.4450 C   0  0  0  0  0  0  0  0  0  0  0  0
  -19.1520  -28.2370   23.1730 C   0  0  0  0  0  3  0  0  0  0  0  0
  -17.7710  -28.4690   23.3140 C   0  0  0  0  0  3  0  0  0  0  0  0
  -16.8480  -27.5800   22.7360 C   0  0  0  0  0  3  0  0  0  0  0  0
  -17.3070  -26.4690   22.0080 C   0  0  0  0  0  3  0  0  0  0  0  0
  -25.9410  -31.5530   23.6830 C   0  0  0  0  0  3  0  0  0  0  0  0
  -25.5250  -32.8640   24.2010 N   0  0  0  0  0  0  0  0  0  0  0  0
  -25.7640  -34.0320   23.5910 C   0  0  0  0  0  0  0  0  0  0  0  0
  -26.4300  -34.1240   22.5570 O   0  0  0  0  0  0  0  0  0  0  0  0
  -24.9310  -32.8590   25.0170 H   0  0  0  0  0  0  0  0  0  0  0  0
  -23.9000  -35.7180   23.4730 C   0  0  0  0  0  1  0  0  0  0  0  0
  -25.1700  -35.3030   24.2320 C   0  0  0  0  0  3  0  0  0  0  0  0
  -27.2280  -36.2280   25.2010 C   0  0  0  0  0  1  0  0  0  0  0  0
  -26.1180  -36.4380   24.2750 N   0  0  0  0  0  0  0  0  0  0  0  0
  -25.6420  -37.2950   24.5430 H   0  0  0  0  0  0  0  0  0  0  0  0
  -26.5550  -30.6660   24.8360 C   0  0  1  0  0  0  0  0  0  0  0  0
  -25.5150  -30.1910   25.8780 C   0  0  0  0  0  1  0  0  0  0  0  0
  -27.2420  -29.4090   24.2540 C   0  0  0  0  0  1  0  0  0  0  0  0
  -27.6550  -31.4600   25.5790 C   0  0  0  0  0  1  0  0  0  0  0  0
  2  1  1  0
  3  8  1  0
  3  1  2  0
  4  2  2  0
  5  3  1  0
  6  5  2  0
  6  4  1  0
  8  7  1  0
  9  4  1  0
  9 11  1  0
 11 10  1  0
 12 18  1  0
 12 20  1  0
 13 18  1  0
 14 15  1  0
 14 13  1  0
 16 15  1  0
 16 25  1  0
 16 17  1  0
 18 17  1  0
 19 12  2  0
 20 11  1  0
 20 21  1  0
 22 23  2  0
 23 42  1  0
 24 23  1  0
 24 27  1  0
 25 26  1  0
 25 22  1  0
 26 24  2  0
 27 28  1  0
 28 29  2  0
 30 33  1  0
 30 29  1  0
 31 30  2  0
 32 31  1  0
 32 27  2  0
 33 34  1  0
 34 39  2  0
 34 35  1  0
 35 36  2  0
 36 37  1  0
 37 41  1  0
 38 37  2  0
 39 38  1  0
 40 39  1  0
 42 43  1  0
 43 46  1  0
 43 45  1  0
 44 42  2  0
 47 22  1  0
 47 48  1  0
 49 47  1  0
 50 51  1  0
 50  5  1  0
 52 53  1  0
 52 51  1  0
 53 55  1  0
 54 65  2  0
 55 60  1  0
 56 64  1  0
 56 66  1  0
 57 63  1  0
 57 59  1  0
 58 64  1  0
 59 58  1  0
 60 59  2  0
 61 62  1  0
 61 55  2  0
 62 57  2  0
 63 56  1  0
 64 54  1  0
 66 68  2  0
 67 66  1  0
 69 67  1  0
 70 79  2  0
 70 75  1  0
 71 67  1  0
 71 75  1  0
 72 71  1  0
 73 74  1  0
 73 72  1  0
 74 70  1  0
 75 76  2  0
 76 77  1  0
 78 77  2  0
 79 78  1  0
 80 54  1  0
 80 81  1  0
 80 90  1  0
 81 84  1  0
 82 81  1  0
 82 86  1  0
 83 82  2  0
 86 85  1  0
 86 88  1  0
 88 89  1  0
 88 87  1  0
 90 93  1  1
 90 91  1  0
 92 90  1  0
M  ISO  4  12 100  20 100  52 101  53 101
M  END
>  <TORSDO>  (50) 
F 22

>  <SCORE>  (50) 
-9.401

>  <name>  (50) 
49

>  <ligand_id>  (50) 
49

>  <original_smiles>  (50) 
[H]c1c(C([H])([H])C([H])(N([H])C(=O)N2C([H])([H])C([H])([H])C([H])([H])C([H])(n3nc(-c4c([H])c([H])c(Oc5c([H])c([H])c(F)c([H])c5F)c([H])c4[H])c(C(=O)N([H])[H])c3N([H])[H])C2([H])[H])C([H])([H])[H])nc(C([H])([H])C([H])([H])C([H])([H])Oc2c([H])c([H])c3c(c2[H])C([H])([H])N(C(=O)C([H])(N([H])C(=O)C([H])(N([H])C([H])([H])[H])C([H])([H])[H])C(C([H])([H])[H])(C([H])([H])[H])C([H])([H])[H])C([H])(C(=O)N([H])C2([H])c4c([H])c([H])c([H])c([H])c4C([H])([H])C([H])([H])C2([H])[H])C3([H])[H])c(C([H])([H])C([H])([H])[H])c1[H]

>  <smiles>  (50) 
[H]c1c(C([H])([H])C([H])(N([H])C(=O)N2C([H])([H])C([H])([H])C([H])([H])C([H])(n3nc(-c4c([H])c([H])c(Oc5c([H])c([H])c(F)c([H])c5F)c([H])c4[H])c(C(=O)N([H])[H])c3N([H])[H])C2([H])[H])C([H])([H])[H])nc(C([H])([H])C([H])([H])C([H])([H])Oc2c([H])c([H])c3c(c2[H])C([H])([H])N(C(=O)C([H])(N([H])C(=O)C([H])(N([H])C([H])([H])[H])C([H])([H])[H])C(C([H])([H])[H])(C([H])([H])[H])C([H])([H])[H])C([H])(C(=O)N([H])C2([H])c4c([H])c([H])c([H])c([H])c4C([H])([H])C([H])([H])C2([H])[H])C3([H])[H])c(C([H])([H])C([H])([H])[H])c1[H]

$$$$
50:0:0
     RDKit          3D

 93101  0  0  1  0  0  0  0  0999 V2000
  -28.9410  -21.1820   21.8470 C   0  0  0  0  0  3  0  0  0  0  0  0
  -28.8660  -22.2800   20.9700 C   0  0  0  0  0  0  0  0  0  0  0  0
  -29.5810  -22.1430   19.7390 C   0  0  0  0  0  0  0  0  0  0  0  0
  -30.2620  -19.9920   20.4150 C   0  0  0  0  0  0  0  0  0  0  0  0
  -29.6160  -20.0590   21.5670 N   0  0  0  0  0  0  0  0  0  0  0  0
  -30.2590  -20.9770   19.4970 N   0  0  0  0  0  0  0  0  0  0  0  0
  -28.8440  -24.2510   22.5630 C   0  0  0  0  0  1  0  0  0  0  0  0
  -26.6350  -23.2220   21.8930 C   0  0  0  0  0  1  0  0  0  0  0  0
  -28.0820  -23.5130   21.4490 C   0  0  0  0  0  3  0  0  0  0  0  0
  -29.7360  -23.2160   18.6050 C   0  0  0  0  0  3  0  0  0  0  0  0
  -28.9070  -24.5530   18.5680 C   0  0  0  0  0  3  0  0  0  0  0  0
  -29.3220  -25.6150   17.5080 C   0  0  0  0  0  2  0  0  0  0  0  0
  -28.9900  -26.9830   17.8580 O   0  0  0  0  0  0  0  0  0  0  0  0
  -24.7410  -30.3850   22.4860 C   0  0  0  0  0  0  0  0  0  0  0  0
  -27.6940  -27.4040   18.1280 C   0  0  0  0  0  0  0  0  0  0  0  0
  -23.5910  -29.1800   20.6570 C   0  0  0  0  0  3  0  0  0  0  0  0
  -25.0840  -28.3410   18.7620 C   0  0  0  0  0  0  0  0  0  0  0  0
  -25.9640  -30.0820   20.3280 C   0  0  0  0  0  2  0  0  0  0  0  0
  -26.2010  -28.9430   19.3520 C   0  0  0  0  0  0  0  0  0  0  0  0
  -27.5020  -28.4820   19.0320 C   0  0  0  0  0  3  0  0  0  0  0  0
  -26.5490  -26.8140   17.5440 C   0  0  0  0  0  3  0  0  0  0  0  0
  -25.2550  -27.2770   17.8580 C   0  0  0  0  0  3  0  0  0  0  0  0
  -23.7260  -28.8910   19.1390 C   0  0  0  0  0  2  0  0  0  0  0  0
  -24.7890  -29.8890   21.2150 N   0  0  0  0  0  0  0  0  0  0  0  0
  -23.7150  -30.2940   23.1740 O   0  0  0  0  0  0  0  0  0  0  0  0
  -23.2700  -27.8540   21.3850 C   0  0  0  0  0  0  0  0  0  0  0  0
  -22.0060  -27.4100   21.2940 N   0  0  0  0  0  0  0  0  0  0  0  0
  -24.1520  -27.2380   21.9910 O   0  0  0  0  0  0  0  0  0  0  0  0
  -21.3420  -27.9770   20.7860 H   0  0  0  0  0  0  0  0  0  0  0  0
  -19.0400  -25.3730   21.6250 C   0  0  0  0  0  0  0  0  0  0  0  0
  -21.4890  -26.1660   21.8630 C   0  0  0  0  0  3  0  0  0  0  0  0
  -21.8620  -24.9530   20.9780 C   0  0  0  0  0  2  0  0  0  0  0  0
  -20.7780  -24.5990   19.9560 C   0  0  0  0  0  2  0  0  0  0  0  0
  -19.4570  -24.2750   20.6610 C   0  0  0  0  0  2  0  0  0  0  0  0
  -19.9930  -26.2690   22.1770 C   0  0  0  0  0  0  0  0  0  0  0  0
  -19.5480  -27.2910   23.0450 C   0  0  0  0  0  3  0  0  0  0  0  0
  -18.1850  -27.4230   23.3630 C   0  0  0  0  0  3  0  0  0  0  0  0
  -17.2470  -26.5220   22.8280 C   0  0  0  0  0  3  0  0  0  0  0  0
  -17.6760  -25.4990   21.9630 C   0  0  0  0  0  3  0  0  0  0  0  0
  -25.9670  -31.1100   23.1260 C   0  0  0  0  0  3  0  0  0  0  0  0
  -25.4650  -32.3200   23.7900 N   0  0  0  0  0  0  0  0  0  0  0  0
  -25.6110  -33.5650   23.3160 C   0  0  0  0  0  0  0  0  0  0  0  0
  -26.2500  -33.8180   22.2900 O   0  0  0  0  0  0  0  0  0  0  0  0
  -24.8830  -32.1830   24.6040 H   0  0  0  0  0  0  0  0  0  0  0  0
  -23.6420  -35.1300   23.3950 C   0  0  0  0  0  1  0  0  0  0  0  0
  -24.9410  -34.7100   24.1010 C   0  0  0  0  0  3  0  0  0  0  0  0
  -26.9470  -35.6400   25.1700 C   0  0  0  0  0  1  0  0  0  0  0  0
  -25.8150  -35.8900   24.2810 N   0  0  0  0  0  0  0  0  0  0  0  0
  -25.2880  -36.6760   24.6520 H   0  0  0  0  0  0  0  0  0  0  0  0
  -26.7600  -30.2040   24.1470 C   0  0  1  0  0  0  0  0  0  0  0  0
  -25.8640  -29.5490   25.2240 C   0  0  0  0  0  1  0  0  0  0  0  0
  -27.5120  -29.0740   23.4050 C   0  0  0  0  0  1  0  0  0  0  0  0
  -27.8350  -31.0490   24.8710 C   0  0  0  0  0  1  0  0  0  0  0  0
  -31.1200  -18.7030   20.2400 C   0  0  0  0  0  2  0  0  0  0  0  0
  -30.4210  -17.4460   19.6090 C   0  0  0  0  0  2  0  0  0  0  0  0
  -31.3280  -15.0430   19.8710 C   0  0  0  0  0  0  0  0  0  0  0  0
  -31.0180  -12.7370   19.0160 C   0  0  0  0  0  2  0  0  0  0  0  0
  -30.0480  -12.8230   17.8150 C   0  0  0  0  0  2  0  0  0  0  0  0
  -28.5790  -12.7700   18.2830 C   0  0  0  0  0  2  0  0  0  0  0  0
  -28.2920  -13.7410   19.4600 C   0  0  0  0  0  3  0  0  0  0  0  0
  -29.3690  -13.6070   20.5610 C   0  0  0  0  0  2  0  0  0  0  0  0
  -30.6860  -13.8380   19.9410 N   0  0  0  0  0  0  0  0  0  0  0  0
  -32.4220  -15.1810   19.3180 O   0  0  0  0  0  0  0  0  0  0  0  0
  -30.5820  -16.1090   20.2640 N   0  0  0  0  0  0  0  0  0  0  0  0
  -29.7820  -15.8300   20.8120 H   0  0  0  0  0  0  0  0  0  0  0  0
  -25.9960  -14.5150   20.3270 C   0  0  0  0  0  0  0  0  0  0  0  0
  -24.8810  -13.8230   20.7150 C   0  0  0  0  0  0  0  0  0  0  0  0
  -25.2120  -12.4390   20.5850 C   0  0  0  0  0  0  0  0  0  0  0  0
  -26.9420  -13.5590   19.9920 N   0  0  0  0  0  0  0  0  0  0  0  0
  -26.4770  -12.3010   20.2040 N   0  0  0  0  0  0  0  0  0  0  0  0
  -24.3830  -11.2380   20.7490 C   0  0  0  0  0  0  0  0  0  0  0  0
  -24.7460  -10.2050   21.6410 C   0  0  0  0  0  3  0  0  0  0  0  0
  -23.9210   -9.0700   21.7950 C   0  0  0  0  0  3  0  0  0  0  0  0
  -22.7190   -8.9610   21.0570 C   0  0  0  0  0  0  0  0  0  0  0  0
  -22.3740   -9.9810   20.1520 C   0  0  0  0  0  3  0  0  0  0  0  0
  -23.1980  -11.1080   19.9970 C   0  0  0  0  0  3  0  0  0  0  0  0
  -21.8700   -7.8830   21.1210 O   0  0  0  0  0  0  0  0  0  0  0  0
  -21.6950   -7.1730   22.2820 C   0  0  0  0  0  0  0  0  0  0  0  0
  -21.2330   -7.7850   23.4680 C   0  0  0  0  0  3  0  0  0  0  0  0
  -21.0020   -7.0040   24.6190 C   0  0  0  0  0  3  0  0  0  0  0  0
  -21.2230   -5.6140   24.5840 C   0  0  0  0  0  0  0  0  0  0  0  0
  -21.6770   -5.0030   23.4030 C   0  0  0  0  0  3  0  0  0  0  0  0
  -21.9100   -5.7810   22.2550 C   0  0  0  0  0  0  0  0  0  0  0  0
  -22.3280   -5.1830   21.1120 F   0  0  0  0  0  0  0  0  0  0  0  0
  -20.9930   -4.8630   25.6860 F   0  0  0  0  0  0  0  0  0  0  0  0
  -23.5500  -14.4070   21.0920 C   0  0  0  0  0  0  0  0  0  0  0  0
  -22.8130  -13.7390   21.9720 N   0  0  0  0  0  0  0  0  0  0  0  0
  -23.1770  -15.4890   20.6400 O   0  0  0  0  0  0  0  0  0  0  0  0
  -23.1280  -12.8630   22.3610 H   0  0  0  0  0  0  0  0  0  0  0  0
  -21.9190  -14.1110   22.2620 H   0  0  0  0  0  0  0  0  0  0  0  0
  -26.2780  -15.8740   20.2160 N   0  0  0  0  0  0  0  0  0  0  0  0
  -25.5790  -16.5860   20.4000 H   0  0  0  0  0  0  0  0  0  0  0  0
  -27.1450  -16.2550   19.8570 H   0  0  0  0  0  0  0  0  0  0  0  0
  2  9  1  0
  2  1  2  0
  3  2  1  0
  4  5  2  0
  5  1  1  0
  6  3  2  0
  6  4  1  0
  9  8  1  0
  9  7  1  0
 10  3  1  0
 11 10  2  0
 12 13  1  0
 12 11  1  0
 13 15  1  0
 14 25  2  0
 15 20  1  0
 16 24  1  0
 16 26  1  0
 17 23  1  0
 17 19  1  0
 18 24  1  0
 19 18  1  0
 20 19  2  0
 21 22  1  0
 21 15  2  0
 22 17  2  0
 23 16  1  0
 24 14  1  0
 26 28  2  0
 27 26  1  0
 29 27  1  0
 30 39  2  0
 30 35  1  0
 31 27  1  0
 31 35  1  0
 32 31  1  0
 33 34  1  0
 33 32  1  0
 34 30  1  0
 35 36  2  0
 36 37  1  0
 38 37  2  0
 39 38  1  0
 40 14  1  0
 40 41  1  0
 40 50  1  0
 41 44  1  0
 42 41  1  0
 42 46  1  0
 43 42  2  0
 46 45  1  0
 46 48  1  0
 48 49  1  0
 48 47  1  0
 50 53  1  1
 50 51  1  0
 52 50  1  0
 54  4  1  0
 55 54  1  0
 55 64  1  0
 56 62  1  0
 56 64  1  0
 57 62  1  0
 58 59  1  0
 58 57  1  0
 60 59  1  0
 60 69  1  0
 60 61  1  0
 62 61  1  0
 63 56  2  0
 64 65  1  0
 66 67  2  0
 67 86  1  0
 68 67  1  0
 68 71  1  0
 69 70  1  0
 69 66  1  0
 70 68  2  0
 71 72  1  0
 72 73  2  0
 74 77  1  0
 74 73  1  0
 75 74  2  0
 76 75  1  0
 76 71  2  0
 77 78  1  0
 78 79  1  0
 79 80  2  0
 81 80  1  0
 81 85  1  0
 82 81  2  0
 83 78  2  0
 83 82  1  0
 84 83  1  0
 86 87  1  0
 87 90  1  0
 87 89  1  0
 88 86  2  0
 91 66  1  0
 91 92  1  0
 93 91  1  0
M  ISO  4  12 101  13 101  56 100  64 100
M  END
>  <TORSDO>  (51) 
F 22

>  <SCORE>  (51) 
-7.771

>  <name>  (51) 
50

>  <ligand_id>  (51) 
50

>  <original_smiles>  (51) 
[H]c1nc(C([H])([H])C([H])([H])N([H])C(=O)N2C([H])([H])C([H])([H])C([H])([H])C([H])(n3nc(-c4c([H])c([H])c(Oc5c([H])c([H])c(F)c([H])c5F)c([H])c4[H])c(C(=O)N([H])[H])c3N([H])[H])C2([H])[H])nc(C([H])([H])C([H])([H])C([H])([H])Oc2c([H])c([H])c3c(c2[H])C([H])([H])N(C(=O)C([H])(N([H])C(=O)C([H])(N([H])C([H])([H])[H])C([H])([H])[H])C(C([H])([H])[H])(C([H])([H])[H])C([H])([H])[H])C([H])(C(=O)N([H])C2([H])c4c([H])c([H])c([H])c([H])c4C([H])([H])C([H])([H])C2([H])[H])C3([H])[H])c1C([H])(C([H])([H])[H])C([H])([H])[H]

>  <smiles>  (51) 
[H]c1nc(C([H])([H])C([H])([H])N([H])C(=O)N2C([H])([H])C([H])([H])C([H])([H])C([H])(n3nc(-c4c([H])c([H])c(Oc5c([H])c([H])c(F)c([H])c5F)c([H])c4[H])c(C(=O)N([H])[H])c3N([H])[H])C2([H])[H])nc(C([H])([H])C([H])([H])C([H])([H])Oc2c([H])c([H])c3c(c2[H])C([H])([H])N(C(=O)C([H])(N([H])C(=O)C([H])(N([H])C([H])([H])[H])C([H])([H])[H])C(C([H])([H])[H])(C([H])([H])[H])C([H])([H])[H])C([H])(C(=O)N([H])C2([H])c4c([H])c([H])c([H])c([H])c4C([H])([H])C([H])([H])C2([H])[H])C3([H])[H])c1C([H])(C([H])([H])[H])C([H])([H])[H]

$$$$
51:0:0
     RDKit          3D

 94102  0  0  1  0  0  0  0  0999 V2000
  -29.4720  -20.4550   19.8320 C   0  0  0  0  0  3  0  0  0  0  0  0
  -27.9800  -18.6830   19.3080 C   0  0  0  0  0  3  0  0  0  0  0  0
  -29.2810  -19.1100   19.8840 C   0  0  0  0  0  0  0  0  0  0  0  0
  -27.3170  -20.8660   18.8220 C   0  0  0  0  0  0  0  0  0  0  0  0
  -27.0970  -19.4810   18.8350 N   0  0  0  0  0  0  0  0  0  0  0  0
  -28.5180  -21.3460   19.2730 N   0  0  0  0  0  0  0  0  0  0  0  0
  -26.4610  -21.6290   18.3850 O   0  0  0  0  0  0  0  0  0  0  0  0
  -29.6060  -17.5530   21.8610 C   0  0  0  0  0  1  0  0  0  0  0  0
  -31.5960  -18.6500   20.8810 C   0  0  0  0  0  1  0  0  0  0  0  0
  -30.2260  -18.0330   20.5240 C   0  0  2  0  0  0  0  0  0  0  0  0
  -30.4890  -16.8030   19.5710 C   0  0  0  0  0  2  0  0  0  0  0  0
  -31.3490  -14.4160   19.8890 C   0  0  0  0  0  0  0  0  0  0  0  0
  -30.9880  -12.1580   18.9550 C   0  0  0  0  0  2  0  0  0  0  0  0
  -30.0110  -12.3280   17.7700 C   0  0  0  0  0  2  0  0  0  0  0  0
  -28.5460  -12.2970   18.2510 C   0  0  0  0  0  2  0  0  0  0  0  0
  -28.2960  -13.2250   19.4690 C   0  0  0  0  0  3  0  0  0  0  0  0
  -29.3780  -13.0070   20.5550 C   0  0  0  0  0  2  0  0  0  0  0  0
  -30.6930  -13.2220   19.9290 N   0  0  0  0  0  0  0  0  0  0  0  0
  -32.4620  -14.5490   19.3700 O   0  0  0  0  0  0  0  0  0  0  0  0
  -30.5760  -15.4740   20.2290 N   0  0  0  0  0  0  0  0  0  0  0  0
  -29.7520  -15.2090   20.7450 H   0  0  0  0  0  0  0  0  0  0  0  0
  -26.0000  -14.0300   20.3040 C   0  0  0  0  0  0  0  0  0  0  0  0
  -24.8830  -13.3480   20.7070 C   0  0  0  0  0  0  0  0  0  0  0  0
  -25.2140  -11.9600   20.6180 C   0  0  0  0  0  0  0  0  0  0  0  0
  -26.9440  -13.0630   20.0010 N   0  0  0  0  0  0  0  0  0  0  0  0
  -26.4800  -11.8110   20.2460 N   0  0  0  0  0  0  0  0  0  0  0  0
  -24.3840  -10.7640   20.8070 C   0  0  0  0  0  0  0  0  0  0  0  0
  -24.7300   -9.7670   21.7470 C   0  0  0  0  0  3  0  0  0  0  0  0
  -23.9050   -8.6350   21.9240 C   0  0  0  0  0  3  0  0  0  0  0  0
  -22.7230   -8.4930   21.1620 C   0  0  0  0  0  0  0  0  0  0  0  0
  -22.3950   -9.4770   20.2130 C   0  0  0  0  0  3  0  0  0  0  0  0
  -23.2190  -10.6010   20.0340 C   0  0  0  0  0  3  0  0  0  0  0  0
  -21.8740   -7.4160   21.2490 O   0  0  0  0  0  0  0  0  0  0  0  0
  -21.7100   -6.7210   22.4220 C   0  0  0  0  0  0  0  0  0  0  0  0
  -21.2480   -7.3480   23.6000 C   0  0  0  0  0  3  0  0  0  0  0  0
  -21.0280   -6.5840   24.7640 C   0  0  0  0  0  3  0  0  0  0  0  0
  -21.2600   -5.1950   24.7490 C   0  0  0  0  0  0  0  0  0  0  0  0
  -21.7170   -4.5690   23.5760 C   0  0  0  0  0  3  0  0  0  0  0  0
  -21.9390   -5.3300   22.4150 C   0  0  0  0  0  0  0  0  0  0  0  0
  -22.3590   -4.7190   21.2810 F   0  0  0  0  0  0  0  0  0  0  0  0
  -21.0420   -4.4610   25.8630 F   0  0  0  0  0  0  0  0  0  0  0  0
  -23.5490  -13.9410   21.0580 C   0  0  0  0  0  0  0  0  0  0  0  0
  -22.8130  -13.3050   21.9610 N   0  0  0  0  0  0  0  0  0  0  0  0
  -23.1750  -15.0050   20.5670 O   0  0  0  0  0  0  0  0  0  0  0  0
  -23.1310  -12.4450   22.3810 H   0  0  0  0  0  0  0  0  0  0  0  0
  -21.9190  -13.6840   22.2380 H   0  0  0  0  0  0  0  0  0  0  0  0
  -26.2840  -15.3820   20.1440 N   0  0  0  0  0  0  0  0  0  0  0  0
  -25.5550  -16.0820   20.2290 H   0  0  0  0  0  0  0  0  0  0  0  0
  -27.1120  -15.7210   19.6750 H   0  0  0  0  0  0  0  0  0  0  0  0
  -28.9100  -22.7590   18.9920 C   0  0  0  0  0  2  0  0  0  0  0  0
  -28.3550  -23.8950   19.9240 C   0  0  0  0  0  2  0  0  0  0  0  0
  -30.3040  -25.4640   19.3280 C   0  0  0  0  0  1  0  0  0  0  0  0
  -28.7790  -25.3430   19.4730 C   0  0  0  0  0  3  0  0  0  0  0  0
  -28.4450  -26.4230   20.3810 O   0  0  0  0  0  0  0  0  0  0  0  0
  -24.5090  -31.6720   23.1840 C   0  0  0  0  0  0  0  0  0  0  0  0
  -27.2690  -27.1520   20.2730 C   0  0  0  0  0  0  0  0  0  0  0  0
  -23.3760  -30.2530   21.5100 C   0  0  0  0  0  3  0  0  0  0  0  0
  -24.8860  -28.7000   20.1520 C   0  0  0  0  0  0  0  0  0  0  0  0
  -25.9090  -30.6020   21.4140 C   0  0  0  0  0  2  0  0  0  0  0  0
  -26.0200  -29.2180   20.7920 C   0  0  0  0  0  0  0  0  0  0  0  0
  -27.2080  -28.4480   20.8510 C   0  0  0  0  0  3  0  0  0  0  0  0
  -26.1070  -26.6560   19.6340 C   0  0  0  0  0  3  0  0  0  0  0  0
  -24.9270  -27.4230   19.5680 C   0  0  0  0  0  3  0  0  0  0  0  0
  -23.6410  -29.5600   20.1450 C   0  0  0  0  0  2  0  0  0  0  0  0
  -24.6150  -30.8590   22.0940 N   0  0  0  0  0  0  0  0  0  0  0  0
  -23.4070  -31.9490   23.6740 O   0  0  0  0  0  0  0  0  0  0  0  0
  -22.6800  -29.2410   22.4510 C   0  0  0  0  0  0  0  0  0  0  0  0
  -21.3580  -29.0810   22.2920 N   0  0  0  0  0  0  0  0  0  0  0  0
  -23.3310  -28.6000   23.2810 O   0  0  0  0  0  0  0  0  0  0  0  0
  -20.8960  -29.6470   21.5940 H   0  0  0  0  0  0  0  0  0  0  0  0
  -17.9510  -27.9770   22.7400 C   0  0  0  0  0  0  0  0  0  0  0  0
  -20.5100  -28.1520   23.0350 C   0  0  0  0  0  3  0  0  0  0  0  0
  -20.5760  -26.7300   22.4360 C   0  0  0  0  0  2  0  0  0  0  0  0
  -19.4750  -26.4580   21.4080 C   0  0  0  0  0  2  0  0  0  0  0  0
  -18.0920  -26.6350   22.0450 C   0  0  0  0  0  2  0  0  0  0  0  0
  -19.0860  -28.6980   23.1930 C   0  0  0  0  0  0  0  0  0  0  0  0
  -18.8970  -29.9560   23.8050 C   0  0  0  0  0  3  0  0  0  0  0  0
  -17.6060  -30.4910   23.9650 C   0  0  0  0  0  3  0  0  0  0  0  0
  -16.4830  -29.7670   23.5290 C   0  0  0  0  0  3  0  0  0  0  0  0
  -16.6570  -28.5100   22.9220 C   0  0  0  0  0  3  0  0  0  0  0  0
  -25.7710  -32.3090   23.8510 C   0  0  0  0  0  3  0  0  0  0  0  0
  -25.4430  -33.7040   24.1750 N   0  0  0  0  0  0  0  0  0  0  0  0
  -25.7840  -34.7580   23.4230 C   0  0  0  0  0  0  0  0  0  0  0  0
  -26.4800  -34.6570   22.4080 O   0  0  0  0  0  0  0  0  0  0  0  0
  -24.8290  -33.8550   24.9640 H   0  0  0  0  0  0  0  0  0  0  0  0
  -24.0470  -36.5290   23.0230 C   0  0  0  0  0  1  0  0  0  0  0  0
  -25.2740  -36.1430   23.8620 C   0  0  0  0  0  3  0  0  0  0  0  0
  -27.3810  -37.0550   24.7350 C   0  0  0  0  0  1  0  0  0  0  0  0
  -26.3010  -37.2040   23.7640 N   0  0  0  0  0  0  0  0  0  0  0  0
  -25.8850  -38.1220   23.8940 H   0  0  0  0  0  0  0  0  0  0  0  0
  -26.2480  -31.5380   25.1450 C   0  0  1  0  0  0  0  0  0  0  0  0
  -25.1110  -31.2560   26.1560 C   0  0  0  0  0  1  0  0  0  0  0  0
  -26.8840  -30.1800   24.7660 C   0  0  0  0  0  1  0  0  0  0  0  0
  -27.3470  -32.3530   25.8670 C   0  0  0  0  0  1  0  0  0  0  0  0
  1  3  2  0
  2  3  1  0
  3 10  1  0
  4  5  1  0
  4  6  1  0
  5  2  2  0
  6  1  1  0
  7  4  2  0
 10  9  1  1
 10  8  1  0
 11 20  1  0
 11 10  1  0
 12 18  1  0
 12 20  1  0
 13 18  1  0
 14 15  1  0
 14 13  1  0
 16 15  1  0
 16 25  1  0
 16 17  1  0
 18 17  1  0
 19 12  2  0
 20 21  1  0
 22 23  2  0
 23 42  1  0
 24 23  1  0
 24 27  1  0
 25 26  1  0
 25 22  1  0
 26 24  2  0
 27 28  1  0
 28 29  2  0
 30 33  1  0
 30 29  1  0
 31 30  2  0
 32 31  1  0
 32 27  2  0
 33 34  1  0
 34 35  1  0
 35 36  2  0
 37 36  1  0
 37 41  1  0
 38 37  2  0
 39 34  2  0
 39 38  1  0
 40 39  1  0
 42 43  1  0
 43 46  1  0
 43 45  1  0
 44 42  2  0
 47 48  1  0
 47 22  1  0
 49 47  1  0
 50  6  1  0
 50 51  1  0
 53 52  1  0
 53 51  1  0
 53 54  1  0
 55 66  2  0
 56 54  1  0
 56 61  1  0
 57 65  1  0
 57 67  1  0
 58 60  1  0
 59 65  1  0
 60 61  2  0
 60 59  1  0
 62 56  2  0
 63 62  1  0
 63 58  2  0
 64 58  1  0
 64 57  1  0
 65 55  1  0
 67 69  2  0
 68 67  1  0
 70 68  1  0
 71 80  2  0
 71 76  1  0
 72 68  1  0
 72 76  1  0
 73 72  1  0
 74 75  1  0
 74 73  1  0
 75 71  1  0
 76 77  2  0
 77 78  1  0
 79 78  2  0
 80 79  1  0
 81 55  1  0
 81 82  1  0
 81 91  1  0
 82 85  1  0
 83 87  1  0
 83 82  1  0
 84 83  2  0
 87 86  1  0
 89 87  1  0
 89 90  1  0
 89 88  1  0
 91 94  1  1
 91 92  1  0
 93 91  1  0
M  ISO  4  12 100  20 100  53 101  54 101
M  END
>  <TORSDO>  (52) 
F 21

>  <SCORE>  (52) 
-12.826

>  <name>  (52) 
51

>  <ligand_id>  (52) 
51

>  <original_smiles>  (52) 
[H]c1nc(=O)n(C([H])([H])C([H])([H])C([H])(Oc2c([H])c([H])c3c(c2[H])C([H])([H])N(C(=O)C([H])(N([H])C(=O)C([H])(N([H])C([H])([H])[H])C([H])([H])[H])C(C([H])([H])[H])(C([H])([H])[H])C([H])([H])[H])C([H])(C(=O)N([H])C2([H])c4c([H])c([H])c([H])c([H])c4C([H])([H])C([H])([H])C2([H])[H])C3([H])[H])C([H])([H])[H])c([H])c1C(C([H])([H])[H])(C([H])([H])[H])C([H])([H])N([H])C(=O)N1C([H])([H])C([H])([H])C([H])([H])C([H])(n2nc(-c3c([H])c([H])c(Oc4c([H])c([H])c(F)c([H])c4F)c([H])c3[H])c(C(=O)N([H])[H])c2N([H])[H])C1([H])[H]

>  <smiles>  (52) 
[H]c1nc(=O)n(C([H])([H])C([H])([H])C([H])(Oc2c([H])c([H])c3c(c2[H])C([H])([H])N(C(=O)C([H])(N([H])C(=O)C([H])(N([H])C([H])([H])[H])C([H])([H])[H])C(C([H])([H])[H])(C([H])([H])[H])C([H])([H])[H])C([H])(C(=O)N([H])C2([H])c4c([H])c([H])c([H])c([H])c4C([H])([H])C([H])([H])C2([H])[H])C3([H])[H])C([H])([H])[H])c([H])c1C(C([H])([H])[H])(C([H])([H])[H])C([H])([H])N([H])C(=O)N1C([H])([H])C([H])([H])C([H])([H])C([H])(n2nc(-c3c([H])c([H])c(Oc4c([H])c([H])c(F)c([H])c4F)c([H])c3[H])c(C(=O)N([H])[H])c2N([H])[H])C1([H])[H]

$$$$
52:0:0
     RDKit          3D

 92100  0  0  1  0  0  0  0  0999 V2000
  -29.7680  -21.1180   21.8630 C   0  0  0  0  0  3  0  0  0  0  0  0
  -30.5140  -20.1890   22.5340 C   0  0  0  0  0  0  0  0  0  0  0  0
  -30.0430  -19.3190   20.5040 C   0  0  0  0  0  3  0  0  0  0  0  0
  -31.1030  -20.2080   23.9070 C   0  0  0  0  0  1  0  0  0  0  0  0
  -29.4740  -20.6450   20.6050 N   0  0  0  0  0  0  0  0  0  0  0  0
  -30.6640  -19.1370   21.6760 N   0  0  0  0  0  0  0  0  0  0  0  0
  -31.1980  -18.3020   21.8830 H   0  0  0  0  0  0  0  0  0  0  0  0
  -31.5260  -18.2670   18.6820 C   0  0  0  0  0  1  0  0  0  0  0  0
  -30.2290  -18.0600   19.4790 C   0  0  0  0  0  3  0  0  0  0  0  0
  -30.8690  -15.3460   19.8940 C   0  0  0  0  0  0  0  0  0  0  0  0
  -30.7780  -12.9190   19.1510 C   0  0  0  0  0  2  0  0  0  0  0  0
  -29.8270  -12.7480   17.9430 C   0  0  0  0  0  2  0  0  0  0  0  0
  -28.3790  -12.5320   18.4210 C   0  0  0  0  0  2  0  0  0  0  0  0
  -27.9680  -13.5340   19.5310 C   0  0  0  0  0  3  0  0  0  0  0  0
  -29.0450  -13.6760   20.6300 C   0  0  0  0  0  2  0  0  0  0  0  0
  -30.2930  -14.0740   19.9640 N   0  0  0  0  0  0  0  0  0  0  0  0
  -32.0560  -15.3840   19.5570 O   0  0  0  0  0  0  0  0  0  0  0  0
  -30.0850  -16.5430   19.9930 N   0  0  0  0  0  0  0  0  0  0  0  0
  -29.1380  -16.3260   20.2650 H   0  0  0  0  0  0  0  0  0  0  0  0
  -25.6330  -14.1160   20.3960 C   0  0  0  0  0  0  0  0  0  0  0  0
  -24.5760  -13.3440   20.7910 C   0  0  0  0  0  0  0  0  0  0  0  0
  -25.0200  -11.9890   20.6990 C   0  0  0  0  0  0  0  0  0  0  0  0
  -26.6510  -13.2330   20.0820 N   0  0  0  0  0  0  0  0  0  0  0  0
  -26.2960  -11.9460   20.3290 N   0  0  0  0  0  0  0  0  0  0  0  0
  -24.2840  -10.7310   20.8830 C   0  0  0  0  0  0  0  0  0  0  0  0
  -24.6410   -9.8050   21.8870 C   0  0  0  0  0  3  0  0  0  0  0  0
  -23.9030   -8.6130   22.0580 C   0  0  0  0  0  3  0  0  0  0  0  0
  -22.7940   -8.3390   21.2230 C   0  0  0  0  0  0  0  0  0  0  0  0
  -22.4560   -9.2530   20.2090 C   0  0  0  0  0  3  0  0  0  0  0  0
  -23.1950  -10.4360   20.0380 C   0  0  0  0  0  3  0  0  0  0  0  0
  -22.0350   -7.1950   21.2980 O   0  0  0  0  0  0  0  0  0  0  0  0
  -21.7580   -6.5940   22.4990 C   0  0  0  0  0  0  0  0  0  0  0  0
  -21.0650   -7.2680   23.5280 C   0  0  0  0  0  3  0  0  0  0  0  0
  -20.7390   -6.5900   24.7190 C   0  0  0  0  0  3  0  0  0  0  0  0
  -21.0960   -5.2390   24.8810 C   0  0  0  0  0  0  0  0  0  0  0  0
  -21.7820   -4.5640   23.8560 C   0  0  0  0  0  3  0  0  0  0  0  0
  -22.1090   -5.2390   22.6670 C   0  0  0  0  0  0  0  0  0  0  0  0
  -22.7510   -4.5780   21.6740 F   0  0  0  0  0  0  0  0  0  0  0  0
  -20.7770   -4.5840   26.0220 F   0  0  0  0  0  0  0  0  0  0  0  0
  -23.1990  -13.8310   21.1360 C   0  0  0  0  0  0  0  0  0  0  0  0
  -22.5040  -13.1280   22.0230 N   0  0  0  0  0  0  0  0  0  0  0  0
  -22.7520  -14.8720   20.6560 O   0  0  0  0  0  0  0  0  0  0  0  0
  -22.8810  -12.2850   22.4330 H   0  0  0  0  0  0  0  0  0  0  0  0
  -21.5830  -13.4370   22.2970 H   0  0  0  0  0  0  0  0  0  0  0  0
  -25.8050  -15.4900   20.2480 N   0  0  0  0  0  0  0  0  0  0  0  0
  -25.0410  -16.1400   20.3940 H   0  0  0  0  0  0  0  0  0  0  0  0
  -26.6150  -15.9230   19.8250 H   0  0  0  0  0  0  0  0  0  0  0  0
  -28.5830  -21.6240   19.7170 C   0  0  0  0  0  2  0  0  0  0  0  0
  -28.7190  -23.3440   19.6320 C   0  0  0  0  0  2  0  0  0  0  0  0
  -26.2270  -23.9720   19.4850 C   0  0  0  0  0  1  0  0  0  0  0  0
  -27.5850  -24.5980   19.8480 C   0  0  0  0  0  3  0  0  0  0  0  0
  -27.7490  -26.1340   19.4330 O   0  0  0  0  0  0  0  0  0  0  0  0
  -24.5740  -31.7660   23.1220 C   0  0  0  0  0  0  0  0  0  0  0  0
  -26.7320  -27.1750   19.5610 C   0  0  0  0  0  0  0  0  0  0  0  0
  -23.1920  -30.4850   21.5370 C   0  0  0  0  0  3  0  0  0  0  0  0
  -24.4610  -28.9950   19.8750 C   0  0  0  0  0  0  0  0  0  0  0  0
  -25.7260  -30.7140   21.1370 C   0  0  0  0  0  2  0  0  0  0  0  0
  -25.7050  -29.3600   20.4030 C   0  0  0  0  0  0  0  0  0  0  0  0
  -26.8370  -28.4620   20.2430 C   0  0  0  0  0  3  0  0  0  0  0  0
  -25.4790  -26.9890   18.9350 C   0  0  0  0  0  3  0  0  0  0  0  0
  -24.3610  -27.8230   19.1220 C   0  0  0  0  0  3  0  0  0  0  0  0
  -23.2620  -29.9020   20.1030 C   0  0  0  0  0  2  0  0  0  0  0  0
  -24.5230  -31.0080   21.9840 N   0  0  0  0  0  0  0  0  0  0  0  0
  -23.5510  -32.0290   23.7730 O   0  0  0  0  0  0  0  0  0  0  0  0
  -22.6000  -29.4220   22.4990 C   0  0  0  0  0  0  0  0  0  0  0  0
  -21.2880  -29.1480   22.3820 N   0  0  0  0  0  0  0  0  0  0  0  0
  -23.3250  -28.8480   23.3160 O   0  0  0  0  0  0  0  0  0  0  0  0
  -20.7550  -29.6680   21.6970 H   0  0  0  0  0  0  0  0  0  0  0  0
  -18.0550  -27.5670   22.7950 C   0  0  0  0  0  0  0  0  0  0  0  0
  -20.5480  -28.1500   23.1580 C   0  0  0  0  0  3  0  0  0  0  0  0
  -20.8480  -26.7190   22.6550 C   0  0  0  0  0  2  0  0  0  0  0  0
  -19.8420  -26.2230   21.6100 C   0  0  0  0  0  2  0  0  0  0  0  0
  -18.4230  -26.2240   22.1880 C   0  0  0  0  0  2  0  0  0  0  0  0
  -19.0520  -28.4770   23.2360 C   0  0  0  0  0  0  0  0  0  0  0  0
  -18.6520  -29.7250   23.7630 C   0  0  0  0  0  3  0  0  0  0  0  0
  -17.2900  -30.0670   23.8540 C   0  0  0  0  0  3  0  0  0  0  0  0
  -16.3080  -29.1570   23.4280 C   0  0  0  0  0  3  0  0  0  0  0  0
  -16.6900  -27.9090   22.9040 C   0  0  0  0  0  3  0  0  0  0  0  0
  -25.9190  -32.3530   23.6470 C   0  0  0  0  0  3  0  0  0  0  0  0
  -26.5390  -31.5130   24.8320 C   0  0  1  0  0  0  0  0  0  0  0  0
  -25.5460  -31.2340   25.9830 C   0  0  0  0  0  1  0  0  0  0  0  0
  -27.0670  -30.1500   24.3270 C   0  0  0  0  0  1  0  0  0  0  0  0
  -27.7570  -32.2630   25.4220 C   0  0  0  0  0  1  0  0  0  0  0  0
  -25.6640  -33.7360   24.0790 N   0  0  0  0  0  0  0  0  0  0  0  0
  -25.9920  -34.8300   23.3780 C   0  0  0  0  0  0  0  0  0  0  0  0
  -26.6090  -34.7780   22.3120 O   0  0  0  0  0  0  0  0  0  0  0  0
  -25.1110  -33.8530   24.9160 H   0  0  0  0  0  0  0  0  0  0  0  0
  -24.3190  -36.7040   23.2170 C   0  0  0  0  0  1  0  0  0  0  0  0
  -25.5710  -36.1980   23.9510 C   0  0  0  0  0  3  0  0  0  0  0  0
  -27.7600  -36.9520   24.7710 C   0  0  0  0  0  1  0  0  0  0  0  0
  -26.6370  -37.2210   23.8770 N   0  0  0  0  0  0  0  0  0  0  0  0
  -26.2700  -38.1430   24.0990 H   0  0  0  0  0  0  0  0  0  0  0  0
  1  2  2  0
  2  4  1  0
  3  9  1  0
  3  5  1  0
  3  6  1  0
  5  1  1  0
  6  7  1  0
  6  2  1  0
  9  8  1  0
  9 18  1  0
 10 16  1  0
 10 18  1  0
 11 16  1  0
 12 13  1  0
 12 11  1  0
 14 13  1  0
 14 23  1  0
 14 15  1  0
 16 15  1  0
 17 10  2  0
 18 19  1  0
 20 21  2  0
 21 40  1  0
 22 21  1  0
 22 25  1  0
 23 24  1  0
 23 20  1  0
 24 22  2  0
 25 26  1  0
 26 27  2  0
 28 31  1  0
 28 27  1  0
 29 28  2  0
 30 29  1  0
 30 25  2  0
 31 32  1  0
 32 37  2  0
 32 33  1  0
 33 34  2  0
 34 35  1  0
 35 39  1  0
 36 35  2  0
 37 36  1  0
 38 37  1  0
 40 41  1  0
 41 44  1  0
 41 43  1  0
 42 40  2  0
 45 46  1  0
 45 20  1  0
 47 45  1  0
 48  5  1  0
 49 48  1  0
 49 51  1  0
 51 50  1  0
 52 54  1  0
 52 51  1  0
 53 64  2  0
 54 59  1  0
 55 63  1  0
 55 65  1  0
 56 62  1  0
 56 58  1  0
 57 63  1  0
 58 57  1  0
 59 58  2  0
 60 61  1  0
 60 54  2  0
 61 56  2  0
 62 55  1  0
 63 53  1  0
 65 67  2  0
 66 65  1  0
 68 66  1  0
 69 78  2  0
 69 74  1  0
 70 66  1  0
 70 74  1  0
 71 70  1  0
 72 73  1  0
 72 71  1  0
 73 69  1  0
 74 75  2  0
 75 76  1  0
 77 76  2  0
 78 77  1  0
 79 53  1  0
 79 84  1  0
 79 80  1  0
 80 83  1  1
 80 81  1  0
 82 80  1  0
 84 87  1  0
 85 89  1  0
 85 84  1  0
 86 85  2  0
 89 88  1  0
 91 89  1  0
 91 92  1  0
 91 90  1  0
M  ISO  4  10 100  18 100  51 101  52 101
M  END
>  <TORSDO>  (53) 
F 20

>  <SCORE>  (53) 
-13.985

>  <name>  (53) 
52

>  <ligand_id>  (53) 
52

>  <original_smiles>  (53) 
[H]c1c([H])c([H])c2c(c1[H])C([H])([H])C([H])([H])C([H])([H])C2([H])N([H])C(=O)C1([H])N(C(=O)C([H])(N([H])C(=O)C([H])(N([H])C([H])([H])[H])C([H])([H])[H])C(C([H])([H])[H])(C([H])([H])[H])C([H])([H])[H])C([H])([H])c2c([H])c(OC([H])(C([H])([H])[H])C([H])([H])C([H])([H])n3c([H])c(C([H])([H])[H])[n+]([H])c3C([H])(N([H])C(=O)N3C([H])([H])C([H])([H])C([H])([H])C([H])(n4nc(-c5c([H])c([H])c(Oc6c([H])c([H])c(F)c([H])c6F)c([H])c5[H])c(C(=O)N([H])[H])c4N([H])[H])C3([H])[H])C([H])([H])[H])c([H])c([H])c2C1([H])[H]

>  <smiles>  (53) 
[H]c1c([H])c([H])c2c(c1[H])C([H])([H])C([H])([H])C([H])([H])C2([H])N([H])C(=O)C1([H])N(C(=O)C([H])(N([H])C(=O)C([H])(N([H])C([H])([H])[H])C([H])([H])[H])C(C([H])([H])[H])(C([H])([H])[H])C([H])([H])[H])C([H])([H])c2c([H])c(OC([H])(C([H])([H])[H])C([H])([H])C([H])([H])n3c([H])c(C([H])([H])[H])[n+]([H])c3C([H])(N([H])C(=O)N3C([H])([H])C([H])([H])C([H])([H])C([H])(n4nc(-c5c([H])c([H])c(Oc6c([H])c([H])c(F)c([H])c6F)c([H])c5[H])c(C(=O)N([H])[H])c4N([H])[H])C3([H])[H])C([H])([H])[H])c([H])c([H])c2C1([H])[H]

$$$$
53:0:0
     RDKit          3D

 97105  0  0  1  0  0  0  0  0999 V2000
  -27.7760  -20.5530   18.7330 C   0  0  0  0  0  0  0  0  0  0  0  0
  -29.1950  -21.0660   20.9840 C   0  0  0  0  0  0  0  0  0  0  0  0
  -27.6350  -21.7710   19.4390 C   0  0  0  0  0  0  0  0  0  0  0  0
  -29.4480  -19.9020   20.2050 C   0  0  0  0  0  0  0  0  0  0  0  0
  -27.0270  -20.2640   17.4500 C   0  0  0  0  0  1  0  0  0  0  0  0
  -29.9220  -21.4170   22.2640 C   0  0  0  0  0  1  0  0  0  0  0  0
  -28.3000  -22.0010   20.5930 N   0  0  0  0  0  0  0  0  0  0  0  0
  -28.6890  -19.6340   19.1090 N   0  0  0  0  0  0  0  0  0  0  0  0
  -31.9890  -19.6340   20.6810 C   0  0  0  0  0  1  0  0  0  0  0  0
  -30.6370  -18.9440   20.4000 C   0  0  0  0  0  3  0  0  0  0  0  0
  -30.7250  -17.7610   22.6990 C   0  0  0  0  0  1  0  0  0  0  0  0
  -28.8940  -17.1590   21.1380 C   0  0  0  0  0  1  0  0  0  0  0  0
  -30.3800  -17.6030   21.1990 C   0  0  1  0  0  0  0  0  0  0  0  0
  -31.3150  -16.5020   20.6030 C   0  0  0  0  0  2  0  0  0  0  0  0
  -31.2200  -14.1270   19.9730 C   0  0  0  0  0  0  0  0  0  0  0  0
  -30.7190  -11.9380   18.9590 C   0  0  0  0  0  2  0  0  0  0  0  0
  -29.7680  -12.1200   17.7620 C   0  0  0  0  0  2  0  0  0  0  0  0
  -28.3050  -12.0610   18.2350 C   0  0  0  0  0  2  0  0  0  0  0  0
  -28.0320  -13.0250   19.4220 C   0  0  0  0  0  3  0  0  0  0  0  0
  -29.1050  -12.8650   20.5280 C   0  0  0  0  0  2  0  0  0  0  0  0
  -30.4380  -13.0160   19.9230 N   0  0  0  0  0  0  0  0  0  0  0  0
  -32.2540  -14.2460   19.3080 O   0  0  0  0  0  0  0  0  0  0  0  0
  -30.7950  -15.1370   20.7410 N   0  0  0  0  0  0  0  0  0  0  0  0
  -29.9630  -15.0090   21.2980 H   0  0  0  0  0  0  0  0  0  0  0  0
  -25.7040  -13.7920   20.2080 C   0  0  0  0  0  0  0  0  0  0  0  0
  -24.6020  -13.0940   20.6150 C   0  0  0  0  0  0  0  0  0  0  0  0
  -24.9730  -11.7120   20.5870 C   0  0  0  0  0  0  0  0  0  0  0  0
  -26.6820  -12.8460   19.9500 N   0  0  0  0  0  0  0  0  0  0  0  0
  -26.2480  -11.5900   20.2310 N   0  0  0  0  0  0  0  0  0  0  0  0
  -24.1720  -10.5030   20.8140 C   0  0  0  0  0  0  0  0  0  0  0  0
  -24.5590   -9.5330   21.7660 C   0  0  0  0  0  3  0  0  0  0  0  0
  -23.7660   -8.3860   21.9810 C   0  0  0  0  0  3  0  0  0  0  0  0
  -22.5700   -8.2030   21.2450 C   0  0  0  0  0  0  0  0  0  0  0  0
  -22.1970   -9.1640   20.2890 C   0  0  0  0  0  3  0  0  0  0  0  0
  -22.9890  -10.3030   20.0730 C   0  0  0  0  0  3  0  0  0  0  0  0
  -21.7480   -7.1100   21.3690 O   0  0  0  0  0  0  0  0  0  0  0  0
  -21.6580   -6.4100   22.5450 C   0  0  0  0  0  0  0  0  0  0  0  0
  -21.2760   -7.0300   23.7560 C   0  0  0  0  0  3  0  0  0  0  0  0
  -21.1260   -6.2580   24.9260 C   0  0  0  0  0  3  0  0  0  0  0  0
  -21.3460   -4.8680   24.8850 C   0  0  0  0  0  0  0  0  0  0  0  0
  -21.7220   -4.2490   23.6810 C   0  0  0  0  0  3  0  0  0  0  0  0
  -21.8750   -5.0170   22.5140 C   0  0  0  0  0  0  0  0  0  0  0  0
  -22.2140   -4.4110   21.3500 F   0  0  0  0  0  0  0  0  0  0  0  0
  -21.1970   -4.1260   26.0070 F   0  0  0  0  0  0  0  0  0  0  0  0
  -23.2470  -13.6590   20.9330 C   0  0  0  0  0  0  0  0  0  0  0  0
  -22.5210  -13.0400   21.8550 N   0  0  0  0  0  0  0  0  0  0  0  0
  -22.8460  -14.6940   20.3990 O   0  0  0  0  0  0  0  0  0  0  0  0
  -22.8600  -12.2030   22.3080 H   0  0  0  0  0  0  0  0  0  0  0  0
  -21.6140  -13.4030   22.1120 H   0  0  0  0  0  0  0  0  0  0  0  0
  -25.9520  -15.1510   20.0240 N   0  0  0  0  0  0  0  0  0  0  0  0
  -25.2390  -15.8550   20.1780 H   0  0  0  0  0  0  0  0  0  0  0  0
  -26.8380  -15.5430   19.7260 H   0  0  0  0  0  0  0  0  0  0  0  0
  -27.0500  -23.0030   18.7810 C   0  0  0  0  0  2  0  0  0  0  0  0
  -28.1930  -23.7070   18.0010 C   0  0  0  0  0  2  0  0  0  0  0  0
  -28.4290  -25.1890   18.3100 C   0  0  0  0  0  2  0  0  0  0  0  0
  -28.5900  -25.4910   19.8170 C   0  0  0  0  0  2  0  0  0  0  0  0
  -28.5840  -26.8900   20.0670 O   0  0  0  0  0  0  0  0  0  0  0  0
  -24.7010  -31.9020   23.2020 C   0  0  0  0  0  0  0  0  0  0  0  0
  -27.3690  -27.5430   20.0780 C   0  0  0  0  0  0  0  0  0  0  0  0
  -23.4970  -30.5110   21.5500 C   0  0  0  0  0  3  0  0  0  0  0  0
  -24.9530  -29.0080   20.1130 C   0  0  0  0  0  0  0  0  0  0  0  0
  -26.0150  -30.9060   21.3370 C   0  0  0  0  0  2  0  0  0  0  0  0
  -26.1090  -29.5450   20.6880 C   0  0  0  0  0  0  0  0  0  0  0  0
  -27.3180  -28.8230   20.6620 C   0  0  0  0  0  3  0  0  0  0  0  0
  -26.1770  -26.9990   19.5340 C   0  0  0  0  0  3  0  0  0  0  0  0
  -24.9790  -27.7310   19.5350 C   0  0  0  0  0  3  0  0  0  0  0  0
  -23.7040  -29.8520   20.1640 C   0  0  0  0  0  2  0  0  0  0  0  0
  -24.7560  -31.1170   22.0900 N   0  0  0  0  0  0  0  0  0  0  0  0
  -23.6210  -32.1560   23.7520 O   0  0  0  0  0  0  0  0  0  0  0  0
  -22.8620  -29.4680   22.4990 C   0  0  0  0  0  0  0  0  0  0  0  0
  -21.5380  -29.2810   22.3800 N   0  0  0  0  0  0  0  0  0  0  0  0
  -23.5540  -28.8350   23.3000 O   0  0  0  0  0  0  0  0  0  0  0  0
  -21.0360  -29.8500   21.7090 H   0  0  0  0  0  0  0  0  0  0  0  0
  -18.1750  -28.0800   22.8940 C   0  0  0  0  0  0  0  0  0  0  0  0
  -20.7340  -28.3320   23.1450 C   0  0  0  0  0  3  0  0  0  0  0  0
  -20.8300  -26.9090   22.5560 C   0  0  0  0  0  2  0  0  0  0  0  0
  -19.7240  -26.5860   21.5500 C   0  0  0  0  0  2  0  0  0  0  0  0
  -18.3430  -26.7410   22.1960 C   0  0  0  0  0  2  0  0  0  0  0  0
  -19.2970  -28.8330   23.3250 C   0  0  0  0  0  0  0  0  0  0  0  0
  -19.0840  -30.0880   23.9340 C   0  0  0  0  0  3  0  0  0  0  0  0
  -17.7830  -30.5900   24.1180 C   0  0  0  0  0  3  0  0  0  0  0  0
  -16.6740  -29.8290   23.7060 C   0  0  0  0  0  3  0  0  0  0  0  0
  -16.8720  -28.5760   23.0990 C   0  0  0  0  0  3  0  0  0  0  0  0
  -25.9860  -32.5360   23.8200 C   0  0  0  0  0  3  0  0  0  0  0  0
  -25.6680  -33.9270   24.1650 N   0  0  0  0  0  0  0  0  0  0  0  0
  -25.9860  -34.9870   23.4100 C   0  0  0  0  0  0  0  0  0  0  0  0
  -26.6510  -34.8950   22.3720 O   0  0  0  0  0  0  0  0  0  0  0  0
  -25.0790  -34.0680   24.9720 H   0  0  0  0  0  0  0  0  0  0  0  0
  -24.2380  -36.7610   23.0800 C   0  0  0  0  0  1  0  0  0  0  0  0
  -25.4900  -36.3650   23.8800 C   0  0  0  0  0  3  0  0  0  0  0  0
  -27.6210  -37.2660   24.7020 C   0  0  0  0  0  1  0  0  0  0  0  0
  -26.5100  -37.4300   23.7680 N   0  0  0  0  0  0  0  0  0  0  0  0
  -26.0950  -38.3440   23.9280 H   0  0  0  0  0  0  0  0  0  0  0  0
  -26.5220  -31.7520   25.0810 C   0  0  1  0  0  0  0  0  0  0  0  0
  -25.4380  -31.4880   26.1520 C   0  0  0  0  0  1  0  0  0  0  0  0
  -27.1130  -30.3860   24.6620 C   0  0  0  0  0  1  0  0  0  0  0  0
  -27.6730  -32.5440   25.7450 C   0  0  0  0  0  1  0  0  0  0  0  0
  1  8  2  0
  1  3  1  0
  2  6  1  0
  3  7  2  0
  4 10  1  0
  4  2  2  0
  5  1  1  0
  7  2  1  0
  8  4  1  0
 10  9  1  0
 10 13  1  0
 13 12  1  1
 13 11  1  0
 14 23  1  0
 14 13  1  0
 15 23  1  0
 16 21  1  0
 17 18  1  0
 17 16  1  0
 19 18  1  0
 19 28  1  0
 19 20  1  0
 21 15  1  0
 21 20  1  0
 22 15  2  0
 23 24  1  0
 25 26  2  0
 26 45  1  0
 27 26  1  0
 27 30  1  0
 28 25  1  0
 28 29  1  0
 29 27  2  0
 30 31  1  0
 31 32  2  0
 33 36  1  0
 33 32  1  0
 34 33  2  0
 35 34  1  0
 35 30  2  0
 36 37  1  0
 37 38  1  0
 38 39  2  0
 40 39  1  0
 40 44  1  0
 41 40  2  0
 42 37  2  0
 42 41  1  0
 43 42  1  0
 45 46  1  0
 46 49  1  0
 46 48  1  0
 47 45  2  0
 50 51  1  0
 50 25  1  0
 52 50  1  0
 53  3  1  0
 54 55  1  0
 54 53  1  0
 55 56  1  0
 56 57  1  0
 57 59  1  0
 58 69  2  0
 59 64  1  0
 60 68  1  0
 60 70  1  0
 61 67  1  0
 61 63  1  0
 62 68  1  0
 63 62  1  0
 64 63  2  0
 65 66  1  0
 65 59  2  0
 66 61  2  0
 67 60  1  0
 68 58  1  0
 70 72  2  0
 71 70  1  0
 73 71  1  0
 74 83  2  0
 74 79  1  0
 75 71  1  0
 75 79  1  0
 76 75  1  0
 77 78  1  0
 77 76  1  0
 78 74  1  0
 79 80  2  0
 80 81  1  0
 82 81  2  0
 83 82  1  0
 84 58  1  0
 84 85  1  0
 84 94  1  0
 85 88  1  0
 86 90  1  0
 86 85  1  0
 87 86  2  0
 90 89  1  0
 92 90  1  0
 92 93  1  0
 92 91  1  0
 94 97  1  1
 94 95  1  0
 96 94  1  0
M  ISO  4  15 100  23 100  56 101  57 101
M  END
>  <TORSDO>  (54) 
F 23

>  <SCORE>  (54) 
-12.858

>  <name>  (54) 
53

>  <ligand_id>  (54) 
53

>  <original_smiles>  (54) 
[H]c1c([H])c([H])c2c(c1[H])C([H])([H])C([H])([H])C([H])([H])C2([H])N([H])C(=O)C1([H])N(C(=O)C([H])(N([H])C(=O)C([H])(N([H])C([H])([H])[H])C([H])([H])[H])C(C([H])([H])[H])(C([H])([H])[H])C([H])([H])[H])C([H])([H])c2c([H])c(OC([H])([H])C([H])([H])C([H])([H])C([H])([H])c3nc(C([H])([H])[H])c(C([H])(C([H])([H])[H])C(C([H])([H])[H])(C([H])([H])[H])C([H])([H])N([H])C(=O)N4C([H])([H])C([H])([H])C([H])([H])C([H])(n5nc(-c6c([H])c([H])c(Oc7c([H])c([H])c(F)c([H])c7F)c([H])c6[H])c(C(=O)N([H])[H])c5N([H])[H])C4([H])[H])nc3C([H])([H])[H])c([H])c([H])c2C1([H])[H]

>  <smiles>  (54) 
[H]c1c([H])c([H])c2c(c1[H])C([H])([H])C([H])([H])C([H])([H])C2([H])N([H])C(=O)C1([H])N(C(=O)C([H])(N([H])C(=O)C([H])(N([H])C([H])([H])[H])C([H])([H])[H])C(C([H])([H])[H])(C([H])([H])[H])C([H])([H])[H])C([H])([H])c2c([H])c(OC([H])([H])C([H])([H])C([H])([H])C([H])([H])c3nc(C([H])([H])[H])c(C([H])(C([H])([H])[H])C(C([H])([H])[H])(C([H])([H])[H])C([H])([H])N([H])C(=O)N4C([H])([H])C([H])([H])C([H])([H])C([H])(n5nc(-c6c([H])c([H])c(Oc7c([H])c([H])c(F)c([H])c7F)c([H])c6[H])c(C(=O)N([H])[H])c5N([H])[H])C4([H])[H])nc3C([H])([H])[H])c([H])c([H])c2C1([H])[H]

$$$$
54:0:0
     RDKit          3D

 93101  0  0  1  0  0  0  0  0999 V2000
  -29.1430  -20.0950   21.0380 C   0  0  0  0  0  3  0  0  0  0  0  0
  -29.5490  -21.1330   21.8360 C   0  0  0  0  0  0  0  0  0  0  0  0
  -30.8760  -20.7640   22.2050 C   0  0  0  0  0  0  0  0  0  0  0  0
  -31.8440  -21.4850   23.0990 C   0  0  0  0  0  1  0  0  0  0  0  0
  -31.2350  -19.5980   21.6830 N   0  0  0  0  0  0  0  0  0  0  0  0
  -30.1620  -19.1570   20.9810 N   0  0  0  0  0  0  0  0  0  0  0  0
  -28.8510  -17.5410   19.6280 C   0  0  0  0  0  1  0  0  0  0  0  0
  -31.2950  -17.8470   19.2420 C   0  0  0  0  0  1  0  0  0  0  0  0
  -30.1990  -17.8270   20.3300 C   0  0  1  0  0  0  0  0  0  0  0  0
  -30.5170  -16.7390   21.4120 C   0  0  0  0  0  2  0  0  0  0  0  0
  -30.6980  -14.4270   20.4130 C   0  0  0  0  0  0  0  0  0  0  0  0
  -30.3490  -12.3240   19.1730 C   0  0  0  0  0  2  0  0  0  0  0  0
  -29.3940  -12.5750   17.9860 C   0  0  0  0  0  2  0  0  0  0  0  0
  -27.9220  -12.4480   18.4250 C   0  0  0  0  0  2  0  0  0  0  0  0
  -27.6120  -13.2520   19.7140 C   0  0  0  0  0  3  0  0  0  0  0  0
  -28.6710  -12.9720   20.8040 C   0  0  0  0  0  2  0  0  0  0  0  0
  -29.9990  -13.2760   20.2360 N   0  0  0  0  0  0  0  0  0  0  0  0
  -31.8020  -14.6330   19.9030 O   0  0  0  0  0  0  0  0  0  0  0  0
  -30.0580  -15.3740   21.1100 N   0  0  0  0  0  0  0  0  0  0  0  0
  -29.1530  -15.1170   21.4750 H   0  0  0  0  0  0  0  0  0  0  0  0
  -25.2140  -13.8760   20.4160 C   0  0  0  0  0  0  0  0  0  0  0  0
  -24.1440  -13.1110   20.7930 C   0  0  0  0  0  0  0  0  0  0  0  0
  -24.6000  -11.7570   20.7750 C   0  0  0  0  0  0  0  0  0  0  0  0
  -26.2570  -12.9880   20.1950 N   0  0  0  0  0  0  0  0  0  0  0  0
  -25.8890  -11.7090   20.4660 N   0  0  0  0  0  0  0  0  0  0  0  0
  -23.8710  -10.4980   20.9750 C   0  0  0  0  0  0  0  0  0  0  0  0
  -24.2950   -9.5410   21.9220 C   0  0  0  0  0  3  0  0  0  0  0  0
  -23.5660   -8.3470   22.1100 C   0  0  0  0  0  3  0  0  0  0  0  0
  -22.3990   -8.1020   21.3480 C   0  0  0  0  0  0  0  0  0  0  0  0
  -21.9950   -9.0470   20.3890 C   0  0  0  0  0  3  0  0  0  0  0  0
  -22.7240  -10.2320   20.2000 C   0  0  0  0  0  3  0  0  0  0  0  0
  -21.6410   -6.9590   21.4460 O   0  0  0  0  0  0  0  0  0  0  0  0
  -21.5780   -6.2330   22.6090 C   0  0  0  0  0  0  0  0  0  0  0  0
  -21.1290   -6.8030   23.8190 C   0  0  0  0  0  3  0  0  0  0  0  0
  -21.0140   -6.0040   24.9740 C   0  0  0  0  0  3  0  0  0  0  0  0
  -21.3350   -4.6350   24.9170 C   0  0  0  0  0  0  0  0  0  0  0  0
  -21.7760   -4.0630   23.7120 C   0  0  0  0  0  3  0  0  0  0  0  0
  -21.8940   -4.8600   22.5590 C   0  0  0  0  0  0  0  0  0  0  0  0
  -22.2990   -4.3000   21.3940 F   0  0  0  0  0  0  0  0  0  0  0  0
  -21.2180   -3.8640   26.0240 F   0  0  0  0  0  0  0  0  0  0  0  0
  -22.7480  -13.5940   21.0650 C   0  0  0  0  0  0  0  0  0  0  0  0
  -22.0200  -12.9030   21.9340 N   0  0  0  0  0  0  0  0  0  0  0  0
  -22.3110  -14.6180   20.5420 O   0  0  0  0  0  0  0  0  0  0  0  0
  -22.3840  -12.0730   22.3790 H   0  0  0  0  0  0  0  0  0  0  0  0
  -21.0820  -13.2050   22.1600 H   0  0  0  0  0  0  0  0  0  0  0  0
  -25.3870  -15.2440   20.2240 N   0  0  0  0  0  0  0  0  0  0  0  0
  -24.6290  -15.9100   20.3280 H   0  0  0  0  0  0  0  0  0  0  0  0
  -26.2400  -15.6700   19.8880 H   0  0  0  0  0  0  0  0  0  0  0  0
  -28.7190  -22.3140   22.2900 C   0  0  0  0  0  2  0  0  0  0  0  0
  -29.3610  -23.7230   22.1290 C   0  0  0  0  0  2  0  0  0  0  0  0
  -29.4750  -24.3700   20.7060 C   0  0  0  0  0  2  0  0  0  0  0  0
  -28.3260  -25.2520   20.1040 C   0  0  0  0  0  2  0  0  0  0  0  0
  -28.4710  -26.6860   20.2120 O   0  0  0  0  0  0  0  0  0  0  0  0
  -24.6170  -31.8650   23.2210 C   0  0  0  0  0  0  0  0  0  0  0  0
  -27.3020  -27.4230   20.1670 C   0  0  0  0  0  0  0  0  0  0  0  0
  -23.4340  -30.4580   21.5670 C   0  0  0  0  0  3  0  0  0  0  0  0
  -24.9060  -28.9310   20.1560 C   0  0  0  0  0  0  0  0  0  0  0  0
  -25.9630  -30.8240   21.3980 C   0  0  0  0  0  2  0  0  0  0  0  0
  -26.0570  -29.4530   20.7570 C   0  0  0  0  0  0  0  0  0  0  0  0
  -27.2590  -28.7070   20.7580 C   0  0  0  0  0  3  0  0  0  0  0  0
  -26.1300  -26.9260   19.5470 C   0  0  0  0  0  3  0  0  0  0  0  0
  -24.9360  -27.6660   19.5490 C   0  0  0  0  0  3  0  0  0  0  0  0
  -23.6590  -29.7840   20.1890 C   0  0  0  0  0  2  0  0  0  0  0  0
  -24.6890  -31.0620   22.1210 N   0  0  0  0  0  0  0  0  0  0  0  0
  -23.5280  -32.1370   23.7460 O   0  0  0  0  0  0  0  0  0  0  0  0
  -22.7750  -29.4330   22.5190 C   0  0  0  0  0  0  0  0  0  0  0  0
  -21.4490  -29.2640   22.3910 N   0  0  0  0  0  0  0  0  0  0  0  0
  -23.4530  -28.7980   23.3300 O   0  0  0  0  0  0  0  0  0  0  0  0
  -20.9630  -29.8310   21.7120 H   0  0  0  0  0  0  0  0  0  0  0  0
  -18.0610  -28.1100   22.8930 C   0  0  0  0  0  0  0  0  0  0  0  0
  -20.6240  -28.3280   23.1540 C   0  0  0  0  0  3  0  0  0  0  0  0
  -20.7020  -26.9020   22.5580 C   0  0  0  0  0  2  0  0  0  0  0  0
  -19.5890  -26.6090   21.5470 C   0  0  0  0  0  2  0  0  0  0  0  0
  -18.2140  -26.7650   22.2020 C   0  0  0  0  0  2  0  0  0  0  0  0
  -19.1940  -28.8500   23.3270 C   0  0  0  0  0  0  0  0  0  0  0  0
  -18.9980  -30.1100   23.9330 C   0  0  0  0  0  3  0  0  0  0  0  0
  -17.7010  -30.6280   24.1140 C   0  0  0  0  0  3  0  0  0  0  0  0
  -16.5830  -29.8850   23.6970 C   0  0  0  0  0  3  0  0  0  0  0  0
  -16.7650  -28.6280   23.0930 C   0  0  0  0  0  3  0  0  0  0  0  0
  -25.8940  -32.4990   23.8560 C   0  0  0  0  0  3  0  0  0  0  0  0
  -25.5780  -33.8940   24.1830 N   0  0  0  0  0  0  0  0  0  0  0  0
  -25.9090  -34.9470   23.4230 C   0  0  0  0  0  0  0  0  0  0  0  0
  -26.5840  -34.8460   22.3950 O   0  0  0  0  0  0  0  0  0  0  0  0
  -24.9770  -34.0500   24.9810 H   0  0  0  0  0  0  0  0  0  0  0  0
  -24.1730  -36.7300   23.0570 C   0  0  0  0  0  1  0  0  0  0  0  0
  -25.4120  -36.3330   23.8770 C   0  0  0  0  0  3  0  0  0  0  0  0
  -27.5360  -37.2310   24.7210 C   0  0  0  0  0  1  0  0  0  0  0  0
  -26.4410  -37.3910   23.7680 N   0  0  0  0  0  0  0  0  0  0  0  0
  -26.0290  -38.3080   23.9100 H   0  0  0  0  0  0  0  0  0  0  0  0
  -26.4040  -31.7270   25.1330 C   0  0  1  0  0  0  0  0  0  0  0  0
  -25.3030  -31.4810   26.1920 C   0  0  0  0  0  1  0  0  0  0  0  0
  -26.9960  -30.3530   24.7420 C   0  0  0  0  0  1  0  0  0  0  0  0
  -27.5460  -32.5240   25.8070 C   0  0  0  0  0  1  0  0  0  0  0  0
  1  2  2  0
  2  3  1  0
  2 49  1  0
  3  4  1  0
  5  3  2  0
  6  1  1  0
  6  5  1  0
  9  7  1  6
  8  9  1  0
  9  6  1  0
  9 10  1  0
 11 19  1  0
 12 17  1  0
 13 14  1  0
 13 12  1  0
 15 14  1  0
 15 24  1  0
 15 16  1  0
 17 11  1  0
 17 16  1  0
 18 11  2  0
 19 10  1  0
 19 20  1  0
 21 22  2  0
 22 41  1  0
 23 22  1  0
 23 26  1  0
 24 21  1  0
 24 25  1  0
 25 23  2  0
 26 27  1  0
 27 28  2  0
 29 32  1  0
 29 28  1  0
 30 29  2  0
 31 30  1  0
 31 26  2  0
 32 33  1  0
 33 34  1  0
 34 35  2  0
 36 35  1  0
 36 40  1  0
 37 36  2  0
 38 33  2  0
 38 37  1  0
 39 38  1  0
 41 42  1  0
 42 45  1  0
 42 44  1  0
 43 41  2  0
 46 47  1  0
 46 21  1  0
 48 46  1  0
 50 49  1  0
 51 50  1  0
 52 53  1  0
 52 51  1  0
 54 65  2  0
 55 53  1  0
 55 60  1  0
 56 64  1  0
 56 66  1  0
 57 63  1  0
 57 59  1  0
 58 64  1  0
 59 60  2  0
 59 58  1  0
 61 62  1  0
 61 55  2  0
 62 57  2  0
 63 56  1  0
 64 54  1  0
 66 68  2  0
 67 66  1  0
 69 67  1  0
 70 79  2  0
 70 75  1  0
 71 67  1  0
 71 75  1  0
 72 71  1  0
 73 74  1  0
 73 72  1  0
 74 70  1  0
 75 76  2  0
 76 77  1  0
 78 77  2  0
 79 78  1  0
 80 54  1  0
 80 81  1  0
 80 90  1  0
 81 84  1  0
 82 86  1  0
 82 81  1  0
 83 82  2  0
 86 85  1  0
 88 86  1  0
 88 89  1  0
 88 87  1  0
 90 93  1  1
 90 91  1  0
 92 90  1  0
M  ISO  4  11 100  19 100  52 101  53 101
M  END
>  <TORSDO>  (55) 
F 22

>  <SCORE>  (55) 
-13.377

>  <name>  (55) 
54

>  <ligand_id>  (55) 
54

>  <original_smiles>  (55) 
[H]c1c([H])c([H])c2c(c1[H])C([H])([H])C([H])([H])C([H])([H])C2([H])N([H])C(=O)C1([H])N(C(=O)C([H])(N([H])C(=O)C([H])(N([H])C([H])([H])[H])C([H])([H])[H])C(C([H])([H])[H])(C([H])([H])[H])C([H])([H])[H])C([H])([H])c2c([H])c(OC([H])([H])C([H])([H])C([H])([H])C([H])([H])c3c(C([H])([H])[H])nn(C(C([H])([H])[H])(C([H])([H])[H])C([H])([H])N([H])C(=O)N4C([H])([H])C([H])([H])C([H])([H])C([H])(n5nc(-c6c([H])c([H])c(Oc7c([H])c([H])c(F)c([H])c7F)c([H])c6[H])c(C(=O)N([H])[H])c5N([H])[H])C4([H])[H])c3[H])c([H])c([H])c2C1([H])[H]

>  <smiles>  (55) 
[H]c1c([H])c([H])c2c(c1[H])C([H])([H])C([H])([H])C([H])([H])C2([H])N([H])C(=O)C1([H])N(C(=O)C([H])(N([H])C(=O)C([H])(N([H])C([H])([H])[H])C([H])([H])[H])C(C([H])([H])[H])(C([H])([H])[H])C([H])([H])[H])C([H])([H])c2c([H])c(OC([H])([H])C([H])([H])C([H])([H])C([H])([H])c3c(C([H])([H])[H])nn(C(C([H])([H])[H])(C([H])([H])[H])C([H])([H])N([H])C(=O)N4C([H])([H])C([H])([H])C([H])([H])C([H])(n5nc(-c6c([H])c([H])c(Oc7c([H])c([H])c(F)c([H])c7F)c([H])c6[H])c(C(=O)N([H])[H])c5N([H])[H])C4([H])[H])c3[H])c([H])c([H])c2C1([H])[H]

$$$$
55:0:0
     RDKit          3D

 94102  0  0  1  0  0  0  0  0999 V2000
  -29.4900  -19.8590   19.4610 C   0  0  0  0  0  3  0  0  0  0  0  0
  -29.0040  -21.0850   18.9860 C   0  0  0  0  0  0  0  0  0  0  0  0
  -29.9320  -22.0750   18.5740 C   0  0  0  0  0  0  0  0  0  0  0  0
  -30.8690  -19.6300   19.5250 C   0  0  0  0  0  0  0  0  0  0  0  0
  -31.3230  -21.7880   18.6550 C   0  0  0  0  0  0  0  0  0  0  0  0
  -29.4190  -23.4030   18.0200 C   0  0  0  0  0  1  0  0  0  0  0  0
  -31.7690  -20.5820   19.1300 N   0  0  0  0  0  0  0  0  0  0  0  0
  -26.9970  -22.0520   20.1940 C   0  0  0  0  0  1  0  0  0  0  0  0
  -27.4960  -21.2940   18.9580 C   0  0  0  0  0  2  0  0  0  0  0  0
  -31.3540  -18.3220   20.1890 C   0  0  0  0  0  3  0  0  0  0  0  0
  -30.8090  -16.9450   19.6330 C   0  0  0  0  0  3  0  0  0  0  0  0
  -32.1420  -15.8620   21.5250 C   0  0  0  0  0  1  0  0  0  0  0  0
  -29.6910  -15.6390   21.5320 C   0  0  0  0  0  1  0  0  0  0  0  0
  -30.9120  -15.6780   20.5850 C   0  0  1  0  0  0  0  0  0  0  0  0
  -31.2020  -14.3270   19.7850 C   0  0  0  0  0  0  0  0  0  0  0  0
  -30.8510  -12.0170   18.9330 C   0  0  0  0  0  2  0  0  0  0  0  0
  -29.8400  -12.0110   17.7660 C   0  0  0  0  0  2  0  0  0  0  0  0
  -28.4020  -11.8750   18.2990 C   0  0  0  0  0  2  0  0  0  0  0  0
  -28.1110  -12.8680   19.4510 C   0  0  0  0  0  3  0  0  0  0  0  0
  -29.2330  -12.8200   20.5080 C   0  0  0  0  0  2  0  0  0  0  0  0
  -30.5110  -13.1360   19.8460 N   0  0  0  0  0  0  0  0  0  0  0  0
  -32.1780  -14.3920   19.0320 O   0  0  0  0  0  0  0  0  0  0  0  0
  -25.7940  -13.5330   20.3470 C   0  0  0  0  0  0  0  0  0  0  0  0
  -24.7510  -12.7910   20.8280 C   0  0  0  0  0  0  0  0  0  0  0  0
  -25.1860  -11.4300   20.7950 C   0  0  0  0  0  0  0  0  0  0  0  0
  -26.8000  -12.6280   20.0500 N   0  0  0  0  0  0  0  0  0  0  0  0
  -26.4430  -11.3590   20.3760 N   0  0  0  0  0  0  0  0  0  0  0  0
  -24.4600  -10.1870   21.0840 C   0  0  0  0  0  0  0  0  0  0  0  0
  -24.6100   -9.5090   22.3140 C   0  0  0  0  0  3  0  0  0  0  0  0
  -23.8870   -8.3260   22.5740 C   0  0  0  0  0  3  0  0  0  0  0  0
  -22.9990   -7.8100   21.6010 C   0  0  0  0  0  0  0  0  0  0  0  0
  -22.8700   -8.4740   20.3690 C   0  0  0  0  0  3  0  0  0  0  0  0
  -23.5940   -9.6480   20.1100 C   0  0  0  0  0  3  0  0  0  0  0  0
  -22.2750   -6.6520   21.7560 O   0  0  0  0  0  0  0  0  0  0  0  0
  -21.5660   -6.3940   22.9020 C   0  0  0  0  0  0  0  0  0  0  0  0
  -20.4900   -7.2110   23.3110 C   0  0  0  0  0  3  0  0  0  0  0  0
  -19.7430   -6.8700   24.4580 C   0  0  0  0  0  3  0  0  0  0  0  0
  -20.0660   -5.7110   25.1880 C   0  0  0  0  0  0  0  0  0  0  0  0
  -21.1340   -4.8930   24.7790 C   0  0  0  0  0  3  0  0  0  0  0  0
  -21.8800   -5.2330   23.6370 C   0  0  0  0  0  0  0  0  0  0  0  0
  -22.8940   -4.4300   23.2340 F   0  0  0  0  0  0  0  0  0  0  0  0
  -19.3440   -5.3780   26.2850 F   0  0  0  0  0  0  0  0  0  0  0  0
  -23.3900  -13.3010   21.2060 C   0  0  0  0  0  0  0  0  0  0  0  0
  -22.7520  -12.6760   22.1910 N   0  0  0  0  0  0  0  0  0  0  0  0
  -22.9030  -14.2900   20.6590 O   0  0  0  0  0  0  0  0  0  0  0  0
  -23.1600  -11.8790   22.6560 H   0  0  0  0  0  0  0  0  0  0  0  0
  -21.8430  -13.0030   22.4840 H   0  0  0  0  0  0  0  0  0  0  0  0
  -25.9640  -14.8950   20.1180 N   0  0  0  0  0  0  0  0  0  0  0  0
  -25.2220  -15.5660   20.2830 H   0  0  0  0  0  0  0  0  0  0  0  0
  -26.7910  -15.3110   19.7100 H   0  0  0  0  0  0  0  0  0  0  0  0
  -32.3870  -22.7950   18.1270 C   0  0  0  0  0  2  0  0  0  0  0  0
  -32.9990  -23.8220   19.1410 C   0  0  0  0  0  2  0  0  0  0  0  0
  -32.0840  -24.9430   19.7510 C   0  0  0  0  0  2  0  0  0  0  0  0
  -31.9920  -26.2250   19.0770 O   0  0  0  0  0  0  0  0  0  0  0  0
  -27.3870  -29.2780   23.6320 C   0  0  0  0  0  0  0  0  0  0  0  0
  -30.7740  -26.8510   19.2700 C   0  0  0  0  0  0  0  0  0  0  0  0
  -26.4750  -28.5790   21.4450 C   0  0  0  0  0  3  0  0  0  0  0  0
  -28.1990  -27.9680   19.6630 C   0  0  0  0  0  0  0  0  0  0  0  0
  -28.9340  -29.2590   21.6730 C   0  0  0  0  0  2  0  0  0  0  0  0
  -29.2460  -28.3090   20.5300 C   0  0  0  0  0  0  0  0  0  0  0  0
  -30.5410  -27.7620   20.3320 C   0  0  0  0  0  3  0  0  0  0  0  0
  -29.7110  -26.5400   18.3980 C   0  0  0  0  0  3  0  0  0  0  0  0
  -28.4280  -27.0880   18.5910 C   0  0  0  0  0  3  0  0  0  0  0  0
  -26.8420  -28.5790   19.9380 C   0  0  0  0  0  2  0  0  0  0  0  0
  -27.6120  -29.0290   22.3100 N   0  0  0  0  0  0  0  0  0  0  0  0
  -26.2540  -29.1750   24.1230 O   0  0  0  0  0  0  0  0  0  0  0  0
  -25.9310  -27.1820   21.8230 C   0  0  0  0  0  0  0  0  0  0  0  0
  -24.6510  -26.9290   21.5050 N   0  0  0  0  0  0  0  0  0  0  0  0
  -26.6600  -26.3470   22.3660 O   0  0  0  0  0  0  0  0  0  0  0  0
  -24.1190  -27.6670   21.0630 H   0  0  0  0  0  0  0  0  0  0  0  0
  -21.4450  -25.2890   21.1740 C   0  0  0  0  0  0  0  0  0  0  0  0
  -23.9410  -25.6690   21.7300 C   0  0  0  0  0  3  0  0  0  0  0  0
  -24.2430  -24.6540   20.6040 C   0  0  0  0  0  2  0  0  0  0  0  0
  -23.2170  -24.6940   19.4660 C   0  0  0  0  0  2  0  0  0  0  0  0
  -21.8120  -24.3990   19.9990 C   0  0  0  0  0  2  0  0  0  0  0  0
  -22.4450  -25.8990   21.9760 C   0  0  0  0  0  0  0  0  0  0  0  0
  -22.0510  -26.7480   23.0330 C   0  0  0  0  0  3  0  0  0  0  0  0
  -20.6890  -26.9880   23.2940 C   0  0  0  0  0  3  0  0  0  0  0  0
  -19.7030  -26.3680   22.5080 C   0  0  0  0  0  3  0  0  0  0  0  0
  -20.0820  -25.5180   21.4530 C   0  0  0  0  0  3  0  0  0  0  0  0
  -28.5390  -29.7260   24.5850 C   0  0  0  0  0  3  0  0  0  0  0  0
  -28.0400  -30.8550   25.3820 N   0  0  0  0  0  0  0  0  0  0  0  0
  -28.3290  -32.1410   25.1410 C   0  0  0  0  0  0  0  0  0  0  0  0
  -29.1120  -32.4970   24.2560 O   0  0  0  0  0  0  0  0  0  0  0  0
  -27.3470  -30.6400   26.0830 H   0  0  0  0  0  0  0  0  0  0  0  0
  -26.4520  -33.8110   25.2670 C   0  0  0  0  0  1  0  0  0  0  0  0
  -27.6430  -33.2000   26.0230 C   0  0  0  0  0  3  0  0  0  0  0  0
  -29.5420  -33.8290   27.4460 C   0  0  0  0  0  1  0  0  0  0  0  0
  -28.5550  -34.2760   26.4680 N   0  0  0  0  0  0  0  0  0  0  0  0
  -28.0310  -35.0460   26.8760 H   0  0  0  0  0  0  0  0  0  0  0  0
  -29.0550  -28.5660   25.5250 C   0  0  1  0  0  0  0  0  0  0  0  0
  -27.9230  -27.8410   26.2910 C   0  0  0  0  0  1  0  0  0  0  0  0
  -29.8240  -27.5020   24.7080 C   0  0  0  0  0  1  0  0  0  0  0  0
  -30.0510  -29.1370   26.5620 C   0  0  0  0  0  1  0  0  0  0  0  0
  1  4  1  0
  2  1  2  0
  3  5  2  0
  3  2  1  0
  4 10  1  0
  5  7  1  0
  6  3  1  0
  7  4  2  0
  9  2  1  0
  9  8  1  0
 11 10  2  0
 11 14  1  0
 14 12  1  1
 14 13  1  0
 15 21  1  0
 15 14  1  0
 16 21  1  0
 17 18  1  0
 17 16  1  0
 19 18  1  0
 19 26  1  0
 19 20  1  0
 21 20  1  0
 22 15  2  0
 23 24  2  0
 24 43  1  0
 25 24  1  0
 25 28  1  0
 26 23  1  0
 26 27  1  0
 27 25  2  0
 28 29  1  0
 29 30  2  0
 31 34  1  0
 31 30  1  0
 32 31  2  0
 33 32  1  0
 33 28  2  0
 34 35  1  0
 35 36  2  0
 35 40  1  0
 36 37  1  0
 37 38  2  0
 38 42  1  0
 39 38  1  0
 40 39  2  0
 41 40  1  0
 43 44  1  0
 44 47  1  0
 44 46  1  0
 45 43  2  0
 48 49  1  0
 48 23  1  0
 50 48  1  0
 51  5  1  0
 51 52  1  0
 52 53  1  0
 54 56  1  0
 54 53  1  0
 55 66  2  0
 56 61  1  0
 57 67  1  0
 57 65  1  0
 58 64  1  0
 58 60  1  0
 59 65  1  0
 60 59  1  0
 61 60  2  0
 62 63  1  0
 62 56  2  0
 63 58  2  0
 64 57  1  0
 65 55  1  0
 67 69  2  0
 68 67  1  0
 70 68  1  0
 71 80  2  0
 71 76  1  0
 72 68  1  0
 72 76  1  0
 73 72  1  0
 74 75  1  0
 74 73  1  0
 75 71  1  0
 76 77  2  0
 77 78  1  0
 79 78  2  0
 80 79  1  0
 81 55  1  0
 81 82  1  0
 81 91  1  0
 82 85  1  0
 83 82  1  0
 83 87  1  0
 84 83  2  0
 87 86  1  0
 87 89  1  0
 89 90  1  0
 89 88  1  0
 91 92  1  1
 91 94  1  0
 93 91  1  0
M  ISO  4  14 100  15 100  53 101  54 101
M  END
>  <TORSDO>  (56) 
F 23

>  <SCORE>  (56) 
-6.356

>  <name>  (56) 
55

>  <ligand_id>  (56) 
55

>  <original_smiles>  (56) 
[H]c1c([H])c([H])c2c(c1[H])C([H])([H])C([H])([H])C([H])([H])C2([H])N([H])C(=O)C1([H])N(C(=O)C([H])(N([H])C(=O)C([H])(N([H])C([H])([H])[H])C([H])([H])[H])C(C([H])([H])[H])(C([H])([H])[H])C([H])([H])[H])C([H])([H])c2c([H])c(OC([H])([H])C([H])([H])C([H])([H])c3nc(C([H])([H])C([H])([H])C(C(=O)N4C([H])([H])C([H])([H])C([H])([H])C([H])(n5nc(-c6c([H])c([H])c(Oc7c([H])c([H])c(F)c([H])c7F)c([H])c6[H])c(C(=O)N([H])[H])c5N([H])[H])C4([H])[H])(C([H])([H])[H])C([H])([H])[H])c([H])c(C([H])([H])C([H])([H])[H])c3C([H])([H])[H])c([H])c([H])c2C1([H])[H]

>  <smiles>  (56) 
[H]c1c([H])c([H])c2c(c1[H])C([H])([H])C([H])([H])C([H])([H])C2([H])N([H])C(=O)C1([H])N(C(=O)C([H])(N([H])C(=O)C([H])(N([H])C([H])([H])[H])C([H])([H])[H])C(C([H])([H])[H])(C([H])([H])[H])C([H])([H])[H])C([H])([H])c2c([H])c(OC([H])([H])C([H])([H])C([H])([H])c3nc(C([H])([H])C([H])([H])C(C(=O)N4C([H])([H])C([H])([H])C([H])([H])C([H])(n5nc(-c6c([H])c([H])c(Oc7c([H])c([H])c(F)c([H])c7F)c([H])c6[H])c(C(=O)N([H])[H])c5N([H])[H])C4([H])[H])(C([H])([H])[H])C([H])([H])[H])c([H])c(C([H])([H])C([H])([H])[H])c3C([H])([H])[H])c([H])c([H])c2C1([H])[H]

$$$$
56:0:0
     RDKit          3D

 88 95  0  0  1  0  0  0  0  0999 V2000
  -26.9880  -22.5200   19.1990 C   0  0  0  0  0  1  0  0  0  0  0  0
  -29.2970  -23.1720   18.5410 C   0  0  0  0  0  1  0  0  0  0  0  0
  -28.4010  -22.8150   19.7410 C   0  0  2  0  0  0  0  0  0  0  0  0
  -29.0320  -21.2440   20.3530 C   0  0  0  0  0  2  0  0  0  0  0  0
  -29.2270  -19.5650   18.2660 C   0  0  0  0  0  1  0  0  0  0  0  0
  -27.5300  -19.0980   20.0120 C   0  0  0  0  0  1  0  0  0  0  0  0
  -28.9870  -19.5350   19.7870 C   0  0  2  0  0  0  0  0  0  0  0  0
  -29.9470  -18.1250   20.3170 C   0  0  0  0  0  2  0  0  0  0  0  0
  -30.5040  -15.2530   20.0680 C   0  0  0  0  0  0  0  0  0  0  0  0
  -30.4660  -12.8240   19.1780 C   0  0  0  0  0  2  0  0  0  0  0  0
  -29.5070  -12.6370   17.9780 C   0  0  0  0  0  2  0  0  0  0  0  0
  -28.0620  -12.3960   18.4550 C   0  0  0  0  0  2  0  0  0  0  0  0
  -27.6570  -13.3450   19.6120 C   0  0  0  0  0  3  0  0  0  0  0  0
  -28.7400  -13.4550   20.7020 C   0  0  0  0  0  2  0  0  0  0  0  0
  -29.9470  -13.9520   20.0280 N   0  0  0  0  0  0  0  0  0  0  0  0
  -31.7240  -15.2750   19.8450 O   0  0  0  0  0  0  0  0  0  0  0  0
  -29.7090  -16.4930   20.1590 N   0  0  0  0  0  0  0  0  0  0  0  0
  -28.7290  -16.2630   20.2330 H   0  0  0  0  0  0  0  0  0  0  0  0
  -25.3160  -13.9090   20.4550 C   0  0  0  0  0  0  0  0  0  0  0  0
  -24.2640  -13.1350   20.8550 C   0  0  0  0  0  0  0  0  0  0  0  0
  -24.7230  -11.7820   20.7910 C   0  0  0  0  0  0  0  0  0  0  0  0
  -26.3440  -13.0340   20.1610 N   0  0  0  0  0  0  0  0  0  0  0  0
  -26.0020  -11.7470   20.4310 N   0  0  0  0  0  0  0  0  0  0  0  0
  -23.9970  -10.5210   20.9940 C   0  0  0  0  0  0  0  0  0  0  0  0
  -24.4350   -9.5560   21.9280 C   0  0  0  0  0  3  0  0  0  0  0  0
  -23.7070   -8.3590   22.1120 C   0  0  0  0  0  3  0  0  0  0  0  0
  -22.5280   -8.1240   21.3670 C   0  0  0  0  0  0  0  0  0  0  0  0
  -22.1100   -9.0790   20.4230 C   0  0  0  0  0  3  0  0  0  0  0  0
  -22.8380  -10.2650   20.2360 C   0  0  0  0  0  3  0  0  0  0  0  0
  -21.7700   -6.9820   21.4670 O   0  0  0  0  0  0  0  0  0  0  0  0
  -21.7050   -6.2600   22.6320 C   0  0  0  0  0  0  0  0  0  0  0  0
  -21.2150   -6.8220   23.8310 C   0  0  0  0  0  3  0  0  0  0  0  0
  -21.1000   -6.0250   24.9880 C   0  0  0  0  0  3  0  0  0  0  0  0
  -21.4620   -4.6650   24.9440 C   0  0  0  0  0  0  0  0  0  0  0  0
  -21.9430   -4.1020   23.7500 C   0  0  0  0  0  3  0  0  0  0  0  0
  -22.0610   -4.8960   22.5960 C   0  0  0  0  0  0  0  0  0  0  0  0
  -22.5060   -4.3430   21.4420 F   0  0  0  0  0  0  0  0  0  0  0  0
  -21.3430   -3.8960   26.0510 F   0  0  0  0  0  0  0  0  0  0  0  0
  -22.8780  -13.6170   21.1720 C   0  0  0  0  0  0  0  0  0  0  0  0
  -22.1690  -12.9160   22.0500 N   0  0  0  0  0  0  0  0  0  0  0  0
  -22.4330  -14.6510   20.6770 O   0  0  0  0  0  0  0  0  0  0  0  0
  -22.5340  -12.0810   22.4810 H   0  0  0  0  0  0  0  0  0  0  0  0
  -21.2400  -13.2290   22.2980 H   0  0  0  0  0  0  0  0  0  0  0  0
  -25.4710  -15.2840   20.2850 N   0  0  0  0  0  0  0  0  0  0  0  0
  -24.6980  -15.9240   20.4310 H   0  0  0  0  0  0  0  0  0  0  0  0
  -26.2700  -15.7270   19.8540 H   0  0  0  0  0  0  0  0  0  0  0  0
  -28.1640  -24.3730   20.5790 C   0  0  0  0  0  2  0  0  0  0  0  0
  -28.2830  -25.9590   20.2170 O   0  0  0  0  0  0  0  0  0  0  0  0
  -24.6230  -31.8280   23.2160 C   0  0  0  0  0  0  0  0  0  0  0  0
  -27.2390  -27.0030   20.2390 C   0  0  0  0  0  0  0  0  0  0  0  0
  -23.4570  -30.4300   21.5600 C   0  0  0  0  0  3  0  0  0  0  0  0
  -24.9310  -28.8370   20.1660 C   0  0  0  0  0  0  0  0  0  0  0  0
  -26.0210  -30.6670   21.4450 C   0  0  0  0  0  2  0  0  0  0  0  0
  -26.1070  -29.2610   20.7950 C   0  0  0  0  0  0  0  0  0  0  0  0
  -27.2640  -28.3660   20.7990 C   0  0  0  0  0  3  0  0  0  0  0  0
  -26.0340  -26.7140   19.5700 C   0  0  0  0  0  3  0  0  0  0  0  0
  -24.9160  -27.5830   19.5320 C   0  0  0  0  0  3  0  0  0  0  0  0
  -23.7090  -29.7510   20.1870 C   0  0  0  0  0  2  0  0  0  0  0  0
  -24.7210  -31.0000   22.1290 N   0  0  0  0  0  0  0  0  0  0  0  0
  -23.5260  -32.1110   23.7260 O   0  0  0  0  0  0  0  0  0  0  0  0
  -22.7570  -29.4280   22.5140 C   0  0  0  0  0  0  0  0  0  0  0  0
  -21.4280  -29.2640   22.3760 N   0  0  0  0  0  0  0  0  0  0  0  0
  -23.4190  -28.7960   23.3410 O   0  0  0  0  0  0  0  0  0  0  0  0
  -20.9500  -29.8220   21.6820 H   0  0  0  0  0  0  0  0  0  0  0  0
  -18.0370  -28.0860   22.8770 C   0  0  0  0  0  0  0  0  0  0  0  0
  -20.6010  -28.3220   23.1350 C   0  0  0  0  0  3  0  0  0  0  0  0
  -20.6880  -26.8990   22.5370 C   0  0  0  0  0  2  0  0  0  0  0  0
  -19.5770  -26.6000   21.5240 C   0  0  0  0  0  2  0  0  0  0  0  0
  -18.1990  -26.7480   22.1750 C   0  0  0  0  0  2  0  0  0  0  0  0
  -19.1650  -28.8330   23.3130 C   0  0  0  0  0  0  0  0  0  0  0  0
  -18.9550  -30.0830   23.9330 C   0  0  0  0  0  3  0  0  0  0  0  0
  -17.6560  -30.5900   24.1170 C   0  0  0  0  0  3  0  0  0  0  0  0
  -16.5440  -29.8430   23.6920 C   0  0  0  0  0  3  0  0  0  0  0  0
  -16.7370  -28.5930   23.0770 C   0  0  0  0  0  3  0  0  0  0  0  0
  -25.8850  -32.4740   23.8650 C   0  0  0  0  0  3  0  0  0  0  0  0
  -26.3610  -31.7240   25.1710 C   0  0  1  0  0  0  0  0  0  0  0  0
  -25.2370  -31.5020   26.2110 C   0  0  0  0  0  1  0  0  0  0  0  0
  -26.9560  -30.3390   24.8220 C   0  0  0  0  0  1  0  0  0  0  0  0
  -27.4890  -32.5290   25.8570 C   0  0  0  0  0  1  0  0  0  0  0  0
  -25.5600  -33.8770   24.1810 N   0  0  0  0  0  0  0  0  0  0  0  0
  -25.9040  -34.9320   23.4280 C   0  0  0  0  0  0  0  0  0  0  0  0
  -26.5930  -34.8280   22.4120 O   0  0  0  0  0  0  0  0  0  0  0  0
  -24.9560  -34.0300   24.9730 H   0  0  0  0  0  0  0  0  0  0  0  0
  -24.1960  -36.7400   23.0340 C   0  0  0  0  0  1  0  0  0  0  0  0
  -25.4120  -36.3230   23.8780 C   0  0  0  0  0  3  0  0  0  0  0  0
  -27.5170  -37.2120   24.7780 C   0  0  0  0  0  1  0  0  0  0  0  0
  -26.4510  -37.3740   23.7940 N   0  0  0  0  0  0  0  0  0  0  0  0
  -26.0420  -38.2960   23.9200 H   0  0  0  0  0  0  0  0  0  0  0  0
  3  1  1  6
  2  3  1  0
  3  4  1  0
  3 47  1  0
  7  5  1  6
  7  6  1  0
  7  8  1  0
  7  4  1  0
  9 17  1  0
 10 15  1  0
 11 12  1  0
 11 10  1  0
 13 12  1  0
 13 22  1  0
 13 14  1  0
 15  9  1  0
 15 14  1  0
 16  9  2  0
 17 18  1  0
 17  8  1  0
 19 20  2  0
 20 39  1  0
 21 20  1  0
 21 24  1  0
 22 23  1  0
 22 19  1  0
 23 21  2  0
 24 25  1  0
 25 26  2  0
 27 30  1  0
 27 26  1  0
 28 27  2  0
 29 28  1  0
 29 24  2  0
 30 31  1  0
 31 32  1  0
 32 33  2  0
 34 33  1  0
 34 38  1  0
 35 34  2  0
 36 31  2  0
 36 35  1  0
 37 36  1  0
 39 40  1  0
 40 43  1  0
 40 42  1  0
 41 39  2  0
 44 45  1  0
 44 19  1  0
 46 44  1  0
 48 50  1  0
 48 47  1  0
 49 60  2  0
 50 55  1  0
 51 59  1  0
 51 61  1  0
 52 58  1  0
 52 54  1  0
 53 59  1  0
 54 55  2  0
 54 53  1  0
 56 50  2  0
 57 56  1  0
 57 52  2  0
 58 51  1  0
 59 49  1  0
 61 63  2  0
 62 61  1  0
 64 62  1  0
 65 74  2  0
 65 70  1  0
 66 62  1  0
 66 70  1  0
 67 66  1  0
 68 69  1  0
 68 67  1  0
 69 65  1  0
 70 71  2  0
 71 72  1  0
 73 72  2  0
 74 73  1  0
 75 49  1  0
 75 80  1  0
 75 76  1  0
 76 79  1  1
 76 77  1  0
 78 76  1  0
 80 83  1  0
 81 85  1  0
 81 80  1  0
 82 81  2  0
 85 84  1  0
 87 85  1  0
 87 88  1  0
 87 86  1  0
M  ISO  4   9 100  17 100  47 101  48 101
M  END
>  <TORSDO>  (57) 
F 20

>  <SCORE>  (57) 
-15.851

>  <name>  (57) 
56

>  <ligand_id>  (57) 
56

>  <original_smiles>  (57) 
[H]c1c([H])c([H])c2c(c1[H])C([H])([H])C([H])([H])C([H])([H])C2([H])N([H])C(=O)C1([H])N(C(=O)C([H])(N([H])C(=O)C([H])(N([H])C([H])([H])[H])C([H])([H])[H])C(C([H])([H])[H])(C([H])([H])[H])C([H])([H])[H])C([H])([H])c2c([H])c(OC([H])([H])C(C([H])([H])[H])(C([H])([H])[H])C([H])([H])C(C([H])([H])[H])(C([H])([H])[H])C([H])([H])N([H])C(=O)N3C([H])([H])C([H])([H])C([H])([H])C([H])(n4nc(-c5c([H])c([H])c(Oc6c([H])c([H])c(F)c([H])c6F)c([H])c5[H])c(C(=O)N([H])[H])c4N([H])[H])C3([H])[H])c([H])c([H])c2C1([H])[H]

>  <smiles>  (57) 
[H]c1c([H])c([H])c2c(c1[H])C([H])([H])C([H])([H])C([H])([H])C2([H])N([H])C(=O)C1([H])N(C(=O)C([H])(N([H])C(=O)C([H])(N([H])C([H])([H])[H])C([H])([H])[H])C(C([H])([H])[H])(C([H])([H])[H])C([H])([H])[H])C([H])([H])c2c([H])c(OC([H])([H])C(C([H])([H])[H])(C([H])([H])[H])C([H])([H])C(C([H])([H])[H])(C([H])([H])[H])C([H])([H])N([H])C(=O)N3C([H])([H])C([H])([H])C([H])([H])C([H])(n4nc(-c5c([H])c([H])c(Oc6c([H])c([H])c(F)c([H])c6F)c([H])c5[H])c(C(=O)N([H])[H])c4N([H])[H])C3([H])[H])c([H])c([H])c2C1([H])[H]

$$$$
57:0:0
     RDKit          3D

 92100  0  0  1  0  0  0  0  0999 V2000
  -29.2150  -20.5460   20.2050 C   0  0  0  0  0  3  0  0  0  0  0  0
  -29.6860  -21.8260   19.7980 C   0  0  0  0  0  0  0  0  0  0  0  0
  -30.9870  -21.8810   19.2310 C   0  0  0  0  0  0  0  0  0  0  0  0
  -30.0220  -19.3910   20.0300 C   0  0  0  0  0  0  0  0  0  0  0  0
  -31.7420  -20.6860   19.1450 C   0  0  0  0  0  0  0  0  0  0  0  0
  -31.5690  -23.1830   18.6880 C   0  0  0  0  0  1  0  0  0  0  0  0
  -33.1570  -20.6620   18.5940 C   0  0  0  0  0  1  0  0  0  0  0  0
  -31.2620  -19.4820   19.5120 N   0  0  0  0  0  0  0  0  0  0  0  0
  -28.7640  -23.0670   19.8750 C   0  0  0  0  0  3  0  0  0  0  0  0
  -29.2430  -24.2670   20.7530 C   0  0  0  0  0  3  0  0  0  0  0  0
  -28.1910  -25.3930   20.9870 C   0  0  0  0  0  2  0  0  0  0  0  0
  -28.3640  -26.6110   20.2240 O   0  0  0  0  0  0  0  0  0  0  0  0
  -24.5940  -31.8910   23.2330 C   0  0  0  0  0  0  0  0  0  0  0  0
  -27.2340  -27.4070   20.1920 C   0  0  0  0  0  0  0  0  0  0  0  0
  -23.3920  -30.4840   21.5940 C   0  0  0  0  0  3  0  0  0  0  0  0
  -24.8490  -28.9390   20.1770 C   0  0  0  0  0  0  0  0  0  0  0  0
  -25.9210  -30.8340   21.4040 C   0  0  0  0  0  2  0  0  0  0  0  0
  -26.0090  -29.4580   20.7680 C   0  0  0  0  0  0  0  0  0  0  0  0
  -27.2080  -28.7010   20.7680 C   0  0  0  0  0  3  0  0  0  0  0  0
  -26.0600  -26.9150   19.5810 C   0  0  0  0  0  3  0  0  0  0  0  0
  -24.8720  -27.6680   19.5770 C   0  0  0  0  0  3  0  0  0  0  0  0
  -23.6060  -29.8000   20.2170 C   0  0  0  0  0  2  0  0  0  0  0  0
  -24.6540  -31.0850   22.1350 N   0  0  0  0  0  0  0  0  0  0  0  0
  -23.5120  -32.1670   23.7680 O   0  0  0  0  0  0  0  0  0  0  0  0
  -22.7360  -29.4680   22.5560 C   0  0  0  0  0  0  0  0  0  0  0  0
  -21.4090  -29.2920   22.4310 N   0  0  0  0  0  0  0  0  0  0  0  0
  -23.4160  -28.8400   23.3720 O   0  0  0  0  0  0  0  0  0  0  0  0
  -20.9210  -29.8500   21.7440 H   0  0  0  0  0  0  0  0  0  0  0  0
  -18.0290  -28.1190   22.9370 C   0  0  0  0  0  0  0  0  0  0  0  0
  -20.5890  -28.3600   23.2040 C   0  0  0  0  0  3  0  0  0  0  0  0
  -20.6810  -26.9280   22.6270 C   0  0  0  0  0  2  0  0  0  0  0  0
  -19.5750  -26.6120   21.6150 C   0  0  0  0  0  2  0  0  0  0  0  0
  -18.1950  -26.7670   22.2620 C   0  0  0  0  0  2  0  0  0  0  0  0
  -19.1540  -28.8730   23.3650 C   0  0  0  0  0  0  0  0  0  0  0  0
  -18.9440  -30.1380   23.9560 C   0  0  0  0  0  3  0  0  0  0  0  0
  -17.6440  -30.6490   24.1230 C   0  0  0  0  0  3  0  0  0  0  0  0
  -16.5340  -29.8920   23.7110 C   0  0  0  0  0  3  0  0  0  0  0  0
  -16.7270  -28.6280   23.1250 C   0  0  0  0  0  3  0  0  0  0  0  0
  -25.8780  -32.5230   23.8540 C   0  0  0  0  0  3  0  0  0  0  0  0
  -25.5690  -33.9210   24.1830 N   0  0  0  0  0  0  0  0  0  0  0  0
  -25.9040  -34.9730   23.4230 C   0  0  0  0  0  0  0  0  0  0  0  0
  -26.5760  -34.8690   22.3940 O   0  0  0  0  0  0  0  0  0  0  0  0
  -24.9730  -34.0770   24.9830 H   0  0  0  0  0  0  0  0  0  0  0  0
  -24.1780  -36.7650   23.0600 C   0  0  0  0  0  1  0  0  0  0  0  0
  -25.4140  -36.3620   23.8790 C   0  0  0  0  0  3  0  0  0  0  0  0
  -27.5460  -37.2440   24.7180 C   0  0  0  0  0  1  0  0  0  0  0  0
  -26.4490  -37.4140   23.7710 N   0  0  0  0  0  0  0  0  0  0  0  0
  -26.0420  -38.3340   23.9180 H   0  0  0  0  0  0  0  0  0  0  0  0
  -26.3970  -31.7520   25.1290 C   0  0  1  0  0  0  0  0  0  0  0  0
  -25.3060  -31.5140   26.1980 C   0  0  0  0  0  1  0  0  0  0  0  0
  -26.9800  -30.3750   24.7340 C   0  0  0  0  0  1  0  0  0  0  0  0
  -27.5490  -32.5470   25.7890 C   0  0  0  0  0  1  0  0  0  0  0  0
  -29.4920  -17.9520   20.2210 C   0  0  0  0  0  2  0  0  0  0  0  0
  -30.3860  -16.9820   21.0600 C   0  0  0  0  0  2  0  0  0  0  0  0
  -30.6640  -14.5190   20.5060 C   0  0  0  0  0  0  0  0  0  0  0  0
  -30.3740  -12.3500   19.3590 C   0  0  0  0  0  2  0  0  0  0  0  0
  -29.4350  -12.5460   18.1510 C   0  0  0  0  0  2  0  0  0  0  0  0
  -27.9610  -12.4000   18.5790 C   0  0  0  0  0  2  0  0  0  0  0  0
  -27.6180  -13.2380   19.8410 C   0  0  0  0  0  3  0  0  0  0  0  0
  -28.6720  -13.0300   20.9520 C   0  0  0  0  0  2  0  0  0  0  0  0
  -29.9930  -13.3390   20.3820 N   0  0  0  0  0  0  0  0  0  0  0  0
  -31.7970  -14.6850   20.0480 O   0  0  0  0  0  0  0  0  0  0  0  0
  -29.9590  -15.5570   21.0110 N   0  0  0  0  0  0  0  0  0  0  0  0
  -29.0340  -15.3430   21.3520 H   0  0  0  0  0  0  0  0  0  0  0  0
  -25.2170  -13.8370   20.5430 C   0  0  0  0  0  0  0  0  0  0  0  0
  -24.1490  -13.0630   20.9100 C   0  0  0  0  0  0  0  0  0  0  0  0
  -24.6130  -11.7130   20.8820 C   0  0  0  0  0  0  0  0  0  0  0  0
  -26.2640  -12.9590   20.3160 N   0  0  0  0  0  0  0  0  0  0  0  0
  -25.9050  -11.6760   20.5780 N   0  0  0  0  0  0  0  0  0  0  0  0
  -23.8890  -10.4490   21.0700 C   0  0  0  0  0  0  0  0  0  0  0  0
  -24.3310   -9.4750   21.9920 C   0  0  0  0  0  3  0  0  0  0  0  0
  -23.6070   -8.2760   22.1690 C   0  0  0  0  0  3  0  0  0  0  0  0
  -22.4280   -8.0420   21.4220 C   0  0  0  0  0  0  0  0  0  0  0  0
  -22.0060   -9.0050   20.4890 C   0  0  0  0  0  3  0  0  0  0  0  0
  -22.7290  -10.1950   20.3110 C   0  0  0  0  0  3  0  0  0  0  0  0
  -21.6750   -6.8970   21.5090 O   0  0  0  0  0  0  0  0  0  0  0  0
  -21.6470   -6.1390   22.6520 C   0  0  0  0  0  0  0  0  0  0  0  0
  -21.2500   -6.6780   23.8950 C   0  0  0  0  0  3  0  0  0  0  0  0
  -21.1690   -5.8470   25.0300 C   0  0  0  0  0  3  0  0  0  0  0  0
  -21.4750   -4.4770   24.9240 C   0  0  0  0  0  0  0  0  0  0  0  0
  -21.8630   -3.9360   23.6850 C   0  0  0  0  0  3  0  0  0  0  0  0
  -21.9470   -4.7640   22.5520 C   0  0  0  0  0  0  0  0  0  0  0  0
  -22.3020   -4.2340   21.3570 F   0  0  0  0  0  0  0  0  0  0  0  0
  -21.3890   -3.6760   26.0110 F   0  0  0  0  0  0  0  0  0  0  0  0
  -22.7500  -13.5380   21.1780 C   0  0  0  0  0  0  0  0  0  0  0  0
  -22.0210  -12.8390   22.0410 N   0  0  0  0  0  0  0  0  0  0  0  0
  -22.3120  -14.5640   20.6580 O   0  0  0  0  0  0  0  0  0  0  0  0
  -22.3880  -12.0100   22.4830 H   0  0  0  0  0  0  0  0  0  0  0  0
  -21.0820  -13.1390   22.2630 H   0  0  0  0  0  0  0  0  0  0  0  0
  -25.3790  -15.2080   20.3640 N   0  0  0  0  0  0  0  0  0  0  0  0
  -24.6080  -15.8600   20.4630 H   0  0  0  0  0  0  0  0  0  0  0  0
  -26.2260  -15.6460   20.0240 H   0  0  0  0  0  0  0  0  0  0  0  0
  2  9  1  0
  2  1  2  0
  3  2  1  0
  4  1  1  0
  4 53  1  0
  5  3  2  0
  5  8  1  0
  6  3  1  0
  7  5  1  0
  8  4  2  0
  9 10  2  0
 10 11  1  0
 12 11  1  0
 13 24  2  0
 14 12  1  0
 14 19  1  0
 15 23  1  0
 15 25  1  0
 16 22  1  0
 16 18  1  0
 17 23  1  0
 18 17  1  0
 19 18  2  0
 20 14  2  0
 21 20  1  0
 21 16  2  0
 22 15  1  0
 23 13  1  0
 25 27  2  0
 26 25  1  0
 28 26  1  0
 29 38  2  0
 29 34  1  0
 30 26  1  0
 30 34  1  0
 31 30  1  0
 32 33  1  0
 32 31  1  0
 33 29  1  0
 34 35  2  0
 35 36  1  0
 37 36  2  0
 38 37  1  0
 39 13  1  0
 39 40  1  0
 39 49  1  0
 40 43  1  0
 41 45  1  0
 41 40  1  0
 42 41  2  0
 45 44  1  0
 47 45  1  0
 47 48  1  0
 47 46  1  0
 49 52  1  1
 49 50  1  0
 51 49  1  0
 53 54  1  0
 55 63  1  0
 56 61  1  0
 57 58  1  0
 57 56  1  0
 59 58  1  0
 59 68  1  0
 59 60  1  0
 61 55  1  0
 61 60  1  0
 62 55  2  0
 63 54  1  0
 63 64  1  0
 65 66  2  0
 66 85  1  0
 67 66  1  0
 67 70  1  0
 68 65  1  0
 68 69  1  0
 69 67  2  0
 70 71  1  0
 71 72  2  0
 73 76  1  0
 73 72  1  0
 74 73  2  0
 75 74  1  0
 75 70  2  0
 76 77  1  0
 77 78  1  0
 78 79  2  0
 80 79  1  0
 80 84  1  0
 81 80  2  0
 82 77  2  0
 82 81  1  0
 83 82  1  0
 85 86  1  0
 86 89  1  0
 86 88  1  0
 87 85  2  0
 90 91  1  0
 90 65  1  0
 92 90  1  0
M  ISO  4  11 101  12 101  55 100  63 100
M  END
>  <TORSDO>  (58) 
F 21

>  <SCORE>  (58) 
-13.547

>  <name>  (58) 
57

>  <ligand_id>  (58) 
57

>  <original_smiles>  (58) 
[H]c1c([H])c([H])c2c(c1[H])C([H])([H])C([H])([H])C([H])([H])C2([H])N([H])C(=O)C1([H])N(C(=O)C([H])(N([H])C(=O)C([H])(N([H])C([H])([H])[H])C([H])([H])[H])C(C([H])([H])[H])(C([H])([H])[H])C([H])([H])[H])C([H])([H])c2c([H])c(OC([H])([H])C([H])([H])C([H])([H])c3c([H])c(C([H])([H])C([H])([H])N([H])C(=O)N4C([H])([H])C([H])([H])C([H])([H])C([H])(n5nc(-c6c([H])c([H])c(Oc7c([H])c([H])c(F)c([H])c7F)c([H])c6[H])c(C(=O)N([H])[H])c5N([H])[H])C4([H])[H])nc(C([H])([H])[H])c3C([H])([H])[H])c([H])c([H])c2C1([H])[H]

>  <smiles>  (58) 
[H]c1c([H])c([H])c2c(c1[H])C([H])([H])C([H])([H])C([H])([H])C2([H])N([H])C(=O)C1([H])N(C(=O)C([H])(N([H])C(=O)C([H])(N([H])C([H])([H])[H])C([H])([H])[H])C(C([H])([H])[H])(C([H])([H])[H])C([H])([H])[H])C([H])([H])c2c([H])c(OC([H])([H])C([H])([H])C([H])([H])c3c([H])c(C([H])([H])C([H])([H])N([H])C(=O)N4C([H])([H])C([H])([H])C([H])([H])C([H])(n5nc(-c6c([H])c([H])c(Oc7c([H])c([H])c(F)c([H])c7F)c([H])c6[H])c(C(=O)N([H])[H])c5N([H])[H])C4([H])[H])nc(C([H])([H])[H])c3C([H])([H])[H])c([H])c([H])c2C1([H])[H]

$$$$
58:0:0
     RDKit          3D

 92100  0  0  1  0  0  0  0  0999 V2000
  -30.1520  -22.8550   18.6220 C   0  0  0  0  0  3  0  0  0  0  0  0
  -30.9820  -22.2980   17.6400 C   0  0  0  0  0  0  0  0  0  0  0  0
  -29.5090  -22.0900   19.6240 C   0  0  0  0  0  0  0  0  0  0  0  0
  -31.2030  -20.9170   17.6860 C   0  0  0  0  0  0  0  0  0  0  0  0
  -29.8100  -20.5900   19.5900 C   0  0  0  0  0  0  0  0  0  0  0  0
  -32.1140  -20.1860   16.7120 C   0  0  0  0  0  1  0  0  0  0  0  0
  -30.6350  -20.1380   18.6170 N   0  0  0  0  0  0  0  0  0  0  0  0
  -33.0470  -23.5480   16.7690 C   0  0  0  0  0  1  0  0  0  0  0  0
  -31.5670  -23.1990   16.5560 C   0  0  0  0  0  2  0  0  0  0  0  0
  -28.6490  -23.1400   20.5460 C   0  0  0  0  0  2  0  0  0  0  0  0
  -27.9610  -24.6150   20.0060 C   0  0  0  0  0  2  0  0  0  0  0  0
  -28.2520  -26.1340   20.2670 O   0  0  0  0  0  0  0  0  0  0  0  0
  -24.6360  -31.8660   23.2280 C   0  0  0  0  0  0  0  0  0  0  0  0
  -27.2080  -27.1380   20.1860 C   0  0  0  0  0  0  0  0  0  0  0  0
  -23.4330  -30.4620   21.5970 C   0  0  0  0  0  3  0  0  0  0  0  0
  -24.8780  -28.8910   20.1650 C   0  0  0  0  0  0  0  0  0  0  0  0
  -25.9870  -30.7280   21.4250 C   0  0  0  0  0  2  0  0  0  0  0  0
  -26.0610  -29.3350   20.7710 C   0  0  0  0  0  0  0  0  0  0  0  0
  -27.2240  -28.4740   20.7670 C   0  0  0  0  0  3  0  0  0  0  0  0
  -26.0020  -26.8120   19.5250 C   0  0  0  0  0  3  0  0  0  0  0  0
  -24.8640  -27.6450   19.5230 C   0  0  0  0  0  3  0  0  0  0  0  0
  -23.6490  -29.7840   20.2180 C   0  0  0  0  0  2  0  0  0  0  0  0
  -24.7050  -31.0420   22.1370 N   0  0  0  0  0  0  0  0  0  0  0  0
  -23.5510  -32.1500   23.7580 O   0  0  0  0  0  0  0  0  0  0  0  0
  -22.7600  -29.4580   22.5660 C   0  0  0  0  0  0  0  0  0  0  0  0
  -21.4310  -29.2850   22.4470 N   0  0  0  0  0  0  0  0  0  0  0  0
  -23.4370  -28.8340   23.3880 O   0  0  0  0  0  0  0  0  0  0  0  0
  -20.9410  -29.8390   21.7570 H   0  0  0  0  0  0  0  0  0  0  0  0
  -18.0550  -28.0740   22.9620 C   0  0  0  0  0  0  0  0  0  0  0  0
  -20.6130  -28.3490   23.2240 C   0  0  0  0  0  3  0  0  0  0  0  0
  -20.7200  -26.9140   22.6570 C   0  0  0  0  0  2  0  0  0  0  0  0
  -19.6180  -26.5810   21.6460 C   0  0  0  0  0  2  0  0  0  0  0  0
  -18.2380  -26.7230   22.2920 C   0  0  0  0  0  2  0  0  0  0  0  0
  -19.1710  -28.8460   23.3850 C   0  0  0  0  0  0  0  0  0  0  0  0
  -18.9450  -30.1090   23.9740 C   0  0  0  0  0  3  0  0  0  0  0  0
  -17.6370  -30.6020   24.1430 C   0  0  0  0  0  3  0  0  0  0  0  0
  -16.5370  -29.8290   23.7350 C   0  0  0  0  0  3  0  0  0  0  0  0
  -16.7470  -28.5660   23.1520 C   0  0  0  0  0  3  0  0  0  0  0  0
  -25.9150  -32.5080   23.8460 C   0  0  0  0  0  3  0  0  0  0  0  0
  -25.5990  -33.9070   24.1770 N   0  0  0  0  0  0  0  0  0  0  0  0
  -25.9250  -34.9660   23.4230 C   0  0  0  0  0  0  0  0  0  0  0  0
  -26.5880  -34.8660   22.3880 O   0  0  0  0  0  0  0  0  0  0  0  0
  -25.0070  -34.0560   24.9820 H   0  0  0  0  0  0  0  0  0  0  0  0
  -24.1920  -36.7620   23.0880 C   0  0  0  0  0  1  0  0  0  0  0  0
  -25.4400  -36.3530   23.8890 C   0  0  0  0  0  3  0  0  0  0  0  0
  -27.5800  -37.2390   24.7080 C   0  0  0  0  0  1  0  0  0  0  0  0
  -26.4720  -37.4070   23.7720 N   0  0  0  0  0  0  0  0  0  0  0  0
  -26.0660  -38.3270   23.9240 H   0  0  0  0  0  0  0  0  0  0  0  0
  -26.4330  -31.7460   25.1290 C   0  0  1  0  0  0  0  0  0  0  0  0
  -25.3410  -31.5140   26.2000 C   0  0  0  0  0  1  0  0  0  0  0  0
  -27.0140  -30.3640   24.7510 C   0  0  0  0  0  1  0  0  0  0  0  0
  -27.5850  -32.5440   25.7830 C   0  0  0  0  0  1  0  0  0  0  0  0
  -29.3780  -19.1990   20.3800 C   0  0  0  0  0  3  0  0  0  0  0  0
  -30.1920  -17.7110   20.0790 C   0  0  0  0  0  3  0  0  0  0  0  0
  -30.5230  -14.9910   20.3180 C   0  0  0  0  0  0  0  0  0  0  0  0
  -30.3680  -12.6400   19.3790 C   0  0  0  0  0  2  0  0  0  0  0  0
  -29.4400  -12.6140   18.1430 C   0  0  0  0  0  2  0  0  0  0  0  0
  -27.9720  -12.4250   18.5670 C   0  0  0  0  0  2  0  0  0  0  0  0
  -27.5730  -13.3330   19.7600 C   0  0  0  0  0  3  0  0  0  0  0  0
  -28.6310  -13.3330   20.8850 C   0  0  0  0  0  2  0  0  0  0  0  0
  -29.9020  -13.7400   20.2740 N   0  0  0  0  0  0  0  0  0  0  0  0
  -31.7260  -15.0210   20.0350 O   0  0  0  0  0  0  0  0  0  0  0  0
  -29.7910  -16.2110   20.4470 N   0  0  0  0  0  0  0  0  0  0  0  0
  -28.8140  -16.0770   20.6590 H   0  0  0  0  0  0  0  0  0  0  0  0
  -25.1890  -13.9060   20.4870 C   0  0  0  0  0  0  0  0  0  0  0  0
  -24.1250  -13.1310   20.8530 C   0  0  0  0  0  0  0  0  0  0  0  0
  -24.5900  -11.7800   20.8300 C   0  0  0  0  0  0  0  0  0  0  0  0
  -26.2350  -13.0290   20.2560 N   0  0  0  0  0  0  0  0  0  0  0  0
  -25.8830  -11.7450   20.5270 N   0  0  0  0  0  0  0  0  0  0  0  0
  -23.8600  -10.5200   21.0220 C   0  0  0  0  0  0  0  0  0  0  0  0
  -24.2850   -9.5550   21.9610 C   0  0  0  0  0  3  0  0  0  0  0  0
  -23.5540   -8.3600   22.1420 C   0  0  0  0  0  3  0  0  0  0  0  0
  -22.3840   -8.1210   21.3830 C   0  0  0  0  0  0  0  0  0  0  0  0
  -21.9780   -9.0740   20.4330 C   0  0  0  0  0  3  0  0  0  0  0  0
  -22.7090  -10.2600   20.2510 C   0  0  0  0  0  3  0  0  0  0  0  0
  -21.6270   -6.9790   21.4710 O   0  0  0  0  0  0  0  0  0  0  0  0
  -21.5720   -6.2380   22.6240 C   0  0  0  0  0  0  0  0  0  0  0  0
  -21.1470   -6.7980   23.8480 C   0  0  0  0  0  3  0  0  0  0  0  0
  -21.0400   -5.9860   24.9950 C   0  0  0  0  0  3  0  0  0  0  0  0
  -21.3500   -4.6140   24.9180 C   0  0  0  0  0  0  0  0  0  0  0  0
  -21.7690   -4.0540   23.6990 C   0  0  0  0  0  3  0  0  0  0  0  0
  -21.8770   -4.8640   22.5540 C   0  0  0  0  0  0  0  0  0  0  0  0
  -22.2630   -4.3160   21.3770 F   0  0  0  0  0  0  0  0  0  0  0  0
  -21.2400   -3.8300   26.0160 F   0  0  0  0  0  0  0  0  0  0  0  0
  -22.7260  -13.6100   21.1080 C   0  0  0  0  0  0  0  0  0  0  0  0
  -21.9910  -12.9180   21.9720 N   0  0  0  0  0  0  0  0  0  0  0  0
  -22.2950  -14.6330   20.5770 O   0  0  0  0  0  0  0  0  0  0  0  0
  -22.3510  -12.0900   22.4230 H   0  0  0  0  0  0  0  0  0  0  0  0
  -21.0520  -13.2230   22.1870 H   0  0  0  0  0  0  0  0  0  0  0  0
  -25.3480  -15.2770   20.3040 N   0  0  0  0  0  0  0  0  0  0  0  0
  -24.5710  -15.9210   20.4000 H   0  0  0  0  0  0  0  0  0  0  0  0
  -26.1850  -15.7170   19.9430 H   0  0  0  0  0  0  0  0  0  0  0  0
  1  3  1  0
  2  4  1  0
  2  1  2  0
  3 10  1  0
  4  7  2  0
  5  3  2  0
  5 53  1  0
  6  4  1  0
  7  5  1  0
  9  8  1  0
  9  2  1  0
 11 12  1  0
 11 10  1  0
 13 24  2  0
 14 12  1  0
 14 19  1  0
 15 23  1  0
 15 25  1  0
 16 22  1  0
 16 18  1  0
 17 23  1  0
 18 17  1  0
 19 18  2  0
 20 14  2  0
 21 20  1  0
 21 16  2  0
 22 15  1  0
 23 13  1  0
 25 27  2  0
 26 25  1  0
 28 26  1  0
 29 38  2  0
 29 34  1  0
 30 26  1  0
 30 34  1  0
 31 30  1  0
 32 33  1  0
 32 31  1  0
 33 29  1  0
 34 35  2  0
 35 36  1  0
 37 36  2  0
 38 37  1  0
 39 13  1  0
 39 40  1  0
 39 49  1  0
 40 43  1  0
 41 45  1  0
 41 40  1  0
 42 41  2  0
 45 44  1  0
 47 45  1  0
 47 48  1  0
 47 46  1  0
 49 52  1  1
 49 50  1  0
 51 49  1  0
 54 53  2  0
 54 63  1  0
 55 63  1  0
 56 61  1  0
 57 58  1  0
 57 56  1  0
 59 58  1  0
 59 68  1  0
 59 60  1  0
 61 55  1  0
 61 60  1  0
 62 55  2  0
 63 64  1  0
 65 66  2  0
 66 85  1  0
 67 66  1  0
 67 70  1  0
 68 65  1  0
 68 69  1  0
 69 67  2  0
 70 71  1  0
 71 72  2  0
 73 76  1  0
 73 72  1  0
 74 73  2  0
 75 74  1  0
 75 70  2  0
 76 77  1  0
 77 78  1  0
 78 79  2  0
 80 79  1  0
 80 84  1  0
 81 80  2  0
 82 77  2  0
 82 81  1  0
 83 82  1  0
 85 86  1  0
 86 89  1  0
 86 88  1  0
 87 85  2  0
 90 91  1  0
 90 65  1  0
 92 90  1  0
M  ISO  4  11 101  12 101  55 100  63 100
M  END
>  <TORSDO>  (59) 
F 21

>  <SCORE>  (59) 
-14.845

>  <name>  (59) 
58

>  <ligand_id>  (59) 
58

>  <original_smiles>  (59) 
[H]c1c([H])c([H])c2c(c1[H])C([H])([H])C([H])([H])C([H])([H])C2([H])N([H])C(=O)C1([H])N(C(=O)C([H])(N([H])C(=O)C([H])(N([H])C([H])([H])[H])C([H])([H])[H])C(C([H])([H])[H])(C([H])([H])[H])C([H])([H])[H])C([H])([H])c2c([H])c(OC([H])([H])C([H])([H])c3c(C([H])([H])C([H])([H])N([H])C(=O)N4C([H])([H])C([H])([H])C([H])([H])C([H])(n5nc(-c6c([H])c([H])c(Oc7c([H])c([H])c(F)c([H])c7F)c([H])c6[H])c(C(=O)N([H])[H])c5N([H])[H])C4([H])[H])nc(C([H])([H])[H])c(C([H])([H])C([H])([H])[H])c3[H])c([H])c([H])c2C1([H])[H]

>  <smiles>  (59) 
[H]c1c([H])c([H])c2c(c1[H])C([H])([H])C([H])([H])C([H])([H])C2([H])N([H])C(=O)C1([H])N(C(=O)C([H])(N([H])C(=O)C([H])(N([H])C([H])([H])[H])C([H])([H])[H])C(C([H])([H])[H])(C([H])([H])[H])C([H])([H])[H])C([H])([H])c2c([H])c(OC([H])([H])C([H])([H])c3c(C([H])([H])C([H])([H])N([H])C(=O)N4C([H])([H])C([H])([H])C([H])([H])C([H])(n5nc(-c6c([H])c([H])c(Oc7c([H])c([H])c(F)c([H])c7F)c([H])c6[H])c(C(=O)N([H])[H])c5N([H])[H])C4([H])[H])nc(C([H])([H])[H])c(C([H])([H])C([H])([H])[H])c3[H])c([H])c([H])c2C1([H])[H]

$$$$
59:0:0
     RDKit          3D

 91 99  0  0  1  0  0  0  0  0999 V2000
  -27.0510  -21.2140   17.7730 C   0  0  0  0  0  2  0  0  0  0  0  0
  -26.9620  -22.3640   18.5010 C   0  0  0  0  0  3  0  0  0  0  0  0
  -28.5030  -21.0420   19.4570 C   0  0  0  0  0  3  0  0  0  0  0  0
  -25.9060  -23.4050   18.3490 C   0  0  0  0  0  1  0  0  0  0  0  0
  -27.9960  -22.3530   19.4380 N   0  0  0  0  0  0  0  0  0  0  0  0
  -27.9900  -20.4520   18.3730 N   0  0  0  0  0  0  0  0  0  0  0  0
  -28.2220  -19.5110   18.0810 H   0  0  0  0  0  0  0  0  0  0  0  0
  -29.4460  -20.1170   20.3080 C   0  0  0  0  0  2  0  0  0  0  0  0
  -29.2070  -18.4990   20.1700 C   0  0  0  0  0  3  0  0  0  0  0  0
  -30.2440  -17.3760   20.6990 C   0  0  0  0  0  3  0  0  0  0  0  0
  -30.6090  -14.7630   20.4810 C   0  0  0  0  0  0  0  0  0  0  0  0
  -30.4230  -12.4870   19.4750 C   0  0  0  0  0  2  0  0  0  0  0  0
  -29.4930  -12.5400   18.2440 C   0  0  0  0  0  2  0  0  0  0  0  0
  -28.0200  -12.3660   18.6640 C   0  0  0  0  0  2  0  0  0  0  0  0
  -27.6290  -13.2550   19.8730 C   0  0  0  0  0  3  0  0  0  0  0  0
  -28.6810  -13.1860   21.0010 C   0  0  0  0  0  2  0  0  0  0  0  0
  -29.9780  -13.5420   20.4110 N   0  0  0  0  0  0  0  0  0  0  0  0
  -31.8040  -14.8590   20.1940 O   0  0  0  0  0  0  0  0  0  0  0  0
  -29.8360  -15.8990   20.6580 N   0  0  0  0  0  0  0  0  0  0  0  0
  -28.8570  -15.7110   20.8210 H   0  0  0  0  0  0  0  0  0  0  0  0
  -25.2290  -13.8220   20.5740 C   0  0  0  0  0  0  0  0  0  0  0  0
  -24.1670  -13.0380   20.9320 C   0  0  0  0  0  0  0  0  0  0  0  0
  -24.6430  -11.6920   20.9080 C   0  0  0  0  0  0  0  0  0  0  0  0
  -26.2850  -12.9520   20.3530 N   0  0  0  0  0  0  0  0  0  0  0  0
  -25.9390  -11.6670   20.6200 N   0  0  0  0  0  0  0  0  0  0  0  0
  -23.9260  -10.4230   21.0910 C   0  0  0  0  0  0  0  0  0  0  0  0
  -24.3630   -9.4540   22.0200 C   0  0  0  0  0  3  0  0  0  0  0  0
  -23.6440   -8.2510   22.1890 C   0  0  0  0  0  3  0  0  0  0  0  0
  -22.4750   -8.0080   21.4310 C   0  0  0  0  0  0  0  0  0  0  0  0
  -22.0560   -8.9660   20.4910 C   0  0  0  0  0  3  0  0  0  0  0  0
  -22.7770  -10.1600   20.3200 C   0  0  0  0  0  3  0  0  0  0  0  0
  -21.7290   -6.8580   21.5130 O   0  0  0  0  0  0  0  0  0  0  0  0
  -21.6890   -6.1040   22.6580 C   0  0  0  0  0  0  0  0  0  0  0  0
  -21.2620   -6.6430   23.8910 C   0  0  0  0  0  3  0  0  0  0  0  0
  -21.1700   -5.8140   25.0280 C   0  0  0  0  0  3  0  0  0  0  0  0
  -21.4970   -4.4480   24.9330 C   0  0  0  0  0  0  0  0  0  0  0  0
  -21.9140   -3.9080   23.7040 C   0  0  0  0  0  3  0  0  0  0  0  0
  -22.0060   -4.7330   22.5700 C   0  0  0  0  0  0  0  0  0  0  0  0
  -22.3900   -4.2020   21.3840 F   0  0  0  0  0  0  0  0  0  0  0  0
  -21.4010   -3.6500   26.0230 F   0  0  0  0  0  0  0  0  0  0  0  0
  -22.7620  -13.5020   21.1850 C   0  0  0  0  0  0  0  0  0  0  0  0
  -22.0290  -12.8000   22.0430 N   0  0  0  0  0  0  0  0  0  0  0  0
  -22.3220  -14.5220   20.6570 O   0  0  0  0  0  0  0  0  0  0  0  0
  -22.3950  -11.9760   22.4950 H   0  0  0  0  0  0  0  0  0  0  0  0
  -21.0860  -13.0950   22.2530 H   0  0  0  0  0  0  0  0  0  0  0  0
  -25.3810  -15.1950   20.3910 N   0  0  0  0  0  0  0  0  0  0  0  0
  -24.6010  -15.8390   20.4800 H   0  0  0  0  0  0  0  0  0  0  0  0
  -26.2240  -15.6380   20.0470 H   0  0  0  0  0  0  0  0  0  0  0  0
  -28.2860  -23.6050   20.3110 C   0  0  0  0  0  3  0  0  0  0  0  0
  -28.4100  -25.0660   19.5790 C   0  0  0  0  0  3  0  0  0  0  0  0
  -28.3160  -26.4130   20.2480 O   0  0  0  0  0  0  0  0  0  0  0  0
  -24.5980  -31.8890   23.2280 C   0  0  0  0  0  0  0  0  0  0  0  0
  -27.1960  -27.2780   20.1740 C   0  0  0  0  0  0  0  0  0  0  0  0
  -23.3920  -30.4910   21.5930 C   0  0  0  0  0  3  0  0  0  0  0  0
  -24.8360  -28.9280   20.1720 C   0  0  0  0  0  0  0  0  0  0  0  0
  -25.9370  -30.7860   21.4160 C   0  0  0  0  0  2  0  0  0  0  0  0
  -26.0090  -29.4040   20.7680 C   0  0  0  0  0  0  0  0  0  0  0  0
  -27.1860  -28.5890   20.7660 C   0  0  0  0  0  3  0  0  0  0  0  0
  -25.9960  -26.8750   19.5520 C   0  0  0  0  0  3  0  0  0  0  0  0
  -24.8330  -27.6680   19.5570 C   0  0  0  0  0  3  0  0  0  0  0  0
  -23.6050  -29.8120   20.2150 C   0  0  0  0  0  2  0  0  0  0  0  0
  -24.6620  -31.0740   22.1350 N   0  0  0  0  0  0  0  0  0  0  0  0
  -23.5150  -32.1740   23.7600 O   0  0  0  0  0  0  0  0  0  0  0  0
  -22.7240  -29.4790   22.5560 C   0  0  0  0  0  0  0  0  0  0  0  0
  -21.3970  -29.3020   22.4290 N   0  0  0  0  0  0  0  0  0  0  0  0
  -23.4000  -28.8550   23.3790 O   0  0  0  0  0  0  0  0  0  0  0  0
  -20.9100  -29.8610   21.7410 H   0  0  0  0  0  0  0  0  0  0  0  0
  -18.0180  -28.1050   22.9280 C   0  0  0  0  0  0  0  0  0  0  0  0
  -20.5760  -28.3690   23.2030 C   0  0  0  0  0  3  0  0  0  0  0  0
  -20.6790  -26.9340   22.6370 C   0  0  0  0  0  2  0  0  0  0  0  0
  -19.5810  -26.6030   21.6220 C   0  0  0  0  0  2  0  0  0  0  0  0
  -18.1980  -26.7520   22.2620 C   0  0  0  0  0  2  0  0  0  0  0  0
  -19.1360  -28.8710   23.3550 C   0  0  0  0  0  0  0  0  0  0  0  0
  -18.9150  -30.1380   23.9400 C   0  0  0  0  0  3  0  0  0  0  0  0
  -17.6090  -30.6390   24.1000 C   0  0  0  0  0  3  0  0  0  0  0  0
  -16.5060  -29.8710   23.6880 C   0  0  0  0  0  3  0  0  0  0  0  0
  -16.7120  -28.6060   23.1100 C   0  0  0  0  0  3  0  0  0  0  0  0
  -25.8820  -32.5230   23.8470 C   0  0  0  0  0  3  0  0  0  0  0  0
  -25.5750  -33.9230   24.1730 N   0  0  0  0  0  0  0  0  0  0  0  0
  -25.9110  -34.9750   23.4140 C   0  0  0  0  0  0  0  0  0  0  0  0
  -26.5800  -34.8690   22.3820 O   0  0  0  0  0  0  0  0  0  0  0  0
  -24.9820  -34.0790   24.9740 H   0  0  0  0  0  0  0  0  0  0  0  0
  -24.1900  -36.7760   23.0560 C   0  0  0  0  0  1  0  0  0  0  0  0
  -25.4260  -36.3650   23.8700 C   0  0  0  0  0  3  0  0  0  0  0  0
  -27.5610  -37.2410   24.7110 C   0  0  0  0  0  1  0  0  0  0  0  0
  -26.4630  -37.4150   23.7630 N   0  0  0  0  0  0  0  0  0  0  0  0
  -26.0600  -38.3350   23.9110 H   0  0  0  0  0  0  0  0  0  0  0  0
  -26.3980  -31.7590   25.1270 C   0  0  1  0  0  0  0  0  0  0  0  0
  -25.3060  -31.5280   26.1980 C   0  0  0  0  0  1  0  0  0  0  0  0
  -26.9790  -30.3770   24.7460 C   0  0  0  0  0  1  0  0  0  0  0  0
  -27.5490  -32.5550   25.7860 C   0  0  0  0  0  1  0  0  0  0  0  0
  1  6  1  0
  1  2  1  0
  2  4  1  0
  2  5  1  0
  3  8  1  0
  5  3  1  0
  5 49  1  0
  6  3  1  0
  7  6  1  0
  9  8  1  0
  9 10  2  0
 11 19  1  0
 12 17  1  0
 13 14  1  0
 13 12  1  0
 15 14  1  0
 15 24  1  0
 15 16  1  0
 17 11  1  0
 17 16  1  0
 18 11  2  0
 19 10  1  0
 19 20  1  0
 21 22  2  0
 22 41  1  0
 23 22  1  0
 23 26  1  0
 24 21  1  0
 24 25  1  0
 25 23  2  0
 26 27  1  0
 27 28  2  0
 29 32  1  0
 29 28  1  0
 30 29  2  0
 31 30  1  0
 31 26  2  0
 32 33  1  0
 33 34  1  0
 34 35  2  0
 36 35  1  0
 36 40  1  0
 37 36  2  0
 38 33  2  0
 38 37  1  0
 39 38  1  0
 41 42  1  0
 42 45  1  0
 42 44  1  0
 43 41  2  0
 46 47  1  0
 46 21  1  0
 48 46  1  0
 50 51  1  0
 50 49  2  0
 52 63  2  0
 53 51  1  0
 53 58  1  0
 54 62  1  0
 54 64  1  0
 55 61  1  0
 55 57  1  0
 56 62  1  0
 57 56  1  0
 58 57  2  0
 59 60  1  0
 59 53  2  0
 60 55  2  0
 61 54  1  0
 62 52  1  0
 64 66  2  0
 65 64  1  0
 67 65  1  0
 68 77  2  0
 68 73  1  0
 69 65  1  0
 69 73  1  0
 70 69  1  0
 71 72  1  0
 71 70  1  0
 72 68  1  0
 73 74  2  0
 74 75  1  0
 76 75  2  0
 77 76  1  0
 78 52  1  0
 78 79  1  0
 78 88  1  0
 79 82  1  0
 80 84  1  0
 80 79  1  0
 81 80  2  0
 84 83  1  0
 86 84  1  0
 86 87  1  0
 86 85  1  0
 88 91  1  1
 88 89  1  0
 90 88  1  0
M  ISO  4  11 100  19 100  50 101  51 101
M  END
>  <TORSDO>  (60) 
F 21

>  <SCORE>  (60) 
-13.497

>  <name>  (60) 
59

>  <ligand_id>  (60) 
59

>  <original_smiles>  (60) 
[H]c1c([H])c([H])c2c(c1[H])C([H])([H])C([H])([H])C([H])([H])C2([H])N([H])C(=O)C1([H])N(C(=O)C([H])(N([H])C(=O)C([H])(N([H])C([H])([H])[H])C([H])([H])[H])C(C([H])([H])[H])(C([H])([H])[H])C([H])([H])[H])C([H])([H])c2c([H])c(OC([H])([H])C([H])([H])n3c(C([H])([H])[H])c([H])[n+]([H])c3C([H])([H])C([H])([H])C([H])([H])N([H])C(=O)N3C([H])([H])C([H])([H])C([H])([H])C([H])(n4nc(-c5c([H])c([H])c(Oc6c([H])c([H])c(F)c([H])c6F)c([H])c5[H])c(C(=O)N([H])[H])c4N([H])[H])C3([H])[H])c([H])c([H])c2C1([H])[H]

>  <smiles>  (60) 
[H]c1c([H])c([H])c2c(c1[H])C([H])([H])C([H])([H])C([H])([H])C2([H])N([H])C(=O)C1([H])N(C(=O)C([H])(N([H])C(=O)C([H])(N([H])C([H])([H])[H])C([H])([H])[H])C(C([H])([H])[H])(C([H])([H])[H])C([H])([H])[H])C([H])([H])c2c([H])c(OC([H])([H])C([H])([H])n3c(C([H])([H])[H])c([H])[n+]([H])c3C([H])([H])C([H])([H])C([H])([H])N([H])C(=O)N3C([H])([H])C([H])([H])C([H])([H])C([H])(n4nc(-c5c([H])c([H])c(Oc6c([H])c([H])c(F)c([H])c6F)c([H])c5[H])c(C(=O)N([H])[H])c4N([H])[H])C3([H])[H])c([H])c([H])c2C1([H])[H]

$$$$
60:0:0
     RDKit          3D

 95103  0  0  1  0  0  0  0  0999 V2000
  -27.9700  -20.4850   19.0030 C   0  0  0  0  0  3  0  0  0  0  0  0
  -27.8000  -19.3130   18.3190 C   0  0  0  0  0  0  0  0  0  0  0  0
  -29.2820  -18.9210   19.9730 C   0  0  0  0  0  3  0  0  0  0  0  0
  -28.9260  -20.3270   19.9750 N   0  0  0  0  0  0  0  0  0  0  0  0
  -28.6030  -18.4060   18.9420 N   0  0  0  0  0  0  0  0  0  0  0  0
  -28.7190  -17.4450   18.6450 H   0  0  0  0  0  0  0  0  0  0  0  0
  -31.7000  -18.1370   20.3040 C   0  0  0  0  0  1  0  0  0  0  0  0
  -30.2440  -17.8020   20.6680 C   0  0  0  0  0  3  0  0  0  0  0  0
  -30.7010  -15.0210   20.3250 C   0  0  0  0  0  0  0  0  0  0  0  0
  -30.5620  -12.6490   19.4070 C   0  0  0  0  0  2  0  0  0  0  0  0
  -29.6540  -12.5770   18.1570 C   0  0  0  0  0  2  0  0  0  0  0  0
  -28.1800  -12.3920   18.5630 C   0  0  0  0  0  2  0  0  0  0  0  0
  -27.7580  -13.3410   19.7160 C   0  0  0  0  0  3  0  0  0  0  0  0
  -28.7930  -13.3780   20.8590 C   0  0  0  0  0  2  0  0  0  0  0  0
  -30.0750  -13.7730   20.2630 N   0  0  0  0  0  0  0  0  0  0  0  0
  -31.9080  -15.0400   20.0720 O   0  0  0  0  0  0  0  0  0  0  0  0
  -29.9460  -16.2320   20.4760 N   0  0  0  0  0  0  0  0  0  0  0  0
  -28.9690  -16.0240   20.6070 H   0  0  0  0  0  0  0  0  0  0  0  0
  -25.3800  -13.9560   20.4300 C   0  0  0  0  0  0  0  0  0  0  0  0
  -24.3020  -13.2000   20.7940 C   0  0  0  0  0  0  0  0  0  0  0  0
  -24.7480  -11.8440   20.7790 C   0  0  0  0  0  0  0  0  0  0  0  0
  -26.4120  -13.0620   20.2020 N   0  0  0  0  0  0  0  0  0  0  0  0
  -26.0420  -11.7850   20.4830 N   0  0  0  0  0  0  0  0  0  0  0  0
  -24.0010  -10.5930   20.9720 C   0  0  0  0  0  0  0  0  0  0  0  0
  -24.4000   -9.6340   21.9290 C   0  0  0  0  0  3  0  0  0  0  0  0
  -23.6550   -8.4490   22.1080 C   0  0  0  0  0  3  0  0  0  0  0  0
  -22.4950   -8.2160   21.3310 C   0  0  0  0  0  0  0  0  0  0  0  0
  -22.1150   -9.1630   20.3640 C   0  0  0  0  0  3  0  0  0  0  0  0
  -22.8620  -10.3390   20.1840 C   0  0  0  0  0  3  0  0  0  0  0  0
  -21.7220   -7.0830   21.4210 O   0  0  0  0  0  0  0  0  0  0  0  0
  -21.6200   -6.3700   22.5880 C   0  0  0  0  0  0  0  0  0  0  0  0
  -21.1570   -6.9600   23.7840 C   0  0  0  0  0  3  0  0  0  0  0  0
  -21.0030   -6.1740   24.9430 C   0  0  0  0  0  3  0  0  0  0  0  0
  -21.3020   -4.7990   24.9060 C   0  0  0  0  0  0  0  0  0  0  0  0
  -21.7580   -4.2090   23.7130 C   0  0  0  0  0  3  0  0  0  0  0  0
  -21.9140   -4.9920   22.5570 C   0  0  0  0  0  0  0  0  0  0  0  0
  -22.3340   -4.4140   21.4070 F   0  0  0  0  0  0  0  0  0  0  0  0
  -21.1450   -4.0410   26.0170 F   0  0  0  0  0  0  0  0  0  0  0  0
  -22.9080  -13.7030   21.0380 C   0  0  0  0  0  0  0  0  0  0  0  0
  -22.1550  -13.0280   21.8980 N   0  0  0  0  0  0  0  0  0  0  0  0
  -22.4970  -14.7290   20.4980 O   0  0  0  0  0  0  0  0  0  0  0  0
  -22.5010  -12.1990   22.3590 H   0  0  0  0  0  0  0  0  0  0  0  0
  -21.2190  -13.3480   22.1030 H   0  0  0  0  0  0  0  0  0  0  0  0
  -25.5630  -15.3250   20.2450 N   0  0  0  0  0  0  0  0  0  0  0  0
  -24.7900  -15.9770   20.3340 H   0  0  0  0  0  0  0  0  0  0  0  0
  -26.3960  -15.7540   19.8710 H   0  0  0  0  0  0  0  0  0  0  0  0
  -26.9690  -18.9740   17.1210 C   0  0  0  0  0  2  0  0  0  0  0  0
  -26.2230  -20.1980   16.5470 C   0  0  0  0  0  2  0  0  0  0  0  0
  -24.6860  -20.5720   18.6090 C   0  0  0  0  0  1  0  0  0  0  0  0
  -24.1740  -21.6600   16.3970 C   0  0  0  0  0  1  0  0  0  0  0  0
  -24.7930  -20.4300   17.0790 C   0  0  0  0  0  3  0  0  0  0  0  0
  -29.2260  -21.6830   20.7890 C   0  0  0  0  0  2  0  0  0  0  0  0
  -29.0650  -23.2710   20.1260 C   0  0  0  0  0  3  0  0  0  0  0  0
  -28.2690  -24.6520   20.7280 C   0  0  0  0  0  3  0  0  0  0  0  0
  -28.4650  -26.1700   20.3480 O   0  0  0  0  0  0  0  0  0  0  0  0
  -24.5620  -31.7900   23.1750 C   0  0  0  0  0  0  0  0  0  0  0  0
  -27.3860  -27.1320   20.2810 C   0  0  0  0  0  0  0  0  0  0  0  0
  -23.4700  -30.3690   21.4790 C   0  0  0  0  0  3  0  0  0  0  0  0
  -25.0230  -28.8320   20.1240 C   0  0  0  0  0  0  0  0  0  0  0  0
  -26.0230  -30.7020   21.4290 C   0  0  0  0  0  2  0  0  0  0  0  0
  -26.1630  -29.3100   20.7820 C   0  0  0  0  0  0  0  0  0  0  0  0
  -27.3470  -28.4790   20.8370 C   0  0  0  0  0  3  0  0  0  0  0  0
  -26.2200  -26.7610   19.5810 C   0  0  0  0  0  3  0  0  0  0  0  0
  -25.0660  -27.5720   19.5070 C   0  0  0  0  0  3  0  0  0  0  0  0
  -23.7740  -29.7020   20.1110 C   0  0  0  0  0  2  0  0  0  0  0  0
  -24.7020  -30.9760   22.0830 N   0  0  0  0  0  0  0  0  0  0  0  0
  -23.4490  -32.0440   23.6590 O   0  0  0  0  0  0  0  0  0  0  0  0
  -22.7720  -29.3450   22.4090 C   0  0  0  0  0  0  0  0  0  0  0  0
  -21.4460  -29.1800   22.2590 N   0  0  0  0  0  0  0  0  0  0  0  0
  -23.4280  -28.6990   23.2320 O   0  0  0  0  0  0  0  0  0  0  0  0
  -20.9710  -29.7520   21.5750 H   0  0  0  0  0  0  0  0  0  0  0  0
  -18.0470  -28.0150   22.7240 C   0  0  0  0  0  0  0  0  0  0  0  0
  -20.6080  -28.2310   22.9990 C   0  0  0  0  0  3  0  0  0  0  0  0
  -20.6910  -26.8180   22.3760 C   0  0  0  0  0  2  0  0  0  0  0  0
  -19.5840  -26.5460   21.3530 C   0  0  0  0  0  2  0  0  0  0  0  0
  -18.2040  -26.6880   22.0010 C   0  0  0  0  0  2  0  0  0  0  0  0
  -19.1750  -28.7470   23.1780 C   0  0  0  0  0  0  0  0  0  0  0  0
  -18.9730  -29.9890   23.8170 C   0  0  0  0  0  3  0  0  0  0  0  0
  -17.6740  -30.4990   24.0060 C   0  0  0  0  0  3  0  0  0  0  0  0
  -16.5600  -29.7640   23.5680 C   0  0  0  0  0  3  0  0  0  0  0  0
  -16.7470  -28.5230   22.9320 C   0  0  0  0  0  3  0  0  0  0  0  0
  -25.7980  -32.4580   23.8520 C   0  0  0  0  0  3  0  0  0  0  0  0
  -25.4330  -33.8430   24.1890 N   0  0  0  0  0  0  0  0  0  0  0  0
  -25.7580  -34.9180   23.4590 C   0  0  0  0  0  0  0  0  0  0  0  0
  -26.4630  -34.8510   22.4500 O   0  0  0  0  0  0  0  0  0  0  0  0
  -24.8050  -33.9670   24.9700 H   0  0  0  0  0  0  0  0  0  0  0  0
  -23.9830  -36.6670   23.0880 C   0  0  0  0  0  1  0  0  0  0  0  0
  -25.2160  -36.2860   23.9230 C   0  0  0  0  0  3  0  0  0  0  0  0
  -27.2980  -37.2260   24.8240 C   0  0  0  0  0  1  0  0  0  0  0  0
  -26.2180  -37.3720   23.8520 N   0  0  0  0  0  0  0  0  0  0  0  0
  -25.7790  -38.2750   24.0030 H   0  0  0  0  0  0  0  0  0  0  0  0
  -26.2830  -31.6910   25.1450 C   0  0  1  0  0  0  0  0  0  0  0  0
  -25.1560  -31.4230   26.1680 C   0  0  0  0  0  1  0  0  0  0  0  0
  -26.9170  -30.3290   24.7800 C   0  0  0  0  0  1  0  0  0  0  0  0
  -27.3840  -32.5110   25.8590 C   0  0  0  0  0  1  0  0  0  0  0  0
  1  4  1  0
  2  5  1  0
  2  1  2  0
  3  4  1  0
  3  8  1  0
  4 52  1  0
  5  3  1  0
  6  5  1  0
  8  7  1  0
  9 17  1  0
 10 15  1  0
 11 12  1  0
 11 10  1  0
 13 12  1  0
 13 22  1  0
 13 14  1  0
 15  9  1  0
 15 14  1  0
 16  9  2  0
 17 18  1  0
 17  8  1  0
 19 20  2  0
 20 39  1  0
 21 20  1  0
 21 24  1  0
 22 19  1  0
 22 23  1  0
 23 21  2  0
 24 25  1  0
 25 26  2  0
 27 30  1  0
 27 26  1  0
 28 27  2  0
 29 28  1  0
 29 24  2  0
 30 31  1  0
 31 32  1  0
 32 33  2  0
 34 33  1  0
 34 38  1  0
 35 34  2  0
 36 31  2  0
 36 35  1  0
 37 36  1  0
 39 40  1  0
 40 43  1  0
 40 42  1  0
 41 39  2  0
 44 45  1  0
 44 19  1  0
 46 44  1  0
 47  2  1  0
 48 51  1  0
 48 47  1  0
 50 51  1  0
 51 49  1  0
 53 54  2  0
 53 52  1  0
 55 54  1  0
 56 67  2  0
 57 55  1  0
 57 62  1  0
 58 66  1  0
 58 68  1  0
 59 61  1  0
 60 66  1  0
 61 62  2  0
 61 60  1  0
 63 57  2  0
 64 63  1  0
 64 59  2  0
 65 59  1  0
 65 58  1  0
 66 56  1  0
 68 70  2  0
 69 68  1  0
 71 69  1  0
 72 81  2  0
 72 77  1  0
 73 69  1  0
 73 77  1  0
 74 73  1  0
 75 76  1  0
 75 74  1  0
 76 72  1  0
 77 78  2  0
 78 79  1  0
 80 79  2  0
 81 80  1  0
 82 56  1  0
 82 83  1  0
 82 92  1  0
 83 86  1  0
 84 88  1  0
 84 83  1  0
 85 84  2  0
 88 87  1  0
 90 88  1  0
 90 91  1  0
 90 89  1  0
 92 95  1  1
 92 93  1  0
 94 92  1  0
M  ISO  4   9 100  17 100  54 101  55 101
M  END
>  <TORSDO>  (61) 
F 23

>  <SCORE>  (61) 
-12.409

>  <name>  (61) 
60

>  <ligand_id>  (61) 
60

>  <original_smiles>  (61) 
[H]c1c([H])c([H])c2c(c1[H])C([H])([H])C([H])([H])C([H])([H])C2([H])N([H])C(=O)C1([H])N(C(=O)C([H])(N([H])C(=O)C([H])(N([H])C([H])([H])[H])C([H])([H])[H])C(C([H])([H])[H])(C([H])([H])[H])C([H])([H])[H])C([H])([H])c2c([H])c(OC([H])([H])C([H])([H])C([H])([H])n3c([H])c(C([H])([H])C([H])([H])C([H])(C([H])([H])[H])C([H])([H])[H])[n+]([H])c3C([H])(N([H])C(=O)N3C([H])([H])C([H])([H])C([H])([H])C([H])(n4nc(-c5c([H])c([H])c(Oc6c([H])c([H])c(F)c([H])c6F)c([H])c5[H])c(C(=O)N([H])[H])c4N([H])[H])C3([H])[H])C([H])([H])[H])c([H])c([H])c2C1([H])[H]

>  <smiles>  (61) 
[H]c1c([H])c([H])c2c(c1[H])C([H])([H])C([H])([H])C([H])([H])C2([H])N([H])C(=O)C1([H])N(C(=O)C([H])(N([H])C(=O)C([H])(N([H])C([H])([H])[H])C([H])([H])[H])C(C([H])([H])[H])(C([H])([H])[H])C([H])([H])[H])C([H])([H])c2c([H])c(OC([H])([H])C([H])([H])C([H])([H])n3c([H])c(C([H])([H])C([H])([H])C([H])(C([H])([H])[H])C([H])([H])[H])[n+]([H])c3C([H])(N([H])C(=O)N3C([H])([H])C([H])([H])C([H])([H])C([H])(n4nc(-c5c([H])c([H])c(Oc6c([H])c([H])c(F)c([H])c6F)c([H])c5[H])c(C(=O)N([H])[H])c4N([H])[H])C3([H])[H])C([H])([H])[H])c([H])c([H])c2C1([H])[H]

$$$$
61:0:0
     RDKit          3D

 93101  0  0  1  0  0  0  0  0999 V2000
  -28.5680  -21.7000   19.9250 C   0  0  0  0  0  3  0  0  0  0  0  0
  -28.3870  -20.3230   20.0830 C   0  0  0  0  0  0  0  0  0  0  0  0
  -29.8160  -22.1360   19.4590 C   0  0  0  0  0  0  0  0  0  0  0  0
  -30.5460  -19.9240   19.4020 C   0  0  0  0  0  0  0  0  0  0  0  0
  -27.0680  -19.7450   20.5450 C   0  0  0  0  0  1  0  0  0  0  0  0
  -29.3680  -19.4490   19.7970 N   0  0  0  0  0  0  0  0  0  0  0  0
  -30.8000  -21.2300   19.2070 N   0  0  0  0  0  0  0  0  0  0  0  0
  -30.9850  -17.9870   17.8150 C   0  0  0  0  0  1  0  0  0  0  0  0
  -31.5930  -18.8740   18.9180 C   0  0  0  0  0  3  0  0  0  0  0  0
  -32.5990  -18.7380   21.3760 C   0  0  0  0  0  1  0  0  0  0  0  0
  -32.4640  -18.0790   19.9910 C   0  0  0  0  0  3  0  0  0  0  0  0
  -32.8290  -15.5400   19.9860 C   0  0  0  0  0  0  0  0  0  0  0  0
  -32.5730  -13.1570   19.3890 C   0  0  0  0  0  2  0  0  0  0  0  0
  -31.7030  -13.0580   18.1190 C   0  0  0  0  0  2  0  0  0  0  0  0
  -30.2040  -13.0360   18.4820 C   0  0  0  0  0  2  0  0  0  0  0  0
  -29.8120  -14.1570   19.4830 C   0  0  0  0  0  3  0  0  0  0  0  0
  -30.8000  -14.2070   20.6700 C   0  0  0  0  0  2  0  0  0  0  0  0
  -32.1550  -14.3650   20.1180 N   0  0  0  0  0  0  0  0  0  0  0  0
  -33.9910  -15.6010   19.5750 O   0  0  0  0  0  0  0  0  0  0  0  0
  -32.0850  -16.6530   20.1830 N   0  0  0  0  0  0  0  0  0  0  0  0
  -31.1350  -16.4820   20.4710 H   0  0  0  0  0  0  0  0  0  0  0  0
  -27.4710  -15.0000   20.1420 C   0  0  0  0  0  0  0  0  0  0  0  0
  -26.3240  -14.3390   20.4860 C   0  0  0  0  0  0  0  0  0  0  0  0
  -26.6480  -12.9480   20.4600 C   0  0  0  0  0  0  0  0  0  0  0  0
  -28.4280  -14.0190   19.9310 N   0  0  0  0  0  0  0  0  0  0  0  0
  -27.9350  -12.7790   20.1810 N   0  0  0  0  0  0  0  0  0  0  0  0
  -25.7940  -11.7650   20.6300 C   0  0  0  0  0  0  0  0  0  0  0  0
  -25.9800  -10.8710   21.7070 C   0  0  0  0  0  3  0  0  0  0  0  0
  -25.1350   -9.7500   21.8610 C   0  0  0  0  0  3  0  0  0  0  0  0
  -24.0900   -9.5170   20.9350 C   0  0  0  0  0  0  0  0  0  0  0  0
  -23.9250  -10.3980   19.8510 C   0  0  0  0  0  3  0  0  0  0  0  0
  -24.7700  -11.5090   19.6980 C   0  0  0  0  0  3  0  0  0  0  0  0
  -23.2370   -8.4420   20.9890 O   0  0  0  0  0  0  0  0  0  0  0  0
  -22.7560   -7.9630   22.1820 C   0  0  0  0  0  0  0  0  0  0  0  0
  -21.9740   -8.7610   23.0440 C   0  0  0  0  0  3  0  0  0  0  0  0
  -21.4450   -8.2080   24.2270 C   0  0  0  0  0  3  0  0  0  0  0  0
  -21.6880   -6.8570   24.5440 C   0  0  0  0  0  0  0  0  0  0  0  0
  -22.4630   -6.0600   23.6840 C   0  0  0  0  0  3  0  0  0  0  0  0
  -22.9940   -6.6120   22.5050 C   0  0  0  0  0  0  0  0  0  0  0  0
  -23.7230   -5.8340   21.6690 F   0  0  0  0  0  0  0  0  0  0  0  0
  -21.1720   -6.3240   25.6770 F   0  0  0  0  0  0  0  0  0  0  0  0
  -24.9770  -14.9540   20.7300 C   0  0  0  0  0  0  0  0  0  0  0  0
  -24.1710  -14.3440   21.5910 N   0  0  0  0  0  0  0  0  0  0  0  0
  -24.6490  -16.0090   20.1890 O   0  0  0  0  0  0  0  0  0  0  0  0
  -24.4490  -13.4890   22.0500 H   0  0  0  0  0  0  0  0  0  0  0  0
  -23.2630  -14.7380   21.7960 H   0  0  0  0  0  0  0  0  0  0  0  0
  -27.7740  -16.3480   19.9720 N   0  0  0  0  0  0  0  0  0  0  0  0
  -27.0700  -17.0710   20.0690 H   0  0  0  0  0  0  0  0  0  0  0  0
  -28.6680  -16.7040   19.6640 H   0  0  0  0  0  0  0  0  0  0  0  0
  -30.0940  -23.6150   19.1280 C   0  0  0  0  0  2  0  0  0  0  0  0
  -29.2520  -24.7000   19.8760 C   0  0  0  0  0  2  0  0  0  0  0  0
  -29.5200  -26.1520   19.3830 C   0  0  0  0  0  2  0  0  0  0  0  0
  -29.1510  -27.1930   20.3120 O   0  0  0  0  0  0  0  0  0  0  0  0
  -24.8030  -31.8570   23.4970 C   0  0  0  0  0  0  0  0  0  0  0  0
  -27.9060  -27.7980   20.2810 C   0  0  0  0  0  0  0  0  0  0  0  0
  -23.7750  -30.4730   21.7230 C   0  0  0  0  0  3  0  0  0  0  0  0
  -25.3970  -29.1320   20.2790 C   0  0  0  0  0  0  0  0  0  0  0  0
  -26.2740  -31.0200   21.6630 C   0  0  0  0  0  2  0  0  0  0  0  0
  -26.4870  -29.6970   20.9500 C   0  0  0  0  0  0  0  0  0  0  0  0
  -27.7380  -29.0370   20.9500 C   0  0  0  0  0  3  0  0  0  0  0  0
  -26.7870  -27.2410   19.6160 C   0  0  0  0  0  3  0  0  0  0  0  0
  -25.5430  -27.9030   19.6120 C   0  0  0  0  0  3  0  0  0  0  0  0
  -24.0920  -29.8970   20.3170 C   0  0  0  0  0  2  0  0  0  0  0  0
  -24.9660  -31.1310   22.3530 N   0  0  0  0  0  0  0  0  0  0  0  0
  -23.6840  -32.0160   24.0020 O   0  0  0  0  0  0  0  0  0  0  0  0
  -23.1650  -29.3520   22.5950 C   0  0  0  0  0  0  0  0  0  0  0  0
  -21.8800  -29.0410   22.3600 N   0  0  0  0  0  0  0  0  0  0  0  0
  -23.8500  -28.7640   23.4370 O   0  0  0  0  0  0  0  0  0  0  0  0
  -21.3840  -29.5760   21.6600 H   0  0  0  0  0  0  0  0  0  0  0  0
  -18.6190  -27.4970   22.5570 C   0  0  0  0  0  0  0  0  0  0  0  0
  -21.1120  -27.9930   23.0290 C   0  0  0  0  0  3  0  0  0  0  0  0
  -21.4000  -26.6070   22.4060 C   0  0  0  0  0  2  0  0  0  0  0  0
  -20.4100  -26.2270   21.3010 C   0  0  0  0  0  2  0  0  0  0  0  0
  -18.9780  -26.2040   21.8440 C   0  0  0  0  0  2  0  0  0  0  0  0
  -19.6210  -28.3440   23.0990 C   0  0  0  0  0  0  0  0  0  0  0  0
  -19.2340  -29.5510   23.7220 C   0  0  0  0  0  3  0  0  0  0  0  0
  -17.8770  -29.9140   23.8080 C   0  0  0  0  0  3  0  0  0  0  0  0
  -16.8890  -29.0650   23.2840 C   0  0  0  0  0  3  0  0  0  0  0  0
  -17.2590  -27.8580   22.6630 C   0  0  0  0  0  3  0  0  0  0  0  0
  -26.0110  -32.5440   24.2090 C   0  0  0  0  0  3  0  0  0  0  0  0
  -25.6540  -33.9530   24.4240 N   0  0  0  0  0  0  0  0  0  0  0  0
  -26.0580  -34.9670   23.6460 C   0  0  0  0  0  0  0  0  0  0  0  0
  -26.8380  -34.8170   22.7030 O   0  0  0  0  0  0  0  0  0  0  0  0
  -24.9710  -34.1430   25.1430 H   0  0  0  0  0  0  0  0  0  0  0  0
  -24.3660  -36.7120   23.0020 C   0  0  0  0  0  1  0  0  0  0  0  0
  -25.5120  -36.3700   23.9680 C   0  0  0  0  0  3  0  0  0  0  0  0
  -27.5250  -37.3390   24.9880 C   0  0  0  0  0  1  0  0  0  0  0  0
  -26.5410  -37.4300   23.9130 N   0  0  0  0  0  0  0  0  0  0  0  0
  -26.1130  -38.3520   23.9510 H   0  0  0  0  0  0  0  0  0  0  0  0
  -26.4020  -31.8510   25.5720 C   0  0  1  0  0  0  0  0  0  0  0  0
  -25.1980  -31.6050   26.5120 C   0  0  0  0  0  1  0  0  0  0  0  0
  -27.0880  -30.4890   25.3180 C   0  0  0  0  0  1  0  0  0  0  0  0
  -27.4250  -32.7290   26.3310 C   0  0  0  0  0  1  0  0  0  0  0  0
  1  2  2  0
  2  5  1  0
  3  1  1  0
  4  6  2  0
  6  2  1  0
  7  4  1  0
  7  3  2  0
  9  8  1  0
  9  4  1  0
  9 11  1  0
 11 20  1  0
 11 10  1  0
 12 18  1  0
 12 20  1  0
 13 18  1  0
 14 15  1  0
 14 13  1  0
 16 15  1  0
 16 25  1  0
 16 17  1  0
 18 17  1  0
 19 12  2  0
 20 21  1  0
 22 23  2  0
 23 42  1  0
 24 23  1  0
 24 27  1  0
 25 22  1  0
 25 26  1  0
 26 24  2  0
 27 28  1  0
 28 29  2  0
 30 33  1  0
 30 29  1  0
 31 30  2  0
 32 31  1  0
 32 27  2  0
 33 34  1  0
 34 39  2  0
 34 35  1  0
 35 36  2  0
 36 37  1  0
 37 41  1  0
 38 37  2  0
 39 38  1  0
 40 39  1  0
 42 43  1  0
 43 46  1  0
 43 45  1  0
 44 42  2  0
 47 48  1  0
 47 22  1  0
 49 47  1  0
 50  3  1  0
 50 51  1  0
 52 51  1  0
 52 53  1  0
 54 65  2  0
 55 53  1  0
 55 60  1  0
 56 64  1  0
 56 66  1  0
 57 63  1  0
 57 59  1  0
 58 64  1  0
 59 60  2  0
 59 58  1  0
 61 55  2  0
 62 61  1  0
 62 57  2  0
 63 56  1  0
 64 54  1  0
 66 68  2  0
 67 66  1  0
 69 67  1  0
 70 79  2  0
 70 75  1  0
 71 67  1  0
 71 75  1  0
 72 71  1  0
 73 74  1  0
 73 72  1  0
 74 70  1  0
 75 76  2  0
 76 77  1  0
 78 77  2  0
 79 78  1  0
 80 54  1  0
 80 81  1  0
 80 90  1  0
 81 84  1  0
 82 86  1  0
 82 81  1  0
 83 82  2  0
 86 85  1  0
 88 89  1  0
 88 86  1  0
 88 87  1  0
 90 93  1  1
 90 91  1  0
 92 90  1  0
M  ISO  4  12 100  20 100  52 101  53 101
M  END
>  <TORSDO>  (62) 
F 21

>  <SCORE>  (62) 
-8.647

>  <name>  (62) 
61

>  <ligand_id>  (62) 
61

>  <original_smiles>  (62) 
[H]c1c(C([H])([H])[H])nc(C([H])(C([H])([H])[H])C([H])(N([H])C(=O)N2C([H])([H])C([H])([H])C([H])([H])C([H])(n3nc(-c4c([H])c([H])c(Oc5c([H])c([H])c(F)c([H])c5F)c([H])c4[H])c(C(=O)N([H])[H])c3N([H])[H])C2([H])[H])C([H])([H])[H])nc1C([H])([H])C([H])([H])C([H])([H])Oc1c([H])c([H])c2c(c1[H])C([H])([H])N(C(=O)C([H])(N([H])C(=O)C([H])(N([H])C([H])([H])[H])C([H])([H])[H])C(C([H])([H])[H])(C([H])([H])[H])C([H])([H])[H])C([H])(C(=O)N([H])C1([H])c3c([H])c([H])c([H])c([H])c3C([H])([H])C([H])([H])C1([H])[H])C2([H])[H]

>  <smiles>  (62) 
[H]c1c(C([H])([H])[H])nc(C([H])(C([H])([H])[H])C([H])(N([H])C(=O)N2C([H])([H])C([H])([H])C([H])([H])C([H])(n3nc(-c4c([H])c([H])c(Oc5c([H])c([H])c(F)c([H])c5F)c([H])c4[H])c(C(=O)N([H])[H])c3N([H])[H])C2([H])[H])C([H])([H])[H])nc1C([H])([H])C([H])([H])C([H])([H])Oc1c([H])c([H])c2c(c1[H])C([H])([H])N(C(=O)C([H])(N([H])C(=O)C([H])(N([H])C([H])([H])[H])C([H])([H])[H])C(C([H])([H])[H])(C([H])([H])[H])C([H])([H])[H])C([H])(C(=O)N([H])C1([H])c3c([H])c([H])c([H])c([H])c3C([H])([H])C([H])([H])C1([H])[H])C2([H])[H]

$$$$
62:0:0
     RDKit          3D

 91 98  0  0  1  0  0  0  0  0999 V2000
  -30.7570  -20.5070   21.7600 C   0  0  0  0  0  1  0  0  0  0  0  0
  -28.2590  -20.4290   21.8050 C   0  0  0  0  0  1  0  0  0  0  0  0
  -29.4880  -20.4480   20.8710 C   0  0  2  0  0  0  0  0  0  0  0  0
  -29.3980  -19.1860   20.0450 N   0  0  0  0  0  4  0  0  0  0  0  0
  -28.7540  -18.5630   20.5050 H   0  0  0  0  0  0  0  0  0  0  0  0
  -28.9410  -19.4520   19.1850 H   0  0  0  0  0  0  0  0  0  0  0  0
  -30.5990  -18.3790   19.6450 C   0  0  0  0  0  2  0  0  0  0  0  0
  -31.2430  -17.4810   20.7560 C   0  0  0  0  0  2  0  0  0  0  0  0
  -31.0100  -15.6760   22.5050 C   0  0  0  0  0  1  0  0  0  0  0  0
  -30.6870  -16.0340   21.0340 C   0  0  0  0  0  3  0  0  0  0  0  0
  -31.2310  -14.8840   20.1200 C   0  0  0  0  0  0  0  0  0  0  0  0
  -30.8850  -12.7040   18.9730 C   0  0  0  0  0  2  0  0  0  0  0  0
  -29.9210  -12.8560   17.7790 C   0  0  0  0  0  2  0  0  0  0  0  0
  -28.4540  -12.7390   18.2350 C   0  0  0  0  0  2  0  0  0  0  0  0
  -28.1460  -13.6350   19.4630 C   0  0  0  0  0  3  0  0  0  0  0  0
  -29.2090  -13.4390   20.5630 C   0  0  0  0  0  2  0  0  0  0  0  0
  -30.5280  -13.7220   19.9760 N   0  0  0  0  0  0  0  0  0  0  0  0
  -32.2960  -15.0630   19.5220 O   0  0  0  0  0  0  0  0  0  0  0  0
  -25.7860  -14.3210   20.2230 C   0  0  0  0  0  0  0  0  0  0  0  0
  -24.7020  -13.5840   20.6200 C   0  0  0  0  0  0  0  0  0  0  0  0
  -25.1190  -12.2190   20.5840 C   0  0  0  0  0  0  0  0  0  0  0  0
  -26.7960  -13.4050   19.9710 N   0  0  0  0  0  0  0  0  0  0  0  0
  -26.4000  -12.1360   20.2480 N   0  0  0  0  0  0  0  0  0  0  0  0
  -24.3580  -10.9810   20.7950 C   0  0  0  0  0  0  0  0  0  0  0  0
  -24.7530  -10.0250   21.7580 C   0  0  0  0  0  3  0  0  0  0  0  0
  -23.9960   -8.8520   21.9560 C   0  0  0  0  0  3  0  0  0  0  0  0
  -22.8270   -8.6250   21.1900 C   0  0  0  0  0  0  0  0  0  0  0  0
  -22.4500   -9.5670   20.2180 C   0  0  0  0  0  3  0  0  0  0  0  0
  -23.2080  -10.7330   20.0180 C   0  0  0  0  0  3  0  0  0  0  0  0
  -22.0420   -7.5030   21.2970 O   0  0  0  0  0  0  0  0  0  0  0  0
  -21.9190   -6.8180   22.4800 C   0  0  0  0  0  0  0  0  0  0  0  0
  -21.4630   -7.4450   23.6590 C   0  0  0  0  0  3  0  0  0  0  0  0
  -21.2850   -6.6890   24.8350 C   0  0  0  0  0  3  0  0  0  0  0  0
  -21.5520   -5.3070   24.8310 C   0  0  0  0  0  0  0  0  0  0  0  0
  -22.0010   -4.6800   23.6560 C   0  0  0  0  0  3  0  0  0  0  0  0
  -22.1810   -5.4330   22.4830 C   0  0  0  0  0  0  0  0  0  0  0  0
  -22.5940   -4.8200   21.3470 F   0  0  0  0  0  0  0  0  0  0  0  0
  -21.3730   -4.5780   25.9580 F   0  0  0  0  0  0  0  0  0  0  0  0
  -23.3270  -14.1060   20.9200 C   0  0  0  0  0  0  0  0  0  0  0  0
  -22.6030  -13.4470   21.8180 N   0  0  0  0  0  0  0  0  0  0  0  0
  -22.9050  -15.1350   20.3930 O   0  0  0  0  0  0  0  0  0  0  0  0
  -22.9580  -12.6150   22.2640 H   0  0  0  0  0  0  0  0  0  0  0  0
  -21.6810  -13.7790   22.0600 H   0  0  0  0  0  0  0  0  0  0  0  0
  -25.9910  -15.6850   20.0340 N   0  0  0  0  0  0  0  0  0  0  0  0
  -25.2430  -16.3610   20.1430 H   0  0  0  0  0  0  0  0  0  0  0  0
  -26.8360  -16.0860   19.6470 H   0  0  0  0  0  0  0  0  0  0  0  0
  -29.4310  -21.7430   19.9620 C   0  0  0  0  0  3  0  0  0  0  0  0
  -29.1020  -23.1020   20.6820 C   0  0  0  0  0  3  0  0  0  0  0  0
  -29.0730  -24.4080   19.8250 C   0  0  0  0  0  2  0  0  0  0  0  0
  -28.7150  -25.6760   20.6610 C   0  0  0  0  0  2  0  0  0  0  0  0
  -28.7300  -26.9360   19.9490 O   0  0  0  0  0  0  0  0  0  0  0  0
  -24.6360  -31.8440   23.1550 C   0  0  0  0  0  0  0  0  0  0  0  0
  -27.5440  -27.6410   19.9640 C   0  0  0  0  0  0  0  0  0  0  0  0
  -23.5270  -30.4450   21.4440 C   0  0  0  0  0  3  0  0  0  0  0  0
  -25.0790  -29.0360   19.9850 C   0  0  0  0  0  0  0  0  0  0  0  0
  -26.0350  -30.9390   21.2970 C   0  0  0  0  0  2  0  0  0  0  0  0
  -26.2030  -29.5960   20.6080 C   0  0  0  0  0  0  0  0  0  0  0  0
  -27.4410  -28.9100   20.5860 C   0  0  0  0  0  3  0  0  0  0  0  0
  -26.4030  -27.0980   19.3380 C   0  0  0  0  0  3  0  0  0  0  0  0
  -25.1750  -27.7890   19.3460 C   0  0  0  0  0  3  0  0  0  0  0  0
  -23.7910  -29.8290   20.0430 C   0  0  0  0  0  2  0  0  0  0  0  0
  -24.7500  -31.0900   22.0250 N   0  0  0  0  0  0  0  0  0  0  0  0
  -23.5330  -32.0380   23.6870 O   0  0  0  0  0  0  0  0  0  0  0  0
  -22.9180  -29.3550   22.3550 C   0  0  0  0  0  0  0  0  0  0  0  0
  -21.6020  -29.1240   22.2150 N   0  0  0  0  0  0  0  0  0  0  0  0
  -23.6250  -28.7230   23.1450 O   0  0  0  0  0  0  0  0  0  0  0  0
  -21.0910  -29.6910   21.5530 H   0  0  0  0  0  0  0  0  0  0  0  0
  -18.2740  -27.7890   22.6630 C   0  0  0  0  0  0  0  0  0  0  0  0
  -20.8220  -28.1200   22.9390 C   0  0  0  0  0  3  0  0  0  0  0  0
  -20.9710  -26.7240   22.2900 C   0  0  0  0  0  2  0  0  0  0  0  0
  -19.8750  -26.4160   21.2650 C   0  0  0  0  0  2  0  0  0  0  0  0
  -18.4920  -26.4810   21.9200 C   0  0  0  0  0  2  0  0  0  0  0  0
  -19.3680  -28.5650   23.1280 C   0  0  0  0  0  0  0  0  0  0  0  0
  -19.1100  -29.7900   23.7830 C   0  0  0  0  0  3  0  0  0  0  0  0
  -17.7900  -30.2350   23.9810 C   0  0  0  0  0  3  0  0  0  0  0  0
  -16.7100  -29.4550   23.5330 C   0  0  0  0  0  3  0  0  0  0  0  0
  -16.9530  -28.2350   22.8770 C   0  0  0  0  0  3  0  0  0  0  0  0
  -25.8760  -32.5160   23.8200 C   0  0  0  0  0  3  0  0  0  0  0  0
  -25.4980  -33.8920   24.1720 N   0  0  0  0  0  0  0  0  0  0  0  0
  -25.8070  -34.9760   23.4490 C   0  0  0  0  0  0  0  0  0  0  0  0
  -26.5130  -34.9270   22.4380 O   0  0  0  0  0  0  0  0  0  0  0  0
  -24.8710  -34.0010   24.9560 H   0  0  0  0  0  0  0  0  0  0  0  0
  -24.0230  -36.7090   23.0760 C   0  0  0  0  0  1  0  0  0  0  0  0
  -25.2460  -36.3300   23.9240 C   0  0  0  0  0  3  0  0  0  0  0  0
  -27.3110  -37.2750   24.8590 C   0  0  0  0  0  1  0  0  0  0  0  0
  -26.2390  -37.4250   23.8790 N   0  0  0  0  0  0  0  0  0  0  0  0
  -25.7910  -38.3240   24.0360 H   0  0  0  0  0  0  0  0  0  0  0  0
  -26.4020  -31.7400   25.0880 C   0  0  1  0  0  0  0  0  0  0  0  0
  -25.2990  -31.4200   26.1230 C   0  0  0  0  0  1  0  0  0  0  0  0
  -27.0650  -30.4050   24.6750 C   0  0  0  0  0  1  0  0  0  0  0  0
  -27.4950  -32.5730   25.7970 C   0  0  0  0  0  1  0  0  0  0  0  0
  3  1  1  1
  3  2  1  0
  4  5  1  0
  4  3  1  0
  6  4  1  0
  7  4  1  0
  7  8  1  0
  8 10  1  0
 10  9  1  0
 11 10  1  0
 12 17  1  0
 13 14  1  0
 13 12  1  0
 15 14  1  0
 15 22  1  0
 15 16  1  0
 17 11  1  0
 17 16  1  0
 18 11  2  0
 19 20  2  0
 20 39  1  0
 21 20  1  0
 21 24  1  0
 22 19  1  0
 22 23  1  0
 23 21  2  0
 24 25  1  0
 25 26  2  0
 27 30  1  0
 27 26  1  0
 28 27  2  0
 29 28  1  0
 29 24  2  0
 30 31  1  0
 31 36  2  0
 31 32  1  0
 32 33  2  0
 34 33  1  0
 34 38  1  0
 35 34  2  0
 36 35  1  0
 37 36  1  0
 39 40  1  0
 40 43  1  0
 40 42  1  0
 41 39  2  0
 44 45  1  0
 44 19  1  0
 46 44  1  0
 47 48  2  0
 47  3  1  0
 49 50  1  0
 49 48  1  0
 51 53  1  0
 51 50  1  0
 52 63  2  0
 53 58  1  0
 54 62  1  0
 54 64  1  0
 55 61  1  0
 55 57  1  0
 56 62  1  0
 57 56  1  0
 58 57  2  0
 59 60  1  0
 59 53  2  0
 60 55  2  0
 61 54  1  0
 62 52  1  0
 64 66  2  0
 65 64  1  0
 67 65  1  0
 68 77  2  0
 68 73  1  0
 69 65  1  0
 69 73  1  0
 70 69  1  0
 71 72  1  0
 71 70  1  0
 72 68  1  0
 73 74  2  0
 74 75  1  0
 76 75  2  0
 77 76  1  0
 78 52  1  0
 78 79  1  0
 78 88  1  0
 79 82  1  0
 80 84  1  0
 80 79  1  0
 81 80  2  0
 84 83  1  0
 86 84  1  0
 86 87  1  0
 86 85  1  0
 88 91  1  1
 88 89  1  0
 90 88  1  0
M  ISO  4  10 100  11 100  50 101  51 101
M  END
>  <TORSDO>  (63) 
F 24

>  <SCORE>  (63) 
-10.104

>  <name>  (63) 
62

>  <ligand_id>  (63) 
62

>  <original_smiles>  (63) 
[H]c1c([H])c([H])c2c(c1[H])C([H])([H])C([H])([H])C([H])([H])C2([H])N([H])C(=O)C1([H])N(C(=O)C([H])(N([H])C(=O)C([H])(N([H])C([H])([H])[H])C([H])([H])[H])C(C([H])([H])[H])(C([H])([H])[H])C([H])([H])[H])C([H])([H])c2c([H])c(OC([H])([H])C([H])([H])C([H])([H])C([H])([H])C(C([H])([H])[H])(C([H])([H])[H])[N+]([H])([H])C([H])([H])C([H])([H])C([H])(C(=O)N3C([H])([H])C([H])([H])C([H])([H])C([H])(n4nc(-c5c([H])c([H])c(Oc6c([H])c([H])c(F)c([H])c6F)c([H])c5[H])c(C(=O)N([H])[H])c4N([H])[H])C3([H])[H])C([H])([H])[H])c([H])c([H])c2C1([H])[H]

>  <smiles>  (63) 
[H]c1c([H])c([H])c2c(c1[H])C([H])([H])C([H])([H])C([H])([H])C2([H])N([H])C(=O)C1([H])N(C(=O)C([H])(N([H])C(=O)C([H])(N([H])C([H])([H])[H])C([H])([H])[H])C(C([H])([H])[H])(C([H])([H])[H])C([H])([H])[H])C([H])([H])c2c([H])c(OC([H])([H])C([H])([H])C([H])([H])C([H])([H])C(C([H])([H])[H])(C([H])([H])[H])[N+]([H])([H])C([H])([H])C([H])([H])C([H])(C(=O)N3C([H])([H])C([H])([H])C([H])([H])C([H])(n4nc(-c5c([H])c([H])c(Oc6c([H])c([H])c(F)c([H])c6F)c([H])c5[H])c(C(=O)N([H])[H])c4N([H])[H])C3([H])[H])C([H])([H])[H])c([H])c([H])c2C1([H])[H]

$$$$
63:0:0
     RDKit          3D

 94102  0  0  1  0  0  0  0  0999 V2000
  -27.4040  -22.2780   19.4630 C   0  0  0  0  0  3  0  0  0  0  0  0
  -27.9350  -19.9630   19.0530 C   0  0  0  0  0  3  0  0  0  0  0  0
  -26.9960  -21.0020   19.0470 C   0  0  0  0  0  0  0  0  0  0  0  0
  -28.7320  -22.4960   19.8970 C   0  0  0  0  0  0  0  0  0  0  0  0
  -29.2480  -20.2110   19.4910 C   0  0  0  0  0  0  0  0  0  0  0  0
  -25.5710  -20.7510   18.6000 C   0  0  0  0  0  1  0  0  0  0  0  0
  -29.6300  -21.4590   19.9260 N   0  0  0  0  0  0  0  0  0  0  0  0
  -31.5100  -19.4600   18.5940 C   0  0  0  0  0  1  0  0  0  0  0  0
  -30.2720  -19.0380   19.4120 C   0  0  0  0  0  3  0  0  0  0  0  0
  -31.3930  -19.1320   21.6900 C   0  0  0  0  0  1  0  0  0  0  0  0
  -29.2610  -17.8580   21.4680 C   0  0  0  0  0  1  0  0  0  0  0  0
  -30.5750  -18.2260   20.7420 C   0  0  1  0  0  0  0  0  0  0  0  0
  -31.4230  -16.9010   20.5410 C   0  0  0  0  0  2  0  0  0  0  0  0
  -31.3440  -14.4900   19.8380 C   0  0  0  0  0  0  0  0  0  0  0  0
  -30.9820  -12.1940   18.9880 C   0  0  0  0  0  2  0  0  0  0  0  0
  -30.0200  -12.2230   17.7850 C   0  0  0  0  0  2  0  0  0  0  0  0
  -28.5560  -12.1510   18.2640 C   0  0  0  0  0  2  0  0  0  0  0  0
  -28.2460  -13.1600   19.4020 C   0  0  0  0  0  3  0  0  0  0  0  0
  -29.3270  -13.1140   20.5060 C   0  0  0  0  0  2  0  0  0  0  0  0
  -30.6320  -13.3260   19.8640 N   0  0  0  0  0  0  0  0  0  0  0  0
  -32.4690  -14.5530   19.3380 O   0  0  0  0  0  0  0  0  0  0  0  0
  -30.7310  -15.6100   20.2910 N   0  0  0  0  0  0  0  0  0  0  0  0
  -29.7890  -15.5070   20.6400 H   0  0  0  0  0  0  0  0  0  0  0  0
  -25.9310  -13.9000   20.2400 C   0  0  0  0  0  0  0  0  0  0  0  0
  -24.8340  -13.1900   20.6500 C   0  0  0  0  0  0  0  0  0  0  0  0
  -25.2070  -11.8140   20.5800 C   0  0  0  0  0  0  0  0  0  0  0  0
  -26.9040  -12.9590   19.9460 N   0  0  0  0  0  0  0  0  0  0  0  0
  -26.4770  -11.6980   20.2100 N   0  0  0  0  0  0  0  0  0  0  0  0
  -24.4120  -10.5960   20.7900 C   0  0  0  0  0  0  0  0  0  0  0  0
  -24.7570   -9.6470   21.7780 C   0  0  0  0  0  3  0  0  0  0  0  0
  -23.9640   -8.4960   21.9740 C   0  0  0  0  0  3  0  0  0  0  0  0
  -22.8110   -8.2850   21.1820 C   0  0  0  0  0  0  0  0  0  0  0  0
  -22.4840   -9.2220   20.1850 C   0  0  0  0  0  3  0  0  0  0  0  0
  -23.2770  -10.3640   19.9870 C   0  0  0  0  0  3  0  0  0  0  0  0
  -21.9970   -7.1840   21.2840 O   0  0  0  0  0  0  0  0  0  0  0  0
  -21.7730   -6.5620   22.4860 C   0  0  0  0  0  0  0  0  0  0  0  0
  -21.2250   -7.2520   23.5910 C   0  0  0  0  0  3  0  0  0  0  0  0
  -20.9470   -6.5580   24.7860 C   0  0  0  0  0  3  0  0  0  0  0  0
  -21.2060   -5.1780   24.8760 C   0  0  0  0  0  0  0  0  0  0  0  0
  -21.7450   -4.4890   23.7760 C   0  0  0  0  0  3  0  0  0  0  0  0
  -22.0250   -5.1790   22.5840 C   0  0  0  0  0  0  0  0  0  0  0  0
  -22.5250   -4.5060   21.5190 F   0  0  0  0  0  0  0  0  0  0  0  0
  -20.9310   -4.5110   26.0210 F   0  0  0  0  0  0  0  0  0  0  0  0
  -23.4850  -13.7520   20.9950 C   0  0  0  0  0  0  0  0  0  0  0  0
  -22.7670  -13.1040   21.9060 N   0  0  0  0  0  0  0  0  0  0  0  0
  -23.0800  -14.7980   20.4920 O   0  0  0  0  0  0  0  0  0  0  0  0
  -23.1070  -12.2570   22.3350 H   0  0  0  0  0  0  0  0  0  0  0  0
  -21.8630  -13.4630   22.1790 H   0  0  0  0  0  0  0  0  0  0  0  0
  -26.1750  -15.2610   20.0730 N   0  0  0  0  0  0  0  0  0  0  0  0
  -25.4620  -15.9630   20.2400 H   0  0  0  0  0  0  0  0  0  0  0  0
  -27.0380  -15.6530   19.7170 H   0  0  0  0  0  0  0  0  0  0  0  0
  -29.1970  -23.9230   20.3380 C   0  0  0  0  0  2  0  0  0  0  0  0
  -28.1550  -25.0660   20.0610 C   0  0  0  0  0  2  0  0  0  0  0  0
  -28.4130  -26.4860   20.3130 O   0  0  0  0  0  0  0  0  0  0  0  0
  -24.5800  -31.7960   23.2590 C   0  0  0  0  0  0  0  0  0  0  0  0
  -27.2860  -27.3120   20.2330 C   0  0  0  0  0  0  0  0  0  0  0  0
  -23.4140  -30.4020   21.5880 C   0  0  0  0  0  3  0  0  0  0  0  0
  -24.9030  -28.8800   20.1860 C   0  0  0  0  0  0  0  0  0  0  0  0
  -25.9530  -30.7500   21.4530 C   0  0  0  0  0  2  0  0  0  0  0  0
  -26.0560  -29.3800   20.8060 C   0  0  0  0  0  0  0  0  0  0  0  0
  -27.2520  -28.6070   20.8220 C   0  0  0  0  0  3  0  0  0  0  0  0
  -26.1040  -26.8640   19.5870 C   0  0  0  0  0  3  0  0  0  0  0  0
  -24.9270  -27.6240   19.5710 C   0  0  0  0  0  3  0  0  0  0  0  0
  -23.6590  -29.7400   20.2090 C   0  0  0  0  0  2  0  0  0  0  0  0
  -24.6660  -30.9970   22.1570 N   0  0  0  0  0  0  0  0  0  0  0  0
  -23.4850  -32.0600   23.7770 O   0  0  0  0  0  0  0  0  0  0  0  0
  -22.7420  -29.3710   22.5260 C   0  0  0  0  0  0  0  0  0  0  0  0
  -21.4210  -29.1760   22.3630 N   0  0  0  0  0  0  0  0  0  0  0  0
  -23.4060  -28.7510   23.3600 O   0  0  0  0  0  0  0  0  0  0  0  0
  -20.9410  -29.7290   21.6670 H   0  0  0  0  0  0  0  0  0  0  0  0
  -18.0480  -27.9430   22.7670 C   0  0  0  0  0  0  0  0  0  0  0  0
  -20.5940  -28.2300   23.1130 C   0  0  0  0  0  3  0  0  0  0  0  0
  -20.7290  -26.7970   22.5470 C   0  0  0  0  0  2  0  0  0  0  0  0
  -19.6610  -26.4590   21.5010 C   0  0  0  0  0  2  0  0  0  0  0  0
  -18.2600  -26.5930   22.1030 C   0  0  0  0  0  2  0  0  0  0  0  0
  -19.1450  -28.7190   23.2290 C   0  0  0  0  0  0  0  0  0  0  0  0
  -18.8940  -29.9820   23.8070 C   0  0  0  0  0  3  0  0  0  0  0  0
  -17.5800  -30.4710   23.9290 C   0  0  0  0  0  3  0  0  0  0  0  0
  -16.4970  -29.6920   23.4860 C   0  0  0  0  0  3  0  0  0  0  0  0
  -16.7310  -28.4300   22.9100 C   0  0  0  0  0  3  0  0  0  0  0  0
  -25.8480  -32.4310   23.9070 C   0  0  0  0  0  3  0  0  0  0  0  0
  -25.5320  -33.8320   24.2160 N   0  0  0  0  0  0  0  0  0  0  0  0
  -25.8870  -34.8780   23.4550 C   0  0  0  0  0  0  0  0  0  0  0  0
  -26.5850  -34.7630   22.4440 O   0  0  0  0  0  0  0  0  0  0  0  0
  -24.9190  -33.9950   25.0010 H   0  0  0  0  0  0  0  0  0  0  0  0
  -24.1800  -36.6750   23.0250 C   0  0  0  0  0  1  0  0  0  0  0  0
  -25.3880  -36.2700   23.8860 C   0  0  0  0  0  3  0  0  0  0  0  0
  -27.4910  -37.1540   24.7930 C   0  0  0  0  0  1  0  0  0  0  0  0
  -26.4260  -37.3200   23.8070 N   0  0  0  0  0  0  0  0  0  0  0  0
  -26.0180  -38.2420   23.9330 H   0  0  0  0  0  0  0  0  0  0  0  0
  -26.3290  -31.6700   25.2030 C   0  0  1  0  0  0  0  0  0  0  0  0
  -25.2080  -31.4400   26.2430 C   0  0  0  0  0  1  0  0  0  0  0  0
  -26.9230  -30.2900   24.8380 C   0  0  0  0  0  1  0  0  0  0  0  0
  -27.4630  -32.4680   25.8890 C   0  0  0  0  0  1  0  0  0  0  0  0
  1  4  1  0
  2  5  2  0
  3  2  1  0
  3  1  2  0
  4  7  2  0
  4 52  1  0
  5  7  1  0
  6  3  1  0
  9  8  1  0
  9  5  1  0
  9 12  1  0
 12 11  1  1
 12 10  1  0
 13 12  1  0
 14 20  1  0
 14 22  1  0
 15 20  1  0
 16 17  1  0
 16 15  1  0
 18 17  1  0
 18 27  1  0
 18 19  1  0
 20 19  1  0
 21 14  2  0
 22 13  1  0
 22 23  1  0
 24 25  2  0
 25 44  1  0
 26 25  1  0
 26 29  1  0
 27 28  1  0
 27 24  1  0
 28 26  2  0
 29 30  1  0
 30 31  2  0
 32 35  1  0
 32 31  1  0
 33 32  2  0
 34 33  1  0
 34 29  2  0
 35 36  1  0
 36 41  2  0
 36 37  1  0
 37 38  2  0
 38 39  1  0
 39 43  1  0
 40 39  2  0
 41 40  1  0
 42 41  1  0
 44 45  1  0
 45 48  1  0
 45 47  1  0
 46 44  2  0
 49 50  1  0
 49 24  1  0
 51 49  1  0
 53 54  1  0
 53 52  1  0
 55 66  2  0
 56 54  1  0
 56 61  1  0
 57 65  1  0
 57 67  1  0
 58 64  1  0
 58 60  1  0
 59 65  1  0
 60 61  2  0
 60 59  1  0
 62 56  2  0
 63 62  1  0
 63 58  2  0
 64 57  1  0
 65 55  1  0
 67 69  2  0
 68 67  1  0
 70 68  1  0
 71 80  2  0
 71 76  1  0
 72 68  1  0
 72 76  1  0
 73 72  1  0
 74 75  1  0
 74 73  1  0
 75 71  1  0
 76 77  2  0
 77 78  1  0
 79 78  2  0
 80 79  1  0
 81 55  1  0
 81 82  1  0
 81 91  1  0
 82 85  1  0
 83 87  1  0
 83 82  1  0
 84 83  2  0
 87 86  1  0
 89 87  1  0
 89 90  1  0
 89 88  1  0
 91 94  1  1
 91 92  1  0
 93 91  1  0
M  ISO  4  14 100  22 100  53 101  54 101
M  END
>  <TORSDO>  (64) 
F 21

>  <SCORE>  (64) 
-12.574

>  <name>  (64) 
63

>  <ligand_id>  (64) 
63

>  <original_smiles>  (64) 
[H]c1c([H])c([H])c2c(c1[H])C([H])([H])C([H])([H])C([H])([H])C2([H])N([H])C(=O)C1([H])N(C(=O)C([H])(N([H])C(=O)C([H])(N([H])C([H])([H])[H])C([H])([H])[H])C(C([H])([H])[H])(C([H])([H])[H])C([H])([H])[H])C([H])([H])c2c([H])c(OC([H])([H])C([H])([H])c3nc(C([H])(C([H])([H])[H])C(C([H])([H])[H])(C([H])([H])[H])C([H])([H])N([H])C(=O)N4C([H])([H])C([H])([H])C([H])([H])C([H])(n5nc(-c6c([H])c([H])c(Oc7c([H])c([H])c(F)c([H])c7F)c([H])c6[H])c(C(=O)N([H])[H])c5N([H])[H])C4([H])[H])c([H])c(C([H])([H])[H])c3[H])c([H])c([H])c2C1([H])[H]

>  <smiles>  (64) 
[H]c1c([H])c([H])c2c(c1[H])C([H])([H])C([H])([H])C([H])([H])C2([H])N([H])C(=O)C1([H])N(C(=O)C([H])(N([H])C(=O)C([H])(N([H])C([H])([H])[H])C([H])([H])[H])C(C([H])([H])[H])(C([H])([H])[H])C([H])([H])[H])C([H])([H])c2c([H])c(OC([H])([H])C([H])([H])c3nc(C([H])(C([H])([H])[H])C(C([H])([H])[H])(C([H])([H])[H])C([H])([H])N([H])C(=O)N4C([H])([H])C([H])([H])C([H])([H])C([H])(n5nc(-c6c([H])c([H])c(Oc7c([H])c([H])c(F)c([H])c7F)c([H])c6[H])c(C(=O)N([H])[H])c5N([H])[H])C4([H])[H])c([H])c(C([H])([H])[H])c3[H])c([H])c([H])c2C1([H])[H]

$$$$
64:0:0
     RDKit          3D

 93101  0  0  1  0  0  0  0  0999 V2000
  -29.4750  -19.8420   21.2790 C   0  0  0  0  0  3  0  0  0  0  0  0
  -28.5260  -20.7280   20.6860 C   0  0  0  0  0  0  0  0  0  0  0  0
  -29.8580  -18.8960   20.3630 C   0  0  0  0  0  0  0  0  0  0  0  0
  -28.3560  -20.2960   19.3960 C   0  0  0  0  0  0  0  0  0  0  0  0
  -27.4870  -20.8550   18.3090 C   0  0  0  0  0  1  0  0  0  0  0  0
  -29.2400  -18.3930   17.9630 C   0  0  0  0  0  1  0  0  0  0  0  0
  -29.1490  -19.1660   19.1970 N   0  0  0  0  0  0  0  0  0  0  0  0
  -32.2920  -18.4420   20.6340 C   0  0  0  0  0  1  0  0  0  0  0  0
  -30.9060  -17.8020   20.4630 C   0  0  0  0  0  3  0  0  0  0  0  0
  -30.6580  -16.7590   21.5930 C   0  0  0  0  0  2  0  0  0  0  0  0
  -30.7220  -14.5340   20.4300 C   0  0  0  0  0  0  0  0  0  0  0  0
  -30.3950  -12.4310   19.1750 C   0  0  0  0  0  2  0  0  0  0  0  0
  -29.4390  -12.6710   17.9890 C   0  0  0  0  0  2  0  0  0  0  0  0
  -27.9700  -12.5230   18.4310 C   0  0  0  0  0  2  0  0  0  0  0  0
  -27.6490  -13.3260   19.7200 C   0  0  0  0  0  3  0  0  0  0  0  0
  -28.7100  -13.0590   20.8090 C   0  0  0  0  0  2  0  0  0  0  0  0
  -30.0310  -13.3790   20.2400 N   0  0  0  0  0  0  0  0  0  0  0  0
  -31.8260  -14.7480   19.9210 O   0  0  0  0  0  0  0  0  0  0  0  0
  -30.0900  -15.4770   21.1500 N   0  0  0  0  0  0  0  0  0  0  0  0
  -29.1690  -15.2440   21.4900 H   0  0  0  0  0  0  0  0  0  0  0  0
  -25.2450  -13.9220   20.4240 C   0  0  0  0  0  0  0  0  0  0  0  0
  -24.1830  -13.1450   20.8020 C   0  0  0  0  0  0  0  0  0  0  0  0
  -24.6550  -11.7960   20.7830 C   0  0  0  0  0  0  0  0  0  0  0  0
  -26.2980  -13.0470   20.2020 N   0  0  0  0  0  0  0  0  0  0  0  0
  -25.9450  -11.7640   20.4730 N   0  0  0  0  0  0  0  0  0  0  0  0
  -23.9380  -10.5300   20.9850 C   0  0  0  0  0  0  0  0  0  0  0  0
  -24.3790   -9.5760   21.9280 C   0  0  0  0  0  3  0  0  0  0  0  0
  -23.6630   -8.3740   22.1170 C   0  0  0  0  0  3  0  0  0  0  0  0
  -22.4930   -8.1190   21.3620 C   0  0  0  0  0  0  0  0  0  0  0  0
  -22.0720   -9.0620   20.4090 C   0  0  0  0  0  3  0  0  0  0  0  0
  -22.7890  -10.2550   20.2180 C   0  0  0  0  0  3  0  0  0  0  0  0
  -21.7490   -6.9690   21.4600 O   0  0  0  0  0  0  0  0  0  0  0  0
  -21.7060   -6.2340   22.6190 C   0  0  0  0  0  0  0  0  0  0  0  0
  -21.2750   -6.7960   23.8410 C   0  0  0  0  0  3  0  0  0  0  0  0
  -21.1800   -5.9880   24.9920 C   0  0  0  0  0  3  0  0  0  0  0  0
  -21.5060   -4.6210   24.9220 C   0  0  0  0  0  0  0  0  0  0  0  0
  -21.9310   -4.0580   23.7050 C   0  0  0  0  0  3  0  0  0  0  0  0
  -22.0270   -4.8630   22.5560 C   0  0  0  0  0  0  0  0  0  0  0  0
  -22.4160   -4.3130   21.3800 F   0  0  0  0  0  0  0  0  0  0  0  0
  -21.4090   -3.8420   26.0250 F   0  0  0  0  0  0  0  0  0  0  0  0
  -22.7840  -13.6140   21.0730 C   0  0  0  0  0  0  0  0  0  0  0  0
  -22.0620  -12.9180   21.9450 N   0  0  0  0  0  0  0  0  0  0  0  0
  -22.3380  -14.6330   20.5460 O   0  0  0  0  0  0  0  0  0  0  0  0
  -22.4360  -12.0950   22.3930 H   0  0  0  0  0  0  0  0  0  0  0  0
  -21.1220  -13.2140   22.1680 H   0  0  0  0  0  0  0  0  0  0  0  0
  -25.4010  -15.2920   20.2360 N   0  0  0  0  0  0  0  0  0  0  0  0
  -24.6320  -15.9440   20.3430 H   0  0  0  0  0  0  0  0  0  0  0  0
  -26.2530  -15.7360   19.9150 H   0  0  0  0  0  0  0  0  0  0  0  0
  -27.8170  -21.8890   21.3680 C   0  0  0  0  0  2  0  0  0  0  0  0
  -28.6270  -23.2060   21.4820 C   0  0  0  0  0  2  0  0  0  0  0  0
  -28.1260  -24.3840   20.6050 C   0  0  0  0  0  2  0  0  0  0  0  0
  -28.6660  -25.7570   21.0810 C   0  0  0  0  0  2  0  0  0  0  0  0
  -28.5020  -26.8210   20.1370 O   0  0  0  0  0  0  0  0  0  0  0  0
  -24.6190  -31.9310   23.2700 C   0  0  0  0  0  0  0  0  0  0  0  0
  -27.3210  -27.5220   20.2020 C   0  0  0  0  0  0  0  0  0  0  0  0
  -23.4340  -30.5200   21.6190 C   0  0  0  0  0  3  0  0  0  0  0  0
  -24.9100  -28.9940   20.2050 C   0  0  0  0  0  0  0  0  0  0  0  0
  -25.9560  -30.9050   21.4330 C   0  0  0  0  0  2  0  0  0  0  0  0
  -26.0580  -29.5330   20.7990 C   0  0  0  0  0  0  0  0  0  0  0  0
  -27.2690  -28.8030   20.7970 C   0  0  0  0  0  3  0  0  0  0  0  0
  -26.1600  -26.9930   19.6040 C   0  0  0  0  0  3  0  0  0  0  0  0
  -24.9540  -27.7200   19.6070 C   0  0  0  0  0  3  0  0  0  0  0  0
  -23.6580  -29.8410   20.2410 C   0  0  0  0  0  2  0  0  0  0  0  0
  -24.6880  -31.1350   22.1660 N   0  0  0  0  0  0  0  0  0  0  0  0
  -23.5340  -32.1920   23.8060 O   0  0  0  0  0  0  0  0  0  0  0  0
  -22.7890  -29.4930   22.5760 C   0  0  0  0  0  0  0  0  0  0  0  0
  -21.4660  -29.3020   22.4440 N   0  0  0  0  0  0  0  0  0  0  0  0
  -23.4750  -28.8690   23.3900 O   0  0  0  0  0  0  0  0  0  0  0  0
  -20.9740  -29.8570   21.7580 H   0  0  0  0  0  0  0  0  0  0  0  0
  -18.0970  -28.0940   22.9350 C   0  0  0  0  0  0  0  0  0  0  0  0
  -20.6540  -28.3560   23.2080 C   0  0  0  0  0  3  0  0  0  0  0  0
  -20.7600  -26.9300   22.6210 C   0  0  0  0  0  2  0  0  0  0  0  0
  -19.6580  -26.6130   21.6050 C   0  0  0  0  0  2  0  0  0  0  0  0
  -18.2760  -26.7500   22.2510 C   0  0  0  0  0  2  0  0  0  0  0  0
  -19.2140  -28.8560   23.3710 C   0  0  0  0  0  0  0  0  0  0  0  0
  -18.9930  -30.1150   23.9700 C   0  0  0  0  0  3  0  0  0  0  0  0
  -17.6870  -30.6130   24.1390 C   0  0  0  0  0  3  0  0  0  0  0  0
  -16.5840  -29.8490   23.7210 C   0  0  0  0  0  3  0  0  0  0  0  0
  -16.7900  -28.5910   23.1250 C   0  0  0  0  0  3  0  0  0  0  0  0
  -25.8980  -32.5720   23.8960 C   0  0  0  0  0  3  0  0  0  0  0  0
  -25.5820  -33.9720   24.2100 N   0  0  0  0  0  0  0  0  0  0  0  0
  -25.9190  -35.0180   23.4430 C   0  0  0  0  0  0  0  0  0  0  0  0
  -26.6000  -34.9060   22.4190 O   0  0  0  0  0  0  0  0  0  0  0  0
  -24.9790  -34.1330   25.0040 H   0  0  0  0  0  0  0  0  0  0  0  0
  -24.1890  -36.8000   23.0500 C   0  0  0  0  0  1  0  0  0  0  0  0
  -25.4220  -36.4080   23.8800 C   0  0  0  0  0  3  0  0  0  0  0  0
  -27.5430  -37.3090   24.7270 C   0  0  0  0  0  1  0  0  0  0  0  0
  -26.4530  -37.4630   23.7680 N   0  0  0  0  0  0  0  0  0  0  0  0
  -26.0420  -38.3840   23.9010 H   0  0  0  0  0  0  0  0  0  0  0  0
  -26.4080  -31.8130   25.1820 C   0  0  1  0  0  0  0  0  0  0  0  0
  -25.3080  -31.5790   26.2430 C   0  0  0  0  0  1  0  0  0  0  0  0
  -26.9990  -30.4360   24.8020 C   0  0  0  0  0  1  0  0  0  0  0  0
  -27.5510  -32.6160   25.8470 C   0  0  0  0  0  1  0  0  0  0  0  0
  2  1  1  0
  2 49  1  0
  3  9  1  0
  3  1  2  0
  4  2  2  0
  5  4  1  0
  6  7  1  0
  7  4  1  0
  7  3  1  0
  9  8  1  0
  9 10  1  0
 11 19  1  0
 12 17  1  0
 13 14  1  0
 13 12  1  0
 15 14  1  0
 15 24  1  0
 15 16  1  0
 17 11  1  0
 17 16  1  0
 18 11  2  0
 19 20  1  0
 19 10  1  0
 21 22  2  0
 22 41  1  0
 23 22  1  0
 23 26  1  0
 24 21  1  0
 24 25  1  0
 25 23  2  0
 26 27  1  0
 27 28  2  0
 29 32  1  0
 29 28  1  0
 30 29  2  0
 31 30  1  0
 31 26  2  0
 32 33  1  0
 33 34  1  0
 34 35  2  0
 36 35  1  0
 36 40  1  0
 37 36  2  0
 38 33  2  0
 38 37  1  0
 39 38  1  0
 41 42  1  0
 42 45  1  0
 42 44  1  0
 43 41  2  0
 46 47  1  0
 46 21  1  0
 48 46  1  0
 49 50  1  0
 51 52  1  0
 51 50  1  0
 53 55  1  0
 53 52  1  0
 54 65  2  0
 55 60  1  0
 56 64  1  0
 56 66  1  0
 57 63  1  0
 57 59  1  0
 58 64  1  0
 59 58  1  0
 60 59  2  0
 61 62  1  0
 61 55  2  0
 62 57  2  0
 63 56  1  0
 64 54  1  0
 66 68  2  0
 67 66  1  0
 69 67  1  0
 70 79  2  0
 70 75  1  0
 71 67  1  0
 71 75  1  0
 72 71  1  0
 73 74  1  0
 73 72  1  0
 74 70  1  0
 75 76  2  0
 76 77  1  0
 78 77  2  0
 79 78  1  0
 80 54  1  0
 80 81  1  0
 80 90  1  0
 81 84  1  0
 82 86  1  0
 82 81  1  0
 83 82  2  0
 86 85  1  0
 88 86  1  0
 88 89  1  0
 88 87  1  0
 90 93  1  1
 90 91  1  0
 92 90  1  0
M  ISO  4  11 100  19 100  52 101  53 101
M  END
>  <TORSDO>  (65) 
F 22

>  <SCORE>  (65) 
-13.501

>  <name>  (65) 
64

>  <ligand_id>  (65) 
64

>  <original_smiles>  (65) 
[H]c1c([H])c([H])c2c(c1[H])C([H])([H])C([H])([H])C([H])([H])C2([H])N([H])C(=O)C1([H])N(C(=O)C([H])(N([H])C(=O)C([H])(N([H])C([H])([H])[H])C([H])([H])[H])C(C([H])([H])[H])(C([H])([H])[H])C([H])([H])[H])C([H])([H])c2c([H])c(OC([H])([H])C([H])([H])C([H])([H])C([H])([H])c3c([H])c(C([H])(C([H])([H])[H])C([H])([H])N([H])C(=O)N4C([H])([H])C([H])([H])C([H])([H])C([H])(n5nc(-c6c([H])c([H])c(Oc7c([H])c([H])c(F)c([H])c7F)c([H])c6[H])c(C(=O)N([H])[H])c5N([H])[H])C4([H])[H])n(C([H])([H])[H])c3C([H])([H])[H])c([H])c([H])c2C1([H])[H]

>  <smiles>  (65) 
[H]c1c([H])c([H])c2c(c1[H])C([H])([H])C([H])([H])C([H])([H])C2([H])N([H])C(=O)C1([H])N(C(=O)C([H])(N([H])C(=O)C([H])(N([H])C([H])([H])[H])C([H])([H])[H])C(C([H])([H])[H])(C([H])([H])[H])C([H])([H])[H])C([H])([H])c2c([H])c(OC([H])([H])C([H])([H])C([H])([H])C([H])([H])c3c([H])c(C([H])(C([H])([H])[H])C([H])([H])N([H])C(=O)N4C([H])([H])C([H])([H])C([H])([H])C([H])(n5nc(-c6c([H])c([H])c(Oc7c([H])c([H])c(F)c([H])c7F)c([H])c6[H])c(C(=O)N([H])[H])c5N([H])[H])C4([H])[H])n(C([H])([H])[H])c3C([H])([H])[H])c([H])c([H])c2C1([H])[H]

$$$$
65:0:0
     RDKit          3D

 93101  0  0  1  0  0  0  0  0999 V2000
  -30.5450  -22.3770   21.8110 C   0  0  0  0  0  3  0  0  0  0  0  0
  -31.3140  -21.3820   22.3640 C   0  0  0  0  0  0  0  0  0  0  0  0
  -30.0470  -20.4840   20.7430 C   0  0  0  0  0  0  0  0  0  0  0  0
  -32.3040  -21.4130   23.4920 C   0  0  0  0  0  1  0  0  0  0  0  0
  -29.7840  -21.8230   20.8130 N   0  0  0  0  0  0  0  0  0  0  0  0
  -30.9800  -20.2400   21.6760 N   0  0  0  0  0  0  0  0  0  0  0  0
  -31.3660  -19.3240   21.8710 H   0  0  0  0  0  0  0  0  0  0  0  0
  -29.3900  -19.4330   19.8490 C   0  0  0  0  0  3  0  0  0  0  0  0
  -29.9320  -17.9460   19.7410 C   0  0  0  0  0  2  0  0  0  0  0  0
  -29.8650  -17.0160   20.9950 C   0  0  0  0  0  2  0  0  0  0  0  0
  -30.5130  -14.5730   20.2870 C   0  0  0  0  0  0  0  0  0  0  0  0
  -30.2640  -12.4040   19.1160 C   0  0  0  0  0  2  0  0  0  0  0  0
  -29.2740  -12.6070   17.9510 C   0  0  0  0  0  2  0  0  0  0  0  0
  -27.8080  -12.4720   18.4160 C   0  0  0  0  0  2  0  0  0  0  0  0
  -27.5030  -13.2590   19.7180 C   0  0  0  0  0  3  0  0  0  0  0  0
  -28.5980  -13.0130   20.7830 C   0  0  0  0  0  2  0  0  0  0  0  0
  -29.8980  -13.3570   20.1770 N   0  0  0  0  0  0  0  0  0  0  0  0
  -31.6370  -14.7950   19.8310 O   0  0  0  0  0  0  0  0  0  0  0  0
  -29.7130  -15.5520   20.7770 N   0  0  0  0  0  0  0  0  0  0  0  0
  -28.8290  -15.1940   21.1110 H   0  0  0  0  0  0  0  0  0  0  0  0
  -25.1140  -13.8270   20.4770 C   0  0  0  0  0  0  0  0  0  0  0  0
  -24.0640  -13.0390   20.8710 C   0  0  0  0  0  0  0  0  0  0  0  0
  -24.5420  -11.6950   20.8320 C   0  0  0  0  0  0  0  0  0  0  0  0
  -26.1640  -12.9590   20.2240 N   0  0  0  0  0  0  0  0  0  0  0  0
  -25.8250  -11.6720   20.4920 N   0  0  0  0  0  0  0  0  0  0  0  0
  -23.8340  -10.4210   21.0360 C   0  0  0  0  0  0  0  0  0  0  0  0
  -24.2980   -9.4500   21.9490 C   0  0  0  0  0  3  0  0  0  0  0  0
  -23.5810   -8.2470   22.1410 C   0  0  0  0  0  3  0  0  0  0  0  0
  -22.3870   -8.0080   21.4190 C   0  0  0  0  0  0  0  0  0  0  0  0
  -21.9460   -8.9670   20.4890 C   0  0  0  0  0  3  0  0  0  0  0  0
  -22.6650  -10.1590   20.2950 C   0  0  0  0  0  3  0  0  0  0  0  0
  -21.6410   -6.8580   21.5230 O   0  0  0  0  0  0  0  0  0  0  0  0
  -21.6350   -6.1020   22.6680 C   0  0  0  0  0  0  0  0  0  0  0  0
  -21.2500   -6.6400   23.9170 C   0  0  0  0  0  3  0  0  0  0  0  0
  -21.2000   -5.8120   25.0560 C   0  0  0  0  0  3  0  0  0  0  0  0
  -21.5170   -4.4440   24.9470 C   0  0  0  0  0  0  0  0  0  0  0  0
  -21.8910   -3.9050   23.7030 C   0  0  0  0  0  3  0  0  0  0  0  0
  -21.9470   -4.7320   22.5680 C   0  0  0  0  0  0  0  0  0  0  0  0
  -22.2890   -4.2010   21.3690 F   0  0  0  0  0  0  0  0  0  0  0  0
  -21.4570   -3.6450   26.0360 F   0  0  0  0  0  0  0  0  0  0  0  0
  -22.6680  -13.5010   21.1710 C   0  0  0  0  0  0  0  0  0  0  0  0
  -21.9630  -12.7980   22.0540 N   0  0  0  0  0  0  0  0  0  0  0  0
  -22.2080  -14.5170   20.6560 O   0  0  0  0  0  0  0  0  0  0  0  0
  -22.3410  -11.9730   22.4930 H   0  0  0  0  0  0  0  0  0  0  0  0
  -21.0250  -13.0910   22.2880 H   0  0  0  0  0  0  0  0  0  0  0  0
  -25.2590  -15.1990   20.2950 N   0  0  0  0  0  0  0  0  0  0  0  0
  -24.4920  -15.8480   20.4310 H   0  0  0  0  0  0  0  0  0  0  0  0
  -26.0830  -15.6430   19.9110 H   0  0  0  0  0  0  0  0  0  0  0  0
  -28.7500  -22.5510   20.0100 C   0  0  0  0  0  2  0  0  0  0  0  0
  -28.9320  -24.1110   19.7400 C   0  0  0  0  0  2  0  0  0  0  0  0
  -27.0850  -24.7470   21.4260 C   0  0  0  0  0  1  0  0  0  0  0  0
  -28.4020  -25.2010   20.7530 C   0  0  0  0  0  3  0  0  0  0  0  0
  -28.4300  -26.5840   20.2200 O   0  0  0  0  0  0  0  0  0  0  0  0
  -24.6320  -31.8840   23.2450 C   0  0  0  0  0  0  0  0  0  0  0  0
  -27.2830  -27.3810   20.1920 C   0  0  0  0  0  0  0  0  0  0  0  0
  -23.4390  -30.4870   21.5940 C   0  0  0  0  0  3  0  0  0  0  0  0
  -24.9040  -28.9530   20.1640 C   0  0  0  0  0  0  0  0  0  0  0  0
  -25.9740  -30.8230   21.4220 C   0  0  0  0  0  2  0  0  0  0  0  0
  -26.0620  -29.4510   20.7730 C   0  0  0  0  0  0  0  0  0  0  0  0
  -27.2550  -28.6770   20.7820 C   0  0  0  0  0  3  0  0  0  0  0  0
  -26.1180  -26.9360   19.5340 C   0  0  0  0  0  3  0  0  0  0  0  0
  -24.9310  -27.6980   19.5340 C   0  0  0  0  0  3  0  0  0  0  0  0
  -23.6580  -29.8160   20.2110 C   0  0  0  0  0  2  0  0  0  0  0  0
  -24.7000  -31.0820   22.1430 N   0  0  0  0  0  0  0  0  0  0  0  0
  -23.5470  -32.1520   23.7780 O   0  0  0  0  0  0  0  0  0  0  0  0
  -22.7850  -29.4590   22.5460 C   0  0  0  0  0  0  0  0  0  0  0  0
  -21.4610  -29.2740   22.4120 N   0  0  0  0  0  0  0  0  0  0  0  0
  -23.4650  -28.8320   23.3630 O   0  0  0  0  0  0  0  0  0  0  0  0
  -20.9750  -29.8210   21.7160 H   0  0  0  0  0  0  0  0  0  0  0  0
  -18.0860  -28.0830   22.9070 C   0  0  0  0  0  0  0  0  0  0  0  0
  -20.6450  -28.3360   23.1790 C   0  0  0  0  0  3  0  0  0  0  0  0
  -20.7460  -26.9090   22.5930 C   0  0  0  0  0  2  0  0  0  0  0  0
  -19.6440  -26.5960   21.5750 C   0  0  0  0  0  2  0  0  0  0  0  0
  -18.2610  -26.7390   22.2180 C   0  0  0  0  0  2  0  0  0  0  0  0
  -19.2060  -28.8390   23.3410 C   0  0  0  0  0  0  0  0  0  0  0  0
  -18.9900  -30.0990   23.9420 C   0  0  0  0  0  3  0  0  0  0  0  0
  -17.6880  -30.6010   24.1130 C   0  0  0  0  0  3  0  0  0  0  0  0
  -16.5820  -29.8410   23.6960 C   0  0  0  0  0  3  0  0  0  0  0  0
  -16.7820  -28.5830   23.0990 C   0  0  0  0  0  3  0  0  0  0  0  0
  -25.9130  -32.5160   23.8710 C   0  0  0  0  0  3  0  0  0  0  0  0
  -25.5990  -33.9120   24.2040 N   0  0  0  0  0  0  0  0  0  0  0  0
  -25.9240  -34.9690   23.4470 C   0  0  0  0  0  0  0  0  0  0  0  0
  -26.5940  -34.8730   22.4160 O   0  0  0  0  0  0  0  0  0  0  0  0
  -25.0030  -34.0650   25.0070 H   0  0  0  0  0  0  0  0  0  0  0  0
  -24.1820  -36.7460   23.0980 C   0  0  0  0  0  1  0  0  0  0  0  0
  -25.4270  -36.3530   23.9080 C   0  0  0  0  0  3  0  0  0  0  0  0
  -27.5570  -37.2500   24.7370 C   0  0  0  0  0  1  0  0  0  0  0  0
  -26.4530  -37.4140   23.7970 N   0  0  0  0  0  0  0  0  0  0  0  0
  -26.0380  -38.3290   23.9510 H   0  0  0  0  0  0  0  0  0  0  0  0
  -26.4260  -31.7420   25.1450 C   0  0  1  0  0  0  0  0  0  0  0  0
  -25.3290  -31.5000   26.2060 C   0  0  0  0  0  1  0  0  0  0  0  0
  -27.0150  -30.3660   24.7540 C   0  0  0  0  0  1  0  0  0  0  0  0
  -27.5710  -32.5400   25.8110 C   0  0  0  0  0  1  0  0  0  0  0  0
  1  2  2  0
  2  4  1  0
  3  5  1  0
  3  6  1  0
  5  1  1  0
  6  7  1  0
  6  2  1  0
  8  3  2  0
  9  8  1  0
  9 10  1  0
 11 19  1  0
 12 17  1  0
 13 14  1  0
 13 12  1  0
 15 14  1  0
 15 24  1  0
 15 16  1  0
 17 11  1  0
 17 16  1  0
 18 11  2  0
 19 10  1  0
 19 20  1  0
 21 22  2  0
 22 41  1  0
 23 22  1  0
 23 26  1  0
 24 21  1  0
 24 25  1  0
 25 23  2  0
 26 27  1  0
 27 28  2  0
 29 32  1  0
 29 28  1  0
 30 29  2  0
 31 30  1  0
 31 26  2  0
 32 33  1  0
 33 34  1  0
 34 35  2  0
 36 35  1  0
 36 40  1  0
 37 36  2  0
 38 33  2  0
 38 37  1  0
 39 38  1  0
 41 42  1  0
 42 45  1  0
 42 44  1  0
 43 41  2  0
 46 47  1  0
 46 21  1  0
 48 46  1  0
 49  5  1  0
 50 49  1  0
 50 52  1  0
 52 51  1  0
 53 52  1  0
 54 65  2  0
 55 53  1  0
 55 60  1  0
 56 64  1  0
 56 66  1  0
 57 63  1  0
 57 59  1  0
 58 64  1  0
 59 60  2  0
 59 58  1  0
 61 62  1  0
 61 55  2  0
 62 57  2  0
 63 56  1  0
 64 54  1  0
 66 68  2  0
 67 66  1  0
 69 67  1  0
 70 79  2  0
 70 75  1  0
 71 67  1  0
 71 75  1  0
 72 71  1  0
 73 74  1  0
 73 72  1  0
 74 70  1  0
 75 76  2  0
 76 77  1  0
 78 77  2  0
 79 78  1  0
 80 54  1  0
 80 81  1  0
 80 90  1  0
 81 84  1  0
 82 86  1  0
 82 81  1  0
 83 82  2  0
 86 85  1  0
 88 86  1  0
 88 89  1  0
 88 87  1  0
 90 93  1  1
 90 91  1  0
 92 90  1  0
M  ISO  4  11 100  19 100  52 101  53 101
M  END
>  <TORSDO>  (66) 
F 22

>  <SCORE>  (66) 
-13.257

>  <name>  (66) 
65

>  <ligand_id>  (66) 
65

>  <original_smiles>  (66) 
[H]c1c([H])c([H])c2c(c1[H])C([H])([H])C([H])([H])C([H])([H])C2([H])N([H])C(=O)C1([H])N(C(=O)C([H])(N([H])C(=O)C([H])(N([H])C([H])([H])[H])C([H])([H])[H])C(C([H])([H])[H])(C([H])([H])[H])C([H])([H])[H])C([H])([H])c2c([H])c(OC([H])(C([H])([H])[H])C([H])([H])C([H])([H])n3c([H])c(C([H])([H])[H])[n+]([H])c3C([H])([H])C([H])([H])C([H])([H])N([H])C(=O)N3C([H])([H])C([H])([H])C([H])([H])C([H])(n4nc(-c5c([H])c([H])c(Oc6c([H])c([H])c(F)c([H])c6F)c([H])c5[H])c(C(=O)N([H])[H])c4N([H])[H])C3([H])[H])c([H])c([H])c2C1([H])[H]

>  <smiles>  (66) 
[H]c1c([H])c([H])c2c(c1[H])C([H])([H])C([H])([H])C([H])([H])C2([H])N([H])C(=O)C1([H])N(C(=O)C([H])(N([H])C(=O)C([H])(N([H])C([H])([H])[H])C([H])([H])[H])C(C([H])([H])[H])(C([H])([H])[H])C([H])([H])[H])C([H])([H])c2c([H])c(OC([H])(C([H])([H])[H])C([H])([H])C([H])([H])n3c([H])c(C([H])([H])[H])[n+]([H])c3C([H])([H])C([H])([H])C([H])([H])N([H])C(=O)N3C([H])([H])C([H])([H])C([H])([H])C([H])(n4nc(-c5c([H])c([H])c(Oc6c([H])c([H])c(F)c([H])c6F)c([H])c5[H])c(C(=O)N([H])[H])c4N([H])[H])C3([H])[H])c([H])c([H])c2C1([H])[H]

$$$$
66:0:0
     RDKit          3D

 93101  0  0  1  0  0  0  0  0999 V2000
  -32.9330  -20.9980   21.3780 C   0  0  0  0  0  3  0  0  0  0  0  0
  -32.4790  -21.8690   20.3780 C   0  0  0  0  0  3  0  0  0  0  0  0
  -32.2440  -19.7880   21.5980 C   0  0  0  0  0  0  0  0  0  0  0  0
  -31.3570  -21.5010   19.6240 C   0  0  0  0  0  0  0  0  0  0  0  0
  -31.0930  -19.5020   20.8210 C   0  0  0  0  0  0  0  0  0  0  0  0
  -32.7830  -18.8290   22.6490 C   0  0  0  0  0  1  0  0  0  0  0  0
  -30.6800  -20.3450   19.8390 N   0  0  0  0  0  0  0  0  0  0  0  0
  -28.7610  -18.5100   21.0590 C   0  0  0  0  0  1  0  0  0  0  0  0
  -30.2670  -18.2100   21.0270 C   0  0  0  0  0  3  0  0  0  0  0  0
  -30.6420  -17.0990   20.0170 C   0  0  0  0  0  2  0  0  0  0  0  0
  -30.8770  -14.6190   20.0340 C   0  0  0  0  0  0  0  0  0  0  0  0
  -30.5000  -12.4520   18.9480 C   0  0  0  0  0  2  0  0  0  0  0  0
  -29.5390  -12.6590   17.7610 C   0  0  0  0  0  2  0  0  0  0  0  0
  -28.0730  -12.5430   18.2200 C   0  0  0  0  0  2  0  0  0  0  0  0
  -27.7710  -13.3890   19.4880 C   0  0  0  0  0  3  0  0  0  0  0  0
  -28.8540  -13.1960   20.5740 C   0  0  0  0  0  2  0  0  0  0  0  0
  -30.1660  -13.4630   19.9620 N   0  0  0  0  0  0  0  0  0  0  0  0
  -32.0230  -14.7170   19.5910 O   0  0  0  0  0  0  0  0  0  0  0  0
  -30.1990  -15.7300   20.3820 N   0  0  0  0  0  0  0  0  0  0  0  0
  -29.2510  -15.6120   20.7120 H   0  0  0  0  0  0  0  0  0  0  0  0
  -25.3880  -14.0050   20.2330 C   0  0  0  0  0  0  0  0  0  0  0  0
  -24.3280  -13.2380   20.6380 C   0  0  0  0  0  0  0  0  0  0  0  0
  -24.7910  -11.8860   20.6260 C   0  0  0  0  0  0  0  0  0  0  0  0
  -26.4300  -13.1190   19.9990 N   0  0  0  0  0  0  0  0  0  0  0  0
  -26.0740  -11.8420   20.2940 N   0  0  0  0  0  0  0  0  0  0  0  0
  -24.0710  -10.6260   20.8540 C   0  0  0  0  0  0  0  0  0  0  0  0
  -24.4950   -9.7030   21.8320 C   0  0  0  0  0  3  0  0  0  0  0  0
  -23.7780   -8.5060   22.0480 C   0  0  0  0  0  3  0  0  0  0  0  0
  -22.6210   -8.2260   21.2830 C   0  0  0  0  0  0  0  0  0  0  0  0
  -22.2150   -9.1380   20.2940 C   0  0  0  0  0  3  0  0  0  0  0  0
  -22.9330  -10.3270   20.0780 C   0  0  0  0  0  3  0  0  0  0  0  0
  -21.8740   -7.0780   21.4070 O   0  0  0  0  0  0  0  0  0  0  0  0
  -21.7750   -6.4080   22.5980 C   0  0  0  0  0  0  0  0  0  0  0  0
  -21.2740   -7.0300   23.7640 C   0  0  0  0  0  3  0  0  0  0  0  0
  -21.1240   -6.2850   24.9500 C   0  0  0  0  0  3  0  0  0  0  0  0
  -21.4610   -4.9180   24.9730 C   0  0  0  0  0  0  0  0  0  0  0  0
  -21.9520   -4.2960   23.8120 C   0  0  0  0  0  3  0  0  0  0  0  0
  -22.1060   -5.0390   22.6280 C   0  0  0  0  0  0  0  0  0  0  0  0
  -22.5600   -4.4290   21.5060 F   0  0  0  0  0  0  0  0  0  0  0  0
  -21.3100   -4.2000   26.1100 F   0  0  0  0  0  0  0  0  0  0  0  0
  -22.9350  -13.7170   20.9300 C   0  0  0  0  0  0  0  0  0  0  0  0
  -22.2290  -13.0430   21.8330 N   0  0  0  0  0  0  0  0  0  0  0  0
  -22.4800  -14.7250   20.3910 O   0  0  0  0  0  0  0  0  0  0  0  0
  -22.6090  -12.2280   22.2900 H   0  0  0  0  0  0  0  0  0  0  0  0
  -21.2930  -13.3430   22.0670 H   0  0  0  0  0  0  0  0  0  0  0  0
  -25.5510  -15.3710   20.0190 N   0  0  0  0  0  0  0  0  0  0  0  0
  -24.7930  -16.0350   20.1310 H   0  0  0  0  0  0  0  0  0  0  0  0
  -26.3930  -15.7940   19.6470 H   0  0  0  0  0  0  0  0  0  0  0  0
  -30.8970  -22.3860   18.4730 C   0  0  0  0  0  2  0  0  0  0  0  0
  -29.6240  -23.2140   18.7460 C   0  0  0  0  0  2  0  0  0  0  0  0
  -29.8330  -24.6560   19.2760 C   0  0  0  0  0  2  0  0  0  0  0  0
  -28.5150  -25.4500   19.1790 C   0  0  0  0  0  2  0  0  0  0  0  0
  -28.5600  -26.7970   19.6750 O   0  0  0  0  0  0  0  0  0  0  0  0
  -24.5720  -31.6570   23.0650 C   0  0  0  0  0  0  0  0  0  0  0  0
  -27.3520  -27.4800   19.7190 C   0  0  0  0  0  0  0  0  0  0  0  0
  -23.4000  -30.2940   21.3680 C   0  0  0  0  0  3  0  0  0  0  0  0
  -24.8960  -28.8960   19.8480 C   0  0  0  0  0  0  0  0  0  0  0  0
  -25.9080  -30.7650   21.1570 C   0  0  0  0  0  2  0  0  0  0  0  0
  -26.0420  -29.4310   20.4480 C   0  0  0  0  0  0  0  0  0  0  0  0
  -27.2720  -28.7300   20.3830 C   0  0  0  0  0  3  0  0  0  0  0  0
  -26.1760  -26.9730   19.1110 C   0  0  0  0  0  3  0  0  0  0  0  0
  -24.9590  -27.6680   19.1740 C   0  0  0  0  0  3  0  0  0  0  0  0
  -23.6150  -29.6910   19.9550 C   0  0  0  0  0  2  0  0  0  0  0  0
  -24.6460  -30.9150   21.9230 N   0  0  0  0  0  0  0  0  0  0  0  0
  -23.4900  -31.8560   23.6310 O   0  0  0  0  0  0  0  0  0  0  0  0
  -22.7990  -29.2000   22.2790 C   0  0  0  0  0  0  0  0  0  0  0  0
  -21.4770  -28.9830   22.1680 N   0  0  0  0  0  0  0  0  0  0  0  0
  -23.5190  -28.5510   23.0430 O   0  0  0  0  0  0  0  0  0  0  0  0
  -20.9500  -29.5590   21.5270 H   0  0  0  0  0  0  0  0  0  0  0  0
  -18.1520  -27.6700   22.6760 C   0  0  0  0  0  0  0  0  0  0  0  0
  -20.7090  -27.9740   22.8990 C   0  0  0  0  0  3  0  0  0  0  0  0
  -20.8310  -26.5860   22.2280 C   0  0  0  0  0  2  0  0  0  0  0  0
  -19.7100  -26.3010   21.2230 C   0  0  0  0  0  2  0  0  0  0  0  0
  -18.3430  -26.3710   21.9110 C   0  0  0  0  0  2  0  0  0  0  0  0
  -19.2640  -28.4300   23.1260 C   0  0  0  0  0  0  0  0  0  0  0  0
  -19.0310  -29.6510   23.7970 C   0  0  0  0  0  3  0  0  0  0  0  0
  -17.7190  -30.1120   24.0210 C   0  0  0  0  0  3  0  0  0  0  0  0
  -16.6230  -29.3420   23.5930 C   0  0  0  0  0  3  0  0  0  0  0  0
  -16.8400  -28.1230   22.9270 C   0  0  0  0  0  3  0  0  0  0  0  0
  -25.8410  -32.3090   23.6980 C   0  0  0  0  0  3  0  0  0  0  0  0
  -25.4920  -33.6890   24.0620 N   0  0  0  0  0  0  0  0  0  0  0  0
  -25.8010  -34.7690   23.3310 C   0  0  0  0  0  0  0  0  0  0  0  0
  -26.4790  -34.7090   22.3010 O   0  0  0  0  0  0  0  0  0  0  0  0
  -24.8910  -33.8050   24.8650 H   0  0  0  0  0  0  0  0  0  0  0  0
  -24.0350  -36.5270   23.0010 C   0  0  0  0  0  1  0  0  0  0  0  0
  -25.2750  -36.1320   23.8190 C   0  0  0  0  0  3  0  0  0  0  0  0
  -27.3740  -37.0480   24.7040 C   0  0  0  0  0  1  0  0  0  0  0  0
  -26.2840  -37.2140   23.7470 N   0  0  0  0  0  0  0  0  0  0  0  0
  -25.8510  -38.1190   23.9100 H   0  0  0  0  0  0  0  0  0  0  0  0
  -26.3790  -31.5220   24.9540 C   0  0  1  0  0  0  0  0  0  0  0  0
  -25.2930  -31.2260   26.0160 C   0  0  0  0  0  1  0  0  0  0  0  0
  -26.9980  -30.1730   24.5260 C   0  0  0  0  0  1  0  0  0  0  0  0
  -27.5100  -32.3270   25.6340 C   0  0  0  0  0  1  0  0  0  0  0  0
  1  3  1  0
  2  1  2  0
  3  6  1  0
  4  7  2  0
  4  2  1  0
  5  9  1  0
  5  3  2  0
  7  5  1  0
  9  8  1  0
 10 19  1  0
 10  9  1  0
 11 19  1  0
 12 17  1  0
 13 14  1  0
 13 12  1  0
 15 14  1  0
 15 24  1  0
 15 16  1  0
 17 11  1  0
 17 16  1  0
 18 11  2  0
 19 20  1  0
 21 22  2  0
 22 41  1  0
 23 22  1  0
 23 26  1  0
 24 21  1  0
 24 25  1  0
 25 23  2  0
 26 27  1  0
 27 28  2  0
 29 32  1  0
 29 28  1  0
 30 29  2  0
 31 30  1  0
 31 26  2  0
 32 33  1  0
 33 38  2  0
 33 34  1  0
 34 35  2  0
 35 36  1  0
 36 40  1  0
 37 36  2  0
 38 37  1  0
 39 38  1  0
 41 42  1  0
 42 45  1  0
 42 44  1  0
 43 41  2  0
 46 47  1  0
 46 21  1  0
 48 46  1  0
 49 50  1  0
 49  4  1  0
 50 51  1  0
 52 51  1  0
 52 53  1  0
 53 55  1  0
 54 65  2  0
 55 60  1  0
 56 64  1  0
 56 66  1  0
 57 63  1  0
 57 59  1  0
 58 64  1  0
 59 58  1  0
 60 59  2  0
 61 62  1  0
 61 55  2  0
 62 57  2  0
 63 56  1  0
 64 54  1  0
 66 68  2  0
 67 66  1  0
 69 67  1  0
 70 79  2  0
 70 75  1  0
 71 67  1  0
 71 75  1  0
 72 71  1  0
 73 74  1  0
 73 72  1  0
 74 70  1  0
 75 76  2  0
 76 77  1  0
 78 77  2  0
 79 78  1  0
 80 54  1  0
 80 81  1  0
 80 90  1  0
 81 84  1  0
 82 86  1  0
 82 81  1  0
 83 82  2  0
 86 85  1  0
 88 86  1  0
 88 89  1  0
 88 87  1  0
 90 93  1  1
 90 91  1  0
 92 90  1  0
M  ISO  4  11 100  19 100  52 101  53 101
M  END
>  <TORSDO>  (67) 
F 22

>  <SCORE>  (67) 
-11.336

>  <name>  (67) 
66

>  <ligand_id>  (67) 
66

>  <original_smiles>  (67) 
[H]c1c(C([H])([H])C([H])([H])C([H])([H])C([H])([H])Oc2c([H])c([H])c3c(c2[H])C([H])([H])N(C(=O)C([H])(N([H])C(=O)C([H])(N([H])C([H])([H])[H])C([H])([H])[H])C(C([H])([H])[H])(C([H])([H])[H])C([H])([H])[H])C([H])(C(=O)N([H])C2([H])c4c([H])c([H])c([H])c([H])c4C([H])([H])C([H])([H])C2([H])[H])C3([H])[H])nc(C([H])(C([H])([H])[H])C([H])([H])N([H])C(=O)N2C([H])([H])C([H])([H])C([H])([H])C([H])(n3nc(-c4c([H])c([H])c(Oc5c([H])c([H])c(F)c([H])c5F)c([H])c4[H])c(C(=O)N([H])[H])c3N([H])[H])C2([H])[H])c(C([H])([H])[H])c1[H]

>  <smiles>  (67) 
[H]c1c(C([H])([H])C([H])([H])C([H])([H])C([H])([H])Oc2c([H])c([H])c3c(c2[H])C([H])([H])N(C(=O)C([H])(N([H])C(=O)C([H])(N([H])C([H])([H])[H])C([H])([H])[H])C(C([H])([H])[H])(C([H])([H])[H])C([H])([H])[H])C([H])(C(=O)N([H])C2([H])c4c([H])c([H])c([H])c([H])c4C([H])([H])C([H])([H])C2([H])[H])C3([H])[H])nc(C([H])(C([H])([H])[H])C([H])([H])N([H])C(=O)N2C([H])([H])C([H])([H])C([H])([H])C([H])(n3nc(-c4c([H])c([H])c(Oc5c([H])c([H])c(F)c([H])c5F)c([H])c4[H])c(C(=O)N([H])[H])c3N([H])[H])C2([H])[H])c(C([H])([H])[H])c1[H]

$$$$
67:0:0
     RDKit          3D

 97105  0  0  1  0  0  0  0  0999 V2000
  -28.4180  -19.4260   19.7230 C   0  0  0  0  0  3  0  0  0  0  0  0
  -27.6210  -20.5800   19.5950 C   0  0  0  0  0  0  0  0  0  0  0  0
  -29.6140  -19.7790   20.2910 C   0  0  0  0  0  0  0  0  0  0  0  0
  -28.2730  -21.6500   20.1120 C   0  0  0  0  0  0  0  0  0  0  0  0
  -27.7100  -23.0310   20.2900 C   0  0  0  0  0  1  0  0  0  0  0  0
  -29.5820  -21.2520   20.4450 N   0  0  0  0  0  0  0  0  0  0  0  0
  -31.8670  -19.1980   21.3530 C   0  0  0  0  0  1  0  0  0  0  0  0
  -31.2560  -18.2620   19.1340 C   0  0  0  0  0  1  0  0  0  0  0  0
  -30.6940  -18.6470   20.5120 C   0  0  2  0  0  0  0  0  0  0  0  0
  -30.2510  -17.2430   21.2500 C   0  0  0  0  0  2  0  0  0  0  0  0
  -30.6670  -14.7980   20.2960 C   0  0  0  0  0  0  0  0  0  0  0  0
  -30.4350  -12.5960   19.1130 C   0  0  0  0  0  2  0  0  0  0  0  0
  -29.4390  -12.7380   17.9410 C   0  0  0  0  0  2  0  0  0  0  0  0
  -27.9880  -12.5450   18.4230 C   0  0  0  0  0  2  0  0  0  0  0  0
  -27.6710  -13.3560   19.7080 C   0  0  0  0  0  3  0  0  0  0  0  0
  -28.7740  -13.1840   20.7710 C   0  0  0  0  0  2  0  0  0  0  0  0
  -30.0370  -13.5820   20.1410 N   0  0  0  0  0  0  0  0  0  0  0  0
  -31.8630  -14.9080   20.0120 O   0  0  0  0  0  0  0  0  0  0  0  0
  -29.8840  -15.9090   20.5910 N   0  0  0  0  0  0  0  0  0  0  0  0
  -28.8970  -15.7080   20.6070 H   0  0  0  0  0  0  0  0  0  0  0  0
  -25.3130  -13.9200   20.5400 C   0  0  0  0  0  0  0  0  0  0  0  0
  -24.2600  -13.1310   20.9190 C   0  0  0  0  0  0  0  0  0  0  0  0
  -24.7280  -11.7830   20.8330 C   0  0  0  0  0  0  0  0  0  0  0  0
  -26.3480  -13.0490   20.2390 N   0  0  0  0  0  0  0  0  0  0  0  0
  -26.0070  -11.7580   20.4840 N   0  0  0  0  0  0  0  0  0  0  0  0
  -24.0110  -10.5130   21.0090 C   0  0  0  0  0  0  0  0  0  0  0  0
  -24.4280   -9.5550   21.9590 C   0  0  0  0  0  3  0  0  0  0  0  0
  -23.7110   -8.3490   22.1200 C   0  0  0  0  0  3  0  0  0  0  0  0
  -22.5650   -8.0950   21.3320 C   0  0  0  0  0  0  0  0  0  0  0  0
  -22.1670   -9.0420   20.3720 C   0  0  0  0  0  3  0  0  0  0  0  0
  -22.8850  -10.2390   20.2090 C   0  0  0  0  0  3  0  0  0  0  0  0
  -21.8200   -6.9430   21.4030 O   0  0  0  0  0  0  0  0  0  0  0  0
  -21.7240   -6.2170   22.5630 C   0  0  0  0  0  0  0  0  0  0  0  0
  -21.1650   -6.7620   23.7390 C   0  0  0  0  0  3  0  0  0  0  0  0
  -21.0230   -5.9590   24.8890 C   0  0  0  0  0  3  0  0  0  0  0  0
  -21.4320   -4.6120   24.8630 C   0  0  0  0  0  0  0  0  0  0  0  0
  -21.9860   -4.0670   23.6910 C   0  0  0  0  0  3  0  0  0  0  0  0
  -22.1300   -4.8670   22.5440 C   0  0  0  0  0  0  0  0  0  0  0  0
  -22.6430   -4.3310   21.4100 F   0  0  0  0  0  0  0  0  0  0  0  0
  -21.2900   -3.8380   25.9640 F   0  0  0  0  0  0  0  0  0  0  0  0
  -22.8730  -13.5970   21.2440 C   0  0  0  0  0  0  0  0  0  0  0  0
  -22.1660  -12.8610   22.0970 N   0  0  0  0  0  0  0  0  0  0  0  0
  -22.4230  -14.6410   20.7790 O   0  0  0  0  0  0  0  0  0  0  0  0
  -22.5430  -12.0140   22.4930 H   0  0  0  0  0  0  0  0  0  0  0  0
  -21.2340  -13.1530   22.3580 H   0  0  0  0  0  0  0  0  0  0  0  0
  -25.4670  -15.2930   20.3940 N   0  0  0  0  0  0  0  0  0  0  0  0
  -24.7010  -15.9410   20.5440 H   0  0  0  0  0  0  0  0  0  0  0  0
  -26.2930  -15.7480   20.0280 H   0  0  0  0  0  0  0  0  0  0  0  0
  -26.3280  -20.6370   19.0660 N   0  0  0  0  0  0  0  0  0  0  0  0
  -25.7230  -21.2950   19.5530 H   0  0  0  0  0  0  0  0  0  0  0  0
  -26.5350  -22.1790   17.1460 C   0  0  0  0  0  1  0  0  0  0  0  0
  -24.8490  -20.2990   17.1480 C   0  0  0  0  0  1  0  0  0  0  0  0
  -26.2390  -20.7450   17.6140 C   0  0  0  0  0  3  0  0  0  0  0  0
  -30.5610  -22.3070   20.9860 C   0  0  0  0  0  2  0  0  0  0  0  0
  -30.5350  -23.8690   20.4830 C   0  0  0  0  0  3  0  0  0  0  0  0
  -29.9070  -25.0910   21.3590 C   0  0  0  0  0  3  0  0  0  0  0  0
  -29.9760  -26.5300   20.9120 O   0  0  0  0  0  0  0  0  0  0  0  0
  -25.1080  -31.2460   23.4900 C   0  0  0  0  0  0  0  0  0  0  0  0
  -28.7710  -27.2430   20.7510 C   0  0  0  0  0  0  0  0  0  0  0  0
  -24.3620  -29.7310   21.6880 C   0  0  0  0  0  3  0  0  0  0  0  0
  -26.2120  -28.4910   20.4310 C   0  0  0  0  0  0  0  0  0  0  0  0
  -26.8180  -30.4640   21.8310 C   0  0  0  0  0  2  0  0  0  0  0  0
  -27.2060  -29.1350   21.1810 C   0  0  0  0  0  0  0  0  0  0  0  0
  -28.4940  -28.5260   21.3260 C   0  0  0  0  0  3  0  0  0  0  0  0
  -27.7570  -26.6620   19.9610 C   0  0  0  0  0  3  0  0  0  0  0  0
  -26.4910  -27.2660   19.8070 C   0  0  0  0  0  3  0  0  0  0  0  0
  -24.8520  -29.1530   20.3330 C   0  0  0  0  0  2  0  0  0  0  0  0
  -25.4370  -30.4990   22.3960 N   0  0  0  0  0  0  0  0  0  0  0  0
  -23.9370  -31.3250   23.8900 O   0  0  0  0  0  0  0  0  0  0  0  0
  -23.7680  -28.5840   22.5420 C   0  0  0  0  0  0  0  0  0  0  0  0
  -22.5450  -28.1430   22.1990 N   0  0  0  0  0  0  0  0  0  0  0  0
  -24.4090  -28.0960   23.4770 O   0  0  0  0  0  0  0  0  0  0  0  0
  -22.0830  -28.5960   21.4260 H   0  0  0  0  0  0  0  0  0  0  0  0
  -19.4430  -26.2860   22.1520 C   0  0  0  0  0  0  0  0  0  0  0  0
  -21.8140  -27.0490   22.8390 C   0  0  0  0  0  3  0  0  0  0  0  0
  -22.2970  -25.6760   22.3180 C   0  0  0  0  0  2  0  0  0  0  0  0
  -21.4680  -25.1530   21.1410 C   0  0  0  0  0  2  0  0  0  0  0  0
  -19.9960  -25.0100   21.5420 C   0  0  0  0  0  2  0  0  0  0  0  0
  -20.2980  -27.2510   22.7470 C   0  0  0  0  0  0  0  0  0  0  0  0
  -19.7360  -28.4360   23.2720 C   0  0  0  0  0  3  0  0  0  0  0  0
  -18.3480  -28.6600   23.2120 C   0  0  0  0  0  3  0  0  0  0  0  0
  -17.5030  -27.6970   22.6350 C   0  0  0  0  0  3  0  0  0  0  0  0
  -18.0490  -26.5120   22.1100 C   0  0  0  0  0  3  0  0  0  0  0  0
  -26.1830  -32.0590   24.2750 C   0  0  0  0  0  3  0  0  0  0  0  0
  -25.6840  -33.4330   24.4180 N   0  0  0  0  0  0  0  0  0  0  0  0
  -26.0300  -34.4560   23.6240 C   0  0  0  0  0  0  0  0  0  0  0  0
  -26.8700  -34.3520   22.7260 O   0  0  0  0  0  0  0  0  0  0  0  0
  -24.9480  -33.5780   25.0950 H   0  0  0  0  0  0  0  0  0  0  0  0
  -24.1980  -36.0000   22.8520 C   0  0  0  0  0  1  0  0  0  0  0  0
  -25.3360  -35.8090   23.8680 C   0  0  0  0  0  3  0  0  0  0  0  0
  -27.1940  -37.0230   24.9180 C   0  0  0  0  0  1  0  0  0  0  0  0
  -26.2560  -36.9660   23.8000 N   0  0  0  0  0  0  0  0  0  0  0  0
  -25.7310  -37.8370   23.7840 H   0  0  0  0  0  0  0  0  0  0  0  0
  -26.5170  -31.4420   25.6890 C   0  0  1  0  0  0  0  0  0  0  0  0
  -25.2680  -31.1600   26.5550 C   0  0  0  0  0  1  0  0  0  0  0  0
  -27.2970  -30.1140   25.5400 C   0  0  0  0  0  1  0  0  0  0  0  0
  -27.4310  -32.4090   26.4810 C   0  0  0  0  0  1  0  0  0  0  0  0
  1  3  2  0
  2  1  1  0
  2  4  2  0
  3  6  1  0
  3  9  1  0
  4  5  1  0
  4  6  1  0
  6 54  1  0
  9  8  1  6
  9 10  1  0
  9  7  1  0
 11 19  1  0
 12 17  1  0
 13 14  1  0
 13 12  1  0
 15 14  1  0
 15 24  1  0
 15 16  1  0
 17 11  1  0
 17 16  1  0
 18 11  2  0
 19 20  1  0
 19 10  1  0
 21 22  2  0
 22 41  1  0
 23 22  1  0
 23 26  1  0
 24 25  1  0
 24 21  1  0
 25 23  2  0
 26 27  1  0
 27 28  2  0
 29 32  1  0
 29 28  1  0
 30 29  2  0
 31 30  1  0
 31 26  2  0
 32 33  1  0
 33 34  1  0
 34 35  2  0
 36 35  1  0
 36 40  1  0
 37 36  2  0
 38 33  2  0
 38 37  1  0
 39 38  1  0
 41 42  1  0
 42 45  1  0
 42 44  1  0
 43 41  2  0
 46 21  1  0
 46 47  1  0
 48 46  1  0
 49 50  1  0
 49  2  1  0
 51 53  1  0
 52 53  1  0
 53 49  1  0
 55 54  1  0
 55 56  2  0
 57 56  1  0
 58 69  2  0
 59 57  1  0
 59 64  1  0
 60 68  1  0
 60 70  1  0
 61 63  1  0
 62 68  1  0
 63 64  2  0
 63 62  1  0
 65 59  2  0
 66 65  1  0
 66 61  2  0
 67 61  1  0
 67 60  1  0
 68 58  1  0
 70 72  2  0
 71 70  1  0
 73 71  1  0
 74 79  1  0
 75 71  1  0
 76 75  1  0
 77 78  1  0
 77 76  1  0
 78 74  1  0
 79 75  1  0
 79 80  2  0
 81 80  1  0
 82 81  2  0
 83 74  2  0
 83 82  1  0
 84 58  1  0
 84 85  1  0
 84 94  1  0
 85 88  1  0
 86 90  1  0
 86 85  1  0
 87 86  2  0
 90 89  1  0
 92 90  1  0
 92 91  1  0
 93 92  1  0
 94 97  1  1
 94 95  1  0
 96 94  1  0
M  ISO  4  11 100  19 100  56 101  57 101
M  END
>  <TORSDO>  (68) 
F 23

>  <SCORE>  (68) 
-11.011

>  <name>  (68) 
67

>  <ligand_id>  (68) 
67

>  <original_smiles>  (68) 
[H]c1c([H])c([H])c2c(c1[H])C([H])([H])C([H])([H])C([H])([H])C2([H])N([H])C(=O)C1([H])N(C(=O)C([H])(N([H])C(=O)C([H])(N([H])C([H])([H])[H])C([H])([H])[H])C(C([H])([H])[H])(C([H])([H])[H])C([H])([H])[H])C([H])([H])c2c([H])c(OC([H])([H])C([H])([H])C([H])([H])n3c(C([H])([H])[H])c(N([H])C([H])(C([H])([H])[H])C([H])([H])[H])c([H])c3C(C([H])([H])[H])(C([H])([H])[H])C([H])([H])N([H])C(=O)N3C([H])([H])C([H])([H])C([H])([H])C([H])(n4nc(-c5c([H])c([H])c(Oc6c([H])c([H])c(F)c([H])c6F)c([H])c5[H])c(C(=O)N([H])[H])c4N([H])[H])C3([H])[H])c([H])c([H])c2C1([H])[H]

>  <smiles>  (68) 
[H]c1c([H])c([H])c2c(c1[H])C([H])([H])C([H])([H])C([H])([H])C2([H])N([H])C(=O)C1([H])N(C(=O)C([H])(N([H])C(=O)C([H])(N([H])C([H])([H])[H])C([H])([H])[H])C(C([H])([H])[H])(C([H])([H])[H])C([H])([H])[H])C([H])([H])c2c([H])c(OC([H])([H])C([H])([H])C([H])([H])n3c(C([H])([H])[H])c(N([H])C([H])(C([H])([H])[H])C([H])([H])[H])c([H])c3C(C([H])([H])[H])(C([H])([H])[H])C([H])([H])N([H])C(=O)N3C([H])([H])C([H])([H])C([H])([H])C([H])(n4nc(-c5c([H])c([H])c(Oc6c([H])c([H])c(F)c([H])c6F)c([H])c5[H])c(C(=O)N([H])[H])c4N([H])[H])C3([H])[H])c([H])c([H])c2C1([H])[H]

$$$$
68:0:0
     RDKit          3D

 94101  0  0  1  0  0  0  0  0999 V2000
  -28.6160  -22.9330   21.9300 C   0  0  0  0  0  3  0  0  0  0  0  0
  -28.9380  -20.8700   23.4250 C   0  0  0  0  0  1  0  0  0  0  0  0
  -30.8990  -22.1690   22.6800 C   0  0  0  0  0  1  0  0  0  0  0  0
  -29.5080  -21.6500   22.2140 C   0  0  2  0  0  0  0  0  0  0  0  0
  -28.3840  -20.4020   20.2030 C   0  0  0  0  0  1  0  0  0  0  0  0
  -29.6990  -20.6850   20.9680 C   0  0  0  0  0  3  0  0  0  0  0  0
  -30.3940  -19.3230   21.2990 C   0  0  0  0  0  2  0  0  0  0  0  0
  -30.7470  -18.4210   20.0800 C   0  0  0  0  0  2  0  0  0  0  0  0
  -30.1830  -16.9720   20.0840 C   0  0  0  0  0  2  0  0  0  0  0  0
  -31.5850  -14.9220   20.2260 C   0  0  0  0  0  0  0  0  0  0  0  0
  -31.2120  -12.7040   19.1910 C   0  0  0  0  0  2  0  0  0  0  0  0
  -30.2670  -12.8290   17.9800 C   0  0  0  0  0  2  0  0  0  0  0  0
  -28.7910  -12.7610   18.4230 C   0  0  0  0  0  2  0  0  0  0  0  0
  -28.4810  -13.7140   19.6060 C   0  0  0  0  0  3  0  0  0  0  0  0
  -29.5270  -13.5490   20.7300 C   0  0  0  0  0  2  0  0  0  0  0  0
  -30.8660  -13.7650   20.1520 N   0  0  0  0  0  0  0  0  0  0  0  0
  -32.6810  -15.0670   19.6770 O   0  0  0  0  0  0  0  0  0  0  0  0
  -31.1440  -16.2180   22.2620 C   0  0  0  0  0  1  0  0  0  0  0  0
  -30.9600  -15.9640   20.8360 N   0  0  0  0  0  0  0  0  0  0  0  0
  -26.1680  -14.4930   20.4260 C   0  0  0  0  0  0  0  0  0  0  0  0
  -25.0400  -13.7980   20.7730 C   0  0  0  0  0  0  0  0  0  0  0  0
  -25.3710  -12.4160   20.6360 C   0  0  0  0  0  0  0  0  0  0  0  0
  -27.1180  -13.5360   20.1050 N   0  0  0  0  0  0  0  0  0  0  0  0
  -26.6430  -12.2780   20.2870 N   0  0  0  0  0  0  0  0  0  0  0  0
  -24.5330  -11.2150   20.7590 C   0  0  0  0  0  0  0  0  0  0  0  0
  -24.8980  -10.1450   21.6060 C   0  0  0  0  0  3  0  0  0  0  0  0
  -24.0660   -9.0090   21.7220 C   0  0  0  0  0  3  0  0  0  0  0  0
  -22.8590   -8.9350   20.9880 C   0  0  0  0  0  0  0  0  0  0  0  0
  -22.5130   -9.9930   20.1300 C   0  0  0  0  0  3  0  0  0  0  0  0
  -23.3410  -11.1200   20.0130 C   0  0  0  0  0  3  0  0  0  0  0  0
  -22.0060   -7.8600   21.0140 O   0  0  0  0  0  0  0  0  0  0  0  0
  -21.8510   -7.0940   22.1410 C   0  0  0  0  0  0  0  0  0  0  0  0
  -21.4530   -7.6540   23.3740 C   0  0  0  0  0  3  0  0  0  0  0  0
  -21.2380   -6.8200   24.4880 C   0  0  0  0  0  3  0  0  0  0  0  0
  -21.4090   -5.4270   24.3700 C   0  0  0  0  0  0  0  0  0  0  0  0
  -21.8030   -4.8670   23.1420 C   0  0  0  0  0  3  0  0  0  0  0  0
  -22.0190   -5.6980   22.0290 C   0  0  0  0  0  0  0  0  0  0  0  0
  -22.3740   -5.1510   20.8420 F   0  0  0  0  0  0  0  0  0  0  0  0
  -21.1950   -4.6270   25.4390 F   0  0  0  0  0  0  0  0  0  0  0  0
  -23.6990  -14.3820   21.1150 C   0  0  0  0  0  0  0  0  0  0  0  0
  -22.9430  -13.7160   21.9820 N   0  0  0  0  0  0  0  0  0  0  0  0
  -23.3360  -15.4650   20.6580 O   0  0  0  0  0  0  0  0  0  0  0  0
  -23.2520  -12.8420   22.3820 H   0  0  0  0  0  0  0  0  0  0  0  0
  -22.0400  -14.0840   22.2490 H   0  0  0  0  0  0  0  0  0  0  0  0
  -26.4520  -15.8520   20.3400 N   0  0  0  0  0  0  0  0  0  0  0  0
  -25.7480  -16.5560   20.5380 H   0  0  0  0  0  0  0  0  0  0  0  0
  -27.3290  -16.2450   20.0250 H   0  0  0  0  0  0  0  0  0  0  0  0
  -29.1670  -23.8260   20.7830 C   0  0  0  0  0  2  0  0  0  0  0  0
  -28.5740  -25.2410   20.7240 C   0  0  0  0  0  2  0  0  0  0  0  0
  -29.1560  -26.0660   19.5650 C   0  0  0  0  0  2  0  0  0  0  0  0
  -29.0180  -27.4520   19.8450 O   0  0  0  0  0  0  0  0  0  0  0  0
  -24.7310  -31.6140   23.6650 C   0  0  0  0  0  0  0  0  0  0  0  0
  -27.7630  -28.0090   19.9310 C   0  0  0  0  0  0  0  0  0  0  0  0
  -23.6830  -30.4930   21.7280 C   0  0  0  0  0  3  0  0  0  0  0  0
  -25.2770  -29.3320   20.1180 C   0  0  0  0  0  0  0  0  0  0  0  0
  -26.1860  -31.0160   21.7310 C   0  0  0  0  0  2  0  0  0  0  0  0
  -26.3750  -29.7990   20.8510 C   0  0  0  0  0  0  0  0  0  0  0  0
  -27.6190  -29.1440   20.7560 C   0  0  0  0  0  3  0  0  0  0  0  0
  -26.6440  -27.5330   19.2120 C   0  0  0  0  0  3  0  0  0  0  0  0
  -25.4010  -28.1970   19.3000 C   0  0  0  0  0  3  0  0  0  0  0  0
  -23.9870  -30.1060   20.2580 C   0  0  0  0  0  2  0  0  0  0  0  0
  -24.8810  -31.0450   22.4370 N   0  0  0  0  0  0  0  0  0  0  0  0
  -23.6150  -31.7200   24.1920 O   0  0  0  0  0  0  0  0  0  0  0  0
  -23.0590  -29.2710   22.4380 C   0  0  0  0  0  0  0  0  0  0  0  0
  -21.7510  -29.0590   22.2190 N   0  0  0  0  0  0  0  0  0  0  0  0
  -23.7440  -28.5290   23.1470 O   0  0  0  0  0  0  0  0  0  0  0  0
  -21.2610  -29.7310   21.6460 H   0  0  0  0  0  0  0  0  0  0  0  0
  -18.4270  -27.6490   22.3040 C   0  0  0  0  0  0  0  0  0  0  0  0
  -20.9520  -27.9590   22.7540 C   0  0  0  0  0  3  0  0  0  0  0  0
  -21.1560  -26.6700   21.9220 C   0  0  0  0  0  2  0  0  0  0  0  0
  -20.1120  -26.4990   20.8120 C   0  0  0  0  0  2  0  0  0  0  0  0
  -18.6980  -26.4610   21.3980 C   0  0  0  0  0  2  0  0  0  0  0  0
  -19.4850  -28.3610   22.9290 C   0  0  0  0  0  0  0  0  0  0  0  0
  -19.1760  -29.4780   23.7330 C   0  0  0  0  0  3  0  0  0  0  0  0
  -17.8410  -29.8810   23.9250 C   0  0  0  0  0  3  0  0  0  0  0  0
  -16.7960  -29.1600   23.3200 C   0  0  0  0  0  3  0  0  0  0  0  0
  -17.0900  -28.0450   22.5140 C   0  0  0  0  0  3  0  0  0  0  0  0
  -25.9470  -32.1800   24.4600 C   0  0  0  0  0  3  0  0  0  0  0  0
  -26.3830  -31.2590   25.6630 C   0  0  1  0  0  0  0  0  0  0  0  0
  -25.2160  -30.8480   26.5930 C   0  0  0  0  0  1  0  0  0  0  0  0
  -27.0460  -29.9640   25.1400 C   0  0  0  0  0  1  0  0  0  0  0  0
  -27.4500  -31.9830   26.5190 C   0  0  0  0  0  1  0  0  0  0  0  0
  -25.5840  -33.5220   24.9370 N   0  0  0  0  0  0  0  0  0  0  0  0
  -25.9580  -34.6640   24.3460 C   0  0  0  0  0  0  0  0  0  0  0  0
  -26.7150  -34.6970   23.3710 O   0  0  0  0  0  0  0  0  0  0  0  0
  -24.9260  -33.5630   25.7030 H   0  0  0  0  0  0  0  0  0  0  0  0
  -24.2260  -36.4640   24.0600 C   0  0  0  0  0  1  0  0  0  0  0  0
  -25.4010  -35.9780   24.9250 C   0  0  0  0  0  3  0  0  0  0  0  0
  -27.4390  -36.7700   26.0400 C   0  0  0  0  0  1  0  0  0  0  0  0
  -26.4150  -37.0460   25.0350 N   0  0  0  0  0  0  0  0  0  0  0  0
  -25.9830  -37.9350   25.2640 H   0  0  0  0  0  0  0  0  0  0  0  0
  -27.0770  -22.6990   21.7670 C   0  0  0  0  0  2  0  0  0  0  0  0
  -24.7640  -23.8280   21.6670 C   0  0  0  0  0  1  0  0  0  0  0  0
  -26.2000  -23.8910   22.2130 C   0  0  0  0  0  2  0  0  0  0  0  0
  1 48  1  0
  1  4  1  0
  4  3  1  1
  4  2  1  0
  6  5  1  0
  6  7  1  0
  6  4  1  0
  8  9  1  0
  8  7  1  0
  9 19  1  0
 10 19  1  0
 11 16  1  0
 12 13  1  0
 12 11  1  0
 14 13  1  0
 14 23  1  0
 14 15  1  0
 16 10  1  0
 16 15  1  0
 17 10  2  0
 19 18  1  0
 20 21  2  0
 21 40  1  0
 22 25  1  0
 22 21  1  0
 23 24  1  0
 23 20  1  0
 24 22  2  0
 25 26  1  0
 26 27  2  0
 28 31  1  0
 28 27  1  0
 29 28  2  0
 30 29  1  0
 30 25  2  0
 31 32  1  0
 32 33  1  0
 33 34  2  0
 35 34  1  0
 35 39  1  0
 36 35  2  0
 37 32  2  0
 37 36  1  0
 38 37  1  0
 40 41  1  0
 41 44  1  0
 41 43  1  0
 42 40  2  0
 45 20  1  0
 45 46  1  0
 47 45  1  0
 49 48  1  0
 50 51  1  0
 50 49  1  0
 51 53  1  0
 52 63  2  0
 53 58  1  0
 54 62  1  0
 54 64  1  0
 55 61  1  0
 55 57  1  0
 56 62  1  0
 57 56  1  0
 58 57  2  0
 59 60  1  0
 59 53  2  0
 60 55  2  0
 61 54  1  0
 62 52  1  0
 64 66  2  0
 65 64  1  0
 67 65  1  0
 68 77  2  0
 68 73  1  0
 69 65  1  0
 69 73  1  0
 70 69  1  0
 71 72  1  0
 71 70  1  0
 72 68  1  0
 73 74  2  0
 74 75  1  0
 76 75  2  0
 77 76  1  0
 78 52  1  0
 78 83  1  0
 78 79  1  0
 79 82  1  1
 79 80  1  0
 81 79  1  0
 83 86  1  0
 84 88  1  0
 84 83  1  0
 85 84  2  0
 88 87  1  0
 88 90  1  0
 90 91  1  0
 90 89  1  0
 92  1  1  0
 92 94  1  0
 93 94  1  0
M  ISO  4  10 100  19 100  50 101  51 101
M  END
>  <TORSDO>  (69) 
F 26

>  <SCORE>  (69) 
-7.516

>  <name>  (69) 
68

>  <ligand_id>  (69) 
68

>  <original_smiles>  (69) 
[H]c1c([H])c([H])c2c(c1[H])C([H])([H])C([H])([H])C([H])([H])C2([H])N([H])C(=O)C1([H])N(C(=O)C([H])(N([H])C(=O)C([H])(N([H])C([H])([H])[H])C([H])([H])[H])C(C([H])([H])[H])(C([H])([H])[H])C([H])([H])[H])C([H])([H])c2c([H])c(OC([H])([H])C([H])([H])C([H])([H])C([H])(C([H])([H])C([H])([H])C([H])([H])[H])C(C([H])([H])[H])(C([H])([H])[H])C([H])(C([H])([H])[H])C([H])([H])C([H])([H])C([H])([H])N(C(=O)N3C([H])([H])C([H])([H])C([H])([H])C([H])(n4nc(-c5c([H])c([H])c(Oc6c([H])c([H])c(F)c([H])c6F)c([H])c5[H])c(C(=O)N([H])[H])c4N([H])[H])C3([H])[H])C([H])([H])[H])c([H])c([H])c2C1([H])[H]

>  <smiles>  (69) 
[H]c1c([H])c([H])c2c(c1[H])C([H])([H])C([H])([H])C([H])([H])C2([H])N([H])C(=O)C1([H])N(C(=O)C([H])(N([H])C(=O)C([H])(N([H])C([H])([H])[H])C([H])([H])[H])C(C([H])([H])[H])(C([H])([H])[H])C([H])([H])[H])C([H])([H])c2c([H])c(OC([H])([H])C([H])([H])C([H])([H])C([H])(C([H])([H])C([H])([H])C([H])([H])[H])C(C([H])([H])[H])(C([H])([H])[H])C([H])(C([H])([H])[H])C([H])([H])C([H])([H])C([H])([H])N(C(=O)N3C([H])([H])C([H])([H])C([H])([H])C([H])(n4nc(-c5c([H])c([H])c(Oc6c([H])c([H])c(F)c([H])c6F)c([H])c5[H])c(C(=O)N([H])[H])c4N([H])[H])C3([H])[H])C([H])([H])[H])c([H])c([H])c2C1([H])[H]

$$$$
69:0:0
     RDKit          3D

 98106  0  0  1  0  0  0  0  0999 V2000
  -29.2850  -22.0290   21.1810 C   0  0  0  0  0  3  0  0  0  0  0  0
  -28.1690  -22.7920   20.8300 C   0  0  0  0  0  3  0  0  0  0  0  0
  -29.6520  -20.8920   20.4320 C   0  0  0  0  0  0  0  0  0  0  0  0
  -27.4010  -22.4130   19.7250 C   0  0  0  0  0  0  0  0  0  0  0  0
  -28.8700  -20.4950   19.3090 C   0  0  0  0  0  0  0  0  0  0  0  0
  -27.7480  -21.2730   19.0020 N   0  0  0  0  0  0  0  0  0  0  0  0
  -29.3670  -19.2950   17.0770 C   0  0  0  0  0  1  0  0  0  0  0  0
  -27.7840  -18.2780   18.6570 C   0  0  0  0  0  1  0  0  0  0  0  0
  -29.1110  -19.0700   18.5860 C   0  0  2  0  0  0  0  0  0  0  0  0
  -30.3500  -18.1240   19.0800 C   0  0  0  0  0  2  0  0  0  0  0  0
  -31.0160  -15.5730   19.3430 C   0  0  0  0  0  0  0  0  0  0  0  0
  -30.9790  -13.1250   18.8860 C   0  0  0  0  0  2  0  0  0  0  0  0
  -29.9870  -12.8440   17.7370 C   0  0  0  0  0  2  0  0  0  0  0  0
  -28.5540  -12.6760   18.2810 C   0  0  0  0  0  2  0  0  0  0  0  0
  -28.1530  -13.7940   19.2790 C   0  0  0  0  0  3  0  0  0  0  0  0
  -29.2600  -14.0360   20.3280 C   0  0  0  0  0  2  0  0  0  0  0  0
  -30.4990  -14.3270   19.5980 N   0  0  0  0  0  0  0  0  0  0  0  0
  -32.1780  -15.7040   18.9540 O   0  0  0  0  0  0  0  0  0  0  0  0
  -30.1340  -16.6330   19.3300 N   0  0  0  0  0  0  0  0  0  0  0  0
  -29.1950  -16.3850   19.5990 H   0  0  0  0  0  0  0  0  0  0  0  0
  -25.8970  -14.4340   20.3250 C   0  0  0  0  0  0  0  0  0  0  0  0
  -24.8360  -13.6830   20.7510 C   0  0  0  0  0  0  0  0  0  0  0  0
  -25.2140  -12.3190   20.5550 C   0  0  0  0  0  0  0  0  0  0  0  0
  -26.8580  -13.5310   19.8980 N   0  0  0  0  0  0  0  0  0  0  0  0
  -26.4590  -12.2480   20.0990 N   0  0  0  0  0  0  0  0  0  0  0  0
  -24.4400  -11.0820   20.7200 C   0  0  0  0  0  0  0  0  0  0  0  0
  -24.8520  -10.0660   21.6100 C   0  0  0  0  0  3  0  0  0  0  0  0
  -24.0790   -8.8950   21.7660 C   0  0  0  0  0  3  0  0  0  0  0  0
  -22.8820   -8.7310   21.0310 C   0  0  0  0  0  0  0  0  0  0  0  0
  -22.4880   -9.7360   20.1290 C   0  0  0  0  0  3  0  0  0  0  0  0
  -23.2600  -10.8980   19.9710 C   0  0  0  0  0  3  0  0  0  0  0  0
  -22.0820   -7.6160   21.0990 O   0  0  0  0  0  0  0  0  0  0  0  0
  -21.8430   -6.9720   22.2870 C   0  0  0  0  0  0  0  0  0  0  0  0
  -21.2500   -7.6320   23.3860 C   0  0  0  0  0  3  0  0  0  0  0  0
  -20.9600   -6.9170   24.5650 C   0  0  0  0  0  3  0  0  0  0  0  0
  -21.2520   -5.5420   24.6440 C   0  0  0  0  0  0  0  0  0  0  0  0
  -21.8370   -4.8820   23.5490 C   0  0  0  0  0  3  0  0  0  0  0  0
  -22.1280   -5.5940   22.3730 C   0  0  0  0  0  0  0  0  0  0  0  0
  -22.6740   -4.9500   21.3130 F   0  0  0  0  0  0  0  0  0  0  0  0
  -20.9650   -4.8510   25.7720 F   0  0  0  0  0  0  0  0  0  0  0  0
  -23.5060  -14.2010   21.2170 C   0  0  0  0  0  0  0  0  0  0  0  0
  -22.8590  -13.4920   22.1350 N   0  0  0  0  0  0  0  0  0  0  0  0
  -23.0560  -15.2670   20.8010 O   0  0  0  0  0  0  0  0  0  0  0  0
  -23.2380  -12.6280   22.4930 H   0  0  0  0  0  0  0  0  0  0  0  0
  -21.9690  -13.8200   22.4860 H   0  0  0  0  0  0  0  0  0  0  0  0
  -26.1100  -15.8060   20.2390 N   0  0  0  0  0  0  0  0  0  0  0  0
  -25.3760  -16.4650   20.4690 H   0  0  0  0  0  0  0  0  0  0  0  0
  -26.8950  -16.2380   19.7730 H   0  0  0  0  0  0  0  0  0  0  0  0
  -30.8910  -20.1670   20.9380 C   0  0  0  0  0  2  0  0  0  0  0  0
  -32.1390  -21.0590   20.7840 C   0  0  0  0  0  2  0  0  0  0  0  0
  -33.8180  -20.2660   19.0770 C   0  0  0  0  0  1  0  0  0  0  0  0
  -33.4210  -18.8820   21.1270 C   0  0  0  0  0  1  0  0  0  0  0  0
  -33.4870  -20.3250   20.5810 C   0  0  2  0  0  0  0  0  0  0  0  0
  -34.4990  -21.2800   22.8110 C   0  0  0  0  0  1  0  0  0  0  0  0
  -34.6280  -21.1070   21.2870 C   0  0  0  0  0  2  0  0  0  0  0  0
  -26.1620  -23.3120   19.3330 C   0  0  0  0  0  2  0  0  0  0  0  0
  -26.0890  -24.8740   19.7950 C   0  0  0  0  0  2  0  0  0  0  0  0
  -26.3730  -26.2290   19.2370 O   0  0  0  0  0  0  0  0  0  0  0  0
  -24.8780  -31.7010   23.7540 C   0  0  0  0  0  0  0  0  0  0  0  0
  -25.5330  -27.2970   19.6060 C   0  0  0  0  0  0  0  0  0  0  0  0
  -23.0440  -30.9260   22.2960 C   0  0  0  0  0  3  0  0  0  0  0  0
  -23.7190  -29.3730   20.3800 C   0  0  0  0  0  0  0  0  0  0  0  0
  -25.4850  -30.6950   21.5400 C   0  0  0  0  0  2  0  0  0  0  0  0
  -25.0730  -29.4730   20.7240 C   0  0  0  0  0  0  0  0  0  0  0  0
  -25.9850  -28.4500   20.3230 C   0  0  0  0  0  3  0  0  0  0  0  0
  -24.1640  -27.2500   19.2620 C   0  0  0  0  0  3  0  0  0  0  0  0
  -23.2660  -28.2670   19.6440 C   0  0  0  0  0  3  0  0  0  0  0  0
  -22.7860  -30.4770   20.8350 C   0  0  0  0  0  2  0  0  0  0  0  0
  -24.5040  -31.1090   22.5830 N   0  0  0  0  0  0  0  0  0  0  0  0
  -24.0370  -32.1180   24.5640 O   0  0  0  0  0  0  0  0  0  0  0  0
  -22.3500  -29.9310   23.2550 C   0  0  0  0  0  0  0  0  0  0  0  0
  -21.0500  -29.6750   23.0270 N   0  0  0  0  0  0  0  0  0  0  0  0
  -22.9830  -29.3850   24.1620 O   0  0  0  0  0  0  0  0  0  0  0  0
  -20.5960  -30.1750   22.2770 H   0  0  0  0  0  0  0  0  0  0  0  0
  -17.9360  -27.8370   22.9540 C   0  0  0  0  0  0  0  0  0  0  0  0
  -20.2150  -28.7390   23.7790 C   0  0  0  0  0  3  0  0  0  0  0  0
  -20.7240  -27.2870   23.6270 C   0  0  0  0  0  2  0  0  0  0  0  0
  -20.0480  -26.5230   22.4840 C   0  0  0  0  0  2  0  0  0  0  0  0
  -18.5330  -26.4610   22.7060 C   0  0  0  0  0  2  0  0  0  0  0  0
  -18.7290  -28.9100   23.4420 C   0  0  0  0  0  0  0  0  0  0  0  0
  -18.1320  -30.1750   23.6250 C   0  0  0  0  0  3  0  0  0  0  0  0
  -16.7710  -30.3800   23.3270 C   0  0  0  0  0  3  0  0  0  0  0  0
  -15.9860  -29.3110   22.8580 C   0  0  0  0  0  3  0  0  0  0  0  0
  -16.5680  -28.0430   22.6790 C   0  0  0  0  0  3  0  0  0  0  0  0
  -26.3800  -31.9100   24.1220 C   0  0  0  0  0  3  0  0  0  0  0  0
  -26.5130  -33.2590   24.6910 N   0  0  0  0  0  0  0  0  0  0  0  0
  -27.0790  -34.3000   24.0660 C   0  0  0  0  0  0  0  0  0  0  0  0
  -27.6120  -34.2030   22.9570 O   0  0  0  0  0  0  0  0  0  0  0  0
  -26.0420  -33.4260   25.5690 H   0  0  0  0  0  0  0  0  0  0  0  0
  -25.9610  -36.5550   24.1720 C   0  0  0  0  0  1  0  0  0  0  0  0
  -27.0540  -35.6630   24.7830 C   0  0  0  0  0  3  0  0  0  0  0  0
  -29.3880  -35.7340   25.5480 C   0  0  0  0  0  1  0  0  0  0  0  0
  -28.3510  -36.3750   24.7440 N   0  0  0  0  0  0  0  0  0  0  0  0
  -28.2450  -37.3330   25.0680 H   0  0  0  0  0  0  0  0  0  0  0  0
  -26.9320  -30.8250   25.1260 C   0  0  1  0  0  0  0  0  0  0  0  0
  -26.0590  -30.6430   26.3910 C   0  0  0  0  0  1  0  0  0  0  0  0
  -27.0470  -29.4440   24.4370 C   0  0  0  0  0  1  0  0  0  0  0  0
  -28.3600  -31.2100   25.5820 C   0  0  0  0  0  1  0  0  0  0  0  0
  2  1  1  0
  3 49  1  0
  3  1  2  0
  4  2  2  0
  5  3  1  0
  6  5  2  0
  6  4  1  0
  9  7  1  6
  9  8  1  0
  9 10  1  0
  9  5  1  0
 10 19  1  0
 11 17  1  0
 12 17  1  0
 13 14  1  0
 13 12  1  0
 15 14  1  0
 15 24  1  0
 15 16  1  0
 17 16  1  0
 18 11  2  0
 19 11  1  0
 19 20  1  0
 21 22  2  0
 22 41  1  0
 23 26  1  0
 23 22  1  0
 24 25  1  0
 24 21  1  0
 25 23  2  0
 26 27  1  0
 27 28  2  0
 29 32  1  0
 29 28  1  0
 30 29  2  0
 31 30  1  0
 31 26  2  0
 32 33  1  0
 33 38  2  0
 33 34  1  0
 34 35  2  0
 35 36  1  0
 36 40  1  0
 37 36  2  0
 38 37  1  0
 39 38  1  0
 41 42  1  0
 42 45  1  0
 42 44  1  0
 43 41  2  0
 46 21  1  0
 46 47  1  0
 48 46  1  0
 50 49  1  0
 53 51  1  6
 53 50  1  0
 53 52  1  0
 53 55  1  0
 55 54  1  0
 56  4  1  0
 56 57  1  0
 58 60  1  0
 58 57  1  0
 59 70  2  0
 60 65  1  0
 61 69  1  0
 61 71  1  0
 62 64  1  0
 62 68  1  0
 63 69  1  0
 64 63  1  0
 65 64  2  0
 66 60  2  0
 66 67  1  0
 67 62  2  0
 68 61  1  0
 69 59  1  0
 71 73  2  0
 72 71  1  0
 74 72  1  0
 75 80  1  0
 76 72  1  0
 77 76  1  0
 78 79  1  0
 78 77  1  0
 79 75  1  0
 80 81  2  0
 80 76  1  0
 82 81  1  0
 83 82  2  0
 84 83  1  0
 84 75  2  0
 85 59  1  0
 85 86  1  0
 85 95  1  0
 86 89  1  0
 87 86  1  0
 87 91  1  0
 88 87  2  0
 91 90  1  0
 93 91  1  0
 93 94  1  0
 93 92  1  0
 95 98  1  1
 95 96  1  0
 97 95  1  0
M  ISO  4  11 100  19 100  57 101  58 101
M  END
>  <TORSDO>  (70) 
F 24

>  <SCORE>  (70) 
-9.456

>  <name>  (70) 
69

>  <ligand_id>  (70) 
69

>  <original_smiles>  (70) 
[H]c1c(C([H])([H])C([H])([H])Oc2c([H])c([H])c3c(c2[H])C([H])([H])N(C(=O)C([H])(N([H])C(=O)C([H])(N([H])C([H])([H])[H])C([H])([H])[H])C(C([H])([H])[H])(C([H])([H])[H])C([H])([H])[H])C([H])(C(=O)N([H])C2([H])c4c([H])c([H])c([H])c([H])c4C([H])([H])C([H])([H])C2([H])[H])C3([H])[H])nc(C(C([H])([H])[H])(C([H])([H])[H])C([H])([H])N([H])C(=O)N2C([H])([H])C([H])([H])C([H])([H])C([H])(n3nc(-c4c([H])c([H])c(Oc5c([H])c([H])c(F)c([H])c5F)c([H])c4[H])c(C(=O)N([H])[H])c3N([H])[H])C2([H])[H])c(C([H])([H])C([H])([H])C(C([H])([H])[H])(C([H])([H])[H])C([H])([H])C([H])([H])[H])c1[H]

>  <smiles>  (70) 
[H]c1c(C([H])([H])C([H])([H])Oc2c([H])c([H])c3c(c2[H])C([H])([H])N(C(=O)C([H])(N([H])C(=O)C([H])(N([H])C([H])([H])[H])C([H])([H])[H])C(C([H])([H])[H])(C([H])([H])[H])C([H])([H])[H])C([H])(C(=O)N([H])C2([H])c4c([H])c([H])c([H])c([H])c4C([H])([H])C([H])([H])C2([H])[H])C3([H])[H])nc(C(C([H])([H])[H])(C([H])([H])[H])C([H])([H])N([H])C(=O)N2C([H])([H])C([H])([H])C([H])([H])C([H])(n3nc(-c4c([H])c([H])c(Oc5c([H])c([H])c(F)c([H])c5F)c([H])c4[H])c(C(=O)N([H])[H])c3N([H])[H])C2([H])[H])c(C([H])([H])C([H])([H])C(C([H])([H])[H])(C([H])([H])[H])C([H])([H])C([H])([H])[H])c1[H]

$$$$
70:0:0
     RDKit          3D

 94102  0  0  1  0  0  0  0  0999 V2000
  -29.3250  -21.0130   20.8530 C   0  0  0  0  0  0  0  0  0  0  0  0
  -29.1010  -22.0870   18.3830 C   0  0  0  0  0  0  0  0  0  0  0  0
  -29.4360  -20.1600   19.7070 C   0  0  0  0  0  0  0  0  0  0  0  0
  -28.9080  -22.9300   19.5230 C   0  0  0  0  0  0  0  0  0  0  0  0
  -29.4070  -20.4760   22.2690 C   0  0  0  0  0  1  0  0  0  0  0  0
  -28.9350  -22.5950   16.9610 C   0  0  0  0  0  1  0  0  0  0  0  0
  -29.3610  -20.7490   18.4810 N   0  0  0  0  0  0  0  0  0  0  0  0
  -29.0840  -22.3650   20.7560 N   0  0  0  0  0  0  0  0  0  0  0  0
  -27.8580  -18.1680   19.8210 C   0  0  0  0  0  1  0  0  0  0  0  0
  -29.3340  -18.5770   19.6870 C   0  0  0  0  0  3  0  0  0  0  0  0
  -30.3070  -17.6340   20.5300 C   0  0  0  0  0  2  0  0  0  0  0  0
  -30.7990  -15.0990   20.0260 C   0  0  0  0  0  0  0  0  0  0  0  0
  -30.5620  -12.8750   18.9360 C   0  0  0  0  0  2  0  0  0  0  0  0
  -29.5460  -12.9830   17.7790 C   0  0  0  0  0  2  0  0  0  0  0  0
  -28.1020  -12.7960   18.2890 C   0  0  0  0  0  2  0  0  0  0  0  0
  -27.7970  -13.6400   19.5560 C   0  0  0  0  0  3  0  0  0  0  0  0
  -28.9220  -13.4960   20.6050 C   0  0  0  0  0  2  0  0  0  0  0  0
  -30.1870  -13.8740   19.9560 N   0  0  0  0  0  0  0  0  0  0  0  0
  -31.9300  -15.2820   19.5670 O   0  0  0  0  0  0  0  0  0  0  0  0
  -30.0290  -16.1460   20.4590 N   0  0  0  0  0  0  0  0  0  0  0  0
  -29.1170  -15.8700   20.7900 H   0  0  0  0  0  0  0  0  0  0  0  0
  -25.4470  -14.1910   20.4460 C   0  0  0  0  0  0  0  0  0  0  0  0
  -24.4090  -13.3960   20.8500 C   0  0  0  0  0  0  0  0  0  0  0  0
  -24.8750  -12.0520   20.7370 C   0  0  0  0  0  0  0  0  0  0  0  0
  -26.4820  -13.3290   20.1130 N   0  0  0  0  0  0  0  0  0  0  0  0
  -26.1440  -12.0350   20.3460 N   0  0  0  0  0  0  0  0  0  0  0  0
  -24.1680  -10.7790   20.9220 C   0  0  0  0  0  0  0  0  0  0  0  0
  -24.5840   -9.8390   21.8910 C   0  0  0  0  0  3  0  0  0  0  0  0
  -23.8780   -8.6300   22.0630 C   0  0  0  0  0  3  0  0  0  0  0  0
  -22.7420   -8.3510   21.2680 C   0  0  0  0  0  0  0  0  0  0  0  0
  -22.3440   -9.2810   20.2920 C   0  0  0  0  0  3  0  0  0  0  0  0
  -23.0500  -10.4830   20.1160 C   0  0  0  0  0  3  0  0  0  0  0  0
  -22.0110   -7.1900   21.3480 O   0  0  0  0  0  0  0  0  0  0  0  0
  -21.8460   -6.5230   22.5360 C   0  0  0  0  0  0  0  0  0  0  0  0
  -21.1730   -7.1070   23.6310 C   0  0  0  0  0  3  0  0  0  0  0  0
  -20.9650   -6.3620   24.8090 C   0  0  0  0  0  3  0  0  0  0  0  0
  -21.4180   -5.0320   24.8900 C   0  0  0  0  0  0  0  0  0  0  0  0
  -22.0860   -4.4470   23.8000 C   0  0  0  0  0  3  0  0  0  0  0  0
  -22.2950   -5.1900   22.6240 C   0  0  0  0  0  0  0  0  0  0  0  0
  -22.9190   -4.6140   21.5670 F   0  0  0  0  0  0  0  0  0  0  0  0
  -21.2130   -4.3130   26.0180 F   0  0  0  0  0  0  0  0  0  0  0  0
  -23.0280  -13.8540   21.2230 C   0  0  0  0  0  0  0  0  0  0  0  0
  -22.3520  -13.1220   22.1040 N   0  0  0  0  0  0  0  0  0  0  0  0
  -22.5530  -14.8940   20.7700 O   0  0  0  0  0  0  0  0  0  0  0  0
  -22.7440  -12.2780   22.4980 H   0  0  0  0  0  0  0  0  0  0  0  0
  -21.4270  -13.4120   22.3850 H   0  0  0  0  0  0  0  0  0  0  0  0
  -25.5910  -15.5680   20.3160 N   0  0  0  0  0  0  0  0  0  0  0  0
  -24.8400  -16.2160   20.5280 H   0  0  0  0  0  0  0  0  0  0  0  0
  -26.4110  -16.0240   19.9420 H   0  0  0  0  0  0  0  0  0  0  0  0
  -28.2210  -24.3640   19.4110 C   0  0  0  0  0  3  0  0  0  0  0  0
  -25.7270  -22.9870   19.5740 C   0  0  0  0  0  1  0  0  0  0  0  0
  -26.6570  -24.2320   19.4700 C   0  0  0  0  0  2  0  0  0  0  0  0
  -28.7300  -25.5850   20.3060 C   0  0  0  0  0  2  0  0  0  0  0  0
  -28.5990  -26.9970   19.8650 O   0  0  0  0  0  0  0  0  0  0  0  0
  -24.4790  -31.8790   23.2530 C   0  0  0  0  0  0  0  0  0  0  0  0
  -27.3990  -27.7100   19.9520 C   0  0  0  0  0  0  0  0  0  0  0  0
  -23.3810  -30.5290   21.5010 C   0  0  0  0  0  3  0  0  0  0  0  0
  -24.9380  -29.1600   20.0060 C   0  0  0  0  0  0  0  0  0  0  0  0
  -25.8960  -31.0090   21.3810 C   0  0  0  0  0  2  0  0  0  0  0  0
  -26.0650  -29.6820   20.6540 C   0  0  0  0  0  0  0  0  0  0  0  0
  -27.2990  -28.9690   20.6160 C   0  0  0  0  0  3  0  0  0  0  0  0
  -26.2540  -27.2410   19.2790 C   0  0  0  0  0  3  0  0  0  0  0  0
  -25.0340  -27.9430   19.3120 C   0  0  0  0  0  3  0  0  0  0  0  0
  -23.6510  -29.9570   20.0850 C   0  0  0  0  0  2  0  0  0  0  0  0
  -24.6020  -31.1540   22.1020 N   0  0  0  0  0  0  0  0  0  0  0  0
  -23.3750  -32.0550   23.7870 O   0  0  0  0  0  0  0  0  0  0  0  0
  -22.7690  -29.4120   22.3790 C   0  0  0  0  0  0  0  0  0  0  0  0
  -21.4620  -29.1540   22.2020 N   0  0  0  0  0  0  0  0  0  0  0  0
  -23.4680  -28.7840   23.1770 O   0  0  0  0  0  0  0  0  0  0  0  0
  -20.9550  -29.7180   21.5340 H   0  0  0  0  0  0  0  0  0  0  0  0
  -18.1540  -27.7370   22.5610 C   0  0  0  0  0  0  0  0  0  0  0  0
  -20.6900  -28.1180   22.8910 C   0  0  0  0  0  3  0  0  0  0  0  0
  -20.8800  -26.7410   22.2160 C   0  0  0  0  0  2  0  0  0  0  0  0
  -19.8110  -26.4310   21.1640 C   0  0  0  0  0  2  0  0  0  0  0  0
  -18.4140  -26.4520   21.7940 C   0  0  0  0  0  2  0  0  0  0  0  0
  -19.2220  -28.5280   23.0620 C   0  0  0  0  0  0  0  0  0  0  0  0
  -18.9240  -29.7300   23.7390 C   0  0  0  0  0  3  0  0  0  0  0  0
  -17.5910  -30.1440   23.9200 C   0  0  0  0  0  3  0  0  0  0  0  0
  -16.5370  -29.3510   23.4370 C   0  0  0  0  0  3  0  0  0  0  0  0
  -16.8200  -28.1480   22.7620 C   0  0  0  0  0  3  0  0  0  0  0  0
  -25.7150  -32.5390   23.9370 C   0  0  0  0  0  3  0  0  0  0  0  0
  -25.3660  -33.9360   24.2330 N   0  0  0  0  0  0  0  0  0  0  0  0
  -25.6990  -34.9830   23.4670 C   0  0  0  0  0  0  0  0  0  0  0  0
  -26.4040  -34.8780   22.4600 O   0  0  0  0  0  0  0  0  0  0  0  0
  -24.7470  -34.0910   25.0140 H   0  0  0  0  0  0  0  0  0  0  0  0
  -23.9410  -36.7290   23.0330 C   0  0  0  0  0  1  0  0  0  0  0  0
  -25.1670  -36.3670   23.8860 C   0  0  0  0  0  3  0  0  0  0  0  0
  -27.2410  -37.3310   24.7790 C   0  0  0  0  0  1  0  0  0  0  0  0
  -26.1780  -37.4420   23.7840 N   0  0  0  0  0  0  0  0  0  0  0  0
  -25.7440  -38.3560   23.8850 H   0  0  0  0  0  0  0  0  0  0  0  0
  -26.1710  -31.7920   25.2500 C   0  0  1  0  0  0  0  0  0  0  0  0
  -25.0200  -31.5330   26.2500 C   0  0  0  0  0  1  0  0  0  0  0  0
  -26.8150  -30.4270   24.9090 C   0  0  0  0  0  1  0  0  0  0  0  0
  -27.2560  -32.6230   25.9750 C   0  0  0  0  0  1  0  0  0  0  0  0
  1  5  1  0
  2  7  2  0
  2  4  1  0
  3  1  2  0
  4  8  2  0
  6  2  1  0
  7  3  1  0
  8  1  1  0
 10  3  1  0
 10  9  1  0
 10 11  1  0
 12 20  1  0
 13 18  1  0
 14 15  1  0
 14 13  1  0
 16 15  1  0
 16 25  1  0
 16 17  1  0
 18 12  1  0
 18 17  1  0
 19 12  2  0
 20 11  1  0
 20 21  1  0
 22 23  2  0
 23 42  1  0
 24 23  1  0
 24 27  1  0
 25 26  1  0
 25 22  1  0
 26 24  2  0
 27 28  1  0
 28 29  2  0
 30 33  1  0
 30 29  1  0
 31 30  2  0
 32 31  1  0
 32 27  2  0
 33 34  1  0
 34 39  2  0
 34 35  1  0
 35 36  2  0
 36 37  1  0
 37 41  1  0
 38 37  2  0
 39 38  1  0
 40 39  1  0
 42 43  1  0
 43 46  1  0
 43 45  1  0
 44 42  2  0
 47 22  1  0
 47 48  1  0
 49 47  1  0
 50 52  1  0
 50  4  1  0
 50 53  1  0
 52 51  1  0
 54 56  1  0
 54 53  1  0
 55 66  2  0
 56 61  1  0
 57 65  1  0
 57 67  1  0
 58 64  1  0
 58 60  1  0
 59 65  1  0
 60 59  1  0
 61 60  2  0
 62 63  1  0
 62 56  2  0
 63 58  2  0
 64 57  1  0
 65 55  1  0
 67 69  2  0
 68 67  1  0
 70 68  1  0
 71 80  2  0
 71 76  1  0
 72 68  1  0
 72 76  1  0
 73 72  1  0
 74 75  1  0
 74 73  1  0
 75 71  1  0
 76 77  2  0
 77 78  1  0
 79 78  2  0
 80 79  1  0
 81 55  1  0
 81 82  1  0
 81 91  1  0
 82 85  1  0
 83 87  1  0
 83 82  1  0
 84 83  2  0
 87 86  1  0
 89 90  1  0
 89 87  1  0
 89 88  1  0
 91 94  1  1
 91 92  1  0
 93 91  1  0
M  ISO  4  12 100  20 100  53 101  54 101
M  END
>  <TORSDO>  (71) 
F 21

>  <SCORE>  (71) 
-12.316

>  <name>  (71) 
70

>  <ligand_id>  (71) 
70

>  <original_smiles>  (71) 
[H]c1c([H])c([H])c2c(c1[H])C([H])([H])C([H])([H])C([H])([H])C2([H])N([H])C(=O)C1([H])N(C(=O)C([H])(N([H])C(=O)C([H])(N([H])C([H])([H])[H])C([H])([H])[H])C(C([H])([H])[H])(C([H])([H])[H])C([H])([H])[H])C([H])([H])c2c([H])c(OC([H])([H])C([H])(c3nc(C([H])([H])[H])c(C([H])(C([H])([H])[H])C([H])([H])N([H])C(=O)N4C([H])([H])C([H])([H])C([H])([H])C([H])(n5nc(-c6c([H])c([H])c(Oc7c([H])c([H])c(F)c([H])c7F)c([H])c6[H])c(C(=O)N([H])[H])c5N([H])[H])C4([H])[H])nc3C([H])([H])[H])C([H])([H])C([H])([H])[H])c([H])c([H])c2C1([H])[H]

>  <smiles>  (71) 
[H]c1c([H])c([H])c2c(c1[H])C([H])([H])C([H])([H])C([H])([H])C2([H])N([H])C(=O)C1([H])N(C(=O)C([H])(N([H])C(=O)C([H])(N([H])C([H])([H])[H])C([H])([H])[H])C(C([H])([H])[H])(C([H])([H])[H])C([H])([H])[H])C([H])([H])c2c([H])c(OC([H])([H])C([H])(c3nc(C([H])([H])[H])c(C([H])(C([H])([H])[H])C([H])([H])N([H])C(=O)N4C([H])([H])C([H])([H])C([H])([H])C([H])(n5nc(-c6c([H])c([H])c(Oc7c([H])c([H])c(F)c([H])c7F)c([H])c6[H])c(C(=O)N([H])[H])c5N([H])[H])C4([H])[H])nc3C([H])([H])[H])C([H])([H])C([H])([H])[H])c([H])c([H])c2C1([H])[H]

$$$$
71:0:0
     RDKit          3D

 89 97  0  0  1  0  0  0  0  0999 V2000
  -30.4040  -15.2700   20.3810 C   0  0  0  0  0  0  0  0  0  0  0  0
  -30.4130  -12.8410   19.4780 C   0  0  0  0  0  2  0  0  0  0  0  0
  -29.4980  -12.6730   18.2390 C   0  0  0  0  0  2  0  0  0  0  0  0
  -28.0450  -12.3940   18.6650 C   0  0  0  0  0  2  0  0  0  0  0  0
  -27.5860  -13.3410   19.8020 C   0  0  0  0  0  3  0  0  0  0  0  0
  -28.6250  -13.4550   20.9370 C   0  0  0  0  0  2  0  0  0  0  0  0
  -29.8660  -13.9580   20.3250 N   0  0  0  0  0  0  0  0  0  0  0  0
  -31.6240  -15.3130   20.1580 O   0  0  0  0  0  0  0  0  0  0  0  0
  -28.1330  -20.2910   20.1390 C   0  0  0  0  0  3  0  0  0  0  0  0
  -28.3030  -18.8200   20.1720 C   0  0  0  0  0  3  0  0  0  0  0  0
  -29.1680  -21.2690   20.4050 C   0  0  0  0  0  0  0  0  0  0  0  0
  -30.3500  -20.4460   20.7070 C   0  0  0  0  0  0  0  0  0  0  0  0
  -29.5240  -18.0730   20.4410 C   0  0  0  0  0  0  0  0  0  0  0  0
  -31.6360  -21.1510   21.0980 C   0  0  0  0  0  1  0  0  0  0  0  0
  -30.5040  -19.0260   20.7080 N   0  0  0  0  0  0  0  0  0  0  0  0
  -29.5490  -16.4660   20.4710 N   0  0  0  0  0  0  0  0  0  0  0  0
  -28.6050  -16.1260   20.5470 H   0  0  0  0  0  0  0  0  0  0  0  0
  -25.1990  -13.8820   20.5250 C   0  0  0  0  0  0  0  0  0  0  0  0
  -24.1410  -13.0960   20.8880 C   0  0  0  0  0  0  0  0  0  0  0  0
  -24.6210  -11.7500   20.8640 C   0  0  0  0  0  0  0  0  0  0  0  0
  -26.2520  -13.0160   20.2950 N   0  0  0  0  0  0  0  0  0  0  0  0
  -25.9160  -11.7280   20.5680 N   0  0  0  0  0  0  0  0  0  0  0  0
  -23.9040  -10.4810   21.0480 C   0  0  0  0  0  0  0  0  0  0  0  0
  -24.3340   -9.5180   21.9860 C   0  0  0  0  0  3  0  0  0  0  0  0
  -23.6150   -8.3160   22.1590 C   0  0  0  0  0  3  0  0  0  0  0  0
  -22.4510   -8.0680   21.3940 C   0  0  0  0  0  0  0  0  0  0  0  0
  -22.0390   -9.0210   20.4460 C   0  0  0  0  0  3  0  0  0  0  0  0
  -22.7600  -10.2150   20.2700 C   0  0  0  0  0  3  0  0  0  0  0  0
  -21.7040   -6.9180   21.4760 O   0  0  0  0  0  0  0  0  0  0  0  0
  -21.6470   -6.1760   22.6290 C   0  0  0  0  0  0  0  0  0  0  0  0
  -21.1910   -6.7270   23.8460 C   0  0  0  0  0  3  0  0  0  0  0  0
  -21.0830   -5.9130   24.9910 C   0  0  0  0  0  3  0  0  0  0  0  0
  -21.4230   -4.5480   24.9190 C   0  0  0  0  0  0  0  0  0  0  0  0
  -21.8720   -3.9960   23.7060 C   0  0  0  0  0  3  0  0  0  0  0  0
  -21.9810   -4.8090   22.5640 C   0  0  0  0  0  0  0  0  0  0  0  0
  -22.3950   -4.2680   21.3920 F   0  0  0  0  0  0  0  0  0  0  0  0
  -21.3120   -3.7620   26.0170 F   0  0  0  0  0  0  0  0  0  0  0  0
  -22.7350  -13.5590   21.1380 C   0  0  0  0  0  0  0  0  0  0  0  0
  -22.0040  -12.8620   21.9990 N   0  0  0  0  0  0  0  0  0  0  0  0
  -22.2950  -14.5790   20.6060 O   0  0  0  0  0  0  0  0  0  0  0  0
  -22.3730  -12.0390   22.4510 H   0  0  0  0  0  0  0  0  0  0  0  0
  -21.0610  -13.1560   22.2110 H   0  0  0  0  0  0  0  0  0  0  0  0
  -25.3430  -15.2530   20.3390 N   0  0  0  0  0  0  0  0  0  0  0  0
  -24.5480  -15.8800   20.4050 H   0  0  0  0  0  0  0  0  0  0  0  0
  -26.1530  -15.6900   19.9190 H   0  0  0  0  0  0  0  0  0  0  0  0
  -29.8210  -23.3120   18.8980 C   0  0  0  0  0  1  0  0  0  0  0  0
  -29.1650  -23.0140   20.2570 C   0  0  0  0  0  3  0  0  0  0  0  0
  -28.0060  -24.3480   20.4210 C   0  0  0  0  0  2  0  0  0  0  0  0
  -28.2310  -25.9680   20.3830 O   0  0  0  0  0  0  0  0  0  0  0  0
  -24.6390  -31.9210   23.2660 C   0  0  0  0  0  0  0  0  0  0  0  0
  -27.1970  -27.0290   20.3240 C   0  0  0  0  0  0  0  0  0  0  0  0
  -23.4480  -30.5090   21.6380 C   0  0  0  0  0  3  0  0  0  0  0  0
  -24.8960  -28.8850   20.2460 C   0  0  0  0  0  0  0  0  0  0  0  0
  -26.0110  -30.7210   21.4980 C   0  0  0  0  0  2  0  0  0  0  0  0
  -26.0810  -29.3060   20.8620 C   0  0  0  0  0  0  0  0  0  0  0  0
  -27.2290  -28.3990   20.8750 C   0  0  0  0  0  3  0  0  0  0  0  0
  -25.9810  -26.7480   19.6640 C   0  0  0  0  0  3  0  0  0  0  0  0
  -24.8680  -27.6250   19.6280 C   0  0  0  0  0  3  0  0  0  0  0  0
  -23.6800  -29.8080   20.2720 C   0  0  0  0  0  2  0  0  0  0  0  0
  -24.7200  -31.0770   22.1870 N   0  0  0  0  0  0  0  0  0  0  0  0
  -23.5500  -32.2210   23.7800 O   0  0  0  0  0  0  0  0  0  0  0  0
  -22.7470  -29.5280   22.6130 C   0  0  0  0  0  0  0  0  0  0  0  0
  -21.4190  -29.3610   22.4790 N   0  0  0  0  0  0  0  0  0  0  0  0
  -23.4070  -28.9130   23.4560 O   0  0  0  0  0  0  0  0  0  0  0  0
  -20.9410  -29.9060   21.7750 H   0  0  0  0  0  0  0  0  0  0  0  0
  -18.0320  -28.1540   22.9720 C   0  0  0  0  0  0  0  0  0  0  0  0
  -20.5890  -28.4340   23.2580 C   0  0  0  0  0  3  0  0  0  0  0  0
  -20.7010  -26.9920   22.7120 C   0  0  0  0  0  2  0  0  0  0  0  0
  -19.6110  -26.6470   21.6900 C   0  0  0  0  0  2  0  0  0  0  0  0
  -18.2210  -26.7950   22.3170 C   0  0  0  0  0  2  0  0  0  0  0  0
  -19.1430  -28.9300   23.3980 C   0  0  0  0  0  0  0  0  0  0  0  0
  -18.9110  -30.1990   23.9710 C   0  0  0  0  0  3  0  0  0  0  0  0
  -17.6010  -30.6930   24.1200 C   0  0  0  0  0  3  0  0  0  0  0  0
  -16.5050  -29.9160   23.7080 C   0  0  0  0  0  3  0  0  0  0  0  0
  -16.7220  -28.6480   23.1380 C   0  0  0  0  0  3  0  0  0  0  0  0
  -25.9120  -32.5650   23.8960 C   0  0  0  0  0  3  0  0  0  0  0  0
  -25.5980  -33.9690   24.2160 N   0  0  0  0  0  0  0  0  0  0  0  0
  -25.9210  -35.0220   23.4520 C   0  0  0  0  0  0  0  0  0  0  0  0
  -26.5790  -34.9130   22.4140 O   0  0  0  0  0  0  0  0  0  0  0  0
  -25.0120  -34.1260   25.0220 H   0  0  0  0  0  0  0  0  0  0  0  0
  -24.1820  -36.8140   23.1250 C   0  0  0  0  0  1  0  0  0  0  0  0
  -25.4420  -36.4140   23.9100 C   0  0  0  0  0  3  0  0  0  0  0  0
  -27.5910  -37.3150   24.6880 C   0  0  0  0  0  1  0  0  0  0  0  0
  -26.4700  -37.4690   23.7650 N   0  0  0  0  0  0  0  0  0  0  0  0
  -26.0640  -38.3900   23.9110 H   0  0  0  0  0  0  0  0  0  0  0  0
  -26.4120  -31.8120   25.1910 C   0  0  1  0  0  0  0  0  0  0  0  0
  -25.3060  -31.5980   26.2520 C   0  0  0  0  0  1  0  0  0  0  0  0
  -26.9920  -30.4250   24.8350 C   0  0  0  0  0  1  0  0  0  0  0  0
  -27.5580  -32.6140   25.8510 C   0  0  0  0  0  1  0  0  0  0  0  0
  1 16  1  0
  2  7  1  0
  3  4  1  0
  3  2  1  0
  5  4  1  0
  5 21  1  0
  5  6  1  0
  7  1  1  0
  7  6  1  0
  8  1  2  0
  9 10  2  0
  9 11  1  0
 10 13  1  0
 11 12  2  0
 12 15  1  0
 12 14  1  0
 13 16  1  0
 13 15  2  0
 16 17  1  0
 18 19  2  0
 19 38  1  0
 20 19  1  0
 20 23  1  0
 21 18  1  0
 21 22  1  0
 22 20  2  0
 23 24  1  0
 24 25  2  0
 26 29  1  0
 26 25  1  0
 27 26  2  0
 28 27  1  0
 28 23  2  0
 29 30  1  0
 30 31  1  0
 31 32  2  0
 33 32  1  0
 33 37  1  0
 34 33  2  0
 35 30  2  0
 35 34  1  0
 36 35  1  0
 38 39  1  0
 39 42  1  0
 39 41  1  0
 40 38  2  0
 43 44  1  0
 43 18  1  0
 45 43  1  0
 47 46  1  0
 47 11  1  0
 47 48  1  0
 49 48  1  0
 50 61  2  0
 51 49  1  0
 51 56  1  0
 52 60  1  0
 52 62  1  0
 53 59  1  0
 53 55  1  0
 54 60  1  0
 55 56  2  0
 55 54  1  0
 57 51  2  0
 58 57  1  0
 58 53  2  0
 59 52  1  0
 60 50  1  0
 62 64  2  0
 63 62  1  0
 65 63  1  0
 66 75  2  0
 66 71  1  0
 67 63  1  0
 67 71  1  0
 68 67  1  0
 69 70  1  0
 69 68  1  0
 70 66  1  0
 71 72  2  0
 72 73  1  0
 74 73  2  0
 75 74  1  0
 76 50  1  0
 76 77  1  0
 76 86  1  0
 77 80  1  0
 78 82  1  0
 78 77  1  0
 79 78  2  0
 82 81  1  0
 84 82  1  0
 84 85  1  0
 84 83  1  0
 86 89  1  1
 86 87  1  0
 88 86  1  0
M  ISO  4   1 100  16 100  48 101  49 101
M  END
>  <TORSDO>  (72) 
F 17

>  <SCORE>  (72) 
-16.353

>  <name>  (72) 
71

>  <ligand_id>  (72) 
71

>  <original_smiles>  (72) 
[H]c1c(N([H])C(=O)N2C([H])([H])C([H])([H])C([H])([H])C([H])(n3nc(-c4c([H])c([H])c(Oc5c([H])c([H])c(F)c([H])c5F)c([H])c4[H])c(C(=O)N([H])[H])c3N([H])[H])C2([H])[H])nc(C([H])([H])[H])c(C([H])(C([H])([H])[H])C([H])([H])Oc2c([H])c([H])c3c(c2[H])C([H])([H])N(C(=O)C([H])(N([H])C(=O)C([H])(N([H])C([H])([H])[H])C([H])([H])[H])C(C([H])([H])[H])(C([H])([H])[H])C([H])([H])[H])C([H])(C(=O)N([H])C2([H])c4c([H])c([H])c([H])c([H])c4C([H])([H])C([H])([H])C2([H])[H])C3([H])[H])c1[H]

>  <smiles>  (72) 
[H]c1c(N([H])C(=O)N2C([H])([H])C([H])([H])C([H])([H])C([H])(n3nc(-c4c([H])c([H])c(Oc5c([H])c([H])c(F)c([H])c5F)c([H])c4[H])c(C(=O)N([H])[H])c3N([H])[H])C2([H])[H])nc(C([H])([H])[H])c(C([H])(C([H])([H])[H])C([H])([H])Oc2c([H])c([H])c3c(c2[H])C([H])([H])N(C(=O)C([H])(N([H])C(=O)C([H])(N([H])C([H])([H])[H])C([H])([H])[H])C(C([H])([H])[H])(C([H])([H])[H])C([H])([H])[H])C([H])(C(=O)N([H])C2([H])c4c([H])c([H])c([H])c([H])c4C([H])([H])C([H])([H])C2([H])[H])C3([H])[H])c1[H]

$$$$
72:0:0
     RDKit          3D

 97105  0  0  1  0  0  0  0  0999 V2000
  -29.5630  -21.3980   19.6500 C   0  0  0  0  0  0  0  0  0  0  0  0
  -30.6330  -22.1370   17.2700 C   0  0  0  0  0  0  0  0  0  0  0  0
  -30.3700  -23.0940   18.2870 C   0  0  0  0  0  0  0  0  0  0  0  0
  -29.8320  -20.4250   18.6440 C   0  0  0  0  0  0  0  0  0  0  0  0
  -28.9360  -21.0610   20.9900 C   0  0  0  0  0  1  0  0  0  0  0  0
  -29.8440  -22.7110   19.4760 N   0  0  0  0  0  0  0  0  0  0  0  0
  -30.3380  -20.8230   17.4460 N   0  0  0  0  0  0  0  0  0  0  0  0
  -28.4740  -18.4930   17.7650 C   0  0  0  0  0  1  0  0  0  0  0  0
  -29.5230  -18.9090   18.8200 C   0  0  0  0  0  3  0  0  0  0  0  0
  -31.8370  -18.2400   17.8590 C   0  0  0  0  0  1  0  0  0  0  0  0
  -31.4590  -18.2420   20.3140 C   0  0  0  0  0  1  0  0  0  0  0  0
  -30.7820  -17.9490   18.9600 C   0  0  1  0  0  0  0  0  0  0  0  0
  -30.4540  -16.4080   18.8530 C   0  0  0  0  0  2  0  0  0  0  0  0
  -30.7670  -14.5750   20.4750 C   0  0  0  0  0  0  0  0  0  0  0  0
  -30.4630  -12.3410   19.5650 C   0  0  0  0  0  2  0  0  0  0  0  0
  -29.5840  -12.5060   18.3100 C   0  0  0  0  0  2  0  0  0  0  0  0
  -28.0930  -12.4040   18.6860 C   0  0  0  0  0  2  0  0  0  0  0  0
  -27.7040  -13.3000   19.8940 C   0  0  0  0  0  3  0  0  0  0  0  0
  -28.7290  -13.1850   21.0470 C   0  0  0  0  0  2  0  0  0  0  0  0
  -30.0710  -13.4080   20.4940 N   0  0  0  0  0  0  0  0  0  0  0  0
  -31.9920  -14.6170   20.3570 O   0  0  0  0  0  0  0  0  0  0  0  0
  -30.0480  -15.6430   20.0630 N   0  0  0  0  0  0  0  0  0  0  0  0
  -29.0570  -15.5940   20.2380 H   0  0  0  0  0  0  0  0  0  0  0  0
  -25.2920  -13.9170   20.5320 C   0  0  0  0  0  0  0  0  0  0  0  0
  -24.2110  -13.1510   20.8780 C   0  0  0  0  0  0  0  0  0  0  0  0
  -24.6700  -11.7990   20.8810 C   0  0  0  0  0  0  0  0  0  0  0  0
  -26.3410  -13.0310   20.3460 N   0  0  0  0  0  0  0  0  0  0  0  0
  -25.9710  -11.7520   20.6200 N   0  0  0  0  0  0  0  0  0  0  0  0
  -23.9330  -10.5400   21.0650 C   0  0  0  0  0  0  0  0  0  0  0  0
  -24.3340   -9.5790   22.0190 C   0  0  0  0  0  3  0  0  0  0  0  0
  -23.5960   -8.3870   22.1890 C   0  0  0  0  0  3  0  0  0  0  0  0
  -22.4420   -8.1500   21.4050 C   0  0  0  0  0  0  0  0  0  0  0  0
  -22.0600   -9.1010   20.4420 C   0  0  0  0  0  3  0  0  0  0  0  0
  -22.7990  -10.2830   20.2720 C   0  0  0  0  0  3  0  0  0  0  0  0
  -21.6770   -7.0110   21.4820 O   0  0  0  0  0  0  0  0  0  0  0  0
  -21.6030   -6.2730   22.6340 C   0  0  0  0  0  0  0  0  0  0  0  0
  -21.1700   -6.8350   23.8550 C   0  0  0  0  0  3  0  0  0  0  0  0
  -21.0430   -6.0220   24.9980 C   0  0  0  0  0  3  0  0  0  0  0  0
  -21.3370   -4.6470   24.9210 C   0  0  0  0  0  0  0  0  0  0  0  0
  -21.7650   -4.0870   23.7050 C   0  0  0  0  0  3  0  0  0  0  0  0
  -21.8940   -4.8970   22.5650 C   0  0  0  0  0  0  0  0  0  0  0  0
  -22.2840   -4.3440   21.3900 F   0  0  0  0  0  0  0  0  0  0  0  0
  -21.2100   -3.8640   26.0200 F   0  0  0  0  0  0  0  0  0  0  0  0
  -22.8060  -13.6370   21.0900 C   0  0  0  0  0  0  0  0  0  0  0  0
  -22.0460  -12.9580   21.9400 N   0  0  0  0  0  0  0  0  0  0  0  0
  -22.3880  -14.6520   20.5370 O   0  0  0  0  0  0  0  0  0  0  0  0
  -22.3960  -12.1340   22.4070 H   0  0  0  0  0  0  0  0  0  0  0  0
  -21.1040  -13.2670   22.1280 H   0  0  0  0  0  0  0  0  0  0  0  0
  -25.4620  -15.2850   20.3390 N   0  0  0  0  0  0  0  0  0  0  0  0
  -24.6880  -15.9360   20.4160 H   0  0  0  0  0  0  0  0  0  0  0  0
  -26.3170  -15.7230   20.0260 H   0  0  0  0  0  0  0  0  0  0  0  0
  -30.2580  -22.6820   14.8160 C   0  0  0  0  0  1  0  0  0  0  0  0
  -31.2830  -22.5030   15.9410 C   0  0  0  0  0  2  0  0  0  0  0  0
  -30.7250  -24.5730   18.1200 C   0  0  0  0  0  2  0  0  0  0  0  0
  -30.2310  -25.5420   19.2240 C   0  0  0  0  0  2  0  0  0  0  0  0
  -28.7110  -25.7700   19.2680 C   0  0  0  0  0  2  0  0  0  0  0  0
  -28.4910  -26.8320   20.1910 O   0  0  0  0  0  0  0  0  0  0  0  0
  -24.5870  -31.8970   23.2570 C   0  0  0  0  0  0  0  0  0  0  0  0
  -27.2810  -27.4880   20.1870 C   0  0  0  0  0  0  0  0  0  0  0  0
  -23.3920  -30.4820   21.6100 C   0  0  0  0  0  3  0  0  0  0  0  0
  -24.8600  -28.9510   20.1930 C   0  0  0  0  0  0  0  0  0  0  0  0
  -25.9060  -30.8630   21.4110 C   0  0  0  0  0  2  0  0  0  0  0  0
  -26.0060  -29.4860   20.7900 C   0  0  0  0  0  0  0  0  0  0  0  0
  -27.2140  -28.7560   20.7940 C   0  0  0  0  0  3  0  0  0  0  0  0
  -26.1120  -26.9510   19.5950 C   0  0  0  0  0  3  0  0  0  0  0  0
  -24.9070  -27.6800   19.5970 C   0  0  0  0  0  3  0  0  0  0  0  0
  -23.6040  -29.7920   20.2360 C   0  0  0  0  0  2  0  0  0  0  0  0
  -24.6480  -31.0930   22.1560 N   0  0  0  0  0  0  0  0  0  0  0  0
  -23.5040  -32.1680   23.7910 O   0  0  0  0  0  0  0  0  0  0  0  0
  -22.7420  -29.4620   22.5700 C   0  0  0  0  0  0  0  0  0  0  0  0
  -21.4170  -29.2840   22.4450 N   0  0  0  0  0  0  0  0  0  0  0  0
  -23.4260  -28.8300   23.3810 O   0  0  0  0  0  0  0  0  0  0  0  0
  -20.9270  -29.8560   21.7720 H   0  0  0  0  0  0  0  0  0  0  0  0
  -18.0410  -28.1120   22.9530 C   0  0  0  0  0  0  0  0  0  0  0  0
  -20.6020  -28.3490   23.2120 C   0  0  0  0  0  3  0  0  0  0  0  0
  -20.6890  -26.9180   22.6310 C   0  0  0  0  0  2  0  0  0  0  0  0
  -19.5830  -26.6080   21.6190 C   0  0  0  0  0  2  0  0  0  0  0  0
  -18.2060  -26.7640   22.2710 C   0  0  0  0  0  2  0  0  0  0  0  0
  -19.1680  -28.8640   23.3820 C   0  0  0  0  0  0  0  0  0  0  0  0
  -18.9650  -30.1290   23.9750 C   0  0  0  0  0  3  0  0  0  0  0  0
  -17.6660  -30.6410   24.1480 C   0  0  0  0  0  3  0  0  0  0  0  0
  -16.5530  -29.8860   23.7410 C   0  0  0  0  0  3  0  0  0  0  0  0
  -16.7430  -28.6240   23.1490 C   0  0  0  0  0  3  0  0  0  0  0  0
  -25.8700  -32.5340   23.8760 C   0  0  0  0  0  3  0  0  0  0  0  0
  -25.5610  -33.9360   24.1970 N   0  0  0  0  0  0  0  0  0  0  0  0
  -25.8980  -34.9830   23.4320 C   0  0  0  0  0  0  0  0  0  0  0  0
  -26.5750  -34.8750   22.4060 O   0  0  0  0  0  0  0  0  0  0  0  0
  -24.9680  -34.0980   24.9990 H   0  0  0  0  0  0  0  0  0  0  0  0
  -24.1770  -36.7760   23.0440 C   0  0  0  0  0  1  0  0  0  0  0  0
  -25.4050  -36.3740   23.8750 C   0  0  0  0  0  3  0  0  0  0  0  0
  -27.5280  -37.2600   24.7320 C   0  0  0  0  0  1  0  0  0  0  0  0
  -26.4400  -37.4260   23.7740 N   0  0  0  0  0  0  0  0  0  0  0  0
  -26.0320  -38.3450   23.9210 H   0  0  0  0  0  0  0  0  0  0  0  0
  -26.3910  -31.7670   25.1530 C   0  0  1  0  0  0  0  0  0  0  0  0
  -25.3000  -31.5210   26.2190 C   0  0  0  0  0  1  0  0  0  0  0  0
  -26.9800  -30.3930   24.7590 C   0  0  0  0  0  1  0  0  0  0  0  0
  -27.5420  -32.5640   25.8130 C   0  0  0  0  0  1  0  0  0  0  0  0
  1  5  1  0
  2  7  2  0
  2  3  1  0
  3  6  2  0
  4  9  1  0
  4  1  2  0
  6  1  1  0
  7  4  1  0
  9  8  1  0
  9 12  1  0
 12 10  1  6
 12 11  1  0
 13 12  1  0
 13 22  1  0
 14 20  1  0
 15 20  1  0
 16 17  1  0
 16 15  1  0
 18 17  1  0
 18 27  1  0
 18 19  1  0
 20 19  1  0
 21 14  2  0
 22 23  1  0
 22 14  1  0
 24 25  2  0
 25 26  1  0
 25 44  1  0
 26 29  1  0
 27 24  1  0
 27 28  1  0
 28 26  2  0
 29 30  1  0
 30 31  2  0
 32 35  1  0
 32 31  1  0
 33 32  2  0
 34 33  1  0
 34 29  2  0
 35 36  1  0
 36 37  1  0
 37 38  2  0
 39 38  1  0
 39 43  1  0
 40 39  2  0
 41 36  2  0
 41 40  1  0
 42 41  1  0
 44 45  1  0
 45 48  1  0
 45 47  1  0
 46 44  2  0
 49 50  1  0
 49 24  1  0
 51 49  1  0
 52 53  1  0
 53  2  1  0
 54  3  1  0
 54 55  1  0
 55 56  1  0
 56 57  1  0
 58 69  2  0
 59 57  1  0
 59 64  1  0
 60 68  1  0
 60 70  1  0
 61 67  1  0
 61 63  1  0
 62 68  1  0
 63 64  2  0
 63 62  1  0
 65 66  1  0
 65 59  2  0
 66 61  2  0
 67 60  1  0
 68 58  1  0
 70 72  2  0
 71 70  1  0
 73 71  1  0
 74 83  2  0
 74 79  1  0
 75 71  1  0
 75 79  1  0
 76 75  1  0
 77 78  1  0
 77 76  1  0
 78 74  1  0
 79 80  2  0
 80 81  1  0
 82 81  2  0
 83 82  1  0
 84 58  1  0
 84 85  1  0
 84 94  1  0
 85 88  1  0
 86 90  1  0
 86 85  1  0
 87 86  2  0
 90 89  1  0
 92 90  1  0
 92 93  1  0
 92 91  1  0
 94 97  1  1
 94 95  1  0
 96 94  1  0
M  ISO  4  14 100  22 100  56 101  57 101
M  END
>  <TORSDO>  (73) 
F 23

>  <SCORE>  (73) 
-12.944

>  <name>  (73) 
72

>  <ligand_id>  (73) 
72

>  <original_smiles>  (73) 
[H]c1c([H])c([H])c2c(c1[H])C([H])([H])C([H])([H])C([H])([H])C2([H])N([H])C(=O)C1([H])N(C(=O)C([H])(N([H])C(=O)C([H])(N([H])C([H])([H])[H])C([H])([H])[H])C(C([H])([H])[H])(C([H])([H])[H])C([H])([H])[H])C([H])([H])c2c([H])c(OC([H])([H])C([H])([H])C([H])([H])c3nc(C([H])([H])[H])c(C([H])(C([H])([H])[H])C(C([H])([H])[H])(C([H])([H])[H])C([H])([H])N([H])C(=O)N4C([H])([H])C([H])([H])C([H])([H])C([H])(n5nc(-c6c([H])c([H])c(Oc7c([H])c([H])c(F)c([H])c7F)c([H])c6[H])c(C(=O)N([H])[H])c5N([H])[H])C4([H])[H])nc3C([H])([H])C([H])([H])[H])c([H])c([H])c2C1([H])[H]

>  <smiles>  (73) 
[H]c1c([H])c([H])c2c(c1[H])C([H])([H])C([H])([H])C([H])([H])C2([H])N([H])C(=O)C1([H])N(C(=O)C([H])(N([H])C(=O)C([H])(N([H])C([H])([H])[H])C([H])([H])[H])C(C([H])([H])[H])(C([H])([H])[H])C([H])([H])[H])C([H])([H])c2c([H])c(OC([H])([H])C([H])([H])C([H])([H])c3nc(C([H])([H])[H])c(C([H])(C([H])([H])[H])C(C([H])([H])[H])(C([H])([H])[H])C([H])([H])N([H])C(=O)N4C([H])([H])C([H])([H])C([H])([H])C([H])(n5nc(-c6c([H])c([H])c(Oc7c([H])c([H])c(F)c([H])c7F)c([H])c6[H])c(C(=O)N([H])[H])c5N([H])[H])C4([H])[H])nc3C([H])([H])C([H])([H])[H])c([H])c([H])c2C1([H])[H]

$$$$
73:0:0
     RDKit          3D

 92100  0  0  1  0  0  0  0  0999 V2000
  -28.7030  -20.0840   18.9140 C   0  0  0  0  0  3  0  0  0  0  0  0
  -28.7550  -19.3510   20.1230 C   0  0  0  0  0  0  0  0  0  0  0  0
  -27.7280  -21.8100   20.0590 C   0  0  0  0  0  0  0  0  0  0  0  0
  -28.1650  -21.3280   18.8860 N   0  0  0  0  0  0  0  0  0  0  0  0
  -28.3290  -19.9310   21.2760 N   0  0  0  0  0  0  0  0  0  0  0  0
  -27.8460  -21.1880   21.2460 N   0  0  0  0  0  0  0  0  0  0  0  0
  -25.4830  -23.0100   20.3710 C   0  0  0  0  0  1  0  0  0  0  0  0
  -26.9810  -23.1600   20.0240 C   0  0  0  0  0  3  0  0  0  0  0  0
  -27.6580  -24.3170   20.8030 C   0  0  0  0  0  2  0  0  0  0  0  0
  -28.9540  -24.8450   20.1550 C   0  0  0  0  0  2  0  0  0  0  0  0
  -29.3700  -26.2560   20.6300 C   0  0  0  0  0  2  0  0  0  0  0  0
  -28.9720  -27.2720   19.7100 O   0  0  0  0  0  0  0  0  0  0  0  0
  -24.6100  -31.7650   23.1480 C   0  0  0  0  0  0  0  0  0  0  0  0
  -27.7160  -27.8180   19.8480 C   0  0  0  0  0  0  0  0  0  0  0  0
  -23.5620  -30.3670   21.3940 C   0  0  0  0  0  3  0  0  0  0  0  0
  -25.1780  -29.0540   19.9160 C   0  0  0  0  0  0  0  0  0  0  0  0
  -26.0410  -30.9780   21.2650 C   0  0  0  0  0  2  0  0  0  0  0  0
  -26.2660  -29.6560   20.5590 C   0  0  0  0  0  0  0  0  0  0  0  0
  -27.5380  -29.0420   20.5270 C   0  0  0  0  0  3  0  0  0  0  0  0
  -26.6140  -27.2210   19.2000 C   0  0  0  0  0  3  0  0  0  0  0  0
  -25.3440  -27.8330   19.2350 C   0  0  0  0  0  3  0  0  0  0  0  0
  -23.8580  -29.7890   19.9800 C   0  0  0  0  0  2  0  0  0  0  0  0
  -24.7530  -31.0520   21.9930 N   0  0  0  0  0  0  0  0  0  0  0  0
  -23.5010  -31.8980   23.6850 O   0  0  0  0  0  0  0  0  0  0  0  0
  -22.9980  -29.2320   22.2780 C   0  0  0  0  0  0  0  0  0  0  0  0
  -21.6990  -28.9390   22.1130 N   0  0  0  0  0  0  0  0  0  0  0  0
  -23.7290  -28.6230   23.0650 O   0  0  0  0  0  0  0  0  0  0  0  0
  -21.1800  -29.4890   21.4460 H   0  0  0  0  0  0  0  0  0  0  0  0
  -18.4430  -27.4120   22.4650 C   0  0  0  0  0  0  0  0  0  0  0  0
  -20.9610  -27.8840   22.8070 C   0  0  0  0  0  3  0  0  0  0  0  0
  -21.2040  -26.5110   22.1450 C   0  0  0  0  0  2  0  0  0  0  0  0
  -20.1550  -26.1510   21.0880 C   0  0  0  0  0  2  0  0  0  0  0  0
  -18.7550  -26.1290   21.7100 C   0  0  0  0  0  2  0  0  0  0  0  0
  -19.4800  -28.2440   22.9640 C   0  0  0  0  0  0  0  0  0  0  0  0
  -19.1390  -29.4410   23.6300 C   0  0  0  0  0  3  0  0  0  0  0  0
  -17.7920  -29.8100   23.8030 C   0  0  0  0  0  3  0  0  0  0  0  0
  -16.7690  -28.9780   23.3200 C   0  0  0  0  0  3  0  0  0  0  0  0
  -17.0950  -27.7800   22.6580 C   0  0  0  0  0  3  0  0  0  0  0  0
  -25.8260  -32.4660   23.8330 C   0  0  0  0  0  3  0  0  0  0  0  0
  -25.4090  -33.8360   24.1700 N   0  0  0  0  0  0  0  0  0  0  0  0
  -25.6900  -34.9180   23.4320 C   0  0  0  0  0  0  0  0  0  0  0  0
  -26.3990  -34.8740   22.4240 O   0  0  0  0  0  0  0  0  0  0  0  0
  -24.7790  -33.9380   24.9530 H   0  0  0  0  0  0  0  0  0  0  0  0
  -23.8410  -36.5760   23.0520 C   0  0  0  0  0  1  0  0  0  0  0  0
  -25.0920  -36.2630   23.8870 C   0  0  0  0  0  3  0  0  0  0  0  0
  -27.1390  -37.2970   24.7640 C   0  0  0  0  0  1  0  0  0  0  0  0
  -26.0460  -37.3880   23.7990 N   0  0  0  0  0  0  0  0  0  0  0  0
  -25.5730  -38.2780   23.9330 H   0  0  0  0  0  0  0  0  0  0  0  0
  -26.3390  -31.7070   25.1170 C   0  0  1  0  0  0  0  0  0  0  0  0
  -25.2240  -31.3820   26.1390 C   0  0  0  0  0  1  0  0  0  0  0  0
  -27.0240  -30.3780   24.7240 C   0  0  0  0  0  1  0  0  0  0  0  0
  -27.4150  -32.5580   25.8300 C   0  0  0  0  0  1  0  0  0  0  0  0
  -28.9720  -17.8310   20.1260 C   0  0  0  0  0  2  0  0  0  0  0  0
  -29.9190  -17.2100   21.1930 C   0  0  0  0  0  2  0  0  0  0  0  0
  -30.7270  -14.8470   20.5140 C   0  0  0  0  0  0  0  0  0  0  0  0
  -30.5750  -12.6760   19.3370 C   0  0  0  0  0  2  0  0  0  0  0  0
  -29.6280  -12.8590   18.1280 C   0  0  0  0  0  2  0  0  0  0  0  0
  -28.1590  -12.6570   18.5450 C   0  0  0  0  0  2  0  0  0  0  0  0
  -27.7900  -13.4860   19.8000 C   0  0  0  0  0  3  0  0  0  0  0  0
  -28.8330  -13.2500   20.9140 C   0  0  0  0  0  2  0  0  0  0  0  0
  -30.1540  -13.6230   20.3750 N   0  0  0  0  0  0  0  0  0  0  0  0
  -31.8150  -15.1530   20.0130 O   0  0  0  0  0  0  0  0  0  0  0  0
  -29.9140  -15.7370   21.1250 N   0  0  0  0  0  0  0  0  0  0  0  0
  -29.0840  -15.3100   21.5080 H   0  0  0  0  0  0  0  0  0  0  0  0
  -25.3990  -14.0820   20.5320 C   0  0  0  0  0  0  0  0  0  0  0  0
  -24.3270  -13.2970   20.8730 C   0  0  0  0  0  0  0  0  0  0  0  0
  -24.7850  -11.9470   20.7930 C   0  0  0  0  0  0  0  0  0  0  0  0
  -26.4370  -13.2010   20.2630 N   0  0  0  0  0  0  0  0  0  0  0  0
  -26.0730  -11.9130   20.4800 N   0  0  0  0  0  0  0  0  0  0  0  0
  -24.0560  -10.6800   20.9410 C   0  0  0  0  0  0  0  0  0  0  0  0
  -24.4830   -9.6860   21.8490 C   0  0  0  0  0  3  0  0  0  0  0  0
  -23.7580   -8.4830   21.9830 C   0  0  0  0  0  3  0  0  0  0  0  0
  -22.5920   -8.2680   21.2110 C   0  0  0  0  0  0  0  0  0  0  0  0
  -22.1860   -9.2520   20.2910 C   0  0  0  0  0  3  0  0  0  0  0  0
  -22.9120  -10.4450   20.1530 C   0  0  0  0  0  3  0  0  0  0  0  0
  -21.8380   -7.1190   21.2590 O   0  0  0  0  0  0  0  0  0  0  0  0
  -21.7690   -6.3510   22.3930 C   0  0  0  0  0  0  0  0  0  0  0  0
  -21.3130   -6.8760   23.6230 C   0  0  0  0  0  3  0  0  0  0  0  0
  -21.1880   -6.0330   24.7450 C   0  0  0  0  0  3  0  0  0  0  0  0
  -21.5140   -4.6670   24.6420 C   0  0  0  0  0  0  0  0  0  0  0  0
  -21.9660   -4.1430   23.4180 C   0  0  0  0  0  3  0  0  0  0  0  0
  -22.0920   -4.9830   22.2970 C   0  0  0  0  0  0  0  0  0  0  0  0
  -22.5070   -4.4670   21.1160 F   0  0  0  0  0  0  0  0  0  0  0  0
  -21.3890   -3.8550   25.7180 F   0  0  0  0  0  0  0  0  0  0  0  0
  -22.9310  -13.7650   21.1630 C   0  0  0  0  0  0  0  0  0  0  0  0
  -22.2080  -13.0380   22.0120 N   0  0  0  0  0  0  0  0  0  0  0  0
  -22.4890  -14.8040   20.6790 O   0  0  0  0  0  0  0  0  0  0  0  0
  -22.5720  -12.1880   22.4150 H   0  0  0  0  0  0  0  0  0  0  0  0
  -21.2720  -13.3360   22.2510 H   0  0  0  0  0  0  0  0  0  0  0  0
  -25.5720  -15.4550   20.4030 N   0  0  0  0  0  0  0  0  0  0  0  0
  -24.8200  -16.1250   20.5330 H   0  0  0  0  0  0  0  0  0  0  0  0
  -26.4230  -15.8830   20.0670 H   0  0  0  0  0  0  0  0  0  0  0  0
  1  2  2  0
  2 53  1  0
  2  5  1  0
  3  6  1  0
  4  1  1  0
  4  3  2  0
  6  5  2  0
  8  3  1  0
  8  7  1  0
  8  9  1  0
 10 11  1  0
 10  9  1  0
 12 14  1  0
 12 11  1  0
 13 24  2  0
 14 19  1  0
 15 23  1  0
 15 25  1  0
 16 22  1  0
 16 18  1  0
 17 23  1  0
 18 17  1  0
 19 18  2  0
 20 21  1  0
 20 14  2  0
 21 16  2  0
 22 15  1  0
 23 13  1  0
 25 27  2  0
 26 25  1  0
 28 26  1  0
 29 38  2  0
 29 34  1  0
 30 26  1  0
 30 34  1  0
 31 30  1  0
 32 33  1  0
 32 31  1  0
 33 29  1  0
 34 35  2  0
 35 36  1  0
 37 36  2  0
 38 37  1  0
 39 13  1  0
 39 40  1  0
 39 49  1  0
 40 43  1  0
 41 45  1  0
 41 40  1  0
 42 41  2  0
 45 44  1  0
 47 45  1  0
 47 48  1  0
 47 46  1  0
 49 52  1  1
 49 50  1  0
 51 49  1  0
 53 54  1  0
 55 63  1  0
 56 61  1  0
 57 58  1  0
 57 56  1  0
 59 58  1  0
 59 68  1  0
 59 60  1  0
 61 55  1  0
 61 60  1  0
 62 55  2  0
 63 54  1  0
 63 64  1  0
 65 66  2  0
 66 85  1  0
 67 66  1  0
 67 70  1  0
 68 69  1  0
 68 65  1  0
 69 67  2  0
 70 71  1  0
 71 72  2  0
 73 76  1  0
 73 72  1  0
 74 73  2  0
 75 74  1  0
 75 70  2  0
 76 77  1  0
 77 78  1  0
 78 79  2  0
 80 79  1  0
 80 84  1  0
 81 80  2  0
 82 77  2  0
 82 81  1  0
 83 82  1  0
 85 86  1  0
 86 89  1  0
 86 88  1  0
 87 85  2  0
 90 65  1  0
 90 91  1  0
 92 90  1  0
M  ISO  4  11 101  12 101  55 100  63 100
M  END
>  <TORSDO>  (74) 
F 22

>  <SCORE>  (74) 
-11.771

>  <name>  (74) 
73

>  <ligand_id>  (74) 
73

>  <original_smiles>  (74) 
[H]c1nc(C([H])(C([H])([H])[H])C([H])([H])C([H])([H])C([H])([H])Oc2c([H])c([H])c3c(c2[H])C([H])([H])N(C(=O)C([H])(N([H])C(=O)C([H])(N([H])C([H])([H])[H])C([H])([H])[H])C(C([H])([H])[H])(C([H])([H])[H])C([H])([H])[H])C([H])(C(=O)N([H])C2([H])c4c([H])c([H])c([H])c([H])c4C([H])([H])C([H])([H])C2([H])[H])C3([H])[H])nnc1C([H])([H])C([H])([H])N([H])C(=O)N1C([H])([H])C([H])([H])C([H])([H])C([H])(n2nc(-c3c([H])c([H])c(Oc4c([H])c([H])c(F)c([H])c4F)c([H])c3[H])c(C(=O)N([H])[H])c2N([H])[H])C1([H])[H]

>  <smiles>  (74) 
[H]c1nc(C([H])(C([H])([H])[H])C([H])([H])C([H])([H])C([H])([H])Oc2c([H])c([H])c3c(c2[H])C([H])([H])N(C(=O)C([H])(N([H])C(=O)C([H])(N([H])C([H])([H])[H])C([H])([H])[H])C(C([H])([H])[H])(C([H])([H])[H])C([H])([H])[H])C([H])(C(=O)N([H])C2([H])c4c([H])c([H])c([H])c([H])c4C([H])([H])C([H])([H])C2([H])[H])C3([H])[H])nnc1C([H])([H])C([H])([H])N([H])C(=O)N1C([H])([H])C([H])([H])C([H])([H])C([H])(n2nc(-c3c([H])c([H])c(Oc4c([H])c([H])c(F)c([H])c4F)c([H])c3[H])c(C(=O)N([H])[H])c2N([H])[H])C1([H])[H]

$$$$
74:0:0
     RDKit          3D

 92100  0  0  1  0  0  0  0  0999 V2000
  -31.7950  -22.2020   19.6530 C   0  0  0  0  0  1  0  0  0  0  0  0
  -29.9340  -22.6640   18.0740 C   0  0  0  0  0  1  0  0  0  0  0  0
  -30.2570  -22.2720   19.5300 C   0  0  1  0  0  0  0  0  0  0  0  0
  -28.6690  -20.4670   20.7110 C   0  0  0  0  0  3  0  0  0  0  0  0
  -30.1470  -19.6700   19.3140 C   0  0  0  0  0  3  0  0  0  0  0  0
  -29.7120  -20.8710   19.8230 C   0  0  0  0  0  0  0  0  0  0  0  0
  -28.5090  -19.1490   20.7630 N   0  0  0  0  0  0  0  0  0  0  0  0
  -29.4280  -18.6510   19.9070 N   0  0  0  0  0  0  0  0  0  0  0  0
  -29.5410  -17.2050   19.7090 C   0  0  0  0  0  2  0  0  0  0  0  0
  -30.7850  -16.5970   20.3980 C   0  0  0  0  0  2  0  0  0  0  0  0
  -30.9900  -14.2390   19.6400 C   0  0  0  0  0  0  0  0  0  0  0  0
  -30.4350  -12.1170   18.4950 C   0  0  0  0  0  2  0  0  0  0  0  0
  -29.3790  -12.3200   17.3920 C   0  0  0  0  0  2  0  0  0  0  0  0
  -27.9550  -12.2270   17.9700 C   0  0  0  0  0  2  0  0  0  0  0  0
  -27.7760  -13.1090   19.2330 C   0  0  0  0  0  3  0  0  0  0  0  0
  -28.9270  -12.8890   20.2380 C   0  0  0  0  0  2  0  0  0  0  0  0
  -30.2130  -13.1190   19.5500 N   0  0  0  0  0  0  0  0  0  0  0  0
  -31.9010  -14.4760   18.8390 O   0  0  0  0  0  0  0  0  0  0  0  0
  -30.8690  -14.7460   22.0130 C   0  0  0  0  0  1  0  0  0  0  0  0
  -30.6710  -15.1340   20.6100 N   0  0  0  0  0  0  0  0  0  0  0  0
  -25.4840  -13.8130   20.1780 C   0  0  0  0  0  0  0  0  0  0  0  0
  -24.4360  -13.0840   20.6710 C   0  0  0  0  0  0  0  0  0  0  0  0
  -24.8430  -11.7170   20.6150 C   0  0  0  0  0  0  0  0  0  0  0  0
  -26.4710  -12.8920   19.8550 N   0  0  0  0  0  0  0  0  0  0  0  0
  -26.0910  -11.6260   20.1730 N   0  0  0  0  0  0  0  0  0  0  0  0
  -24.0990  -10.4850   20.9000 C   0  0  0  0  0  0  0  0  0  0  0  0
  -24.5580   -9.5470   21.8530 C   0  0  0  0  0  3  0  0  0  0  0  0
  -23.8140   -8.3780   22.1250 C   0  0  0  0  0  3  0  0  0  0  0  0
  -22.5960   -8.1390   21.4440 C   0  0  0  0  0  0  0  0  0  0  0  0
  -22.1560   -9.0620   20.4800 C   0  0  0  0  0  3  0  0  0  0  0  0
  -22.9000  -10.2220   20.2080 C   0  0  0  0  0  3  0  0  0  0  0  0
  -21.8210   -7.0190   21.6240 O   0  0  0  0  0  0  0  0  0  0  0  0
  -21.7770   -6.3570   22.8240 C   0  0  0  0  0  0  0  0  0  0  0  0
  -21.3920   -7.0040   24.0190 C   0  0  0  0  0  3  0  0  0  0  0  0
  -21.2950   -6.2690   25.2180 C   0  0  0  0  0  3  0  0  0  0  0  0
  -21.5730   -4.8890   25.2220 C   0  0  0  0  0  0  0  0  0  0  0  0
  -21.9500   -4.2430   24.0320 C   0  0  0  0  0  3  0  0  0  0  0  0
  -22.0490   -4.9750   22.8360 C   0  0  0  0  0  0  0  0  0  0  0  0
  -22.3930   -4.3410   21.6890 F   0  0  0  0  0  0  0  0  0  0  0  0
  -21.4740   -4.1810   26.3720 F   0  0  0  0  0  0  0  0  0  0  0  0
  -23.0930  -13.6160   21.0830 C   0  0  0  0  0  0  0  0  0  0  0  0
  -22.4450  -12.9680   22.0460 N   0  0  0  0  0  0  0  0  0  0  0  0
  -22.6300  -14.6420   20.5860 O   0  0  0  0  0  0  0  0  0  0  0  0
  -22.8320  -12.1360   22.4670 H   0  0  0  0  0  0  0  0  0  0  0  0
  -21.5500  -13.3110   22.3660 H   0  0  0  0  0  0  0  0  0  0  0  0
  -25.6760  -15.1740   19.9590 N   0  0  0  0  0  0  0  0  0  0  0  0
  -24.9500  -15.8580   20.1420 H   0  0  0  0  0  0  0  0  0  0  0  0
  -26.5060  -15.5810   19.5480 H   0  0  0  0  0  0  0  0  0  0  0  0
  -29.7460  -23.3460   20.5530 C   0  0  0  0  0  2  0  0  0  0  0  0
  -28.4210  -24.1060   20.2540 C   0  0  0  0  0  2  0  0  0  0  0  0
  -28.5620  -25.3180   19.2920 C   0  0  0  0  0  2  0  0  0  0  0  0
  -28.4010  -26.5860   19.9540 O   0  0  0  0  0  0  0  0  0  0  0  0
  -24.5460  -31.6590   23.1200 C   0  0  0  0  0  0  0  0  0  0  0  0
  -27.1940  -27.2640   19.9550 C   0  0  0  0  0  0  0  0  0  0  0  0
  -23.3440  -30.3010   21.4380 C   0  0  0  0  0  3  0  0  0  0  0  0
  -24.7980  -28.7850   19.9930 C   0  0  0  0  0  0  0  0  0  0  0  0
  -25.8720  -30.6500   21.2640 C   0  0  0  0  0  2  0  0  0  0  0  0
  -25.9550  -29.2910   20.5960 C   0  0  0  0  0  0  0  0  0  0  0  0
  -27.1510  -28.5380   20.5710 C   0  0  0  0  0  3  0  0  0  0  0  0
  -26.0070  -26.7650   19.3680 C   0  0  0  0  0  3  0  0  0  0  0  0
  -24.8190  -27.5210   19.3790 C   0  0  0  0  0  3  0  0  0  0  0  0
  -23.5600  -29.6520   20.0450 C   0  0  0  0  0  2  0  0  0  0  0  0
  -24.6060  -30.8840   22.0000 N   0  0  0  0  0  0  0  0  0  0  0  0
  -23.4620  -31.9250   23.6580 O   0  0  0  0  0  0  0  0  0  0  0  0
  -22.6800  -29.2620   22.3700 C   0  0  0  0  0  0  0  0  0  0  0  0
  -21.3520  -29.1110   22.2510 N   0  0  0  0  0  0  0  0  0  0  0  0
  -23.3580  -28.5960   23.1590 O   0  0  0  0  0  0  0  0  0  0  0  0
  -20.8660  -29.7040   21.5910 H   0  0  0  0  0  0  0  0  0  0  0  0
  -17.9550  -27.9870   22.7550 C   0  0  0  0  0  0  0  0  0  0  0  0
  -20.5220  -28.1650   22.9960 C   0  0  0  0  0  3  0  0  0  0  0  0
  -20.5760  -26.7560   22.3610 C   0  0  0  0  0  2  0  0  0  0  0  0
  -19.4500  -26.5040   21.3530 C   0  0  0  0  0  2  0  0  0  0  0  0
  -18.0830  -26.6610   22.0250 C   0  0  0  0  0  2  0  0  0  0  0  0
  -19.1000  -28.7010   23.1970 C   0  0  0  0  0  0  0  0  0  0  0  0
  -18.9260  -29.9460   23.8390 C   0  0  0  0  0  3  0  0  0  0  0  0
  -17.6380  -30.4760   24.0440 C   0  0  0  0  0  3  0  0  0  0  0  0
  -16.5070  -29.7580   23.6190 C   0  0  0  0  0  3  0  0  0  0  0  0
  -16.6660  -28.5160   22.9800 C   0  0  0  0  0  3  0  0  0  0  0  0
  -25.8300  -32.2700   23.7630 C   0  0  0  0  0  3  0  0  0  0  0  0
  -25.5280  -33.6630   24.1180 N   0  0  0  0  0  0  0  0  0  0  0  0
  -25.8760  -34.7280   23.3820 C   0  0  0  0  0  0  0  0  0  0  0  0
  -26.5560  -34.6410   22.3570 O   0  0  0  0  0  0  0  0  0  0  0  0
  -24.9270  -33.8060   24.9160 H   0  0  0  0  0  0  0  0  0  0  0  0
  -24.1660  -36.5410   23.0410 C   0  0  0  0  0  1  0  0  0  0  0  0
  -25.3910  -36.1100   23.8630 C   0  0  0  0  0  3  0  0  0  0  0  0
  -27.5210  -36.9580   24.7410 C   0  0  0  0  0  1  0  0  0  0  0  0
  -26.4320  -37.1580   23.7890 N   0  0  0  0  0  0  0  0  0  0  0  0
  -26.0290  -38.0760   23.9590 H   0  0  0  0  0  0  0  0  0  0  0  0
  -26.3360  -31.4690   25.0250 C   0  0  1  0  0  0  0  0  0  0  0  0
  -25.2370  -31.2160   26.0830 C   0  0  0  0  0  1  0  0  0  0  0  0
  -26.9110  -30.0980   24.6040 C   0  0  0  0  0  1  0  0  0  0  0  0
  -27.4860  -32.2430   25.7110 C   0  0  0  0  0  1  0  0  0  0  0  0
  3  2  1  6
  3  1  1  0
  3  6  1  0
  3 49  1  0
  4  7  2  0
  5  6  2  0
  5  8  1  0
  6  4  1  0
  8  7  1  0
  9  8  1  0
  9 10  1  0
 10 20  1  0
 11 20  1  0
 12 17  1  0
 13 14  1  0
 13 12  1  0
 15 14  1  0
 15 24  1  0
 15 16  1  0
 17 11  1  0
 17 16  1  0
 18 11  2  0
 20 19  1  0
 21 22  2  0
 22 41  1  0
 23 22  1  0
 23 26  1  0
 24 25  1  0
 24 21  1  0
 25 23  2  0
 26 27  1  0
 27 28  2  0
 29 32  1  0
 29 28  1  0
 30 29  2  0
 31 30  1  0
 31 26  2  0
 32 33  1  0
 33 38  2  0
 33 34  1  0
 34 35  2  0
 35 36  1  0
 36 40  1  0
 37 36  2  0
 38 37  1  0
 39 38  1  0
 41 42  1  0
 42 45  1  0
 42 44  1  0
 43 41  2  0
 46 47  1  0
 46 21  1  0
 48 46  1  0
 50 49  1  0
 51 52  1  0
 51 50  1  0
 52 54  1  0
 53 64  2  0
 54 59  1  0
 55 63  1  0
 55 65  1  0
 56 62  1  0
 56 58  1  0
 57 63  1  0
 58 57  1  0
 59 58  2  0
 60 61  1  0
 60 54  2  0
 61 56  2  0
 62 55  1  0
 63 53  1  0
 65 67  2  0
 66 65  1  0
 68 66  1  0
 69 78  2  0
 69 74  1  0
 70 66  1  0
 70 74  1  0
 71 70  1  0
 72 73  1  0
 72 71  1  0
 73 69  1  0
 74 75  2  0
 75 76  1  0
 77 76  2  0
 78 77  1  0
 79 53  1  0
 79 80  1  0
 79 89  1  0
 80 83  1  0
 81 85  1  0
 81 80  1  0
 82 81  2  0
 85 84  1  0
 87 85  1  0
 87 88  1  0
 87 86  1  0
 89 92  1  1
 89 90  1  0
 91 89  1  0
M  ISO  4  11 100  20 100  51 101  52 101
M  END
>  <TORSDO>  (75) 
F 22

>  <SCORE>  (75) 
-11.762

>  <name>  (75) 
74

>  <ligand_id>  (75) 
74

>  <original_smiles>  (75) 
[H]c1nn(C([H])([H])C([H])([H])N(C(=O)N2C([H])([H])C([H])([H])C([H])([H])C([H])(n3nc(-c4c([H])c([H])c(Oc5c([H])c([H])c(F)c([H])c5F)c([H])c4[H])c(C(=O)N([H])[H])c3N([H])[H])C2([H])[H])C([H])([H])[H])c([H])c1C(C([H])([H])[H])(C([H])([H])[H])C([H])([H])C([H])([H])C([H])([H])Oc1c([H])c([H])c2c(c1[H])C([H])([H])N(C(=O)C([H])(N([H])C(=O)C([H])(N([H])C([H])([H])[H])C([H])([H])[H])C(C([H])([H])[H])(C([H])([H])[H])C([H])([H])[H])C([H])(C(=O)N([H])C1([H])c3c([H])c([H])c([H])c([H])c3C([H])([H])C([H])([H])C1([H])[H])C2([H])[H]

>  <smiles>  (75) 
[H]c1nn(C([H])([H])C([H])([H])N(C(=O)N2C([H])([H])C([H])([H])C([H])([H])C([H])(n3nc(-c4c([H])c([H])c(Oc5c([H])c([H])c(F)c([H])c5F)c([H])c4[H])c(C(=O)N([H])[H])c3N([H])[H])C2([H])[H])C([H])([H])[H])c([H])c1C(C([H])([H])[H])(C([H])([H])[H])C([H])([H])C([H])([H])C([H])([H])Oc1c([H])c([H])c2c(c1[H])C([H])([H])N(C(=O)C([H])(N([H])C(=O)C([H])(N([H])C([H])([H])[H])C([H])([H])[H])C(C([H])([H])[H])(C([H])([H])[H])C([H])([H])[H])C([H])(C(=O)N([H])C1([H])c3c([H])c([H])c([H])c([H])c3C([H])([H])C([H])([H])C1([H])[H])C2([H])[H]

$$$$
75:0:0
     RDKit          3D

 90 98  0  0  1  0  0  0  0  0999 V2000
  -29.1070  -21.2050   21.3960 C   0  0  0  0  0  3  0  0  0  0  0  0
  -29.4580  -20.4150   19.3940 C   0  0  0  0  0  3  0  0  0  0  0  0
  -29.3370  -21.6210   20.0500 C   0  0  0  0  0  0  0  0  0  0  0  0
  -29.0910  -19.8800   21.5420 N   0  0  0  0  0  0  0  0  0  0  0  0
  -29.3250  -19.3770   20.3060 N   0  0  0  0  0  0  0  0  0  0  0  0
  -30.9860  -23.3000   19.2700 C   0  0  0  0  0  1  0  0  0  0  0  0
  -29.4800  -23.0310   19.4520 C   0  0  0  0  0  3  0  0  0  0  0  0
  -28.7730  -24.2090   20.2260 C   0  0  0  0  0  2  0  0  0  0  0  0
  -28.6730  -25.5580   19.4280 C   0  0  0  0  0  2  0  0  0  0  0  0
  -28.4370  -26.7520   20.2150 O   0  0  0  0  0  0  0  0  0  0  0  0
  -24.5820  -31.9290   23.2490 C   0  0  0  0  0  0  0  0  0  0  0  0
  -27.2440  -27.4640   20.1650 C   0  0  0  0  0  0  0  0  0  0  0  0
  -23.3830  -30.5260   21.6030 C   0  0  0  0  0  3  0  0  0  0  0  0
  -24.8410  -28.9900   20.1760 C   0  0  0  0  0  0  0  0  0  0  0  0
  -25.9100  -30.8800   21.4130 C   0  0  0  0  0  2  0  0  0  0  0  0
  -25.9970  -29.5070   20.7680 C   0  0  0  0  0  0  0  0  0  0  0  0
  -27.1950  -28.7520   20.7600 C   0  0  0  0  0  3  0  0  0  0  0  0
  -26.0590  -26.9620   19.5780 C   0  0  0  0  0  3  0  0  0  0  0  0
  -24.8680  -27.7160   19.5780 C   0  0  0  0  0  3  0  0  0  0  0  0
  -23.5960  -29.8490   20.2230 C   0  0  0  0  0  2  0  0  0  0  0  0
  -24.6430  -31.1280   22.1460 N   0  0  0  0  0  0  0  0  0  0  0  0
  -23.4990  -32.1990   23.7870 O   0  0  0  0  0  0  0  0  0  0  0  0
  -22.7300  -29.5040   22.5620 C   0  0  0  0  0  0  0  0  0  0  0  0
  -21.4050  -29.3240   22.4360 N   0  0  0  0  0  0  0  0  0  0  0  0
  -23.4140  -28.8770   23.3760 O   0  0  0  0  0  0  0  0  0  0  0  0
  -20.9150  -29.8820   21.7510 H   0  0  0  0  0  0  0  0  0  0  0  0
  -18.0280  -28.1360   22.9400 C   0  0  0  0  0  0  0  0  0  0  0  0
  -20.5890  -28.3830   23.2040 C   0  0  0  0  0  3  0  0  0  0  0  0
  -20.6840  -26.9550   22.6180 C   0  0  0  0  0  2  0  0  0  0  0  0
  -19.5770  -26.6430   21.6070 C   0  0  0  0  0  2  0  0  0  0  0  0
  -18.1980  -26.7890   22.2570 C   0  0  0  0  0  2  0  0  0  0  0  0
  -19.1510  -28.8910   23.3710 C   0  0  0  0  0  0  0  0  0  0  0  0
  -18.9390  -30.1510   23.9700 C   0  0  0  0  0  3  0  0  0  0  0  0
  -17.6370  -30.6570   24.1430 C   0  0  0  0  0  3  0  0  0  0  0  0
  -16.5280  -29.8980   23.7270 C   0  0  0  0  0  3  0  0  0  0  0  0
  -16.7250  -28.6390   23.1330 C   0  0  0  0  0  3  0  0  0  0  0  0
  -25.8650  -32.5610   23.8720 C   0  0  0  0  0  3  0  0  0  0  0  0
  -25.5590  -33.9630   24.1900 N   0  0  0  0  0  0  0  0  0  0  0  0
  -25.9030  -35.0100   23.4300 C   0  0  0  0  0  0  0  0  0  0  0  0
  -26.5830  -34.8980   22.4050 O   0  0  0  0  0  0  0  0  0  0  0  0
  -24.9560  -34.1240   24.9850 H   0  0  0  0  0  0  0  0  0  0  0  0
  -24.1890  -36.8070   23.0400 C   0  0  0  0  0  1  0  0  0  0  0  0
  -25.4150  -36.4030   23.8730 C   0  0  0  0  0  3  0  0  0  0  0  0
  -27.5410  -37.2810   24.7320 C   0  0  0  0  0  1  0  0  0  0  0  0
  -26.4550  -37.4500   23.7690 N   0  0  0  0  0  0  0  0  0  0  0  0
  -26.0520  -38.3730   23.9050 H   0  0  0  0  0  0  0  0  0  0  0  0
  -26.3760  -31.7980   25.1550 C   0  0  1  0  0  0  0  0  0  0  0  0
  -25.2790  -31.5670   26.2200 C   0  0  0  0  0  1  0  0  0  0  0  0
  -26.9580  -30.4170   24.7730 C   0  0  0  0  0  1  0  0  0  0  0  0
  -27.5250  -32.5960   25.8160 C   0  0  0  0  0  1  0  0  0  0  0  0
  -29.2800  -17.9210   20.0580 C   0  0  0  0  0  2  0  0  0  0  0  0
  -30.2520  -17.0390   20.9030 C   0  0  0  0  0  2  0  0  0  0  0  0
  -30.6880  -14.5850   20.3260 C   0  0  0  0  0  0  0  0  0  0  0  0
  -30.4090  -12.4240   19.1630 C   0  0  0  0  0  2  0  0  0  0  0  0
  -29.4470  -12.6420   17.9750 C   0  0  0  0  0  2  0  0  0  0  0  0
  -27.9770  -12.5020   18.4190 C   0  0  0  0  0  2  0  0  0  0  0  0
  -27.6580  -13.3140   19.7010 C   0  0  0  0  0  3  0  0  0  0  0  0
  -28.7280  -13.0720   20.7890 C   0  0  0  0  0  2  0  0  0  0  0  0
  -30.0420  -13.3920   20.2080 N   0  0  0  0  0  0  0  0  0  0  0  0
  -31.8170  -14.7820   19.8690 O   0  0  0  0  0  0  0  0  0  0  0  0
  -29.9390  -15.5910   20.8260 N   0  0  0  0  0  0  0  0  0  0  0  0
  -29.0250  -15.3160   21.1550 H   0  0  0  0  0  0  0  0  0  0  0  0
  -25.2670  -13.9200   20.4300 C   0  0  0  0  0  0  0  0  0  0  0  0
  -24.2040  -13.1480   20.8140 C   0  0  0  0  0  0  0  0  0  0  0  0
  -24.6670  -11.7970   20.7840 C   0  0  0  0  0  0  0  0  0  0  0  0
  -26.3100  -13.0380   20.1930 N   0  0  0  0  0  0  0  0  0  0  0  0
  -25.9530  -11.7560   20.4610 N   0  0  0  0  0  0  0  0  0  0  0  0
  -23.9440  -10.5350   20.9890 C   0  0  0  0  0  0  0  0  0  0  0  0
  -24.3860   -9.5740   21.9240 C   0  0  0  0  0  3  0  0  0  0  0  0
  -23.6650   -8.3760   22.1170 C   0  0  0  0  0  3  0  0  0  0  0  0
  -22.4850   -8.1320   21.3720 C   0  0  0  0  0  0  0  0  0  0  0  0
  -22.0610   -9.0830   20.4270 C   0  0  0  0  0  3  0  0  0  0  0  0
  -22.7830  -10.2720   20.2340 C   0  0  0  0  0  3  0  0  0  0  0  0
  -21.7350   -6.9850   21.4720 O   0  0  0  0  0  0  0  0  0  0  0  0
  -21.6980   -6.2470   22.6280 C   0  0  0  0  0  0  0  0  0  0  0  0
  -21.2780   -6.8060   23.8550 C   0  0  0  0  0  3  0  0  0  0  0  0
  -21.1880   -5.9960   25.0030 C   0  0  0  0  0  3  0  0  0  0  0  0
  -21.5080   -4.6250   24.9270 C   0  0  0  0  0  0  0  0  0  0  0  0
  -21.9200   -4.0660   23.7040 C   0  0  0  0  0  3  0  0  0  0  0  0
  -22.0120   -4.8760   22.5580 C   0  0  0  0  0  0  0  0  0  0  0  0
  -22.3900   -4.3270   21.3770 F   0  0  0  0  0  0  0  0  0  0  0  0
  -21.4150   -3.8450   26.0290 F   0  0  0  0  0  0  0  0  0  0  0  0
  -22.8090  -13.6260   21.1000 C   0  0  0  0  0  0  0  0  0  0  0  0
  -22.0930  -12.9310   21.9780 N   0  0  0  0  0  0  0  0  0  0  0  0
  -22.3650  -14.6480   20.5810 O   0  0  0  0  0  0  0  0  0  0  0  0
  -22.4650  -12.1000   22.4150 H   0  0  0  0  0  0  0  0  0  0  0  0
  -21.1580  -13.2310   22.2110 H   0  0  0  0  0  0  0  0  0  0  0  0
  -25.4290  -15.2900   20.2440 N   0  0  0  0  0  0  0  0  0  0  0  0
  -24.6640  -15.9460   20.3540 H   0  0  0  0  0  0  0  0  0  0  0  0
  -26.2700  -15.7240   19.8830 H   0  0  0  0  0  0  0  0  0  0  0  0
  1  4  2  0
  2  3  2  0
  2  5  1  0
  3  1  1  0
  5  4  1  0
  7  6  1  0
  7  3  1  0
  7  8  1  0
  9 10  1  0
  9  8  1  0
 11 22  2  0
 12 10  1  0
 12 17  1  0
 13 21  1  0
 13 23  1  0
 14 20  1  0
 14 16  1  0
 15 21  1  0
 16 15  1  0
 17 16  2  0
 18 12  2  0
 19 18  1  0
 19 14  2  0
 20 13  1  0
 21 11  1  0
 23 25  2  0
 24 23  1  0
 26 24  1  0
 27 36  2  0
 27 32  1  0
 28 24  1  0
 28 32  1  0
 29 28  1  0
 30 31  1  0
 30 29  1  0
 31 27  1  0
 32 33  2  0
 33 34  1  0
 35 34  2  0
 36 35  1  0
 37 11  1  0
 37 38  1  0
 37 47  1  0
 38 41  1  0
 39 43  1  0
 39 38  1  0
 40 39  2  0
 43 42  1  0
 45 43  1  0
 45 46  1  0
 45 44  1  0
 47 50  1  1
 47 48  1  0
 49 47  1  0
 51  5  1  0
 51 52  1  0
 53 61  1  0
 54 59  1  0
 55 56  1  0
 55 54  1  0
 57 56  1  0
 57 66  1  0
 57 58  1  0
 59 53  1  0
 59 58  1  0
 60 53  2  0
 61 52  1  0
 61 62  1  0
 63 64  2  0
 64 83  1  0
 65 64  1  0
 65 68  1  0
 66 63  1  0
 66 67  1  0
 67 65  2  0
 68 69  1  0
 69 70  2  0
 71 74  1  0
 71 70  1  0
 72 71  2  0
 73 72  1  0
 73 68  2  0
 74 75  1  0
 75 76  1  0
 76 77  2  0
 78 77  1  0
 78 82  1  0
 79 78  2  0
 80 75  2  0
 80 79  1  0
 81 80  1  0
 83 84  1  0
 84 87  1  0
 84 86  1  0
 85 83  2  0
 88 89  1  0
 88 63  1  0
 90 88  1  0
M  ISO  4   9 101  10 101  53 100  61 100
M  END
>  <TORSDO>  (76) 
F 21

>  <SCORE>  (76) 
-13.118

>  <name>  (76) 
75

>  <ligand_id>  (76) 
75

>  <original_smiles>  (76) 
[H]c1nn(C([H])([H])C([H])([H])N([H])C(=O)N2C([H])([H])C([H])([H])C([H])([H])C([H])(n3nc(-c4c([H])c([H])c(Oc5c([H])c([H])c(F)c([H])c5F)c([H])c4[H])c(C(=O)N([H])[H])c3N([H])[H])C2([H])[H])c([H])c1C([H])(C([H])([H])[H])C([H])([H])C([H])([H])Oc1c([H])c([H])c2c(c1[H])C([H])([H])N(C(=O)C([H])(N([H])C(=O)C([H])(N([H])C([H])([H])[H])C([H])([H])[H])C(C([H])([H])[H])(C([H])([H])[H])C([H])([H])[H])C([H])(C(=O)N([H])C1([H])c3c([H])c([H])c([H])c([H])c3C([H])([H])C([H])([H])C1([H])[H])C2([H])[H]

>  <smiles>  (76) 
[H]c1nn(C([H])([H])C([H])([H])N([H])C(=O)N2C([H])([H])C([H])([H])C([H])([H])C([H])(n3nc(-c4c([H])c([H])c(Oc5c([H])c([H])c(F)c([H])c5F)c([H])c4[H])c(C(=O)N([H])[H])c3N([H])[H])C2([H])[H])c([H])c1C([H])(C([H])([H])[H])C([H])([H])C([H])([H])Oc1c([H])c([H])c2c(c1[H])C([H])([H])N(C(=O)C([H])(N([H])C(=O)C([H])(N([H])C([H])([H])[H])C([H])([H])[H])C(C([H])([H])[H])(C([H])([H])[H])C([H])([H])[H])C([H])(C(=O)N([H])C1([H])c3c([H])c([H])c([H])c([H])c3C([H])([H])C([H])([H])C1([H])[H])C2([H])[H]

$$$$
76:0:0
     RDKit          3D

 93101  0  0  1  0  0  0  0  0999 V2000
  -29.3860  -20.2510   21.7870 C   0  0  0  0  0  3  0  0  0  0  0  0
  -29.2010  -19.2330   20.8230 C   0  0  0  0  0  0  0  0  0  0  0  0
  -28.5680  -21.8240   20.2970 C   0  0  0  0  0  0  0  0  0  0  0  0
  -28.5010  -20.8230   19.2840 C   0  0  0  0  0  0  0  0  0  0  0  0
  -29.0620  -21.5410   21.5300 N   0  0  0  0  0  0  0  0  0  0  0  0
  -28.7890  -19.5230   19.5650 N   0  0  0  0  0  0  0  0  0  0  0  0
  -26.5250  -20.7490   17.6850 C   0  0  0  0  0  1  0  0  0  0  0  0
  -28.8930  -20.4230   16.8000 C   0  0  0  0  0  1  0  0  0  0  0  0
  -28.0100  -21.1080   17.8620 C   0  0  0  0  0  3  0  0  0  0  0  0
  -29.2900  -17.7540   21.1940 C   0  0  0  0  0  2  0  0  0  0  0  0
  -30.4010  -16.9540   20.4850 C   0  0  0  0  0  2  0  0  0  0  0  0
  -30.9200  -14.5400   20.1110 C   0  0  0  0  0  0  0  0  0  0  0  0
  -30.5650  -12.3990   18.9510 C   0  0  0  0  0  2  0  0  0  0  0  0
  -29.5570  -12.6300   17.8040 C   0  0  0  0  0  2  0  0  0  0  0  0
  -28.1060  -12.4980   18.3070 C   0  0  0  0  0  2  0  0  0  0  0  0
  -27.8420  -13.3160   19.5990 C   0  0  0  0  0  3  0  0  0  0  0  0
  -28.9520  -13.0590   20.6480 C   0  0  0  0  0  2  0  0  0  0  0  0
  -30.2550  -13.3590   20.0220 N   0  0  0  0  0  0  0  0  0  0  0  0
  -31.9870  -14.7730   19.5360 O   0  0  0  0  0  0  0  0  0  0  0  0
  -30.2340  -15.5150   20.7250 N   0  0  0  0  0  0  0  0  0  0  0  0
  -29.3840  -15.2250   21.1850 H   0  0  0  0  0  0  0  0  0  0  0  0
  -25.4930  -13.9330   20.4540 C   0  0  0  0  0  0  0  0  0  0  0  0
  -24.4390  -13.1620   20.8630 C   0  0  0  0  0  0  0  0  0  0  0  0
  -24.8760  -11.8060   20.7580 C   0  0  0  0  0  0  0  0  0  0  0  0
  -26.5140  -13.0460   20.1410 N   0  0  0  0  0  0  0  0  0  0  0  0
  -26.1460  -11.7600   20.3790 N   0  0  0  0  0  0  0  0  0  0  0  0
  -24.1440  -10.5470   20.9450 C   0  0  0  0  0  0  0  0  0  0  0  0
  -24.5610   -9.5850   21.8900 C   0  0  0  0  0  3  0  0  0  0  0  0
  -23.8310   -8.3910   22.0680 C   0  0  0  0  0  3  0  0  0  0  0  0
  -22.6670   -8.1520   21.2990 C   0  0  0  0  0  0  0  0  0  0  0  0
  -22.2690   -9.1030   20.3450 C   0  0  0  0  0  3  0  0  0  0  0  0
  -23.0000  -10.2890   20.1670 C   0  0  0  0  0  3  0  0  0  0  0  0
  -21.9100   -7.0080   21.3870 O   0  0  0  0  0  0  0  0  0  0  0  0
  -21.7710   -6.3230   22.5680 C   0  0  0  0  0  0  0  0  0  0  0  0
  -21.2190   -6.9280   23.7200 C   0  0  0  0  0  3  0  0  0  0  0  0
  -21.0250   -6.1670   24.8900 C   0  0  0  0  0  3  0  0  0  0  0  0
  -21.3770   -4.8030   24.9100 C   0  0  0  0  0  0  0  0  0  0  0  0
  -21.9230   -4.2010   23.7650 C   0  0  0  0  0  3  0  0  0  0  0  0
  -22.1150   -4.9570   22.5960 C   0  0  0  0  0  0  0  0  0  0  0  0
  -22.6180   -4.3640   21.4850 F   0  0  0  0  0  0  0  0  0  0  0  0
  -21.1870   -4.0700   26.0330 F   0  0  0  0  0  0  0  0  0  0  0  0
  -23.0680  -13.6450   21.2350 C   0  0  0  0  0  0  0  0  0  0  0  0
  -22.3850  -12.9220   22.1140 N   0  0  0  0  0  0  0  0  0  0  0  0
  -22.6150  -14.6980   20.7840 O   0  0  0  0  0  0  0  0  0  0  0  0
  -22.7720  -12.0710   22.4950 H   0  0  0  0  0  0  0  0  0  0  0  0
  -21.4650  -13.2170   22.4080 H   0  0  0  0  0  0  0  0  0  0  0  0
  -25.6610  -15.3060   20.3050 N   0  0  0  0  0  0  0  0  0  0  0  0
  -24.8790  -15.9430   20.4230 H   0  0  0  0  0  0  0  0  0  0  0  0
  -26.4580  -15.7410   19.8570 H   0  0  0  0  0  0  0  0  0  0  0  0
  -27.9120  -23.2000   20.1700 C   0  0  0  0  0  2  0  0  0  0  0  0
  -28.8490  -24.3940   19.8750 C   0  0  0  0  0  2  0  0  0  0  0  0
  -28.6110  -25.5920   20.8270 C   0  0  0  0  0  2  0  0  0  0  0  0
  -28.7040  -26.8610   20.1680 O   0  0  0  0  0  0  0  0  0  0  0  0
  -24.6510  -31.8380   23.2280 C   0  0  0  0  0  0  0  0  0  0  0  0
  -27.5190  -27.5600   20.1350 C   0  0  0  0  0  0  0  0  0  0  0  0
  -23.5350  -30.4310   21.5260 C   0  0  0  0  0  3  0  0  0  0  0  0
  -25.0760  -28.9690   20.1120 C   0  0  0  0  0  0  0  0  0  0  0  0
  -26.0480  -30.8810   21.4010 C   0  0  0  0  0  2  0  0  0  0  0  0
  -26.1980  -29.5270   20.7380 C   0  0  0  0  0  0  0  0  0  0  0  0
  -27.4260  -28.8300   20.7440 C   0  0  0  0  0  3  0  0  0  0  0  0
  -26.3830  -27.0100   19.5030 C   0  0  0  0  0  3  0  0  0  0  0  0
  -25.1620  -27.7120   19.4870 C   0  0  0  0  0  3  0  0  0  0  0  0
  -23.8040  -29.7850   20.1410 C   0  0  0  0  0  2  0  0  0  0  0  0
  -24.7610  -31.0640   22.1120 N   0  0  0  0  0  0  0  0  0  0  0  0
  -23.5470  -32.0640   23.7440 O   0  0  0  0  0  0  0  0  0  0  0  0
  -22.8900  -29.3730   22.4490 C   0  0  0  0  0  0  0  0  0  0  0  0
  -21.5670  -29.1860   22.3120 N   0  0  0  0  0  0  0  0  0  0  0  0
  -23.5750  -28.7230   23.2420 O   0  0  0  0  0  0  0  0  0  0  0  0
  -21.0740  -29.7650   21.6470 H   0  0  0  0  0  0  0  0  0  0  0  0
  -18.1900  -27.9990   22.8070 C   0  0  0  0  0  0  0  0  0  0  0  0
  -20.7550  -28.2170   23.0460 C   0  0  0  0  0  3  0  0  0  0  0  0
  -20.8320  -26.8190   22.3910 C   0  0  0  0  0  2  0  0  0  0  0  0
  -19.7090  -26.5620   21.3820 C   0  0  0  0  0  2  0  0  0  0  0  0
  -18.3420  -26.6860   22.0570 C   0  0  0  0  0  2  0  0  0  0  0  0
  -19.3240  -28.7250   23.2580 C   0  0  0  0  0  0  0  0  0  0  0  0
  -19.1290  -29.9580   23.9200 C   0  0  0  0  0  3  0  0  0  0  0  0
  -17.8320  -30.4630   24.1350 C   0  0  0  0  0  3  0  0  0  0  0  0
  -16.7130  -29.7320   23.6990 C   0  0  0  0  0  3  0  0  0  0  0  0
  -16.8930  -28.5010   23.0420 C   0  0  0  0  0  3  0  0  0  0  0  0
  -25.8990  -32.4970   23.8990 C   0  0  0  0  0  3  0  0  0  0  0  0
  -25.5510  -33.8870   24.2180 N   0  0  0  0  0  0  0  0  0  0  0  0
  -25.8840  -34.9440   23.4650 C   0  0  0  0  0  0  0  0  0  0  0  0
  -26.5900  -34.8510   22.4570 O   0  0  0  0  0  0  0  0  0  0  0  0
  -24.9400  -34.0320   25.0080 H   0  0  0  0  0  0  0  0  0  0  0  0
  -24.1330  -36.6970   23.0430 C   0  0  0  0  0  1  0  0  0  0  0  0
  -25.3530  -36.3220   23.9010 C   0  0  0  0  0  3  0  0  0  0  0  0
  -27.4330  -37.2550   24.8130 C   0  0  0  0  0  1  0  0  0  0  0  0
  -26.3670  -37.3950   23.8240 N   0  0  0  0  0  0  0  0  0  0  0  0
  -25.9370  -38.3070   23.9500 H   0  0  0  0  0  0  0  0  0  0  0  0
  -26.3830  -31.7340   25.1930 C   0  0  1  0  0  0  0  0  0  0  0  0
  -25.2540  -31.4670   26.2160 C   0  0  0  0  0  1  0  0  0  0  0  0
  -27.0140  -30.3730   24.8180 C   0  0  0  0  0  1  0  0  0  0  0  0
  -27.4910  -32.5520   25.9010 C   0  0  0  0  0  1  0  0  0  0  0  0
  2 10  1  0
  2  1  2  0
  3  5  2  0
  4  6  2  0
  4  3  1  0
  5  1  1  0
  6  2  1  0
  7  9  1  0
  8  9  1  0
  9  4  1  0
 11 20  1  0
 11 10  1  0
 12 20  1  0
 13 18  1  0
 14 15  1  0
 14 13  1  0
 16 15  1  0
 16 25  1  0
 16 17  1  0
 18 12  1  0
 18 17  1  0
 19 12  2  0
 20 21  1  0
 22 23  2  0
 23 42  1  0
 24 23  1  0
 24 27  1  0
 25 26  1  0
 25 22  1  0
 26 24  2  0
 27 28  1  0
 28 29  2  0
 30 33  1  0
 30 29  1  0
 31 30  2  0
 32 31  1  0
 32 27  2  0
 33 34  1  0
 34 39  2  0
 34 35  1  0
 35 36  2  0
 36 37  1  0
 37 41  1  0
 38 37  2  0
 39 38  1  0
 40 39  1  0
 42 43  1  0
 43 46  1  0
 43 45  1  0
 44 42  2  0
 47 48  1  0
 47 22  1  0
 49 47  1  0
 50  3  1  0
 51 50  1  0
 51 52  1  0
 53 52  1  0
 54 65  2  0
 55 53  1  0
 55 60  1  0
 56 64  1  0
 56 66  1  0
 57 63  1  0
 57 59  1  0
 58 64  1  0
 59 60  2  0
 59 58  1  0
 61 55  2  0
 62 61  1  0
 62 57  2  0
 63 56  1  0
 64 54  1  0
 66 68  2  0
 67 66  1  0
 69 67  1  0
 70 79  2  0
 70 75  1  0
 71 67  1  0
 71 75  1  0
 72 71  1  0
 73 74  1  0
 73 72  1  0
 74 70  1  0
 75 76  2  0
 76 77  1  0
 78 77  2  0
 79 78  1  0
 80 54  1  0
 80 81  1  0
 80 90  1  0
 81 84  1  0
 82 86  1  0
 82 81  1  0
 83 82  2  0
 86 85  1  0
 88 86  1  0
 88 89  1  0
 88 87  1  0
 90 93  1  1
 90 91  1  0
 92 90  1  0
M  ISO  4  12 100  20 100  52 101  53 101
M  END
>  <TORSDO>  (77) 
F 22

>  <SCORE>  (77) 
-12.611

>  <name>  (77) 
76

>  <ligand_id>  (77) 
76

>  <original_smiles>  (77) 
[H]c1nc(C([H])([H])C([H])([H])C([H])([H])Oc2c([H])c([H])c3c(c2[H])C([H])([H])N(C(=O)C([H])(N([H])C(=O)C([H])(N([H])C([H])([H])[H])C([H])([H])[H])C(C([H])([H])[H])(C([H])([H])[H])C([H])([H])[H])C([H])(C(=O)N([H])C2([H])c4c([H])c([H])c([H])c([H])c4C([H])([H])C([H])([H])C2([H])[H])C3([H])[H])c(C([H])(C([H])([H])[H])C([H])([H])[H])nc1C([H])([H])C([H])([H])N([H])C(=O)N1C([H])([H])C([H])([H])C([H])([H])C([H])(n2nc(-c3c([H])c([H])c(Oc4c([H])c([H])c(F)c([H])c4F)c([H])c3[H])c(C(=O)N([H])[H])c2N([H])[H])C1([H])[H]

>  <smiles>  (77) 
[H]c1nc(C([H])([H])C([H])([H])C([H])([H])Oc2c([H])c([H])c3c(c2[H])C([H])([H])N(C(=O)C([H])(N([H])C(=O)C([H])(N([H])C([H])([H])[H])C([H])([H])[H])C(C([H])([H])[H])(C([H])([H])[H])C([H])([H])[H])C([H])(C(=O)N([H])C2([H])c4c([H])c([H])c([H])c([H])c4C([H])([H])C([H])([H])C2([H])[H])C3([H])[H])c(C([H])(C([H])([H])[H])C([H])([H])[H])nc1C([H])([H])C([H])([H])N([H])C(=O)N1C([H])([H])C([H])([H])C([H])([H])C([H])(n2nc(-c3c([H])c([H])c(Oc4c([H])c([H])c(F)c([H])c4F)c([H])c3[H])c(C(=O)N([H])[H])c2N([H])[H])C1([H])[H]

$$$$
77:0:0
     RDKit          3D

 98106  0  0  1  0  0  0  0  0999 V2000
  -29.3820  -19.1740   20.8800 C   0  0  0  0  0  3  0  0  0  0  0  0
  -29.5960  -18.0350   20.1310 C   0  0  0  0  0  0  0  0  0  0  0  0
  -30.2360  -19.8370   18.9340 C   0  0  0  0  0  3  0  0  0  0  0  0
  -29.8410  -20.2620   20.1610 N   0  0  0  0  0  0  0  0  0  0  0  0
  -30.1070  -18.5000   18.9480 N   0  0  0  0  0  0  0  0  0  0  0  0
  -30.3850  -17.9180   18.1690 H   0  0  0  0  0  0  0  0  0  0  0  0
  -32.3950  -20.7740   18.1140 C   0  0  0  0  0  1  0  0  0  0  0  0
  -30.2460  -21.9320   17.4590 C   0  0  0  0  0  1  0  0  0  0  0  0
  -30.8180  -19.7320   16.4820 C   0  0  0  0  0  1  0  0  0  0  0  0
  -30.9040  -20.5710   17.7790 C   0  0  2  0  0  0  0  0  0  0  0  0
  -28.1990  -16.4420   21.4090 C   0  0  0  0  0  1  0  0  0  0  0  0
  -29.3750  -16.5470   20.4130 C   0  0  0  0  0  3  0  0  0  0  0  0
  -30.6790  -15.2020   22.3100 C   0  0  0  0  0  1  0  0  0  0  0  0
  -31.9240  -16.6270   20.7920 C   0  0  0  0  0  1  0  0  0  0  0  0
  -30.6710  -15.6930   20.8290 C   0  0  2  0  0  0  0  0  0  0  0  0
  -30.9570  -14.4690   19.8510 C   0  0  0  0  0  0  0  0  0  0  0  0
  -30.4450  -12.3150   18.7110 C   0  0  0  0  0  2  0  0  0  0  0  0
  -29.4460  -12.5100   17.5530 C   0  0  0  0  0  2  0  0  0  0  0  0
  -27.9980  -12.4130   18.0660 C   0  0  0  0  0  2  0  0  0  0  0  0
  -27.7630  -13.3050   19.3110 C   0  0  0  0  0  3  0  0  0  0  0  0
  -28.8680  -13.0900   20.3630 C   0  0  0  0  0  2  0  0  0  0  0  0
  -30.1740  -13.3460   19.7400 N   0  0  0  0  0  0  0  0  0  0  0  0
  -31.9630  -14.5610   19.1410 O   0  0  0  0  0  0  0  0  0  0  0  0
  -25.4690  -14.0460   20.2130 C   0  0  0  0  0  0  0  0  0  0  0  0
  -24.3910  -13.3370   20.6630 C   0  0  0  0  0  0  0  0  0  0  0  0
  -24.7660  -11.9580   20.5880 C   0  0  0  0  0  0  0  0  0  0  0  0
  -26.4370  -13.1050   19.8900 N   0  0  0  0  0  0  0  0  0  0  0  0
  -26.0230  -11.8460   20.1760 N   0  0  0  0  0  0  0  0  0  0  0  0
  -23.9810  -10.7410   20.8160 C   0  0  0  0  0  0  0  0  0  0  0  0
  -24.4040   -9.7520   21.7300 C   0  0  0  0  0  3  0  0  0  0  0  0
  -23.6210   -8.5980   21.9460 C   0  0  0  0  0  3  0  0  0  0  0  0
  -22.4020   -8.4270   21.2480 C   0  0  0  0  0  0  0  0  0  0  0  0
  -21.9970   -9.4050   20.3230 C   0  0  0  0  0  3  0  0  0  0  0  0
  -22.7810  -10.5500   20.1050 C   0  0  0  0  0  3  0  0  0  0  0  0
  -21.5900   -7.3260   21.3740 O   0  0  0  0  0  0  0  0  0  0  0  0
  -21.5320   -6.6050   22.5420 C   0  0  0  0  0  0  0  0  0  0  0  0
  -21.1830   -7.2070   23.7720 C   0  0  0  0  0  3  0  0  0  0  0  0
  -21.0670   -6.4160   24.9340 C   0  0  0  0  0  3  0  0  0  0  0  0
  -21.2890   -5.0290   24.8640 C   0  0  0  0  0  0  0  0  0  0  0  0
  -21.6300   -4.4290   23.6420 C   0  0  0  0  0  3  0  0  0  0  0  0
  -21.7490   -5.2140   22.4820 C   0  0  0  0  0  0  0  0  0  0  0  0
  -22.0580   -4.6290   21.3000 F   0  0  0  0  0  0  0  0  0  0  0  0
  -21.1710   -4.2670   25.9790 F   0  0  0  0  0  0  0  0  0  0  0  0
  -23.0510  -13.8940   21.0450 C   0  0  0  0  0  0  0  0  0  0  0  0
  -22.3520  -13.2400   21.9670 N   0  0  0  0  0  0  0  0  0  0  0  0
  -22.6350  -14.9450   20.5590 O   0  0  0  0  0  0  0  0  0  0  0  0
  -22.7010  -12.3880   22.3790 H   0  0  0  0  0  0  0  0  0  0  0  0
  -21.4550  -13.5970   22.2620 H   0  0  0  0  0  0  0  0  0  0  0  0
  -25.6950  -15.4050   20.0240 N   0  0  0  0  0  0  0  0  0  0  0  0
  -24.9680  -16.0920   20.1920 H   0  0  0  0  0  0  0  0  0  0  0  0
  -26.5170  -15.7950   19.5850 H   0  0  0  0  0  0  0  0  0  0  0  0
  -29.9870  -21.6440   20.7070 C   0  0  0  0  0  3  0  0  0  0  0  0
  -28.8260  -22.6600   20.4290 C   0  0  0  0  0  3  0  0  0  0  0  0
  -29.0080  -24.1940   22.4650 C   0  0  0  0  0  1  0  0  0  0  0  0
  -30.4530  -24.6720   20.5070 C   0  0  0  0  0  1  0  0  0  0  0  0
  -29.0640  -24.1510   20.9220 C   0  0  1  0  0  0  0  0  0  0  0  0
  -27.9740  -25.1040   20.3110 C   0  0  0  0  0  2  0  0  0  0  0  0
  -28.2340  -26.5420   20.3230 O   0  0  0  0  0  0  0  0  0  0  0  0
  -24.5980  -31.9420   23.2350 C   0  0  0  0  0  0  0  0  0  0  0  0
  -27.1220  -27.3730   20.2140 C   0  0  0  0  0  0  0  0  0  0  0  0
  -23.3660  -30.5440   21.6220 C   0  0  0  0  0  3  0  0  0  0  0  0
  -24.7820  -28.9790   20.1880 C   0  0  0  0  0  0  0  0  0  0  0  0
  -25.9010  -30.8520   21.3990 C   0  0  0  0  0  2  0  0  0  0  0  0
  -25.9560  -29.4700   20.7730 C   0  0  0  0  0  0  0  0  0  0  0  0
  -27.1310  -28.6750   20.7820 C   0  0  0  0  0  3  0  0  0  0  0  0
  -25.9310  -26.9250   19.5890 C   0  0  0  0  0  3  0  0  0  0  0  0
  -24.7720  -27.7160   19.5830 C   0  0  0  0  0  3  0  0  0  0  0  0
  -23.5500  -29.8540   20.2430 C   0  0  0  0  0  2  0  0  0  0  0  0
  -24.6450  -31.1260   22.1440 N   0  0  0  0  0  0  0  0  0  0  0  0
  -23.5230  -32.2350   23.7790 O   0  0  0  0  0  0  0  0  0  0  0  0
  -22.7100  -29.5370   22.5970 C   0  0  0  0  0  0  0  0  0  0  0  0
  -21.3920  -29.3260   22.4460 N   0  0  0  0  0  0  0  0  0  0  0  0
  -23.3860  -28.9510   23.4470 O   0  0  0  0  0  0  0  0  0  0  0  0
  -20.9060  -29.8490   21.7310 H   0  0  0  0  0  0  0  0  0  0  0  0
  -18.0450  -28.0250   22.8700 C   0  0  0  0  0  0  0  0  0  0  0  0
  -20.5790  -28.3950   23.2310 C   0  0  0  0  0  3  0  0  0  0  0  0
  -20.7570  -26.9430   22.7270 C   0  0  0  0  0  2  0  0  0  0  0  0
  -19.7090  -26.5300   21.6880 C   0  0  0  0  0  2  0  0  0  0  0  0
  -18.2980  -26.6550   22.2670 C   0  0  0  0  0  2  0  0  0  0  0  0
  -19.1170  -28.8490   23.3100 C   0  0  0  0  0  0  0  0  0  0  0  0
  -18.8290  -30.1280   23.8310 C   0  0  0  0  0  3  0  0  0  0  0  0
  -17.5020  -30.5900   23.9190 C   0  0  0  0  0  3  0  0  0  0  0  0
  -16.4440  -29.7650   23.4980 C   0  0  0  0  0  3  0  0  0  0  0  0
  -16.7150  -28.4860   22.9810 C   0  0  0  0  0  3  0  0  0  0  0  0
  -25.8950  -32.5720   23.8360 C   0  0  0  0  0  3  0  0  0  0  0  0
  -25.6000  -33.9740   24.1670 N   0  0  0  0  0  0  0  0  0  0  0  0
  -25.9190  -35.0230   23.3950 C   0  0  0  0  0  0  0  0  0  0  0  0
  -26.5740  -34.9110   22.3560 O   0  0  0  0  0  0  0  0  0  0  0  0
  -25.0240  -34.1380   24.9800 H   0  0  0  0  0  0  0  0  0  0  0  0
  -24.1910  -36.8140   23.0690 C   0  0  0  0  0  1  0  0  0  0  0  0
  -25.4500  -36.4170   23.8550 C   0  0  0  0  0  3  0  0  0  0  0  0
  -27.6090  -37.2960   24.6310 C   0  0  0  0  0  1  0  0  0  0  0  0
  -26.4850  -37.4660   23.7130 N   0  0  0  0  0  0  0  0  0  0  0  0
  -26.0850  -38.3860   23.8670 H   0  0  0  0  0  0  0  0  0  0  0  0
  -26.4240  -31.8040   25.1090 C   0  0  1  0  0  0  0  0  0  0  0  0
  -25.3420  -31.5600   26.1870 C   0  0  0  0  0  1  0  0  0  0  0  0
  -27.0070  -30.4310   24.7040 C   0  0  0  0  0  1  0  0  0  0  0  0
  -27.5760  -32.6030   25.7630 C   0  0  0  0  0  1  0  0  0  0  0  0
  2 12  1  0
  2  1  2  0
  3 10  1  0
  3  5  1  0
  3  4  1  0
  4 52  1  0
  4  1  1  0
  5  2  1  0
  6  5  1  0
 10  8  1  6
  9 10  1  0
 10  7  1  0
 12 15  1  0
 12 11  1  0
 15 14  1  1
 15 13  1  0
 16 15  1  0
 17 22  1  0
 18 19  1  0
 18 17  1  0
 20 19  1  0
 20 27  1  0
 20 21  1  0
 22 16  1  0
 22 21  1  0
 23 16  2  0
 24 25  2  0
 25 44  1  0
 26 25  1  0
 26 29  1  0
 27 28  1  0
 27 24  1  0
 28 26  2  0
 29 30  1  0
 30 31  2  0
 32 35  1  0
 32 31  1  0
 33 32  2  0
 34 33  1  0
 34 29  2  0
 35 36  1  0
 36 37  1  0
 37 38  2  0
 39 38  1  0
 39 43  1  0
 40 39  2  0
 41 36  2  0
 41 40  1  0
 42 41  1  0
 44 45  1  0
 45 48  1  0
 45 47  1  0
 46 44  2  0
 49 50  1  0
 49 24  1  0
 51 49  1  0
 53 52  2  0
 53 56  1  0
 56 55  1  1
 56 54  1  0
 57 58  1  0
 57 56  1  0
 59 70  2  0
 60 58  1  0
 60 65  1  0
 61 69  1  0
 61 71  1  0
 62 68  1  0
 62 64  1  0
 63 69  1  0
 64 65  2  0
 64 63  1  0
 66 60  2  0
 67 66  1  0
 67 62  2  0
 68 61  1  0
 69 59  1  0
 71 73  2  0
 72 71  1  0
 74 72  1  0
 75 84  2  0
 75 80  1  0
 76 72  1  0
 76 80  1  0
 77 76  1  0
 78 79  1  0
 78 77  1  0
 79 75  1  0
 80 81  2  0
 81 82  1  0
 83 82  2  0
 84 83  1  0
 85 59  1  0
 85 86  1  0
 85 95  1  0
 86 89  1  0
 87 91  1  0
 87 86  1  0
 88 87  2  0
 91 90  1  0
 93 91  1  0
 93 94  1  0
 93 92  1  0
 95 98  1  1
 95 96  1  0
 97 95  1  0
M  ISO  4  15 100  16 100  57 101  58 101
M  END
>  <TORSDO>  (78) 
F 23

>  <SCORE>  (78) 
-11.096

>  <name>  (78) 
77

>  <ligand_id>  (78) 
77

>  <original_smiles>  (78) 
[H]c1c([H])c([H])c2c(c1[H])C([H])([H])C([H])([H])C([H])([H])C2([H])N([H])C(=O)C1([H])N(C(=O)C([H])(N([H])C(=O)C([H])(N([H])C([H])([H])[H])C([H])([H])[H])C(C([H])([H])[H])(C([H])([H])[H])C([H])([H])[H])C([H])([H])c2c([H])c(OC([H])([H])C(C([H])([H])[H])(C([H])([H])[H])C([H])([H])C([H])([H])n3c([H])c(C([H])(C([H])([H])[H])C(C(=O)N4C([H])([H])C([H])([H])C([H])([H])C([H])(n5nc(-c6c([H])c([H])c(Oc7c([H])c([H])c(F)c([H])c7F)c([H])c6[H])c(C(=O)N([H])[H])c5N([H])[H])C4([H])[H])(C([H])([H])[H])C([H])([H])[H])[n+]([H])c3C(C([H])([H])[H])(C([H])([H])[H])C([H])([H])[H])c([H])c([H])c2C1([H])[H]

>  <smiles>  (78) 
[H]c1c([H])c([H])c2c(c1[H])C([H])([H])C([H])([H])C([H])([H])C2([H])N([H])C(=O)C1([H])N(C(=O)C([H])(N([H])C(=O)C([H])(N([H])C([H])([H])[H])C([H])([H])[H])C(C([H])([H])[H])(C([H])([H])[H])C([H])([H])[H])C([H])([H])c2c([H])c(OC([H])([H])C(C([H])([H])[H])(C([H])([H])[H])C([H])([H])C([H])([H])n3c([H])c(C([H])(C([H])([H])[H])C(C(=O)N4C([H])([H])C([H])([H])C([H])([H])C([H])(n5nc(-c6c([H])c([H])c(Oc7c([H])c([H])c(F)c([H])c7F)c([H])c6[H])c(C(=O)N([H])[H])c5N([H])[H])C4([H])[H])(C([H])([H])[H])C([H])([H])[H])[n+]([H])c3C(C([H])([H])[H])(C([H])([H])[H])C([H])([H])[H])c([H])c([H])c2C1([H])[H]

$$$$
78:0:0
     RDKit          3D

 91 99  0  0  1  0  0  0  0  0999 V2000
  -30.2460  -20.9640   18.4480 C   0  0  0  0  0  3  0  0  0  0  0  0
  -29.6530  -20.3990   19.6080 C   0  0  0  0  0  0  0  0  0  0  0  0
  -30.9340  -20.1830   17.5100 C   0  0  0  0  0  0  0  0  0  0  0  0
  -29.8830  -18.8820   19.6960 C   0  0  0  0  0  0  0  0  0  0  0  0
  -31.5820  -20.8090   16.2950 C   0  0  0  0  0  1  0  0  0  0  0  0
  -31.0570  -18.8540   17.6290 N   0  0  0  0  0  0  0  0  0  0  0  0
  -30.5460  -18.2470   18.6930 N   0  0  0  0  0  0  0  0  0  0  0  0
  -30.6830  -17.9030   21.9440 C   0  0  0  0  0  1  0  0  0  0  0  0
  -29.6890  -17.6880   20.7950 C   0  0  0  0  0  3  0  0  0  0  0  0
  -30.4810  -14.9740   20.3150 C   0  0  0  0  0  0  0  0  0  0  0  0
  -30.3850  -12.6240   19.3330 C   0  0  0  0  0  2  0  0  0  0  0  0
  -29.4350  -12.5810   18.1130 C   0  0  0  0  0  2  0  0  0  0  0  0
  -27.9740  -12.3690   18.5570 C   0  0  0  0  0  2  0  0  0  0  0  0
  -27.5800  -13.2790   19.7490 C   0  0  0  0  0  3  0  0  0  0  0  0
  -28.6480  -13.2710   20.8600 C   0  0  0  0  0  2  0  0  0  0  0  0
  -29.9050  -13.7050   20.2380 N   0  0  0  0  0  0  0  0  0  0  0  0
  -31.6940  -15.0530   20.0900 O   0  0  0  0  0  0  0  0  0  0  0  0
  -29.6410  -16.1180   20.4640 N   0  0  0  0  0  0  0  0  0  0  0  0
  -28.6810  -15.8140   20.4440 H   0  0  0  0  0  0  0  0  0  0  0  0
  -25.2110  -13.8610   20.5180 C   0  0  0  0  0  0  0  0  0  0  0  0
  -24.1500  -13.0880   20.8990 C   0  0  0  0  0  0  0  0  0  0  0  0
  -24.6110  -11.7350   20.8590 C   0  0  0  0  0  0  0  0  0  0  0  0
  -26.2480  -12.9800   20.2620 N   0  0  0  0  0  0  0  0  0  0  0  0
  -25.8980  -11.6960   20.5350 N   0  0  0  0  0  0  0  0  0  0  0  0
  -23.8810  -10.4760   21.0520 C   0  0  0  0  0  0  0  0  0  0  0  0
  -24.3210   -9.5020   21.9750 C   0  0  0  0  0  3  0  0  0  0  0  0
  -23.5910   -8.3080   22.1590 C   0  0  0  0  0  3  0  0  0  0  0  0
  -22.4070   -8.0790   21.4170 C   0  0  0  0  0  0  0  0  0  0  0  0
  -21.9870   -9.0410   20.4810 C   0  0  0  0  0  3  0  0  0  0  0  0
  -22.7170  -10.2270   20.2980 C   0  0  0  0  0  3  0  0  0  0  0  0
  -21.6490   -6.9370   21.5070 O   0  0  0  0  0  0  0  0  0  0  0  0
  -21.6170   -6.1840   22.6530 C   0  0  0  0  0  0  0  0  0  0  0  0
  -21.2190   -6.7280   23.8930 C   0  0  0  0  0  3  0  0  0  0  0  0
  -21.1340   -5.9020   25.0310 C   0  0  0  0  0  3  0  0  0  0  0  0
  -21.4370   -4.5310   24.9310 C   0  0  0  0  0  0  0  0  0  0  0  0
  -21.8280   -3.9850   23.6950 C   0  0  0  0  0  3  0  0  0  0  0  0
  -21.9150   -4.8080   22.5590 C   0  0  0  0  0  0  0  0  0  0  0  0
  -22.2710   -4.2730   21.3670 F   0  0  0  0  0  0  0  0  0  0  0  0
  -21.3480   -3.7350   26.0210 F   0  0  0  0  0  0  0  0  0  0  0  0
  -22.7560  -13.5670   21.1810 C   0  0  0  0  0  0  0  0  0  0  0  0
  -22.0330  -12.8710   22.0500 N   0  0  0  0  0  0  0  0  0  0  0  0
  -22.3180  -14.5950   20.6640 O   0  0  0  0  0  0  0  0  0  0  0  0
  -22.4030  -12.0420   22.4890 H   0  0  0  0  0  0  0  0  0  0  0  0
  -21.0960  -13.1720   22.2800 H   0  0  0  0  0  0  0  0  0  0  0  0
  -25.3720  -15.2330   20.3420 N   0  0  0  0  0  0  0  0  0  0  0  0
  -24.5910  -15.8730   20.4480 H   0  0  0  0  0  0  0  0  0  0  0  0
  -26.1860  -15.6740   19.9370 H   0  0  0  0  0  0  0  0  0  0  0  0
  -28.9010  -21.6030   20.4700 C   0  0  0  0  0  2  0  0  0  0  0  0
  -28.9110  -23.2560   19.9800 C   0  0  0  0  0  3  0  0  0  0  0  0
  -28.0700  -24.6060   20.5820 C   0  0  0  0  0  3  0  0  0  0  0  0
  -28.2980  -26.1280   20.2660 O   0  0  0  0  0  0  0  0  0  0  0  0
  -24.6230  -31.8490   23.2010 C   0  0  0  0  0  0  0  0  0  0  0  0
  -27.2330  -27.1060   20.2350 C   0  0  0  0  0  0  0  0  0  0  0  0
  -23.4400  -30.4380   21.5630 C   0  0  0  0  0  3  0  0  0  0  0  0
  -24.9040  -28.8530   20.1630 C   0  0  0  0  0  0  0  0  0  0  0  0
  -25.9960  -30.7060   21.4170 C   0  0  0  0  0  2  0  0  0  0  0  0
  -26.0780  -29.3070   20.7780 C   0  0  0  0  0  0  0  0  0  0  0  0
  -27.2450  -28.4520   20.7910 C   0  0  0  0  0  3  0  0  0  0  0  0
  -26.0350  -26.7570   19.5790 C   0  0  0  0  0  3  0  0  0  0  0  0
  -24.8960  -27.5920   19.5480 C   0  0  0  0  0  3  0  0  0  0  0  0
  -23.6770  -29.7500   20.1900 C   0  0  0  0  0  2  0  0  0  0  0  0
  -24.7060  -31.0200   22.1150 N   0  0  0  0  0  0  0  0  0  0  0  0
  -23.5320  -32.1340   23.7190 O   0  0  0  0  0  0  0  0  0  0  0  0
  -22.7550  -29.4370   22.5260 C   0  0  0  0  0  0  0  0  0  0  0  0
  -21.4260  -29.2740   22.4010 N   0  0  0  0  0  0  0  0  0  0  0  0
  -23.4230  -28.8090   23.3510 O   0  0  0  0  0  0  0  0  0  0  0  0
  -20.9430  -29.8310   21.7100 H   0  0  0  0  0  0  0  0  0  0  0  0
  -18.0380  -28.0970   22.9110 C   0  0  0  0  0  0  0  0  0  0  0  0
  -20.5990  -28.3430   23.1740 C   0  0  0  0  0  3  0  0  0  0  0  0
  -20.6910  -26.9090   22.6010 C   0  0  0  0  0  2  0  0  0  0  0  0
  -19.5850  -26.5930   21.5890 C   0  0  0  0  0  2  0  0  0  0  0  0
  -18.2060  -26.7480   22.2350 C   0  0  0  0  0  2  0  0  0  0  0  0
  -19.1620  -28.8530   23.3380 C   0  0  0  0  0  0  0  0  0  0  0  0
  -18.9510  -30.1150   23.9340 C   0  0  0  0  0  3  0  0  0  0  0  0
  -17.6500  -30.6240   24.1060 C   0  0  0  0  0  3  0  0  0  0  0  0
  -16.5390  -29.8650   23.6940 C   0  0  0  0  0  3  0  0  0  0  0  0
  -16.7340  -28.6040   23.1020 C   0  0  0  0  0  3  0  0  0  0  0  0
  -25.8940  -32.4920   23.8330 C   0  0  0  0  0  3  0  0  0  0  0  0
  -26.4040  -31.7250   25.1160 C   0  0  1  0  0  0  0  0  0  0  0  0
  -25.3050  -31.4880   26.1760 C   0  0  0  0  0  1  0  0  0  0  0  0
  -26.9950  -30.3480   24.7380 C   0  0  0  0  0  1  0  0  0  0  0  0
  -27.5470  -32.5260   25.7850 C   0  0  0  0  0  1  0  0  0  0  0  0
  -25.5720  -33.8890   24.1660 N   0  0  0  0  0  0  0  0  0  0  0  0
  -25.9010  -34.9490   23.4170 C   0  0  0  0  0  0  0  0  0  0  0  0
  -26.5740  -34.8550   22.3860 O   0  0  0  0  0  0  0  0  0  0  0  0
  -24.9730  -34.0350   24.9650 H   0  0  0  0  0  0  0  0  0  0  0  0
  -24.1640  -36.7390   23.0730 C   0  0  0  0  0  1  0  0  0  0  0  0
  -25.4070  -36.3340   23.8820 C   0  0  0  0  0  3  0  0  0  0  0  0
  -27.5350  -37.2270   24.7210 C   0  0  0  0  0  1  0  0  0  0  0  0
  -26.4340  -37.3930   23.7760 N   0  0  0  0  0  0  0  0  0  0  0  0
  -26.0220  -38.3100   23.9280 H   0  0  0  0  0  0  0  0  0  0  0  0
  1  2  1  0
  2  4  2  0
  2 48  1  0
  3  6  1  0
  3  1  2  0
  4  9  1  0
  5  3  1  0
  6  7  2  0
  7  4  1  0
  9  8  1  0
 10 18  1  0
 11 16  1  0
 12 13  1  0
 12 11  1  0
 14 13  1  0
 14 23  1  0
 14 15  1  0
 16 10  1  0
 16 15  1  0
 17 10  2  0
 18  9  1  0
 19 18  1  0
 20 21  2  0
 21 40  1  0
 22 21  1  0
 22 25  1  0
 23 20  1  0
 23 24  1  0
 24 22  2  0
 25 26  1  0
 26 27  2  0
 28 31  1  0
 28 27  1  0
 29 28  2  0
 30 29  1  0
 30 25  2  0
 31 32  1  0
 32 33  1  0
 33 34  2  0
 35 34  1  0
 35 39  1  0
 36 35  2  0
 37 32  2  0
 37 36  1  0
 38 37  1  0
 40 41  1  0
 41 44  1  0
 41 43  1  0
 42 40  2  0
 45 46  1  0
 45 20  1  0
 47 45  1  0
 49 48  1  0
 49 50  2  0
 51 50  1  0
 52 63  2  0
 53 51  1  0
 53 58  1  0
 54 62  1  0
 54 64  1  0
 55 61  1  0
 55 57  1  0
 56 62  1  0
 57 58  2  0
 57 56  1  0
 59 53  2  0
 60 59  1  0
 60 55  2  0
 61 54  1  0
 62 52  1  0
 64 66  2  0
 65 64  1  0
 67 65  1  0
 68 77  2  0
 68 73  1  0
 69 65  1  0
 69 73  1  0
 70 69  1  0
 71 72  1  0
 71 70  1  0
 72 68  1  0
 73 74  2  0
 74 75  1  0
 76 75  2  0
 77 76  1  0
 78 52  1  0
 78 83  1  0
 78 79  1  0
 79 82  1  1
 79 80  1  0
 81 79  1  0
 83 86  1  0
 84 88  1  0
 84 83  1  0
 85 84  2  0
 88 87  1  0
 90 88  1  0
 90 91  1  0
 90 89  1  0
M  ISO  4  10 100  18 100  50 101  51 101
M  END
>  <TORSDO>  (79) 
F 20

>  <SCORE>  (79) 
-15.079

>  <name>  (79) 
78

>  <ligand_id>  (79) 
78

>  <original_smiles>  (79) 
[H]c1c([H])c([H])c2c(c1[H])C([H])([H])C([H])([H])C([H])([H])C2([H])N([H])C(=O)C1([H])N(C(=O)C([H])(N([H])C(=O)C([H])(N([H])C([H])([H])[H])C([H])([H])[H])C(C([H])([H])[H])(C([H])([H])[H])C([H])([H])[H])C([H])([H])c2c([H])c(OC([H])([H])C([H])([H])C([H])([H])c3c(C([H])(N([H])C(=O)N4C([H])([H])C([H])([H])C([H])([H])C([H])(n5nc(-c6c([H])c([H])c(Oc7c([H])c([H])c(F)c([H])c7F)c([H])c6[H])c(C(=O)N([H])[H])c5N([H])[H])C4([H])[H])C([H])([H])[H])nnc(C([H])([H])[H])c3[H])c([H])c([H])c2C1([H])[H]

>  <smiles>  (79) 
[H]c1c([H])c([H])c2c(c1[H])C([H])([H])C([H])([H])C([H])([H])C2([H])N([H])C(=O)C1([H])N(C(=O)C([H])(N([H])C(=O)C([H])(N([H])C([H])([H])[H])C([H])([H])[H])C(C([H])([H])[H])(C([H])([H])[H])C([H])([H])[H])C([H])([H])c2c([H])c(OC([H])([H])C([H])([H])C([H])([H])c3c(C([H])(N([H])C(=O)N4C([H])([H])C([H])([H])C([H])([H])C([H])(n5nc(-c6c([H])c([H])c(Oc7c([H])c([H])c(F)c([H])c7F)c([H])c6[H])c(C(=O)N([H])[H])c5N([H])[H])C4([H])[H])C([H])([H])[H])nnc(C([H])([H])[H])c3[H])c([H])c([H])c2C1([H])[H]

$$$$
79:0:0
     RDKit          3D

 95107  0  0  1  0  0  0  0  0999 V2000
  -32.4700  -25.3130   16.8740 C   0  0  0  0  0  3  0  0  0  0  0  0
  -32.8980  -25.7570   14.8210 C   0  0  0  0  0  0  0  0  0  0  0  0
  -31.7650  -24.9740   14.8400 C   0  0  0  0  0  0  0  0  0  0  0  0
  -30.9010  -24.4960   13.7110 C   0  0  0  0  0  2  0  0  0  0  0  0
  -33.3480  -25.9710   16.1230 N   0  0  0  0  0  0  0  0  0  0  0  0
  -31.4990  -24.7090   16.1800 N   0  0  0  0  0  0  0  0  0  0  0  0
  -33.5410  -26.4120   13.6370 C   0  0  0  0  0  2  0  0  0  0  0  0
  -32.8930  -27.7320   13.1910 C   0  0  0  0  0  2  0  0  0  0  0  0
  -31.6290  -27.4460   12.3680 C   0  0  0  0  0  2  0  0  0  0  0  0
  -30.9680  -26.0890   12.6340 C   0  0  0  0  0  3  0  0  0  0  0  0
  -31.7330  -25.0790   11.9880 O   0  0  0  0  0  0  0  0  0  0  0  0
  -26.0330  -23.9390    7.8840 C   0  0  0  0  0  0  0  0  0  0  0  0
  -31.2300  -24.6570   10.7850 C   0  0  0  0  0  0  0  0  0  0  0  0
  -28.1840  -23.0730    7.0200 C   0  0  0  0  0  3  0  0  0  0  0  0
  -30.2670  -23.8400    8.2680 C   0  0  0  0  0  0  0  0  0  0  0  0
  -28.1260  -25.0970    8.5760 C   0  0  0  0  0  2  0  0  0  0  0  0
  -29.4820  -24.6620    9.0850 C   0  0  0  0  0  0  0  0  0  0  0  0
  -29.9580  -25.0730   10.3460 C   0  0  0  0  0  0  0  0  0  0  0  0
  -32.0200  -23.8370    9.9530 C   0  0  0  0  0  3  0  0  0  0  0  0
  -31.5400  -23.4180    8.6960 C   0  0  0  0  0  3  0  0  0  0  0  0
  -29.6850  -23.4620    6.9280 C   0  0  0  0  0  2  0  0  0  0  0  0
  -27.3930  -24.0280    7.8620 N   0  0  0  0  0  0  0  0  0  0  0  0
  -25.4350  -23.1040    7.1920 O   0  0  0  0  0  0  0  0  0  0  0  0
  -28.0820  -21.6050    7.4960 C   0  0  0  0  0  0  0  0  0  0  0  0
  -27.0540  -21.3100    8.3120 N   0  0  0  0  0  0  0  0  0  0  0  0
  -28.8950  -20.7590    7.1160 O   0  0  0  0  0  0  0  0  0  0  0  0
  -26.4390  -22.0630    8.5900 H   0  0  0  0  0  0  0  0  0  0  0  0
  -27.5870  -19.1140   11.1300 C   0  0  0  0  0  0  0  0  0  0  0  0
  -26.7360  -19.9880    8.8520 C   0  0  0  0  0  3  0  0  0  0  0  0
  -25.3270  -19.9680    9.4850 C   0  0  0  0  0  2  0  0  0  0  0  0
  -25.3300  -20.2580   10.9880 C   0  0  0  0  0  2  0  0  0  0  0  0
  -26.1930  -19.2320   11.7290 C   0  0  0  0  0  2  0  0  0  0  0  0
  -27.8430  -19.4840    9.7830 C   0  0  0  0  0  0  0  0  0  0  0  0
  -29.1590  -19.3880    9.2850 C   0  0  0  0  0  3  0  0  0  0  0  0
  -30.2090  -18.9340   10.1050 C   0  0  0  0  0  3  0  0  0  0  0  0
  -29.9470  -18.5480   11.4280 C   0  0  0  0  0  3  0  0  0  0  0  0
  -28.6390  -18.6380   11.9390 C   0  0  0  0  0  3  0  0  0  0  0  0
  -25.1650  -24.8940    8.7610 C   0  0  0  0  0  3  0  0  0  0  0  0
  -26.0570  -25.5440    9.7290 N   0  0  0  0  0  0  0  0  0  0  0  0
  -26.9320  -24.8910   10.5080 C   0  0  0  0  0  0  0  0  0  0  0  0
  -27.0150  -23.6610   10.5370 O   0  0  0  0  0  0  0  0  0  0  0  0
  -26.0760  -26.5530    9.7190 H   0  0  0  0  0  0  0  0  0  0  0  0
  -29.2520  -25.8290   10.7540 C   0  0  0  0  0  2  0  0  0  0  0  0
  -27.8590  -25.7420   11.3990 C   0  0  0  0  0  3  0  0  0  0  0  0
  -26.7700  -25.4180   13.5760 C   0  0  0  0  0  2  0  0  0  0  0  0
  -27.9810  -25.2260   12.7800 N   0  0  1  0  0  4  0  0  0  0  0  0
  -28.7530  -25.6750   13.2650 H   0  0  0  0  0  0  0  0  0  0  0  0
  -24.3810  -25.9680    7.9130 C   0  0  1  0  0  0  0  0  0  0  0  0
  -24.8280  -26.0450    6.4340 C   0  0  0  0  0  1  0  0  0  0  0  0
  -22.8650  -25.6690    7.9310 C   0  0  0  0  0  1  0  0  0  0  0  0
  -24.5590  -27.3680    8.5410 C   0  0  0  0  0  1  0  0  0  0  0  0
  -30.3810  -23.9640   16.7260 C   0  0  0  0  0  2  0  0  0  0  0  0
  -29.1530  -23.9010   15.7940 C   0  0  0  0  0  2  0  0  0  0  0  0
  -28.0340  -25.7250   14.4120 C   0  0  0  0  0  3  0  0  0  0  0  0
  -28.4830  -26.1490   16.8540 C   0  0  0  0  0  1  0  0  0  0  0  0
  -28.1230  -25.0740   15.8110 C   0  0  2  0  0  0  0  0  0  0  0  0
  -26.7670  -24.4330   16.2050 C   0  0  0  0  0  2  0  0  0  0  0  0
  -24.9430  -24.9070   17.8490 C   0  0  0  0  0  0  0  0  0  0  0  0
  -22.8630  -26.2100   17.4960 C   0  0  0  0  0  2  0  0  0  0  0  0
  -22.0920  -25.7350   16.2440 C   0  0  0  0  0  2  0  0  0  0  0  0
  -22.6640  -26.3500   14.9460 C   0  0  0  0  0  2  0  0  0  0  0  0
  -24.2070  -26.2500   14.8770 C   0  0  0  0  0  3  0  0  0  0  0  0
  -24.7870  -26.8180   16.1940 C   0  0  0  0  0  2  0  0  0  0  0  0
  -24.2980  -25.9610   17.2820 N   0  0  0  0  0  0  0  0  0  0  0  0
  -24.4100  -24.1880   18.7010 O   0  0  0  0  0  0  0  0  0  0  0  0
  -26.2550  -24.7640   17.5490 N   0  0  0  0  0  0  0  0  0  0  0  0
  -26.7670  -24.2920   18.2780 H   0  0  0  0  0  0  0  0  0  0  0  0
  -24.1130  -27.3330   12.5340 C   0  0  0  0  0  0  0  0  0  0  0  0
  -25.0610  -27.9880   11.7950 C   0  0  0  0  0  0  0  0  0  0  0  0
  -26.2430  -27.9920   12.5940 C   0  0  0  0  0  0  0  0  0  0  0  0
  -24.7450  -26.9430   13.7060 N   0  0  0  0  0  0  0  0  0  0  0  0
  -26.0470  -27.3150   13.7160 N   0  0  0  0  0  0  0  0  0  0  0  0
  -27.5380  -28.6560   12.3860 C   0  0  0  0  0  0  0  0  0  0  0  0
  -28.6430  -27.9650   11.8370 C   0  0  0  0  0  3  0  0  0  0  0  0
  -29.8740  -28.6260   11.6350 C   0  0  0  0  0  3  0  0  0  0  0  0
  -30.0100  -29.9910   11.9780 C   0  0  0  0  0  0  0  0  0  0  0  0
  -28.9160  -30.6700   12.5400 C   0  0  0  0  0  3  0  0  0  0  0  0
  -27.6930  -30.0110   12.7450 C   0  0  0  0  0  3  0  0  0  0  0  0
  -31.1730  -30.7080   11.8290 O   0  0  0  0  0  0  0  0  0  0  0  0
  -31.6580  -31.0480   10.5910 C   0  0  0  0  0  0  0  0  0  0  0  0
  -31.0970  -32.1010    9.8340 C   0  0  0  0  0  3  0  0  0  0  0  0
  -31.6710  -32.4620    8.5980 C   0  0  0  0  0  3  0  0  0  0  0  0
  -32.8100  -31.7820    8.1250 C   0  0  0  0  0  0  0  0  0  0  0  0
  -33.3730  -30.7390    8.8820 C   0  0  0  0  0  3  0  0  0  0  0  0
  -32.7980  -30.3760   10.1120 C   0  0  0  0  0  0  0  0  0  0  0  0
  -33.3570  -29.3820   10.8470 F   0  0  0  0  0  0  0  0  0  0  0  0
  -33.3660  -32.1340    6.9430 F   0  0  0  0  0  0  0  0  0  0  0  0
  -24.8590  -28.6690   10.4720 C   0  0  0  0  0  0  0  0  0  0  0  0
  -25.9130  -28.7620    9.6690 N   0  0  0  0  0  0  0  0  0  0  0  0
  -23.7530  -29.0830   10.1230 O   0  0  0  0  0  0  0  0  0  0  0  0
  -26.8180  -28.4170    9.9580 H   0  0  0  0  0  0  0  0  0  0  0  0
  -25.8210  -29.1950    8.7620 H   0  0  0  0  0  0  0  0  0  0  0  0
  -22.7640  -27.0640   12.3300 N   0  0  0  0  0  0  0  0  0  0  0  0
  -22.2490  -27.4570   11.5510 H   0  0  0  0  0  0  0  0  0  0  0  0
  -22.1600  -26.6930   13.0530 H   0  0  0  0  0  0  0  0  0  0  0  0
  2  3  2  0
  2  5  1  0
  3  6  1  0
  4  3  1  0
  5  1  2  0
  6 52  1  0
  6  1  1  0
  7  2  1  0
  8  7  1  0
  9  8  1  0
 10  9  1  0
 10  4  1  0
 11 10  1  0
 12 38  1  0
 13 11  1  0
 14 24  1  0
 14 22  1  0
 15 20  2  0
 15 17  1  0
 16 17  1  0
 17 18  2  0
 18 43  1  0
 18 13  1  0
 19 13  2  0
 20 19  1  0
 21 14  1  0
 21 15  1  0
 22 12  1  0
 22 16  1  0
 23 12  2  0
 24 25  1  0
 25 27  1  0
 26 24  2  0
 28 32  1  0
 28 37  1  0
 29 25  1  0
 29 30  1  0
 29 33  1  0
 30 31  1  0
 31 32  1  0
 33 28  2  0
 34 33  1  0
 34 35  2  0
 35 36  1  0
 36 37  2  0
 38 48  1  0
 38 39  1  0
 39 40  1  0
 40 41  2  0
 40 44  1  0
 42 39  1  0
 44 43  1  0
 44 46  1  0
 46 47  1  1
 46 45  1  0
 46 54  1  0
 48 50  1  6
 48 51  1  0
 49 48  1  0
 53 56  1  0
 53 52  1  0
 54 45  1  0
 54 56  1  0
 56 57  1  0
 56 55  1  1
 57 66  1  0
 58 65  2  0
 60 59  1  0
 61 60  1  0
 62 71  1  0
 62 61  1  0
 62 63  1  0
 63 64  1  0
 64 59  1  0
 64 58  1  0
 66 58  1  0
 66 67  1  0
 68 71  1  0
 69 68  2  0
 69 70  1  0
 70 72  2  0
 71 72  1  0
 73 70  1  0
 73 78  1  0
 74 73  2  0
 75 74  1  0
 75 76  2  0
 76 77  1  0
 77 78  2  0
 79 76  1  0
 80 79  1  0
 81 80  2  0
 82 81  1  0
 83 82  2  0
 83 84  1  0
 84 85  2  0
 85 80  1  0
 85 86  1  0
 87 83  1  0
 88 69  1  0
 89 91  1  0
 89 88  1  0
 90 88  2  0
 92 89  1  0
 93 68  1  0
 93 95  1  0
 94 93  1  0
M  ISO  4  10 101  11 101  58 100  66 100
M  END
>  <TORSDO>  (80) 
F 24

>  <SCORE>  (80) 
13.382

>  <name>  (80) 
79

>  <ligand_id>  (80) 
79

>  <original_smiles>  (80) 
[H]c1c([H])c([H])c2c(c1[H])C([H])([H])C([H])([H])C([H])([H])C2([H])N([H])C(=O)C1([H])N(C(=O)C([H])(N([H])C(=O)C([H])(N([H])C([H])([H])[H])C([H])([H])[H])C(C([H])([H])[H])(C([H])([H])[H])C([H])([H])[H])C([H])([H])c2c([H])c(OC([H])([H])C([H])([H])C([H])([H])C([H])([H])c3nc([H])n(C([H])([H])C([H])([H])C(C([H])([H])[H])(C([H])([H])[H])C([H])([H])N([H])C(=O)N4C([H])([H])C([H])([H])C([H])([H])C([H])(n5nc(-c6c([H])c([H])c(Oc7c([H])c([H])c(F)c([H])c7F)c([H])c6[H])c(C(=O)N([H])[H])c5N([H])[H])C4([H])[H])c3C([H])([H])[H])c([H])c([H])c2C1([H])[H]

>  <smiles>  (80) 
[H]c1c([H])c([H])c2c(c1[H])C([H])([H])C([H])([H])C([H])([H])C2([H])N([H])C(=O)C1([H])N(C(=O)C([H])(N([H])C(=O)C([H])(N([H])C([H])([H])[H])C([H])([H])[H])C(C([H])([H])[H])(C([H])([H])[H])C([H])([H])[H])C([H])([H])c2c([H])c(OC([H])([H])C([H])([H])C([H])([H])C([H])([H])c3nc([H])n(C([H])([H])C([H])([H])C(C([H])([H])[H])(C([H])([H])[H])C([H])([H])N([H])C(=O)N4C([H])([H])C([H])([H])C([H])([H])C([H])(n5nc(-c6c([H])c([H])c(Oc7c([H])c([H])c(F)c([H])c7F)c([H])c6[H])c(C(=O)N([H])[H])c5N([H])[H])C4([H])[H])c3C([H])([H])[H])c([H])c([H])c2C1([H])[H]

$$$$
80:0:0
     RDKit          3D

 93101  0  0  1  0  0  0  0  0999 V2000
  -30.4400  -21.0490   19.9250 C   0  0  0  0  0  3  0  0  0  0  0  0
  -31.0970  -19.8150   20.1530 C   0  0  0  0  0  3  0  0  0  0  0  0
  -29.1540  -21.0640   19.3430 C   0  0  0  0  0  0  0  0  0  0  0  0
  -30.4940  -18.5880   19.7930 C   0  0  0  0  0  0  0  0  0  0  0  0
  -28.6070  -19.7740   19.0400 C   0  0  0  0  0  0  0  0  0  0  0  0
  -29.2600  -18.5880   19.2400 N   0  0  0  0  0  0  0  0  0  0  0  0
  -26.2420  -19.0170   19.5430 C   0  0  0  0  0  1  0  0  0  0  0  0
  -27.1970  -19.5920   18.4890 C   0  0  0  0  0  2  0  0  0  0  0  0
  -28.3620  -22.4000   19.0920 C   0  0  0  0  0  2  0  0  0  0  0  0
  -29.0500  -23.8340   19.0810 C   0  0  0  0  0  2  0  0  0  0  0  0
  -28.0640  -25.0060   19.4960 C   0  0  0  0  0  2  0  0  0  0  0  0
  -28.3150  -26.4100   19.1030 O   0  0  0  0  0  0  0  0  0  0  0  0
  -24.5550  -31.3060   22.8120 C   0  0  0  0  0  0  0  0  0  0  0  0
  -27.2010  -27.2500   19.1750 C   0  0  0  0  0  0  0  0  0  0  0  0
  -23.3480  -30.0910   21.0310 C   0  0  0  0  0  3  0  0  0  0  0  0
  -24.8050  -28.7760   19.3950 C   0  0  0  0  0  0  0  0  0  0  0  0
  -25.8720  -30.5020   20.8450 C   0  0  0  0  0  2  0  0  0  0  0  0
  -25.9720  -29.2200   20.0310 C   0  0  0  0  0  0  0  0  0  0  0  0
  -27.1780  -28.4690   19.9150 C   0  0  0  0  0  3  0  0  0  0  0  0
  -26.0220  -26.8710   18.4990 C   0  0  0  0  0  3  0  0  0  0  0  0
  -24.8310  -27.6070   18.6180 C   0  0  0  0  0  3  0  0  0  0  0  0
  -23.5480  -29.6010   19.5730 C   0  0  0  0  0  2  0  0  0  0  0  0
  -24.6120  -30.6430   21.6220 N   0  0  0  0  0  0  0  0  0  0  0  0
  -23.4770  -31.4880   23.3980 O   0  0  0  0  0  0  0  0  0  0  0  0
  -22.7330  -28.9450   21.8680 C   0  0  0  0  0  0  0  0  0  0  0  0
  -21.4020  -28.7790   21.7750 N   0  0  0  0  0  0  0  0  0  0  0  0
  -23.4470  -28.2160   22.5600 O   0  0  0  0  0  0  0  0  0  0  0  0
  -20.8830  -29.4250   21.1980 H   0  0  0  0  0  0  0  0  0  0  0  0
  -18.0410  -27.5630   22.3270 C   0  0  0  0  0  0  0  0  0  0  0  0
  -20.6170  -27.7400   22.4430 C   0  0  0  0  0  3  0  0  0  0  0  0
  -20.6410  -26.4180   21.6390 C   0  0  0  0  0  2  0  0  0  0  0  0
  -19.4620  -26.2800   20.6710 C   0  0  0  0  0  2  0  0  0  0  0  0
  -18.1340  -26.3380   21.4310 C   0  0  0  0  0  2  0  0  0  0  0  0
  -19.2060  -28.2300   22.7890 C   0  0  0  0  0  0  0  0  0  0  0  0
  -19.0630  -29.3820   23.5900 C   0  0  0  0  0  3  0  0  0  0  0  0
  -17.7870  -29.8700   23.9290 C   0  0  0  0  0  3  0  0  0  0  0  0
  -16.6370  -29.1970   23.4830 C   0  0  0  0  0  3  0  0  0  0  0  0
  -16.7640  -28.0440   22.6870 C   0  0  0  0  0  3  0  0  0  0  0  0
  -25.8380  -31.8890   23.4820 C   0  0  0  0  0  3  0  0  0  0  0  0
  -25.5150  -33.2430   23.9500 N   0  0  0  0  0  0  0  0  0  0  0  0
  -25.8290  -34.3690   23.2950 C   0  0  0  0  0  0  0  0  0  0  0  0
  -26.4920  -34.3740   22.2550 O   0  0  0  0  0  0  0  0  0  0  0  0
  -24.9250  -33.3110   24.7670 H   0  0  0  0  0  0  0  0  0  0  0  0
  -24.0800  -36.1700   23.1340 C   0  0  0  0  0  1  0  0  0  0  0  0
  -25.3330  -35.7010   23.8910 C   0  0  0  0  0  3  0  0  0  0  0  0
  -27.4610  -36.5290   24.7940 C   0  0  0  0  0  1  0  0  0  0  0  0
  -26.3530  -36.7710   23.8730 N   0  0  0  0  0  0  0  0  0  0  0  0
  -25.9370  -37.6690   24.1080 H   0  0  0  0  0  0  0  0  0  0  0  0
  -26.3710  -31.0010   24.6740 C   0  0  1  0  0  0  0  0  0  0  0  0
  -25.2900  -30.6520   25.7230 C   0  0  0  0  0  1  0  0  0  0  0  0
  -26.9600  -29.6710   24.1470 C   0  0  0  0  0  1  0  0  0  0  0  0
  -27.5220  -31.7360   25.3990 C   0  0  0  0  0  1  0  0  0  0  0  0
  -31.3420  -17.2740   19.8560 C   0  0  0  0  0  3  0  0  0  0  0  0
  -31.4740  -14.8170   20.3830 C   0  0  0  0  0  0  0  0  0  0  0  0
  -31.1240  -12.6090   19.3380 C   0  0  0  0  0  2  0  0  0  0  0  0
  -30.2120  -12.7900   18.1070 C   0  0  0  0  0  2  0  0  0  0  0  0
  -28.7320  -12.6850   18.5210 C   0  0  0  0  0  2  0  0  0  0  0  0
  -28.3880  -13.5510   19.7630 C   0  0  0  0  0  3  0  0  0  0  0  0
  -29.4330  -13.3960   20.8900 C   0  0  0  0  0  2  0  0  0  0  0  0
  -30.7550  -13.6570   20.3090 N   0  0  0  0  0  0  0  0  0  0  0  0
  -32.6740  -14.8270   20.1060 O   0  0  0  0  0  0  0  0  0  0  0  0
  -30.7940  -16.0020   20.4410 N   0  0  0  0  0  0  0  0  0  0  0  0
  -29.8080  -15.9950   20.6490 H   0  0  0  0  0  0  0  0  0  0  0  0
  -26.0230  -14.2080   20.5130 C   0  0  0  0  0  0  0  0  0  0  0  0
  -24.9230  -13.4620   20.8410 C   0  0  0  0  0  0  0  0  0  0  0  0
  -25.3310  -12.0950   20.7450 C   0  0  0  0  0  0  0  0  0  0  0  0
  -27.0310  -13.2990   20.2380 N   0  0  0  0  0  0  0  0  0  0  0  0
  -26.6210  -12.0200   20.4400 N   0  0  0  0  0  0  0  0  0  0  0  0
  -24.5530  -10.8560   20.8700 C   0  0  0  0  0  0  0  0  0  0  0  0
  -24.8890   -9.8630   21.8170 C   0  0  0  0  0  3  0  0  0  0  0  0
  -24.1120   -8.6910   21.9310 C   0  0  0  0  0  3  0  0  0  0  0  0
  -22.9850   -8.5010   21.0950 C   0  0  0  0  0  0  0  0  0  0  0  0
  -22.6690   -9.4820   20.1380 C   0  0  0  0  0  3  0  0  0  0  0  0
  -23.4450  -10.6460   20.0230 C   0  0  0  0  0  3  0  0  0  0  0  0
  -22.1890   -7.3820   21.1180 O   0  0  0  0  0  0  0  0  0  0  0  0
  -21.9360   -6.7010   22.2820 C   0  0  0  0  0  0  0  0  0  0  0  0
  -21.3380   -7.3290   23.3970 C   0  0  0  0  0  3  0  0  0  0  0  0
  -21.0310   -6.5760   24.5480 C   0  0  0  0  0  3  0  0  0  0  0  0
  -21.3120   -5.1970   24.5840 C   0  0  0  0  0  0  0  0  0  0  0  0
  -21.9020   -4.5690   23.4730 C   0  0  0  0  0  3  0  0  0  0  0  0
  -22.2100   -5.3190   22.3240 C   0  0  0  0  0  0  0  0  0  0  0  0
  -22.7600   -4.7050   21.2480 F   0  0  0  0  0  0  0  0  0  0  0  0
  -21.0100   -4.4720   25.6870 F   0  0  0  0  0  0  0  0  0  0  0  0
  -23.5450  -13.9820   21.1290 C   0  0  0  0  0  0  0  0  0  0  0  0
  -22.7930  -13.2880   21.9760 N   0  0  0  0  0  0  0  0  0  0  0  0
  -23.1450  -15.0380   20.6420 O   0  0  0  0  0  0  0  0  0  0  0  0
  -23.1310  -12.4310   22.3920 H   0  0  0  0  0  0  0  0  0  0  0  0
  -21.8700  -13.6170   22.2150 H   0  0  0  0  0  0  0  0  0  0  0  0
  -26.2420  -15.5790   20.4030 N   0  0  0  0  0  0  0  0  0  0  0  0
  -25.5020  -16.2560   20.5470 H   0  0  0  0  0  0  0  0  0  0  0  0
  -27.1140  -16.0030   20.1100 H   0  0  0  0  0  0  0  0  0  0  0  0
  -30.9000  -16.5400   17.3930 C   0  0  0  0  0  1  0  0  0  0  0  0
  -31.9280  -16.9840   18.4480 C   0  0  0  0  0  2  0  0  0  0  0  0
  1  2  1  0
  3  1  2  0
  4 53  1  0
  4  2  2  0
  5  6  2  0
  5  3  1  0
  6  4  1  0
  8  5  1  0
  8  7  1  0
  9  3  1  0
 10  9  1  0
 10 11  1  0
 12 14  1  0
 12 11  1  0
 13 24  2  0
 14 19  1  0
 15 23  1  0
 15 25  1  0
 16 22  1  0
 16 18  1  0
 17 23  1  0
 18 17  1  0
 19 18  2  0
 20 21  1  0
 20 14  2  0
 21 16  2  0
 22 15  1  0
 23 13  1  0
 25 27  2  0
 26 25  1  0
 28 26  1  0
 29 38  2  0
 29 34  1  0
 30 26  1  0
 30 34  1  0
 31 30  1  0
 32 33  1  0
 32 31  1  0
 33 29  1  0
 34 35  2  0
 35 36  1  0
 37 36  2  0
 38 37  1  0
 39 13  1  0
 39 40  1  0
 39 49  1  0
 40 43  1  0
 41 45  1  0
 41 40  1  0
 42 41  2  0
 45 44  1  0
 47 45  1  0
 47 48  1  0
 47 46  1  0
 49 52  1  1
 49 50  1  0
 51 49  1  0
 53 93  1  0
 53 62  1  0
 54 62  1  0
 55 60  1  0
 56 57  1  0
 56 55  1  0
 58 57  1  0
 58 67  1  0
 58 59  1  0
 60 54  1  0
 60 59  1  0
 61 54  2  0
 62 63  1  0
 64 65  2  0
 65 84  1  0
 66 65  1  0
 66 69  1  0
 67 68  1  0
 67 64  1  0
 68 66  2  0
 69 70  1  0
 70 71  2  0
 72 75  1  0
 72 71  1  0
 73 72  2  0
 74 73  1  0
 74 69  2  0
 75 76  1  0
 76 81  2  0
 76 77  1  0
 77 78  2  0
 78 79  1  0
 79 83  1  0
 80 79  2  0
 81 80  1  0
 82 81  1  0
 84 85  1  0
 85 88  1  0
 85 87  1  0
 86 84  2  0
 89 64  1  0
 89 90  1  0
 91 89  1  0
 92 93  1  0
M  ISO  4  11 101  12 101  54 100  62 100
M  END
>  <TORSDO>  (81) 
F 22

>  <SCORE>  (81) 
-10.253

>  <name>  (81) 
80

>  <ligand_id>  (81) 
80

>  <original_smiles>  (81) 
[H]c1c(C([H])(N([H])C(=O)N2C([H])([H])C([H])([H])C([H])([H])C([H])(n3nc(-c4c([H])c([H])c(Oc5c([H])c([H])c(F)c([H])c5F)c([H])c4[H])c(C(=O)N([H])[H])c3N([H])[H])C2([H])[H])C([H])([H])C([H])([H])[H])nc(C([H])([H])C([H])([H])[H])c(C([H])([H])C([H])([H])C([H])([H])Oc2c([H])c([H])c3c(c2[H])C([H])([H])N(C(=O)C([H])(N([H])C(=O)C([H])(N([H])C([H])([H])[H])C([H])([H])[H])C(C([H])([H])[H])(C([H])([H])[H])C([H])([H])[H])C([H])(C(=O)N([H])C2([H])c4c([H])c([H])c([H])c([H])c4C([H])([H])C([H])([H])C2([H])[H])C3([H])[H])c1[H]

>  <smiles>  (81) 
[H]c1c(C([H])(N([H])C(=O)N2C([H])([H])C([H])([H])C([H])([H])C([H])(n3nc(-c4c([H])c([H])c(Oc5c([H])c([H])c(F)c([H])c5F)c([H])c4[H])c(C(=O)N([H])[H])c3N([H])[H])C2([H])[H])C([H])([H])C([H])([H])[H])nc(C([H])([H])C([H])([H])[H])c(C([H])([H])C([H])([H])C([H])([H])Oc2c([H])c([H])c3c(c2[H])C([H])([H])N(C(=O)C([H])(N([H])C(=O)C([H])(N([H])C([H])([H])[H])C([H])([H])[H])C(C([H])([H])[H])(C([H])([H])[H])C([H])([H])[H])C([H])(C(=O)N([H])C2([H])c4c([H])c([H])c([H])c([H])c4C([H])([H])C([H])([H])C2([H])[H])C3([H])[H])c1[H]

$$$$
81:0:0
     RDKit          3D

 90 98  0  0  1  0  0  0  0  0999 V2000
  -29.4260  -21.4440   21.3380 C   0  0  0  0  0  3  0  0  0  0  0  0
  -29.2320  -20.3910   20.3690 C   0  0  0  0  0  0  0  0  0  0  0  0
  -28.4030  -22.1810   18.9860 C   0  0  0  0  0  0  0  0  0  0  0  0
  -28.5890  -23.2370   19.9650 C   0  0  0  0  0  0  0  0  0  0  0  0
  -27.7530  -22.4510   17.6370 C   0  0  0  0  0  1  0  0  0  0  0  0
  -29.1220  -22.7940   21.1540 N   0  0  0  0  0  0  0  0  0  0  0  0
  -28.7160  -20.8380   19.1790 N   0  0  0  0  0  0  0  0  0  0  0  0
  -29.5390  -18.5400   22.2060 C   0  0  0  0  0  1  0  0  0  0  0  0
  -29.2570  -18.7740   20.7060 C   0  0  0  0  0  3  0  0  0  0  0  0
  -30.0660  -17.5860   19.8640 C   0  0  0  0  0  2  0  0  0  0  0  0
  -30.6420  -14.9160   19.8770 C   0  0  0  0  0  0  0  0  0  0  0  0
  -30.4440  -12.6260   18.8480 C   0  0  0  0  0  2  0  0  0  0  0  0
  -29.4240  -12.6680   17.6860 C   0  0  0  0  0  2  0  0  0  0  0  0
  -27.9830  -12.4710   18.1980 C   0  0  0  0  0  2  0  0  0  0  0  0
  -27.6770  -13.3280   19.4570 C   0  0  0  0  0  3  0  0  0  0  0  0
  -28.8080  -13.2560   20.5040 C   0  0  0  0  0  2  0  0  0  0  0  0
  -30.0480  -13.6650   19.8350 N   0  0  0  0  0  0  0  0  0  0  0  0
  -31.8090  -15.0230   19.4820 O   0  0  0  0  0  0  0  0  0  0  0  0
  -29.8570  -16.0520   20.1490 N   0  0  0  0  0  0  0  0  0  0  0  0
  -28.9260  -15.8070   20.4500 H   0  0  0  0  0  0  0  0  0  0  0  0
  -25.3390  -13.8800   20.3350 C   0  0  0  0  0  0  0  0  0  0  0  0
  -24.3080  -13.0940   20.7690 C   0  0  0  0  0  0  0  0  0  0  0  0
  -24.7810  -11.7460   20.7030 C   0  0  0  0  0  0  0  0  0  0  0  0
  -26.3740  -13.0140   20.0310 N   0  0  0  0  0  0  0  0  0  0  0  0
  -26.0520  -11.7250   20.3150 N   0  0  0  0  0  0  0  0  0  0  0  0
  -24.0770  -10.4760   20.9270 C   0  0  0  0  0  0  0  0  0  0  0  0
  -24.5210   -9.5440   21.8890 C   0  0  0  0  0  3  0  0  0  0  0  0
  -23.8130   -8.3420   22.1000 C   0  0  0  0  0  3  0  0  0  0  0  0
  -22.6460   -8.0650   21.3510 C   0  0  0  0  0  0  0  0  0  0  0  0
  -22.2220   -8.9850   20.3770 C   0  0  0  0  0  3  0  0  0  0  0  0
  -22.9310  -10.1780   20.1640 C   0  0  0  0  0  3  0  0  0  0  0  0
  -21.9110   -6.9100   21.4710 O   0  0  0  0  0  0  0  0  0  0  0  0
  -21.8040   -6.2420   22.6660 C   0  0  0  0  0  0  0  0  0  0  0  0
  -21.2840   -6.8640   23.8230 C   0  0  0  0  0  3  0  0  0  0  0  0
  -21.1280   -6.1220   25.0110 C   0  0  0  0  0  3  0  0  0  0  0  0
  -21.4830   -4.7600   25.0420 C   0  0  0  0  0  0  0  0  0  0  0  0
  -21.9980   -4.1390   23.8910 C   0  0  0  0  0  3  0  0  0  0  0  0
  -22.1550   -4.8780   22.7050 C   0  0  0  0  0  0  0  0  0  0  0  0
  -22.6310   -4.2700   21.5930 F   0  0  0  0  0  0  0  0  0  0  0  0
  -21.3270   -4.0460   26.1810 F   0  0  0  0  0  0  0  0  0  0  0  0
  -22.9260  -13.5580   21.1260 C   0  0  0  0  0  0  0  0  0  0  0  0
  -22.2570  -12.8590   22.0380 N   0  0  0  0  0  0  0  0  0  0  0  0
  -22.4460  -14.5770   20.6320 O   0  0  0  0  0  0  0  0  0  0  0  0
  -22.6590  -12.0340   22.4610 H   0  0  0  0  0  0  0  0  0  0  0  0
  -21.3310  -13.1520   22.3180 H   0  0  0  0  0  0  0  0  0  0  0  0
  -25.4740  -15.2530   20.1470 N   0  0  0  0  0  0  0  0  0  0  0  0
  -24.6920  -15.8870   20.2870 H   0  0  0  0  0  0  0  0  0  0  0  0
  -26.2710  -15.6990   19.7110 H   0  0  0  0  0  0  0  0  0  0  0  0
  -27.8710  -24.7080   19.7890 C   0  0  0  0  0  2  0  0  0  0  0  0
  -28.2450  -26.1420   20.2290 O   0  0  0  0  0  0  0  0  0  0  0  0
  -24.6090  -31.8320   23.1900 C   0  0  0  0  0  0  0  0  0  0  0  0
  -27.2170  -27.1510   20.1360 C   0  0  0  0  0  0  0  0  0  0  0  0
  -23.4280  -30.4320   21.5500 C   0  0  0  0  0  3  0  0  0  0  0  0
  -24.8880  -28.8900   20.1160 C   0  0  0  0  0  0  0  0  0  0  0  0
  -25.9860  -30.7100   21.4020 C   0  0  0  0  0  2  0  0  0  0  0  0
  -26.0660  -29.3300   20.7320 C   0  0  0  0  0  0  0  0  0  0  0  0
  -27.2330  -28.4760   20.7330 C   0  0  0  0  0  3  0  0  0  0  0  0
  -26.0130  -26.8320   19.4620 C   0  0  0  0  0  3  0  0  0  0  0  0
  -24.8740  -27.6540   19.4660 C   0  0  0  0  0  3  0  0  0  0  0  0
  -23.6580  -29.7780   20.1660 C   0  0  0  0  0  2  0  0  0  0  0  0
  -24.6940  -31.0110   22.1010 N   0  0  0  0  0  0  0  0  0  0  0  0
  -23.5190  -32.1090   23.7100 O   0  0  0  0  0  0  0  0  0  0  0  0
  -22.7560  -29.4090   22.4990 C   0  0  0  0  0  0  0  0  0  0  0  0
  -21.4340  -29.2150   22.3560 N   0  0  0  0  0  0  0  0  0  0  0  0
  -23.4300  -28.7940   23.3320 O   0  0  0  0  0  0  0  0  0  0  0  0
  -20.9470  -29.7630   21.6590 H   0  0  0  0  0  0  0  0  0  0  0  0
  -18.0700  -27.9560   22.8190 C   0  0  0  0  0  0  0  0  0  0  0  0
  -20.6180  -28.2670   23.1190 C   0  0  0  0  0  3  0  0  0  0  0  0
  -20.7530  -26.8350   22.5540 C   0  0  0  0  0  2  0  0  0  0  0  0
  -19.6700  -26.4800   21.5310 C   0  0  0  0  0  2  0  0  0  0  0  0
  -18.2820  -26.6000   22.1670 C   0  0  0  0  0  2  0  0  0  0  0  0
  -19.1690  -28.7430   23.2520 C   0  0  0  0  0  0  0  0  0  0  0  0
  -18.9180  -30.0030   23.8380 C   0  0  0  0  0  3  0  0  0  0  0  0
  -17.6020  -30.4790   23.9840 C   0  0  0  0  0  3  0  0  0  0  0  0
  -16.5160  -29.6920   23.5590 C   0  0  0  0  0  3  0  0  0  0  0  0
  -16.7510  -28.4310   22.9870 C   0  0  0  0  0  3  0  0  0  0  0  0
  -25.8790  -32.4770   23.8230 C   0  0  0  0  0  3  0  0  0  0  0  0
  -26.3930  -31.7090   25.1030 C   0  0  1  0  0  0  0  0  0  0  0  0
  -25.2930  -31.4520   26.1590 C   0  0  0  0  0  1  0  0  0  0  0  0
  -27.0010  -30.3400   24.7200 C   0  0  0  0  0  1  0  0  0  0  0  0
  -27.5280  -32.5170   25.7760 C   0  0  0  0  0  1  0  0  0  0  0  0
  -25.5480  -33.8720   24.1630 N   0  0  0  0  0  0  0  0  0  0  0  0
  -25.8690  -34.9340   23.4150 C   0  0  0  0  0  0  0  0  0  0  0  0
  -26.5420  -34.8450   22.3840 O   0  0  0  0  0  0  0  0  0  0  0  0
  -24.9510  -34.0150   24.9640 H   0  0  0  0  0  0  0  0  0  0  0  0
  -24.1210  -36.7120   23.0700 C   0  0  0  0  0  1  0  0  0  0  0  0
  -25.3640  -36.3130   23.8820 C   0  0  0  0  0  3  0  0  0  0  0  0
  -27.4830  -37.2170   24.7320 C   0  0  0  0  0  1  0  0  0  0  0  0
  -26.3870  -37.3780   23.7820 N   0  0  0  0  0  0  0  0  0  0  0  0
  -25.9710  -38.2940   23.9300 H   0  0  0  0  0  0  0  0  0  0  0  0
  2  9  1  0
  2  1  2  0
  3  7  2  0
  3  4  1  0
  4  6  2  0
  5  3  1  0
  6  1  1  0
  7  2  1  0
  9  8  1  0
 10 19  1  0
 10  9  1  0
 11 19  1  0
 12 17  1  0
 13 14  1  0
 13 12  1  0
 15 14  1  0
 15 24  1  0
 15 16  1  0
 17 11  1  0
 17 16  1  0
 18 11  2  0
 19 20  1  0
 21 22  2  0
 22 41  1  0
 23 22  1  0
 23 26  1  0
 24 25  1  0
 24 21  1  0
 25 23  2  0
 26 27  1  0
 27 28  2  0
 29 32  1  0
 29 28  1  0
 30 29  2  0
 31 30  1  0
 31 26  2  0
 32 33  1  0
 33 38  2  0
 33 34  1  0
 34 35  2  0
 35 36  1  0
 36 40  1  0
 37 36  2  0
 38 37  1  0
 39 38  1  0
 41 42  1  0
 42 45  1  0
 42 44  1  0
 43 41  2  0
 46 47  1  0
 46 21  1  0
 48 46  1  0
 49  4  1  0
 49 50  1  0
 51 62  2  0
 52 50  1  0
 52 57  1  0
 53 61  1  0
 53 63  1  0
 54 60  1  0
 54 56  1  0
 55 61  1  0
 56 57  2  0
 56 55  1  0
 58 59  1  0
 58 52  2  0
 59 54  2  0
 60 53  1  0
 61 51  1  0
 63 65  2  0
 64 63  1  0
 66 64  1  0
 67 76  2  0
 67 72  1  0
 68 64  1  0
 68 72  1  0
 69 68  1  0
 70 71  1  0
 70 69  1  0
 71 67  1  0
 72 73  2  0
 73 74  1  0
 75 74  2  0
 76 75  1  0
 77 51  1  0
 77 82  1  0
 77 78  1  0
 78 81  1  1
 78 79  1  0
 80 78  1  0
 82 85  1  0
 83 87  1  0
 83 82  1  0
 84 83  2  0
 87 86  1  0
 89 87  1  0
 89 90  1  0
 89 88  1  0
M  ISO  4  11 100  19 100  49 101  50 101
M  END
>  <TORSDO>  (82) 
F 19

>  <SCORE>  (82) 
-12.599

>  <name>  (82) 
81

>  <ligand_id>  (82) 
81

>  <original_smiles>  (82) 
[H]c1nc(C([H])([H])Oc2c([H])c([H])c3c(c2[H])C([H])([H])N(C(=O)C([H])(N([H])C(=O)C([H])(N([H])C([H])([H])[H])C([H])([H])[H])C(C([H])([H])[H])(C([H])([H])[H])C([H])([H])[H])C([H])(C(=O)N([H])C2([H])c4c([H])c([H])c([H])c([H])c4C([H])([H])C([H])([H])C2([H])[H])C3([H])[H])c(C([H])([H])[H])nc1C([H])(C([H])([H])[H])C([H])([H])N([H])C(=O)N1C([H])([H])C([H])([H])C([H])([H])C([H])(n2nc(-c3c([H])c([H])c(Oc4c([H])c([H])c(F)c([H])c4F)c([H])c3[H])c(C(=O)N([H])[H])c2N([H])[H])C1([H])[H]

>  <smiles>  (82) 
[H]c1nc(C([H])([H])Oc2c([H])c([H])c3c(c2[H])C([H])([H])N(C(=O)C([H])(N([H])C(=O)C([H])(N([H])C([H])([H])[H])C([H])([H])[H])C(C([H])([H])[H])(C([H])([H])[H])C([H])([H])[H])C([H])(C(=O)N([H])C2([H])c4c([H])c([H])c([H])c([H])c4C([H])([H])C([H])([H])C2([H])[H])C3([H])[H])c(C([H])([H])[H])nc1C([H])(C([H])([H])[H])C([H])([H])N([H])C(=O)N1C([H])([H])C([H])([H])C([H])([H])C([H])(n2nc(-c3c([H])c([H])c(Oc4c([H])c([H])c(F)c([H])c4F)c([H])c3[H])c(C(=O)N([H])[H])c2N([H])[H])C1([H])[H]

$$$$
82:0:0
     RDKit          3D

 94102  0  0  1  0  0  0  0  0999 V2000
  -31.0350  -21.9300   21.5090 C   0  0  0  0  0  3  0  0  0  0  0  0
  -30.0250  -21.2310   20.8070 C   0  0  0  0  0  0  0  0  0  0  0  0
  -30.3090  -19.7920   20.5170 C   0  0  0  0  0  0  0  0  0  0  0  0
  -32.2450  -21.3410   21.8420 C   0  0  0  0  0  0  0  0  0  0  0  0
  -31.6730  -19.3830   20.7540 C   0  0  0  0  0  0  0  0  0  0  0  0
  -33.2940  -22.0900   22.6290 C   0  0  0  0  0  1  0  0  0  0  0  0
  -32.5650  -20.1170   21.4420 N   0  0  0  0  0  0  0  0  0  0  0  0
  -32.0730  -16.8420   21.0530 C   0  0  0  0  0  1  0  0  0  0  0  0
  -32.3840  -18.1180   20.2630 C   0  0  0  0  0  2  0  0  0  0  0  0
  -28.7900  -22.1940   20.4590 C   0  0  0  0  0  2  0  0  0  0  0  0
  -29.0040  -23.8290   20.5980 C   0  0  0  0  0  2  0  0  0  0  0  0
  -28.5470  -25.0710   18.3790 C   0  0  0  0  0  1  0  0  0  0  0  0
  -28.1350  -24.9830   19.8650 C   0  0  0  0  0  3  0  0  0  0  0  0
  -28.2270  -26.3950   20.3930 O   0  0  0  0  0  0  0  0  0  0  0  0
  -24.7060  -31.9150   23.5210 C   0  0  0  0  0  0  0  0  0  0  0  0
  -27.1310  -27.2980   20.3520 C   0  0  0  0  0  0  0  0  0  0  0  0
  -23.4390  -30.5870   21.8740 C   0  0  0  0  0  3  0  0  0  0  0  0
  -24.8230  -29.0230   20.3920 C   0  0  0  0  0  0  0  0  0  0  0  0
  -25.9890  -30.8190   21.6660 C   0  0  0  0  0  2  0  0  0  0  0  0
  -26.0160  -29.4490   20.9890 C   0  0  0  0  0  0  0  0  0  0  0  0
  -27.1690  -28.6010   20.9570 C   0  0  0  0  0  3  0  0  0  0  0  0
  -25.9090  -26.9390   19.7350 C   0  0  0  0  0  3  0  0  0  0  0  0
  -24.7780  -27.7790   19.7480 C   0  0  0  0  0  3  0  0  0  0  0  0
  -23.6170  -29.9420   20.4730 C   0  0  0  0  0  2  0  0  0  0  0  0
  -24.7300  -31.1260   22.4080 N   0  0  0  0  0  0  0  0  0  0  0  0
  -23.6390  -32.2130   24.0800 O   0  0  0  0  0  0  0  0  0  0  0  0
  -22.7620  -29.5670   22.8220 C   0  0  0  0  0  0  0  0  0  0  0  0
  -21.4540  -29.3320   22.6250 N   0  0  0  0  0  0  0  0  0  0  0  0
  -23.4160  -28.9940   23.7000 O   0  0  0  0  0  0  0  0  0  0  0  0
  -20.9870  -29.8440   21.8900 H   0  0  0  0  0  0  0  0  0  0  0  0
  -18.1320  -27.9200   22.8770 C   0  0  0  0  0  0  0  0  0  0  0  0
  -20.6260  -28.3880   23.3790 C   0  0  0  0  0  3  0  0  0  0  0  0
  -20.8860  -26.9350   22.9210 C   0  0  0  0  0  2  0  0  0  0  0  0
  -19.9190  -26.4660   21.8290 C   0  0  0  0  0  2  0  0  0  0  0  0
  -18.4700  -26.5480   22.3200 C   0  0  0  0  0  2  0  0  0  0  0  0
  -19.1460  -28.7900   23.3610 C   0  0  0  0  0  0  0  0  0  0  0  0
  -18.7810  -30.0670   23.8390 C   0  0  0  0  0  3  0  0  0  0  0  0
  -17.4340  -30.4760   23.8450 C   0  0  0  0  0  3  0  0  0  0  0  0
  -16.4340  -29.6050   23.3800 C   0  0  0  0  0  3  0  0  0  0  0  0
  -16.7830  -28.3310   22.8990 C   0  0  0  0  0  3  0  0  0  0  0  0
  -26.0150  -32.4990   24.1330 C   0  0  0  0  0  3  0  0  0  0  0  0
  -25.7850  -33.9280   24.3930 N   0  0  0  0  0  0  0  0  0  0  0  0
  -26.1630  -34.9230   23.5780 C   0  0  0  0  0  0  0  0  0  0  0  0
  -26.8130  -34.7320   22.5460 O   0  0  0  0  0  0  0  0  0  0  0  0
  -25.2060  -34.1550   25.1880 H   0  0  0  0  0  0  0  0  0  0  0  0
  -24.5190  -36.7830   23.1660 C   0  0  0  0  0  1  0  0  0  0  0  0
  -25.7560  -36.3570   23.9710 C   0  0  0  0  0  3  0  0  0  0  0  0
  -27.9450  -37.1770   24.7170 C   0  0  0  0  0  1  0  0  0  0  0  0
  -26.8350  -37.3490   23.7830 N   0  0  0  0  0  0  0  0  0  0  0  0
  -26.4770  -38.2940   23.8900 H   0  0  0  0  0  0  0  0  0  0  0  0
  -26.4690  -31.7590   25.4510 C   0  0  1  0  0  0  0  0  0  0  0  0
  -25.3420  -31.6040   26.4980 C   0  0  0  0  0  1  0  0  0  0  0  0
  -27.0030  -30.3450   25.1310 C   0  0  0  0  0  1  0  0  0  0  0  0
  -27.6350  -32.5320   26.1130 C   0  0  0  0  0  1  0  0  0  0  0  0
  -29.2290  -18.6480   20.2210 C   0  0  0  0  0  2  0  0  0  0  0  0
  -29.4920  -17.2610   19.3980 C   0  0  0  0  0  2  0  0  0  0  0  0
  -30.0780  -14.7210   19.7150 C   0  0  0  0  0  0  0  0  0  0  0  0
  -29.8180  -12.4230   18.7700 C   0  0  0  0  0  2  0  0  0  0  0  0
  -28.7280  -12.4040   17.6750 C   0  0  0  0  0  2  0  0  0  0  0  0
  -27.3320  -12.1940   18.2840 C   0  0  0  0  0  2  0  0  0  0  0  0
  -27.0700  -13.0800   19.5300 C   0  0  0  0  0  3  0  0  0  0  0  0
  -28.2720  -13.0860   20.5040 C   0  0  0  0  0  2  0  0  0  0  0  0
  -29.4710  -13.4830   19.7490 N   0  0  0  0  0  0  0  0  0  0  0  0
  -31.1930  -14.8390   19.2030 O   0  0  0  0  0  0  0  0  0  0  0  0
  -29.3420  -15.8570   20.0150 N   0  0  0  0  0  0  0  0  0  0  0  0
  -28.4610  -15.6720   20.4710 H   0  0  0  0  0  0  0  0  0  0  0  0
  -24.7770  -13.5460   20.5860 C   0  0  0  0  0  0  0  0  0  0  0  0
  -23.7960  -12.7230   21.0600 C   0  0  0  0  0  0  0  0  0  0  0  0
  -24.2920  -11.3900   20.9180 C   0  0  0  0  0  0  0  0  0  0  0  0
  -25.8130  -12.7180   20.1850 N   0  0  0  0  0  0  0  0  0  0  0  0
  -25.5330  -11.4130   20.4440 N   0  0  0  0  0  0  0  0  0  0  0  0
  -23.6330  -10.0990   21.1510 C   0  0  0  0  0  0  0  0  0  0  0  0
  -24.1670   -9.1460   22.0480 C   0  0  0  0  0  3  0  0  0  0  0  0
  -23.5010   -7.9220   22.2720 C   0  0  0  0  0  3  0  0  0  0  0  0
  -22.2900   -7.6380   21.5990 C   0  0  0  0  0  0  0  0  0  0  0  0
  -21.7770   -8.5780   20.6870 C   0  0  0  0  0  3  0  0  0  0  0  0
  -22.4420   -9.7930   20.4630 C   0  0  0  0  0  3  0  0  0  0  0  0
  -21.5850   -6.4660   21.7350 O   0  0  0  0  0  0  0  0  0  0  0  0
  -21.6100   -5.7400   22.8990 C   0  0  0  0  0  0  0  0  0  0  0  0
  -21.1890   -6.2920   24.1280 C   0  0  0  0  0  3  0  0  0  0  0  0
  -21.1710   -5.4950   25.2900 C   0  0  0  0  0  3  0  0  0  0  0  0
  -21.5590   -4.1440   25.2200 C   0  0  0  0  0  0  0  0  0  0  0  0
  -21.9670   -3.5870   23.9950 C   0  0  0  0  0  3  0  0  0  0  0  0
  -21.9910   -4.3830   22.8370 C   0  0  0  0  0  0  0  0  0  0  0  0
  -22.3690   -3.8380   21.6540 F   0  0  0  0  0  0  0  0  0  0  0  0
  -21.5290   -3.3730   26.3340 F   0  0  0  0  0  0  0  0  0  0  0  0
  -22.4280  -13.1360   21.5260 C   0  0  0  0  0  0  0  0  0  0  0  0
  -21.8470  -12.3950   22.4590 N   0  0  0  0  0  0  0  0  0  0  0  0
  -21.8890  -14.1570   21.0960 O   0  0  0  0  0  0  0  0  0  0  0  0
  -22.3000  -11.5660   22.8220 H   0  0  0  0  0  0  0  0  0  0  0  0
  -20.9380  -12.6490   22.8160 H   0  0  0  0  0  0  0  0  0  0  0  0
  -24.8710  -14.9290   20.4350 N   0  0  0  0  0  0  0  0  0  0  0  0
  -24.1120  -15.5560   20.6760 H   0  0  0  0  0  0  0  0  0  0  0  0
  -25.6260  -15.3880   19.9430 H   0  0  0  0  0  0  0  0  0  0  0  0
  1  4  1  0
  2  1  2  0
  3  5  2  0
  3  2  1  0
  4  6  1  0
  5  7  1  0
  7  4  2  0
  9  5  1  0
  9  8  1  0
 10 11  1  0
 10  2  1  0
 13 12  1  0
 13 14  1  0
 13 11  1  0
 15 26  2  0
 16 14  1  0
 16 21  1  0
 17 25  1  0
 17 27  1  0
 18 24  1  0
 18 20  1  0
 19 25  1  0
 20 19  1  0
 21 20  2  0
 22 23  1  0
 22 16  2  0
 23 18  2  0
 24 17  1  0
 25 15  1  0
 27 29  2  0
 28 27  1  0
 30 28  1  0
 31 40  2  0
 31 36  1  0
 32 28  1  0
 33 32  1  0
 34 35  1  0
 34 33  1  0
 35 31  1  0
 36 32  1  0
 36 37  2  0
 37 38  1  0
 39 38  2  0
 40 39  1  0
 41 15  1  0
 41 42  1  0
 41 51  1  0
 42 45  1  0
 43 47  1  0
 43 42  1  0
 44 43  2  0
 47 46  1  0
 49 50  1  0
 49 47  1  0
 49 48  1  0
 51 54  1  1
 51 52  1  0
 53 51  1  0
 55  3  1  0
 56 65  1  0
 56 55  1  0
 57 63  1  0
 57 65  1  0
 58 63  1  0
 59 60  1  0
 59 58  1  0
 61 60  1  0
 61 70  1  0
 61 62  1  0
 63 62  1  0
 64 57  2  0
 65 66  1  0
 67 68  2  0
 68 87  1  0
 69 68  1  0
 69 72  1  0
 70 71  1  0
 70 67  1  0
 71 69  2  0
 72 73  1  0
 73 74  2  0
 75 78  1  0
 75 74  1  0
 76 75  2  0
 77 76  1  0
 77 72  2  0
 78 79  1  0
 79 80  1  0
 80 81  2  0
 82 81  1  0
 82 86  1  0
 83 82  2  0
 84 79  2  0
 84 83  1  0
 85 84  1  0
 87 88  1  0
 88 91  1  0
 88 90  1  0
 89 87  2  0
 92 67  1  0
 92 93  1  0
 94 92  1  0
M  ISO  4  13 101  14 101  57 100  65 100
M  END
>  <TORSDO>  (83) 
F 22

>  <SCORE>  (83) 
-10.484

>  <name>  (83) 
82

>  <ligand_id>  (83) 
82

>  <original_smiles>  (83) 
[H]c1c([H])c([H])c2c(c1[H])C([H])([H])C([H])([H])C([H])([H])C2([H])N([H])C(=O)C1([H])N(C(=O)C([H])(N([H])C(=O)C([H])(N([H])C([H])([H])[H])C([H])([H])[H])C(C([H])([H])[H])(C([H])([H])[H])C([H])([H])[H])C([H])([H])c2c([H])c(OC([H])(C([H])([H])[H])C([H])([H])C([H])([H])c3c([H])c(C([H])([H])[H])nc(C([H])([H])C([H])([H])[H])c3C([H])([H])C([H])([H])N([H])C(=O)N3C([H])([H])C([H])([H])C([H])([H])C([H])(n4nc(-c5c([H])c([H])c(Oc6c([H])c([H])c(F)c([H])c6F)c([H])c5[H])c(C(=O)N([H])[H])c4N([H])[H])C3([H])[H])c([H])c([H])c2C1([H])[H]

>  <smiles>  (83) 
[H]c1c([H])c([H])c2c(c1[H])C([H])([H])C([H])([H])C([H])([H])C2([H])N([H])C(=O)C1([H])N(C(=O)C([H])(N([H])C(=O)C([H])(N([H])C([H])([H])[H])C([H])([H])[H])C(C([H])([H])[H])(C([H])([H])[H])C([H])([H])[H])C([H])([H])c2c([H])c(OC([H])(C([H])([H])[H])C([H])([H])C([H])([H])c3c([H])c(C([H])([H])[H])nc(C([H])([H])C([H])([H])[H])c3C([H])([H])C([H])([H])N([H])C(=O)N3C([H])([H])C([H])([H])C([H])([H])C([H])(n4nc(-c5c([H])c([H])c(Oc6c([H])c([H])c(F)c([H])c6F)c([H])c5[H])c(C(=O)N([H])[H])c4N([H])[H])C3([H])[H])c([H])c([H])c2C1([H])[H]

$$$$
83:0:0
     RDKit          3D

 94102  0  0  1  0  0  0  0  0999 V2000
  -28.5730  -19.6870   19.6920 C   0  0  0  0  0  3  0  0  0  0  0  0
  -28.3030  -18.4530   19.1270 C   0  0  0  0  0  0  0  0  0  0  0  0
  -26.7380  -19.9150   18.4670 C   0  0  0  0  0  3  0  0  0  0  0  0
  -25.5090  -20.4420   17.8020 C   0  0  0  0  0  1  0  0  0  0  0  0
  -27.6000  -20.5670   19.2630 N   0  0  0  0  0  0  0  0  0  0  0  0
  -27.1760  -18.6570   18.3680 N   0  0  0  0  0  0  0  0  0  0  0  0
  -26.7050  -17.9300   17.8380 H   0  0  0  0  0  0  0  0  0  0  0  0
  -28.9690  -17.0870   19.1960 C   0  0  0  0  0  2  0  0  0  0  0  0
  -30.3990  -17.5830   21.3230 C   0  0  0  0  0  1  0  0  0  0  0  0
  -29.7800  -16.4990   20.4150 C   0  0  0  0  0  3  0  0  0  0  0  0
  -31.4340  -14.5370   20.5030 C   0  0  0  0  0  0  0  0  0  0  0  0
  -31.1750  -12.1310   20.1200 C   0  0  0  0  0  2  0  0  0  0  0  0
  -30.3760  -11.9140   18.8210 C   0  0  0  0  0  2  0  0  0  0  0  0
  -28.8610  -11.9010   19.1100 C   0  0  0  0  0  2  0  0  0  0  0  0
  -28.3990  -13.0950   19.9940 C   0  0  0  0  0  3  0  0  0  0  0  0
  -29.3370  -13.2610   21.2120 C   0  0  0  0  0  2  0  0  0  0  0  0
  -30.7070  -13.4000   20.6940 N   0  0  0  0  0  0  0  0  0  0  0  0
  -32.6430  -14.5210   20.2980 O   0  0  0  0  0  0  0  0  0  0  0  0
  -30.8070  -15.5710   19.9260 N   0  0  0  0  0  0  0  0  0  0  0  0
  -31.4720  -16.0450   19.3320 H   0  0  0  0  0  0  0  0  0  0  0  0
  -26.0300  -13.9360   20.5390 C   0  0  0  0  0  0  0  0  0  0  0  0
  -24.8750  -13.2770   20.8570 C   0  0  0  0  0  0  0  0  0  0  0  0
  -25.2040  -11.8880   20.8670 C   0  0  0  0  0  0  0  0  0  0  0  0
  -27.0000  -12.9560   20.3900 N   0  0  0  0  0  0  0  0  0  0  0  0
  -26.5010  -11.7190   20.6380 N   0  0  0  0  0  0  0  0  0  0  0  0
  -24.3460  -10.7060   21.0160 C   0  0  0  0  0  0  0  0  0  0  0  0
  -24.6670   -9.6740   21.9250 C   0  0  0  0  0  3  0  0  0  0  0  0
  -23.8190   -8.5540   22.0650 C   0  0  0  0  0  3  0  0  0  0  0  0
  -22.6340   -8.4600   21.2970 C   0  0  0  0  0  0  0  0  0  0  0  0
  -22.3290   -9.4810   20.3800 C   0  0  0  0  0  3  0  0  0  0  0  0
  -23.1770  -10.5920   20.2370 C   0  0  0  0  0  3  0  0  0  0  0  0
  -21.7640   -7.3990   21.3490 O   0  0  0  0  0  0  0  0  0  0  0  0
  -21.6610   -6.6070   22.4640 C   0  0  0  0  0  0  0  0  0  0  0  0
  -21.3220   -7.1390   23.7280 C   0  0  0  0  0  3  0  0  0  0  0  0
  -21.1650   -6.2810   24.8340 C   0  0  0  0  0  3  0  0  0  0  0  0
  -21.3300   -4.8920   24.6760 C   0  0  0  0  0  0  0  0  0  0  0  0
  -21.6620   -4.3590   23.4180 C   0  0  0  0  0  3  0  0  0  0  0  0
  -21.8250   -5.2150   22.3150 C   0  0  0  0  0  0  0  0  0  0  0  0
  -22.1240   -4.6950   21.1000 F   0  0  0  0  0  0  0  0  0  0  0  0
  -21.1690   -4.0640   25.7360 F   0  0  0  0  0  0  0  0  0  0  0  0
  -23.5150  -13.8940   21.0300 C   0  0  0  0  0  0  0  0  0  0  0  0
  -22.6820  -13.3100   21.8820 N   0  0  0  0  0  0  0  0  0  0  0  0
  -23.2090  -14.9330   20.4460 O   0  0  0  0  0  0  0  0  0  0  0  0
  -22.9420  -12.4690   22.3750 H   0  0  0  0  0  0  0  0  0  0  0  0
  -21.7680  -13.7120   22.0420 H   0  0  0  0  0  0  0  0  0  0  0  0
  -26.3200  -15.2800   20.3230 N   0  0  0  0  0  0  0  0  0  0  0  0
  -25.4780  -15.8020   20.1070 H   0  0  0  0  0  0  0  0  0  0  0  0
  -27.0400  -15.4340   19.6300 H   0  0  0  0  0  0  0  0  0  0  0  0
  -27.3910  -21.9830   19.6530 C   0  0  0  0  0  2  0  0  0  0  0  0
  -28.6330  -22.9070   19.6670 C   0  0  0  0  0  2  0  0  0  0  0  0
  -28.2120  -24.3580   20.0240 C   0  0  0  0  0  2  0  0  0  0  0  0
  -29.8010  -25.7220   18.4230 C   0  0  0  0  0  1  0  0  0  0  0  0
  -29.2780  -25.4810   19.8530 C   0  0  0  0  0  3  0  0  0  0  0  0
  -28.9440  -26.7200   20.5140 O   0  0  0  0  0  0  0  0  0  0  0  0
  -24.6320  -31.6500   23.2840 C   0  0  0  0  0  0  0  0  0  0  0  0
  -27.7190  -27.3540   20.3900 C   0  0  0  0  0  0  0  0  0  0  0  0
  -23.6300  -30.2180   21.5360 C   0  0  0  0  0  3  0  0  0  0  0  0
  -25.2610  -28.7630   20.2240 C   0  0  0  0  0  0  0  0  0  0  0  0
  -26.1440  -30.6790   21.5580 C   0  0  0  0  0  2  0  0  0  0  0  0
  -26.3410  -29.3220   20.9160 C   0  0  0  0  0  0  0  0  0  0  0  0
  -27.5660  -28.6220   21.0020 C   0  0  0  0  0  3  0  0  0  0  0  0
  -26.6170  -26.8220   19.6810 C   0  0  0  0  0  3  0  0  0  0  0  0
  -25.3940  -27.5090   19.6090 C   0  0  0  0  0  3  0  0  0  0  0  0
  -23.9830  -29.5670   20.1700 C   0  0  0  0  0  2  0  0  0  0  0  0
  -24.8150  -30.8650   22.1860 N   0  0  0  0  0  0  0  0  0  0  0  0
  -23.4990  -31.8710   23.7320 O   0  0  0  0  0  0  0  0  0  0  0  0
  -22.9500  -29.1540   22.4270 C   0  0  0  0  0  0  0  0  0  0  0  0
  -21.6340  -28.9660   22.2370 N   0  0  0  0  0  0  0  0  0  0  0  0
  -23.6030  -28.5050   23.2490 O   0  0  0  0  0  0  0  0  0  0  0  0
  -21.1670  -29.5570   21.5640 H   0  0  0  0  0  0  0  0  0  0  0  0
  -18.2400  -27.7770   22.5880 C   0  0  0  0  0  0  0  0  0  0  0  0
  -20.7940  -27.9880   22.9300 C   0  0  0  0  0  3  0  0  0  0  0  0
  -20.8940  -26.5920   22.2710 C   0  0  0  0  0  2  0  0  0  0  0  0
  -19.8100  -26.3440   21.2160 C   0  0  0  0  0  2  0  0  0  0  0  0
  -18.4150  -26.4700   21.8350 C   0  0  0  0  0  2  0  0  0  0  0  0
  -19.3580  -28.4980   23.0850 C   0  0  0  0  0  0  0  0  0  0  0  0
  -19.1400  -29.7330   23.7350 C   0  0  0  0  0  3  0  0  0  0  0  0
  -17.8380  -30.2430   23.8980 C   0  0  0  0  0  3  0  0  0  0  0  0
  -16.7360  -29.5120   23.4260 C   0  0  0  0  0  3  0  0  0  0  0  0
  -16.9350  -28.2810   22.7770 C   0  0  0  0  0  3  0  0  0  0  0  0
  -25.8320  -32.3280   24.0150 C   0  0  0  0  0  3  0  0  0  0  0  0
  -25.4700  -33.7320   24.2450 N   0  0  0  0  0  0  0  0  0  0  0  0
  -25.8840  -34.7560   23.4880 C   0  0  0  0  0  0  0  0  0  0  0  0
  -26.6730  -34.6210   22.5500 O   0  0  0  0  0  0  0  0  0  0  0  0
  -24.7800  -33.9100   24.9600 H   0  0  0  0  0  0  0  0  0  0  0  0
  -24.1860  -36.4990   22.8520 C   0  0  0  0  0  1  0  0  0  0  0  0
  -25.3280  -36.1540   23.8200 C   0  0  0  0  0  3  0  0  0  0  0  0
  -27.3350  -37.1120   24.8610 C   0  0  0  0  0  1  0  0  0  0  0  0
  -26.3550  -37.2170   23.7840 N   0  0  0  0  0  0  0  0  0  0  0  0
  -25.9230  -38.1370   23.8380 H   0  0  0  0  0  0  0  0  0  0  0  0
  -26.2150  -31.6180   25.3720 C   0  0  1  0  0  0  0  0  0  0  0  0
  -25.0130  -31.4020   26.3200 C   0  0  0  0  0  1  0  0  0  0  0  0
  -26.8560  -30.2350   25.1050 C   0  0  0  0  0  1  0  0  0  0  0  0
  -27.2750  -32.4580   26.1210 C   0  0  0  0  0  1  0  0  0  0  0  0
  2  8  1  0
  2  1  2  0
  3  4  1  0
  3  5  1  0
  5 49  1  0
  5  1  1  0
  6  3  1  0
  6  2  1  0
  7  6  1  0
  8 10  1  0
 10  9  1  0
 11 17  1  0
 12 17  1  0
 13 14  1  0
 13 12  1  0
 15 14  1  0
 15 24  1  0
 15 16  1  0
 17 16  1  0
 18 11  2  0
 19 10  1  0
 19 11  1  0
 20 19  1  0
 21 22  2  0
 22 23  1  0
 22 41  1  0
 23 26  1  0
 24 21  1  0
 24 25  1  0
 25 23  2  0
 26 27  1  0
 27 28  2  0
 29 32  1  0
 29 28  1  0
 30 29  2  0
 31 30  1  0
 31 26  2  0
 32 33  1  0
 33 34  1  0
 34 35  2  0
 36 35  1  0
 36 40  1  0
 37 36  2  0
 38 33  2  0
 38 37  1  0
 39 38  1  0
 41 42  1  0
 42 45  1  0
 42 44  1  0
 43 41  2  0
 46 21  1  0
 47 46  1  0
 48 46  1  0
 49 50  1  0
 50 51  1  0
 53 52  1  0
 53 51  1  0
 53 54  1  0
 55 66  2  0
 56 54  1  0
 56 61  1  0
 57 65  1  0
 57 67  1  0
 58 60  1  0
 59 65  1  0
 60 61  2  0
 60 59  1  0
 62 56  2  0
 63 62  1  0
 63 58  2  0
 64 58  1  0
 64 57  1  0
 65 55  1  0
 67 69  2  0
 68 67  1  0
 70 68  1  0
 71 80  2  0
 71 76  1  0
 72 68  1  0
 72 76  1  0
 73 72  1  0
 74 75  1  0
 74 73  1  0
 75 71  1  0
 76 77  2  0
 77 78  1  0
 79 78  2  0
 80 79  1  0
 81 55  1  0
 81 82  1  0
 81 91  1  0
 82 85  1  0
 83 87  1  0
 83 82  1  0
 84 83  2  0
 87 86  1  0
 89 87  1  0
 89 90  1  0
 89 88  1  0
 91 94  1  1
 91 92  1  0
 93 91  1  0
M  ISO  4  11 100  19 100  53 101  54 101
M  END
>  <TORSDO>  (84) 
F 22

>  <SCORE>  (84) 
-12.288

>  <name>  (84) 
83

>  <ligand_id>  (84) 
83

>  <original_smiles>  (84) 
[H]c1c([H])c([H])c2c(c1[H])C([H])([H])C([H])([H])C([H])([H])C2([H])N([H])C(=O)C1([H])N(C(=O)C([H])(N([H])C(=O)C([H])(N([H])C([H])([H])[H])C([H])([H])[H])C(C([H])([H])[H])(C([H])([H])[H])C([H])([H])[H])C([H])([H])c2c([H])c(OC([H])(C([H])([H])[H])C([H])([H])C([H])([H])C([H])([H])n3c([H])c(C([H])([H])C([H])(N([H])C(=O)N4C([H])([H])C([H])([H])C([H])([H])C([H])(n5nc(-c6c([H])c([H])c(Oc7c([H])c([H])c(F)c([H])c7F)c([H])c6[H])c(C(=O)N([H])[H])c5N([H])[H])C4([H])[H])C([H])([H])[H])[n+]([H])c3C([H])([H])[H])c([H])c([H])c2C1([H])[H]

>  <smiles>  (84) 
[H]c1c([H])c([H])c2c(c1[H])C([H])([H])C([H])([H])C([H])([H])C2([H])N([H])C(=O)C1([H])N(C(=O)C([H])(N([H])C(=O)C([H])(N([H])C([H])([H])[H])C([H])([H])[H])C(C([H])([H])[H])(C([H])([H])[H])C([H])([H])[H])C([H])([H])c2c([H])c(OC([H])(C([H])([H])[H])C([H])([H])C([H])([H])C([H])([H])n3c([H])c(C([H])([H])C([H])(N([H])C(=O)N4C([H])([H])C([H])([H])C([H])([H])C([H])(n5nc(-c6c([H])c([H])c(Oc7c([H])c([H])c(F)c([H])c7F)c([H])c6[H])c(C(=O)N([H])[H])c5N([H])[H])C4([H])[H])C([H])([H])[H])[n+]([H])c3C([H])([H])[H])c([H])c([H])c2C1([H])[H]

$$$$
84:0:0
     RDKit          3D

 93101  0  0  1  0  0  0  0  0999 V2000
  -29.1730  -20.5880   20.2640 C   0  0  0  0  0  3  0  0  0  0  0  0
  -29.6640  -21.8630   19.8680 C   0  0  0  0  0  0  0  0  0  0  0  0
  -30.9760  -21.9100   19.3290 C   0  0  0  0  0  0  0  0  0  0  0  0
  -29.9750  -19.4270   20.1100 C   0  0  0  0  0  0  0  0  0  0  0  0
  -31.7240  -20.7090   19.2610 C   0  0  0  0  0  0  0  0  0  0  0  0
  -31.5770  -23.2060   18.7910 C   0  0  0  0  0  1  0  0  0  0  0  0
  -33.1480  -20.6720   18.7370 C   0  0  0  0  0  1  0  0  0  0  0  0
  -31.2280  -19.5100   19.6180 N   0  0  0  0  0  0  0  0  0  0  0  0
  -28.9780  -17.4410   18.9110 C   0  0  0  0  0  1  0  0  0  0  0  0
  -29.4170  -17.9900   20.2810 C   0  0  0  0  0  3  0  0  0  0  0  0
  -30.3730  -16.9960   21.0330 C   0  0  0  0  0  2  0  0  0  0  0  0
  -30.6650  -14.5310   20.5050 C   0  0  0  0  0  0  0  0  0  0  0  0
  -30.3780  -12.3700   19.3460 C   0  0  0  0  0  2  0  0  0  0  0  0
  -29.4340  -12.5750   18.1440 C   0  0  0  0  0  2  0  0  0  0  0  0
  -27.9630  -12.4190   18.5750 C   0  0  0  0  0  2  0  0  0  0  0  0
  -27.6210  -13.2440   19.8450 C   0  0  0  0  0  3  0  0  0  0  0  0
  -28.6820  -13.0330   20.9500 C   0  0  0  0  0  2  0  0  0  0  0  0
  -29.9980  -13.3500   20.3780 N   0  0  0  0  0  0  0  0  0  0  0  0
  -31.7990  -14.7000   20.0490 O   0  0  0  0  0  0  0  0  0  0  0  0
  -29.9560  -15.5660   21.0090 N   0  0  0  0  0  0  0  0  0  0  0  0
  -29.0280  -15.3530   21.3420 H   0  0  0  0  0  0  0  0  0  0  0  0
  -25.2220  -13.8300   20.5600 C   0  0  0  0  0  0  0  0  0  0  0  0
  -24.1590  -13.0490   20.9290 C   0  0  0  0  0  0  0  0  0  0  0  0
  -24.6300  -11.7010   20.8940 C   0  0  0  0  0  0  0  0  0  0  0  0
  -26.2720  -12.9560   20.3260 N   0  0  0  0  0  0  0  0  0  0  0  0
  -25.9200  -11.6710   20.5840 N   0  0  0  0  0  0  0  0  0  0  0  0
  -23.9120  -10.4320   21.0810 C   0  0  0  0  0  0  0  0  0  0  0  0
  -24.3540   -9.4630   22.0070 C   0  0  0  0  0  3  0  0  0  0  0  0
  -23.6370   -8.2600   22.1810 C   0  0  0  0  0  3  0  0  0  0  0  0
  -22.4640   -8.0180   21.4290 C   0  0  0  0  0  0  0  0  0  0  0  0
  -22.0410   -8.9760   20.4920 C   0  0  0  0  0  3  0  0  0  0  0  0
  -22.7580  -10.1700   20.3150 C   0  0  0  0  0  3  0  0  0  0  0  0
  -21.7180   -6.8680   21.5130 O   0  0  0  0  0  0  0  0  0  0  0  0
  -21.6800   -6.1160   22.6610 C   0  0  0  0  0  0  0  0  0  0  0  0
  -21.2540   -6.6580   23.8940 C   0  0  0  0  0  3  0  0  0  0  0  0
  -21.1660   -5.8320   25.0320 C   0  0  0  0  0  3  0  0  0  0  0  0
  -21.4920   -4.4660   24.9390 C   0  0  0  0  0  0  0  0  0  0  0  0
  -21.9100   -3.9240   23.7110 C   0  0  0  0  0  3  0  0  0  0  0  0
  -22.0010   -4.7470   22.5750 C   0  0  0  0  0  0  0  0  0  0  0  0
  -22.3850   -4.2140   21.3890 F   0  0  0  0  0  0  0  0  0  0  0  0
  -21.3990   -3.6710   26.0300 F   0  0  0  0  0  0  0  0  0  0  0  0
  -22.7580  -13.5160   21.2030 C   0  0  0  0  0  0  0  0  0  0  0  0
  -22.0350  -12.8110   22.0650 N   0  0  0  0  0  0  0  0  0  0  0  0
  -22.3140  -14.5420   20.6890 O   0  0  0  0  0  0  0  0  0  0  0  0
  -22.4060  -11.9810   22.5040 H   0  0  0  0  0  0  0  0  0  0  0  0
  -21.0950  -13.1060   22.2920 H   0  0  0  0  0  0  0  0  0  0  0  0
  -25.3760  -15.2020   20.3870 N   0  0  0  0  0  0  0  0  0  0  0  0
  -24.6010  -15.8480   20.4930 H   0  0  0  0  0  0  0  0  0  0  0  0
  -26.2180  -15.6480   20.0450 H   0  0  0  0  0  0  0  0  0  0  0  0
  -28.7520  -23.1130   19.9270 C   0  0  0  0  0  3  0  0  0  0  0  0
  -29.2230  -24.2900   20.8380 C   0  0  0  0  0  3  0  0  0  0  0  0
  -28.1900  -25.4370   21.0460 C   0  0  0  0  0  2  0  0  0  0  0  0
  -28.3640  -26.6210   20.2340 O   0  0  0  0  0  0  0  0  0  0  0  0
  -24.5810  -31.8890   23.2340 C   0  0  0  0  0  0  0  0  0  0  0  0
  -27.2370  -27.4200   20.1930 C   0  0  0  0  0  0  0  0  0  0  0  0
  -23.3870  -30.4830   21.5870 C   0  0  0  0  0  3  0  0  0  0  0  0
  -24.8520  -28.9450   20.1710 C   0  0  0  0  0  0  0  0  0  0  0  0
  -25.9160  -30.8380   21.4060 C   0  0  0  0  0  2  0  0  0  0  0  0
  -26.0080  -29.4650   20.7680 C   0  0  0  0  0  0  0  0  0  0  0  0
  -27.2080  -28.7110   20.7730 C   0  0  0  0  0  3  0  0  0  0  0  0
  -26.0680  -26.9250   19.5760 C   0  0  0  0  0  3  0  0  0  0  0  0
  -24.8780  -27.6750   19.5680 C   0  0  0  0  0  3  0  0  0  0  0  0
  -23.6060  -29.8040   20.2100 C   0  0  0  0  0  2  0  0  0  0  0  0
  -24.6460  -31.0860   22.1330 N   0  0  0  0  0  0  0  0  0  0  0  0
  -23.4960  -32.1630   23.7650 O   0  0  0  0  0  0  0  0  0  0  0  0
  -22.7280  -29.4640   22.5450 C   0  0  0  0  0  0  0  0  0  0  0  0
  -21.4030  -29.2880   22.4160 N   0  0  0  0  0  0  0  0  0  0  0  0
  -23.4080  -28.8360   23.3610 O   0  0  0  0  0  0  0  0  0  0  0  0
  -20.9160  -29.8470   21.7290 H   0  0  0  0  0  0  0  0  0  0  0  0
  -18.0210  -28.1200   22.9210 C   0  0  0  0  0  0  0  0  0  0  0  0
  -20.5810  -28.3540   23.1850 C   0  0  0  0  0  3  0  0  0  0  0  0
  -20.6690  -26.9260   22.6010 C   0  0  0  0  0  2  0  0  0  0  0  0
  -19.5620  -26.6180   21.5890 C   0  0  0  0  0  2  0  0  0  0  0  0
  -18.1830  -26.7730   22.2380 C   0  0  0  0  0  2  0  0  0  0  0  0
  -19.1470  -28.8700   23.3510 C   0  0  0  0  0  0  0  0  0  0  0  0
  -18.9410  -30.1330   23.9480 C   0  0  0  0  0  3  0  0  0  0  0  0
  -17.6430  -30.6460   24.1200 C   0  0  0  0  0  3  0  0  0  0  0  0
  -16.5300  -29.8930   23.7060 C   0  0  0  0  0  3  0  0  0  0  0  0
  -16.7200  -28.6320   23.1110 C   0  0  0  0  0  3  0  0  0  0  0  0
  -25.8620  -32.5240   23.8600 C   0  0  0  0  0  3  0  0  0  0  0  0
  -25.5520  -33.9220   24.1820 N   0  0  0  0  0  0  0  0  0  0  0  0
  -25.8920  -34.9710   23.4220 C   0  0  0  0  0  0  0  0  0  0  0  0
  -26.5710  -34.8640   22.3970 O   0  0  0  0  0  0  0  0  0  0  0  0
  -24.9500  -34.0800   24.9780 H   0  0  0  0  0  0  0  0  0  0  0  0
  -24.1720  -36.7650   23.0400 C   0  0  0  0  0  1  0  0  0  0  0  0
  -25.4010  -36.3620   23.8700 C   0  0  0  0  0  3  0  0  0  0  0  0
  -27.5260  -37.2430   24.7270 C   0  0  0  0  0  1  0  0  0  0  0  0
  -26.4380  -37.4120   23.7680 N   0  0  0  0  0  0  0  0  0  0  0  0
  -26.0310  -38.3330   23.9080 H   0  0  0  0  0  0  0  0  0  0  0  0
  -26.3730  -31.7550   25.1400 C   0  0  1  0  0  0  0  0  0  0  0  0
  -25.2750  -31.5200   26.2030 C   0  0  0  0  0  1  0  0  0  0  0  0
  -26.9590  -30.3770   24.7520 C   0  0  0  0  0  1  0  0  0  0  0  0
  -27.5210  -32.5510   25.8050 C   0  0  0  0  0  1  0  0  0  0  0  0
  2 50  1  0
  2  1  2  0
  3  2  1  0
  4  1  1  0
  4 10  1  0
  5  3  2  0
  5  8  1  0
  6  3  1  0
  7  5  1  0
  8  4  2  0
 10  9  1  0
 10 11  1  0
 12 20  1  0
 13 18  1  0
 14 15  1  0
 14 13  1  0
 16 15  1  0
 16 25  1  0
 16 17  1  0
 18 12  1  0
 18 17  1  0
 19 12  2  0
 20 11  1  0
 20 21  1  0
 22 23  2  0
 23 42  1  0
 24 23  1  0
 24 27  1  0
 25 22  1  0
 25 26  1  0
 26 24  2  0
 27 28  1  0
 28 29  2  0
 30 33  1  0
 30 29  1  0
 31 30  2  0
 32 31  1  0
 32 27  2  0
 33 34  1  0
 34 35  1  0
 35 36  2  0
 37 36  1  0
 37 41  1  0
 38 37  2  0
 39 34  2  0
 39 38  1  0
 40 39  1  0
 42 43  1  0
 43 46  1  0
 43 45  1  0
 44 42  2  0
 47 48  1  0
 47 22  1  0
 49 47  1  0
 50 51  2  0
 51 52  1  0
 53 52  1  0
 54 65  2  0
 55 53  1  0
 55 60  1  0
 56 64  1  0
 56 66  1  0
 57 63  1  0
 57 59  1  0
 58 64  1  0
 59 60  2  0
 59 58  1  0
 61 55  2  0
 62 61  1  0
 62 57  2  0
 63 56  1  0
 64 54  1  0
 66 68  2  0
 67 66  1  0
 69 67  1  0
 70 79  2  0
 70 75  1  0
 71 67  1  0
 71 75  1  0
 72 71  1  0
 73 74  1  0
 73 72  1  0
 74 70  1  0
 75 76  2  0
 76 77  1  0
 78 77  2  0
 79 78  1  0
 80 54  1  0
 80 81  1  0
 80 90  1  0
 81 84  1  0
 82 86  1  0
 82 81  1  0
 83 82  2  0
 86 85  1  0
 88 86  1  0
 88 89  1  0
 88 87  1  0
 90 93  1  1
 90 91  1  0
 92 90  1  0
M  ISO  4  12 100  20 100  52 101  53 101
M  END
>  <TORSDO>  (85) 
F 21

>  <SCORE>  (85) 
-13.701

>  <name>  (85) 
84

>  <ligand_id>  (85) 
84

>  <original_smiles>  (85) 
[H]c1c([H])c([H])c2c(c1[H])C([H])([H])C([H])([H])C([H])([H])C2([H])N([H])C(=O)C1([H])N(C(=O)C([H])(N([H])C(=O)C([H])(N([H])C([H])([H])[H])C([H])([H])[H])C(C([H])([H])[H])(C([H])([H])[H])C([H])([H])[H])C([H])([H])c2c([H])c(OC([H])([H])C([H])([H])C([H])([H])c3c([H])c(C([H])(C([H])([H])[H])C([H])([H])N([H])C(=O)N4C([H])([H])C([H])([H])C([H])([H])C([H])(n5nc(-c6c([H])c([H])c(Oc7c([H])c([H])c(F)c([H])c7F)c([H])c6[H])c(C(=O)N([H])[H])c5N([H])[H])C4([H])[H])nc(C([H])([H])[H])c3C([H])([H])[H])c([H])c([H])c2C1([H])[H]

>  <smiles>  (85) 
[H]c1c([H])c([H])c2c(c1[H])C([H])([H])C([H])([H])C([H])([H])C2([H])N([H])C(=O)C1([H])N(C(=O)C([H])(N([H])C(=O)C([H])(N([H])C([H])([H])[H])C([H])([H])[H])C(C([H])([H])[H])(C([H])([H])[H])C([H])([H])[H])C([H])([H])c2c([H])c(OC([H])([H])C([H])([H])C([H])([H])c3c([H])c(C([H])(C([H])([H])[H])C([H])([H])N([H])C(=O)N4C([H])([H])C([H])([H])C([H])([H])C([H])(n5nc(-c6c([H])c([H])c(Oc7c([H])c([H])c(F)c([H])c7F)c([H])c6[H])c(C(=O)N([H])[H])c5N([H])[H])C4([H])[H])nc(C([H])([H])[H])c3C([H])([H])[H])c([H])c([H])c2C1([H])[H]

$$$$
85:0:0
     RDKit          3D

 89 97  0  0  1  0  0  0  0  0999 V2000
  -29.4000  -22.9120   19.2330 C   0  0  0  0  0  2  0  0  0  0  0  0
  -28.9260  -21.9930   20.2300 C   0  0  0  0  0  0  0  0  0  0  0  0
  -27.7810  -23.9470   21.0970 C   0  0  0  0  0  3  0  0  0  0  0  0
  -28.2980  -24.8680   20.1110 C   0  0  0  0  0  0  0  0  0  0  0  0
  -26.8990  -24.4680   22.2110 C   0  0  0  0  0  1  0  0  0  0  0  0
  -29.1150  -24.2740   19.1810 N   0  0  0  0  0  0  0  0  0  0  0  0
  -28.0830  -22.5780   21.1550 N   0  0  0  0  0  0  0  0  0  0  0  0
  -28.2790  -26.3310   20.1320 O   0  0  0  0  0  0  0  0  0  0  0  0
  -24.6320  -31.9060   23.2430 C   0  0  0  0  0  0  0  0  0  0  0  0
  -27.1640  -27.2270   20.1630 C   0  0  0  0  0  0  0  0  0  0  0  0
  -23.4080  -30.5240   21.6060 C   0  0  0  0  0  3  0  0  0  0  0  0
  -24.8330  -28.9440   20.1660 C   0  0  0  0  0  0  0  0  0  0  0  0
  -25.9550  -30.7870   21.4140 C   0  0  0  0  0  2  0  0  0  0  0  0
  -26.0150  -29.3970   20.7640 C   0  0  0  0  0  0  0  0  0  0  0  0
  -27.1810  -28.5520   20.7470 C   0  0  0  0  0  3  0  0  0  0  0  0
  -25.9570  -26.8550   19.5370 C   0  0  0  0  0  3  0  0  0  0  0  0
  -24.8120  -27.6830   19.5440 C   0  0  0  0  0  3  0  0  0  0  0  0
  -23.6110  -29.8470   20.2240 C   0  0  0  0  0  2  0  0  0  0  0  0
  -24.6860  -31.0930   22.1440 N   0  0  0  0  0  0  0  0  0  0  0  0
  -23.5530  -32.1940   23.7840 O   0  0  0  0  0  0  0  0  0  0  0  0
  -22.7350  -29.5160   22.5700 C   0  0  0  0  0  0  0  0  0  0  0  0
  -21.4070  -29.3450   22.4470 N   0  0  0  0  0  0  0  0  0  0  0  0
  -23.4100  -28.8880   23.3910 O   0  0  0  0  0  0  0  0  0  0  0  0
  -20.9200  -29.9030   21.7600 H   0  0  0  0  0  0  0  0  0  0  0  0
  -18.0290  -28.1410   22.9480 C   0  0  0  0  0  0  0  0  0  0  0  0
  -20.5870  -28.4080   23.2190 C   0  0  0  0  0  3  0  0  0  0  0  0
  -20.6930  -26.9750   22.6470 C   0  0  0  0  0  2  0  0  0  0  0  0
  -19.5920  -26.6490   21.6320 C   0  0  0  0  0  2  0  0  0  0  0  0
  -18.2090  -26.7920   22.2730 C   0  0  0  0  0  2  0  0  0  0  0  0
  -19.1460  -28.9070   23.3780 C   0  0  0  0  0  0  0  0  0  0  0  0
  -18.9230  -30.1680   23.9700 C   0  0  0  0  0  3  0  0  0  0  0  0
  -17.6170  -30.6660   24.1370 C   0  0  0  0  0  3  0  0  0  0  0  0
  -16.5150  -29.8990   23.7230 C   0  0  0  0  0  3  0  0  0  0  0  0
  -16.7220  -28.6370   23.1360 C   0  0  0  0  0  3  0  0  0  0  0  0
  -25.9210  -32.5300   23.8600 C   0  0  0  0  0  3  0  0  0  0  0  0
  -26.4370  -31.7530   25.1350 C   0  0  1  0  0  0  0  0  0  0  0  0
  -25.3470  -31.5240   26.2090 C   0  0  0  0  0  1  0  0  0  0  0  0
  -27.0070  -30.3700   24.7420 C   0  0  0  0  0  1  0  0  0  0  0  0
  -27.5970  -32.5370   25.7930 C   0  0  0  0  0  1  0  0  0  0  0  0
  -25.6220  -33.9290   24.2010 N   0  0  0  0  0  0  0  0  0  0  0  0
  -25.9400  -34.9860   23.4400 C   0  0  0  0  0  0  0  0  0  0  0  0
  -26.5840  -34.8840   22.3930 O   0  0  0  0  0  0  0  0  0  0  0  0
  -25.0470  -34.0820   25.0160 H   0  0  0  0  0  0  0  0  0  0  0  0
  -24.2070  -36.7870   23.1450 C   0  0  0  0  0  1  0  0  0  0  0  0
  -25.4710  -36.3750   23.9160 C   0  0  0  0  0  3  0  0  0  0  0  0
  -27.6300  -37.2560   24.6870 C   0  0  0  0  0  1  0  0  0  0  0  0
  -26.5030  -37.4250   23.7730 N   0  0  0  0  0  0  0  0  0  0  0  0
  -26.1030  -38.3470   23.9320 H   0  0  0  0  0  0  0  0  0  0  0  0
  -29.6330  -20.5270   20.4850 C   0  0  0  0  0  2  0  0  0  0  0  0
  -29.0710  -18.9630   20.3100 C   0  0  0  0  0  3  0  0  0  0  0  0
  -30.0980  -17.6450   20.4950 C   0  0  0  0  0  3  0  0  0  0  0  0
  -30.4700  -14.9560   20.3140 C   0  0  0  0  0  0  0  0  0  0  0  0
  -30.3350  -12.6320   19.3360 C   0  0  0  0  0  2  0  0  0  0  0  0
  -29.3870  -12.6200   18.1140 C   0  0  0  0  0  2  0  0  0  0  0  0
  -27.9280  -12.4060   18.5620 C   0  0  0  0  0  2  0  0  0  0  0  0
  -27.5360  -13.3110   19.7580 C   0  0  0  0  0  3  0  0  0  0  0  0
  -28.6030  -13.2980   20.8740 C   0  0  0  0  0  2  0  0  0  0  0  0
  -29.8690  -13.7040   20.2550 N   0  0  0  0  0  0  0  0  0  0  0  0
  -31.6690  -15.0320   20.0270 O   0  0  0  0  0  0  0  0  0  0  0  0
  -29.6930  -16.1270   20.4880 N   0  0  0  0  0  0  0  0  0  0  0  0
  -28.7160  -15.9490   20.6620 H   0  0  0  0  0  0  0  0  0  0  0  0
  -25.1570  -13.8720   20.5200 C   0  0  0  0  0  0  0  0  0  0  0  0
  -24.1040  -13.0880   20.8980 C   0  0  0  0  0  0  0  0  0  0  0  0
  -24.5780  -11.7410   20.8590 C   0  0  0  0  0  0  0  0  0  0  0  0
  -26.2050  -13.0030   20.2680 N   0  0  0  0  0  0  0  0  0  0  0  0
  -25.8670  -11.7160   20.5390 N   0  0  0  0  0  0  0  0  0  0  0  0
  -23.8640  -10.4730   21.0500 C   0  0  0  0  0  0  0  0  0  0  0  0
  -24.3070   -9.5070   21.9810 C   0  0  0  0  0  3  0  0  0  0  0  0
  -23.5900   -8.3050   22.1610 C   0  0  0  0  0  3  0  0  0  0  0  0
  -22.4170   -8.0580   21.4090 C   0  0  0  0  0  0  0  0  0  0  0  0
  -21.9930   -9.0110   20.4670 C   0  0  0  0  0  3  0  0  0  0  0  0
  -22.7100  -10.2060   20.2860 C   0  0  0  0  0  3  0  0  0  0  0  0
  -21.6710   -6.9070   21.4970 O   0  0  0  0  0  0  0  0  0  0  0  0
  -21.6310   -6.1630   22.6500 C   0  0  0  0  0  0  0  0  0  0  0  0
  -21.1800   -6.7070   23.8720 C   0  0  0  0  0  3  0  0  0  0  0  0
  -21.0890   -5.8880   25.0160 C   0  0  0  0  0  3  0  0  0  0  0  0
  -21.4370   -4.5260   24.9380 C   0  0  0  0  0  0  0  0  0  0  0  0
  -21.8800   -3.9820   23.7190 C   0  0  0  0  0  3  0  0  0  0  0  0
  -21.9730   -4.7970   22.5780 C   0  0  0  0  0  0  0  0  0  0  0  0
  -22.3810   -4.2630   21.4020 F   0  0  0  0  0  0  0  0  0  0  0  0
  -21.3420   -3.7380   26.0330 F   0  0  0  0  0  0  0  0  0  0  0  0
  -22.7040  -13.5540   21.1800 C   0  0  0  0  0  0  0  0  0  0  0  0
  -21.9890  -12.8520   22.0520 N   0  0  0  0  0  0  0  0  0  0  0  0
  -22.2540  -14.5740   20.6600 O   0  0  0  0  0  0  0  0  0  0  0  0
  -22.3660  -12.0270   22.4940 H   0  0  0  0  0  0  0  0  0  0  0  0
  -21.0520  -13.1480   22.2850 H   0  0  0  0  0  0  0  0  0  0  0  0
  -25.3050  -15.2450   20.3430 N   0  0  0  0  0  0  0  0  0  0  0  0
  -24.5260  -15.8840   20.4470 H   0  0  0  0  0  0  0  0  0  0  0  0
  -26.1340  -15.6920   19.9710 H   0  0  0  0  0  0  0  0  0  0  0  0
  1  2  1  0
  2 49  1  0
  2  7  2  0
  3  7  1  0
  3  5  1  0
  4  8  1  0
  4  3  1  0
  6  1  1  0
  6  4  2  0
  8 10  1  0
  9 20  2  0
 10 15  1  0
 11 19  1  0
 11 21  1  0
 12 18  1  0
 12 14  1  0
 13 19  1  0
 14 13  1  0
 15 14  2  0
 16 17  1  0
 16 10  2  0
 17 12  2  0
 18 11  1  0
 19  9  1  0
 21 23  2  0
 22 21  1  0
 24 22  1  0
 25 34  2  0
 25 30  1  0
 26 22  1  0
 26 30  1  0
 27 26  1  0
 28 29  1  0
 28 27  1  0
 29 25  1  0
 30 31  2  0
 31 32  1  0
 33 32  2  0
 34 33  1  0
 35  9  1  0
 35 40  1  0
 35 36  1  0
 36 39  1  1
 36 37  1  0
 38 36  1  0
 40 43  1  0
 41 45  1  0
 41 40  1  0
 42 41  2  0
 45 44  1  0
 47 45  1  0
 47 48  1  0
 47 46  1  0
 50 49  1  0
 50 51  2  0
 52 60  1  0
 53 58  1  0
 54 55  1  0
 54 53  1  0
 56 55  1  0
 56 65  1  0
 56 57  1  0
 58 52  1  0
 58 57  1  0
 59 52  2  0
 60 51  1  0
 60 61  1  0
 62 63  2  0
 63 82  1  0
 64 63  1  0
 64 67  1  0
 65 62  1  0
 65 66  1  0
 66 64  2  0
 67 68  1  0
 68 69  2  0
 70 73  1  0
 70 69  1  0
 71 70  2  0
 72 71  1  0
 72 67  2  0
 73 74  1  0
 74 75  1  0
 75 76  2  0
 77 76  1  0
 77 81  1  0
 78 77  2  0
 79 74  2  0
 79 78  1  0
 80 79  1  0
 82 83  1  0
 83 86  1  0
 83 85  1  0
 84 82  2  0
 87 88  1  0
 87 62  1  0
 89 87  1  0
M  ISO  4   4 101   8 101  52 100  60 100
M  END
>  <TORSDO>  (86) 
F 19

>  <SCORE>  (86) 
-14.039

>  <name>  (86) 
85

>  <ligand_id>  (86) 
85

>  <original_smiles>  (86) 
[H]c1nc(Oc2c([H])c([H])c3c(c2[H])C([H])([H])N(C(=O)C([H])(N([H])C(=O)C([H])(N([H])C([H])([H])[H])C([H])([H])[H])C(C([H])([H])[H])(C([H])([H])[H])C([H])([H])[H])C([H])(C(=O)N([H])C2([H])c4c([H])c([H])c([H])c([H])c4C([H])([H])C([H])([H])C2([H])[H])C3([H])[H])c(C([H])([H])[H])nc1C([H])([H])C([H])([H])C([H])([H])N([H])C(=O)N1C([H])([H])C([H])([H])C([H])([H])C([H])(n2nc(-c3c([H])c([H])c(Oc4c([H])c([H])c(F)c([H])c4F)c([H])c3[H])c(C(=O)N([H])[H])c2N([H])[H])C1([H])[H]

>  <smiles>  (86) 
[H]c1nc(Oc2c([H])c([H])c3c(c2[H])C([H])([H])N(C(=O)C([H])(N([H])C(=O)C([H])(N([H])C([H])([H])[H])C([H])([H])[H])C(C([H])([H])[H])(C([H])([H])[H])C([H])([H])[H])C([H])(C(=O)N([H])C2([H])c4c([H])c([H])c([H])c([H])c4C([H])([H])C([H])([H])C2([H])[H])C3([H])[H])c(C([H])([H])[H])nc1C([H])([H])C([H])([H])C([H])([H])N([H])C(=O)N1C([H])([H])C([H])([H])C([H])([H])C([H])(n2nc(-c3c([H])c([H])c(Oc4c([H])c([H])c(F)c([H])c4F)c([H])c3[H])c(C(=O)N([H])[H])c2N([H])[H])C1([H])[H]

$$$$
86:0:0
     RDKit          3D

 90 98  0  0  1  0  0  0  0  0999 V2000
  -29.6580  -19.4120   20.3110 C   0  0  0  0  0  0  0  0  0  0  0  0
  -30.5010  -20.4980   20.2050 C   0  0  0  0  0  0  0  0  0  0  0  0
  -31.9820  -20.5840   19.9440 C   0  0  0  0  0  1  0  0  0  0  0  0
  -28.3860  -19.9090   20.5990 N   0  0  0  0  0  0  0  0  0  0  0  0
  -28.3950  -21.2110   20.5720 N   0  0  0  0  0  0  0  0  0  0  0  0
  -29.6580  -21.6170   20.2990 N   0  0  0  0  0  0  0  0  0  0  0  0
  -29.8540  -17.9180   20.0270 C   0  0  0  0  0  2  0  0  0  0  0  0
  -30.3020  -17.0020   21.2190 C   0  0  0  0  0  2  0  0  0  0  0  0
  -30.6670  -14.5600   20.4760 C   0  0  0  0  0  0  0  0  0  0  0  0
  -30.3740  -12.3650   19.3310 C   0  0  0  0  0  2  0  0  0  0  0  0
  -29.4170  -12.5290   18.1290 C   0  0  0  0  0  2  0  0  0  0  0  0
  -27.9520  -12.3740   18.5820 C   0  0  0  0  0  2  0  0  0  0  0  0
  -27.6130  -13.2470   19.8170 C   0  0  0  0  0  3  0  0  0  0  0  0
  -28.6760  -13.0620   20.9300 C   0  0  0  0  0  2  0  0  0  0  0  0
  -30.0030  -13.3610   20.3580 N   0  0  0  0  0  0  0  0  0  0  0  0
  -31.7850  -14.7570   20.0000 O   0  0  0  0  0  0  0  0  0  0  0  0
  -29.9530  -15.5660   21.0310 N   0  0  0  0  0  0  0  0  0  0  0  0
  -29.0460  -15.3040   21.3750 H   0  0  0  0  0  0  0  0  0  0  0  0
  -25.2150  -13.8550   20.5250 C   0  0  0  0  0  0  0  0  0  0  0  0
  -24.1470  -13.0840   20.8940 C   0  0  0  0  0  0  0  0  0  0  0  0
  -24.6070  -11.7310   20.8670 C   0  0  0  0  0  0  0  0  0  0  0  0
  -26.2620  -12.9740   20.2980 N   0  0  0  0  0  0  0  0  0  0  0  0
  -25.8990  -11.6910   20.5640 N   0  0  0  0  0  0  0  0  0  0  0  0
  -23.8810  -10.4730   21.0610 C   0  0  0  0  0  0  0  0  0  0  0  0
  -24.3190   -9.4990   21.9900 C   0  0  0  0  0  3  0  0  0  0  0  0
  -23.5920   -8.3010   22.1630 C   0  0  0  0  0  3  0  0  0  0  0  0
  -22.4160   -8.0720   21.4120 C   0  0  0  0  0  0  0  0  0  0  0  0
  -21.9990   -9.0330   20.4730 C   0  0  0  0  0  3  0  0  0  0  0  0
  -22.7240  -10.2220   20.2960 C   0  0  0  0  0  3  0  0  0  0  0  0
  -21.6560   -6.9320   21.5020 O   0  0  0  0  0  0  0  0  0  0  0  0
  -21.6220   -6.1740   22.6460 C   0  0  0  0  0  0  0  0  0  0  0  0
  -21.2120   -6.7200   23.8810 C   0  0  0  0  0  3  0  0  0  0  0  0
  -21.1170   -5.8960   25.0200 C   0  0  0  0  0  3  0  0  0  0  0  0
  -21.4240   -4.5250   24.9250 C   0  0  0  0  0  0  0  0  0  0  0  0
  -21.8270   -3.9790   23.6940 C   0  0  0  0  0  3  0  0  0  0  0  0
  -21.9230   -4.8010   22.5580 C   0  0  0  0  0  0  0  0  0  0  0  0
  -22.2930   -4.2640   21.3700 F   0  0  0  0  0  0  0  0  0  0  0  0
  -21.3300   -3.7320   26.0170 F   0  0  0  0  0  0  0  0  0  0  0  0
  -22.7470  -13.5620   21.1580 C   0  0  0  0  0  0  0  0  0  0  0  0
  -22.0180  -12.8730   22.0250 N   0  0  0  0  0  0  0  0  0  0  0  0
  -22.3110  -14.5840   20.6320 O   0  0  0  0  0  0  0  0  0  0  0  0
  -22.3870  -12.0480   22.4730 H   0  0  0  0  0  0  0  0  0  0  0  0
  -21.0850  -13.1880   22.2420 H   0  0  0  0  0  0  0  0  0  0  0  0
  -25.3820  -15.2250   20.3490 N   0  0  0  0  0  0  0  0  0  0  0  0
  -24.6270  -15.8940   20.4550 H   0  0  0  0  0  0  0  0  0  0  0  0
  -26.2230  -15.6550   19.9880 H   0  0  0  0  0  0  0  0  0  0  0  0
  -29.9140  -23.0230   19.8920 C   0  0  0  0  0  2  0  0  0  0  0  0
  -29.1860  -24.2130   20.6210 C   0  0  0  0  0  2  0  0  0  0  0  0
  -28.6130  -25.3200   19.6550 C   0  0  0  0  0  2  0  0  0  0  0  0
  -28.4340  -26.6460   20.2410 O   0  0  0  0  0  0  0  0  0  0  0  0
  -24.5960  -31.8880   23.2390 C   0  0  0  0  0  0  0  0  0  0  0  0
  -27.2470  -27.3820   20.1710 C   0  0  0  0  0  0  0  0  0  0  0  0
  -23.3930  -30.4900   21.5960 C   0  0  0  0  0  3  0  0  0  0  0  0
  -24.8490  -28.9420   20.1720 C   0  0  0  0  0  0  0  0  0  0  0  0
  -25.9260  -30.8240   21.4130 C   0  0  0  0  0  2  0  0  0  0  0  0
  -26.0090  -29.4480   20.7670 C   0  0  0  0  0  0  0  0  0  0  0  0
  -27.2020  -28.6770   20.7630 C   0  0  0  0  0  3  0  0  0  0  0  0
  -26.0570  -26.9070   19.5650 C   0  0  0  0  0  3  0  0  0  0  0  0
  -24.8730  -27.6740   19.5680 C   0  0  0  0  0  3  0  0  0  0  0  0
  -23.6060  -29.8090   20.2170 C   0  0  0  0  0  2  0  0  0  0  0  0
  -24.6560  -31.0800   22.1410 N   0  0  0  0  0  0  0  0  0  0  0  0
  -23.5130  -32.1670   23.7720 O   0  0  0  0  0  0  0  0  0  0  0  0
  -22.7340  -29.4700   22.5530 C   0  0  0  0  0  0  0  0  0  0  0  0
  -21.4100  -29.2950   22.4210 N   0  0  0  0  0  0  0  0  0  0  0  0
  -23.4130  -28.8420   23.3700 O   0  0  0  0  0  0  0  0  0  0  0  0
  -20.9250  -29.8510   21.7330 H   0  0  0  0  0  0  0  0  0  0  0  0
  -18.0280  -28.1230   22.9270 C   0  0  0  0  0  0  0  0  0  0  0  0
  -20.5890  -28.3600   23.1900 C   0  0  0  0  0  3  0  0  0  0  0  0
  -20.6780  -26.9320   22.6080 C   0  0  0  0  0  2  0  0  0  0  0  0
  -19.5710  -26.6210   21.5950 C   0  0  0  0  0  2  0  0  0  0  0  0
  -18.1930  -26.7750   22.2440 C   0  0  0  0  0  2  0  0  0  0  0  0
  -19.1550  -28.8740   23.3580 C   0  0  0  0  0  0  0  0  0  0  0  0
  -18.9490  -30.1350   23.9550 C   0  0  0  0  0  3  0  0  0  0  0  0
  -17.6500  -30.6480   24.1270 C   0  0  0  0  0  3  0  0  0  0  0  0
  -16.5380  -29.8940   23.7130 C   0  0  0  0  0  3  0  0  0  0  0  0
  -16.7270  -28.6340   23.1190 C   0  0  0  0  0  3  0  0  0  0  0  0
  -25.8790  -32.5200   23.8610 C   0  0  0  0  0  3  0  0  0  0  0  0
  -25.5710  -33.9200   24.1870 N   0  0  0  0  0  0  0  0  0  0  0  0
  -25.9100  -34.9700   23.4290 C   0  0  0  0  0  0  0  0  0  0  0  0
  -26.5880  -34.8630   22.4020 O   0  0  0  0  0  0  0  0  0  0  0  0
  -24.9710  -34.0760   24.9830 H   0  0  0  0  0  0  0  0  0  0  0  0
  -24.1890  -36.7660   23.0570 C   0  0  0  0  0  1  0  0  0  0  0  0
  -25.4210  -36.3590   23.8800 C   0  0  0  0  0  3  0  0  0  0  0  0
  -27.5500  -37.2350   24.7340 C   0  0  0  0  0  1  0  0  0  0  0  0
  -26.4570  -37.4110   23.7810 N   0  0  0  0  0  0  0  0  0  0  0  0
  -26.0520  -38.3320   23.9300 H   0  0  0  0  0  0  0  0  0  0  0  0
  -26.3940  -31.7510   25.1410 C   0  0  1  0  0  0  0  0  0  0  0  0
  -25.2990  -31.5180   26.2080 C   0  0  0  0  0  1  0  0  0  0  0  0
  -26.9750  -30.3700   24.7530 C   0  0  0  0  0  1  0  0  0  0  0  0
  -27.5450  -32.5460   25.8010 C   0  0  0  0  0  1  0  0  0  0  0  0
  1  4  1  0
  2  6  1  0
  2  1  2  0
  3  2  1  0
  5  4  2  0
  6  5  1  0
  7  1  1  0
  7  8  1  0
  9 17  1  0
 10 15  1  0
 11 12  1  0
 11 10  1  0
 13 12  1  0
 13 22  1  0
 13 14  1  0
 15  9  1  0
 15 14  1  0
 16  9  2  0
 17  8  1  0
 17 18  1  0
 19 20  2  0
 20 39  1  0
 21 20  1  0
 21 24  1  0
 22 19  1  0
 22 23  1  0
 23 21  2  0
 24 25  1  0
 25 26  2  0
 27 30  1  0
 27 26  1  0
 28 27  2  0
 29 28  1  0
 29 24  2  0
 30 31  1  0
 31 32  1  0
 32 33  2  0
 34 33  1  0
 34 38  1  0
 35 34  2  0
 36 31  2  0
 36 35  1  0
 37 36  1  0
 39 40  1  0
 40 43  1  0
 40 42  1  0
 41 39  2  0
 44 45  1  0
 44 19  1  0
 46 44  1  0
 47  6  1  0
 47 48  1  0
 49 50  1  0
 49 48  1  0
 51 62  2  0
 52 50  1  0
 52 57  1  0
 53 61  1  0
 53 63  1  0
 54 60  1  0
 54 56  1  0
 55 61  1  0
 56 55  1  0
 57 56  2  0
 58 59  1  0
 58 52  2  0
 59 54  2  0
 60 53  1  0
 61 51  1  0
 63 65  2  0
 64 63  1  0
 66 64  1  0
 67 76  2  0
 67 72  1  0
 68 64  1  0
 68 72  1  0
 69 68  1  0
 70 71  1  0
 70 69  1  0
 71 67  1  0
 72 73  2  0
 73 74  1  0
 75 74  2  0
 76 75  1  0
 77 51  1  0
 77 78  1  0
 77 87  1  0
 78 81  1  0
 79 83  1  0
 79 78  1  0
 80 79  2  0
 83 82  1  0
 85 83  1  0
 85 86  1  0
 85 84  1  0
 87 90  1  1
 87 88  1  0
 89 87  1  0
M  ISO  4   9 100  17 100  49 101  50 101
M  END
>  <TORSDO>  (87) 
F 21

>  <SCORE>  (87) 
-13.642

>  <name>  (87) 
86

>  <ligand_id>  (87) 
86

>  <original_smiles>  (87) 
[H]c1c([H])c([H])c2c(c1[H])C([H])([H])C([H])([H])C([H])([H])C2([H])N([H])C(=O)C1([H])N(C(=O)C([H])(N([H])C(=O)C([H])(N([H])C([H])([H])[H])C([H])([H])[H])C(C([H])([H])[H])(C([H])([H])[H])C([H])([H])[H])C([H])([H])c2c([H])c(OC([H])([H])C([H])([H])C([H])([H])n3nnc(C([H])([H])C([H])([H])N([H])C(=O)N4C([H])([H])C([H])([H])C([H])([H])C([H])(n5nc(-c6c([H])c([H])c(Oc7c([H])c([H])c(F)c([H])c7F)c([H])c6[H])c(C(=O)N([H])[H])c5N([H])[H])C4([H])[H])c3C([H])([H])[H])c([H])c([H])c2C1([H])[H]

>  <smiles>  (87) 
[H]c1c([H])c([H])c2c(c1[H])C([H])([H])C([H])([H])C([H])([H])C2([H])N([H])C(=O)C1([H])N(C(=O)C([H])(N([H])C(=O)C([H])(N([H])C([H])([H])[H])C([H])([H])[H])C(C([H])([H])[H])(C([H])([H])[H])C([H])([H])[H])C([H])([H])c2c([H])c(OC([H])([H])C([H])([H])C([H])([H])n3nnc(C([H])([H])C([H])([H])N([H])C(=O)N4C([H])([H])C([H])([H])C([H])([H])C([H])(n5nc(-c6c([H])c([H])c(Oc7c([H])c([H])c(F)c([H])c7F)c([H])c6[H])c(C(=O)N([H])[H])c5N([H])[H])C4([H])[H])c3C([H])([H])[H])c([H])c([H])c2C1([H])[H]

$$$$
87:0:0
     RDKit          3D

 93101  0  0  1  0  0  0  0  0999 V2000
  -30.1080  -22.7530   20.6920 C   0  0  0  0  0  3  0  0  0  0  0  0
  -28.9820  -21.9030   20.6050 C   0  0  0  0  0  0  0  0  0  0  0  0
  -29.2950  -20.4430   20.2500 C   0  0  0  0  0  0  0  0  0  0  0  0
  -31.3780  -22.3340   20.3050 C   0  0  0  0  0  0  0  0  0  0  0  0
  -30.5240  -20.3390   19.5270 C   0  0  0  0  0  0  0  0  0  0  0  0
  -31.5640  -21.1810   19.6600 N   0  0  0  0  0  0  0  0  0  0  0  0
  -32.7280  -24.2070   19.2540 C   0  0  0  0  0  1  0  0  0  0  0  0
  -32.5850  -23.2440   20.4390 C   0  0  0  0  0  2  0  0  0  0  0  0
  -31.0800  -20.0560   17.0450 C   0  0  0  0  0  1  0  0  0  0  0  0
  -30.7350  -19.3610   18.3740 C   0  0  0  0  0  2  0  0  0  0  0  0
  -27.6380  -22.8270   20.7620 C   0  0  0  0  0  2  0  0  0  0  0  0
  -27.5490  -24.4700   21.2640 C   0  0  0  0  0  2  0  0  0  0  0  0
  -27.8950  -25.8690   20.6330 O   0  0  0  0  0  0  0  0  0  0  0  0
  -24.6480  -31.9260   23.4050 C   0  0  0  0  0  0  0  0  0  0  0  0
  -26.9150  -26.9330   20.5640 C   0  0  0  0  0  0  0  0  0  0  0  0
  -23.3600  -30.5460   21.8210 C   0  0  0  0  0  3  0  0  0  0  0  0
  -24.7050  -28.8300   20.4570 C   0  0  0  0  0  0  0  0  0  0  0  0
  -25.9260  -30.6420   21.6470 C   0  0  0  0  0  2  0  0  0  0  0  0
  -25.9120  -29.2220   21.0510 C   0  0  0  0  0  0  0  0  0  0  0  0
  -27.0210  -28.2900   21.0840 C   0  0  0  0  0  3  0  0  0  0  0  0
  -25.6920  -26.6550   19.9150 C   0  0  0  0  0  3  0  0  0  0  0  0
  -24.6090  -27.5600   19.8700 C   0  0  0  0  0  3  0  0  0  0  0  0
  -23.5360  -29.8040   20.4690 C   0  0  0  0  0  2  0  0  0  0  0  0
  -24.6660  -31.0610   22.3450 N   0  0  0  0  0  0  0  0  0  0  0  0
  -23.5830  -32.2970   23.9220 O   0  0  0  0  0  0  0  0  0  0  0  0
  -22.6220  -29.6200   22.8210 C   0  0  0  0  0  0  0  0  0  0  0  0
  -21.3050  -29.4310   22.6270 N   0  0  0  0  0  0  0  0  0  0  0  0
  -23.2400  -29.0720   23.7370 O   0  0  0  0  0  0  0  0  0  0  0  0
  -20.8640  -29.9230   21.8630 H   0  0  0  0  0  0  0  0  0  0  0  0
  -17.9200  -28.1810   22.9600 C   0  0  0  0  0  0  0  0  0  0  0  0
  -20.4360  -28.5570   23.4210 C   0  0  0  0  0  3  0  0  0  0  0  0
  -20.6220  -27.0740   23.0250 C   0  0  0  0  0  2  0  0  0  0  0  0
  -19.6270  -26.6050   21.9600 C   0  0  0  0  0  2  0  0  0  0  0  0
  -18.1890  -26.7720   22.4580 C   0  0  0  0  0  2  0  0  0  0  0  0
  -18.9750  -29.0240   23.3980 C   0  0  0  0  0  0  0  0  0  0  0  0
  -18.6720  -30.3350   23.8250 C   0  0  0  0  0  3  0  0  0  0  0  0
  -17.3450  -30.8050   23.8190 C   0  0  0  0  0  3  0  0  0  0  0  0
  -16.3020  -29.9620   23.3980 C   0  0  0  0  0  3  0  0  0  0  0  0
  -16.5900  -28.6510   22.9740 C   0  0  0  0  0  3  0  0  0  0  0  0
  -25.9640  -32.5050   24.0070 C   0  0  0  0  0  3  0  0  0  0  0  0
  -25.7170  -33.9150   24.3520 N   0  0  0  0  0  0  0  0  0  0  0  0
  -26.0890  -34.9620   23.6050 C   0  0  0  0  0  0  0  0  0  0  0  0
  -26.7450  -34.8410   22.5660 O   0  0  0  0  0  0  0  0  0  0  0  0
  -25.1350  -34.0840   25.1580 H   0  0  0  0  0  0  0  0  0  0  0  0
  -24.4400  -36.8380   23.2960 C   0  0  0  0  0  1  0  0  0  0  0  0
  -25.6720  -36.3670   24.0840 C   0  0  0  0  0  3  0  0  0  0  0  0
  -27.8490  -37.1570   24.9030 C   0  0  0  0  0  1  0  0  0  0  0  0
  -26.7500  -37.3740   23.9670 N   0  0  0  0  0  0  0  0  0  0  0  0
  -26.3860  -38.3110   24.1180 H   0  0  0  0  0  0  0  0  0  0  0  0
  -26.4690  -31.7110   25.2740 C   0  0  1  0  0  0  0  0  0  0  0  0
  -25.3770  -31.4920   26.3470 C   0  0  0  0  0  1  0  0  0  0  0  0
  -27.0140  -30.3200   24.8710 C   0  0  0  0  0  1  0  0  0  0  0  0
  -27.6450  -32.4690   25.9330 C   0  0  0  0  0  1  0  0  0  0  0  0
  -28.6000  -18.9470   20.5270 C   0  0  0  0  0  2  0  0  0  0  0  0
  -29.5210  -17.4890   20.6670 C   0  0  0  0  0  2  0  0  0  0  0  0
  -29.9190  -14.8060   20.1730 C   0  0  0  0  0  0  0  0  0  0  0  0
  -29.8440  -12.5030   19.0970 C   0  0  0  0  0  2  0  0  0  0  0  0
  -28.8170  -12.4480   17.9440 C   0  0  0  0  0  2  0  0  0  0  0  0
  -27.4140  -12.1150   18.4830 C   0  0  0  0  0  2  0  0  0  0  0  0
  -27.0490  -12.9540   19.7350 C   0  0  0  0  0  3  0  0  0  0  0  0
  -28.1920  -12.9930   20.7710 C   0  0  0  0  0  2  0  0  0  0  0  0
  -29.3720  -13.5240   20.0780 N   0  0  0  0  0  0  0  0  0  0  0  0
  -31.1020  -14.9260   19.8370 O   0  0  0  0  0  0  0  0  0  0  0  0
  -29.1240  -15.9650   20.4430 N   0  0  0  0  0  0  0  0  0  0  0  0
  -28.1510  -15.7590   20.6100 H   0  0  0  0  0  0  0  0  0  0  0  0
  -24.6900  -13.3270   20.6510 C   0  0  0  0  0  0  0  0  0  0  0  0
  -23.7200  -12.4640   21.0790 C   0  0  0  0  0  0  0  0  0  0  0  0
  -24.2880  -11.1560   20.9940 C   0  0  0  0  0  0  0  0  0  0  0  0
  -25.7800  -12.5400   20.3230 N   0  0  0  0  0  0  0  0  0  0  0  0
  -25.5550  -11.2280   20.5970 N   0  0  0  0  0  0  0  0  0  0  0  0
  -23.6800   -9.8360   21.2100 C   0  0  0  0  0  0  0  0  0  0  0  0
  -24.1890   -8.9350   22.1690 C   0  0  0  0  0  3  0  0  0  0  0  0
  -23.5730   -7.6810   22.3730 C   0  0  0  0  0  3  0  0  0  0  0  0
  -22.4320   -7.3200   21.6170 C   0  0  0  0  0  0  0  0  0  0  0  0
  -21.9420   -8.2120   20.6480 C   0  0  0  0  0  3  0  0  0  0  0  0
  -22.5600   -9.4570   20.4430 C   0  0  0  0  0  3  0  0  0  0  0  0
  -21.7830   -6.1140   21.7290 O   0  0  0  0  0  0  0  0  0  0  0  0
  -21.7500   -5.4200   22.9120 C   0  0  0  0  0  0  0  0  0  0  0  0
  -21.1440   -5.9530   24.0700 C   0  0  0  0  0  3  0  0  0  0  0  0
  -21.0710   -5.1780   25.2450 C   0  0  0  0  0  3  0  0  0  0  0  0
  -21.5950   -3.8730   25.2630 C   0  0  0  0  0  0  0  0  0  0  0  0
  -22.1960   -3.3400   24.1090 C   0  0  0  0  0  3  0  0  0  0  0  0
  -22.2700   -4.1110   22.9360 C   0  0  0  0  0  0  0  0  0  0  0  0
  -22.8310   -3.5850   21.8200 F   0  0  0  0  0  0  0  0  0  0  0  0
  -21.5190   -3.1250   26.3890 F   0  0  0  0  0  0  0  0  0  0  0  0
  -22.3110  -12.8230   21.4490 C   0  0  0  0  0  0  0  0  0  0  0  0
  -21.6970  -12.0570   22.3430 N   0  0  0  0  0  0  0  0  0  0  0  0
  -21.7620  -13.8210   20.9810 O   0  0  0  0  0  0  0  0  0  0  0  0
  -22.1560  -11.2500   22.7420 H   0  0  0  0  0  0  0  0  0  0  0  0
  -20.7550  -12.2800   22.6340 H   0  0  0  0  0  0  0  0  0  0  0  0
  -24.7290  -14.7090   20.4850 N   0  0  0  0  0  0  0  0  0  0  0  0
  -23.9170  -15.2920   20.6530 H   0  0  0  0  0  0  0  0  0  0  0  0
  -25.5020  -15.2180   20.0780 H   0  0  0  0  0  0  0  0  0  0  0  0
  2  1  1  0
  2 11  1  0
  3 54  1  0
  3  2  2  0
  4  8  1  0
  4  1  2  0
  5  6  2  0
  5  3  1  0
  6  4  1  0
  7  8  1  0
  9 10  1  0
 10  5  1  0
 11 12  1  0
 13 12  1  0
 14 25  2  0
 15 13  1  0
 15 20  1  0
 16 24  1  0
 16 26  1  0
 17 23  1  0
 17 19  1  0
 18 24  1  0
 19 20  2  0
 19 18  1  0
 21 15  2  0
 22 21  1  0
 22 17  2  0
 23 16  1  0
 24 14  1  0
 26 28  2  0
 27 26  1  0
 29 27  1  0
 30 39  2  0
 30 35  1  0
 31 27  1  0
 32 31  1  0
 33 34  1  0
 33 32  1  0
 34 30  1  0
 35 31  1  0
 35 36  2  0
 37 36  1  0
 38 37  2  0
 39 38  1  0
 40 14  1  0
 40 41  1  0
 40 50  1  0
 41 44  1  0
 42 46  1  0
 42 41  1  0
 43 42  2  0
 46 45  1  0
 48 46  1  0
 48 49  1  0
 48 47  1  0
 50 53  1  1
 50 51  1  0
 52 50  1  0
 54 55  1  0
 56 64  1  0
 57 62  1  0
 58 59  1  0
 58 57  1  0
 60 59  1  0
 60 69  1  0
 60 61  1  0
 62 56  1  0
 62 61  1  0
 63 56  2  0
 64 65  1  0
 64 55  1  0
 66 67  2  0
 67 86  1  0
 68 67  1  0
 68 71  1  0
 69 70  1  0
 69 66  1  0
 70 68  2  0
 71 72  1  0
 72 73  2  0
 74 77  1  0
 74 73  1  0
 75 74  2  0
 76 75  1  0
 76 71  2  0
 77 78  1  0
 78 83  2  0
 78 79  1  0
 79 80  2  0
 80 81  1  0
 81 85  1  0
 82 81  2  0
 83 82  1  0
 84 83  1  0
 86 87  1  0
 87 90  1  0
 87 89  1  0
 88 86  2  0
 91 66  1  0
 91 92  1  0
 93 91  1  0
M  ISO  4  12 101  13 101  56 100  64 100
M  END
>  <TORSDO>  (88) 
F 22

>  <SCORE>  (88) 
-12.927

>  <name>  (88) 
87

>  <ligand_id>  (88) 
87

>  <original_smiles>  (88) 
[H]c1c([H])c([H])c2c(c1[H])C([H])([H])C([H])([H])C([H])([H])C2([H])N([H])C(=O)C1([H])N(C(=O)C([H])(N([H])C(=O)C([H])(N([H])C([H])([H])[H])C([H])([H])[H])C(C([H])([H])[H])(C([H])([H])[H])C([H])([H])[H])C([H])([H])c2c([H])c(OC([H])([H])C([H])([H])c3c([H])c(C([H])([H])C([H])([H])[H])nc(C([H])([H])C([H])([H])[H])c3C([H])([H])C([H])([H])N([H])C(=O)N3C([H])([H])C([H])([H])C([H])([H])C([H])(n4nc(-c5c([H])c([H])c(Oc6c([H])c([H])c(F)c([H])c6F)c([H])c5[H])c(C(=O)N([H])[H])c4N([H])[H])C3([H])[H])c([H])c([H])c2C1([H])[H]

>  <smiles>  (88) 
[H]c1c([H])c([H])c2c(c1[H])C([H])([H])C([H])([H])C([H])([H])C2([H])N([H])C(=O)C1([H])N(C(=O)C([H])(N([H])C(=O)C([H])(N([H])C([H])([H])[H])C([H])([H])[H])C(C([H])([H])[H])(C([H])([H])[H])C([H])([H])[H])C([H])([H])c2c([H])c(OC([H])([H])C([H])([H])c3c([H])c(C([H])([H])C([H])([H])[H])nc(C([H])([H])C([H])([H])[H])c3C([H])([H])C([H])([H])N([H])C(=O)N3C([H])([H])C([H])([H])C([H])([H])C([H])(n4nc(-c5c([H])c([H])c(Oc6c([H])c([H])c(F)c([H])c6F)c([H])c5[H])c(C(=O)N([H])[H])c4N([H])[H])C3([H])[H])c([H])c([H])c2C1([H])[H]

$$$$
88:0:0
     RDKit          3D

 97105  0  0  1  0  0  0  0  0999 V2000
  -30.0160  -21.3570   19.2550 C   0  0  0  0  0  3  0  0  0  0  0  0
  -29.9440  -19.8550   20.8640 C   0  0  0  0  0  3  0  0  0  0  0  0
  -29.6190  -20.1850   18.6510 C   0  0  0  0  0  0  0  0  0  0  0  0
  -29.5620  -19.1910   19.7220 C   0  0  0  0  0  0  0  0  0  0  0  0
  -30.2050  -21.1710   20.5960 N   0  0  0  0  0  0  0  0  0  0  0  0
  -30.2450  -19.0950   16.4330 C   0  0  0  0  0  1  0  0  0  0  0  0
  -29.6880  -21.4930   16.4630 C   0  0  0  0  0  1  0  0  0  0  0  0
  -27.8390  -19.9140   16.8100 C   0  0  0  0  0  1  0  0  0  0  0  0
  -29.3370  -20.1350   17.1270 C   0  0  2  0  0  0  0  0  0  0  0  0
  -28.3140  -17.2080   18.6420 C   0  0  0  0  0  1  0  0  0  0  0  0
  -28.3540  -17.4250   21.0710 C   0  0  0  0  0  1  0  0  0  0  0  0
  -29.1970  -17.6890   19.7950 C   0  0  2  0  0  0  0  0  0  0  0  0
  -30.4940  -16.8280   19.8720 C   0  0  0  0  0  2  0  0  0  0  0  0
  -30.9670  -14.3760   19.8770 C   0  0  0  0  0  0  0  0  0  0  0  0
  -30.6680  -12.1090   18.9770 C   0  0  0  0  0  2  0  0  0  0  0  0
  -29.6840  -12.1830   17.7920 C   0  0  0  0  0  2  0  0  0  0  0  0
  -28.2320  -12.0530   18.2930 C   0  0  0  0  0  2  0  0  0  0  0  0
  -27.9150  -13.0100   19.4720 C   0  0  0  0  0  3  0  0  0  0  0  0
  -29.0140  -12.9290   20.5580 C   0  0  0  0  0  2  0  0  0  0  0  0
  -30.3180  -13.1840   19.9150 N   0  0  0  0  0  0  0  0  0  0  0  0
  -32.0700  -14.5300   19.3470 O   0  0  0  0  0  0  0  0  0  0  0  0
  -30.2430  -15.4320   20.2720 N   0  0  0  0  0  0  0  0  0  0  0  0
  -29.3520  -15.2340   20.6960 H   0  0  0  0  0  0  0  0  0  0  0  0
  -25.5560  -13.6660   20.2900 C   0  0  0  0  0  0  0  0  0  0  0  0
  -24.5050  -12.9140   20.7330 C   0  0  0  0  0  0  0  0  0  0  0  0
  -24.9540  -11.5590   20.7050 C   0  0  0  0  0  0  0  0  0  0  0  0
  -26.5840  -12.7720   20.0260 N   0  0  0  0  0  0  0  0  0  0  0  0
  -26.2260  -11.4990   20.3340 N   0  0  0  0  0  0  0  0  0  0  0  0
  -24.2280  -10.3110   20.9580 C   0  0  0  0  0  0  0  0  0  0  0  0
  -24.6160   -9.4270   21.9880 C   0  0  0  0  0  3  0  0  0  0  0  0
  -23.8870   -8.2410   22.2200 C   0  0  0  0  0  3  0  0  0  0  0  0
  -22.7590   -7.9340   21.4230 C   0  0  0  0  0  0  0  0  0  0  0  0
  -22.3930   -8.8080   20.3850 C   0  0  0  0  0  3  0  0  0  0  0  0
  -23.1210   -9.9840   20.1500 C   0  0  0  0  0  3  0  0  0  0  0  0
  -22.0090   -6.7910   21.5600 O   0  0  0  0  0  0  0  0  0  0  0  0
  -21.8000   -6.2100   22.7850 C   0  0  0  0  0  0  0  0  0  0  0  0
  -21.1640   -6.9020   23.8380 C   0  0  0  0  0  3  0  0  0  0  0  0
  -20.9060   -6.2440   25.0570 C   0  0  0  0  0  3  0  0  0  0  0  0
  -21.2780   -4.8970   25.2230 C   0  0  0  0  0  0  0  0  0  0  0  0
  -21.9070   -4.2050   24.1740 C   0  0  0  0  0  3  0  0  0  0  0  0
  -22.1650   -4.8600   22.9560 C   0  0  0  0  0  0  0  0  0  0  0  0
  -22.7530   -4.1830   21.9410 F   0  0  0  0  0  0  0  0  0  0  0  0
  -21.0230   -4.2610   26.3910 F   0  0  0  0  0  0  0  0  0  0  0  0
  -23.1290  -13.4150   21.0650 C   0  0  0  0  0  0  0  0  0  0  0  0
  -22.4450  -12.7570   21.9940 N   0  0  0  0  0  0  0  0  0  0  0  0
  -22.6720  -14.4300   20.5390 O   0  0  0  0  0  0  0  0  0  0  0  0
  -22.8290  -11.9380   22.4420 H   0  0  0  0  0  0  0  0  0  0  0  0
  -21.5250  -13.0790   22.2640 H   0  0  0  0  0  0  0  0  0  0  0  0
  -25.6900  -15.0300   20.0750 N   0  0  0  0  0  0  0  0  0  0  0  0
  -24.9100  -15.6590   20.2250 H   0  0  0  0  0  0  0  0  0  0  0  0
  -26.4900  -15.4840   19.6600 H   0  0  0  0  0  0  0  0  0  0  0  0
  -30.6310  -22.1690   21.5630 C   0  0  0  0  0  2  0  0  0  0  0  0
  -29.5470  -23.2170   21.8760 C   0  0  0  0  0  2  0  0  0  0  0  0
  -29.5660  -24.4770   20.9810 C   0  0  0  0  0  2  0  0  0  0  0  0
  -28.7360  -26.1110   22.7820 C   0  0  0  0  0  1  0  0  0  0  0  0
  -28.5100  -25.5340   21.3690 C   0  0  0  0  0  3  0  0  0  0  0  0
  -28.5620  -26.6010   20.4120 O   0  0  0  0  0  0  0  0  0  0  0  0
  -24.7420  -31.8190   23.3420 C   0  0  0  0  0  0  0  0  0  0  0  0
  -27.4210  -27.3610   20.3590 C   0  0  0  0  0  0  0  0  0  0  0  0
  -23.5730  -30.4460   21.6460 C   0  0  0  0  0  3  0  0  0  0  0  0
  -25.0500  -28.8860   20.2740 C   0  0  0  0  0  0  0  0  0  0  0  0
  -26.1070  -30.7680   21.5440 C   0  0  0  0  0  2  0  0  0  0  0  0
  -26.1920  -29.3990   20.9030 C   0  0  0  0  0  0  0  0  0  0  0  0
  -27.3830  -28.6470   20.9340 C   0  0  0  0  0  3  0  0  0  0  0  0
  -26.2690  -26.8490   19.7260 C   0  0  0  0  0  3  0  0  0  0  0  0
  -25.0820  -27.6080   19.6820 C   0  0  0  0  0  3  0  0  0  0  0  0
  -23.8180  -29.7620   20.2740 C   0  0  0  0  0  2  0  0  0  0  0  0
  -24.8240  -31.0240   22.2380 N   0  0  0  0  0  0  0  0  0  0  0  0
  -23.6460  -32.1100   23.8420 O   0  0  0  0  0  0  0  0  0  0  0  0
  -22.8640  -29.4370   22.5790 C   0  0  0  0  0  0  0  0  0  0  0  0
  -21.5370  -29.3130   22.4210 N   0  0  0  0  0  0  0  0  0  0  0  0
  -23.5080  -28.7700   23.3920 O   0  0  0  0  0  0  0  0  0  0  0  0
  -21.0860  -29.8990   21.7320 H   0  0  0  0  0  0  0  0  0  0  0  0
  -18.0980  -28.3050   22.8850 C   0  0  0  0  0  0  0  0  0  0  0  0
  -20.6650  -28.3980   23.1590 C   0  0  0  0  0  3  0  0  0  0  0  0
  -20.6830  -26.9880   22.5260 C   0  0  0  0  0  2  0  0  0  0  0  0
  -19.5640  -26.7720   21.5050 C   0  0  0  0  0  2  0  0  0  0  0  0
  -18.1930  -26.9750   22.1570 C   0  0  0  0  0  2  0  0  0  0  0  0
  -19.2600  -28.9820   23.3410 C   0  0  0  0  0  0  0  0  0  0  0  0
  -19.1210  -30.2340   23.9770 C   0  0  0  0  0  3  0  0  0  0  0  0
  -17.8490  -30.8070   24.1640 C   0  0  0  0  0  3  0  0  0  0  0  0
  -16.6990  -30.1270   23.7250 C   0  0  0  0  0  3  0  0  0  0  0  0
  -16.8240  -28.8780   23.0920 C   0  0  0  0  0  3  0  0  0  0  0  0
  -26.0170  -32.4180   24.0160 C   0  0  0  0  0  3  0  0  0  0  0  0
  -25.7250  -33.8210   24.3390 N   0  0  0  0  0  0  0  0  0  0  0  0
  -26.1000  -34.8690   23.5920 C   0  0  0  0  0  0  0  0  0  0  0  0
  -26.7990  -34.7570   22.5810 O   0  0  0  0  0  0  0  0  0  0  0  0
  -25.1010  -33.9840   25.1160 H   0  0  0  0  0  0  0  0  0  0  0  0
  -24.4100  -36.6910   23.1980 C   0  0  0  0  0  1  0  0  0  0  0  0
  -25.6220  -36.2650   24.0390 C   0  0  0  0  0  3  0  0  0  0  0  0
  -27.7430  -37.1170   24.9340 C   0  0  0  0  0  1  0  0  0  0  0  0
  -26.6740  -37.3010   23.9560 N   0  0  0  0  0  0  0  0  0  0  0  0
  -26.2790  -38.2290   24.0840 H   0  0  0  0  0  0  0  0  0  0  0  0
  -26.4710  -31.6290   25.3040 C   0  0  1  0  0  0  0  0  0  0  0  0
  -25.3330  -31.4000   26.3260 C   0  0  0  0  0  1  0  0  0  0  0  0
  -27.0470  -30.2440   24.9240 C   0  0  0  0  0  1  0  0  0  0  0  0
  -27.6070  -32.4000   26.0160 C   0  0  0  0  0  1  0  0  0  0  0  0
  1  5  1  0
  3  1  2  0
  3  4  1  0
  4 12  1  0
  4  2  2  0
  5  2  1  0
  5 52  1  0
  9  6  1  6
  7  9  1  0
  8  9  1  0
  9  3  1  0
 12 10  1  6
 12 13  1  0
 12 11  1  0
 13 22  1  0
 14 20  1  0
 14 22  1  0
 15 20  1  0
 16 17  1  0
 16 15  1  0
 18 17  1  0
 18 27  1  0
 18 19  1  0
 20 19  1  0
 21 14  2  0
 22 23  1  0
 24 25  2  0
 25 44  1  0
 26 25  1  0
 26 29  1  0
 27 24  1  0
 27 28  1  0
 28 26  2  0
 29 30  1  0
 30 31  2  0
 32 35  1  0
 32 31  1  0
 33 32  2  0
 34 33  1  0
 34 29  2  0
 35 36  1  0
 36 41  2  0
 36 37  1  0
 37 38  2  0
 38 39  1  0
 39 43  1  0
 40 39  2  0
 41 40  1  0
 42 41  1  0
 44 45  1  0
 45 48  1  0
 45 47  1  0
 46 44  2  0
 49 50  1  0
 49 24  1  0
 51 49  1  0
 52 53  1  0
 54 56  1  0
 54 53  1  0
 56 55  1  0
 57 56  1  0
 58 69  2  0
 59 57  1  0
 59 64  1  0
 60 68  1  0
 60 70  1  0
 61 63  1  0
 62 68  1  0
 63 64  2  0
 63 62  1  0
 65 59  2  0
 66 65  1  0
 66 61  2  0
 67 61  1  0
 67 60  1  0
 68 58  1  0
 70 72  2  0
 71 70  1  0
 73 71  1  0
 74 83  2  0
 74 79  1  0
 75 71  1  0
 75 79  1  0
 76 75  1  0
 77 78  1  0
 77 76  1  0
 78 74  1  0
 79 80  2  0
 80 81  1  0
 82 81  2  0
 83 82  1  0
 84 58  1  0
 84 85  1  0
 84 94  1  0
 85 88  1  0
 86 90  1  0
 86 85  1  0
 87 86  2  0
 90 89  1  0
 92 90  1  0
 92 93  1  0
 92 91  1  0
 94 97  1  1
 94 95  1  0
 96 94  1  0
M  ISO  4  14 100  22 100  56 101  57 101
M  END
>  <TORSDO>  (89) 
F 23

>  <SCORE>  (89) 
-12.070

>  <name>  (89) 
88

>  <ligand_id>  (89) 
88

>  <original_smiles>  (89) 
[H]c1c([H])c([H])c2c(c1[H])C([H])([H])C([H])([H])C([H])([H])C2([H])N([H])C(=O)C1([H])N(C(=O)C([H])(N([H])C(=O)C([H])(N([H])C([H])([H])[H])C([H])([H])[H])C(C([H])([H])[H])(C([H])([H])[H])C([H])([H])[H])C([H])([H])c2c([H])c(OC([H])(C([H])([H])[H])C([H])([H])C([H])([H])C([H])([H])n3c([H])c(C(C([H])([H])[H])(C([H])([H])[H])C([H])([H])[H])c(C(C([H])([H])[H])(C([H])([H])[H])C([H])([H])N([H])C(=O)N4C([H])([H])C([H])([H])C([H])([H])C([H])(n5nc(-c6c([H])c([H])c(Oc7c([H])c([H])c(F)c([H])c7F)c([H])c6[H])c(C(=O)N([H])[H])c5N([H])[H])C4([H])[H])c3[H])c([H])c([H])c2C1([H])[H]

>  <smiles>  (89) 
[H]c1c([H])c([H])c2c(c1[H])C([H])([H])C([H])([H])C([H])([H])C2([H])N([H])C(=O)C1([H])N(C(=O)C([H])(N([H])C(=O)C([H])(N([H])C([H])([H])[H])C([H])([H])[H])C(C([H])([H])[H])(C([H])([H])[H])C([H])([H])[H])C([H])([H])c2c([H])c(OC([H])(C([H])([H])[H])C([H])([H])C([H])([H])C([H])([H])n3c([H])c(C(C([H])([H])[H])(C([H])([H])[H])C([H])([H])[H])c(C(C([H])([H])[H])(C([H])([H])[H])C([H])([H])N([H])C(=O)N4C([H])([H])C([H])([H])C([H])([H])C([H])(n5nc(-c6c([H])c([H])c(Oc7c([H])c([H])c(F)c([H])c7F)c([H])c6[H])c(C(=O)N([H])[H])c5N([H])[H])C4([H])[H])c3[H])c([H])c([H])c2C1([H])[H]

$$$$
89:0:0
     RDKit          3D

 91 99  0  0  1  0  0  0  0  0999 V2000
  -29.8780  -21.0110   21.5450 C   0  0  0  0  0  3  0  0  0  0  0  0
  -29.1450  -20.6350   20.4480 C   0  0  0  0  0  0  0  0  0  0  0  0
  -29.7580  -19.2540   20.1500 C   0  0  0  0  0  0  0  0  0  0  0  0
  -30.6870  -18.9870   21.0610 N   0  0  0  0  0  0  0  0  0  0  0  0
  -30.7800  -20.0390   21.8810 N   0  0  0  0  0  0  0  0  0  0  0  0
  -33.1730  -19.9860   22.6320 C   0  0  0  0  0  1  0  0  0  0  0  0
  -31.6850  -20.0160   23.0220 C   0  0  0  0  0  2  0  0  0  0  0  0
  -28.5160  -18.1660   18.1790 C   0  0  0  0  0  1  0  0  0  0  0  0
  -29.6960  -17.9710   19.1390 C   0  0  0  0  0  3  0  0  0  0  0  0
  -30.4930  -15.3590   19.5780 C   0  0  0  0  0  0  0  0  0  0  0  0
  -30.4880  -12.9160   18.9140 C   0  0  0  0  0  2  0  0  0  0  0  0
  -29.4800  -12.6940   17.7620 C   0  0  0  0  0  2  0  0  0  0  0  0
  -28.0680  -12.4370   18.3190 C   0  0  0  0  0  2  0  0  0  0  0  0
  -27.6780  -13.4470   19.4300 C   0  0  0  0  0  3  0  0  0  0  0  0
  -28.8030  -13.6420   20.4690 C   0  0  0  0  0  2  0  0  0  0  0  0
  -30.0010  -14.0650   19.7330 N   0  0  0  0  0  0  0  0  0  0  0  0
  -31.6470  -15.4770   19.1520 O   0  0  0  0  0  0  0  0  0  0  0  0
  -29.6380  -16.4860   19.6850 N   0  0  0  0  0  0  0  0  0  0  0  0
  -28.7520  -16.2810   20.1220 H   0  0  0  0  0  0  0  0  0  0  0  0
  -25.4020  -13.9650   20.4820 C   0  0  0  0  0  0  0  0  0  0  0  0
  -24.3820  -13.1630   20.9120 C   0  0  0  0  0  0  0  0  0  0  0  0
  -24.8280  -11.8190   20.7220 C   0  0  0  0  0  0  0  0  0  0  0  0
  -26.4040  -13.1100   20.0550 N   0  0  0  0  0  0  0  0  0  0  0  0
  -26.0740  -11.8080   20.2620 N   0  0  0  0  0  0  0  0  0  0  0  0
  -24.1160  -10.5460   20.8980 C   0  0  0  0  0  0  0  0  0  0  0  0
  -24.4950   -9.6180   21.8920 C   0  0  0  0  0  3  0  0  0  0  0  0
  -23.7810   -8.4110   22.0540 C   0  0  0  0  0  3  0  0  0  0  0  0
  -22.6760   -8.1220   21.2190 C   0  0  0  0  0  0  0  0  0  0  0  0
  -22.3180   -9.0380   20.2140 C   0  0  0  0  0  3  0  0  0  0  0  0
  -23.0320  -10.2370   20.0510 C   0  0  0  0  0  3  0  0  0  0  0  0
  -21.9400   -6.9630   21.2860 O   0  0  0  0  0  0  0  0  0  0  0  0
  -21.6110   -6.3880   22.4870 C   0  0  0  0  0  0  0  0  0  0  0  0
  -20.8260   -7.0640   23.4460 C   0  0  0  0  0  3  0  0  0  0  0  0
  -20.4520   -6.4100   24.6370 C   0  0  0  0  0  3  0  0  0  0  0  0
  -20.8550   -5.0810   24.8670 C   0  0  0  0  0  0  0  0  0  0  0  0
  -21.6320   -4.4040   23.9100 C   0  0  0  0  0  3  0  0  0  0  0  0
  -22.0060   -5.0560   22.7220 C   0  0  0  0  0  0  0  0  0  0  0  0
  -22.7370   -4.3920   21.7950 F   0  0  0  0  0  0  0  0  0  0  0  0
  -20.4890   -4.4490   26.0080 F   0  0  0  0  0  0  0  0  0  0  0  0
  -23.0290  -13.6180   21.3790 C   0  0  0  0  0  0  0  0  0  0  0  0
  -22.4140  -12.8740   22.2910 N   0  0  0  0  0  0  0  0  0  0  0  0
  -22.5330  -14.6670   20.9720 O   0  0  0  0  0  0  0  0  0  0  0  0
  -22.8330  -12.0240   22.6400 H   0  0  0  0  0  0  0  0  0  0  0  0
  -21.5130  -13.1580   22.6460 H   0  0  0  0  0  0  0  0  0  0  0  0
  -25.5540  -15.3460   20.3920 N   0  0  0  0  0  0  0  0  0  0  0  0
  -24.8110  -15.9870   20.6470 H   0  0  0  0  0  0  0  0  0  0  0  0
  -26.3590  -15.8140   19.9960 H   0  0  0  0  0  0  0  0  0  0  0  0
  -27.9630  -21.6980   20.0030 C   0  0  0  0  0  2  0  0  0  0  0  0
  -28.1880  -23.3800   19.8470 C   0  0  0  0  0  3  0  0  0  0  0  0
  -27.0520  -24.5330   19.3620 C   0  0  0  0  0  3  0  0  0  0  0  0
  -27.2720  -26.0430   19.0110 O   0  0  0  0  0  0  0  0  0  0  0  0
  -24.7350  -31.6260   23.0870 C   0  0  0  0  0  0  0  0  0  0  0  0
  -26.2990  -27.0960   19.1980 C   0  0  0  0  0  0  0  0  0  0  0  0
  -23.1400  -30.4940   21.5870 C   0  0  0  0  0  3  0  0  0  0  0  0
  -24.1620  -28.9910   19.7690 C   0  0  0  0  0  0  0  0  0  0  0  0
  -25.6330  -30.6030   20.9640 C   0  0  0  0  0  2  0  0  0  0  0  0
  -25.4660  -29.2860   20.1850 C   0  0  0  0  0  0  0  0  0  0  0  0
  -26.5300  -28.3540   19.8910 C   0  0  0  0  0  3  0  0  0  0  0  0
  -24.9750  -26.9220   18.7360 C   0  0  0  0  0  3  0  0  0  0  0  0
  -23.9290  -27.8240   19.0270 C   0  0  0  0  0  3  0  0  0  0  0  0
  -23.0450  -29.9560   20.1340 C   0  0  0  0  0  2  0  0  0  0  0  0
  -24.5340  -30.9220   21.9310 N   0  0  0  0  0  0  0  0  0  0  0  0
  -23.7930  -31.9240   23.8360 O   0  0  0  0  0  0  0  0  0  0  0  0
  -22.5670  -29.4370   22.5650 C   0  0  0  0  0  0  0  0  0  0  0  0
  -21.2530  -29.1680   22.4750 N   0  0  0  0  0  0  0  0  0  0  0  0
  -23.3070  -28.8630   23.3680 O   0  0  0  0  0  0  0  0  0  0  0  0
  -20.7080  -29.6860   21.8000 H   0  0  0  0  0  0  0  0  0  0  0  0
  -18.0640  -27.4920   22.8570 C   0  0  0  0  0  0  0  0  0  0  0  0
  -20.5260  -28.1720   23.2670 C   0  0  0  0  0  3  0  0  0  0  0  0
  -20.8860  -26.7360   22.8230 C   0  0  0  0  0  2  0  0  0  0  0  0
  -19.9280  -26.1700   21.7690 C   0  0  0  0  0  2  0  0  0  0  0  0
  -18.4940  -26.1430   22.3080 C   0  0  0  0  0  2  0  0  0  0  0  0
  -19.0180  -28.4510   23.2930 C   0  0  0  0  0  0  0  0  0  0  0  0
  -18.5630  -29.7020   23.7640 C   0  0  0  0  0  3  0  0  0  0  0  0
  -17.1880  -30.0000   23.8050 C   0  0  0  0  0  3  0  0  0  0  0  0
  -16.2480  -29.0420   23.3860 C   0  0  0  0  0  3  0  0  0  0  0  0
  -16.6860  -27.7910   22.9160 C   0  0  0  0  0  3  0  0  0  0  0  0
  -26.1560  -32.1060   23.5140 C   0  0  0  0  0  3  0  0  0  0  0  0
  -26.0180  -33.4500   24.0960 N   0  0  0  0  0  0  0  0  0  0  0  0
  -26.4100  -34.5850   23.5030 C   0  0  0  0  0  0  0  0  0  0  0  0
  -26.9940  -34.6020   22.4160 O   0  0  0  0  0  0  0  0  0  0  0  0
  -25.4980  -33.5160   24.9600 H   0  0  0  0  0  0  0  0  0  0  0  0
  -24.8920  -36.5900   23.5850 C   0  0  0  0  0  1  0  0  0  0  0  0
  -26.1120  -35.9110   24.2290 C   0  0  0  0  0  3  0  0  0  0  0  0
  -28.3640  -36.4020   25.0750 C   0  0  0  0  0  1  0  0  0  0  0  0
  -27.2550  -36.8500   24.2370 N   0  0  0  0  0  0  0  0  0  0  0  0
  -26.9650  -37.7690   24.5610 H   0  0  0  0  0  0  0  0  0  0  0  0
  -26.8570  -31.1320   24.5400 C   0  0  1  0  0  0  0  0  0  0  0  0
  -25.9790  -30.7800   25.7630 C   0  0  0  0  0  1  0  0  0  0  0  0
  -27.2580  -29.8060   23.8530 C   0  0  0  0  0  1  0  0  0  0  0  0
  -28.1670  -31.7710   25.0570 C   0  0  0  0  0  1  0  0  0  0  0  0
  1  5  1  0
  2  1  2  0
  3  2  1  0
  3  4  2  0
  4  5  1  0
  5  7  1  0
  6  7  1  0
  9  8  1  0
  9 18  1  0
  9  3  1  0
 10 18  1  0
 10 16  1  0
 11 16  1  0
 12 13  1  0
 12 11  1  0
 14 13  1  0
 14 23  1  0
 14 15  1  0
 16 15  1  0
 17 10  2  0
 18 19  1  0
 20 21  2  0
 21 40  1  0
 22 25  1  0
 22 21  1  0
 23 24  1  0
 23 20  1  0
 24 22  2  0
 25 26  1  0
 26 27  2  0
 28 31  1  0
 28 27  1  0
 29 28  2  0
 30 29  1  0
 30 25  2  0
 31 32  1  0
 32 37  2  0
 32 33  1  0
 33 34  2  0
 34 35  1  0
 35 39  1  0
 36 35  2  0
 37 36  1  0
 38 37  1  0
 40 41  1  0
 41 43  1  0
 41 44  1  0
 42 40  2  0
 45 20  1  0
 45 46  1  0
 47 45  1  0
 48  2  1  0
 49 48  1  0
 50 49  2  0
 51 53  1  0
 51 50  1  0
 52 63  2  0
 53 58  1  0
 54 62  1  0
 54 64  1  0
 55 61  1  0
 55 57  1  0
 56 62  1  0
 57 56  1  0
 58 57  2  0
 59 60  1  0
 59 53  2  0
 60 55  2  0
 61 54  1  0
 62 52  1  0
 64 66  2  0
 65 64  1  0
 67 65  1  0
 68 77  2  0
 68 73  1  0
 69 65  1  0
 69 73  1  0
 70 69  1  0
 71 72  1  0
 71 70  1  0
 72 68  1  0
 73 74  2  0
 74 75  1  0
 76 75  2  0
 77 76  1  0
 78 52  1  0
 78 79  1  0
 78 88  1  0
 79 82  1  0
 80 79  1  0
 80 84  1  0
 81 80  2  0
 84 83  1  0
 84 86  1  0
 86 87  1  0
 86 85  1  0
 88 91  1  1
 88 89  1  0
 90 88  1  0
M  ISO  4  10 100  18 100  50 101  51 101
M  END
>  <TORSDO>  (90) 
F 21

>  <SCORE>  (90) 
-12.657

>  <name>  (90) 
89

>  <ligand_id>  (90) 
89

>  <original_smiles>  (90) 
[H]c1c([H])c([H])c2c(c1[H])C([H])([H])C([H])([H])C([H])([H])C2([H])N([H])C(=O)C1([H])N(C(=O)C([H])(N([H])C(=O)C([H])(N([H])C([H])([H])[H])C([H])([H])[H])C(C([H])([H])[H])(C([H])([H])[H])C([H])([H])[H])C([H])([H])c2c([H])c(OC([H])([H])C([H])([H])C([H])([H])c3c(C([H])(N([H])C(=O)N4C([H])([H])C([H])([H])C([H])([H])C([H])(n5nc(-c6c([H])c([H])c(Oc7c([H])c([H])c(F)c([H])c7F)c([H])c6[H])c(C(=O)N([H])[H])c5N([H])[H])C4([H])[H])C([H])([H])[H])nn(C([H])([H])C([H])([H])[H])c3[H])c([H])c([H])c2C1([H])[H]

>  <smiles>  (90) 
[H]c1c([H])c([H])c2c(c1[H])C([H])([H])C([H])([H])C([H])([H])C2([H])N([H])C(=O)C1([H])N(C(=O)C([H])(N([H])C(=O)C([H])(N([H])C([H])([H])[H])C([H])([H])[H])C(C([H])([H])[H])(C([H])([H])[H])C([H])([H])[H])C([H])([H])c2c([H])c(OC([H])([H])C([H])([H])C([H])([H])c3c(C([H])(N([H])C(=O)N4C([H])([H])C([H])([H])C([H])([H])C([H])(n5nc(-c6c([H])c([H])c(Oc7c([H])c([H])c(F)c([H])c7F)c([H])c6[H])c(C(=O)N([H])[H])c5N([H])[H])C4([H])[H])C([H])([H])[H])nn(C([H])([H])C([H])([H])[H])c3[H])c([H])c([H])c2C1([H])[H]

$$$$
90:0:0
     RDKit          3D

 91 99  0  0  1  0  0  0  0  0999 V2000
  -30.5530  -21.7900   18.4890 C   0  0  0  0  0  0  0  0  0  0  0  0
  -30.1680  -20.3350   19.9530 C   0  0  0  0  0  0  0  0  0  0  0  0
  -30.4330  -22.9690   17.5770 C   0  0  0  0  0  1  0  0  0  0  0  0
  -31.3860  -20.7810   18.2210 N   0  0  0  0  0  0  0  0  0  0  0  0
  -31.1500  -19.8430   19.1880 N   0  0  0  0  0  0  0  0  0  0  0  0
  -29.8160  -21.6210   19.6150 N   0  0  0  0  0  0  0  0  0  0  0  0
  -29.6050  -19.5070   21.0950 C   0  0  0  0  0  2  0  0  0  0  0  0
  -29.2460  -18.0050   20.7810 C   0  0  0  0  0  2  0  0  0  0  0  0
  -30.3970  -16.9460   20.8760 C   0  0  0  0  0  2  0  0  0  0  0  0
  -30.6500  -14.4740   20.3590 C   0  0  0  0  0  0  0  0  0  0  0  0
  -30.3470  -12.2940   19.2320 C   0  0  0  0  0  2  0  0  0  0  0  0
  -29.4000  -12.4840   18.0300 C   0  0  0  0  0  2  0  0  0  0  0  0
  -27.9270  -12.3530   18.4680 C   0  0  0  0  0  2  0  0  0  0  0  0
  -27.5990  -13.1980   19.7280 C   0  0  0  0  0  3  0  0  0  0  0  0
  -28.6610  -12.9900   20.8310 C   0  0  0  0  0  2  0  0  0  0  0  0
  -29.9770  -13.2930   20.2500 N   0  0  0  0  0  0  0  0  0  0  0  0
  -31.7920  -14.6250   19.9160 O   0  0  0  0  0  0  0  0  0  0  0  0
  -29.9400  -15.5310   20.8210 N   0  0  0  0  0  0  0  0  0  0  0  0
  -29.0040  -15.3310   21.1410 H   0  0  0  0  0  0  0  0  0  0  0  0
  -25.2080  -13.8200   20.4430 C   0  0  0  0  0  0  0  0  0  0  0  0
  -24.1380  -13.0560   20.8250 C   0  0  0  0  0  0  0  0  0  0  0  0
  -24.5930  -11.7030   20.8050 C   0  0  0  0  0  0  0  0  0  0  0  0
  -26.2480  -12.9320   20.2160 N   0  0  0  0  0  0  0  0  0  0  0  0
  -25.8820  -11.6540   20.4920 N   0  0  0  0  0  0  0  0  0  0  0  0
  -23.8620  -10.4460   21.0110 C   0  0  0  0  0  0  0  0  0  0  0  0
  -24.3020   -9.4780   21.9400 C   0  0  0  0  0  3  0  0  0  0  0  0
  -23.5730   -8.2860   22.1330 C   0  0  0  0  0  3  0  0  0  0  0  0
  -22.3880   -8.0520   21.3950 C   0  0  0  0  0  0  0  0  0  0  0  0
  -21.9660   -9.0070   20.4530 C   0  0  0  0  0  3  0  0  0  0  0  0
  -22.6960  -10.1910   20.2590 C   0  0  0  0  0  3  0  0  0  0  0  0
  -21.6280   -6.9120   21.4970 O   0  0  0  0  0  0  0  0  0  0  0  0
  -21.6020   -6.1650   22.6470 C   0  0  0  0  0  0  0  0  0  0  0  0
  -21.2150   -6.7180   23.8870 C   0  0  0  0  0  3  0  0  0  0  0  0
  -21.1360   -5.8980   25.0310 C   0  0  0  0  0  3  0  0  0  0  0  0
  -21.4330   -4.5260   24.9350 C   0  0  0  0  0  0  0  0  0  0  0  0
  -21.8120   -3.9710   23.7000 C   0  0  0  0  0  3  0  0  0  0  0  0
  -21.8930   -4.7890   22.5590 C   0  0  0  0  0  0  0  0  0  0  0  0
  -22.2390   -4.2450   21.3670 F   0  0  0  0  0  0  0  0  0  0  0  0
  -21.3490   -3.7360   26.0310 F   0  0  0  0  0  0  0  0  0  0  0  0
  -22.7440  -13.5420   21.0990 C   0  0  0  0  0  0  0  0  0  0  0  0
  -22.0180  -12.8580   21.9760 N   0  0  0  0  0  0  0  0  0  0  0  0
  -22.3080  -14.5640   20.5700 O   0  0  0  0  0  0  0  0  0  0  0  0
  -22.3840  -12.0330   22.4250 H   0  0  0  0  0  0  0  0  0  0  0  0
  -21.0820  -13.1660   22.2010 H   0  0  0  0  0  0  0  0  0  0  0  0
  -25.3790  -15.1880   20.2520 N   0  0  0  0  0  0  0  0  0  0  0  0
  -24.6160  -15.8470   20.3570 H   0  0  0  0  0  0  0  0  0  0  0  0
  -26.2270  -15.6180   19.9060 H   0  0  0  0  0  0  0  0  0  0  0  0
  -28.8120  -22.5580   20.1800 C   0  0  0  0  0  2  0  0  0  0  0  0
  -29.2400  -24.0660   20.3870 C   0  0  0  0  0  2  0  0  0  0  0  0
  -28.1160  -25.0830   20.0070 C   0  0  0  0  0  2  0  0  0  0  0  0
  -28.3420  -26.5110   20.2180 O   0  0  0  0  0  0  0  0  0  0  0  0
  -24.6230  -31.8470   23.2470 C   0  0  0  0  0  0  0  0  0  0  0  0
  -27.2090  -27.3280   20.1680 C   0  0  0  0  0  0  0  0  0  0  0  0
  -23.4040  -30.4560   21.6120 C   0  0  0  0  0  3  0  0  0  0  0  0
  -24.8410  -28.9110   20.1770 C   0  0  0  0  0  0  0  0  0  0  0  0
  -25.9410  -30.7770   21.4140 C   0  0  0  0  0  2  0  0  0  0  0  0
  -26.0120  -29.4040   20.7670 C   0  0  0  0  0  0  0  0  0  0  0  0
  -27.2000  -28.6220   20.7560 C   0  0  0  0  0  3  0  0  0  0  0  0
  -26.0140  -26.8800   19.5530 C   0  0  0  0  0  3  0  0  0  0  0  0
  -24.8410  -27.6520   19.5630 C   0  0  0  0  0  3  0  0  0  0  0  0
  -23.6060  -29.7840   20.2300 C   0  0  0  0  0  2  0  0  0  0  0  0
  -24.6750  -31.0420   22.1480 N   0  0  0  0  0  0  0  0  0  0  0  0
  -23.5430  -32.1290   23.7870 O   0  0  0  0  0  0  0  0  0  0  0  0
  -22.7460  -29.4380   22.5710 C   0  0  0  0  0  0  0  0  0  0  0  0
  -21.4190  -29.2650   22.4480 N   0  0  0  0  0  0  0  0  0  0  0  0
  -23.4260  -28.8060   23.3850 O   0  0  0  0  0  0  0  0  0  0  0  0
  -20.9300  -29.8270   21.7640 H   0  0  0  0  0  0  0  0  0  0  0  0
  -18.0360  -28.0940   22.9550 C   0  0  0  0  0  0  0  0  0  0  0  0
  -20.5960  -28.3340   23.2210 C   0  0  0  0  0  3  0  0  0  0  0  0
  -20.6870  -26.9020   22.6460 C   0  0  0  0  0  2  0  0  0  0  0  0
  -19.5810  -26.5870   21.6340 C   0  0  0  0  0  2  0  0  0  0  0  0
  -18.2020  -26.7420   22.2810 C   0  0  0  0  0  2  0  0  0  0  0  0
  -19.1610  -28.8490   23.3820 C   0  0  0  0  0  0  0  0  0  0  0  0
  -18.9530  -30.1140   23.9720 C   0  0  0  0  0  3  0  0  0  0  0  0
  -17.6520  -30.6240   24.1390 C   0  0  0  0  0  3  0  0  0  0  0  0
  -16.5410  -29.8680   23.7290 C   0  0  0  0  0  3  0  0  0  0  0  0
  -16.7340  -28.6040   23.1430 C   0  0  0  0  0  3  0  0  0  0  0  0
  -25.9130  -32.4710   23.8640 C   0  0  0  0  0  3  0  0  0  0  0  0
  -25.6120  -33.8700   24.1970 N   0  0  0  0  0  0  0  0  0  0  0  0
  -25.9430  -34.9200   23.4340 C   0  0  0  0  0  0  0  0  0  0  0  0
  -26.6050  -34.8130   22.3970 O   0  0  0  0  0  0  0  0  0  0  0  0
  -25.0250  -34.0270   25.0030 H   0  0  0  0  0  0  0  0  0  0  0  0
  -24.2180  -36.7190   23.0940 C   0  0  0  0  0  1  0  0  0  0  0  0
  -25.4640  -36.3100   23.8950 C   0  0  0  0  0  3  0  0  0  0  0  0
  -27.6100  -37.1870   24.7040 C   0  0  0  0  0  1  0  0  0  0  0  0
  -26.5010  -37.3600   23.7710 N   0  0  0  0  0  0  0  0  0  0  0  0
  -26.0990  -38.2820   23.9210 H   0  0  0  0  0  0  0  0  0  0  0  0
  -26.4310  -31.6940   25.1360 C   0  0  1  0  0  0  0  0  0  0  0  0
  -25.3410  -31.4620   26.2090 C   0  0  0  0  0  1  0  0  0  0  0  0
  -27.0040  -30.3130   24.7390 C   0  0  0  0  0  1  0  0  0  0  0  0
  -27.5890  -32.4800   25.7940 C   0  0  0  0  0  1  0  0  0  0  0  0
  1  6  1  0
  2  7  1  0
  3  1  1  0
  4  1  2  0
  4  5  1  0
  5  2  2  0
  6  2  1  0
  6 48  1  0
  8  9  1  0
  8  7  1  0
 10 18  1  0
 11 16  1  0
 12 13  1  0
 12 11  1  0
 14 13  1  0
 14 23  1  0
 14 15  1  0
 16 10  1  0
 16 15  1  0
 17 10  2  0
 18  9  1  0
 18 19  1  0
 20 21  2  0
 21 40  1  0
 22 21  1  0
 22 25  1  0
 23 20  1  0
 23 24  1  0
 24 22  2  0
 25 26  1  0
 26 27  2  0
 28 31  1  0
 28 27  1  0
 29 28  2  0
 30 29  1  0
 30 25  2  0
 31 32  1  0
 32 33  1  0
 33 34  2  0
 35 34  1  0
 35 39  1  0
 36 35  2  0
 37 32  2  0
 37 36  1  0
 38 37  1  0
 40 41  1  0
 41 44  1  0
 41 43  1  0
 42 40  2  0
 45 46  1  0
 45 20  1  0
 47 45  1  0
 48 49  1  0
 50 51  1  0
 50 49  1  0
 52 63  2  0
 53 51  1  0
 53 58  1  0
 54 62  1  0
 54 64  1  0
 55 61  1  0
 55 57  1  0
 56 62  1  0
 57 56  1  0
 58 57  2  0
 59 60  1  0
 59 53  2  0
 60 55  2  0
 61 54  1  0
 62 52  1  0
 64 66  2  0
 65 64  1  0
 67 65  1  0
 68 77  2  0
 68 73  1  0
 69 65  1  0
 69 73  1  0
 70 69  1  0
 71 72  1  0
 71 70  1  0
 72 68  1  0
 73 74  2  0
 74 75  1  0
 76 75  2  0
 77 76  1  0
 78 52  1  0
 78 79  1  0
 78 88  1  0
 79 82  1  0
 80 84  1  0
 80 79  1  0
 81 80  2  0
 84 83  1  0
 86 84  1  0
 86 87  1  0
 86 85  1  0
 88 91  1  1
 88 89  1  0
 90 88  1  0
M  ISO  4  10 100  18 100  50 101  51 101
M  END
>  <TORSDO>  (91) 
F 22

>  <SCORE>  (91) 
-12.870

>  <name>  (91) 
90

>  <ligand_id>  (91) 
90

>  <original_smiles>  (91) 
[H]c1c([H])c([H])c2c(c1[H])C([H])([H])C([H])([H])C([H])([H])C2([H])N([H])C(=O)C1([H])N(C(=O)C([H])(N([H])C(=O)C([H])(N([H])C([H])([H])[H])C([H])([H])[H])C(C([H])([H])[H])(C([H])([H])[H])C([H])([H])[H])C([H])([H])c2c([H])c(OC([H])([H])C([H])([H])C([H])([H])n3c(C([H])([H])[H])nnc3C([H])([H])C([H])([H])C([H])([H])N([H])C(=O)N3C([H])([H])C([H])([H])C([H])([H])C([H])(n4nc(-c5c([H])c([H])c(Oc6c([H])c([H])c(F)c([H])c6F)c([H])c5[H])c(C(=O)N([H])[H])c4N([H])[H])C3([H])[H])c([H])c([H])c2C1([H])[H]

>  <smiles>  (91) 
[H]c1c([H])c([H])c2c(c1[H])C([H])([H])C([H])([H])C([H])([H])C2([H])N([H])C(=O)C1([H])N(C(=O)C([H])(N([H])C(=O)C([H])(N([H])C([H])([H])[H])C([H])([H])[H])C(C([H])([H])[H])(C([H])([H])[H])C([H])([H])[H])C([H])([H])c2c([H])c(OC([H])([H])C([H])([H])C([H])([H])n3c(C([H])([H])[H])nnc3C([H])([H])C([H])([H])C([H])([H])N([H])C(=O)N3C([H])([H])C([H])([H])C([H])([H])C([H])(n4nc(-c5c([H])c([H])c(Oc6c([H])c([H])c(F)c([H])c6F)c([H])c5[H])c(C(=O)N([H])[H])c4N([H])[H])C3([H])[H])c([H])c([H])c2C1([H])[H]

$$$$
91:0:0
     RDKit          3D

 94102  0  0  1  0  0  0  0  0999 V2000
  -28.5550  -19.9050   19.7180 C   0  0  0  0  0  3  0  0  0  0  0  0
  -30.3010  -21.2730   21.3190 C   0  0  0  0  0  3  0  0  0  0  0  0
  -28.6440  -21.3050   19.5630 C   0  0  0  0  0  0  0  0  0  0  0  0
  -29.5390  -22.0240   20.3950 C   0  0  0  0  0  0  0  0  0  0  0  0
  -29.3520  -19.2500   20.6760 C   0  0  0  0  0  0  0  0  0  0  0  0
  -30.2130  -19.9290   21.4670 N   0  0  0  0  0  0  0  0  0  0  0  0
  -27.8110  -21.9880   18.4870 C   0  0  0  0  0  2  0  0  0  0  0  0
  -26.3330  -22.1350   18.8880 C   0  0  0  0  0  2  0  0  0  0  0  0
  -24.0920  -23.2380   18.3820 C   0  0  0  0  0  1  0  0  0  0  0  0
  -25.5620  -23.0980   17.9740 C   0  0  0  0  0  2  0  0  0  0  0  0
  -29.2290  -17.7380   20.9030 C   0  0  0  0  0  2  0  0  0  0  0  0
  -30.4660  -16.8930   20.4990 C   0  0  0  0  0  2  0  0  0  0  0  0
  -30.9010  -14.4590   20.0300 C   0  0  0  0  0  0  0  0  0  0  0  0
  -30.5520  -12.3040   18.8820 C   0  0  0  0  0  2  0  0  0  0  0  0
  -29.5300  -12.5180   17.7450 C   0  0  0  0  0  2  0  0  0  0  0  0
  -28.0860  -12.3780   18.2690 C   0  0  0  0  0  2  0  0  0  0  0  0
  -27.8340  -13.2030   19.5610 C   0  0  0  0  0  3  0  0  0  0  0  0
  -28.9580  -12.9580   20.5930 C   0  0  0  0  0  2  0  0  0  0  0  0
  -30.2440  -13.2720   19.9460 N   0  0  0  0  0  0  0  0  0  0  0  0
  -31.9790  -14.6780   19.4660 O   0  0  0  0  0  0  0  0  0  0  0  0
  -30.2090  -15.4470   20.6270 N   0  0  0  0  0  0  0  0  0  0  0  0
  -29.3520  -15.1690   21.0790 H   0  0  0  0  0  0  0  0  0  0  0  0
  -25.4990  -13.8160   20.4570 C   0  0  0  0  0  0  0  0  0  0  0  0
  -24.4500  -13.0440   20.8770 C   0  0  0  0  0  0  0  0  0  0  0  0
  -24.8890  -11.6890   20.7660 C   0  0  0  0  0  0  0  0  0  0  0  0
  -26.5140  -12.9300   20.1220 N   0  0  0  0  0  0  0  0  0  0  0  0
  -26.1520  -11.6440   20.3640 N   0  0  0  0  0  0  0  0  0  0  0  0
  -24.1600  -10.4300   20.9650 C   0  0  0  0  0  0  0  0  0  0  0  0
  -24.6000   -9.4610   21.8950 C   0  0  0  0  0  3  0  0  0  0  0  0
  -23.8740   -8.2650   22.0810 C   0  0  0  0  0  3  0  0  0  0  0  0
  -22.6930   -8.0310   21.3380 C   0  0  0  0  0  0  0  0  0  0  0  0
  -22.2730   -8.9870   20.3970 C   0  0  0  0  0  3  0  0  0  0  0  0
  -23.0000  -10.1740   20.2090 C   0  0  0  0  0  3  0  0  0  0  0  0
  -21.9360   -6.8880   21.4340 O   0  0  0  0  0  0  0  0  0  0  0  0
  -21.8350   -6.1880   22.6090 C   0  0  0  0  0  0  0  0  0  0  0  0
  -21.3190   -6.7770   23.7850 C   0  0  0  0  0  3  0  0  0  0  0  0
  -21.1690   -6.0020   24.9520 C   0  0  0  0  0  3  0  0  0  0  0  0
  -21.5240   -4.6390   24.9440 C   0  0  0  0  0  0  0  0  0  0  0  0
  -22.0330   -4.0510   23.7730 C   0  0  0  0  0  3  0  0  0  0  0  0
  -22.1860   -4.8230   22.6080 C   0  0  0  0  0  0  0  0  0  0  0  0
  -22.6560   -4.2460   21.4770 F   0  0  0  0  0  0  0  0  0  0  0  0
  -21.3710   -3.8930   26.0620 F   0  0  0  0  0  0  0  0  0  0  0  0
  -23.0830  -13.5280   21.2670 C   0  0  0  0  0  0  0  0  0  0  0  0
  -22.4090  -12.8130   22.1610 N   0  0  0  0  0  0  0  0  0  0  0  0
  -22.6220  -14.5750   20.8130 O   0  0  0  0  0  0  0  0  0  0  0  0
  -22.7940  -11.9640   22.5500 H   0  0  0  0  0  0  0  0  0  0  0  0
  -21.4950  -13.1190   22.4630 H   0  0  0  0  0  0  0  0  0  0  0  0
  -25.6700  -15.1900   20.3110 N   0  0  0  0  0  0  0  0  0  0  0  0
  -24.9160  -15.8440   20.4890 H   0  0  0  0  0  0  0  0  0  0  0  0
  -26.4850  -15.6270   19.9020 H   0  0  0  0  0  0  0  0  0  0  0  0
  -29.7750  -23.3780   20.2600 O   0  0  0  0  0  0  0  0  0  0  0  0
  -28.7040  -24.2890   20.5510 C   0  0  0  0  0  2  0  0  0  0  0  0
  -28.7770  -25.5110   19.5990 C   0  0  0  0  0  2  0  0  0  0  0  0
  -28.5880  -26.7780   20.2470 O   0  0  0  0  0  0  0  0  0  0  0  0
  -24.6120  -31.8550   23.2310 C   0  0  0  0  0  0  0  0  0  0  0  0
  -27.3750  -27.4380   20.2050 C   0  0  0  0  0  0  0  0  0  0  0  0
  -23.4560  -30.4400   21.5640 C   0  0  0  0  0  3  0  0  0  0  0  0
  -24.9540  -28.9150   20.1720 C   0  0  0  0  0  0  0  0  0  0  0  0
  -25.9800  -30.8250   21.4180 C   0  0  0  0  0  2  0  0  0  0  0  0
  -26.0920  -29.4530   20.7820 C   0  0  0  0  0  0  0  0  0  0  0  0
  -27.2990  -28.7200   20.7980 C   0  0  0  0  0  3  0  0  0  0  0  0
  -26.2100  -26.9050   19.6020 C   0  0  0  0  0  3  0  0  0  0  0  0
  -25.0090  -27.6390   19.5810 C   0  0  0  0  0  3  0  0  0  0  0  0
  -23.7000  -29.7600   20.1890 C   0  0  0  0  0  2  0  0  0  0  0  0
  -24.6990  -31.0560   22.1310 N   0  0  0  0  0  0  0  0  0  0  0  0
  -23.5170  -32.1150   23.7490 O   0  0  0  0  0  0  0  0  0  0  0  0
  -22.7960  -29.4120   22.5110 C   0  0  0  0  0  0  0  0  0  0  0  0
  -21.4780  -29.2100   22.3500 N   0  0  0  0  0  0  0  0  0  0  0  0
  -23.4670  -28.7990   23.3450 O   0  0  0  0  0  0  0  0  0  0  0  0
  -20.9980  -29.7580   21.6500 H   0  0  0  0  0  0  0  0  0  0  0  0
  -18.1140  -27.9500   22.7400 C   0  0  0  0  0  0  0  0  0  0  0  0
  -20.6550  -28.2610   23.0990 C   0  0  0  0  0  3  0  0  0  0  0  0
  -20.8080  -26.8290   22.5380 C   0  0  0  0  0  2  0  0  0  0  0  0
  -19.7490  -26.4770   21.4890 C   0  0  0  0  0  2  0  0  0  0  0  0
  -18.3420  -26.5980   22.0830 C   0  0  0  0  0  2  0  0  0  0  0  0
  -19.2020  -28.7360   23.2030 C   0  0  0  0  0  0  0  0  0  0  0  0
  -18.9380  -30.0010   23.7740 C   0  0  0  0  0  3  0  0  0  0  0  0
  -17.6190  -30.4790   23.8870 C   0  0  0  0  0  3  0  0  0  0  0  0
  -16.5450  -29.6890   23.4420 C   0  0  0  0  0  3  0  0  0  0  0  0
  -16.7930  -28.4260   22.8740 C   0  0  0  0  0  3  0  0  0  0  0  0
  -25.8790  -32.4980   23.8800 C   0  0  0  0  0  3  0  0  0  0  0  0
  -25.5540  -33.8970   24.1890 N   0  0  0  0  0  0  0  0  0  0  0  0
  -25.8960  -34.9440   23.4250 C   0  0  0  0  0  0  0  0  0  0  0  0
  -26.5890  -34.8330   22.4090 O   0  0  0  0  0  0  0  0  0  0  0  0
  -24.9420  -34.0570   24.9760 H   0  0  0  0  0  0  0  0  0  0  0  0
  -24.1660  -36.7200   23.0120 C   0  0  0  0  0  1  0  0  0  0  0  0
  -25.3900  -36.3330   23.8570 C   0  0  0  0  0  3  0  0  0  0  0  0
  -27.4950  -37.2420   24.7320 C   0  0  0  0  0  1  0  0  0  0  0  0
  -26.4190  -37.3910   23.7570 N   0  0  0  0  0  0  0  0  0  0  0  0
  -26.0040  -38.3110   23.8810 H   0  0  0  0  0  0  0  0  0  0  0  0
  -26.3690  -31.7400   25.1730 C   0  0  1  0  0  0  0  0  0  0  0  0
  -25.2510  -31.4990   26.2140 C   0  0  0  0  0  1  0  0  0  0  0  0
  -26.9730  -30.3650   24.8030 C   0  0  0  0  0  1  0  0  0  0  0  0
  -27.4960  -32.5470   25.8590 C   0  0  0  0  0  1  0  0  0  0  0  0
  1  5  1  0
  2  6  1  0
  3  1  2  0
  3  4  1  0
  4  2  2  0
  5 11  1  0
  5  6  2  0
  7  8  1  0
  7  3  1  0
 10  9  1  0
 10  8  1  0
 12 21  1  0
 12 11  1  0
 13 21  1  0
 14 19  1  0
 15 16  1  0
 15 14  1  0
 17 16  1  0
 17 26  1  0
 17 18  1  0
 19 13  1  0
 19 18  1  0
 20 13  2  0
 21 22  1  0
 23 24  2  0
 24 43  1  0
 25 24  1  0
 25 28  1  0
 26 27  1  0
 26 23  1  0
 27 25  2  0
 28 29  1  0
 29 30  2  0
 31 34  1  0
 31 30  1  0
 32 31  2  0
 33 32  1  0
 33 28  2  0
 34 35  1  0
 35 36  1  0
 36 37  2  0
 38 37  1  0
 38 42  1  0
 39 38  2  0
 40 35  2  0
 40 39  1  0
 41 40  1  0
 43 44  1  0
 44 47  1  0
 44 46  1  0
 45 43  2  0
 48 23  1  0
 48 49  1  0
 50 48  1  0
 51  4  1  0
 51 52  1  0
 53 54  1  0
 53 52  1  0
 55 66  2  0
 56 54  1  0
 56 61  1  0
 57 65  1  0
 57 67  1  0
 58 64  1  0
 58 60  1  0
 59 65  1  0
 60 61  2  0
 60 59  1  0
 62 56  2  0
 63 62  1  0
 63 58  2  0
 64 57  1  0
 65 55  1  0
 67 69  2  0
 68 67  1  0
 70 68  1  0
 71 80  2  0
 71 76  1  0
 72 68  1  0
 72 76  1  0
 73 72  1  0
 74 75  1  0
 74 73  1  0
 75 71  1  0
 76 77  2  0
 77 78  1  0
 79 78  2  0
 80 79  1  0
 81 55  1  0
 81 82  1  0
 81 91  1  0
 82 85  1  0
 83 87  1  0
 83 82  1  0
 84 83  2  0
 87 86  1  0
 89 87  1  0
 89 90  1  0
 89 88  1  0
 91 94  1  1
 91 92  1  0
 93 91  1  0
M  ISO  4  13 100  21 100  53 101  54 101
M  END
>  <TORSDO>  (92) 
F 24

>  <SCORE>  (92) 
-12.450

>  <name>  (92) 
91

>  <ligand_id>  (92) 
91

>  <original_smiles>  (92) 
[H]c1nc(C([H])([H])C([H])([H])N([H])C(=O)N2C([H])([H])C([H])([H])C([H])([H])C([H])(n3nc(-c4c([H])c([H])c(Oc5c([H])c([H])c(F)c([H])c5F)c([H])c4[H])c(C(=O)N([H])[H])c3N([H])[H])C2([H])[H])c([H])c(C([H])([H])C([H])([H])C([H])([H])C([H])([H])[H])c1OC([H])([H])C([H])([H])Oc1c([H])c([H])c2c(c1[H])C([H])([H])N(C(=O)C([H])(N([H])C(=O)C([H])(N([H])C([H])([H])[H])C([H])([H])[H])C(C([H])([H])[H])(C([H])([H])[H])C([H])([H])[H])C([H])(C(=O)N([H])C1([H])c3c([H])c([H])c([H])c([H])c3C([H])([H])C([H])([H])C1([H])[H])C2([H])[H]

>  <smiles>  (92) 
[H]c1nc(C([H])([H])C([H])([H])N([H])C(=O)N2C([H])([H])C([H])([H])C([H])([H])C([H])(n3nc(-c4c([H])c([H])c(Oc5c([H])c([H])c(F)c([H])c5F)c([H])c4[H])c(C(=O)N([H])[H])c3N([H])[H])C2([H])[H])c([H])c(C([H])([H])C([H])([H])C([H])([H])C([H])([H])[H])c1OC([H])([H])C([H])([H])Oc1c([H])c([H])c2c(c1[H])C([H])([H])N(C(=O)C([H])(N([H])C(=O)C([H])(N([H])C([H])([H])[H])C([H])([H])[H])C(C([H])([H])[H])(C([H])([H])[H])C([H])([H])[H])C([H])(C(=O)N([H])C1([H])c3c([H])c([H])c([H])c([H])c3C([H])([H])C([H])([H])C1([H])[H])C2([H])[H]

$$$$
92:0:0
     RDKit          3D

 89 97  0  0  1  0  0  0  0  0999 V2000
  -30.5500  -14.8860   20.4240 C   0  0  0  0  0  0  0  0  0  0  0  0
  -30.4390  -12.5470   19.4710 C   0  0  0  0  0  2  0  0  0  0  0  0
  -29.5260  -12.5550   18.2220 C   0  0  0  0  0  2  0  0  0  0  0  0
  -28.0440  -12.3830   18.6160 C   0  0  0  0  0  2  0  0  0  0  0  0
  -27.6350  -13.3020   19.7960 C   0  0  0  0  0  3  0  0  0  0  0  0
  -28.6650  -13.2460   20.9450 C   0  0  0  0  0  2  0  0  0  0  0  0
  -29.9690  -13.6250   20.3780 N   0  0  0  0  0  0  0  0  0  0  0  0
  -31.7540  -14.9850   20.1580 O   0  0  0  0  0  0  0  0  0  0  0  0
  -28.4200  -18.1390   20.2600 C   0  0  0  0  0  3  0  0  0  0  0  0
  -30.5090  -19.7790   20.7110 C   0  0  0  0  0  3  0  0  0  0  0  0
  -28.2060  -19.5660   20.2830 C   0  0  0  0  0  0  0  0  0  0  0  0
  -29.2660  -20.4870   20.5470 C   0  0  0  0  0  0  0  0  0  0  0  0
  -29.6810  -17.5020   20.4800 C   0  0  0  0  0  0  0  0  0  0  0  0
  -26.7920  -20.0820   20.0950 C   0  0  0  0  0  1  0  0  0  0  0  0
  -30.7070  -18.3970   20.6720 N   0  0  0  0  0  0  0  0  0  0  0  0
  -29.6790  -15.9860   20.5550 N   0  0  0  0  0  0  0  0  0  0  0  0
  -28.7450  -15.6340   20.6810 H   0  0  0  0  0  0  0  0  0  0  0  0
  -25.2410  -13.9360   20.4560 C   0  0  0  0  0  0  0  0  0  0  0  0
  -24.1550  -13.1830   20.8080 C   0  0  0  0  0  0  0  0  0  0  0  0
  -24.5990  -11.8250   20.8080 C   0  0  0  0  0  0  0  0  0  0  0  0
  -26.2770  -13.0380   20.2560 N   0  0  0  0  0  0  0  0  0  0  0  0
  -25.8970  -11.7640   20.5330 N   0  0  0  0  0  0  0  0  0  0  0  0
  -23.8480  -10.5760   20.9930 C   0  0  0  0  0  0  0  0  0  0  0  0
  -24.2620   -9.5970   21.9230 C   0  0  0  0  0  3  0  0  0  0  0  0
  -23.5110   -8.4140   22.0960 C   0  0  0  0  0  3  0  0  0  0  0  0
  -22.3340   -8.2020   21.3400 C   0  0  0  0  0  0  0  0  0  0  0  0
  -21.9400   -9.1700   20.4000 C   0  0  0  0  0  3  0  0  0  0  0  0
  -22.6910  -10.3440   20.2230 C   0  0  0  0  0  3  0  0  0  0  0  0
  -21.5560   -7.0720   21.4240 O   0  0  0  0  0  0  0  0  0  0  0  0
  -21.5180   -6.3080   22.5630 C   0  0  0  0  0  0  0  0  0  0  0  0
  -21.1620   -6.8560   23.8150 C   0  0  0  0  0  3  0  0  0  0  0  0
  -21.0670   -6.0220   24.9480 C   0  0  0  0  0  3  0  0  0  0  0  0
  -21.3160   -4.6420   24.8290 C   0  0  0  0  0  0  0  0  0  0  0  0
  -21.6650   -4.0940   23.5810 C   0  0  0  0  0  3  0  0  0  0  0  0
  -21.7620   -4.9250   22.4520 C   0  0  0  0  0  0  0  0  0  0  0  0
  -22.0780   -4.3890   21.2480 F   0  0  0  0  0  0  0  0  0  0  0  0
  -21.2170   -3.8390   25.9130 F   0  0  0  0  0  0  0  0  0  0  0  0
  -22.7580  -13.6850   21.0310 C   0  0  0  0  0  0  0  0  0  0  0  0
  -21.9970  -13.0170   21.8910 N   0  0  0  0  0  0  0  0  0  0  0  0
  -22.3500  -14.7050   20.4770 O   0  0  0  0  0  0  0  0  0  0  0  0
  -22.3380  -12.1920   22.3610 H   0  0  0  0  0  0  0  0  0  0  0  0
  -21.0580  -13.3380   22.0830 H   0  0  0  0  0  0  0  0  0  0  0  0
  -25.4270  -15.3010   20.2610 N   0  0  0  0  0  0  0  0  0  0  0  0
  -24.6550  -15.9550   20.3270 H   0  0  0  0  0  0  0  0  0  0  0  0
  -26.2530  -15.7090   19.8460 H   0  0  0  0  0  0  0  0  0  0  0  0
  -29.0130  -22.0630   20.9470 C   0  0  0  0  0  2  0  0  0  0  0  0
  -28.9050  -23.4310   20.0090 C   0  0  0  0  0  3  0  0  0  0  0  0
  -28.2720  -24.8490   20.6220 C   0  0  0  0  0  3  0  0  0  0  0  0
  -28.4200  -26.2840   20.0890 O   0  0  0  0  0  0  0  0  0  0  0  0
  -24.6970  -31.8440   23.1300 C   0  0  0  0  0  0  0  0  0  0  0  0
  -27.3220  -27.2000   20.0970 C   0  0  0  0  0  0  0  0  0  0  0  0
  -23.4990  -30.4260   21.5040 C   0  0  0  0  0  3  0  0  0  0  0  0
  -24.9560  -28.8650   20.0790 C   0  0  0  0  0  0  0  0  0  0  0  0
  -26.0420  -30.7420   21.3080 C   0  0  0  0  0  2  0  0  0  0  0  0
  -26.1320  -29.3500   20.6690 C   0  0  0  0  0  0  0  0  0  0  0  0
  -27.3180  -28.5330   20.6560 C   0  0  0  0  0  3  0  0  0  0  0  0
  -26.1210  -26.7970   19.4780 C   0  0  0  0  0  3  0  0  0  0  0  0
  -24.9610  -27.6010   19.4690 C   0  0  0  0  0  3  0  0  0  0  0  0
  -23.7160  -29.7410   20.1280 C   0  0  0  0  0  2  0  0  0  0  0  0
  -24.7660  -31.0250   22.0360 N   0  0  0  0  0  0  0  0  0  0  0  0
  -23.6130  -32.1140   23.6680 O   0  0  0  0  0  0  0  0  0  0  0  0
  -22.8450  -29.4130   22.4760 C   0  0  0  0  0  0  0  0  0  0  0  0
  -21.5150  -29.2400   22.3740 N   0  0  0  0  0  0  0  0  0  0  0  0
  -23.5350  -28.7850   23.2830 O   0  0  0  0  0  0  0  0  0  0  0  0
  -21.0150  -29.7990   21.6970 H   0  0  0  0  0  0  0  0  0  0  0  0
  -18.1470  -28.0350   22.9330 C   0  0  0  0  0  0  0  0  0  0  0  0
  -20.7090  -28.2990   23.1570 C   0  0  0  0  0  3  0  0  0  0  0  0
  -20.8010  -26.8680   22.5740 C   0  0  0  0  0  2  0  0  0  0  0  0
  -19.6810  -26.5490   21.5780 C   0  0  0  0  0  2  0  0  0  0  0  0
  -18.3110  -26.6900   22.2480 C   0  0  0  0  0  2  0  0  0  0  0  0
  -19.2720  -28.7980   23.3460 C   0  0  0  0  0  0  0  0  0  0  0  0
  -19.0610  -30.0570   23.9490 C   0  0  0  0  0  3  0  0  0  0  0  0
  -17.7600  -30.5540   24.1430 C   0  0  0  0  0  3  0  0  0  0  0  0
  -16.6480  -29.7890   23.7450 C   0  0  0  0  0  3  0  0  0  0  0  0
  -16.8440  -28.5320   23.1470 C   0  0  0  0  0  3  0  0  0  0  0  0
  -25.9740  -32.4950   23.7440 C   0  0  0  0  0  3  0  0  0  0  0  0
  -25.6350  -33.8760   24.1170 N   0  0  0  0  0  0  0  0  0  0  0  0
  -25.9240  -34.9580   23.3830 C   0  0  0  0  0  0  0  0  0  0  0  0
  -26.5700  -34.8990   22.3330 O   0  0  0  0  0  0  0  0  0  0  0  0
  -25.0560  -33.9940   24.9360 H   0  0  0  0  0  0  0  0  0  0  0  0
  -24.1410  -36.7160   23.1270 C   0  0  0  0  0  1  0  0  0  0  0  0
  -25.4170  -36.3220   23.8900 C   0  0  0  0  0  3  0  0  0  0  0  0
  -27.5560  -37.2400   24.6720 C   0  0  0  0  0  1  0  0  0  0  0  0
  -26.4180  -37.4050   23.7730 N   0  0  0  0  0  0  0  0  0  0  0  0
  -25.9950  -38.3100   23.9580 H   0  0  0  0  0  0  0  0  0  0  0  0
  -26.5310  -31.7080   24.9930 C   0  0  1  0  0  0  0  0  0  0  0  0
  -25.4660  -31.4270   26.0800 C   0  0  0  0  0  1  0  0  0  0  0  0
  -27.1320  -30.3490   24.5620 C   0  0  0  0  0  1  0  0  0  0  0  0
  -27.6800  -32.5100   25.6470 C   0  0  0  0  0  1  0  0  0  0  0  0
  1 16  1  0
  2  7  1  0
  3  4  1  0
  3  2  1  0
  5  4  1  0
  5 21  1  0
  5  6  1  0
  7  1  1  0
  7  6  1  0
  8  1  2  0
  9 11  2  0
  9 13  1  0
 11 12  1  0
 12 10  2  0
 12 46  1  0
 13 16  1  0
 13 15  2  0
 14 11  1  0
 15 10  1  0
 16 17  1  0
 18 19  2  0
 19 38  1  0
 20 19  1  0
 20 23  1  0
 21 18  1  0
 21 22  1  0
 22 20  2  0
 23 24  1  0
 24 25  2  0
 26 29  1  0
 26 25  1  0
 27 26  2  0
 28 27  1  0
 28 23  2  0
 29 30  1  0
 30 31  1  0
 31 32  2  0
 33 32  1  0
 33 37  1  0
 34 33  2  0
 35 30  2  0
 35 34  1  0
 36 35  1  0
 38 39  1  0
 39 42  1  0
 39 41  1  0
 40 38  2  0
 43 44  1  0
 43 18  1  0
 45 43  1  0
 47 48  2  0
 47 46  1  0
 49 51  1  0
 49 48  1  0
 50 61  2  0
 51 56  1  0
 52 60  1  0
 52 62  1  0
 53 59  1  0
 53 55  1  0
 54 60  1  0
 55 54  1  0
 56 55  2  0
 57 51  2  0
 58 57  1  0
 58 53  2  0
 59 52  1  0
 60 50  1  0
 62 64  2  0
 63 62  1  0
 65 63  1  0
 66 75  2  0
 66 71  1  0
 67 63  1  0
 67 71  1  0
 68 67  1  0
 69 70  1  0
 69 68  1  0
 70 66  1  0
 71 72  2  0
 72 73  1  0
 74 73  2  0
 75 74  1  0
 76 50  1  0
 76 77  1  0
 76 86  1  0
 77 80  1  0
 78 82  1  0
 78 77  1  0
 79 78  2  0
 82 81  1  0
 84 82  1  0
 84 85  1  0
 84 83  1  0
 86 89  1  1
 86 87  1  0
 88 86  1  0
M  ISO  4   1 100  16 100  48 101  49 101
M  END
>  <TORSDO>  (93) 
F 18

>  <SCORE>  (93) 
-13.686

>  <name>  (93) 
92

>  <ligand_id>  (93) 
92

>  <original_smiles>  (93) 
[H]c1nc(N([H])C(=O)N2C([H])([H])C([H])([H])C([H])([H])C([H])(n3nc(-c4c([H])c([H])c(Oc5c([H])c([H])c(F)c([H])c5F)c([H])c4[H])c(C(=O)N([H])[H])c3N([H])[H])C2([H])[H])c([H])c(C([H])([H])[H])c1C([H])([H])C([H])([H])C([H])([H])Oc1c([H])c([H])c2c(c1[H])C([H])([H])N(C(=O)C([H])(N([H])C(=O)C([H])(N([H])C([H])([H])[H])C([H])([H])[H])C(C([H])([H])[H])(C([H])([H])[H])C([H])([H])[H])C([H])(C(=O)N([H])C1([H])c3c([H])c([H])c([H])c([H])c3C([H])([H])C([H])([H])C1([H])[H])C2([H])[H]

>  <smiles>  (93) 
[H]c1nc(N([H])C(=O)N2C([H])([H])C([H])([H])C([H])([H])C([H])(n3nc(-c4c([H])c([H])c(Oc5c([H])c([H])c(F)c([H])c5F)c([H])c4[H])c(C(=O)N([H])[H])c3N([H])[H])C2([H])[H])c([H])c(C([H])([H])[H])c1C([H])([H])C([H])([H])C([H])([H])Oc1c([H])c([H])c2c(c1[H])C([H])([H])N(C(=O)C([H])(N([H])C(=O)C([H])(N([H])C([H])([H])[H])C([H])([H])[H])C(C([H])([H])[H])(C([H])([H])[H])C([H])([H])[H])C([H])(C(=O)N([H])C1([H])c3c([H])c([H])c([H])c([H])c3C([H])([H])C([H])([H])C1([H])[H])C2([H])[H]

$$$$
93:0:0
     RDKit          3D

 93101  0  0  1  0  0  0  0  0999 V2000
  -30.2410  -21.6540   18.9320 C   0  0  0  0  0  2  0  0  0  0  0  0
  -32.0350  -22.8820   17.5450 C   0  0  0  0  0  1  0  0  0  0  0  0
  -30.6140  -22.9330   18.1390 C   0  0  0  0  0  3  0  0  0  0  0  0
  -30.3430  -24.2680   18.8760 C   0  0  0  0  0  2  0  0  0  0  0  0
  -28.9270  -24.8410   18.6170 C   0  0  0  0  0  2  0  0  0  0  0  0
  -28.8300  -26.3770   18.7200 C   0  0  0  0  0  2  0  0  0  0  0  0
  -28.4430  -26.8300   20.0200 O   0  0  0  0  0  0  0  0  0  0  0  0
  -24.6420  -31.8980   23.2700 C   0  0  0  0  0  0  0  0  0  0  0  0
  -27.2520  -27.5200   20.0800 C   0  0  0  0  0  0  0  0  0  0  0  0
  -23.4130  -30.5220   21.6200 C   0  0  0  0  0  3  0  0  0  0  0  0
  -24.8470  -28.9980   20.1620 C   0  0  0  0  0  0  0  0  0  0  0  0
  -25.9340  -30.8800   21.4020 C   0  0  0  0  0  2  0  0  0  0  0  0
  -26.0090  -29.5160   20.7480 C   0  0  0  0  0  0  0  0  0  0  0  0
  -27.2100  -28.7760   20.7200 C   0  0  0  0  0  3  0  0  0  0  0  0
  -26.0690  -26.9970   19.5120 C   0  0  0  0  0  3  0  0  0  0  0  0
  -24.8680  -27.7320   19.5520 C   0  0  0  0  0  3  0  0  0  0  0  0
  -23.6050  -29.8590   20.2300 C   0  0  0  0  0  2  0  0  0  0  0  0
  -24.6820  -31.1150   22.1550 N   0  0  0  0  0  0  0  0  0  0  0  0
  -23.5690  -32.1650   23.8260 O   0  0  0  0  0  0  0  0  0  0  0  0
  -22.7710  -29.4880   22.5730 C   0  0  0  0  0  0  0  0  0  0  0  0
  -21.4540  -29.2780   22.4260 N   0  0  0  0  0  0  0  0  0  0  0  0
  -23.4560  -28.8790   23.3990 O   0  0  0  0  0  0  0  0  0  0  0  0
  -20.9620  -29.8210   21.7290 H   0  0  0  0  0  0  0  0  0  0  0  0
  -18.1070  -27.9840   22.8390 C   0  0  0  0  0  0  0  0  0  0  0  0
  -20.6440  -28.3250   23.1850 C   0  0  0  0  0  3  0  0  0  0  0  0
  -20.8100  -26.8910   22.6310 C   0  0  0  0  0  2  0  0  0  0  0  0
  -19.7500  -26.5220   21.5890 C   0  0  0  0  0  2  0  0  0  0  0  0
  -18.3450  -26.6320   22.1890 C   0  0  0  0  0  2  0  0  0  0  0  0
  -19.1870  -28.7860   23.2920 C   0  0  0  0  0  0  0  0  0  0  0  0
  -18.9130  -30.0510   23.8570 C   0  0  0  0  0  3  0  0  0  0  0  0
  -17.5890  -30.5140   23.9750 C   0  0  0  0  0  3  0  0  0  0  0  0
  -16.5210  -29.7090   23.5390 C   0  0  0  0  0  3  0  0  0  0  0  0
  -16.7810  -28.4460   22.9770 C   0  0  0  0  0  3  0  0  0  0  0  0
  -25.9390  -32.5140   23.8830 C   0  0  0  0  0  3  0  0  0  0  0  0
  -25.6470  -33.9150   24.2130 N   0  0  0  0  0  0  0  0  0  0  0  0
  -25.9890  -34.9620   23.4500 C   0  0  0  0  0  0  0  0  0  0  0  0
  -26.6550  -34.8510   22.4180 O   0  0  0  0  0  0  0  0  0  0  0  0
  -25.0580  -34.0780   25.0170 H   0  0  0  0  0  0  0  0  0  0  0  0
  -24.2810  -36.7730   23.0940 C   0  0  0  0  0  1  0  0  0  0  0  0
  -25.5160  -36.3560   23.9070 C   0  0  0  0  0  3  0  0  0  0  0  0
  -27.6560  -37.2210   24.7470 C   0  0  0  0  0  1  0  0  0  0  0  0
  -26.5610  -37.3970   23.7960 N   0  0  0  0  0  0  0  0  0  0  0  0
  -26.1640  -38.3220   23.9360 H   0  0  0  0  0  0  0  0  0  0  0  0
  -26.4580  -31.7350   25.1530 C   0  0  1  0  0  0  0  0  0  0  0  0
  -25.3700  -31.5020   26.2260 C   0  0  0  0  0  1  0  0  0  0  0  0
  -27.0300  -30.3570   24.7520 C   0  0  0  0  0  1  0  0  0  0  0  0
  -27.6160  -32.5210   25.8120 C   0  0  0  0  0  1  0  0  0  0  0  0
  -31.3210  -21.0770   19.8840 C   0  0  0  0  0  2  0  0  0  0  0  0
  -31.2930  -17.4380   19.2940 C   0  0  0  0  0  3  0  0  0  0  0  0
  -30.7090  -19.0400   21.3870 C   0  0  0  0  0  0  0  0  0  0  0  0
  -31.1400  -19.5810   20.1490 C   0  0  0  0  0  0  0  0  0  0  0  0
  -30.8670  -16.8740   20.5310 C   0  0  0  0  0  0  0  0  0  0  0  0
  -30.3730  -19.9100   22.5830 C   0  0  0  0  0  1  0  0  0  0  0  0
  -31.4390  -18.7710   19.1080 N   0  0  0  0  0  0  0  0  0  0  0  0
  -30.5770  -17.7000   21.5710 N   0  0  0  0  0  0  0  0  0  0  0  0
  -31.2940  -14.4550   20.0730 C   0  0  0  0  0  0  0  0  0  0  0  0
  -30.8990  -12.2830   18.9790 C   0  0  0  0  0  2  0  0  0  0  0  0
  -29.9480  -12.5080   17.7870 C   0  0  0  0  0  2  0  0  0  0  0  0
  -28.4800  -12.4130   18.2440 C   0  0  0  0  0  2  0  0  0  0  0  0
  -28.1870  -13.2860   19.4950 C   0  0  0  0  0  3  0  0  0  0  0  0
  -29.2530  -13.0580   20.5900 C   0  0  0  0  0  2  0  0  0  0  0  0
  -30.5820  -13.2970   19.9980 N   0  0  0  0  0  0  0  0  0  0  0  0
  -32.4020  -14.5840   19.5470 O   0  0  0  0  0  0  0  0  0  0  0  0
  -30.6690  -15.4710   20.6950 N   0  0  0  0  0  0  0  0  0  0  0  0
  -29.8540  -15.2110   21.2260 H   0  0  0  0  0  0  0  0  0  0  0  0
  -25.8140  -13.9710   20.2240 C   0  0  0  0  0  0  0  0  0  0  0  0
  -24.7350  -13.2360   20.6360 C   0  0  0  0  0  0  0  0  0  0  0  0
  -25.1640  -11.8740   20.6390 C   0  0  0  0  0  0  0  0  0  0  0  0
  -26.8330  -13.0580   20.0010 N   0  0  0  0  0  0  0  0  0  0  0  0
  -26.4460  -11.7930   20.3060 N   0  0  0  0  0  0  0  0  0  0  0  0
  -24.4150  -10.6350   20.8840 C   0  0  0  0  0  0  0  0  0  0  0  0
  -24.7760   -9.7460   21.9180 C   0  0  0  0  0  3  0  0  0  0  0  0
  -24.0290   -8.5700   22.1460 C   0  0  0  0  0  3  0  0  0  0  0  0
  -22.9050   -8.2770   21.3380 C   0  0  0  0  0  0  0  0  0  0  0  0
  -22.5630   -9.1540   20.2940 C   0  0  0  0  0  3  0  0  0  0  0  0
  -23.3120  -10.3200   20.0660 C   0  0  0  0  0  3  0  0  0  0  0  0
  -22.1370   -7.1450   21.4670 O   0  0  0  0  0  0  0  0  0  0  0  0
  -21.9170   -6.5610   22.6900 C   0  0  0  0  0  0  0  0  0  0  0  0
  -21.2930   -7.2560   23.7470 C   0  0  0  0  0  3  0  0  0  0  0  0
  -21.0220   -6.5960   24.9620 C   0  0  0  0  0  3  0  0  0  0  0  0
  -21.3640   -5.2410   25.1180 C   0  0  0  0  0  0  0  0  0  0  0  0
  -21.9800   -4.5440   24.0640 C   0  0  0  0  0  3  0  0  0  0  0  0
  -22.2530   -5.2020   22.8520 C   0  0  0  0  0  0  0  0  0  0  0  0
  -22.8280   -4.5200   21.8330 F   0  0  0  0  0  0  0  0  0  0  0  0
  -21.0970   -4.6030   26.2820 F   0  0  0  0  0  0  0  0  0  0  0  0
  -23.3550  -13.7560   20.9200 C   0  0  0  0  0  0  0  0  0  0  0  0
  -22.6360  -13.1150   21.8340 N   0  0  0  0  0  0  0  0  0  0  0  0
  -22.9250  -14.7670   20.3670 O   0  0  0  0  0  0  0  0  0  0  0  0
  -22.9980  -12.3020   22.3090 H   0  0  0  0  0  0  0  0  0  0  0  0
  -21.7110  -13.4470   22.0660 H   0  0  0  0  0  0  0  0  0  0  0  0
  -26.0060  -15.3320   20.0030 N   0  0  0  0  0  0  0  0  0  0  0  0
  -25.2560  -16.0050   20.1240 H   0  0  0  0  0  0  0  0  0  0  0  0
  -26.8630  -15.7500   19.6630 H   0  0  0  0  0  0  0  0  0  0  0  0
  1 48  1  0
  3  2  1  0
  3  4  1  0
  3  1  1  0
  5  6  1  0
  5  4  1  0
  6  7  1  0
  7  9  1  0
  8 19  2  0
  9 14  1  0
 10 18  1  0
 10 20  1  0
 11 17  1  0
 11 13  1  0
 12 18  1  0
 13 12  1  0
 14 13  2  0
 15 16  1  0
 15  9  2  0
 16 11  2  0
 17 10  1  0
 18  8  1  0
 20 22  2  0
 21 20  1  0
 23 21  1  0
 24 33  2  0
 24 29  1  0
 25 21  1  0
 25 29  1  0
 26 25  1  0
 27 28  1  0
 27 26  1  0
 28 24  1  0
 29 30  2  0
 30 31  1  0
 32 31  2  0
 33 32  1  0
 34  8  1  0
 34 35  1  0
 34 44  1  0
 35 38  1  0
 36 40  1  0
 36 35  1  0
 37 36  2  0
 40 39  1  0
 42 40  1  0
 42 43  1  0
 42 41  1  0
 44 47  1  1
 44 45  1  0
 46 44  1  0
 48 51  1  0
 49 52  1  0
 50 55  1  0
 50 53  1  0
 51 50  2  0
 52 64  1  0
 52 55  2  0
 54 49  2  0
 54 51  1  0
 56 64  1  0
 57 62  1  0
 58 59  1  0
 58 57  1  0
 60 59  1  0
 60 69  1  0
 60 61  1  0
 62 56  1  0
 62 61  1  0
 63 56  2  0
 64 65  1  0
 66 67  2  0
 67 68  1  0
 67 86  1  0
 68 71  1  0
 69 66  1  0
 69 70  1  0
 70 68  2  0
 71 72  1  0
 72 73  2  0
 74 77  1  0
 74 73  1  0
 75 74  2  0
 76 75  1  0
 76 71  2  0
 77 78  1  0
 78 83  2  0
 78 79  1  0
 79 80  2  0
 80 81  1  0
 81 85  1  0
 82 81  2  0
 83 82  1  0
 84 83  1  0
 86 87  1  0
 87 90  1  0
 87 89  1  0
 88 86  2  0
 91 92  1  0
 91 66  1  0
 93 91  1  0
M  ISO  4   6 101   7 101  56 100  64 100
M  END
>  <TORSDO>  (94) 
F 22

>  <SCORE>  (94) 
-12.044

>  <name>  (94) 
93

>  <ligand_id>  (94) 
93

>  <original_smiles>  (94) 
[H]c1nc(C([H])([H])C([H])([H])C([H])(C([H])([H])[H])C([H])([H])C([H])([H])C([H])([H])Oc2c([H])c([H])c3c(c2[H])C([H])([H])N(C(=O)C([H])(N([H])C(=O)C([H])(N([H])C([H])([H])[H])C([H])([H])[H])C(C([H])([H])[H])(C([H])([H])[H])C([H])([H])[H])C([H])(C(=O)N([H])C2([H])c4c([H])c([H])c([H])c([H])c4C([H])([H])C([H])([H])C2([H])[H])C3([H])[H])c(C([H])([H])[H])nc1N([H])C(=O)N1C([H])([H])C([H])([H])C([H])([H])C([H])(n2nc(-c3c([H])c([H])c(Oc4c([H])c([H])c(F)c([H])c4F)c([H])c3[H])c(C(=O)N([H])[H])c2N([H])[H])C1([H])[H]

>  <smiles>  (94) 
[H]c1nc(C([H])([H])C([H])([H])C([H])(C([H])([H])[H])C([H])([H])C([H])([H])C([H])([H])Oc2c([H])c([H])c3c(c2[H])C([H])([H])N(C(=O)C([H])(N([H])C(=O)C([H])(N([H])C([H])([H])[H])C([H])([H])[H])C(C([H])([H])[H])(C([H])([H])[H])C([H])([H])[H])C([H])(C(=O)N([H])C2([H])c4c([H])c([H])c([H])c([H])c4C([H])([H])C([H])([H])C2([H])[H])C3([H])[H])c(C([H])([H])[H])nc1N([H])C(=O)N1C([H])([H])C([H])([H])C([H])([H])C([H])(n2nc(-c3c([H])c([H])c(Oc4c([H])c([H])c(F)c([H])c4F)c([H])c3[H])c(C(=O)N([H])[H])c2N([H])[H])C1([H])[H]

$$$$
94:0:0
     RDKit          3D

 93101  0  0  1  0  0  0  0  0999 V2000
  -28.9590  -21.8240   19.9340 C   0  0  0  0  0  0  0  0  0  0  0  0
  -29.6420  -20.6590   20.5990 C   0  0  0  0  0  0  0  0  0  0  0  0
  -28.1340  -21.3530   18.8710 C   0  0  0  0  0  0  0  0  0  0  0  0
  -29.5120  -19.2410   20.1150 C   0  0  0  0  0  0  0  0  0  0  0  0
  -27.3420  -22.2850   17.9800 C   0  0  0  0  0  1  0  0  0  0  0  0
  -27.9900  -20.0410   18.5220 N   0  0  0  0  0  0  0  0  0  0  0  0
  -28.6610  -19.0310   19.0880 N   0  0  0  0  0  0  0  0  0  0  0  0
  -29.6960  -21.6900   22.9340 C   0  0  0  0  0  1  0  0  0  0  0  0
  -31.8970  -21.3890   21.6550 C   0  0  0  0  0  1  0  0  0  0  0  0
  -30.4670  -20.8780   21.8770 C   0  0  0  0  0  3  0  0  0  0  0  0
  -30.4410  -23.8500   19.3480 C   0  0  0  0  0  1  0  0  0  0  0  0
  -29.1920  -23.4750   20.1610 C   0  0  0  0  0  3  0  0  0  0  0  0
  -28.0960  -24.7650   19.9330 C   0  0  0  0  0  2  0  0  0  0  0  0
  -28.3230  -26.2880   20.2310 O   0  0  0  0  0  0  0  0  0  0  0  0
  -24.6360  -31.8920   23.3010 C   0  0  0  0  0  0  0  0  0  0  0  0
  -27.2720  -27.2820   20.1560 C   0  0  0  0  0  0  0  0  0  0  0  0
  -23.4710  -30.5570   21.5880 C   0  0  0  0  0  3  0  0  0  0  0  0
  -24.9460  -29.0340   20.1310 C   0  0  0  0  0  0  0  0  0  0  0  0
  -26.0270  -30.8250   21.4820 C   0  0  0  0  0  2  0  0  0  0  0  0
  -26.1130  -29.4570   20.7830 C   0  0  0  0  0  0  0  0  0  0  0  0
  -27.2760  -28.5960   20.7800 C   0  0  0  0  0  3  0  0  0  0  0  0
  -26.0850  -26.9700   19.4590 C   0  0  0  0  0  3  0  0  0  0  0  0
  -24.9480  -27.8060   19.4530 C   0  0  0  0  0  3  0  0  0  0  0  0
  -23.7180  -29.9300   20.1890 C   0  0  0  0  0  2  0  0  0  0  0  0
  -24.7300  -31.1110   22.1800 N   0  0  0  0  0  0  0  0  0  0  0  0
  -23.5390  -32.1590   23.8160 O   0  0  0  0  0  0  0  0  0  0  0  0
  -22.7710  -29.5170   22.5000 C   0  0  0  0  0  0  0  0  0  0  0  0
  -21.4450  -29.3550   22.3420 N   0  0  0  0  0  0  0  0  0  0  0  0
  -23.4250  -28.8590   23.3120 O   0  0  0  0  0  0  0  0  0  0  0  0
  -20.9730  -29.9400   21.6680 H   0  0  0  0  0  0  0  0  0  0  0  0
  -18.0530  -28.1390   22.7290 C   0  0  0  0  0  0  0  0  0  0  0  0
  -20.6060  -28.3920   23.0590 C   0  0  0  0  0  3  0  0  0  0  0  0
  -20.7200  -26.9810   22.4370 C   0  0  0  0  0  2  0  0  0  0  0  0
  -19.6400  -26.6940   21.3890 C   0  0  0  0  0  2  0  0  0  0  0  0
  -18.2450  -26.8150   22.0070 C   0  0  0  0  0  2  0  0  0  0  0  0
  -19.1620  -28.8870   23.2090 C   0  0  0  0  0  0  0  0  0  0  0  0
  -18.9290  -30.1250   23.8460 C   0  0  0  0  0  3  0  0  0  0  0  0
  -17.6210  -30.6180   24.0040 C   0  0  0  0  0  3  0  0  0  0  0  0
  -16.5260  -29.8690   23.5390 C   0  0  0  0  0  3  0  0  0  0  0  0
  -16.7420  -28.6300   22.9090 C   0  0  0  0  0  3  0  0  0  0  0  0
  -25.9000  -32.5040   23.9780 C   0  0  0  0  0  3  0  0  0  0  0  0
  -26.3370  -31.7310   25.2830 C   0  0  1  0  0  0  0  0  0  0  0  0
  -25.1890  -31.5270   26.3020 C   0  0  0  0  0  1  0  0  0  0  0  0
  -26.9060  -30.3380   24.9300 C   0  0  0  0  0  1  0  0  0  0  0  0
  -27.4730  -32.5030   25.9930 C   0  0  0  0  0  1  0  0  0  0  0  0
  -25.6030  -33.9110   24.2930 N   0  0  0  0  0  0  0  0  0  0  0  0
  -25.9480  -34.9560   23.5270 C   0  0  0  0  0  0  0  0  0  0  0  0
  -26.6160  -34.8360   22.4970 O   0  0  0  0  0  0  0  0  0  0  0  0
  -25.0080  -34.0780   25.0920 H   0  0  0  0  0  0  0  0  0  0  0  0
  -24.2220  -36.7570   23.1890 C   0  0  0  0  0  1  0  0  0  0  0  0
  -25.4810  -36.3570   23.9730 C   0  0  0  0  0  3  0  0  0  0  0  0
  -27.6370  -37.2500   24.7400 C   0  0  0  0  0  1  0  0  0  0  0  0
  -26.5180  -37.4010   23.8140 N   0  0  0  0  0  0  0  0  0  0  0  0
  -26.1220  -38.3280   23.9430 H   0  0  0  0  0  0  0  0  0  0  0  0
  -30.3720  -17.8760   20.5410 C   0  0  0  0  0  2  0  0  0  0  0  0
  -30.8310  -15.1640   20.2540 C   0  0  0  0  0  0  0  0  0  0  0  0
  -30.7640  -12.7610   19.4360 C   0  0  0  0  0  2  0  0  0  0  0  0
  -29.8640  -12.6320   18.1860 C   0  0  0  0  0  2  0  0  0  0  0  0
  -28.3870  -12.4410   18.5890 C   0  0  0  0  0  2  0  0  0  0  0  0
  -27.9400  -13.4210   19.7070 C   0  0  0  0  0  3  0  0  0  0  0  0
  -28.9690  -13.5080   20.8520 C   0  0  0  0  0  2  0  0  0  0  0  0
  -30.2460  -13.8990   20.2440 N   0  0  0  0  0  0  0  0  0  0  0  0
  -32.0480  -15.2230   20.0440 O   0  0  0  0  0  0  0  0  0  0  0  0
  -30.0360  -16.3440   20.3130 N   0  0  0  0  0  0  0  0  0  0  0  0
  -29.0470  -16.1540   20.3590 H   0  0  0  0  0  0  0  0  0  0  0  0
  -25.5600  -14.0250   20.4220 C   0  0  0  0  0  0  0  0  0  0  0  0
  -24.4850  -13.2630   20.7860 C   0  0  0  0  0  0  0  0  0  0  0  0
  -24.9380  -11.9080   20.7720 C   0  0  0  0  0  0  0  0  0  0  0  0
  -26.5960  -13.1360   20.1940 N   0  0  0  0  0  0  0  0  0  0  0  0
  -26.2310  -11.8580   20.4730 N   0  0  0  0  0  0  0  0  0  0  0  0
  -24.1960  -10.6550   20.9620 C   0  0  0  0  0  0  0  0  0  0  0  0
  -24.5960   -9.6950   21.9160 C   0  0  0  0  0  3  0  0  0  0  0  0
  -23.8530   -8.5080   22.0930 C   0  0  0  0  0  3  0  0  0  0  0  0
  -22.6960   -8.2710   21.3150 C   0  0  0  0  0  0  0  0  0  0  0  0
  -22.3150   -9.2200   20.3480 C   0  0  0  0  0  3  0  0  0  0  0  0
  -23.0590  -10.3980   20.1700 C   0  0  0  0  0  3  0  0  0  0  0  0
  -21.9260   -7.1350   21.3990 O   0  0  0  0  0  0  0  0  0  0  0  0
  -21.7960   -6.4410   22.5740 C   0  0  0  0  0  0  0  0  0  0  0  0
  -21.2620   -7.0390   23.7380 C   0  0  0  0  0  3  0  0  0  0  0  0
  -21.0800   -6.2700   24.9040 C   0  0  0  0  0  3  0  0  0  0  0  0
  -21.4210   -4.9040   24.9090 C   0  0  0  0  0  0  0  0  0  0  0  0
  -21.9470   -4.3050   23.7510 C   0  0  0  0  0  3  0  0  0  0  0  0
  -22.1320   -5.0730   22.5870 C   0  0  0  0  0  0  0  0  0  0  0  0
  -22.6190   -4.4850   21.4660 F   0  0  0  0  0  0  0  0  0  0  0  0
  -21.2410   -4.1630   26.0270 F   0  0  0  0  0  0  0  0  0  0  0  0
  -23.0890  -13.7570   21.0330 C   0  0  0  0  0  0  0  0  0  0  0  0
  -22.3450  -13.0870   21.9050 N   0  0  0  0  0  0  0  0  0  0  0  0
  -22.6670  -14.7760   20.4860 O   0  0  0  0  0  0  0  0  0  0  0  0
  -22.7000  -12.2680   22.3770 H   0  0  0  0  0  0  0  0  0  0  0  0
  -21.4060  -13.4010   22.1070 H   0  0  0  0  0  0  0  0  0  0  0  0
  -25.7370  -15.3930   20.2380 N   0  0  0  0  0  0  0  0  0  0  0  0
  -24.9680  -16.0470   20.3320 H   0  0  0  0  0  0  0  0  0  0  0  0
  -26.5690  -15.8200   19.8520 H   0  0  0  0  0  0  0  0  0  0  0  0
  1 12  1  0
  1  2  1  0
  2 10  1  0
  3  1  2  0
  4 55  1  0
  4  2  2  0
  5  3  1  0
  6  3  1  0
  6  7  2  0
  7  4  1  0
  9 10  1  0
 10  8  1  0
 12 11  1  0
 13 12  1  0
 13 14  1  0
 15 26  2  0
 16 14  1  0
 16 21  1  0
 17 25  1  0
 17 27  1  0
 18 24  1  0
 18 20  1  0
 19 25  1  0
 20 19  1  0
 21 20  2  0
 22 16  2  0
 23 22  1  0
 23 18  2  0
 24 17  1  0
 25 15  1  0
 27 29  2  0
 28 27  1  0
 30 28  1  0
 31 40  2  0
 31 36  1  0
 32 28  1  0
 32 36  1  0
 33 32  1  0
 34 35  1  0
 34 33  1  0
 35 31  1  0
 36 37  2  0
 37 38  1  0
 39 38  2  0
 40 39  1  0
 41 15  1  0
 41 46  1  0
 41 42  1  0
 42 45  1  1
 42 43  1  0
 44 42  1  0
 46 49  1  0
 47 51  1  0
 47 46  1  0
 48 47  2  0
 51 50  1  0
 53 54  1  0
 53 51  1  0
 53 52  1  0
 56 64  1  0
 57 62  1  0
 58 59  1  0
 58 57  1  0
 60 59  1  0
 60 69  1  0
 60 61  1  0
 62 56  1  0
 62 61  1  0
 63 56  2  0
 64 65  1  0
 64 55  1  0
 66 67  2  0
 67 86  1  0
 68 67  1  0
 68 71  1  0
 69 66  1  0
 69 70  1  0
 70 68  2  0
 71 72  1  0
 72 73  2  0
 74 77  1  0
 74 73  1  0
 75 74  2  0
 76 75  1  0
 76 71  2  0
 77 78  1  0
 78 83  2  0
 78 79  1  0
 79 80  2  0
 80 81  1  0
 81 85  1  0
 82 81  2  0
 83 82  1  0
 84 83  1  0
 86 87  1  0
 87 90  1  0
 87 89  1  0
 88 86  2  0
 91 92  1  0
 91 66  1  0
 93 91  1  0
M  ISO  4  13 101  14 101  56 100  64 100
M  END
>  <TORSDO>  (95) 
F 20

>  <SCORE>  (95) 
-14.579

>  <name>  (95) 
94

>  <ligand_id>  (95) 
94

>  <original_smiles>  (95) 
[H]c1c([H])c([H])c2c(c1[H])C([H])([H])C([H])([H])C([H])([H])C2([H])N([H])C(=O)C1([H])N(C(=O)C([H])(N([H])C(=O)C([H])(N([H])C([H])([H])[H])C([H])([H])[H])C(C([H])([H])[H])(C([H])([H])[H])C([H])([H])[H])C([H])([H])c2c([H])c(OC([H])([H])C([H])(c3c(C([H])([H])[H])nnc(C([H])([H])N([H])C(=O)N4C([H])([H])C([H])([H])C([H])([H])C([H])(n5nc(-c6c([H])c([H])c(Oc7c([H])c([H])c(F)c([H])c7F)c([H])c6[H])c(C(=O)N([H])[H])c5N([H])[H])C4([H])[H])c3C([H])(C([H])([H])[H])C([H])([H])[H])C([H])([H])[H])c([H])c([H])c2C1([H])[H]

>  <smiles>  (95) 
[H]c1c([H])c([H])c2c(c1[H])C([H])([H])C([H])([H])C([H])([H])C2([H])N([H])C(=O)C1([H])N(C(=O)C([H])(N([H])C(=O)C([H])(N([H])C([H])([H])[H])C([H])([H])[H])C(C([H])([H])[H])(C([H])([H])[H])C([H])([H])[H])C([H])([H])c2c([H])c(OC([H])([H])C([H])(c3c(C([H])([H])[H])nnc(C([H])([H])N([H])C(=O)N4C([H])([H])C([H])([H])C([H])([H])C([H])(n5nc(-c6c([H])c([H])c(Oc7c([H])c([H])c(F)c([H])c7F)c([H])c6[H])c(C(=O)N([H])[H])c5N([H])[H])C4([H])[H])c3C([H])(C([H])([H])[H])C([H])([H])[H])C([H])([H])[H])c([H])c([H])c2C1([H])[H]

$$$$
95:0:0
     RDKit          3D

 94 99  0  0  1  0  0  0  0  0999 V2000
  -27.0580  -20.3860   19.7110 C   0  0  0  0  0  2  0  0  0  0  0  0
  -28.4130  -20.3370   20.0910 C   0  0  0  0  0  3  0  0  0  0  0  0
  -26.6850  -19.6350   18.5840 C   0  0  0  0  0  0  0  0  0  0  0  0
  -29.0410  -18.8530   19.7270 C   0  0  0  0  0  3  0  0  0  0  0  0
  -25.2800  -19.7300   18.0250 C   0  0  0  0  0  1  0  0  0  0  0  0
  -27.5880  -18.9130   17.8830 N   0  0  0  0  0  0  0  0  0  0  0  0
  -28.7980  -18.6740   18.4030 N   0  0  0  0  0  2  0  0  0  0  0  0
  -27.5800  -17.1850   21.0370 C   0  0  0  0  0  1  0  0  0  0  0  0
  -28.9030  -17.0530   20.2800 C   0  0  0  0  0  2  0  0  0  0  0  0
  -29.0800  -12.3440   20.3820 C   0  0  0  0  0 15  0  0  0  0  0  0
  -28.8230  -15.7250   18.1100 C   0  0  0  0  0  1  0  0  0  0  0  0
  -29.3710  -15.1800   19.5360 C   0  0  0  0  0  2  0  0  0  0  0  0
  -30.8190  -15.8490   19.4110 C   0  0  0  0  0  2  0  0  0  0  0  0
  -31.7230  -14.6280   21.2060 C   0  0  0  0  0  0  0  0  0  0  0  0
  -31.2080  -13.2080   19.3500 C   0  0  0  0  0  3  0  0  0  0  0  0
  -29.8900  -13.1080   18.0480 C   0  0  0  0  0  3  0  0  0  0  0  0
  -28.0460  -13.2350   18.4960 C   0  0  0  0  0  2  0  0  0  0  0  0
  -27.6220  -13.7620   20.2760 C   0  0  0  0  0  2  0  0  0  0  0  0
  -29.1100  -13.9450   21.6000 C   0  0  0  0  0  1  0  0  0  0  0  0
  -30.7780  -13.7640   20.9670 N   0  0  0  0  0  0  0  0  0  0  0  0
  -32.8940  -14.3660   21.1170 O   0  0  0  0  0  0  0  0  0  0  0  0
  -31.4700  -15.8120   20.7060 N   0  0  0  0  0  0  0  0  0  0  0  0
  -32.2190  -16.4770   20.8290 H   0  0  0  0  0  0  0  0  0  0  0  0
  -25.3140  -13.7930   20.9760 C   0  0  0  0  0  0  0  0  0  0  0  0
  -24.3600  -12.8910   21.2190 C   0  0  0  0  0  0  0  0  0  0  0  0
  -24.9570  -11.6030   21.1010 C   0  0  0  0  0  0  0  0  0  0  0  0
  -26.4440  -13.0910   20.7310 N   0  0  0  0  0  0  0  0  0  0  0  0
  -26.2530  -11.7330   20.8180 N   0  0  0  0  0  0  0  0  0  0  0  0
  -24.3110  -10.2910   21.1760 C   0  0  0  0  0  0  0  0  0  0  0  0
  -24.6840   -9.3170   22.1260 C   0  0  0  0  0  3  0  0  0  0  0  0
  -23.9700   -8.1010   22.2130 C   0  0  0  0  0  3  0  0  0  0  0  0
  -22.8740   -7.8560   21.3520 C   0  0  0  0  0  0  0  0  0  0  0  0
  -22.5260   -8.8210   20.3920 C   0  0  0  0  0  3  0  0  0  0  0  0
  -23.2390  -10.0250   20.3000 C   0  0  0  0  0  3  0  0  0  0  0  0
  -22.1340   -6.7010   21.3480 O   0  0  0  0  0  0  0  0  0  0  0  0
  -21.9000   -5.9920   22.4980 C   0  0  0  0  0  0  0  0  0  0  0  0
  -21.1970   -6.5490   23.5870 C   0  0  0  0  0  3  0  0  0  0  0  0
  -20.9170   -5.7600   24.7220 C   0  0  0  0  0  3  0  0  0  0  0  0
  -21.3310   -4.4150   24.7640 C   0  0  0  0  0  0  0  0  0  0  0  0
  -22.0280   -3.8580   23.6770 C   0  0  0  0  0  3  0  0  0  0  0  0
  -22.3070   -4.6440   22.5460 C   0  0  0  0  0  0  0  0  0  0  0  0
  -22.9580   -4.0970   21.4910 F   0  0  0  0  0  0  0  0  0  0  0  0
  -21.0590   -3.6560   25.8500 F   0  0  0  0  0  0  0  0  0  0  0  0
  -22.9460  -13.2810   21.4340 C   0  0  0  0  0  0  0  0  0  0  0  0
  -22.2390  -12.5340   22.2640 N   0  0  0  0  0  0  0  0  0  0  0  0
  -22.4920  -14.3070   20.9260 O   0  0  0  0  0  0  0  0  0  0  0  0
  -22.6390  -11.7170   22.6990 H   0  0  0  0  0  0  0  0  0  0  0  0
  -21.2800  -12.7800   22.4680 H   0  0  0  0  0  0  0  0  0  0  0  0
  -25.2390  -15.1690   20.9070 N   0  0  0  0  0  0  0  0  0  0  0  0
  -24.3520  -15.6480   21.0180 H   0  0  0  0  0  0  0  0  0  0  0  0
  -26.0100  -15.7850   20.6920 H   0  0  0  0  0  0  0  0  0  0  0  0
  -28.8840  -22.1160   20.2870 C   0  0  0  0  0  3  0  0  0  0  0  0
  -28.0320  -23.8570   20.2350 C   0  0  0  0  0  3  0  0  0  0  0  0
  -28.3330  -25.5770   20.4520 O   0  0  0  0  0  0  0  0  0  0  0  0
  -24.7660  -31.9280   23.2420 C   0  0  0  0  0  0  0  0  0  0  0  0
  -27.4060  -26.8110   20.4020 C   0  0  0  0  0  0  0  0  0  0  0  0
  -23.6570  -30.4790   21.6040 C   0  0  0  0  0  3  0  0  0  0  0  0
  -25.1600  -28.8300   20.2700 C   0  0  0  0  0  0  0  0  0  0  0  0
  -26.2400  -30.6440   21.5700 C   0  0  0  0  0  2  0  0  0  0  0  0
  -26.3350  -29.2010   20.9350 C   0  0  0  0  0  0  0  0  0  0  0  0
  -27.4540  -28.2150   20.9700 C   0  0  0  0  0  3  0  0  0  0  0  0
  -26.2010  -26.6510   19.6910 C   0  0  0  0  0  3  0  0  0  0  0  0
  -25.1310  -27.5820   19.6300 C   0  0  0  0  0  3  0  0  0  0  0  0
  -23.9500  -29.7700   20.2540 C   0  0  0  0  0  2  0  0  0  0  0  0
  -24.9110  -31.0500   22.1900 N   0  0  0  0  0  0  0  0  0  0  0  0
  -23.6500  -32.2220   23.7040 O   0  0  0  0  0  0  0  0  0  0  0  0
  -22.9250  -29.5040   22.5660 C   0  0  0  0  0  0  0  0  0  0  0  0
  -21.5950  -29.3520   22.4200 N   0  0  0  0  0  0  0  0  0  0  0  0
  -23.5660  -28.8850   23.4190 O   0  0  0  0  0  0  0  0  0  0  0  0
  -21.1300  -29.9020   21.7110 H   0  0  0  0  0  0  0  0  0  0  0  0
  -18.1830  -28.2130   22.9330 C   0  0  0  0  0  0  0  0  0  0  0  0
  -20.7500  -28.4280   23.1860 C   0  0  0  0  0  3  0  0  0  0  0  0
  -20.8190  -26.9970   22.6010 C   0  0  0  0  0  2  0  0  0  0  0  0
  -19.7070  -26.7060   21.5880 C   0  0  0  0  0  2  0  0  0  0  0  0
  -18.3310  -26.8690   22.2400 C   0  0  0  0  0  2  0  0  0  0  0  0
  -19.3180  -28.9520   23.3630 C   0  0  0  0  0  0  0  0  0  0  0  0
  -19.1220  -30.2070   23.9780 C   0  0  0  0  0  3  0  0  0  0  0  0
  -17.8250  -30.7250   24.1630 C   0  0  0  0  0  3  0  0  0  0  0  0
  -16.7060  -29.9850   23.7450 C   0  0  0  0  0  3  0  0  0  0  0  0
  -16.8860  -28.7290   23.1370 C   0  0  0  0  0  3  0  0  0  0  0  0
  -25.9930  -32.6170   23.9120 C   0  0  0  0  0  3  0  0  0  0  0  0
  -25.6390  -34.0240   24.1830 N   0  0  0  0  0  0  0  0  0  0  0  0
  -26.0000  -35.0720   23.4300 C   0  0  0  0  0  0  0  0  0  0  0  0
  -26.7270  -34.9550   22.4400 O   0  0  0  0  0  0  0  0  0  0  0  0
  -24.9990  -34.1850   24.9480 H   0  0  0  0  0  0  0  0  0  0  0  0
  -24.2900  -36.8580   22.9480 C   0  0  0  0  0  1  0  0  0  0  0  0
  -25.4810  -36.4680   23.8370 C   0  0  0  0  0  3  0  0  0  0  0  0
  -27.5510  -37.3890   24.7860 C   0  0  0  0  0  1  0  0  0  0  0  0
  -26.5130  -37.5260   23.7690 N   0  0  0  0  0  0  0  0  0  0  0  0
  -26.0930  -38.4470   23.8680 H   0  0  0  0  0  0  0  0  0  0  0  0
  -26.4360  -31.9120   25.2550 C   0  0  1  0  0  0  0  0  0  0  0  0
  -25.2840  -31.7110   26.2670 C   0  0  0  0  0  1  0  0  0  0  0  0
  -27.0550  -30.5250   24.9730 C   0  0  0  0  0  1  0  0  0  0  0  0
  -27.5370  -32.7490   25.9460 C   0  0  0  0  0  1  0  0  0  0  0  0
  1  2  1  0
  2 52  1  0
  3  1  1  0
  4  2  1  0
  4  9  1  0
  5  3  1  0
  6  7  1  0
  6  3  2  0
  7  4  1  0
  9  8  1  0
 11 12  1  0
 13 12  1  0
 13 22  1  0
 15 20  1  0
 16 17  1  0
 16 15  2  0
 17 18  1  0
 18 27  1  0
 20 14  1  0
 20 19  1  0
 21 14  2  0
 22 23  1  0
 22 14  1  0
 24 25  2  0
 25 44  1  0
 26 29  1  0
 26 25  1  0
 27 28  1  0
 27 24  1  0
 28 26  2  0
 29 30  1  0
 30 31  2  0
 32 31  1  0
 33 32  2  0
 34 33  1  0
 34 29  2  0
 35 32  1  0
 35 36  1  0
 36 41  2  0
 36 37  1  0
 37 38  2  0
 38 39  1  0
 39 43  1  0
 40 39  2  0
 41 40  1  0
 42 41  1  0
 44 45  1  0
 45 48  1  0
 45 47  1  0
 46 44  2  0
 49 24  1  0
 49 50  1  0
 51 49  1  0
 53 52  2  0
 53 54  1  0
 55 66  2  0
 56 54  1  0
 56 61  1  0
 57 65  1  0
 57 67  1  0
 58 60  1  0
 59 65  1  0
 60 61  2  0
 60 59  1  0
 62 56  2  0
 63 62  1  0
 63 58  2  0
 64 58  1  0
 64 57  1  0
 65 55  1  0
 67 69  2  0
 68 67  1  0
 70 68  1  0
 71 80  2  0
 71 76  1  0
 72 68  1  0
 72 76  1  0
 73 72  1  0
 74 75  1  0
 74 73  1  0
 75 71  1  0
 76 77  2  0
 77 78  1  0
 79 78  2  0
 80 79  1  0
 81 55  1  0
 81 82  1  0
 81 91  1  0
 82 85  1  0
 83 87  1  0
 83 82  1  0
 84 83  2  0
 87 86  1  0
 89 87  1  0
 89 90  1  0
 89 88  1  0
 91 94  1  1
 91 92  1  0
 93 91  1  0
M  ISO  4  14 100  22 100  53 101  54 101
M  END
>  <TORSDO>  (96) 
F 21

>  <SCORE>  (96) 
-11.666

>  <name>  (96) 
95

>  <ligand_id>  (96) 
95

>  <original_smiles>  (96) 
[H]c1c([H])c([H])c2c(c1[H])C([H])([H])C([H])([H])C([H])([H])C2([H])N([H])C(=O)C1([H])N(C(=O)C([H])(N([H])C(=O)C([H])(N([H])C([H])([H])[H])C([H])([H])[H])C(C([H])([H])[H])(C([H])([H])[H])C([H])([H])[H])C([H])([H])c2c([H])c(OC([H])([H])C([H])([H])c3c(C([H])(C([H])([H])[H])C(C([H])([H])[H])(C([H])([H])[H])C([H])([H])N([H])C(=O)N4C([H])([H])C([H])([H])C([H])([H])C([H])(n5nc(-c6c([H])c([H])c(Oc7c([H])c([H])c(F)c([H])c7F)c([H])c6[H])c(C(=O)N([H])[H])c5N([H])[H])C4([H])[H])nnc(C([H])([H])[H])c3[H])c([H])c([H])c2C1([H])[H]

>  <smiles>  (96) 
[H]c1c([H])c([H])c2c(c1[H])C([H])([H])C([H])([H])C([H])([H])C2([H])N([H])C(=O)C1([H])N(C(=O)C([H])(N([H])C(=O)C([H])(N([H])C([H])([H])[H])C([H])([H])[H])C(C([H])([H])[H])(C([H])([H])[H])C([H])([H])[H])C([H])([H])c2c([H])c(OC([H])([H])C([H])([H])c3c(C([H])(C([H])([H])[H])C(C([H])([H])[H])(C([H])([H])[H])C([H])([H])N([H])C(=O)N4C([H])([H])C([H])([H])C([H])([H])C([H])(n5nc(-c6c([H])c([H])c(Oc7c([H])c([H])c(F)c([H])c7F)c([H])c6[H])c(C(=O)N([H])[H])c5N([H])[H])C4([H])[H])nnc(C([H])([H])[H])c3[H])c([H])c([H])c2C1([H])[H]

$$$$
96:0:0
     RDKit          3D

 94102  0  0  1  0  0  0  0  0999 V2000
  -29.7680  -20.5300   21.8360 C   0  0  0  0  0  3  0  0  0  0  0  0
  -28.8170  -19.6620   19.8310 C   0  0  0  0  0  3  0  0  0  0  0  0
  -28.9840  -20.7750   20.6950 C   0  0  0  0  0  0  0  0  0  0  0  0
  -30.3360  -19.2470   22.0730 C   0  0  0  0  0  0  0  0  0  0  0  0
  -30.1340  -18.1880   21.1250 C   0  0  0  0  0  0  0  0  0  0  0  0
  -29.3750  -18.4300   20.0270 N   0  0  0  0  0  0  0  0  0  0  0  0
  -32.4160  -17.1870   20.7460 C   0  0  0  0  0  1  0  0  0  0  0  0
  -30.9660  -16.8410   21.1370 C   0  0  0  0  0  3  0  0  0  0  0  0
  -31.0700  -14.4880   19.9240 C   0  0  0  0  0  0  0  0  0  0  0  0
  -30.6610  -12.3020   18.7780 C   0  0  0  0  0  2  0  0  0  0  0  0
  -29.6670  -12.4700   17.6080 C   0  0  0  0  0  2  0  0  0  0  0  0
  -28.2150  -12.3620   18.1140 C   0  0  0  0  0  2  0  0  0  0  0  0
  -27.9620  -13.2340   19.3730 C   0  0  0  0  0  3  0  0  0  0  0  0
  -29.0610  -13.0280   20.4370 C   0  0  0  0  0  2  0  0  0  0  0  0
  -30.3470  -13.3280   19.7950 N   0  0  0  0  0  0  0  0  0  0  0  0
  -32.2030  -14.5630   19.4450 O   0  0  0  0  0  0  0  0  0  0  0  0
  -30.4390  -15.5660   20.5050 N   0  0  0  0  0  0  0  0  0  0  0  0
  -29.4720  -15.3950   20.7320 H   0  0  0  0  0  0  0  0  0  0  0  0
  -25.6510  -13.9530   20.2210 C   0  0  0  0  0  0  0  0  0  0  0  0
  -24.5640  -13.2350   20.6420 C   0  0  0  0  0  0  0  0  0  0  0  0
  -24.9510  -11.8610   20.5800 C   0  0  0  0  0  0  0  0  0  0  0  0
  -26.6300  -13.0200   19.9240 N   0  0  0  0  0  0  0  0  0  0  0  0
  -26.2200  -11.7550   20.2020 N   0  0  0  0  0  0  0  0  0  0  0  0
  -24.1700  -10.6380   20.8000 C   0  0  0  0  0  0  0  0  0  0  0  0
  -24.5540   -9.6830   21.7670 C   0  0  0  0  0  3  0  0  0  0  0  0
  -23.7770   -8.5220   21.9750 C   0  0  0  0  0  3  0  0  0  0  0  0
  -22.6010   -8.3100   21.2140 C   0  0  0  0  0  0  0  0  0  0  0  0
  -22.2360   -9.2540   20.2380 C   0  0  0  0  0  3  0  0  0  0  0  0
  -23.0140  -10.4050   20.0290 C   0  0  0  0  0  3  0  0  0  0  0  0
  -21.7980   -7.2010   21.3280 O   0  0  0  0  0  0  0  0  0  0  0  0
  -21.6510   -6.5400   22.5220 C   0  0  0  0  0  0  0  0  0  0  0  0
  -21.1740   -7.1900   23.6810 C   0  0  0  0  0  3  0  0  0  0  0  0
  -20.9710   -6.4560   24.8670 C   0  0  0  0  0  3  0  0  0  0  0  0
  -21.2360   -5.0740   24.8950 C   0  0  0  0  0  0  0  0  0  0  0  0
  -21.7070   -4.4240   23.7410 C   0  0  0  0  0  3  0  0  0  0  0  0
  -21.9120   -5.1560   22.5560 C   0  0  0  0  0  0  0  0  0  0  0  0
  -22.3450   -4.5210   21.4410 F   0  0  0  0  0  0  0  0  0  0  0  0
  -21.0350   -4.3660   26.0310 F   0  0  0  0  0  0  0  0  0  0  0  0
  -23.2120  -13.7850   20.9850 C   0  0  0  0  0  0  0  0  0  0  0  0
  -22.4990  -13.1380   21.9000 N   0  0  0  0  0  0  0  0  0  0  0  0
  -22.7990  -14.8280   20.4800 O   0  0  0  0  0  0  0  0  0  0  0  0
  -22.8460  -12.2950   22.3360 H   0  0  0  0  0  0  0  0  0  0  0  0
  -21.5950  -13.4920   22.1700 H   0  0  0  0  0  0  0  0  0  0  0  0
  -25.8810  -15.3140   20.0430 N   0  0  0  0  0  0  0  0  0  0  0  0
  -25.1560  -16.0090   20.1910 H   0  0  0  0  0  0  0  0  0  0  0  0
  -26.7290  -15.7050   19.6550 H   0  0  0  0  0  0  0  0  0  0  0  0
  -28.1850  -22.1120   20.5110 C   0  0  0  0  0  2  0  0  0  0  0  0
  -28.8650  -23.5500   20.5290 C   0  0  0  0  0  2  0  0  0  0  0  0
  -27.8400  -24.6940   20.1360 C   0  0  0  0  0  2  0  0  0  0  0  0
  -28.1910  -26.1270   20.0130 O   0  0  0  0  0  0  0  0  0  0  0  0
  -24.8520  -31.6540   23.2050 C   0  0  0  0  0  0  0  0  0  0  0  0
  -27.1170  -27.0330   19.9920 C   0  0  0  0  0  0  0  0  0  0  0  0
  -23.5000  -30.2950   21.6460 C   0  0  0  0  0  3  0  0  0  0  0  0
  -24.8090  -28.7150   20.1270 C   0  0  0  0  0  0  0  0  0  0  0  0
  -26.0300  -30.5410   21.3000 C   0  0  0  0  0  2  0  0  0  0  0  0
  -26.0280  -29.1630   20.6560 C   0  0  0  0  0  0  0  0  0  0  0  0
  -27.1830  -28.3310   20.5860 C   0  0  0  0  0  3  0  0  0  0  0  0
  -25.8780  -26.6580   19.4140 C   0  0  0  0  0  3  0  0  0  0  0  0
  -24.7360  -27.4680   19.4950 C   0  0  0  0  0  3  0  0  0  0  0  0
  -23.6040  -29.6200   20.2550 C   0  0  0  0  0  2  0  0  0  0  0  0
  -24.8170  -30.8470   22.1060 N   0  0  0  0  0  0  0  0  0  0  0  0
  -23.8160  -31.9610   23.8100 O   0  0  0  0  0  0  0  0  0  0  0  0
  -22.8720  -29.2970   22.6470 C   0  0  0  0  0  0  0  0  0  0  0  0
  -21.5540  -29.0560   22.5190 N   0  0  0  0  0  0  0  0  0  0  0  0
  -23.5690  -28.7370   23.4970 O   0  0  0  0  0  0  0  0  0  0  0  0
  -21.0470  -29.5630   21.8070 H   0  0  0  0  0  0  0  0  0  0  0  0
  -18.2540  -27.6500   22.9680 C   0  0  0  0  0  0  0  0  0  0  0  0
  -20.7700  -28.1240   23.3290 C   0  0  0  0  0  3  0  0  0  0  0  0
  -21.0050  -26.6630   22.8830 C   0  0  0  0  0  2  0  0  0  0  0  0
  -19.9830  -26.1750   21.8500 C   0  0  0  0  0  2  0  0  0  0  0  0
  -18.5630  -26.2680   22.4160 C   0  0  0  0  0  2  0  0  0  0  0  0
  -19.2910  -28.5270   23.3820 C   0  0  0  0  0  0  0  0  0  0  0  0
  -18.9510  -29.8160   23.8530 C   0  0  0  0  0  3  0  0  0  0  0  0
  -17.6060  -30.2260   23.9160 C   0  0  0  0  0  3  0  0  0  0  0  0
  -16.5840  -29.3470   23.5230 C   0  0  0  0  0  3  0  0  0  0  0  0
  -16.9070  -28.0610   23.0520 C   0  0  0  0  0  3  0  0  0  0  0  0
  -26.1930  -32.2490   23.7380 C   0  0  0  0  0  3  0  0  0  0  0  0
  -25.9160  -33.6110   24.2180 N   0  0  0  0  0  0  0  0  0  0  0  0
  -26.2340  -34.7310   23.5550 C   0  0  0  0  0  0  0  0  0  0  0  0
  -26.8650  -34.7230   22.4940 O   0  0  0  0  0  0  0  0  0  0  0  0
  -25.3750  -33.6880   25.0660 H   0  0  0  0  0  0  0  0  0  0  0  0
  -24.5370  -36.5810   23.4220 C   0  0  0  0  0  1  0  0  0  0  0  0
  -25.7820  -36.0720   24.1660 C   0  0  0  0  0  3  0  0  0  0  0  0
  -27.9520  -36.8240   25.0390 C   0  0  0  0  0  1  0  0  0  0  0  0
  -26.8340  -37.1120   24.1440 N   0  0  0  0  0  0  0  0  0  0  0  0
  -26.4500  -38.0200   24.3980 H   0  0  0  0  0  0  0  0  0  0  0  0
  -26.8440  -31.3790   24.8830 C   0  0  1  0  0  0  0  0  0  0  0  0
  -25.8630  -31.0060   26.0170 C   0  0  0  0  0  1  0  0  0  0  0  0
  -27.4240  -30.0640   24.3110 C   0  0  0  0  0  1  0  0  0  0  0  0
  -28.0300  -32.1460   25.5170 C   0  0  0  0  0  1  0  0  0  0  0  0
  -31.1650  -19.1060   23.3540 C   0  0  0  0  0  2  0  0  0  0  0  0
  -30.3840  -18.4670   24.5250 C   0  0  0  0  0  2  0  0  0  0  0  0
  -28.9000  -18.8240   26.5970 C   0  0  0  0  0  1  0  0  0  0  0  0
  -29.7110  -19.4800   25.4730 C   0  0  0  0  0  2  0  0  0  0  0  0
  1  4  1  0
  2  6  2  0
  2  3  1  0
  3  1  2  0
  4 91  1  0
  5  8  1  0
  5  4  2  0
  6  5  1  0
  8  7  1  0
  9 17  1  0
 10 15  1  0
 11 12  1  0
 11 10  1  0
 13 12  1  0
 13 22  1  0
 13 14  1  0
 15  9  1  0
 15 14  1  0
 16  9  2  0
 17 18  1  0
 17  8  1  0
 19 20  2  0
 20 39  1  0
 21 20  1  0
 21 24  1  0
 22 23  1  0
 22 19  1  0
 23 21  2  0
 24 25  1  0
 25 26  2  0
 27 30  1  0
 27 26  1  0
 28 27  2  0
 29 28  1  0
 29 24  2  0
 30 31  1  0
 31 36  2  0
 31 32  1  0
 32 33  2  0
 33 34  1  0
 34 38  1  0
 35 34  2  0
 36 35  1  0
 37 36  1  0
 39 40  1  0
 40 43  1  0
 40 42  1  0
 41 39  2  0
 44 45  1  0
 44 19  1  0
 46 44  1  0
 47 48  1  0
 47  3  1  0
 49 48  1  0
 50 49  1  0
 51 62  2  0
 52 50  1  0
 52 57  1  0
 53 61  1  0
 53 63  1  0
 54 60  1  0
 54 56  1  0
 55 61  1  0
 56 55  1  0
 57 56  2  0
 58 59  1  0
 58 52  2  0
 59 54  2  0
 60 53  1  0
 61 51  1  0
 63 65  2  0
 64 63  1  0
 66 64  1  0
 67 76  2  0
 67 72  1  0
 68 64  1  0
 68 72  1  0
 69 68  1  0
 70 71  1  0
 70 69  1  0
 71 67  1  0
 72 73  2  0
 73 74  1  0
 75 74  2  0
 76 75  1  0
 77 51  1  0
 77 78  1  0
 77 87  1  0
 78 81  1  0
 79 83  1  0
 79 78  1  0
 80 79  2  0
 83 82  1  0
 85 83  1  0
 85 86  1  0
 85 84  1  0
 87 90  1  1
 87 88  1  0
 89 87  1  0
 91 92  1  0
 92 94  1  0
 94 93  1  0
M  ISO  4   9 100  17 100  49 101  50 101
M  END
>  <TORSDO>  (97) 
F 23

>  <SCORE>  (97) 
-7.282

>  <name>  (97) 
96

>  <ligand_id>  (97) 
96

>  <original_smiles>  (97) 
[H]c1nc(C([H])(N([H])C(=O)N2C([H])([H])C([H])([H])C([H])([H])C([H])(n3nc(-c4c([H])c([H])c(Oc5c([H])c([H])c(F)c([H])c5F)c([H])c4[H])c(C(=O)N([H])[H])c3N([H])[H])C2([H])[H])C([H])([H])[H])c(C([H])([H])C([H])([H])C([H])([H])C([H])([H])[H])c([H])c1C([H])([H])C([H])([H])C([H])([H])Oc1c([H])c([H])c2c(c1[H])C([H])([H])N(C(=O)C([H])(N([H])C(=O)C([H])(N([H])C([H])([H])[H])C([H])([H])[H])C(C([H])([H])[H])(C([H])([H])[H])C([H])([H])[H])C([H])(C(=O)N([H])C1([H])c3c([H])c([H])c([H])c([H])c3C([H])([H])C([H])([H])C1([H])[H])C2([H])[H]

>  <smiles>  (97) 
[H]c1nc(C([H])(N([H])C(=O)N2C([H])([H])C([H])([H])C([H])([H])C([H])(n3nc(-c4c([H])c([H])c(Oc5c([H])c([H])c(F)c([H])c5F)c([H])c4[H])c(C(=O)N([H])[H])c3N([H])[H])C2([H])[H])C([H])([H])[H])c(C([H])([H])C([H])([H])C([H])([H])C([H])([H])[H])c([H])c1C([H])([H])C([H])([H])C([H])([H])Oc1c([H])c([H])c2c(c1[H])C([H])([H])N(C(=O)C([H])(N([H])C(=O)C([H])(N([H])C([H])([H])[H])C([H])([H])[H])C(C([H])([H])[H])(C([H])([H])[H])C([H])([H])[H])C([H])(C(=O)N([H])C1([H])c3c([H])c([H])c([H])c([H])c3C([H])([H])C([H])([H])C1([H])[H])C2([H])[H]

$$$$
97:0:0
     RDKit          3D

 95103  0  0  1  0  0  0  0  0999 V2000
  -32.6840  -21.6390   20.5660 C   0  0  0  0  0  3  0  0  0  0  0  0
  -31.9800  -22.7550   20.0920 C   0  0  0  0  0  0  0  0  0  0  0  0
  -32.2320  -20.3490   20.2500 C   0  0  0  0  0  0  0  0  0  0  0  0
  -30.7960  -22.5380   19.3540 C   0  0  0  0  0  0  0  0  0  0  0  0
  -31.0450  -20.2060   19.4910 C   0  0  0  0  0  0  0  0  0  0  0  0
  -32.5490  -24.1430   20.3580 C   0  0  0  0  0  1  0  0  0  0  0  0
  -33.0870  -19.1710   20.6910 C   0  0  0  0  0  1  0  0  0  0  0  0
  -30.3320  -21.2900   19.0890 N   0  0  0  0  0  0  0  0  0  0  0  0
  -30.0270  -23.6980   18.7260 C   0  0  0  0  0  2  0  0  0  0  0  0
  -29.1300  -24.4960   19.6970 C   0  0  0  0  0  2  0  0  0  0  0  0
  -28.7120  -25.8600   19.1050 C   0  0  0  0  0  2  0  0  0  0  0  0
  -28.4040  -26.7920   20.1470 O   0  0  0  0  0  0  0  0  0  0  0  0
  -24.6040  -31.9310   23.2450 C   0  0  0  0  0  0  0  0  0  0  0  0
  -27.2140  -27.4880   20.1280 C   0  0  0  0  0  0  0  0  0  0  0  0
  -23.3800  -30.5280   21.6160 C   0  0  0  0  0  3  0  0  0  0  0  0
  -24.8160  -28.9900   20.1770 C   0  0  0  0  0  0  0  0  0  0  0  0
  -25.9020  -30.8840   21.3940 C   0  0  0  0  0  2  0  0  0  0  0  0
  -25.9780  -29.5120   20.7550 C   0  0  0  0  0  0  0  0  0  0  0  0
  -27.1760  -28.7620   20.7380 C   0  0  0  0  0  3  0  0  0  0  0  0
  -26.0250  -26.9680   19.5660 C   0  0  0  0  0  3  0  0  0  0  0  0
  -24.8340  -27.7160   19.5830 C   0  0  0  0  0  3  0  0  0  0  0  0
  -23.5740  -29.8470   20.2340 C   0  0  0  0  0  2  0  0  0  0  0  0
  -24.6470  -31.1290   22.1430 N   0  0  0  0  0  0  0  0  0  0  0  0
  -23.5280  -32.2040   23.7940 O   0  0  0  0  0  0  0  0  0  0  0  0
  -22.7380  -29.5070   22.5830 C   0  0  0  0  0  0  0  0  0  0  0  0
  -21.4140  -29.3210   22.4640 N   0  0  0  0  0  0  0  0  0  0  0  0
  -23.4280  -28.8840   23.3940 O   0  0  0  0  0  0  0  0  0  0  0  0
  -20.9130  -29.8780   21.7850 H   0  0  0  0  0  0  0  0  0  0  0  0
  -18.0520  -28.1100   22.9730 C   0  0  0  0  0  0  0  0  0  0  0  0
  -20.6070  -28.3850   23.2430 C   0  0  0  0  0  3  0  0  0  0  0  0
  -20.7170  -26.9490   22.6800 C   0  0  0  0  0  2  0  0  0  0  0  0
  -19.6190  -26.6120   21.6670 C   0  0  0  0  0  2  0  0  0  0  0  0
  -18.2360  -26.7550   22.3100 C   0  0  0  0  0  2  0  0  0  0  0  0
  -19.1650  -28.8810   23.3980 C   0  0  0  0  0  0  0  0  0  0  0  0
  -18.9380  -30.1500   23.9740 C   0  0  0  0  0  3  0  0  0  0  0  0
  -17.6300  -30.6450   24.1340 C   0  0  0  0  0  3  0  0  0  0  0  0
  -16.5310  -29.8700   23.7260 C   0  0  0  0  0  3  0  0  0  0  0  0
  -16.7430  -28.6050   23.1510 C   0  0  0  0  0  3  0  0  0  0  0  0
  -25.8950  -32.5620   23.8520 C   0  0  0  0  0  3  0  0  0  0  0  0
  -25.5920  -33.9580   24.1910 N   0  0  0  0  0  0  0  0  0  0  0  0
  -25.9190  -35.0130   23.4310 C   0  0  0  0  0  0  0  0  0  0  0  0
  -26.5780  -34.9130   22.3920 O   0  0  0  0  0  0  0  0  0  0  0  0
  -25.0100  -34.1130   25.0000 H   0  0  0  0  0  0  0  0  0  0  0  0
  -24.1860  -36.8010   23.0960 C   0  0  0  0  0  1  0  0  0  0  0  0
  -25.4350  -36.3990   23.8960 C   0  0  0  0  0  3  0  0  0  0  0  0
  -27.5780  -37.2780   24.7100 C   0  0  0  0  0  1  0  0  0  0  0  0
  -26.4660  -37.4530   23.7780 N   0  0  0  0  0  0  0  0  0  0  0  0
  -26.0610  -38.3720   23.9380 H   0  0  0  0  0  0  0  0  0  0  0  0
  -26.4350  -31.7860   25.1160 C   0  0  1  0  0  0  0  0  0  0  0  0
  -25.3590  -31.5430   26.2000 C   0  0  0  0  0  1  0  0  0  0  0  0
  -27.0110  -30.4130   24.7030 C   0  0  0  0  0  1  0  0  0  0  0  0
  -27.5960  -32.5780   25.7640 C   0  0  0  0  0  1  0  0  0  0  0  0
  -30.6040  -18.8460   18.9150 C   0  0  0  0  0  2  0  0  0  0  0  0
  -28.5330  -18.7460   20.4400 C   0  0  0  0  0  1  0  0  0  0  0  0
  -28.8790  -17.0260   18.6790 C   0  0  0  0  0  1  0  0  0  0  0  0
  -29.6110  -17.9200   19.7120 C   0  0  1  0  0  0  0  0  0  0  0  0
  -30.3950  -17.0320   20.7420 C   0  0  0  0  0  2  0  0  0  0  0  0
  -30.6220  -14.5420   20.6370 C   0  0  0  0  0  0  0  0  0  0  0  0
  -30.3380  -12.3600   19.5470 C   0  0  0  0  0  2  0  0  0  0  0  0
  -29.4340  -12.5530   18.3120 C   0  0  0  0  0  2  0  0  0  0  0  0
  -27.9500  -12.4120   18.7030 C   0  0  0  0  0  2  0  0  0  0  0  0
  -27.5710  -13.2520   19.9500 C   0  0  0  0  0  3  0  0  0  0  0  0
  -28.6040  -13.0850   21.0880 C   0  0  0  0  0  2  0  0  0  0  0  0
  -29.9380  -13.3720   20.5370 N   0  0  0  0  0  0  0  0  0  0  0  0
  -31.7980  -14.6470   20.2810 O   0  0  0  0  0  0  0  0  0  0  0  0
  -29.8990  -15.6460   20.9180 N   0  0  0  0  0  0  0  0  0  0  0  0
  -28.9240  -15.5290   21.1440 H   0  0  0  0  0  0  0  0  0  0  0  0
  -25.1520  -13.8310   20.5920 C   0  0  0  0  0  0  0  0  0  0  0  0
  -24.0830  -13.0500   20.9400 C   0  0  0  0  0  0  0  0  0  0  0  0
  -24.5600  -11.7030   20.9310 C   0  0  0  0  0  0  0  0  0  0  0  0
  -26.2120  -12.9610   20.3980 N   0  0  0  0  0  0  0  0  0  0  0  0
  -25.8590  -11.6770   20.6580 N   0  0  0  0  0  0  0  0  0  0  0  0
  -23.8430  -10.4330   21.1100 C   0  0  0  0  0  0  0  0  0  0  0  0
  -24.2780   -9.4640   22.0430 C   0  0  0  0  0  3  0  0  0  0  0  0
  -23.5610   -8.2580   22.2090 C   0  0  0  0  0  3  0  0  0  0  0  0
  -22.3970   -8.0140   21.4420 C   0  0  0  0  0  0  0  0  0  0  0  0
  -21.9820   -8.9700   20.4990 C   0  0  0  0  0  3  0  0  0  0  0  0
  -22.6990  -10.1670   20.3310 C   0  0  0  0  0  3  0  0  0  0  0  0
  -21.6530   -6.8620   21.5180 O   0  0  0  0  0  0  0  0  0  0  0  0
  -21.6190   -6.1030   22.6610 C   0  0  0  0  0  0  0  0  0  0  0  0
  -21.2110   -6.6400   23.9020 C   0  0  0  0  0  3  0  0  0  0  0  0
  -21.1310   -5.8080   25.0380 C   0  0  0  0  0  3  0  0  0  0  0  0
  -21.4400   -4.4400   24.9300 C   0  0  0  0  0  0  0  0  0  0  0  0
  -21.8360   -3.9010   23.6940 C   0  0  0  0  0  3  0  0  0  0  0  0
  -21.9250   -4.7320   22.5620 C   0  0  0  0  0  0  0  0  0  0  0  0
  -22.2930   -4.2050   21.3690 F   0  0  0  0  0  0  0  0  0  0  0  0
  -21.3520   -3.6370   26.0160 F   0  0  0  0  0  0  0  0  0  0  0  0
  -22.6730  -13.5130   21.1660 C   0  0  0  0  0  0  0  0  0  0  0  0
  -21.9320  -12.8130   22.0200 N   0  0  0  0  0  0  0  0  0  0  0  0
  -22.2360  -14.5290   20.6270 O   0  0  0  0  0  0  0  0  0  0  0  0
  -22.3000  -11.9940   22.4810 H   0  0  0  0  0  0  0  0  0  0  0  0
  -20.9850  -13.1010   22.2180 H   0  0  0  0  0  0  0  0  0  0  0  0
  -25.3070  -15.2000   20.4020 N   0  0  0  0  0  0  0  0  0  0  0  0
  -24.5180  -15.8370   20.4310 H   0  0  0  0  0  0  0  0  0  0  0  0
  -26.1430  -15.6200   20.0210 H   0  0  0  0  0  0  0  0  0  0  0  0
  2  6  1  0
  2  1  2  0
  3  1  1  0
  3  7  1  0
  4  2  1  0
  5  3  2  0
  8  4  2  0
  8  5  1  0
  9  4  1  0
  9 10  1  0
 11 10  1  0
 11 12  1  0
 13 24  2  0
 14 12  1  0
 14 19  1  0
 15 23  1  0
 15 25  1  0
 16 22  1  0
 16 18  1  0
 17 23  1  0
 18 17  1  0
 19 18  2  0
 20 21  1  0
 20 14  2  0
 21 16  2  0
 22 15  1  0
 23 13  1  0
 25 27  2  0
 26 25  1  0
 28 26  1  0
 29 38  2  0
 29 34  1  0
 30 26  1  0
 30 34  1  0
 31 30  1  0
 32 33  1  0
 32 31  1  0
 33 29  1  0
 34 35  2  0
 35 36  1  0
 37 36  2  0
 38 37  1  0
 39 13  1  0
 39 40  1  0
 39 49  1  0
 40 43  1  0
 41 45  1  0
 41 40  1  0
 42 41  2  0
 45 44  1  0
 47 45  1  0
 47 48  1  0
 47 46  1  0
 49 52  1  1
 49 50  1  0
 51 49  1  0
 53  5  1  0
 53 56  1  0
 56 55  1  6
 56 54  1  0
 56 57  1  0
 57 66  1  0
 58 66  1  0
 59 64  1  0
 60 61  1  0
 60 59  1  0
 62 61  1  0
 62 71  1  0
 62 63  1  0
 64 58  1  0
 64 63  1  0
 65 58  2  0
 66 67  1  0
 68 69  2  0
 69 88  1  0
 70 69  1  0
 70 73  1  0
 71 68  1  0
 71 72  1  0
 72 70  2  0
 73 74  1  0
 74 75  2  0
 76 79  1  0
 76 75  1  0
 77 76  2  0
 78 77  1  0
 78 73  2  0
 79 80  1  0
 80 81  1  0
 81 82  2  0
 83 82  1  0
 83 87  1  0
 84 83  2  0
 85 80  2  0
 85 84  1  0
 86 85  1  0
 88 89  1  0
 89 92  1  0
 89 91  1  0
 90 88  2  0
 93 94  1  0
 93 68  1  0
 95 93  1  0
M  ISO  4  11 101  12 101  58 100  66 100
M  END
>  <TORSDO>  (98) 
F 22

>  <SCORE>  (98) 
-13.012

>  <name>  (98) 
97

>  <ligand_id>  (98) 
97

>  <original_smiles>  (98) 
[H]c1c([H])c([H])c2c(c1[H])C([H])([H])C([H])([H])C([H])([H])C2([H])N([H])C(=O)C1([H])N(C(=O)C([H])(N([H])C(=O)C([H])(N([H])C([H])([H])[H])C([H])([H])[H])C(C([H])([H])[H])(C([H])([H])[H])C([H])([H])[H])C([H])([H])c2c([H])c(OC([H])([H])C([H])([H])C([H])([H])c3nc(C([H])([H])C(C([H])([H])[H])(C([H])([H])[H])C([H])([H])N([H])C(=O)N4C([H])([H])C([H])([H])C([H])([H])C([H])(n5nc(-c6c([H])c([H])c(Oc7c([H])c([H])c(F)c([H])c7F)c([H])c6[H])c(C(=O)N([H])[H])c5N([H])[H])C4([H])[H])c(C([H])([H])[H])c([H])c3C([H])([H])[H])c([H])c([H])c2C1([H])[H]

>  <smiles>  (98) 
[H]c1c([H])c([H])c2c(c1[H])C([H])([H])C([H])([H])C([H])([H])C2([H])N([H])C(=O)C1([H])N(C(=O)C([H])(N([H])C(=O)C([H])(N([H])C([H])([H])[H])C([H])([H])[H])C(C([H])([H])[H])(C([H])([H])[H])C([H])([H])[H])C([H])([H])c2c([H])c(OC([H])([H])C([H])([H])C([H])([H])c3nc(C([H])([H])C(C([H])([H])[H])(C([H])([H])[H])C([H])([H])N([H])C(=O)N4C([H])([H])C([H])([H])C([H])([H])C([H])(n5nc(-c6c([H])c([H])c(Oc7c([H])c([H])c(F)c([H])c7F)c([H])c6[H])c(C(=O)N([H])[H])c5N([H])[H])C4([H])[H])c(C([H])([H])[H])c([H])c3C([H])([H])[H])c([H])c([H])c2C1([H])[H]

$$$$
