0:0:0
     RDKit          3D

 91 99  0  0  1  0  0  0  0  0999 V2000
  -29.7000  -21.6820   20.2340 C   0  0  0  0  0  3  0  0  0  0  0  0
  -29.6050  -23.0050   20.8470 C   0  0  0  0  0  0  0  0  0  0  0  0
  -29.5610  -20.4530   21.0170 C   0  0  0  0  0  0  0  0  0  0  0  0
  -29.4400  -22.9350   22.2680 C   0  0  0  0  0  0  0  0  0  0  0  0
  -29.1950  -20.5720   22.3160 N   0  0  0  0  0  0  0  0  0  0  0  0
  -29.1580  -21.7700   22.9190 N   0  0  0  0  0  0  0  0  0  0  0  0
  -28.7610  -25.1960   23.4650 C   0  0  0  0  0  1  0  0  0  0  0  0
  -29.8070  -24.0840   23.2300 C   0  0  0  0  0  2  0  0  0  0  0  0
  -29.8680  -24.4210   20.1210 C   0  0  0  0  0  2  0  0  0  0  0  0
  -28.7560  -25.2240   19.2540 C   0  0  0  0  0  2  0  0  0  0  0  0
  -28.7570  -26.7230   19.3700 O   0  0  0  0  0  0  0  0  0  0  0  0
  -24.9140  -31.5720   23.1220 C   0  0  0  0  0  0  0  0  0  0  0  0
  -27.5790  -27.5050   19.4320 C   0  0  0  0  0  0  0  0  0  0  0  0
  -23.6980  -30.3290   21.3710 C   0  0  0  0  0  3  0  0  0  0  0  0
  -25.1440  -29.0140   19.7100 C   0  0  0  0  0  0  0  0  0  0  0  0
  -26.2190  -30.7620   21.1410 C   0  0  0  0  0  2  0  0  0  0  0  0
  -26.3190  -29.4760   20.3200 C   0  0  0  0  0  0  0  0  0  0  0  0
  -27.5290  -28.7260   20.1820 C   0  0  0  0  0  3  0  0  0  0  0  0
  -26.3840  -27.1200   18.7820 C   0  0  0  0  0  3  0  0  0  0  0  0
  -25.1810  -27.8430   18.9310 C   0  0  0  0  0  3  0  0  0  0  0  0
  -23.8740  -29.8210   19.9120 C   0  0  0  0  0  2  0  0  0  0  0  0
  -24.9640  -30.9010   21.9330 N   0  0  0  0  0  0  0  0  0  0  0  0
  -23.8450  -31.7420   23.7250 O   0  0  0  0  0  0  0  0  0  0  0  0
  -23.1130  -29.1840   22.2270 C   0  0  0  0  0  0  0  0  0  0  0  0
  -21.7950  -28.9470   22.1050 N   0  0  0  0  0  0  0  0  0  0  0  0
  -23.8430  -28.5050   22.9520 O   0  0  0  0  0  0  0  0  0  0  0  0
  -21.2680  -29.5510   21.4890 H   0  0  0  0  0  0  0  0  0  0  0  0
  -18.5050  -27.4870   22.4760 C   0  0  0  0  0  0  0  0  0  0  0  0
  -21.0430  -27.8850   22.7710 C   0  0  0  0  0  3  0  0  0  0  0  0
  -21.2390  -26.5280   22.0550 C   0  0  0  0  0  2  0  0  0  0  0  0
  -20.1530  -26.2370   21.0140 C   0  0  0  0  0  2  0  0  0  0  0  0
  -18.7660  -26.2250   21.6690 C   0  0  0  0  0  2  0  0  0  0  0  0
  -19.5770  -28.2730   22.9780 C   0  0  0  0  0  0  0  0  0  0  0  0
  -19.2840  -29.4560   23.6890 C   0  0  0  0  0  3  0  0  0  0  0  0
  -17.9520  -29.8460   23.9150 C   0  0  0  0  0  3  0  0  0  0  0  0
  -16.8950  -29.0530   23.4330 C   0  0  0  0  0  3  0  0  0  0  0  0
  -17.1730  -27.8790   22.7110 C   0  0  0  0  0  3  0  0  0  0  0  0
  -26.1990  -32.1720   23.7740 C   0  0  0  0  0  3  0  0  0  0  0  0
  -25.8520  -33.5000   24.2960 N   0  0  0  0  0  0  0  0  0  0  0  0
  -26.1240  -34.6590   23.6830 C   0  0  0  0  0  0  0  0  0  0  0  0
  -26.7640  -34.7250   22.6300 O   0  0  0  0  0  0  0  0  0  0  0  0
  -25.2770  -33.5210   25.1260 H   0  0  0  0  0  0  0  0  0  0  0  0
  -24.3170  -36.4100   23.6320 C   0  0  0  0  0  1  0  0  0  0  0  0
  -25.6040  -35.9530   24.3400 C   0  0  0  0  0  3  0  0  0  0  0  0
  -27.7340  -36.8070   25.2100 C   0  0  0  0  0  1  0  0  0  0  0  0
  -26.5910  -37.0560   24.3370 N   0  0  0  0  0  0  0  0  0  0  0  0
  -26.1600  -37.9320   24.6240 H   0  0  0  0  0  0  0  0  0  0  0  0
  -26.7980  -31.2680   24.9210 C   0  0  1  0  0  0  0  0  0  0  0  0
  -25.7570  -30.8620   25.9930 C   0  0  0  0  0  1  0  0  0  0  0  0
  -27.4120  -29.9720   24.3400 C   0  0  0  0  0  1  0  0  0  0  0  0
  -27.9430  -32.0220   25.6340 C   0  0  0  0  0  1  0  0  0  0  0  0
  -29.6100  -18.9320   20.4900 C   0  0  0  0  0  3  0  0  0  0  0  0
  -30.3290  -17.7210   21.3340 C   0  0  0  0  0  3  0  0  0  0  0  0
  -30.8220  -15.1090   20.8650 C   0  0  0  0  0  0  0  0  0  0  0  0
  -30.7460  -12.7540   19.9700 C   0  0  0  0  0  2  0  0  0  0  0  0
  -29.9180  -12.6960   18.6630 C   0  0  0  0  0  2  0  0  0  0  0  0
  -28.4220  -12.5060   18.9850 C   0  0  0  0  0  2  0  0  0  0  0  0
  -27.9240  -13.4770   20.0900 C   0  0  0  0  0  3  0  0  0  0  0  0
  -28.8840  -13.5180   21.3010 C   0  0  0  0  0  2  0  0  0  0  0  0
  -30.2180  -13.8690   20.7940 N   0  0  0  0  0  0  0  0  0  0  0  0
  -32.0210  -15.2220   20.6010 O   0  0  0  0  0  0  0  0  0  0  0  0
  -30.0240  -16.2290   21.0730 N   0  0  0  0  0  0  0  0  0  0  0  0
  -29.0630  -15.9770   21.2400 H   0  0  0  0  0  0  0  0  0  0  0  0
  -25.4820  -14.0470   20.6290 C   0  0  0  0  0  0  0  0  0  0  0  0
  -24.4010  -13.2680   20.9270 C   0  0  0  0  0  0  0  0  0  0  0  0
  -24.8780  -11.9180   20.9420 C   0  0  0  0  0  0  0  0  0  0  0  0
  -26.5500  -13.1810   20.4830 N   0  0  0  0  0  0  0  0  0  0  0  0
  -26.1900  -11.8950   20.7300 N   0  0  0  0  0  0  0  0  0  0  0  0
  -24.1490  -10.6510   21.0830 C   0  0  0  0  0  0  0  0  0  0  0  0
  -24.5360   -9.6740   22.0280 C   0  0  0  0  0  3  0  0  0  0  0  0
  -23.8060   -8.4730   22.1580 C   0  0  0  0  0  3  0  0  0  0  0  0
  -22.6720   -8.2390   21.3420 C   0  0  0  0  0  0  0  0  0  0  0  0
  -22.3030   -9.2040   20.3870 C   0  0  0  0  0  3  0  0  0  0  0  0
  -23.0370  -10.3960   20.2550 C   0  0  0  0  0  3  0  0  0  0  0  0
  -21.9210   -7.0890   21.3800 O   0  0  0  0  0  0  0  0  0  0  0  0
  -21.8370   -6.3200   22.5140 C   0  0  0  0  0  0  0  0  0  0  0  0
  -21.3800   -6.8500   23.7400 C   0  0  0  0  0  3  0  0  0  0  0  0
  -21.2450   -6.0100   24.8640 C   0  0  0  0  0  3  0  0  0  0  0  0
  -21.5600   -4.6410   24.7610 C   0  0  0  0  0  0  0  0  0  0  0  0
  -22.0120   -4.1100   23.5410 C   0  0  0  0  0  3  0  0  0  0  0  0
  -22.1480   -4.9480   22.4190 C   0  0  0  0  0  0  0  0  0  0  0  0
  -22.5620   -4.4290   21.2380 F   0  0  0  0  0  0  0  0  0  0  0  0
  -21.4250   -3.8320   25.8370 F   0  0  0  0  0  0  0  0  0  0  0  0
  -22.9810  -13.7290   21.0970 C   0  0  0  0  0  0  0  0  0  0  0  0
  -22.2080  -13.0310   21.9190 N   0  0  0  0  0  0  0  0  0  0  0  0
  -22.5670  -14.7470   20.5400 O   0  0  0  0  0  0  0  0  0  0  0  0
  -22.5530  -12.1980   22.3730 H   0  0  0  0  0  0  0  0  0  0  0  0
  -21.2570  -13.3260   22.0960 H   0  0  0  0  0  0  0  0  0  0  0  0
  -25.6500  -15.4210   20.4500 N   0  0  0  0  0  0  0  0  0  0  0  0
  -24.8740  -16.0710   20.4800 H   0  0  0  0  0  0  0  0  0  0  0  0
  -26.5200  -15.8520   20.1670 H   0  0  0  0  0  0  0  0  0  0  0  0
  1  2  2  0
  1  3  1  0
  2  4  1  0
  3  5  2  0
  4  6  2  0
  4  8  1  0
  5  6  1  0
  8  7  1  0
  9  2  1  0
 10 11  1  0
 10  9  1  0
 11 13  1  0
 12 23  2  0
 13 18  1  0
 14 22  1  0
 14 24  1  0
 15 21  1  0
 15 17  1  0
 16 22  1  0
 17 16  1  0
 18 17  2  0
 19 20  1  0
 19 13  2  0
 20 15  2  0
 21 14  1  0
 22 12  1  0
 24 26  2  0
 25 24  1  0
 27 25  1  0
 28 37  2  0
 28 33  1  0
 29 25  1  0
 29 33  1  0
 30 29  1  0
 31 32  1  0
 31 30  1  0
 32 28  1  0
 33 34  2  0
 34 35  1  0
 36 35  2  0
 37 36  1  0
 38 12  1  0
 38 39  1  0
 38 48  1  0
 39 42  1  0
 40 39  1  0
 40 44  1  0
 41 40  2  0
 44 43  1  0
 46 44  1  0
 46 47  1  0
 46 45  1  0
 48 51  1  1
 48 49  1  0
 50 48  1  0
 52  3  1  0
 52 53  2  0
 54 62  1  0
 55 60  1  0
 56 57  1  0
 56 55  1  0
 58 57  1  0
 58 67  1  0
 58 59  1  0
 60 54  1  0
 60 59  1  0
 61 54  2  0
 62 63  1  0
 62 53  1  0
 64 65  2  0
 65 66  1  0
 65 84  1  0
 66 69  1  0
 67 64  1  0
 67 68  1  0
 68 66  2  0
 69 70  1  0
 70 71  2  0
 72 75  1  0
 72 71  1  0
 73 72  2  0
 74 73  1  0
 74 69  2  0
 75 76  1  0
 76 77  1  0
 77 78  2  0
 79 78  1  0
 79 83  1  0
 80 79  2  0
 81 76  2  0
 81 80  1  0
 82 81  1  0
 84 85  1  0
 85 88  1  0
 85 87  1  0
 86 84  2  0
 89 90  1  0
 89 64  1  0
 91 89  1  0
M  ISO  4  10 101  11 101  54 100  62 100
M  END
>  <TORSDO>  (1) 
F 21

>  <SCORE>  (1) 
-11.041

>  <name>  (1) 
0

>  <ligand_id>  (1) 
0

>  <original_smiles>  (1) 
[H]c1c([H])c([H])c2c(c1[H])C([H])([H])C([H])([H])C([H])([H])C2([H])N([H])C(=O)C1([H])N(C(=O)C([H])(N([H])C(=O)C([H])(N([H])C([H])([H])[H])C([H])([H])[H])C(C([H])([H])[H])(C([H])([H])[H])C([H])([H])[H])C([H])([H])c2c([H])c(OC([H])([H])C([H])([H])c3c(C([H])([H])C([H])([H])[H])nnc(C([H])([H])C([H])([H])N([H])C(=O)N4C([H])([H])C([H])([H])C([H])([H])C([H])(n5nc(-c6c([H])c([H])c(Oc7c([H])c([H])c(F)c([H])c7F)c([H])c6[H])c(C(=O)N([H])[H])c5N([H])[H])C4([H])[H])c3[H])c([H])c([H])c2C1([H])[H]

>  <smiles>  (1) 
[H]c1c([H])c([H])c2c(c1[H])C([H])([H])C([H])([H])C([H])([H])C2([H])N([H])C(=O)C1([H])N(C(=O)C([H])(N([H])C(=O)C([H])(N([H])C([H])([H])[H])C([H])([H])[H])C(C([H])([H])[H])(C([H])([H])[H])C([H])([H])[H])C([H])([H])c2c([H])c(OC([H])([H])C([H])([H])c3c(C([H])([H])C([H])([H])[H])nnc(C([H])([H])C([H])([H])N([H])C(=O)N4C([H])([H])C([H])([H])C([H])([H])C([H])(n5nc(-c6c([H])c([H])c(Oc7c([H])c([H])c(F)c([H])c7F)c([H])c6[H])c(C(=O)N([H])[H])c5N([H])[H])C4([H])[H])c3[H])c([H])c([H])c2C1([H])[H]

$$$$
1:0:0
     RDKit          3D

 95103  0  0  1  0  0  0  0  0999 V2000
  -29.8560  -21.0590   19.7370 C   0  0  0  0  0  3  0  0  0  0  0  0
  -28.9730  -22.1450   19.9910 C   0  0  0  0  0  0  0  0  0  0  0  0
  -29.5670  -19.7980   20.3240 C   0  0  0  0  0  0  0  0  0  0  0  0
  -27.9100  -21.8850   20.8980 C   0  0  0  0  0  0  0  0  0  0  0  0
  -26.8120  -22.8830   21.2130 C   0  0  0  0  0  1  0  0  0  0  0  0
  -28.5360  -19.6510   21.1930 N   0  0  0  0  0  0  0  0  0  0  0  0
  -27.7480  -20.6820   21.5010 N   0  0  0  0  0  0  0  0  0  0  0  0
  -29.0790  -23.4430   19.1600 C   0  0  0  0  0  2  0  0  0  0  0  0
  -29.1860  -24.7940   19.9280 C   0  0  0  0  0  2  0  0  0  0  0  0
  -29.1080  -26.0440   19.0000 C   0  0  0  0  0  2  0  0  0  0  0  0
  -28.8470  -27.2940   19.6770 O   0  0  0  0  0  0  0  0  0  0  0  0
  -24.5510  -31.8310   23.1080 C   0  0  0  0  0  0  0  0  0  0  0  0
  -27.5820  -27.8690   19.7010 C   0  0  0  0  0  0  0  0  0  0  0  0
  -23.4660  -30.4390   21.3770 C   0  0  0  0  0  3  0  0  0  0  0  0
  -25.0460  -29.1540   19.8380 C   0  0  0  0  0  0  0  0  0  0  0  0
  -25.9490  -31.0510   21.1890 C   0  0  0  0  0  2  0  0  0  0  0  0
  -26.1600  -29.7410   20.4510 C   0  0  0  0  0  0  0  0  0  0  0  0
  -27.4260  -29.1080   20.3730 C   0  0  0  0  0  3  0  0  0  0  0  0
  -26.4340  -27.2840   19.1120 C   0  0  0  0  0  3  0  0  0  0  0  0
  -25.1800  -27.9270   19.1700 C   0  0  0  0  0  3  0  0  0  0  0  0
  -23.7250  -29.8900   19.9490 C   0  0  0  0  0  2  0  0  0  0  0  0
  -24.6720  -31.1230   21.9480 N   0  0  0  0  0  0  0  0  0  0  0  0
  -23.4580  -31.9510   23.6780 O   0  0  0  0  0  0  0  0  0  0  0  0
  -22.9330  -29.2890   22.2640 C   0  0  0  0  0  0  0  0  0  0  0  0
  -21.6340  -28.9780   22.1300 N   0  0  0  0  0  0  0  0  0  0  0  0
  -23.6880  -28.6800   23.0250 O   0  0  0  0  0  0  0  0  0  0  0  0
  -21.0790  -29.5300   21.4920 H   0  0  0  0  0  0  0  0  0  0  0  0
  -18.4100  -27.3990   22.5340 C   0  0  0  0  0  0  0  0  0  0  0  0
  -20.9260  -27.9100   22.8370 C   0  0  0  0  0  3  0  0  0  0  0  0
  -21.1820  -26.5390   22.1710 C   0  0  0  0  0  2  0  0  0  0  0  0
  -20.1230  -26.1680   21.1290 C   0  0  0  0  0  2  0  0  0  0  0  0
  -18.7320  -26.1220   21.7740 C   0  0  0  0  0  2  0  0  0  0  0  0
  -19.4410  -28.2450   23.0210 C   0  0  0  0  0  0  0  0  0  0  0  0
  -19.0910  -29.4360   23.6930 C   0  0  0  0  0  3  0  0  0  0  0  0
  -17.7410  -29.7860   23.8810 C   0  0  0  0  0  3  0  0  0  0  0  0
  -16.7230  -28.9370   23.4150 C   0  0  0  0  0  3  0  0  0  0  0  0
  -17.0580  -27.7460   22.7470 C   0  0  0  0  0  3  0  0  0  0  0  0
  -25.7780  -32.5410   23.7610 C   0  0  0  0  0  3  0  0  0  0  0  0
  -25.3680  -33.9080   24.1040 N   0  0  0  0  0  0  0  0  0  0  0  0
  -25.6580  -34.9950   23.3750 C   0  0  0  0  0  0  0  0  0  0  0  0
  -26.3720  -34.9550   22.3680 O   0  0  0  0  0  0  0  0  0  0  0  0
  -24.7260  -34.0060   24.8780 H   0  0  0  0  0  0  0  0  0  0  0  0
  -23.8330  -36.6850   22.9740 C   0  0  0  0  0  1  0  0  0  0  0  0
  -25.0630  -36.3400   23.8330 C   0  0  0  0  0  3  0  0  0  0  0  0
  -27.1010  -37.3470   24.7640 C   0  0  0  0  0  1  0  0  0  0  0  0
  -26.0290  -37.4580   23.7770 N   0  0  0  0  0  0  0  0  0  0  0  0
  -25.5620  -38.3500   23.9190 H   0  0  0  0  0  0  0  0  0  0  0  0
  -26.3250  -31.7880   25.0370 C   0  0  1  0  0  0  0  0  0  0  0  0
  -25.2340  -31.4580   26.0830 C   0  0  0  0  0  1  0  0  0  0  0  0
  -27.0080  -30.4600   24.6390 C   0  0  0  0  0  1  0  0  0  0  0  0
  -27.4140  -32.6430   25.7270 C   0  0  0  0  0  1  0  0  0  0  0  0
  -30.2290  -18.4850   19.8540 C   0  0  0  0  0  3  0  0  0  0  0  0
  -29.4510  -17.8690   18.6470 C   0  0  0  0  0  2  0  0  0  0  0  0
  -28.3480  -18.0460   16.3860 C   0  0  0  0  0  1  0  0  0  0  0  0
  -30.7190  -18.7770   16.5850 C   0  0  0  0  0  1  0  0  0  0  0  0
  -29.3740  -18.6940   17.3320 C   0  0  0  0  0  3  0  0  0  0  0  0
  -30.5390  -17.4870   21.0380 C   0  0  0  0  0  2  0  0  0  0  0  0
  -30.9650  -15.1060   20.2360 C   0  0  0  0  0  0  0  0  0  0  0  0
  -30.6540  -13.0230   18.9460 C   0  0  0  0  0  2  0  0  0  0  0  0
  -29.6610  -13.3170   17.8030 C   0  0  0  0  0  2  0  0  0  0  0  0
  -28.2050  -13.1400   18.2860 C   0  0  0  0  0  2  0  0  0  0  0  0
  -27.9180  -13.8690   19.6260 C   0  0  0  0  0  3  0  0  0  0  0  0
  -29.0240  -13.5580   20.6610 C   0  0  0  0  0  2  0  0  0  0  0  0
  -30.3170  -13.9230   20.0580 N   0  0  0  0  0  0  0  0  0  0  0  0
  -32.0820  -15.3470   19.7700 O   0  0  0  0  0  0  0  0  0  0  0  0
  -30.2190  -16.0610   20.8140 N   0  0  0  0  0  0  0  0  0  0  0  0
  -29.2980  -15.7620   21.0980 H   0  0  0  0  0  0  0  0  0  0  0  0
  -25.5390  -14.4140   20.4470 C   0  0  0  0  0  0  0  0  0  0  0  0
  -24.4890  -13.6090   20.8060 C   0  0  0  0  0  0  0  0  0  0  0  0
  -24.9620  -12.2660   20.6810 C   0  0  0  0  0  0  0  0  0  0  0  0
  -26.5840  -13.5550   20.1330 N   0  0  0  0  0  0  0  0  0  0  0  0
  -26.2420  -12.2580   20.3300 N   0  0  0  0  0  0  0  0  0  0  0  0
  -24.2520  -10.9880   20.8220 C   0  0  0  0  0  0  0  0  0  0  0  0
  -24.6880   -9.9970   21.7280 C   0  0  0  0  0  3  0  0  0  0  0  0
  -23.9770   -8.7840   21.8600 C   0  0  0  0  0  3  0  0  0  0  0  0
  -22.8180   -8.5550   21.0820 C   0  0  0  0  0  0  0  0  0  0  0  0
  -22.4030   -9.5340   20.1620 C   0  0  0  0  0  3  0  0  0  0  0  0
  -23.1140  -10.7390   20.0310 C   0  0  0  0  0  3  0  0  0  0  0  0
  -22.0800   -7.3960   21.1230 O   0  0  0  0  0  0  0  0  0  0  0  0
  -21.9770   -6.6470   22.2670 C   0  0  0  0  0  0  0  0  0  0  0  0
  -21.4730   -7.1900   23.4690 C   0  0  0  0  0  3  0  0  0  0  0  0
  -21.3210   -6.3670   24.6020 C   0  0  0  0  0  3  0  0  0  0  0  0
  -21.6620   -5.0040   24.5350 C   0  0  0  0  0  0  0  0  0  0  0  0
  -22.1590   -4.4600   23.3370 C   0  0  0  0  0  3  0  0  0  0  0  0
  -22.3130   -5.2790   22.2060 C   0  0  0  0  0  0  0  0  0  0  0  0
  -22.7720   -4.7460   21.0470 F   0  0  0  0  0  0  0  0  0  0  0  0
  -21.5080   -4.2110   25.6200 F   0  0  0  0  0  0  0  0  0  0  0  0
  -23.1000  -14.0580   21.1520 C   0  0  0  0  0  0  0  0  0  0  0  0
  -22.4090  -13.3050   22.0040 N   0  0  0  0  0  0  0  0  0  0  0  0
  -22.6330  -15.1030   20.7070 O   0  0  0  0  0  0  0  0  0  0  0  0
  -22.7990  -12.4570   22.3860 H   0  0  0  0  0  0  0  0  0  0  0  0
  -21.4820  -13.5900   22.2840 H   0  0  0  0  0  0  0  0  0  0  0  0
  -25.6840  -15.7930   20.3480 N   0  0  0  0  0  0  0  0  0  0  0  0
  -24.9220  -16.4350   20.5400 H   0  0  0  0  0  0  0  0  0  0  0  0
  -26.5190  -16.2640   20.0280 H   0  0  0  0  0  0  0  0  0  0  0  0
  1  2  2  0
  1  3  1  0
  2  4  1  0
  3  6  2  0
  4  5  1  0
  4  7  2  0
  6  7  1  0
  8  9  1  0
  8  2  1  0
 10 11  1  0
 10  9  1  0
 11 13  1  0
 12 23  2  0
 13 18  1  0
 14 22  1  0
 14 24  1  0
 15 21  1  0
 15 17  1  0
 16 22  1  0
 17 16  1  0
 18 17  2  0
 19 20  1  0
 19 13  2  0
 20 15  2  0
 21 14  1  0
 22 12  1  0
 24 26  2  0
 25 24  1  0
 27 25  1  0
 28 37  2  0
 28 33  1  0
 29 25  1  0
 29 33  1  0
 30 29  1  0
 31 32  1  0
 31 30  1  0
 32 28  1  0
 33 34  2  0
 34 35  1  0
 36 35  2  0
 37 36  1  0
 38 12  1  0
 38 39  1  0
 38 48  1  0
 39 42  1  0
 40 44  1  0
 40 39  1  0
 41 40  2  0
 44 43  1  0
 46 44  1  0
 46 47  1  0
 46 45  1  0
 48 51  1  1
 48 49  1  0
 50 48  1  0
 52 53  1  0
 52  3  1  0
 52 57  1  0
 54 56  1  0
 55 56  1  0
 56 53  1  0
 58 66  1  0
 59 64  1  0
 60 61  1  0
 60 59  1  0
 62 61  1  0
 62 71  1  0
 62 63  1  0
 64 58  1  0
 64 63  1  0
 65 58  2  0
 66 57  1  0
 66 67  1  0
 68 69  2  0
 69 88  1  0
 70 69  1  0
 70 73  1  0
 71 72  1  0
 71 68  1  0
 72 70  2  0
 73 74  1  0
 74 75  2  0
 76 79  1  0
 76 75  1  0
 77 76  2  0
 78 77  1  0
 78 73  2  0
 79 80  1  0
 80 81  1  0
 81 82  2  0
 83 82  1  0
 83 87  1  0
 84 83  2  0
 85 80  2  0
 85 84  1  0
 86 85  1  0
 88 89  1  0
 89 92  1  0
 89 91  1  0
 90 88  2  0
 93 68  1  0
 93 94  1  0
 95 93  1  0
M  ISO  4  10 101  11 101  58 100  66 100
M  END
>  <TORSDO>  (2) 
F 23

>  <SCORE>  (2) 
-9.638

>  <name>  (2) 
1

>  <ligand_id>  (2) 
1

>  <original_smiles>  (2) 
[H]c1c([H])c([H])c2c(c1[H])C([H])([H])C([H])([H])C([H])([H])C2([H])N([H])C(=O)C1([H])N(C(=O)C([H])(N([H])C(=O)C([H])(N([H])C([H])([H])[H])C([H])([H])[H])C(C([H])([H])[H])(C([H])([H])[H])C([H])([H])[H])C([H])([H])c2c([H])c(OC([H])([H])C([H])([H])C([H])([H])c3c(C([H])([H])[H])nnc(C([H])(C([H])([H])N([H])C(=O)N4C([H])([H])C([H])([H])C([H])([H])C([H])(n5nc(-c6c([H])c([H])c(Oc7c([H])c([H])c(F)c([H])c7F)c([H])c6[H])c(C(=O)N([H])[H])c5N([H])[H])C4([H])[H])C([H])([H])C([H])(C([H])([H])[H])C([H])([H])[H])c3[H])c([H])c([H])c2C1([H])[H]

>  <smiles>  (2) 
[H]c1c([H])c([H])c2c(c1[H])C([H])([H])C([H])([H])C([H])([H])C2([H])N([H])C(=O)C1([H])N(C(=O)C([H])(N([H])C(=O)C([H])(N([H])C([H])([H])[H])C([H])([H])[H])C(C([H])([H])[H])(C([H])([H])[H])C([H])([H])[H])C([H])([H])c2c([H])c(OC([H])([H])C([H])([H])C([H])([H])c3c(C([H])([H])[H])nnc(C([H])(C([H])([H])N([H])C(=O)N4C([H])([H])C([H])([H])C([H])([H])C([H])(n5nc(-c6c([H])c([H])c(Oc7c([H])c([H])c(F)c([H])c7F)c([H])c6[H])c(C(=O)N([H])[H])c5N([H])[H])C4([H])[H])C([H])([H])C([H])(C([H])([H])[H])C([H])([H])[H])c3[H])c([H])c([H])c2C1([H])[H]

$$$$
2:0:0
     RDKit          3D

100108  0  0  1  0  0  0  0  0999 V2000
  -29.4860  -22.1370   20.8010 C   0  0  0  0  0  3  0  0  0  0  0  0
  -29.8700  -20.8450   18.7950 C   0  0  0  0  0  3  0  0  0  0  0  0
  -29.4960  -22.0830   19.3920 C   0  0  0  0  0  0  0  0  0  0  0  0
  -29.8340  -20.9880   21.5320 C   0  0  0  0  0  0  0  0  0  0  0  0
  -30.2270  -19.7320   19.6040 C   0  0  0  0  0  0  0  0  0  0  0  0
  -30.1890  -19.8230   20.9480 N   0  0  0  0  0  0  0  0  0  0  0  0
  -29.0340  -23.2830   18.5320 C   0  0  0  0  0  2  0  0  0  0  0  0
  -29.1510  -24.7520   19.0880 C   0  0  0  0  0  2  0  0  0  0  0  0
  -28.1640  -25.7380   18.3850 C   0  0  0  0  0  2  0  0  0  0  0  0
  -28.1310  -27.0990   18.8980 O   0  0  0  0  0  0  0  0  0  0  0  0
  -24.4600  -31.5920   23.0700 C   0  0  0  0  0  0  0  0  0  0  0  0
  -26.9220  -27.7710   19.0820 C   0  0  0  0  0  0  0  0  0  0  0  0
  -23.1350  -30.3710   21.3760 C   0  0  0  0  0  3  0  0  0  0  0  0
  -24.4780  -29.1500   19.5880 C   0  0  0  0  0  0  0  0  0  0  0  0
  -25.6080  -30.9000   20.9620 C   0  0  0  0  0  2  0  0  0  0  0  0
  -25.6780  -29.6410   20.1150 C   0  0  0  0  0  0  0  0  0  0  0  0
  -26.8960  -28.9580   19.8650 C   0  0  0  0  0  3  0  0  0  0  0  0
  -25.6910  -27.3260   18.5360 C   0  0  0  0  0  3  0  0  0  0  0  0
  -24.4820  -27.9910   18.7990 C   0  0  0  0  0  3  0  0  0  0  0  0
  -23.2110  -29.9150   19.8960 C   0  0  0  0  0  2  0  0  0  0  0  0
  -24.4250  -30.9620   21.8590 N   0  0  0  0  0  0  0  0  0  0  0  0
  -23.4360  -31.7190   23.7570 O   0  0  0  0  0  0  0  0  0  0  0  0
  -22.6450  -29.1840   22.2370 C   0  0  0  0  0  0  0  0  0  0  0  0
  -21.3780  -28.7810   22.0390 N   0  0  0  0  0  0  0  0  0  0  0  0
  -23.4010  -28.6310   23.0390 O   0  0  0  0  0  0  0  0  0  0  0  0
  -20.8200  -29.2900   21.3680 H   0  0  0  0  0  0  0  0  0  0  0  0
  -18.3370  -26.8330   22.1490 C   0  0  0  0  0  0  0  0  0  0  0  0
  -20.7210  -27.6590   22.7100 C   0  0  0  0  0  3  0  0  0  0  0  0
  -21.2120  -26.3060   22.1430 C   0  0  0  0  0  2  0  0  0  0  0  0
  -20.3310  -25.7720   21.0100 C   0  0  0  0  0  2  0  0  0  0  0  0
  -18.8900  -25.5800   21.4930 C   0  0  0  0  0  2  0  0  0  0  0  0
  -19.1960  -27.8160   22.7060 C   0  0  0  0  0  0  0  0  0  0  0  0
  -18.6300  -28.9790   23.2730 C   0  0  0  0  0  3  0  0  0  0  0  0
  -17.2350  -29.1660   23.2920 C   0  0  0  0  0  3  0  0  0  0  0  0
  -16.3880  -28.1820   22.7530 C   0  0  0  0  0  3  0  0  0  0  0  0
  -16.9380  -27.0170   22.1880 C   0  0  0  0  0  3  0  0  0  0  0  0
  -25.7780  -32.2050   23.6350 C   0  0  0  0  0  3  0  0  0  0  0  0
  -26.4210  -31.3410   24.7900 C   0  0  1  0  0  0  0  0  0  0  0  0
  -25.4140  -30.9310   25.8910 C   0  0  0  0  0  1  0  0  0  0  0  0
  -27.0510  -30.0480   24.2190 C   0  0  0  0  0  1  0  0  0  0  0  0
  -27.5690  -32.1340   25.4580 C   0  0  0  0  0  1  0  0  0  0  0  0
  -25.4670  -33.5600   24.1120 N   0  0  0  0  0  0  0  0  0  0  0  0
  -25.7760  -34.6870   23.4560 C   0  0  0  0  0  0  0  0  0  0  0  0
  -26.4220  -34.6930   22.4050 O   0  0  0  0  0  0  0  0  0  0  0  0
  -24.8900  -33.6290   24.9360 H   0  0  0  0  0  0  0  0  0  0  0  0
  -24.0500  -36.5090   23.2960 C   0  0  0  0  0  1  0  0  0  0  0  0
  -25.2880  -36.0180   24.0610 C   0  0  0  0  0  3  0  0  0  0  0  0
  -27.4150  -36.8080   24.9980 C   0  0  0  0  0  1  0  0  0  0  0  0
  -26.3230  -37.0740   24.0660 N   0  0  0  0  0  0  0  0  0  0  0  0
  -25.9180  -37.9770   24.3030 H   0  0  0  0  0  0  0  0  0  0  0  0
  -29.8020  -20.9590   23.0480 C   0  0  0  0  0  2  0  0  0  0  0  0
  -30.8180  -19.9760   23.6550 C   0  0  0  0  0  2  0  0  0  0  0  0
  -30.5520  -19.7100   25.1500 C   0  0  0  0  0  2  0  0  0  0  0  0
  -29.1680  -18.3790   26.8170 C   0  0  0  0  0  1  0  0  0  0  0  0
  -29.7290  -18.4360   25.3920 C   0  0  0  0  0  2  0  0  0  0  0  0
  -30.8990  -18.4480   19.0420 C   0  0  0  0  0  2  0  0  0  0  0  0
  -30.2590  -17.0080   19.2220 C   0  0  0  0  0  3  0  0  0  0  0  0
  -31.6800  -14.9210   18.9660 C   0  0  0  0  0  0  0  0  0  0  0  0
  -31.3360  -12.5020   18.5640 C   0  0  0  0  0  2  0  0  0  0  0  0
  -30.2480  -12.2750   17.4970 C   0  0  0  0  0  2  0  0  0  0  0  0
  -28.8390  -12.2860   18.1240 C   0  0  0  0  0  2  0  0  0  0  0  0
  -28.6170  -13.4940   19.0750 C   0  0  0  0  0  3  0  0  0  0  0  0
  -29.7990  -13.6170   20.0590 C   0  0  0  0  0  2  0  0  0  0  0  0
  -31.0280  -13.7620   19.2690 N   0  0  0  0  0  0  0  0  0  0  0  0
  -32.6550  -14.9500   18.2140 O   0  0  0  0  0  0  0  0  0  0  0  0
  -31.3180  -16.0450   19.6190 N   0  0  0  0  0  0  0  0  0  0  0  0
  -32.1550  -16.5590   19.8580 H   0  0  0  0  0  0  0  0  0  0  0  0
  -26.5630  -14.4110   20.3280 C   0  0  0  0  0  0  0  0  0  0  0  0
  -25.4250  -13.7970   20.7860 C   0  0  0  0  0  0  0  0  0  0  0  0
  -25.5610  -12.4120   20.4600 C   0  0  0  0  0  0  0  0  0  0  0  0
  -27.3320  -13.4030   19.7660 N   0  0  0  0  0  0  0  0  0  0  0  0
  -26.7420  -12.1880   19.8980 N   0  0  0  0  0  0  0  0  0  0  0  0
  -24.6160  -11.2950   20.6020 C   0  0  0  0  0  0  0  0  0  0  0  0
  -24.9950  -10.0840   21.2180 C   0  0  0  0  0  3  0  0  0  0  0  0
  -24.0660   -9.0310   21.3620 C   0  0  0  0  0  3  0  0  0  0  0  0
  -22.7400   -9.1860   20.8910 C   0  0  0  0  0  0  0  0  0  0  0  0
  -22.3730  -10.3870   20.2610 C   0  0  0  0  0  3  0  0  0  0  0  0
  -23.3030  -11.4310   20.1120 C   0  0  0  0  0  3  0  0  0  0  0  0
  -21.7760   -8.2080   20.9670 O   0  0  0  0  0  0  0  0  0  0  0  0
  -21.7620   -7.2860   21.9850 C   0  0  0  0  0  0  0  0  0  0  0  0
  -21.6700   -7.6720   23.3400 C   0  0  0  0  0  3  0  0  0  0  0  0
  -21.5840   -6.6900   24.3470 C   0  0  0  0  0  3  0  0  0  0  0  0
  -21.5890   -5.3250   24.0030 C   0  0  0  0  0  0  0  0  0  0  0  0
  -21.6790   -4.9390   22.6550 C   0  0  0  0  0  3  0  0  0  0  0  0
  -21.7640   -5.9170   21.6480 C   0  0  0  0  0  0  0  0  0  0  0  0
  -21.8270   -5.5400   20.3480 F   0  0  0  0  0  0  0  0  0  0  0  0
  -21.5010   -4.3820   24.9700 F   0  0  0  0  0  0  0  0  0  0  0  0
  -24.2280  -14.4710   21.3910 C   0  0  0  0  0  0  0  0  0  0  0  0
  -23.5500  -13.8070   22.3210 N   0  0  0  0  0  0  0  0  0  0  0  0
  -23.9150  -15.6150   21.0700 O   0  0  0  0  0  0  0  0  0  0  0  0
  -23.8200  -12.8750   22.6030 H   0  0  0  0  0  0  0  0  0  0  0  0
  -22.7490  -14.2380   22.7580 H   0  0  0  0  0  0  0  0  0  0  0  0
  -27.0020  -15.7360   20.3170 N   0  0  0  0  0  0  0  0  0  0  0  0
  -26.2230  -16.3710   20.4670 H   0  0  0  0  0  0  0  0  0  0  0  0
  -27.4670  -15.9620   19.4440 H   0  0  0  0  0  0  0  0  0  0  0  0
  -29.1450  -16.9240   20.3070 C   0  0  0  0  0  2  0  0  0  0  0  0
  -27.8500  -17.4700   19.8740 N   0  0  0  0  0  4  0  0  0  0  0  0
  -27.9920  -18.4460   19.6450 H   0  0  0  0  0  0  0  0  0  0  0  0
  -27.2010  -17.4210   20.6390 H   0  0  0  0  0  0  0  0  0  0  0  0
  -27.4670  -16.9490   19.0970 H   0  0  0  0  0  0  0  0  0  0  0  0
  1  4  1  0
  2  3  1  0
  2  5  2  0
  3  1  2  0
  4 51  1  0
  5  6  1  0
  6  4  2  0
  7  8  1  0
  7  3  1  0
  9 10  1  0
  9  8  1  0
 10 12  1  0
 11 22  2  0
 12 17  1  0
 13 21  1  0
 13 23  1  0
 14 20  1  0
 14 16  1  0
 15 21  1  0
 16 15  1  0
 17 16  2  0
 18 19  1  0
 18 12  2  0
 19 14  2  0
 20 13  1  0
 21 11  1  0
 23 25  2  0
 24 23  1  0
 26 24  1  0
 27 36  2  0
 27 32  1  0
 28 24  1  0
 29 28  1  0
 30 31  1  0
 30 29  1  0
 31 27  1  0
 32 28  1  0
 32 33  2  0
 33 34  1  0
 35 34  2  0
 36 35  1  0
 37 11  1  0
 37 42  1  0
 37 38  1  0
 38 41  1  1
 38 39  1  0
 40 38  1  0
 42 45  1  0
 43 47  1  0
 43 42  1  0
 44 43  2  0
 47 46  1  0
 47 49  1  0
 49 50  1  0
 49 48  1  0
 51 52  1  0
 52 53  1  0
 53 55  1  0
 55 54  1  0
 56  5  1  0
 57 56  1  0
 57 66  1  0
 57 96  1  0
 58 64  1  0
 58 66  1  0
 59 64  1  0
 60 61  1  0
 60 59  1  0
 62 61  1  0
 62 71  1  0
 62 63  1  0
 64 63  1  0
 65 58  2  0
 66 67  1  0
 68 69  2  0
 69 88  1  0
 70 73  1  0
 70 69  1  0
 71 72  1  0
 71 68  1  0
 72 70  2  0
 73 74  1  0
 74 75  2  0
 76 79  1  0
 76 75  1  0
 77 76  2  0
 78 77  1  0
 78 73  2  0
 79 80  1  0
 80 81  1  0
 81 82  2  0
 83 82  1  0
 83 87  1  0
 84 83  2  0
 85 80  2  0
 85 84  1  0
 86 85  1  0
 88 89  1  0
 89 91  1  0
 89 92  1  0
 90 88  2  0
 93 68  1  0
 93 94  1  0
 95 93  1  0
 97 96  1  0
 97 99  1  0
 98 97  1  0
100 97  1  0
M  ISO  4   9 101  10 101  58 100  66 100
M  END
>  <TORSDO>  (3) 
F 27

>  <SCORE>  (3) 
-4.927

>  <name>  (3) 
2

>  <ligand_id>  (3) 
2

>  <original_smiles>  (3) 
[H]c1c([H])c([H])c2c(c1[H])C([H])([H])C([H])([H])C([H])([H])C2([H])N([H])C(=O)C1([H])N(C(=O)C([H])(N([H])C(=O)C([H])(N([H])C([H])([H])[H])C([H])([H])[H])C(C([H])([H])[H])(C([H])([H])[H])C([H])([H])[H])C([H])([H])c2c([H])c(OC([H])([H])C([H])([H])C([H])([H])c3c([H])c(C([H])([H])C([H])([H])C([H])([H])C([H])([H])C([H])([H])[H])nc(C([H])([H])C([H])(N([H])C(=O)N4C([H])([H])C([H])([H])C([H])([H])C([H])(n5nc(-c6c([H])c([H])c(Oc7c([H])c([H])c(F)c([H])c7F)c([H])c6[H])c(C(=O)N([H])[H])c5N([H])[H])C4([H])[H])C([H])([H])[N+]([H])([H])[H])c3[H])c([H])c([H])c2C1([H])[H]

>  <smiles>  (3) 
[H]c1c([H])c([H])c2c(c1[H])C([H])([H])C([H])([H])C([H])([H])C2([H])N([H])C(=O)C1([H])N(C(=O)C([H])(N([H])C(=O)C([H])(N([H])C([H])([H])[H])C([H])([H])[H])C(C([H])([H])[H])(C([H])([H])[H])C([H])([H])[H])C([H])([H])c2c([H])c(OC([H])([H])C([H])([H])C([H])([H])c3c([H])c(C([H])([H])C([H])([H])C([H])([H])C([H])([H])C([H])([H])[H])nc(C([H])([H])C([H])(N([H])C(=O)N4C([H])([H])C([H])([H])C([H])([H])C([H])(n5nc(-c6c([H])c([H])c(Oc7c([H])c([H])c(F)c([H])c7F)c([H])c6[H])c(C(=O)N([H])[H])c5N([H])[H])C4([H])[H])C([H])([H])[N+]([H])([H])[H])c3[H])c([H])c([H])c2C1([H])[H]

$$$$
3:0:0
     RDKit          3D

 94102  0  0  1  0  0  0  0  0999 V2000
  -29.7210  -20.6340   21.2630 C   0  0  0  0  0  3  0  0  0  0  0  0
  -31.5240  -19.9740   20.1690 C   0  0  0  0  0  3  0  0  0  0  0  0
  -30.6090  -19.5410   21.1020 C   0  0  0  0  0  0  0  0  0  0  0  0
  -30.0260  -21.6500   20.3950 C   0  0  0  0  0  0  0  0  0  0  0  0
  -31.1860  -21.2490   19.6970 N   0  0  0  0  0  0  0  0  0  0  0  0
  -29.0710  -23.4330   18.8050 C   0  0  0  0  0  1  0  0  0  0  0  0
  -29.9190  -24.0370   21.1120 C   0  0  0  0  0  1  0  0  0  0  0  0
  -27.8100  -22.7890   20.8180 C   0  0  0  0  0  1  0  0  0  0  0  0
  -29.2430  -22.9510   20.2570 C   0  0  2  0  0  0  0  0  0  0  0  0
  -31.8460  -17.6350   22.2280 C   0  0  0  0  0  1  0  0  0  0  0  0
  -30.4740  -18.2100   21.8560 C   0  0  0  0  0  3  0  0  0  0  0  0
  -29.6000  -17.1860   21.0680 C   0  0  0  0  0  2  0  0  0  0  0  0
  -30.5310  -14.8240   20.7190 C   0  0  0  0  0  0  0  0  0  0  0  0
  -30.3290  -12.7180   19.4370 C   0  0  0  0  0  2  0  0  0  0  0  0
  -29.4100  -13.0010   18.2270 C   0  0  0  0  0  2  0  0  0  0  0  0
  -27.9230  -12.8310   18.6040 C   0  0  0  0  0  2  0  0  0  0  0  0
  -27.5560  -13.5690   19.9220 C   0  0  0  0  0  3  0  0  0  0  0  0
  -28.5840  -13.2460   21.0320 C   0  0  0  0  0  2  0  0  0  0  0  0
  -29.9240  -13.6160   20.5320 N   0  0  0  0  0  0  0  0  0  0  0  0
  -31.6160  -15.1070   20.2030 O   0  0  0  0  0  0  0  0  0  0  0  0
  -29.7750  -15.7390   21.3630 N   0  0  0  0  0  0  0  0  0  0  0  0
  -28.9760  -15.3280   21.8180 H   0  0  0  0  0  0  0  0  0  0  0  0
  -25.1190  -14.1410   20.5270 C   0  0  0  0  0  0  0  0  0  0  0  0
  -24.0500  -13.3560   20.8590 C   0  0  0  0  0  0  0  0  0  0  0  0
  -24.5320  -12.0090   20.8550 C   0  0  0  0  0  0  0  0  0  0  0  0
  -26.1860  -13.2750   20.3450 N   0  0  0  0  0  0  0  0  0  0  0  0
  -25.8340  -11.9890   20.5960 N   0  0  0  0  0  0  0  0  0  0  0  0
  -23.8210  -10.7360   21.0300 C   0  0  0  0  0  0  0  0  0  0  0  0
  -24.2800   -9.7520   21.9310 C   0  0  0  0  0  3  0  0  0  0  0  0
  -23.5680   -8.5440   22.0930 C   0  0  0  0  0  3  0  0  0  0  0  0
  -22.3860   -8.3120   21.3510 C   0  0  0  0  0  0  0  0  0  0  0  0
  -21.9470   -9.2870   20.4400 C   0  0  0  0  0  3  0  0  0  0  0  0
  -22.6590  -10.4870   20.2750 C   0  0  0  0  0  3  0  0  0  0  0  0
  -21.6460   -7.1560   21.4230 O   0  0  0  0  0  0  0  0  0  0  0  0
  -21.6960   -6.3370   22.5230 C   0  0  0  0  0  0  0  0  0  0  0  0
  -21.4020   -6.8110   23.8200 C   0  0  0  0  0  3  0  0  0  0  0  0
  -21.3960   -5.9190   24.9100 C   0  0  0  0  0  3  0  0  0  0  0  0
  -21.6720   -4.5550   24.7080 C   0  0  0  0  0  0  0  0  0  0  0  0
  -21.9620   -4.0790   23.4160 C   0  0  0  0  0  3  0  0  0  0  0  0
  -21.9680   -4.9680   22.3250 C   0  0  0  0  0  0  0  0  0  0  0  0
  -22.2240   -4.5010   21.0810 F   0  0  0  0  0  0  0  0  0  0  0  0
  -21.6610   -3.6970   25.7540 F   0  0  0  0  0  0  0  0  0  0  0  0
  -22.6370  -13.8100   21.0790 C   0  0  0  0  0  0  0  0  0  0  0  0
  -21.9000  -13.1320   21.9530 N   0  0  0  0  0  0  0  0  0  0  0  0
  -22.1880  -14.8050   20.5100 O   0  0  0  0  0  0  0  0  0  0  0  0
  -22.2720  -12.3250   22.4330 H   0  0  0  0  0  0  0  0  0  0  0  0
  -20.9520  -13.4260   22.1450 H   0  0  0  0  0  0  0  0  0  0  0  0
  -25.2660  -15.5140   20.3450 N   0  0  0  0  0  0  0  0  0  0  0  0
  -24.4840  -16.1560   20.4230 H   0  0  0  0  0  0  0  0  0  0  0  0
  -26.1180  -15.9680   20.0420 H   0  0  0  0  0  0  0  0  0  0  0  0
  -31.8640  -21.8810   18.5350 C   0  0  0  0  0  2  0  0  0  0  0  0
  -32.5530  -23.2910   18.6570 C   0  0  0  0  0  2  0  0  0  0  0  0
  -31.8530  -24.3410   17.7360 C   0  0  0  0  0  2  0  0  0  0  0  0
  -31.7170  -25.7270   18.1780 O   0  0  0  0  0  0  0  0  0  0  0  0
  -25.7790  -27.9100   21.5360 C   0  0  0  0  0  0  0  0  0  0  0  0
  -30.4590  -26.3210   18.0470 C   0  0  0  0  0  0  0  0  0  0  0  0
  -25.6090  -27.6410   19.0880 C   0  0  0  0  0  3  0  0  0  0  0  0
  -27.8210  -27.3770   17.8410 C   0  0  0  0  0  0  0  0  0  0  0  0
  -27.8500  -28.2430   20.1820 C   0  0  0  0  0  2  0  0  0  0  0  0
  -28.5400  -27.5290   19.0330 C   0  0  0  0  0  0  0  0  0  0  0  0
  -29.8590  -27.0090   19.1380 C   0  0  0  0  0  3  0  0  0  0  0  0
  -29.7180  -26.2410   16.8390 C   0  0  0  0  0  3  0  0  0  0  0  0
  -28.4070  -26.7380   16.7420 C   0  0  0  0  0  3  0  0  0  0  0  0
  -26.4130  -27.9300   17.7940 C   0  0  0  0  0  2  0  0  0  0  0  0
  -26.4080  -27.9130   20.3270 N   0  0  0  0  0  0  0  0  0  0  0  0
  -24.5570  -27.7230   21.6270 O   0  0  0  0  0  0  0  0  0  0  0  0
  -25.0550  -26.2000   19.0200 C   0  0  0  0  0  0  0  0  0  0  0  0
  -24.0290  -25.9890   18.1790 N   0  0  0  0  0  0  0  0  0  0  0  0
  -25.5570  -25.2980   19.6970 O   0  0  0  0  0  0  0  0  0  0  0  0
  -23.6710  -26.7810   17.6630 H   0  0  0  0  0  0  0  0  0  0  0  0
  -21.4390  -24.3720   16.2440 C   0  0  0  0  0  0  0  0  0  0  0  0
  -23.3740  -24.7080   17.9260 C   0  0  0  0  0  3  0  0  0  0  0  0
  -24.2180  -23.8300   16.9720 C   0  0  0  0  0  2  0  0  0  0  0  0
  -23.8270  -23.9900   15.5000 C   0  0  0  0  0  2  0  0  0  0  0  0
  -22.3550  -23.6240   15.2910 C   0  0  0  0  0  2  0  0  0  0  0  0
  -21.9190  -24.8960   17.4730 C   0  0  0  0  0  0  0  0  0  0  0  0
  -21.0320  -25.6140   18.3030 C   0  0  0  0  0  3  0  0  0  0  0  0
  -19.6900  -25.8060   17.9270 C   0  0  0  0  0  3  0  0  0  0  0  0
  -19.2160  -25.2730   16.7160 C   0  0  0  0  0  3  0  0  0  0  0  0
  -20.0880  -24.5560   15.8790 C   0  0  0  0  0  3  0  0  0  0  0  0
  -26.5620  -28.1640   22.8620 C   0  0  0  0  0  3  0  0  0  0  0  0
  -25.7520  -29.0730   23.6860 N   0  0  0  0  0  0  0  0  0  0  0  0
  -25.9740  -30.3880   23.8160 C   0  0  0  0  0  0  0  0  0  0  0  0
  -26.9390  -30.9560   23.2980 O   0  0  0  0  0  0  0  0  0  0  0  0
  -24.9140  -28.6840   24.0960 H   0  0  0  0  0  0  0  0  0  0  0  0
  -23.9830  -31.9190   23.7090 C   0  0  0  0  0  1  0  0  0  0  0  0
  -24.9650  -31.2010   24.6490 C   0  0  0  0  0  3  0  0  0  0  0  0
  -26.3430  -31.5660   26.6480 C   0  0  0  0  0  1  0  0  0  0  0  0
  -25.6050  -32.1830   25.5490 N   0  0  0  0  0  0  0  0  0  0  0  0
  -24.9140  -32.8140   25.9450 H   0  0  0  0  0  0  0  0  0  0  0  0
  -26.8920  -26.8400   23.6530 C   0  0  1  0  0  0  0  0  0  0  0  0
  -25.6640  -25.9310   23.8840 C   0  0  0  0  0  1  0  0  0  0  0  0
  -27.9590  -26.0070   22.9060 C   0  0  0  0  0  1  0  0  0  0  0  0
  -27.4950  -27.1910   25.0330 C   0  0  0  0  0  1  0  0  0  0  0  0
  2  3  2  0
  3  1  1  0
  3 11  1  0
  4  1  2  0
  5  2  1  0
  5  4  1  0
  9  6  1  6
  9  4  1  0
  9  8  1  0
  9  7  1  0
 11 10  1  0
 12 21  1  0
 12 11  1  0
 13 21  1  0
 14 19  1  0
 15 16  1  0
 15 14  1  0
 17 16  1  0
 17 26  1  0
 17 18  1  0
 19 13  1  0
 19 18  1  0
 20 13  2  0
 21 22  1  0
 23 24  2  0
 24 43  1  0
 25 24  1  0
 25 28  1  0
 26 23  1  0
 26 27  1  0
 27 25  2  0
 28 29  1  0
 29 30  2  0
 31 34  1  0
 31 30  1  0
 32 31  2  0
 33 32  1  0
 33 28  2  0
 34 35  1  0
 35 36  1  0
 36 37  2  0
 38 37  1  0
 38 42  1  0
 39 38  2  0
 40 35  2  0
 40 39  1  0
 41 40  1  0
 43 44  1  0
 44 47  1  0
 44 46  1  0
 45 43  2  0
 48 49  1  0
 48 23  1  0
 50 48  1  0
 51 52  1  0
 51  5  1  0
 53 54  1  0
 53 52  1  0
 55 66  2  0
 56 54  1  0
 56 61  1  0
 57 67  1  0
 57 65  1  0
 58 60  1  0
 59 65  1  0
 60 61  2  0
 60 59  1  0
 62 56  2  0
 63 62  1  0
 63 58  2  0
 64 58  1  0
 64 57  1  0
 65 55  1  0
 67 69  2  0
 68 67  1  0
 70 68  1  0
 71 76  1  0
 72 68  1  0
 73 72  1  0
 74 73  1  0
 75 74  1  0
 75 71  1  0
 76 72  1  0
 76 77  2  0
 78 77  1  0
 79 78  2  0
 80 71  2  0
 80 79  1  0
 81 55  1  0
 81 91  1  0
 81 82  1  0
 82 83  1  0
 82 85  1  0
 83 87  1  0
 84 83  2  0
 87 86  1  0
 87 89  1  0
 89 90  1  0
 89 88  1  0
 91 92  1  1
 91 94  1  0
 93 91  1  0
M  ISO  4  13 100  21 100  53 101  54 101
M  END
>  <TORSDO>  (4) 
F 22

>  <SCORE>  (4) 
-9.302

>  <name>  (4) 
3

>  <ligand_id>  (4) 
3

>  <original_smiles>  (4) 
[H]c1c([H])c([H])c2c(c1[H])C([H])([H])C([H])([H])C([H])([H])C2([H])N([H])C(=O)C1([H])N(C(=O)C([H])(N([H])C(=O)C([H])(N([H])C([H])([H])[H])C([H])([H])[H])C(C([H])([H])[H])(C([H])([H])[H])C([H])([H])[H])C([H])([H])c2c([H])c(OC([H])([H])C([H])([H])C([H])([H])n3c([H])c(C([H])(C([H])([H])[H])C([H])([H])N([H])C(=O)N4C([H])([H])C([H])([H])C([H])([H])C([H])(n5nc(-c6c([H])c([H])c(Oc7c([H])c([H])c(F)c([H])c7F)c([H])c6[H])c(C(=O)N([H])[H])c5N([H])[H])C4([H])[H])c([H])c3C(C([H])([H])[H])(C([H])([H])[H])C([H])([H])[H])c([H])c([H])c2C1([H])[H]

>  <smiles>  (4) 
[H]c1c([H])c([H])c2c(c1[H])C([H])([H])C([H])([H])C([H])([H])C2([H])N([H])C(=O)C1([H])N(C(=O)C([H])(N([H])C(=O)C([H])(N([H])C([H])([H])[H])C([H])([H])[H])C(C([H])([H])[H])(C([H])([H])[H])C([H])([H])[H])C([H])([H])c2c([H])c(OC([H])([H])C([H])([H])C([H])([H])n3c([H])c(C([H])(C([H])([H])[H])C([H])([H])N([H])C(=O)N4C([H])([H])C([H])([H])C([H])([H])C([H])(n5nc(-c6c([H])c([H])c(Oc7c([H])c([H])c(F)c([H])c7F)c([H])c6[H])c(C(=O)N([H])[H])c5N([H])[H])C4([H])[H])c([H])c3C(C([H])([H])[H])(C([H])([H])[H])C([H])([H])[H])c([H])c([H])c2C1([H])[H]

$$$$
4:0:0
     RDKit          3D

 94102  0  0  1  0  0  0  0  0999 V2000
  -29.1630  -22.9750   18.9470 C   0  0  0  0  0  3  0  0  0  0  0  0
  -28.7650  -24.3210   19.3150 C   0  0  0  0  0  0  0  0  0  0  0  0
  -28.0200  -24.4020   20.5220 C   0  0  0  0  0  0  0  0  0  0  0  0
  -28.8680  -21.8090   19.7510 C   0  0  0  0  0  0  0  0  0  0  0  0
  -27.7940  -23.2150   21.2830 C   0  0  0  0  0  0  0  0  0  0  0  0
  -27.4180  -25.7370   20.9520 C   0  0  0  0  0  1  0  0  0  0  0  0
  -28.2130  -21.9820   20.9130 N   0  0  0  0  0  0  0  0  0  0  0  0
  -27.6080  -19.6100   19.2670 C   0  0  0  0  0  1  0  0  0  0  0  0
  -28.9870  -20.2890   19.2710 C   0  0  0  0  0  3  0  0  0  0  0  0
  -30.1280  -19.2450   19.7680 C   0  0  0  0  0  2  0  0  0  0  0  0
  -29.9310  -18.0290   20.8200 C   0  0  0  0  0  2  0  0  0  0  0  0
  -30.7050  -15.5010   20.3580 C   0  0  0  0  0  0  0  0  0  0  0  0
  -30.7480  -13.1700   19.4420 C   0  0  0  0  0  2  0  0  0  0  0  0
  -29.8660  -13.1020   18.1770 C   0  0  0  0  0  2  0  0  0  0  0  0
  -28.3920  -12.8450   18.5480 C   0  0  0  0  0  2  0  0  0  0  0  0
  -27.8930  -13.7580   19.7010 C   0  0  0  0  0  3  0  0  0  0  0  0
  -28.8970  -13.8010   20.8700 C   0  0  0  0  0  2  0  0  0  0  0  0
  -30.1870  -14.2270   20.3120 N   0  0  0  0  0  0  0  0  0  0  0  0
  -31.9070  -15.6940   20.1520 O   0  0  0  0  0  0  0  0  0  0  0  0
  -29.8030  -16.5510   20.4370 N   0  0  0  0  0  0  0  0  0  0  0  0
  -28.8460  -16.2300   20.4480 H   0  0  0  0  0  0  0  0  0  0  0  0
  -25.4380  -14.2100   20.2790 C   0  0  0  0  0  0  0  0  0  0  0  0
  -24.4120  -13.3810   20.6380 C   0  0  0  0  0  0  0  0  0  0  0  0
  -24.9700  -12.0680   20.7050 C   0  0  0  0  0  0  0  0  0  0  0  0
  -26.5510  -13.3980   20.1420 N   0  0  0  0  0  0  0  0  0  0  0  0
  -26.2740  -12.1080   20.4620 N   0  0  0  0  0  0  0  0  0  0  0  0
  -24.3250  -10.7670   20.9280 C   0  0  0  0  0  0  0  0  0  0  0  0
  -24.7090   -9.9290   21.9980 C   0  0  0  0  0  3  0  0  0  0  0  0
  -24.0630   -8.6900   22.2020 C   0  0  0  0  0  3  0  0  0  0  0  0
  -23.0200   -8.2820   21.3370 C   0  0  0  0  0  0  0  0  0  0  0  0
  -22.6590   -9.1110   20.2610 C   0  0  0  0  0  3  0  0  0  0  0  0
  -23.3070  -10.3400   20.0550 C   0  0  0  0  0  3  0  0  0  0  0  0
  -22.3510   -7.0860   21.4460 O   0  0  0  0  0  0  0  0  0  0  0  0
  -22.1210   -6.5000   22.6630 C   0  0  0  0  0  0  0  0  0  0  0  0
  -21.3400   -7.1280   23.6590 C   0  0  0  0  0  3  0  0  0  0  0  0
  -21.0710   -6.4570   24.8690 C   0  0  0  0  0  3  0  0  0  0  0  0
  -21.5710   -5.1590   25.0810 C   0  0  0  0  0  0  0  0  0  0  0  0
  -22.3420   -4.5290   24.0880 C   0  0  0  0  0  3  0  0  0  0  0  0
  -22.6130   -5.1980   22.8810 C   0  0  0  0  0  0  0  0  0  0  0  0
  -23.3400   -4.5800   21.9200 F   0  0  0  0  0  0  0  0  0  0  0  0
  -21.3050   -4.5110   26.2390 F   0  0  0  0  0  0  0  0  0  0  0  0
  -22.9720  -13.7690   20.8110 C   0  0  0  0  0  0  0  0  0  0  0  0
  -22.2470  -13.0590   21.6690 N   0  0  0  0  0  0  0  0  0  0  0  0
  -22.4950  -14.7370   20.2210 O   0  0  0  0  0  0  0  0  0  0  0  0
  -22.6480  -12.2800   22.1710 H   0  0  0  0  0  0  0  0  0  0  0  0
  -21.2780  -13.2940   21.8250 H   0  0  0  0  0  0  0  0  0  0  0  0
  -25.5100  -15.5780   20.0320 N   0  0  0  0  0  0  0  0  0  0  0  0
  -24.6810  -16.1600   20.0620 H   0  0  0  0  0  0  0  0  0  0  0  0
  -26.3210  -16.0680   19.6780 H   0  0  0  0  0  0  0  0  0  0  0  0
  -29.0510  -25.5840   18.3670 C   0  0  0  0  0  2  0  0  0  0  0  0
  -28.9670  -27.0230   18.8120 O   0  0  0  0  0  0  0  0  0  0  0  0
  -24.7740  -31.4810   22.7060 C   0  0  0  0  0  0  0  0  0  0  0  0
  -27.7640  -27.7690   18.8830 C   0  0  0  0  0  0  0  0  0  0  0  0
  -23.6870  -30.2850   20.8430 C   0  0  0  0  0  3  0  0  0  0  0  0
  -25.2570  -29.1550   19.1650 C   0  0  0  0  0  0  0  0  0  0  0  0
  -26.1850  -30.8620   20.7250 C   0  0  0  0  0  2  0  0  0  0  0  0
  -26.3870  -29.6320   19.8400 C   0  0  0  0  0  0  0  0  0  0  0  0
  -27.6370  -28.9520   19.6910 C   0  0  0  0  0  3  0  0  0  0  0  0
  -26.5940  -27.3500   18.2100 C   0  0  0  0  0  3  0  0  0  0  0  0
  -25.3640  -28.0240   18.3440 C   0  0  0  0  0  3  0  0  0  0  0  0
  -23.9470  -29.8940   19.3640 C   0  0  0  0  0  2  0  0  0  0  0  0
  -24.9010  -30.8850   21.4840 N   0  0  0  0  0  0  0  0  0  0  0  0
  -23.6780  -31.5530   23.2800 O   0  0  0  0  0  0  0  0  0  0  0  0
  -23.1390  -29.0530   21.6040 C   0  0  0  0  0  0  0  0  0  0  0  0
  -21.8300  -28.7830   21.4590 N   0  0  0  0  0  0  0  0  0  0  0  0
  -23.8890  -28.3540   22.2890 O   0  0  0  0  0  0  0  0  0  0  0  0
  -21.2760  -29.4100   20.8930 H   0  0  0  0  0  0  0  0  0  0  0  0
  -18.5670  -27.2770   21.8720 C   0  0  0  0  0  0  0  0  0  0  0  0
  -21.1180  -27.6510   22.0570 C   0  0  0  0  0  3  0  0  0  0  0  0
  -21.2630  -26.3810   21.1880 C   0  0  0  0  0  2  0  0  0  0  0  0
  -20.1180  -26.2020   20.1850 C   0  0  0  0  0  2  0  0  0  0  0  0
  -18.7740  -26.1150   20.9160 C   0  0  0  0  0  2  0  0  0  0  0  0
  -19.6650  -28.0080   22.3950 C   0  0  0  0  0  0  0  0  0  0  0  0
  -19.4140  -29.1000   23.2540 C   0  0  0  0  0  3  0  0  0  0  0  0
  -18.0960  -29.4650   23.5900 C   0  0  0  0  0  3  0  0  0  0  0  0
  -17.0130  -28.7290   23.0790 C   0  0  0  0  0  3  0  0  0  0  0  0
  -17.2490  -27.6360   22.2260 C   0  0  0  0  0  3  0  0  0  0  0  0
  -25.9980  -32.1210   23.4310 C   0  0  0  0  0  3  0  0  0  0  0  0
  -25.5500  -33.3870   24.0300 N   0  0  0  0  0  0  0  0  0  0  0  0
  -25.8090  -34.6010   23.5260 C   0  0  0  0  0  0  0  0  0  0  0  0
  -26.5210  -34.7760   22.5330 O   0  0  0  0  0  0  0  0  0  0  0  0
  -24.9200  -33.3170   24.8150 H   0  0  0  0  0  0  0  0  0  0  0  0
  -23.9470  -36.2900   23.4560 C   0  0  0  0  0  1  0  0  0  0  0  0
  -25.1820  -35.8160   24.2390 C   0  0  0  0  0  3  0  0  0  0  0  0
  -27.1930  -36.6590   25.3670 C   0  0  0  0  0  1  0  0  0  0  0  0
  -26.1210  -36.9440   24.4170 N   0  0  0  0  0  0  0  0  0  0  0  0
  -25.6300  -37.7750   24.7360 H   0  0  0  0  0  0  0  0  0  0  0  0
  -26.6250  -31.1800   24.5330 C   0  0  1  0  0  0  0  0  0  0  0  0
  -25.5920  -30.6280   25.5430 C   0  0  0  0  0  1  0  0  0  0  0  0
  -27.3360  -29.9710   23.8820 C   0  0  0  0  0  1  0  0  0  0  0  0
  -27.7040  -31.9510   25.3310 C   0  0  0  0  0  1  0  0  0  0  0  0
  -26.9200  -23.1940   22.5300 C   0  0  0  0  0  2  0  0  0  0  0  0
  -24.5450  -23.6050   23.4160 C   0  0  0  0  0  1  0  0  0  0  0  0
  -25.4780  -23.6190   22.1990 C   0  0  0  0  0  2  0  0  0  0  0  0
  1  2  2  0
  1  4  1  0
  2  3  1  0
  3  6  1  0
  3  5  2  0
  4  7  2  0
  5 92  1  0
  7  5  1  0
  9  8  1  0
  9  4  1  0
  9 10  1  0
 10 11  1  0
 12 20  1  0
 13 18  1  0
 14 15  1  0
 14 13  1  0
 16 15  1  0
 16 25  1  0
 16 17  1  0
 18 12  1  0
 18 17  1  0
 19 12  2  0
 20 21  1  0
 20 11  1  0
 22 23  2  0
 23 24  1  0
 23 42  1  0
 24 27  1  0
 25 22  1  0
 25 26  1  0
 26 24  2  0
 27 28  1  0
 28 29  2  0
 30 33  1  0
 30 29  1  0
 31 30  2  0
 32 31  1  0
 32 27  2  0
 33 34  1  0
 34 39  2  0
 34 35  1  0
 35 36  2  0
 36 37  1  0
 37 41  1  0
 38 37  2  0
 39 38  1  0
 40 39  1  0
 42 43  1  0
 43 46  1  0
 43 45  1  0
 44 42  2  0
 47 48  1  0
 47 22  1  0
 49 47  1  0
 50 51  1  0
 50  2  1  0
 51 53  1  0
 52 63  2  0
 53 58  1  0
 54 62  1  0
 54 64  1  0
 55 61  1  0
 55 57  1  0
 56 62  1  0
 57 56  1  0
 58 57  2  0
 59 60  1  0
 59 53  2  0
 60 55  2  0
 61 54  1  0
 62 52  1  0
 64 66  2  0
 65 64  1  0
 67 65  1  0
 68 77  2  0
 68 73  1  0
 69 65  1  0
 69 73  1  0
 70 69  1  0
 71 72  1  0
 71 70  1  0
 72 68  1  0
 73 74  2  0
 74 75  1  0
 76 75  2  0
 77 76  1  0
 78 52  1  0
 78 79  1  0
 78 88  1  0
 79 82  1  0
 80 79  1  0
 80 84  1  0
 81 80  2  0
 84 83  1  0
 84 86  1  0
 86 87  1  0
 86 85  1  0
 88 91  1  1
 88 89  1  0
 90 88  1  0
 94 92  1  0
 94 93  1  0
M  ISO  4  12 100  20 100  50 101  51 101
M  END
>  <TORSDO>  (5) 
F 22

>  <SCORE>  (5) 
-7.871

>  <name>  (5) 
4

>  <ligand_id>  (5) 
4

>  <original_smiles>  (5) 
[H]c1c([H])c([H])c2c(c1[H])C([H])([H])C([H])([H])C([H])([H])C2([H])N([H])C(=O)C1([H])N(C(=O)C([H])(N([H])C(=O)C([H])(N([H])C([H])([H])[H])C([H])([H])[H])C(C([H])([H])[H])(C([H])([H])[H])C([H])([H])[H])C([H])([H])c2c([H])c(OC([H])([H])c3c([H])c(C([H])(C([H])([H])[H])C([H])([H])C([H])([H])N([H])C(=O)N4C([H])([H])C([H])([H])C([H])([H])C([H])(n5nc(-c6c([H])c([H])c(Oc7c([H])c([H])c(F)c([H])c7F)c([H])c6[H])c(C(=O)N([H])[H])c5N([H])[H])C4([H])[H])nc(C([H])([H])C([H])([H])C([H])([H])[H])c3C([H])([H])[H])c([H])c([H])c2C1([H])[H]

>  <smiles>  (5) 
[H]c1c([H])c([H])c2c(c1[H])C([H])([H])C([H])([H])C([H])([H])C2([H])N([H])C(=O)C1([H])N(C(=O)C([H])(N([H])C(=O)C([H])(N([H])C([H])([H])[H])C([H])([H])[H])C(C([H])([H])[H])(C([H])([H])[H])C([H])([H])[H])C([H])([H])c2c([H])c(OC([H])([H])c3c([H])c(C([H])(C([H])([H])[H])C([H])([H])C([H])([H])N([H])C(=O)N4C([H])([H])C([H])([H])C([H])([H])C([H])(n5nc(-c6c([H])c([H])c(Oc7c([H])c([H])c(F)c([H])c7F)c([H])c6[H])c(C(=O)N([H])[H])c5N([H])[H])C4([H])[H])nc(C([H])([H])C([H])([H])C([H])([H])[H])c3C([H])([H])[H])c([H])c([H])c2C1([H])[H]

$$$$
5:0:0
     RDKit          3D

 92100  0  0  1  0  0  0  0  0999 V2000
  -31.2820  -22.4970   20.3140 C   0  0  0  0  0  3  0  0  0  0  0  0
  -30.8670  -21.1620   20.1130 C   0  0  0  0  0  3  0  0  0  0  0  0
  -30.3770  -23.5920   20.3270 C   0  0  0  0  0  0  0  0  0  0  0  0
  -29.5090  -20.8420   19.9650 C   0  0  0  0  0  0  0  0  0  0  0  0
  -29.0240  -23.3610   19.9620 C   0  0  0  0  0  0  0  0  0  0  0  0
  -28.6350  -21.9770   19.8330 N   0  0  0  0  0  0  0  0  0  0  0  0
  -30.1020  -25.4540   22.0750 C   0  0  0  0  0  1  0  0  0  0  0  0
  -31.2440  -25.9910   19.7620 C   0  0  0  0  0  1  0  0  0  0  0  0
  -30.8920  -24.9470   20.8410 C   0  0  0  0  0  3  0  0  0  0  0  0
  -28.0120  -24.6900   18.0280 C   0  0  0  0  0  1  0  0  0  0  0  0
  -28.0290  -24.6480   19.5750 C   0  0  0  0  0  3  0  0  0  0  0  0
  -28.2020  -26.1490   20.0470 O   0  0  0  0  0  0  0  0  0  0  0  0
  -24.6590  -31.8670   23.2130 C   0  0  0  0  0  0  0  0  0  0  0  0
  -27.1510  -27.1440   20.0630 C   0  0  0  0  0  0  0  0  0  0  0  0
  -23.4340  -30.4850   21.5920 C   0  0  0  0  0  3  0  0  0  0  0  0
  -24.8390  -28.9210   20.1360 C   0  0  0  0  0  0  0  0  0  0  0  0
  -25.9910  -30.7350   21.3820 C   0  0  0  0  0  2  0  0  0  0  0  0
  -26.0440  -29.3490   20.7110 C   0  0  0  0  0  0  0  0  0  0  0  0
  -27.2050  -28.4810   20.6480 C   0  0  0  0  0  3  0  0  0  0  0  0
  -25.8990  -26.8150   19.4980 C   0  0  0  0  0  3  0  0  0  0  0  0
  -24.7800  -27.6670   19.5220 C   0  0  0  0  0  3  0  0  0  0  0  0
  -23.6290  -29.8310   20.2050 C   0  0  0  0  0  2  0  0  0  0  0  0
  -24.7170  -31.0440   22.1200 N   0  0  0  0  0  0  0  0  0  0  0  0
  -23.5770  -32.1510   23.7530 O   0  0  0  0  0  0  0  0  0  0  0  0
  -22.7670  -29.4680   22.5550 C   0  0  0  0  0  0  0  0  0  0  0  0
  -21.4410  -29.2850   22.4330 N   0  0  0  0  0  0  0  0  0  0  0  0
  -23.4460  -28.8410   23.3710 O   0  0  0  0  0  0  0  0  0  0  0  0
  -20.9540  -29.8420   21.7480 H   0  0  0  0  0  0  0  0  0  0  0  0
  -18.0710  -28.0600   22.9600 C   0  0  0  0  0  0  0  0  0  0  0  0
  -20.6290  -28.3440   23.2120 C   0  0  0  0  0  3  0  0  0  0  0  0
  -20.7460  -26.9110   22.6420 C   0  0  0  0  0  2  0  0  0  0  0  0
  -19.6400  -26.5740   21.6370 C   0  0  0  0  0  2  0  0  0  0  0  0
  -18.2570  -26.7120   22.2830 C   0  0  0  0  0  2  0  0  0  0  0  0
  -19.1870  -28.8320   23.3810 C   0  0  0  0  0  0  0  0  0  0  0  0
  -18.9590  -30.0920   23.9720 C   0  0  0  0  0  3  0  0  0  0  0  0
  -17.6540  -30.5820   24.1460 C   0  0  0  0  0  3  0  0  0  0  0  0
  -16.5520  -29.8080   23.7390 C   0  0  0  0  0  3  0  0  0  0  0  0
  -16.7620  -28.5490   23.1480 C   0  0  0  0  0  3  0  0  0  0  0  0
  -25.9400  -32.5050   23.8240 C   0  0  0  0  0  3  0  0  0  0  0  0
  -26.4530  -31.7340   25.0990 C   0  0  1  0  0  0  0  0  0  0  0  0
  -25.3550  -31.5060   26.1660 C   0  0  0  0  0  1  0  0  0  0  0  0
  -27.0370  -30.3620   24.7000 C   0  0  0  0  0  1  0  0  0  0  0  0
  -27.6090  -32.5220   25.7560 C   0  0  0  0  0  1  0  0  0  0  0  0
  -25.6250  -33.8980   24.1740 N   0  0  0  0  0  0  0  0  0  0  0  0
  -25.9210  -34.9640   23.4180 C   0  0  0  0  0  0  0  0  0  0  0  0
  -26.5640  -34.8770   22.3690 O   0  0  0  0  0  0  0  0  0  0  0  0
  -25.0660  -34.0290   25.0040 H   0  0  0  0  0  0  0  0  0  0  0  0
  -24.1640  -36.7410   23.1320 C   0  0  0  0  0  1  0  0  0  0  0  0
  -25.4340  -36.3470   23.9040 C   0  0  0  0  0  3  0  0  0  0  0  0
  -27.5840  -37.2400   24.6760 C   0  0  0  0  0  1  0  0  0  0  0  0
  -26.4540  -37.4120   23.7690 N   0  0  0  0  0  0  0  0  0  0  0  0
  -26.0490  -38.3300   23.9410 H   0  0  0  0  0  0  0  0  0  0  0  0
  -29.0720  -19.2280   20.1040 C   0  0  0  0  0  3  0  0  0  0  0  0
  -30.0880  -17.8470   19.9740 C   0  0  0  0  0  3  0  0  0  0  0  0
  -30.4670  -15.0690   20.2170 C   0  0  0  0  0  0  0  0  0  0  0  0
  -30.3280  -12.6720   19.3550 C   0  0  0  0  0  2  0  0  0  0  0  0
  -29.3870  -12.6050   18.1340 C   0  0  0  0  0  2  0  0  0  0  0  0
  -27.9310  -12.3870   18.5900 C   0  0  0  0  0  2  0  0  0  0  0  0
  -27.5290  -13.3300   19.7550 C   0  0  0  0  0  3  0  0  0  0  0  0
  -28.6060  -13.3820   20.8570 C   0  0  0  0  0  2  0  0  0  0  0  0
  -29.8560  -13.8040   20.2060 N   0  0  0  0  0  0  0  0  0  0  0  0
  -31.6820  -15.0860   19.9880 O   0  0  0  0  0  0  0  0  0  0  0  0
  -29.7150  -16.3000   20.2390 N   0  0  0  0  0  0  0  0  0  0  0  0
  -28.7230  -16.1460   20.3460 H   0  0  0  0  0  0  0  0  0  0  0  0
  -25.1630  -13.9040   20.5360 C   0  0  0  0  0  0  0  0  0  0  0  0
  -24.1030  -13.1230   20.9150 C   0  0  0  0  0  0  0  0  0  0  0  0
  -24.5680  -11.7750   20.8730 C   0  0  0  0  0  0  0  0  0  0  0  0
  -26.2030  -13.0250   20.2760 N   0  0  0  0  0  0  0  0  0  0  0  0
  -25.8560  -11.7400   20.5470 N   0  0  0  0  0  0  0  0  0  0  0  0
  -23.8430  -10.5110   21.0660 C   0  0  0  0  0  0  0  0  0  0  0  0
  -24.2860   -9.5330   21.9810 C   0  0  0  0  0  3  0  0  0  0  0  0
  -23.5550   -8.3390   22.1640 C   0  0  0  0  0  3  0  0  0  0  0  0
  -22.3670   -8.1170   21.4290 C   0  0  0  0  0  0  0  0  0  0  0  0
  -21.9390   -9.0830   20.5030 C   0  0  0  0  0  3  0  0  0  0  0  0
  -22.6720  -10.2680   20.3210 C   0  0  0  0  0  3  0  0  0  0  0  0
  -21.6060   -6.9760   21.5240 O   0  0  0  0  0  0  0  0  0  0  0  0
  -21.5850   -6.2160   22.6670 C   0  0  0  0  0  0  0  0  0  0  0  0
  -21.2100   -6.7570   23.9160 C   0  0  0  0  0  3  0  0  0  0  0  0
  -21.1350   -5.9240   25.0480 C   0  0  0  0  0  3  0  0  0  0  0  0
  -21.4310   -4.5520   24.9370 C   0  0  0  0  0  0  0  0  0  0  0  0
  -21.8030   -4.0120   23.6930 C   0  0  0  0  0  3  0  0  0  0  0  0
  -21.8790   -4.8420   22.5620 C   0  0  0  0  0  0  0  0  0  0  0  0
  -22.2170   -4.3140   21.3600 F   0  0  0  0  0  0  0  0  0  0  0  0
  -21.3530   -3.7480   26.0220 F   0  0  0  0  0  0  0  0  0  0  0  0
  -22.7100  -13.6050   21.1950 C   0  0  0  0  0  0  0  0  0  0  0  0
  -21.9860  -12.9120   22.0720 N   0  0  0  0  0  0  0  0  0  0  0  0
  -22.2710  -14.6290   20.6790 O   0  0  0  0  0  0  0  0  0  0  0  0
  -22.3510  -12.0850   22.5160 H   0  0  0  0  0  0  0  0  0  0  0  0
  -21.0540  -13.2230   22.3030 H   0  0  0  0  0  0  0  0  0  0  0  0
  -25.3120  -15.2760   20.3650 N   0  0  0  0  0  0  0  0  0  0  0  0
  -24.5230  -15.9040   20.4960 H   0  0  0  0  0  0  0  0  0  0  0  0
  -26.1360  -15.7440   20.0050 H   0  0  0  0  0  0  0  0  0  0  0  0
  1  3  1  0
  2  1  2  0
  3  9  1  0
  4 53  1  0
  4  2  1  0
  5  3  2  0
  6  5  1  0
  6  4  2  0
  8  9  1  0
  9  7  1  0
 11 10  1  0
 11  5  1  0
 11 12  1  0
 12 14  1  0
 13 24  2  0
 14 19  1  0
 15 23  1  0
 15 25  1  0
 16 22  1  0
 16 18  1  0
 17 23  1  0
 18 17  1  0
 19 18  2  0
 20 21  1  0
 20 14  2  0
 21 16  2  0
 22 15  1  0
 23 13  1  0
 25 27  2  0
 26 25  1  0
 28 26  1  0
 29 38  2  0
 29 34  1  0
 30 26  1  0
 30 34  1  0
 31 30  1  0
 32 33  1  0
 32 31  1  0
 33 29  1  0
 34 35  2  0
 35 36  1  0
 37 36  2  0
 38 37  1  0
 39 13  1  0
 39 44  1  0
 39 40  1  0
 40 43  1  1
 40 41  1  0
 42 40  1  0
 44 47  1  0
 45 49  1  0
 45 44  1  0
 46 45  2  0
 49 48  1  0
 51 49  1  0
 51 52  1  0
 51 50  1  0
 54 53  2  0
 54 63  1  0
 55 63  1  0
 56 61  1  0
 57 58  1  0
 57 56  1  0
 59 58  1  0
 59 68  1  0
 59 60  1  0
 61 55  1  0
 61 60  1  0
 62 55  2  0
 63 64  1  0
 65 66  2  0
 66 85  1  0
 67 66  1  0
 67 70  1  0
 68 65  1  0
 68 69  1  0
 69 67  2  0
 70 71  1  0
 71 72  2  0
 73 76  1  0
 73 72  1  0
 74 73  2  0
 75 74  1  0
 75 70  2  0
 76 77  1  0
 77 78  1  0
 78 79  2  0
 80 79  1  0
 80 84  1  0
 81 80  2  0
 82 77  2  0
 82 81  1  0
 83 82  1  0
 85 86  1  0
 86 89  1  0
 86 88  1  0
 87 85  2  0
 90 91  1  0
 90 65  1  0
 92 90  1  0
M  ISO  4  11 101  12 101  55 100  63 100
M  END
>  <TORSDO>  (6) 
F 20

>  <SCORE>  (6) 
-14.605

>  <name>  (6) 
5

>  <ligand_id>  (6) 
5

>  <original_smiles>  (6) 
[H]c1c(C([H])([H])C([H])([H])N([H])C(=O)N2C([H])([H])C([H])([H])C([H])([H])C([H])(n3nc(-c4c([H])c([H])c(Oc5c([H])c([H])c(F)c([H])c5F)c([H])c4[H])c(C(=O)N([H])[H])c3N([H])[H])C2([H])[H])nc(C([H])(Oc2c([H])c([H])c3c(c2[H])C([H])([H])N(C(=O)C([H])(N([H])C(=O)C([H])(N([H])C([H])([H])[H])C([H])([H])[H])C(C([H])([H])[H])(C([H])([H])[H])C([H])([H])[H])C([H])(C(=O)N([H])C2([H])c4c([H])c([H])c([H])c([H])c4C([H])([H])C([H])([H])C2([H])[H])C3([H])[H])C([H])([H])[H])c(C([H])(C([H])([H])[H])C([H])([H])[H])c1[H]

>  <smiles>  (6) 
[H]c1c(C([H])([H])C([H])([H])N([H])C(=O)N2C([H])([H])C([H])([H])C([H])([H])C([H])(n3nc(-c4c([H])c([H])c(Oc5c([H])c([H])c(F)c([H])c5F)c([H])c4[H])c(C(=O)N([H])[H])c3N([H])[H])C2([H])[H])nc(C([H])(Oc2c([H])c([H])c3c(c2[H])C([H])([H])N(C(=O)C([H])(N([H])C(=O)C([H])(N([H])C([H])([H])[H])C([H])([H])[H])C(C([H])([H])[H])(C([H])([H])[H])C([H])([H])[H])C([H])(C(=O)N([H])C2([H])c4c([H])c([H])c([H])c([H])c4C([H])([H])C([H])([H])C2([H])[H])C3([H])[H])C([H])([H])[H])c(C([H])(C([H])([H])[H])C([H])([H])[H])c1[H]

$$$$
6:0:0
     RDKit          3D

 97105  0  0  1  0  0  0  0  0999 V2000
  -29.1500  -19.4020   19.4070 N   0  0  0  0  0  4  0  0  0  0  0  0
  -28.1970  -19.0950   19.3000 H   0  0  0  0  0  0  0  0  0  0  0  0
  -29.5310  -19.5020   18.4810 H   0  0  0  0  0  0  0  0  0  0  0  0
  -29.9180  -18.3010   20.1180 C   0  0  0  0  0  2  0  0  0  0  0  0
  -30.2270  -16.9660   19.2890 C   0  0  0  0  0  2  0  0  0  0  0  0
  -31.7420  -16.4330   19.2370 C   0  0  0  0  0  3  0  0  0  0  0  0
  -34.9180  -18.3360   17.9970 C   0  0  0  0  0  3  0  0  0  0  0  0
  -33.0950  -18.9560   16.5360 C   0  0  0  0  0  3  0  0  0  0  0  0
  -34.4480  -19.0600   16.8900 C   0  0  0  0  0  0  0  0  0  0  0  0
  -34.0540  -17.4990   18.7410 C   0  0  0  0  0  0  0  0  0  0  0  0
  -32.2020  -18.1460   17.2730 C   0  0  0  0  0  0  0  0  0  0  0  0
  -32.6680  -17.3830   18.4020 C   0  0  0  0  0  0  0  0  0  0  0  0
  -35.3850  -19.9350   16.0710 C   0  0  0  0  0  1  0  0  0  0  0  0
  -34.6750  -16.7220   19.8920 C   0  0  0  0  0  1  0  0  0  0  0  0
  -30.7600  -18.1780   16.7660 C   0  0  0  0  0  1  0  0  0  0  0  0
  -31.9980  -14.9360   18.7430 C   0  0  0  0  0  0  0  0  0  0  0  0
  -31.4620  -12.5520   18.2720 C   0  0  0  0  0  2  0  0  0  0  0  0
  -30.3870  -12.4610   17.1740 C   0  0  0  0  0  2  0  0  0  0  0  0
  -28.9890  -12.4590   17.8160 C   0  0  0  0  0  2  0  0  0  0  0  0
  -28.8100  -13.5940   18.8600 C   0  0  0  0  0  3  0  0  0  0  0  0
  -30.0150  -13.7080   19.8260 C   0  0  0  0  0  2  0  0  0  0  0  0
  -31.2460  -13.8150   19.0250 N   0  0  0  0  0  0  0  0  0  0  0  0
  -32.9880  -14.7840   18.0290 O   0  0  0  0  0  0  0  0  0  0  0  0
  -26.7190  -14.4620   20.0700 C   0  0  0  0  0  0  0  0  0  0  0  0
  -25.6140  -13.8250   20.5710 C   0  0  0  0  0  0  0  0  0  0  0  0
  -25.8220  -12.4320   20.3380 C   0  0  0  0  0  0  0  0  0  0  0  0
  -27.5370  -13.4650   19.5680 N   0  0  0  0  0  0  0  0  0  0  0  0
  -27.0140  -12.2300   19.7870 N   0  0  0  0  0  0  0  0  0  0  0  0
  -24.9310  -11.2830   20.5600 C   0  0  0  0  0  0  0  0  0  0  0  0
  -25.2660  -10.2490   21.4640 C   0  0  0  0  0  3  0  0  0  0  0  0
  -24.3820   -9.1700   21.6750 C   0  0  0  0  0  3  0  0  0  0  0  0
  -23.1480   -9.1150   20.9850 C   0  0  0  0  0  0  0  0  0  0  0  0
  -22.8300  -10.1330   20.0690 C   0  0  0  0  0  3  0  0  0  0  0  0
  -23.7120  -11.2070   19.8560 C   0  0  0  0  0  3  0  0  0  0  0  0
  -22.2400   -8.0910   21.1080 O   0  0  0  0  0  0  0  0  0  0  0  0
  -22.0170   -7.4680   22.3110 C   0  0  0  0  0  0  0  0  0  0  0  0
  -21.6300   -8.1870   23.4630 C   0  0  0  0  0  3  0  0  0  0  0  0
  -21.3430   -7.4980   24.6580 C   0  0  0  0  0  3  0  0  0  0  0  0
  -21.4330   -6.0940   24.7020 C   0  0  0  0  0  0  0  0  0  0  0  0
  -21.8110   -5.3750   23.5540 C   0  0  0  0  0  3  0  0  0  0  0  0
  -22.1000   -6.0610   22.3610 C   0  0  0  0  0  0  0  0  0  0  0  0
  -22.4450   -5.3630   21.2520 F   0  0  0  0  0  0  0  0  0  0  0  0
  -21.1510   -5.4310   25.8480 F   0  0  0  0  0  0  0  0  0  0  0  0
  -24.3910  -14.4800   21.1440 C   0  0  0  0  0  0  0  0  0  0  0  0
  -23.7870  -13.8680   22.1580 N   0  0  0  0  0  0  0  0  0  0  0  0
  -23.9930  -15.5680   20.7290 O   0  0  0  0  0  0  0  0  0  0  0  0
  -24.1290  -12.9870   22.5120 H   0  0  0  0  0  0  0  0  0  0  0  0
  -22.9730  -14.2870   22.5850 H   0  0  0  0  0  0  0  0  0  0  0  0
  -27.0830  -15.8010   19.9810 N   0  0  0  0  0  0  0  0  0  0  0  0
  -26.4810  -16.5490   20.3050 H   0  0  0  0  0  0  0  0  0  0  0  0
  -27.9330  -16.1360   19.5440 H   0  0  0  0  0  0  0  0  0  0  0  0
  -29.1430  -20.7910   20.0300 C   0  0  0  0  0  2  0  0  0  0  0  0
  -28.7300  -21.8200   17.6910 C   0  0  0  0  0  1  0  0  0  0  0  0
  -28.4360  -21.9650   19.1990 C   0  0  0  0  0  3  0  0  0  0  0  0
  -28.7400  -23.4680   19.6560 C   0  0  0  0  0  3  0  0  0  0  0  0
  -27.8850  -24.6190   18.9670 C   0  0  0  0  0  3  0  0  0  0  0  0
  -28.1760  -26.0490   19.2020 O   0  0  0  0  0  0  0  0  0  0  0  0
  -24.8620  -31.2510   22.9200 C   0  0  0  0  0  0  0  0  0  0  0  0
  -27.0910  -26.9380   19.2750 C   0  0  0  0  0  0  0  0  0  0  0  0
  -23.4910  -30.0250   21.2730 C   0  0  0  0  0  3  0  0  0  0  0  0
  -24.7790  -28.5870   19.5950 C   0  0  0  0  0  0  0  0  0  0  0  0
  -26.0070  -30.3120   20.9010 C   0  0  0  0  0  2  0  0  0  0  0  0
  -26.0010  -28.9910   20.1460 C   0  0  0  0  0  0  0  0  0  0  0  0
  -27.1590  -28.1730   19.9910 C   0  0  0  0  0  3  0  0  0  0  0  0
  -25.8550  -26.6200   18.6650 C   0  0  0  0  0  3  0  0  0  0  0  0
  -24.7080  -27.4080   18.8430 C   0  0  0  0  0  3  0  0  0  0  0  0
  -23.5670  -29.4650   19.8280 C   0  0  0  0  0  2  0  0  0  0  0  0
  -24.8120  -30.5410   21.7550 N   0  0  0  0  0  0  0  0  0  0  0  0
  -23.8350  -31.5020   23.5640 O   0  0  0  0  0  0  0  0  0  0  0  0
  -22.8840  -28.9400   22.1920 C   0  0  0  0  0  0  0  0  0  0  0  0
  -21.5800  -28.6670   22.0270 N   0  0  0  0  0  0  0  0  0  0  0  0
  -23.5890  -28.3480   23.0150 O   0  0  0  0  0  0  0  0  0  0  0  0
  -21.0680  -29.2070   21.3410 H   0  0  0  0  0  0  0  0  0  0  0  0
  -18.3110  -27.1510   22.3460 C   0  0  0  0  0  0  0  0  0  0  0  0
  -20.8120  -27.6550   22.7540 C   0  0  0  0  0  3  0  0  0  0  0  0
  -21.0810  -26.2380   22.1980 C   0  0  0  0  0  2  0  0  0  0  0  0
  -20.0760  -25.8070   21.1240 C   0  0  0  0  0  2  0  0  0  0  0  0
  -18.6550  -25.8220   21.6910 C   0  0  0  0  0  2  0  0  0  0  0  0
  -19.3260  -28.0170   22.8320 C   0  0  0  0  0  0  0  0  0  0  0  0
  -18.9570  -29.2520   23.4030 C   0  0  0  0  0  3  0  0  0  0  0  0
  -17.6040  -29.6330   23.4820 C   0  0  0  0  0  3  0  0  0  0  0  0
  -16.6010  -28.7630   23.0190 C   0  0  0  0  0  3  0  0  0  0  0  0
  -16.9550  -27.5220   22.4580 C   0  0  0  0  0  3  0  0  0  0  0  0
  -26.2100  -31.8010   23.4800 C   0  0  0  0  0  3  0  0  0  0  0  0
  -25.9210  -33.0790   24.1440 N   0  0  0  0  0  0  0  0  0  0  0  0
  -26.1530  -34.2830   23.6020 C   0  0  0  0  0  0  0  0  0  0  0  0
  -26.7060  -34.4320   22.5080 O   0  0  0  0  0  0  0  0  0  0  0  0
  -25.3990  -33.0320   25.0060 H   0  0  0  0  0  0  0  0  0  0  0  0
  -24.3910  -36.0710   23.8250 C   0  0  0  0  0  1  0  0  0  0  0  0
  -25.7070  -35.5240   24.4020 C   0  0  0  0  0  3  0  0  0  0  0  0
  -27.9130  -36.2560   25.2000 C   0  0  0  0  0  1  0  0  0  0  0  0
  -26.7190  -36.6040   24.4320 N   0  0  0  0  0  0  0  0  0  0  0  0
  -26.3220  -37.4540   24.8220 H   0  0  0  0  0  0  0  0  0  0  0  0
  -26.9220  -30.8020   24.4750 C   0  0  1  0  0  0  0  0  0  0  0  0
  -25.9750  -30.2080   25.5460 C   0  0  0  0  0  1  0  0  0  0  0  0
  -27.5590  -29.6200   23.7060 C   0  0  0  0  0  1  0  0  0  0  0  0
  -28.0810  -31.5230   25.2010 C   0  0  0  0  0  1  0  0  0  0  0  0
  1 52  1  0
  1  4  1  0
  2  1  1  0
  3  1  1  0
  5  4  1  0
  6  5  1  0
  7 10  1  0
  8  9  1  0
  8 11  2  0
  9  7  2  0
 10 14  1  0
 11 12  1  0
 12 10  2  0
 12  6  1  0
 13  9  1  0
 15 11  1  0
 16 22  1  0
 16  6  1  0
 17 22  1  0
 18 19  1  0
 18 17  1  0
 20 19  1  0
 20 27  1  0
 20 21  1  0
 22 21  1  0
 23 16  2  0
 24 25  2  0
 25 44  1  0
 26 29  1  0
 26 25  1  0
 27 28  1  0
 27 24  1  0
 28 26  2  0
 29 30  1  0
 30 31  2  0
 32 35  1  0
 32 31  1  0
 33 32  2  0
 34 33  1  0
 34 29  2  0
 35 36  1  0
 36 41  2  0
 36 37  1  0
 37 38  2  0
 38 39  1  0
 39 43  1  0
 40 39  2  0
 41 40  1  0
 42 41  1  0
 44 45  1  0
 45 47  1  0
 45 48  1  0
 46 44  2  0
 49 24  1  0
 49 50  1  0
 51 49  1  0
 54 53  1  0
 54 55  1  0
 54 52  1  0
 56 57  1  0
 56 55  2  0
 57 59  1  0
 58 69  2  0
 59 64  1  0
 60 68  1  0
 60 70  1  0
 61 67  1  0
 61 63  1  0
 62 68  1  0
 63 62  1  0
 64 63  2  0
 65 66  1  0
 65 59  2  0
 66 61  2  0
 67 60  1  0
 68 58  1  0
 70 72  2  0
 71 70  1  0
 73 71  1  0
 74 83  2  0
 74 79  1  0
 75 71  1  0
 75 79  1  0
 76 75  1  0
 77 78  1  0
 77 76  1  0
 78 74  1  0
 79 80  2  0
 80 81  1  0
 82 81  2  0
 83 82  1  0
 84 58  1  0
 84 85  1  0
 84 94  1  0
 85 88  1  0
 86 85  1  0
 86 90  1  0
 87 86  2  0
 90 89  1  0
 90 92  1  0
 92 93  1  0
 92 91  1  0
 94 97  1  1
 94 95  1  0
 96 94  1  0
M  ISO  4   6 100  16 100  56 101  57 101
M  END
>  <TORSDO>  (7) 
F 24

>  <SCORE>  (7) 
-8.174

>  <name>  (7) 
6

>  <ligand_id>  (7) 
6

>  <original_smiles>  (7) 
[H]c1c([H])c([H])c2c(c1[H])C([H])([H])C([H])([H])C([H])([H])C2([H])N([H])C(=O)C1([H])N(C(=O)C([H])(N([H])C(=O)C([H])(N([H])C([H])([H])[H])C([H])([H])[H])C(C([H])([H])[H])(C([H])([H])[H])C([H])([H])[H])C([H])([H])c2c([H])c(OC([H])([H])C([H])([H])C([H])(C([H])([H])[H])C([H])([H])[N+]([H])([H])C([H])([H])C([H])([H])C([H])(C(=O)N3C([H])([H])C([H])([H])C([H])([H])C([H])(n4nc(-c5c([H])c([H])c(Oc6c([H])c([H])c(F)c([H])c6F)c([H])c5[H])c(C(=O)N([H])[H])c4N([H])[H])C3([H])[H])c3c(C([H])([H])[H])c([H])c(C([H])([H])[H])c([H])c3C([H])([H])[H])c([H])c([H])c2C1([H])[H]

>  <smiles>  (7) 
[H]c1c([H])c([H])c2c(c1[H])C([H])([H])C([H])([H])C([H])([H])C2([H])N([H])C(=O)C1([H])N(C(=O)C([H])(N([H])C(=O)C([H])(N([H])C([H])([H])[H])C([H])([H])[H])C(C([H])([H])[H])(C([H])([H])[H])C([H])([H])[H])C([H])([H])c2c([H])c(OC([H])([H])C([H])([H])C([H])(C([H])([H])[H])C([H])([H])[N+]([H])([H])C([H])([H])C([H])([H])C([H])(C(=O)N3C([H])([H])C([H])([H])C([H])([H])C([H])(n4nc(-c5c([H])c([H])c(Oc6c([H])c([H])c(F)c([H])c6F)c([H])c5[H])c(C(=O)N([H])[H])c4N([H])[H])C3([H])[H])c3c(C([H])([H])[H])c([H])c(C([H])([H])[H])c([H])c3C([H])([H])[H])c([H])c([H])c2C1([H])[H]

$$$$
7:0:0
     RDKit          3D

 96 92  0  0  1  0  0  0  0  0999 V2000
  -24.1020  -14.9230   18.9590 C   0  0  0  0  0 15  0  0  0  0  0  0
  -24.1470  -12.4720   22.1590 C   0  0  0  0  0  1  0  0  0  0  0  0
  -22.9350  -13.2190   19.9590 C   0  0  0  0  0  1  0  0  0  0  0  0
  -25.9330  -16.0970   19.5510 C   0  0  0  0  0 15  0  0  0  0  0  0
  -27.1330  -14.8940   20.9060 C   0  0  0  0  0  1  0  0  0  0  0  0
  -26.1490  -13.3340   22.2400 N   0  0  0  0  0 15  0  0  0  0  0  0
  -29.3270  -11.6320   19.6230 C   0  0  0  0  0 15  0  0  0  0  0  0
  -28.4950  -14.3670   19.7680 C   0  0  0  0  0  2  0  0  0  0  0  0
  -29.2730  -15.7490   19.6970 C   0  0  0  0  0  2  0  0  0  0  0  0
  -29.6650  -16.3040   21.1120 C   0  0  0  0  0  2  0  0  0  0  0  0
  -31.1650  -14.4830   21.2550 C   0  0  0  0  0  0  0  0  0  0  0  0
  -30.9390  -13.4870   19.0950 C   0  0  0  0  0  3  0  0  0  0  0  0
  -29.6900  -13.2640   17.7590 C   0  0  0  0  0  3  0  0  0  0  0  0
  -27.9910  -12.6120   18.0980 C   0  0  0  0  0  2  0  0  0  0  0  0
  -27.4480  -12.4280   19.9550 C   0  0  0  0  0  2  0  0  0  0  0  0
  -28.9190  -12.7930   21.4180 C   0  0  0  0  0  1  0  0  0  0  0  0
  -30.5120  -13.4200   20.7820 N   0  0  0  0  0  0  0  0  0  0  0  0
  -32.2210  -14.9150   20.7770 O   0  0  0  0  0  0  0  0  0  0  0  0
  -30.3500  -15.2920   21.9150 N   0  0  0  0  0  0  0  0  0  0  0  0
  -30.6130  -15.5310   22.8640 H   0  0  0  0  0  0  0  0  0  0  0  0
  -25.0000  -14.5400   21.0300 C   0  0  0  0  0  2  0  0  0  0  0  0
  -24.3570  -14.0640   21.1150 C   0  0  0  0  0  3  0  0  0  0  0  0
  -25.2070  -12.2930   20.0620 C   0  0  0  0  0  3  0  0  0  0  0  0
  -25.9200  -13.2190   19.8850 N   0  0  0  0  0  0  0  0  0  0  0  0
  -25.6020  -12.3920   18.9760 N   0  0  0  0  0  2  0  0  0  0  0  0
  -24.6730  -10.5140   20.2780 C   0  0  0  0  0  0  0  0  0  0  0  0
  -24.9840   -9.5380   21.3760 C   0  0  0  0  0  3  0  0  0  0  0  0
  -24.2710   -8.3060   21.7680 C   0  0  0  0  0  3  0  0  0  0  0  0
  -23.0950   -7.8700   21.0990 C   0  0  0  0  0  0  0  0  0  0  0  0
  -22.7310   -8.7550   20.0570 C   0  0  0  0  0  3  0  0  0  0  0  0
  -23.5040   -9.9140   19.6670 C   0  0  0  0  0  3  0  0  0  0  0  0
  -22.3670   -6.6650   21.2380 O   0  0  0  0  0  0  0  0  0  0  0  0
  -22.3900   -5.7680   22.3110 C   0  0  0  0  0  0  0  0  0  0  0  0
  -22.0340   -6.1730   23.6170 C   0  0  0  0  0  3  0  0  0  0  0  0
  -21.9780   -5.2410   24.6810 C   0  0  0  0  0  3  0  0  0  0  0  0
  -22.2660   -3.8830   24.4520 C   0  0  0  0  0  0  0  0  0  0  0  0
  -22.5790   -3.4510   23.1520 C   0  0  0  0  0  3  0  0  0  0  0  0
  -22.6200   -4.3790   22.0880 C   0  0  0  0  0  0  0  0  0  0  0  0
  -22.8770   -3.9150   20.8420 F   0  0  0  0  0  0  0  0  0  0  0  0
  -22.2450   -2.9940   25.4780 F   0  0  0  0  0  0  0  0  0  0  0  0
  -22.8610  -14.3610   21.8030 C   0  0  0  0  0  0  0  0  0  0  0  0
  -22.1280  -13.3900   22.4290 N   0  0  0  0  0  0  0  0  0  0  0  0
  -22.1780  -15.1580   21.1920 O   0  0  0  0  0  0  0  0  0  0  0  0
  -22.4830  -12.4710   22.6110 H   0  0  0  0  0  0  0  0  0  0  0  0
  -21.1520  -13.5690   22.6120 H   0  0  0  0  0  0  0  0  0  0  0  0
  -25.1300  -15.7130   21.8500 N   0  0  0  0  0  0  0  0  0  0  0  0
  -24.2610  -16.2010   22.0280 H   0  0  0  0  0  0  0  0  0  0  0  0
  -25.6670  -16.2880   21.2080 H   0  0  0  0  0  0  0  0  0  0  0  0
  -26.2730  -18.7120   17.9000 C   0  0  0  0  0  1  0  0  0  0  0  0
  -26.3680  -18.5670   19.4280 C   0  0  0  0  0  1  0  0  0  0  0  0
  -26.3820  -21.2180   19.9300 C   0  0  0  0  0 15  0  0  0  0  0  0
  -26.9580  -23.5480   20.0090 O   0  0  0  0  0 15  0  0  0  0  0  0
  -24.8060  -31.6630   22.9840 C   0  0  0  0  0  0  0  0  0  0  0  0
  -26.5770  -25.3970   20.0960 C   0  0  0  0  0  3  0  0  0  0  0  0
  -23.6360  -30.2610   21.3790 C   0  0  0  0  0  3  0  0  0  0  0  0
  -24.9420  -28.3550   20.0100 C   0  0  0  0  0  0  0  0  0  0  0  0
  -26.2060  -29.9030   21.4400 C   0  0  0  0  0  2  0  0  0  0  0  0
  -26.1120  -28.3530   20.7590 C   0  0  0  0  0  0  0  0  0  0  0  0
  -26.9030  -26.9320   20.7480 C   0  0  0  0  0  3  0  0  0  0  0  0
  -25.5490  -25.9530   19.2500 C   0  0  0  0  0  3  0  0  0  0  0  0
  -24.7880  -27.2000   19.2230 C   0  0  0  0  0  3  0  0  0  0  0  0
  -23.8950  -29.5170   20.0250 C   0  0  0  0  0  2  0  0  0  0  0  0
  -24.9370  -30.6790   21.9810 N   0  0  0  0  0  0  0  0  0  0  0  0
  -23.6920  -32.0410   23.4090 O   0  0  0  0  0  0  0  0  0  0  0  0
  -22.8230  -29.3780   22.3640 C   0  0  0  0  0  0  0  0  0  0  0  0
  -21.4820  -29.2980   22.2370 N   0  0  0  0  0  0  0  0  0  0  0  0
  -23.4240  -28.7560   23.2420 O   0  0  0  0  0  0  0  0  0  0  0  0
  -21.0340  -29.8470   21.5160 H   0  0  0  0  0  0  0  0  0  0  0  0
  -18.0580  -28.1640   22.7470 C   0  0  0  0  0  0  0  0  0  0  0  0
  -20.6200  -28.3960   23.0190 C   0  0  0  0  0  3  0  0  0  0  0  0
  -20.6960  -26.9530   22.4680 C   0  0  0  0  0  2  0  0  0  0  0  0
  -19.6010  -26.6450   21.4420 C   0  0  0  0  0  2  0  0  0  0  0  0
  -18.2180  -26.8130   22.0710 C   0  0  0  0  0  2  0  0  0  0  0  0
  -19.1850  -28.9180   23.1740 C   0  0  0  0  0  0  0  0  0  0  0  0
  -18.9740  -30.1780   23.7730 C   0  0  0  0  0  3  0  0  0  0  0  0
  -17.6720  -30.6880   23.9410 C   0  0  0  0  0  3  0  0  0  0  0  0
  -16.5610  -29.9350   23.5230 C   0  0  0  0  0  3  0  0  0  0  0  0
  -16.7570  -28.6730   22.9320 C   0  0  0  0  0  3  0  0  0  0  0  0
  -26.0130  -32.3880   23.6720 C   0  0  0  0  0  3  0  0  0  0  0  0
  -25.6280  -33.7830   24.0330 N   0  0  0  0  0  0  0  0  0  0  0  0
  -25.9560  -34.9020   23.3680 C   0  0  0  0  0  0  0  0  0  0  0  0
  -26.6430  -34.8780   22.3460 O   0  0  0  0  0  0  0  0  0  0  0  0
  -25.0090  -33.8760   24.8250 H   0  0  0  0  0  0  0  0  0  0  0  0
  -24.1870  -36.6980   23.1460 C   0  0  0  0  0  1  0  0  0  0  0  0
  -25.4510  -36.2650   23.9090 C   0  0  0  0  0  3  0  0  0  0  0  0
  -27.5880  -37.1680   24.7340 C   0  0  0  0  0  1  0  0  0  0  0  0
  -26.4530  -37.3550   23.8350 N   0  0  0  0  0  0  0  0  0  0  0  0
  -26.0240  -38.2510   24.0510 H   0  0  0  0  0  0  0  0  0  0  0  0
  -26.4950  -31.6550   24.9850 C   0  0  1  0  0  0  0  0  0  0  0  0
  -25.3740  -31.4180   26.0260 C   0  0  0  0  0  1  0  0  0  0  0  0
  -27.1030  -30.2800   24.6620 C   0  0  0  0  0  1  0  0  0  0  0  0
  -27.6190  -32.4720   25.6640 C   0  0  0  0  0  1  0  0  0  0  0  0
  -20.4110  -13.6780   19.5190 C   0  0  0  0  0  1  0  0  0  0  0  0
  -21.6180  -12.7690   19.2770 C   0  0  0  0  0  3  0  0  0  0  0  0
  -20.9120  -11.8810   16.9000 C   0  0  0  0  0  1  0  0  0  0  0  0
  -21.8690  -12.7480   17.7450 C   0  0  0  0  0  2  0  0  0  0  0  0
  8  5  1  0
  9  8  1  0
  9 10  1  0
 10 19  1  0
 11 19  1  0
 12 17  1  0
 13 14  1  0
 13 12  2  0
 14 15  1  0
 17 11  1  0
 17 16  1  0
 18 11  2  0
 19 20  1  0
 21 22  1  0
 21 46  1  0
 22 41  1  0
 22  2  1  0
 23 26  1  0
 24 15  1  0
 24 23  1  0
 25 24  1  0
 25 23  1  0
 26 27  1  0
 27 28  2  0
 29 32  1  0
 29 28  1  0
 30 29  2  0
 31 30  1  0
 31 26  2  0
 32 33  1  0
 33 34  1  0
 34 35  2  0
 36 35  1  0
 36 40  1  0
 37 36  2  0
 38 33  2  0
 38 37  1  0
 39 38  1  0
 41 42  1  0
 42 44  1  0
 42 45  1  0
 43 41  2  0
 46 47  1  0
 48 46  1  0
 49 50  1  0
 53 64  2  0
 54 59  1  0
 55 63  1  0
 55 65  1  0
 56 62  1  0
 56 58  1  0
 57 63  1  0
 58 57  1  0
 59 58  2  0
 60 54  2  0
 61 60  1  0
 61 56  2  0
 62 55  1  0
 63 53  1  0
 65 67  2  0
 66 65  1  0
 68 66  1  0
 69 78  2  0
 69 74  1  0
 70 66  1  0
 70 74  1  0
 71 70  1  0
 72 73  1  0
 72 71  1  0
 73 69  1  0
 74 75  2  0
 75 76  1  0
 77 76  2  0
 78 77  1  0
 79 53  1  0
 79 80  1  0
 79 89  1  0
 80 83  1  0
 81 85  1  0
 81 80  1  0
 82 81  2  0
 85 84  1  0
 87 85  1  0
 87 88  1  0
 87 86  1  0
 89 92  1  1
 89 90  1  0
 91 89  1  0
 94 93  1  0
 94  3  1  0
 95 96  1  0
 96 94  1  0
M  ISO  4  11 100  19 100  51 101  52 101
M  END
>  <TORSDO>  (8) 
F 23

>  <SCORE>  (8) 
12.661

>  <name>  (8) 
7

>  <ligand_id>  (8) 
7

>  <original_smiles>  (8) 
[H]c1nc(C([H])(C([H])([H])[H])C([H])([H])C([H])([H])N([H])C(=O)N2C([H])([H])C([H])([H])C([H])([H])C([H])(n3nc(-c4c([H])c([H])c(Oc5c([H])c([H])c(F)c([H])c5F)c([H])c4[H])c(C(=O)N([H])[H])c3N([H])[H])C2([H])[H])c(C([H])(C([H])([H])[H])C([H])([H])Oc2c([H])c([H])c3c(c2[H])C([H])([H])N(C(=O)C([H])(N([H])C(=O)C([H])(N([H])C([H])([H])[H])C([H])([H])[H])C(C([H])([H])[H])(C([H])([H])[H])C([H])([H])[H])C([H])(C(=O)N([H])C2([H])c4c([H])c([H])c([H])c([H])c4C([H])([H])C([H])([H])C2([H])[H])C3([H])[H])c([H])c1C([H])(C([H])([H])[H])C([H])([H])C([H])([H])[H]

>  <smiles>  (8) 
[H]c1nc(C([H])(C([H])([H])[H])C([H])([H])C([H])([H])N([H])C(=O)N2C([H])([H])C([H])([H])C([H])([H])C([H])(n3nc(-c4c([H])c([H])c(Oc5c([H])c([H])c(F)c([H])c5F)c([H])c4[H])c(C(=O)N([H])[H])c3N([H])[H])C2([H])[H])c(C([H])(C([H])([H])[H])C([H])([H])Oc2c([H])c([H])c3c(c2[H])C([H])([H])N(C(=O)C([H])(N([H])C(=O)C([H])(N([H])C([H])([H])[H])C([H])([H])[H])C(C([H])([H])[H])(C([H])([H])[H])C([H])([H])[H])C([H])(C(=O)N([H])C2([H])c4c([H])c([H])c([H])c([H])c4C([H])([H])C([H])([H])C2([H])[H])C3([H])[H])c([H])c1C([H])(C([H])([H])[H])C([H])([H])C([H])([H])[H]

$$$$
8:0:0
     RDKit          3D

 92101  0  0  1  0  0  0  0  0999 V2000
  -27.8580  -20.8230   20.3280 C   0  0  0  0  0  3  0  0  0  0  0  0
  -27.3730  -19.5080   20.2810 C   0  0  0  0  0  3  0  0  0  0  0  0
  -30.1160  -19.9370   20.2310 C   0  0  0  0  0  3  0  0  0  0  0  0
  -29.2380  -21.0870   20.2930 C   0  0  0  0  0  0  0  0  0  0  0  0
  -28.2310  -18.3830   20.2010 C   0  0  0  0  0  0  0  0  0  0  0  0
  -29.6550  -18.5570   20.1710 C   0  0  0  0  0  0  0  0  0  0  0  0
  -26.2410  -16.8630   19.4560 C   0  0  0  0  0  2  0  0  0  0  0  0
  -27.5720  -16.9910   20.2290 C   0  0  0  0  0  2  0  0  0  0  0  0
  -32.1340  -17.7340   20.0960 C   0  0  0  0  0  1  0  0  0  0  0  0
  -30.6470  -17.2890   20.2700 C   0  0  0  0  0  3  0  0  0  0  0  0
  -31.1090  -14.7280   19.6980 C   0  0  0  0  0  0  0  0  0  0  0  0
  -30.9220  -12.3240   19.0030 C   0  0  0  0  0  2  0  0  0  0  0  0
  -29.9180  -12.2200   17.8350 C   0  0  0  0  0  2  0  0  0  0  0  0
  -28.4630  -12.1260   18.3500 C   0  0  0  0  0  2  0  0  0  0  0  0
  -28.1550  -13.1410   19.4820 C   0  0  0  0  0  3  0  0  0  0  0  0
  -29.2760  -13.1980   20.5290 C   0  0  0  0  0  2  0  0  0  0  0  0
  -30.5060  -13.4920   19.8040 N   0  0  0  0  0  0  0  0  0  0  0  0
  -32.3230  -14.7630   19.4420 O   0  0  0  0  0  0  0  0  0  0  0  0
  -30.3210  -15.8780   19.7680 N   0  0  0  0  0  0  0  0  0  0  0  0
  -29.3320  -15.7030   19.6390 H   0  0  0  0  0  0  0  0  0  0  0  0
  -25.9150  -13.8760   20.4440 C   0  0  0  0  0  0  0  0  0  0  0  0
  -24.8220  -13.1780   20.8900 C   0  0  0  0  0  0  0  0  0  0  0  0
  -25.1680  -11.7980   20.7750 C   0  0  0  0  0  0  0  0  0  0  0  0
  -26.8500  -12.9230   20.0900 N   0  0  0  0  0  0  0  0  0  0  0  0
  -26.4170  -11.6640   20.3430 N   0  0  0  0  0  0  0  0  0  0  0  0
  -24.3510  -10.5970   20.9800 C   0  0  0  0  0  0  0  0  0  0  0  0
  -24.7340   -9.6030   21.9040 C   0  0  0  0  0  3  0  0  0  0  0  0
  -23.9290   -8.4590   22.0960 C   0  0  0  0  0  3  0  0  0  0  0  0
  -22.7280   -8.3060   21.3600 C   0  0  0  0  0  0  0  0  0  0  0  0
  -22.3640   -9.2890   20.4230 C   0  0  0  0  0  3  0  0  0  0  0  0
  -23.1690  -10.4250   20.2290 C   0  0  0  0  0  3  0  0  0  0  0  0
  -21.8900   -7.2210   21.4640 O   0  0  0  0  0  0  0  0  0  0  0  0
  -21.7520   -6.5290   22.6410 C   0  0  0  0  0  0  0  0  0  0  0  0
  -21.3260   -7.1580   23.8300 C   0  0  0  0  0  3  0  0  0  0  0  0
  -21.1280   -6.3950   24.9980 C   0  0  0  0  0  3  0  0  0  0  0  0
  -21.3510   -5.0050   24.9790 C   0  0  0  0  0  0  0  0  0  0  0  0
  -21.7790   -4.3770   23.7970 C   0  0  0  0  0  3  0  0  0  0  0  0
  -21.9780   -5.1370   22.6300 C   0  0  0  0  0  0  0  0  0  0  0  0
  -22.3640   -4.5220   21.4870 F   0  0  0  0  0  0  0  0  0  0  0  0
  -21.1560   -4.2730   26.1010 F   0  0  0  0  0  0  0  0  0  0  0  0
  -23.5060  -13.7600   21.3140 C   0  0  0  0  0  0  0  0  0  0  0  0
  -22.8180  -13.0950   22.2370 N   0  0  0  0  0  0  0  0  0  0  0  0
  -23.1040  -14.8300   20.8700 O   0  0  0  0  0  0  0  0  0  0  0  0
  -23.1670  -12.2280   22.6220 H   0  0  0  0  0  0  0  0  0  0  0  0
  -21.9520  -13.4780   22.5820 H   0  0  0  0  0  0  0  0  0  0  0  0
  -26.1830  -15.2270   20.2750 N   0  0  0  0  0  4  0  0  0  0  0  0
  -25.5420  -15.9590   20.5550 H   0  0  0  0  0  0  0  0  0  0  0  0
  -27.0830  -15.5880   20.0000 H   0  0  0  0  0  0  0  0  0  0  0  0
  -29.6760  -22.6000   20.1220 C   0  0  0  0  0  2  0  0  0  0  0  0
  -29.1060  -23.8000   21.0300 C   0  0  0  0  0  3  0  0  0  0  0  0
  -28.9790  -25.2230   20.2880 C   0  0  0  0  0  3  0  0  0  0  0  0
  -28.6750  -26.4890   21.0040 O   0  0  0  0  0  0  0  0  0  0  0  0
  -24.6440  -31.9120   23.4240 C   0  0  0  0  0  0  0  0  0  0  0  0
  -27.5210  -27.2690   20.7790 C   0  0  0  0  0  0  0  0  0  0  0  0
  -23.5590  -30.4110   21.7910 C   0  0  0  0  0  3  0  0  0  0  0  0
  -25.1200  -28.8380   20.5060 C   0  0  0  0  0  0  0  0  0  0  0  0
  -26.0960  -30.7880   21.7290 C   0  0  0  0  0  2  0  0  0  0  0  0
  -26.2360  -29.3780   21.1670 C   0  0  0  0  0  0  0  0  0  0  0  0
  -27.4340  -28.6060   21.2860 C   0  0  0  0  0  3  0  0  0  0  0  0
  -26.3800  -26.7870   20.0810 C   0  0  0  0  0  3  0  0  0  0  0  0
  -25.1970  -27.5480   19.9610 C   0  0  0  0  0  3  0  0  0  0  0  0
  -23.8550  -29.6690   20.4600 C   0  0  0  0  0  2  0  0  0  0  0  0
  -24.7820  -31.0510   22.3700 N   0  0  0  0  0  0  0  0  0  0  0  0
  -23.5260  -32.1940   23.8870 O   0  0  0  0  0  0  0  0  0  0  0  0
  -22.8640  -29.4350   22.7580 C   0  0  0  0  0  0  0  0  0  0  0  0
  -21.5670  -29.1940   22.5310 N   0  0  0  0  0  0  0  0  0  0  0  0
  -23.4920  -28.8890   23.6690 O   0  0  0  0  0  0  0  0  0  0  0  0
  -21.1120  -29.6870   21.7680 H   0  0  0  0  0  0  0  0  0  0  0  0
  -18.2020  -27.9080   22.8380 C   0  0  0  0  0  0  0  0  0  0  0  0
  -20.7170  -28.2830   23.2910 C   0  0  0  0  0  3  0  0  0  0  0  0
  -20.9150  -26.8200   22.8280 C   0  0  0  0  0  2  0  0  0  0  0  0
  -19.9130  -26.3830   21.7540 C   0  0  0  0  0  2  0  0  0  0  0  0
  -18.4790  -26.5180   22.2910 C   0  0  0  0  0  2  0  0  0  0  0  0
  -19.2550  -28.7360   23.2970 C   0  0  0  0  0  0  0  0  0  0  0  0
  -18.9530  -30.0430   23.7450 C   0  0  0  0  0  3  0  0  0  0  0  0
  -17.6250  -30.5020   23.7830 C   0  0  0  0  0  3  0  0  0  0  0  0
  -16.5860  -29.6630   23.3650 C   0  0  0  0  0  3  0  0  0  0  0  0
  -16.8660  -28.3600   22.9040 C   0  0  0  0  0  3  0  0  0  0  0  0
  -25.8760  -32.5920   24.0970 C   0  0  0  0  0  3  0  0  0  0  0  0
  -25.5420  -34.0060   24.3170 N   0  0  0  0  0  0  0  0  0  0  0  0
  -25.9150  -35.0110   23.5110 C   0  0  0  0  0  0  0  0  0  0  0  0
  -26.6480  -34.8490   22.5300 O   0  0  0  0  0  0  0  0  0  0  0  0
  -24.8960  -34.2090   25.0690 H   0  0  0  0  0  0  0  0  0  0  0  0
  -24.1970  -36.7600   22.9410 C   0  0  0  0  0  1  0  0  0  0  0  0
  -25.3930  -36.4240   23.8470 C   0  0  0  0  0  3  0  0  0  0  0  0
  -27.4750  -37.3770   24.7310 C   0  0  0  0  0  1  0  0  0  0  0  0
  -26.4250  -37.4760   23.7210 N   0  0  0  0  0  0  0  0  0  0  0  0
  -26.0080  -38.4000   23.7880 H   0  0  0  0  0  0  0  0  0  0  0  0
  -26.3040  -31.9060   25.4530 C   0  0  1  0  0  0  0  0  0  0  0  0
  -25.1260  -31.6650   26.4290 C   0  0  0  0  0  1  0  0  0  0  0  0
  -26.9840  -30.5430   25.1810 C   0  0  0  0  0  1  0  0  0  0  0  0
  -27.3490  -32.7850   26.1820 C   0  0  0  0  0  1  0  0  0  0  0  0
  2  1  2  0
  3  4  2  0
  4  1  1  0
  5  8  1  0
  5  2  1  0
  6  5  2  0
  6  3  1  0
  6 10  1  0
  7  8  1  0
  7 46  1  0
 10  9  1  0
 11 19  1  0
 11 17  1  0
 12 17  1  0
 13 14  1  0
 13 12  1  0
 15 14  1  0
 15 24  1  0
 15 16  1  0
 17 16  1  0
 18 11  2  0
 19 10  1  0
 20 19  1  0
 21 22  2  0
 22 41  1  0
 23 22  1  0
 23 26  1  0
 24 25  1  0
 24 21  1  0
 25 23  2  0
 26 27  1  0
 27 28  2  0
 29 32  1  0
 29 28  1  0
 30 29  2  0
 31 30  1  0
 31 26  2  0
 32 33  1  0
 33 34  1  0
 34 35  2  0
 36 35  1  0
 36 40  1  0
 37 36  2  0
 38 33  2  0
 38 37  1  0
 39 38  1  0
 41 42  1  0
 42 45  1  0
 42 44  1  0
 43 41  2  0
 46 21  1  0
 46 47  1  0
 48 46  1  0
 49  4  1  0
 49 50  1  0
 51 52  1  0
 51 50  2  0
 53 64  2  0
 54 52  1  0
 54 59  1  0
 55 63  1  0
 55 65  1  0
 56 58  1  0
 57 63  1  0
 58 59  2  0
 58 57  1  0
 60 54  2  0
 61 60  1  0
 61 56  2  0
 62 56  1  0
 62 55  1  0
 63 53  1  0
 65 67  2  0
 66 65  1  0
 68 66  1  0
 69 78  2  0
 69 74  1  0
 70 66  1  0
 70 74  1  0
 71 70  1  0
 72 73  1  0
 72 71  1  0
 73 69  1  0
 74 75  2  0
 75 76  1  0
 77 76  2  0
 78 77  1  0
 79 53  1  0
 79 80  1  0
 79 89  1  0
 80 83  1  0
 81 85  1  0
 81 80  1  0
 82 81  2  0
 85 84  1  0
 87 88  1  0
 87 85  1  0
 87 86  1  0
 89 92  1  1
 89 90  1  0
 91 89  1  0
M  ISO  4  11 100  19 100  51 101  52 101
M  END
>  <TORSDO>  (9) 
F 21

>  <SCORE>  (9) 
-12.404

>  <name>  (9) 
8

>  <ligand_id>  (9) 
8

>  <original_smiles>  (9) 
[H]c1c([H])c([H])c2c(c1[H])C([H])([H])C([H])([H])C([H])([H])C2([H])N([H])C(=O)C1([H])N(C(=O)C([H])(N([H])C(=O)C([H])(N([H])C([H])([H])[H])C([H])([H])[H])C(C([H])([H])[H])(C([H])([H])[H])C([H])([H])[H])C([H])([H])c2c([H])c(OC([H])([H])C([H])([H])C([H])([H])c3c([H])c([H])c(C([H])([H])C([H])([H])[H])c(C([H])(N([H])C(=O)N4C([H])([H])C([H])([H])C([H])([H])C([H])(n5nc(-c6c([H])c([H])c(Oc7c([H])c([H])c(F)c([H])c7F)c([H])c6[H])c(C(=O)N([H])[H])c5N([H])[H])C4([H])[H])C([H])([H])[H])c3[H])c([H])c([H])c2C1([H])[H]

>  <smiles>  (9) 
[H]c1c([H])c([H])c2c(c1[H])C([H])([H])C([H])([H])C([H])([H])C2([H])N([H])C(=O)C1([H])N(C(=O)C([H])(N([H])C(=O)C([H])(N([H])C([H])([H])[H])C([H])([H])[H])C(C([H])([H])[H])(C([H])([H])[H])C([H])([H])[H])C([H])([H])c2c([H])c(OC([H])([H])C([H])([H])C([H])([H])c3c([H])c([H])c(C([H])([H])C([H])([H])[H])c(C([H])(N([H])C(=O)N4C([H])([H])C([H])([H])C([H])([H])C([H])(n5nc(-c6c([H])c([H])c(Oc7c([H])c([H])c(F)c([H])c7F)c([H])c6[H])c(C(=O)N([H])[H])c5N([H])[H])C4([H])[H])C([H])([H])[H])c3[H])c([H])c([H])c2C1([H])[H]

$$$$
9:0:0
     RDKit          3D

 95103  0  0  1  0  0  0  0  0999 V2000
  -28.1430  -23.7810   19.4450 C   0  0  0  0  0  2  0  0  0  0  0  0
  -29.9730  -24.2700   17.7760 C   0  0  0  0  0  2  0  0  0  0  0  0
  -28.7170  -22.3660   19.6650 C   0  0  0  0  0  2  0  0  0  0  0  0
  -30.5770  -22.8840   18.0270 C   0  0  0  0  0  2  0  0  0  0  0  0
  -29.2270  -24.7920   19.0140 C   0  0  0  0  0  3  0  0  0  0  0  0
  -29.4900  -21.8560   18.4260 C   0  0  0  0  0  3  0  0  0  0  0  0
  -30.6310  -19.9330   17.2150 C   0  0  0  0  0  1  0  0  0  0  0  0
  -30.0180  -20.3940   18.5590 C   0  0  0  0  0  3  0  0  0  0  0  0
  -30.9540  -20.1760   19.7870 C   0  0  0  0  0  2  0  0  0  0  0  0
  -32.0280  -19.0540   19.6820 C   0  0  0  0  0  3  0  0  0  0  0  0
  -34.4640  -18.4610   20.2250 C   0  0  0  0  0  1  0  0  0  0  0  0
  -33.5380  -20.6030   21.1200 C   0  0  0  0  0  1  0  0  0  0  0  0
  -33.1820  -19.1550   20.7300 C   0  0  0  0  0  3  0  0  0  0  0  0
  -31.4150  -17.6250   19.5750 C   0  0  0  0  0  2  0  0  0  0  0  0
  -31.0210  -16.8990   20.8910 C   0  0  0  0  0  2  0  0  0  0  0  0
  -31.1420  -14.4810   20.1770 C   0  0  0  0  0  0  0  0  0  0  0  0
  -30.7950  -12.2320   19.2380 C   0  0  0  0  0  2  0  0  0  0  0  0
  -29.8360  -12.3170   18.0340 C   0  0  0  0  0  2  0  0  0  0  0  0
  -28.3720  -12.2250   18.5040 C   0  0  0  0  0  2  0  0  0  0  0  0
  -28.0530  -13.1940   19.6740 C   0  0  0  0  0  3  0  0  0  0  0  0
  -29.1250  -13.0910   20.7800 C   0  0  0  0  0  2  0  0  0  0  0  0
  -30.4410  -13.3210   20.1610 N   0  0  0  0  0  0  0  0  0  0  0  0
  -32.2540  -14.5910   19.6570 O   0  0  0  0  0  0  0  0  0  0  0  0
  -30.5030  -15.5350   20.7090 N   0  0  0  0  0  0  0  0  0  0  0  0
  -29.5840  -15.3490   21.0810 H   0  0  0  0  0  0  0  0  0  0  0  0
  -25.7170  -13.8840   20.5070 C   0  0  0  0  0  0  0  0  0  0  0  0
  -24.6320  -13.1460   20.8980 C   0  0  0  0  0  0  0  0  0  0  0  0
  -25.0300  -11.7770   20.8030 C   0  0  0  0  0  0  0  0  0  0  0  0
  -26.7100  -12.9660   20.2030 N   0  0  0  0  0  0  0  0  0  0  0  0
  -26.3030  -11.6930   20.4370 N   0  0  0  0  0  0  0  0  0  0  0  0
  -24.2570  -10.5410   20.9840 C   0  0  0  0  0  0  0  0  0  0  0  0
  -24.6530   -9.5530   21.9130 C   0  0  0  0  0  3  0  0  0  0  0  0
  -23.8840   -8.3800   22.0810 C   0  0  0  0  0  3  0  0  0  0  0  0
  -22.7050   -8.1920   21.3220 C   0  0  0  0  0  0  0  0  0  0  0  0
  -22.3300   -9.1680   20.3820 C   0  0  0  0  0  3  0  0  0  0  0  0
  -23.0990  -10.3310   20.2110 C   0  0  0  0  0  3  0  0  0  0  0  0
  -21.9080   -7.0750   21.4020 O   0  0  0  0  0  0  0  0  0  0  0  0
  -21.7610   -6.3760   22.5730 C   0  0  0  0  0  0  0  0  0  0  0  0
  -21.2650   -6.9850   23.7460 C   0  0  0  0  0  3  0  0  0  0  0  0
  -21.0640   -6.2130   24.9080 C   0  0  0  0  0  3  0  0  0  0  0  0
  -21.3520   -4.8360   24.8980 C   0  0  0  0  0  0  0  0  0  0  0  0
  -21.8450   -4.2270   23.7310 C   0  0  0  0  0  3  0  0  0  0  0  0
  -22.0450   -4.9950   22.5700 C   0  0  0  0  0  0  0  0  0  0  0  0
  -22.4990   -4.4000   21.4410 F   0  0  0  0  0  0  0  0  0  0  0  0
  -21.1520   -4.0940   26.0120 F   0  0  0  0  0  0  0  0  0  0  0  0
  -23.2700  -13.6740   21.2490 C   0  0  0  0  0  0  0  0  0  0  0  0
  -22.5600  -12.9880   22.1400 N   0  0  0  0  0  0  0  0  0  0  0  0
  -22.8480  -14.7240   20.7700 O   0  0  0  0  0  0  0  0  0  0  0  0
  -22.9170  -12.1360   22.5460 H   0  0  0  0  0  0  0  0  0  0  0  0
  -21.6490  -13.3210   22.4200 H   0  0  0  0  0  0  0  0  0  0  0  0
  -25.9360  -15.2500   20.3650 N   0  0  0  0  0  0  0  0  0  0  0  0
  -25.2070  -15.9380   20.5200 H   0  0  0  0  0  0  0  0  0  0  0  0
  -26.7940  -15.6560   20.0100 H   0  0  0  0  0  0  0  0  0  0  0  0
  -28.6480  -26.1940   18.7470 C   0  0  0  0  0  2  0  0  0  0  0  0
  -28.2700  -26.7950   19.9820 O   0  0  0  0  0  0  0  0  0  0  0  0
  -24.6930  -31.9160   23.3340 C   0  0  0  0  0  0  0  0  0  0  0  0
  -27.1000  -27.5170   20.0250 C   0  0  0  0  0  0  0  0  0  0  0  0
  -23.3860  -30.5920   21.7020 C   0  0  0  0  0  3  0  0  0  0  0  0
  -24.7400  -29.0580   20.1820 C   0  0  0  0  0  0  0  0  0  0  0  0
  -25.9080  -30.8950   21.4170 C   0  0  0  0  0  2  0  0  0  0  0  0
  -25.9300  -29.5410   20.7410 C   0  0  0  0  0  0  0  0  0  0  0  0
  -27.1090  -28.7710   20.6720 C   0  0  0  0  0  3  0  0  0  0  0  0
  -25.8880  -27.0280   19.4880 C   0  0  0  0  0  3  0  0  0  0  0  0
  -24.7110  -27.7970   19.5600 C   0  0  0  0  0  3  0  0  0  0  0  0
  -23.5220  -29.9450   20.2980 C   0  0  0  0  0  2  0  0  0  0  0  0
  -24.6820  -31.1470   22.2090 N   0  0  0  0  0  0  0  0  0  0  0  0
  -23.6410  -32.2020   23.9230 O   0  0  0  0  0  0  0  0  0  0  0  0
  -22.7450  -29.5620   22.6590 C   0  0  0  0  0  0  0  0  0  0  0  0
  -21.4280  -29.3480   22.5090 N   0  0  0  0  0  0  0  0  0  0  0  0
  -23.4290  -28.9580   23.4880 O   0  0  0  0  0  0  0  0  0  0  0  0
  -20.9380  -29.8890   21.8100 H   0  0  0  0  0  0  0  0  0  0  0  0
  -18.0980  -27.9960   22.8670 C   0  0  0  0  0  0  0  0  0  0  0  0
  -20.6190  -28.3980   23.2710 C   0  0  0  0  0  3  0  0  0  0  0  0
  -20.8270  -26.9540   22.7590 C   0  0  0  0  0  2  0  0  0  0  0  0
  -19.8040  -26.5360   21.6990 C   0  0  0  0  0  2  0  0  0  0  0  0
  -18.3810  -26.6330   22.2580 C   0  0  0  0  0  2  0  0  0  0  0  0
  -19.1500  -28.8310   23.3270 C   0  0  0  0  0  0  0  0  0  0  0  0
  -18.8350  -30.1040   23.8510 C   0  0  0  0  0  3  0  0  0  0  0  0
  -17.4990  -30.5430   23.9220 C   0  0  0  0  0  3  0  0  0  0  0  0
  -16.4610  -29.7050   23.4800 C   0  0  0  0  0  3  0  0  0  0  0  0
  -16.7600  -28.4340   22.9580 C   0  0  0  0  0  3  0  0  0  0  0  0
  -26.0200  -32.4930   23.9190 C   0  0  0  0  0  3  0  0  0  0  0  0
  -25.7650  -33.8880   24.3030 N   0  0  0  0  0  0  0  0  0  0  0  0
  -26.0780  -34.9520   23.5500 C   0  0  0  0  0  0  0  0  0  0  0  0
  -26.6850  -34.8600   22.4790 O   0  0  0  0  0  0  0  0  0  0  0  0
  -25.2210  -34.0350   25.1400 H   0  0  0  0  0  0  0  0  0  0  0  0
  -24.3700  -36.7850   23.3380 C   0  0  0  0  0  1  0  0  0  0  0  0
  -25.6460  -36.3360   24.0680 C   0  0  0  0  0  3  0  0  0  0  0  0
  -27.8410  -37.1580   24.8020 C   0  0  0  0  0  1  0  0  0  0  0  0
  -26.6930  -37.3720   23.9240 N   0  0  0  0  0  0  0  0  0  0  0  0
  -26.3150  -38.2950   24.1180 H   0  0  0  0  0  0  0  0  0  0  0  0
  -26.5680  -31.6680   25.1490 C   0  0  1  0  0  0  0  0  0  0  0  0
  -25.5130  -31.4170   26.2500 C   0  0  0  0  0  1  0  0  0  0  0  0
  -27.1040  -30.2930   24.6860 C   0  0  0  0  0  1  0  0  0  0  0  0
  -27.7610  -32.4140   25.7900 C   0  0  0  0  0  1  0  0  0  0  0  0
  1  3  1  0
  2  4  1  0
  2  5  1  0
  4  6  1  0
  5 54  1  0
  5  1  1  0
  6  8  1  0
  6  3  1  0
  8  7  1  0
  8  9  1  0
 10 14  1  0
 10  9  1  0
 10 13  1  0
 11 13  1  0
 13 12  1  0
 14 15  1  0
 16 24  1  0
 17 22  1  0
 18 19  1  0
 18 17  1  0
 20 19  1  0
 20 29  1  0
 20 21  1  0
 22 16  1  0
 22 21  1  0
 23 16  2  0
 24 15  1  0
 24 25  1  0
 26 27  2  0
 27 46  1  0
 28 27  1  0
 28 31  1  0
 29 30  1  0
 29 26  1  0
 30 28  2  0
 31 32  1  0
 32 33  2  0
 34 37  1  0
 34 33  1  0
 35 34  2  0
 36 35  1  0
 36 31  2  0
 37 38  1  0
 38 39  1  0
 39 40  2  0
 41 40  1  0
 41 45  1  0
 42 41  2  0
 43 38  2  0
 43 42  1  0
 44 43  1  0
 46 47  1  0
 47 50  1  0
 47 49  1  0
 48 46  2  0
 51 26  1  0
 51 52  1  0
 53 51  1  0
 54 55  1  0
 55 57  1  0
 56 67  2  0
 57 62  1  0
 58 66  1  0
 58 68  1  0
 59 65  1  0
 59 61  1  0
 60 66  1  0
 61 60  1  0
 62 61  2  0
 63 64  1  0
 63 57  2  0
 64 59  2  0
 65 58  1  0
 66 56  1  0
 68 70  2  0
 69 68  1  0
 71 69  1  0
 72 81  2  0
 72 77  1  0
 73 69  1  0
 73 77  1  0
 74 73  1  0
 75 76  1  0
 75 74  1  0
 76 72  1  0
 77 78  2  0
 78 79  1  0
 80 79  2  0
 81 80  1  0
 82 56  1  0
 82 83  1  0
 82 92  1  0
 83 86  1  0
 84 88  1  0
 84 83  1  0
 85 84  2  0
 88 87  1  0
 90 88  1  0
 90 91  1  0
 90 89  1  0
 92 95  1  1
 92 93  1  0
 94 92  1  0
M  ISO  4  16 100  24 100  54 101  55 101
M  END
>  <TORSDO>  (10) 
F 23

>  <SCORE>  (10) 
-12.372

>  <name>  (10) 
9

>  <ligand_id>  (10) 
9

>  <original_smiles>  (10) 
[H]c1c([H])c([H])c2c(c1[H])C([H])([H])C([H])([H])C([H])([H])C2([H])N([H])C(=O)C1([H])N(C(=O)C([H])(N([H])C(=O)C([H])(N([H])C([H])([H])[H])C([H])([H])[H])C(C([H])([H])[H])(C([H])([H])[H])C([H])([H])[H])C([H])([H])c2c([H])c(OC([H])([H])C3([H])C([H])([H])C([H])([H])C([H])(C([H])(C([H])([H])[H])C([H])([H])C([H])(C([H])([H])C([H])([H])N([H])C(=O)N4C([H])([H])C([H])([H])C([H])([H])C([H])(n5nc(-c6c([H])c([H])c(Oc7c([H])c([H])c(F)c([H])c7F)c([H])c6[H])c(C(=O)N([H])[H])c5N([H])[H])C4([H])[H])C([H])(C([H])([H])[H])C([H])([H])[H])C([H])([H])C3([H])[H])c([H])c([H])c2C1([H])[H]

>  <smiles>  (10) 
[H]c1c([H])c([H])c2c(c1[H])C([H])([H])C([H])([H])C([H])([H])C2([H])N([H])C(=O)C1([H])N(C(=O)C([H])(N([H])C(=O)C([H])(N([H])C([H])([H])[H])C([H])([H])[H])C(C([H])([H])[H])(C([H])([H])[H])C([H])([H])[H])C([H])([H])c2c([H])c(OC([H])([H])C3([H])C([H])([H])C([H])([H])C([H])(C([H])(C([H])([H])[H])C([H])([H])C([H])(C([H])([H])C([H])([H])N([H])C(=O)N4C([H])([H])C([H])([H])C([H])([H])C([H])(n5nc(-c6c([H])c([H])c(Oc7c([H])c([H])c(F)c([H])c7F)c([H])c6[H])c(C(=O)N([H])[H])c5N([H])[H])C4([H])[H])C([H])(C([H])([H])[H])C([H])([H])[H])C([H])([H])C3([H])[H])c([H])c([H])c2C1([H])[H]

$$$$
10:0:0
     RDKit          3D

 95103  0  0  1  0  0  0  0  0999 V2000
  -26.7740  -23.9920   20.5130 C   0  0  0  0  0  3  0  0  0  0  0  0
  -28.5570  -22.4640   19.9290 C   0  0  0  0  0  3  0  0  0  0  0  0
  -28.1540  -23.7400   20.3990 C   0  0  0  0  0  0  0  0  0  0  0  0
  -25.8640  -23.0250   20.0750 C   0  0  0  0  0  0  0  0  0  0  0  0
  -27.5720  -21.5010   19.6150 C   0  0  0  0  0  0  0  0  0  0  0  0
  -24.3750  -23.2920   20.1010 C   0  0  0  0  0  1  0  0  0  0  0  0
  -26.2580  -21.8240   19.6160 N   0  0  0  0  0  0  0  0  0  0  0  0
  -30.5500  -24.3240   21.1450 C   0  0  0  0  0  1  0  0  0  0  0  0
  -29.1350  -24.8310   20.8160 C   0  0  0  0  0  3  0  0  0  0  0  0
  -29.1720  -25.9990   19.8020 C   0  0  0  0  0  2  0  0  0  0  0  0
  -28.8150  -27.2000   20.4650 O   0  0  0  0  0  0  0  0  0  0  0  0
  -24.6300  -32.0440   23.4220 C   0  0  0  0  0  0  0  0  0  0  0  0
  -27.5480  -27.7360   20.4270 C   0  0  0  0  0  0  0  0  0  0  0  0
  -23.5200  -30.6030   21.7370 C   0  0  0  0  0  3  0  0  0  0  0  0
  -25.0740  -29.1060   20.3740 C   0  0  0  0  0  0  0  0  0  0  0  0
  -26.0330  -31.0420   21.6370 C   0  0  0  0  0  2  0  0  0  0  0  0
  -26.1800  -29.6760   21.0110 C   0  0  0  0  0  0  0  0  0  0  0  0
  -27.4070  -28.9860   21.0510 C   0  0  0  0  0  3  0  0  0  0  0  0
  -26.4250  -27.1670   19.7780 C   0  0  0  0  0  3  0  0  0  0  0  0
  -25.1860  -27.8430   19.7630 C   0  0  0  0  0  3  0  0  0  0  0  0
  -23.7990  -29.9200   20.3700 C   0  0  0  0  0  2  0  0  0  0  0  0
  -24.7400  -31.2450   22.3240 N   0  0  0  0  0  0  0  0  0  0  0  0
  -23.5250  -32.2890   23.9270 O   0  0  0  0  0  0  0  0  0  0  0  0
  -22.8720  -29.5650   22.6780 C   0  0  0  0  0  0  0  0  0  0  0  0
  -21.5570  -29.3490   22.5070 N   0  0  0  0  0  0  0  0  0  0  0  0
  -23.5440  -28.9590   23.5160 O   0  0  0  0  0  0  0  0  0  0  0  0
  -21.0740  -29.8920   21.8040 H   0  0  0  0  0  0  0  0  0  0  0  0
  -18.2000  -28.0830   22.9000 C   0  0  0  0  0  0  0  0  0  0  0  0
  -20.7400  -28.3920   23.2520 C   0  0  0  0  0  3  0  0  0  0  0  0
  -20.8930  -26.9640   22.6760 C   0  0  0  0  0  2  0  0  0  0  0  0
  -19.8290  -26.6230   21.6270 C   0  0  0  0  0  2  0  0  0  0  0  0
  -18.4250  -26.7390   22.2290 C   0  0  0  0  0  2  0  0  0  0  0  0
  -19.2890  -28.8660   23.3670 C   0  0  0  0  0  0  0  0  0  0  0  0
  -19.0290  -30.1260   23.9510 C   0  0  0  0  0  3  0  0  0  0  0  0
  -17.7100  -30.6010   24.0770 C   0  0  0  0  0  3  0  0  0  0  0  0
  -16.6340  -29.8140   23.6270 C   0  0  0  0  0  3  0  0  0  0  0  0
  -16.8810  -28.5570   23.0470 C   0  0  0  0  0  3  0  0  0  0  0  0
  -25.8790  -32.7090   24.0820 C   0  0  0  0  0  3  0  0  0  0  0  0
  -25.5480  -34.1180   24.3400 N   0  0  0  0  0  0  0  0  0  0  0  0
  -25.9100  -35.1370   23.5500 C   0  0  0  0  0  0  0  0  0  0  0  0
  -26.6260  -34.9970   22.5560 O   0  0  0  0  0  0  0  0  0  0  0  0
  -24.9210  -34.3020   25.1090 H   0  0  0  0  0  0  0  0  0  0  0  0
  -24.1840  -36.8910   23.0340 C   0  0  0  0  0  1  0  0  0  0  0  0
  -25.3890  -36.5390   23.9220 C   0  0  0  0  0  3  0  0  0  0  0  0
  -27.4750  -37.4790   24.8120 C   0  0  0  0  0  1  0  0  0  0  0  0
  -26.4170  -37.5980   23.8120 N   0  0  0  0  0  0  0  0  0  0  0  0
  -25.9950  -38.5190   23.9040 H   0  0  0  0  0  0  0  0  0  0  0  0
  -26.3400  -31.9940   25.4110 C   0  0  1  0  0  0  0  0  0  0  0  0
  -25.1940  -31.7720   26.4260 C   0  0  0  0  0  1  0  0  0  0  0  0
  -26.9660  -30.6140   25.0980 C   0  0  0  0  0  1  0  0  0  0  0  0
  -27.4410  -32.8310   26.1060 C   0  0  0  0  0  1  0  0  0  0  0  0
  -26.8300  -19.1130   19.9850 C   0  0  0  0  0  1  0  0  0  0  0  0
  -27.8420  -20.0260   19.2440 C   0  0  0  0  0  3  0  0  0  0  0  0
  -30.1300  -20.0510   20.5560 C   0  0  0  0  0  1  0  0  0  0  0  0
  -29.3100  -19.4730   19.3730 C   0  0  0  0  0  3  0  0  0  0  0  0
  -29.2940  -17.9210   19.5050 C   0  0  0  0  0  2  0  0  0  0  0  0
  -30.6520  -17.1930   19.4250 C   0  0  0  0  0  2  0  0  0  0  0  0
  -31.2620  -14.8210   19.7640 C   0  0  0  0  0  0  0  0  0  0  0  0
  -30.9630  -12.4950   19.0720 C   0  0  0  0  0  2  0  0  0  0  0  0
  -30.0160  -12.5240   17.8560 C   0  0  0  0  0  2  0  0  0  0  0  0
  -28.5450  -12.4910   18.3150 C   0  0  0  0  0  2  0  0  0  0  0  0
  -28.2210  -13.5330   19.4220 C   0  0  0  0  0  3  0  0  0  0  0  0
  -29.2850  -13.4800   20.5470 C   0  0  0  0  0  2  0  0  0  0  0  0
  -30.6150  -13.6410   19.9260 N   0  0  0  0  0  0  0  0  0  0  0  0
  -32.3510  -14.9420   19.1940 O   0  0  0  0  0  0  0  0  0  0  0  0
  -30.5230  -15.8890   20.0610 N   0  0  0  0  0  0  0  0  0  0  0  0
  -29.6640  -15.7070   20.5600 H   0  0  0  0  0  0  0  0  0  0  0  0
  -25.8900  -14.3000   20.2110 C   0  0  0  0  0  0  0  0  0  0  0  0
  -24.7830  -13.5970   20.6170 C   0  0  0  0  0  0  0  0  0  0  0  0
  -25.1480  -12.2190   20.5600 C   0  0  0  0  0  0  0  0  0  0  0  0
  -26.8650  -13.3520   19.9430 N   0  0  0  0  0  0  0  0  0  0  0  0
  -26.4200  -12.0940   20.2000 N   0  0  0  0  0  0  0  0  0  0  0  0
  -24.3420  -11.0090   20.7700 C   0  0  0  0  0  0  0  0  0  0  0  0
  -24.7140  -10.0310   21.7180 C   0  0  0  0  0  3  0  0  0  0  0  0
  -23.9110   -8.8870   21.9140 C   0  0  0  0  0  3  0  0  0  0  0  0
  -22.7270   -8.7110   21.1630 C   0  0  0  0  0  0  0  0  0  0  0  0
  -22.3740   -9.6760   20.2040 C   0  0  0  0  0  3  0  0  0  0  0  0
  -23.1740  -10.8120   20.0060 C   0  0  0  0  0  3  0  0  0  0  0  0
  -21.9010   -7.6160   21.2700 O   0  0  0  0  0  0  0  0  0  0  0  0
  -21.7630   -6.9290   22.4480 C   0  0  0  0  0  0  0  0  0  0  0  0
  -21.3400   -7.5630   23.6390 C   0  0  0  0  0  3  0  0  0  0  0  0
  -21.1470   -6.8060   24.8100 C   0  0  0  0  0  3  0  0  0  0  0  0
  -21.3670   -5.4160   24.7950 C   0  0  0  0  0  0  0  0  0  0  0  0
  -21.7800   -4.7810   23.6120 C   0  0  0  0  0  3  0  0  0  0  0  0
  -21.9760   -5.5350   22.4410 C   0  0  0  0  0  0  0  0  0  0  0  0
  -22.3530   -4.9140   21.2990 F   0  0  0  0  0  0  0  0  0  0  0  0
  -21.1740   -4.6870   25.9200 F   0  0  0  0  0  0  0  0  0  0  0  0
  -23.4310  -14.1670   20.9450 C   0  0  0  0  0  0  0  0  0  0  0  0
  -22.6980  -13.5220   21.8470 N   0  0  0  0  0  0  0  0  0  0  0  0
  -23.0420  -15.2220   20.4480 O   0  0  0  0  0  0  0  0  0  0  0  0
  -23.0210  -12.6720   22.2840 H   0  0  0  0  0  0  0  0  0  0  0  0
  -21.7970  -13.8920   22.1120 H   0  0  0  0  0  0  0  0  0  0  0  0
  -26.1400  -15.6580   20.0420 N   0  0  0  0  0  0  0  0  0  0  0  0
  -25.4190  -16.3580   20.1730 H   0  0  0  0  0  0  0  0  0  0  0  0
  -27.0030  -16.0380   19.6700 H   0  0  0  0  0  0  0  0  0  0  0  0
  2  3  2  0
  3  1  1  0
  3  9  1  0
  4  6  1  0
  4  1  2  0
  5  7  2  0
  5  2  1  0
  7  4  1  0
  9  8  1  0
 10 11  1  0
 10  9  1  0
 12 23  2  0
 13 11  1  0
 13 18  1  0
 14 22  1  0
 14 24  1  0
 15 17  1  0
 16 22  1  0
 17 18  2  0
 17 16  1  0
 19 13  2  0
 20 19  1  0
 20 15  2  0
 21 15  1  0
 21 14  1  0
 22 12  1  0
 24 26  2  0
 25 24  1  0
 27 25  1  0
 28 37  2  0
 28 33  1  0
 29 25  1  0
 29 33  1  0
 30 29  1  0
 31 32  1  0
 31 30  1  0
 32 28  1  0
 33 34  2  0
 34 35  1  0
 36 35  2  0
 37 36  1  0
 38 12  1  0
 38 39  1  0
 38 48  1  0
 39 42  1  0
 40 44  1  0
 40 39  1  0
 41 40  2  0
 44 43  1  0
 46 47  1  0
 46 44  1  0
 46 45  1  0
 48 51  1  1
 48 49  1  0
 50 48  1  0
 53 55  1  0
 53  5  1  0
 53 52  1  0
 55 56  1  0
 55 54  1  0
 57 56  1  0
 57 66  1  0
 58 64  1  0
 58 66  1  0
 59 64  1  0
 60 61  1  0
 60 59  1  0
 62 61  1  0
 62 71  1  0
 62 63  1  0
 64 63  1  0
 65 58  2  0
 66 67  1  0
 68 69  2  0
 69 88  1  0
 70 69  1  0
 70 73  1  0
 71 72  1  0
 71 68  1  0
 72 70  2  0
 73 74  1  0
 74 75  2  0
 76 79  1  0
 76 75  1  0
 77 76  2  0
 78 77  1  0
 78 73  2  0
 79 80  1  0
 80 81  1  0
 81 82  2  0
 83 82  1  0
 83 87  1  0
 84 83  2  0
 85 80  2  0
 85 84  1  0
 86 85  1  0
 88 89  1  0
 89 92  1  0
 89 91  1  0
 90 88  2  0
 93 94  1  0
 93 68  1  0
 95 93  1  0
M  ISO  4  10 101  11 101  58 100  66 100
M  END
>  <TORSDO>  (11) 
F 22

>  <SCORE>  (11) 
-11.966

>  <name>  (11) 
10

>  <ligand_id>  (11) 
10

>  <original_smiles>  (11) 
[H]c1c([H])c([H])c2c(c1[H])C([H])([H])C([H])([H])C([H])([H])C2([H])N([H])C(=O)C1([H])N(C(=O)C([H])(N([H])C(=O)C([H])(N([H])C([H])([H])[H])C([H])([H])[H])C(C([H])([H])[H])(C([H])([H])[H])C([H])([H])[H])C([H])([H])c2c([H])c(OC([H])([H])C([H])(c3c([H])c(C([H])([H])[H])nc(C([H])(C([H])([H])[H])C([H])(C([H])([H])[H])C([H])([H])C([H])([H])N([H])C(=O)N4C([H])([H])C([H])([H])C([H])([H])C([H])(n5nc(-c6c([H])c([H])c(Oc7c([H])c([H])c(F)c([H])c7F)c([H])c6[H])c(C(=O)N([H])[H])c5N([H])[H])C4([H])[H])c3[H])C([H])([H])[H])c([H])c([H])c2C1([H])[H]

>  <smiles>  (11) 
[H]c1c([H])c([H])c2c(c1[H])C([H])([H])C([H])([H])C([H])([H])C2([H])N([H])C(=O)C1([H])N(C(=O)C([H])(N([H])C(=O)C([H])(N([H])C([H])([H])[H])C([H])([H])[H])C(C([H])([H])[H])(C([H])([H])[H])C([H])([H])[H])C([H])([H])c2c([H])c(OC([H])([H])C([H])(c3c([H])c(C([H])([H])[H])nc(C([H])(C([H])([H])[H])C([H])(C([H])([H])[H])C([H])([H])C([H])([H])N([H])C(=O)N4C([H])([H])C([H])([H])C([H])([H])C([H])(n5nc(-c6c([H])c([H])c(Oc7c([H])c([H])c(F)c([H])c7F)c([H])c6[H])c(C(=O)N([H])[H])c5N([H])[H])C4([H])[H])c3[H])C([H])([H])[H])c([H])c([H])c2C1([H])[H]

$$$$
11:0:0
     RDKit          3D

 93100  0  0  1  0  0  0  0  0999 V2000
  -30.7300  -23.0860   21.2850 C   0  0  0  0  0  1  0  0  0  0  0  0
  -29.2900  -22.6720   20.9140 C   0  0  0  0  0  3  0  0  0  0  0  0
  -29.3150  -21.3490   19.9640 C   0  0  0  0  0  2  0  0  0  0  0  0
  -29.4830  -19.9890   20.6780 N   0  0  0  0  0  4  0  0  0  0  0  0
  -28.6710  -19.8780   21.2650 H   0  0  0  0  0  0  0  0  0  0  0  0
  -30.2620  -20.0830   21.3140 H   0  0  0  0  0  0  0  0  0  0  0  0
  -28.3980  -18.2530   19.1060 C   0  0  0  0  0  1  0  0  0  0  0  0
  -29.6450  -18.6420   19.9350 C   0  0  0  0  0  3  0  0  0  0  0  0
  -30.1130  -17.4070   20.8760 C   0  0  0  0  0  2  0  0  0  0  0  0
  -30.5840  -14.8630   20.2460 C   0  0  0  0  0  0  0  0  0  0  0  0
  -30.3940  -12.6090   19.2160 C   0  0  0  0  0  2  0  0  0  0  0  0
  -29.4280  -12.6420   18.0140 C   0  0  0  0  0  2  0  0  0  0  0  0
  -27.9690  -12.4590   18.4710 C   0  0  0  0  0  2  0  0  0  0  0  0
  -27.5920  -13.3800   19.6610 C   0  0  0  0  0  3  0  0  0  0  0  0
  -28.6650  -13.2900   20.7700 C   0  0  0  0  0  2  0  0  0  0  0  0
  -29.9610  -13.6450   20.1710 N   0  0  0  0  0  0  0  0  0  0  0  0
  -31.7640  -14.9940   19.9110 O   0  0  0  0  0  0  0  0  0  0  0  0
  -29.7970  -15.9520   20.5490 N   0  0  0  0  0  0  0  0  0  0  0  0
  -28.8530  -15.6860   20.7880 H   0  0  0  0  0  0  0  0  0  0  0  0
  -25.1960  -13.9600   20.4020 C   0  0  0  0  0  0  0  0  0  0  0  0
  -24.1420  -13.1810   20.7840 C   0  0  0  0  0  0  0  0  0  0  0  0
  -24.6150  -11.8330   20.7550 C   0  0  0  0  0  0  0  0  0  0  0  0
  -26.2500  -13.0900   20.1670 N   0  0  0  0  0  0  0  0  0  0  0  0
  -25.9040  -11.8060   20.4430 N   0  0  0  0  0  0  0  0  0  0  0  0
  -23.9020  -10.5670   20.9490 C   0  0  0  0  0  0  0  0  0  0  0  0
  -24.3390   -9.6040   21.8840 C   0  0  0  0  0  3  0  0  0  0  0  0
  -23.6250   -8.4020   22.0620 C   0  0  0  0  0  3  0  0  0  0  0  0
  -22.4590   -8.1460   21.3090 C   0  0  0  0  0  0  0  0  0  0  0  0
  -22.0410   -9.0950   20.3590 C   0  0  0  0  0  3  0  0  0  0  0  0
  -22.7540  -10.2930   20.1780 C   0  0  0  0  0  3  0  0  0  0  0  0
  -21.7150   -6.9950   21.3970 O   0  0  0  0  0  0  0  0  0  0  0  0
  -21.6660   -6.2600   22.5530 C   0  0  0  0  0  0  0  0  0  0  0  0
  -21.2280   -6.8200   23.7720 C   0  0  0  0  0  3  0  0  0  0  0  0
  -21.1290   -6.0100   24.9240 C   0  0  0  0  0  3  0  0  0  0  0  0
  -21.4560   -4.6420   24.8550 C   0  0  0  0  0  0  0  0  0  0  0  0
  -21.8830   -4.0830   23.6400 C   0  0  0  0  0  3  0  0  0  0  0  0
  -21.9850   -4.8890   22.4920 C   0  0  0  0  0  0  0  0  0  0  0  0
  -22.3800   -4.3390   21.3180 F   0  0  0  0  0  0  0  0  0  0  0  0
  -21.3500   -3.8630   25.9580 F   0  0  0  0  0  0  0  0  0  0  0  0
  -22.7400  -13.6440   21.0640 C   0  0  0  0  0  0  0  0  0  0  0  0
  -22.0230  -12.9400   21.9330 N   0  0  0  0  0  0  0  0  0  0  0  0
  -22.2880  -14.6690   20.5450 O   0  0  0  0  0  0  0  0  0  0  0  0
  -22.3980  -12.1110   22.3720 H   0  0  0  0  0  0  0  0  0  0  0  0
  -21.0850  -13.2320   22.1700 H   0  0  0  0  0  0  0  0  0  0  0  0
  -25.3550  -15.3330   20.2160 N   0  0  0  0  0  0  0  0  0  0  0  0
  -24.5970  -15.9890   20.3540 H   0  0  0  0  0  0  0  0  0  0  0  0
  -26.1850  -15.7740   19.8480 H   0  0  0  0  0  0  0  0  0  0  0  0
  -28.3490  -24.0120   20.7270 C   0  0  0  0  0  3  0  0  0  0  0  0
  -26.0980  -24.6190   21.8060 C   0  0  0  0  0  1  0  0  0  0  0  0
  -26.3420  -22.2970   20.9040 C   0  0  0  0  0  1  0  0  0  0  0  0
  -26.8020  -23.7620   20.7360 C   0  0  0  0  0  3  0  0  0  0  0  0
  -28.7310  -25.2660   19.7750 C   0  0  0  0  0  2  0  0  0  0  0  0
  -28.5690  -26.6880   20.2220 O   0  0  0  0  0  0  0  0  0  0  0  0
  -24.6910  -31.9720   23.2350 C   0  0  0  0  0  0  0  0  0  0  0  0
  -27.4010  -27.4740   20.1250 C   0  0  0  0  0  0  0  0  0  0  0  0
  -23.5170  -30.5780   21.5640 C   0  0  0  0  0  3  0  0  0  0  0  0
  -24.9980  -29.0550   20.1200 C   0  0  0  0  0  0  0  0  0  0  0  0
  -26.0510  -30.9260   21.4030 C   0  0  0  0  0  2  0  0  0  0  0  0
  -26.1510  -29.5540   20.7380 C   0  0  0  0  0  0  0  0  0  0  0  0
  -27.3430  -28.7700   20.7350 C   0  0  0  0  0  3  0  0  0  0  0  0
  -26.2260  -27.0360   19.4710 C   0  0  0  0  0  3  0  0  0  0  0  0
  -25.0360  -27.8050   19.4810 C   0  0  0  0  0  3  0  0  0  0  0  0
  -23.7480  -29.9100   20.1770 C   0  0  0  0  0  2  0  0  0  0  0  0
  -24.7730  -31.1770   22.1250 N   0  0  0  0  0  0  0  0  0  0  0  0
  -23.5990  -32.2220   23.7680 O   0  0  0  0  0  0  0  0  0  0  0  0
  -22.8660  -29.5420   22.5110 C   0  0  0  0  0  0  0  0  0  0  0  0
  -21.5420  -29.3550   22.3790 N   0  0  0  0  0  0  0  0  0  0  0  0
  -23.5500  -28.9070   23.3180 O   0  0  0  0  0  0  0  0  0  0  0  0
  -21.0500  -29.9200   21.6990 H   0  0  0  0  0  0  0  0  0  0  0  0
  -18.1750  -28.1320   22.8720 C   0  0  0  0  0  0  0  0  0  0  0  0
  -20.7320  -28.3980   23.1330 C   0  0  0  0  0  3  0  0  0  0  0  0
  -20.8370  -26.9790   22.5290 C   0  0  0  0  0  2  0  0  0  0  0  0
  -19.7320  -26.6740   21.5100 C   0  0  0  0  0  2  0  0  0  0  0  0
  -18.3530  -26.7990   22.1640 C   0  0  0  0  0  2  0  0  0  0  0  0
  -19.2930  -28.8890   23.3120 C   0  0  0  0  0  0  0  0  0  0  0  0
  -19.0720  -30.1340   23.9380 C   0  0  0  0  0  3  0  0  0  0  0  0
  -17.7660  -30.6280   24.1220 C   0  0  0  0  0  3  0  0  0  0  0  0
  -16.6620  -29.8680   23.6960 C   0  0  0  0  0  3  0  0  0  0  0  0
  -16.8670  -28.6220   23.0780 C   0  0  0  0  0  3  0  0  0  0  0  0
  -25.9580  -32.6170   23.8740 C   0  0  0  0  0  3  0  0  0  0  0  0
  -25.6340  -34.0140   24.2100 N   0  0  0  0  0  0  0  0  0  0  0  0
  -25.9590  -35.0700   23.4540 C   0  0  0  0  0  0  0  0  0  0  0  0
  -26.6270  -34.9690   22.4220 O   0  0  0  0  0  0  0  0  0  0  0  0
  -25.0400  -34.1630   25.0130 H   0  0  0  0  0  0  0  0  0  0  0  0
  -24.2000  -36.8300   23.1030 C   0  0  0  0  0  1  0  0  0  0  0  0
  -25.4590  -36.4590   23.9030 C   0  0  0  0  0  3  0  0  0  0  0  0
  -27.5970  -37.3680   24.6960 C   0  0  0  0  0  1  0  0  0  0  0  0
  -26.4810  -37.5220   23.7660 N   0  0  0  0  0  0  0  0  0  0  0  0
  -26.0720  -38.4410   23.9110 H   0  0  0  0  0  0  0  0  0  0  0  0
  -26.4600  -31.8490   25.1600 C   0  0  1  0  0  0  0  0  0  0  0  0
  -25.3520  -31.5970   26.2130 C   0  0  0  0  0  1  0  0  0  0  0  0
  -27.0560  -30.4770   24.7750 C   0  0  0  0  0  1  0  0  0  0  0  0
  -27.6050  -32.6420   25.8340 C   0  0  0  0  0  1  0  0  0  0  0  0
  2  1  1  0
  3  4  1  0
  3  2  1  0
  4  5  1  0
  4  6  1  0
  8  7  1  0
  8  4  1  0
  8  9  1  0
 10 18  1  0
 11 16  1  0
 12 13  1  0
 12 11  1  0
 14 13  1  0
 14 23  1  0
 14 15  1  0
 16 10  1  0
 16 15  1  0
 17 10  2  0
 18 19  1  0
 18  9  1  0
 20 21  2  0
 21 40  1  0
 22 21  1  0
 22 25  1  0
 23 20  1  0
 23 24  1  0
 24 22  2  0
 25 26  1  0
 26 27  2  0
 28 31  1  0
 28 27  1  0
 29 28  2  0
 30 29  1  0
 30 25  2  0
 31 32  1  0
 32 33  1  0
 33 34  2  0
 35 34  1  0
 35 39  1  0
 36 35  2  0
 37 32  2  0
 37 36  1  0
 38 37  1  0
 40 41  1  0
 41 44  1  0
 41 43  1  0
 42 40  2  0
 45 46  1  0
 45 20  1  0
 47 45  1  0
 48 52  1  0
 48 51  1  0
 48  2  1  0
 51 50  1  0
 51 49  1  0
 52 53  1  0
 54 65  2  0
 55 53  1  0
 55 60  1  0
 56 64  1  0
 56 66  1  0
 57 63  1  0
 57 59  1  0
 58 64  1  0
 59 58  1  0
 60 59  2  0
 61 62  1  0
 61 55  2  0
 62 57  2  0
 63 56  1  0
 64 54  1  0
 66 68  2  0
 67 66  1  0
 69 67  1  0
 70 79  2  0
 70 75  1  0
 71 67  1  0
 71 75  1  0
 72 71  1  0
 73 74  1  0
 73 72  1  0
 74 70  1  0
 75 76  2  0
 76 77  1  0
 78 77  2  0
 79 78  1  0
 80 54  1  0
 80 81  1  0
 80 90  1  0
 81 84  1  0
 82 86  1  0
 82 81  1  0
 83 82  2  0
 86 85  1  0
 88 86  1  0
 88 89  1  0
 88 87  1  0
 90 93  1  1
 90 91  1  0
 92 90  1  0
M  ISO  4  10 100  18 100  52 101  53 101
M  END
>  <TORSDO>  (12) 
F 23

>  <SCORE>  (12) 
-12.463

>  <name>  (12) 
11

>  <ligand_id>  (12) 
11

>  <original_smiles>  (12) 
[H]c1c([H])c([H])c2c(c1[H])C([H])([H])C([H])([H])C([H])([H])C2([H])N([H])C(=O)C1([H])N(C(=O)C([H])(N([H])C(=O)C([H])(N([H])C([H])([H])[H])C([H])([H])[H])C(C([H])([H])[H])(C([H])([H])[H])C([H])([H])[H])C([H])([H])c2c([H])c(OC([H])([H])C([H])(C([H])(C([H])([H])[H])C([H])([H])[H])C([H])(C([H])([H])[H])C([H])([H])[N+]([H])([H])C([H])(C([H])([H])[H])C([H])([H])N([H])C(=O)N3C([H])([H])C([H])([H])C([H])([H])C([H])(n4nc(-c5c([H])c([H])c(Oc6c([H])c([H])c(F)c([H])c6F)c([H])c5[H])c(C(=O)N([H])[H])c4N([H])[H])C3([H])[H])c([H])c([H])c2C1([H])[H]

>  <smiles>  (12) 
[H]c1c([H])c([H])c2c(c1[H])C([H])([H])C([H])([H])C([H])([H])C2([H])N([H])C(=O)C1([H])N(C(=O)C([H])(N([H])C(=O)C([H])(N([H])C([H])([H])[H])C([H])([H])[H])C(C([H])([H])[H])(C([H])([H])[H])C([H])([H])[H])C([H])([H])c2c([H])c(OC([H])([H])C([H])(C([H])(C([H])([H])[H])C([H])([H])[H])C([H])(C([H])([H])[H])C([H])([H])[N+]([H])([H])C([H])(C([H])([H])[H])C([H])([H])N([H])C(=O)N3C([H])([H])C([H])([H])C([H])([H])C([H])(n4nc(-c5c([H])c([H])c(Oc6c([H])c([H])c(F)c([H])c6F)c([H])c5[H])c(C(=O)N([H])[H])c4N([H])[H])C3([H])[H])c([H])c([H])c2C1([H])[H]

$$$$
12:0:0
     RDKit          3D

 91 99  0  0  1  0  0  0  0  0999 V2000
  -26.6380  -21.4660   21.2720 C   0  0  0  0  0  3  0  0  0  0  0  0
  -27.4060  -20.3930   20.7700 C   0  0  0  0  0  3  0  0  0  0  0  0
  -27.3090  -22.6210   21.0030 C   0  0  0  0  0  0  0  0  0  0  0  0
  -28.5440  -20.8910   20.1960 C   0  0  0  0  0  0  0  0  0  0  0  0
  -26.9300  -23.9980   21.4420 C   0  0  0  0  0  1  0  0  0  0  0  0
  -28.4560  -22.3090   20.2610 N   0  0  0  0  0  0  0  0  0  0  0  0
  -29.6870  -20.0470   19.6290 C   0  0  0  0  0  2  0  0  0  0  0  0
  -29.5580  -18.5050   19.9430 C   0  0  0  0  0  2  0  0  0  0  0  0
  -30.7630  -17.5540   19.6330 C   0  0  0  0  0  2  0  0  0  0  0  0
  -31.2790  -15.0660   19.7180 C   0  0  0  0  0  0  0  0  0  0  0  0
  -31.0490  -12.7320   18.9410 C   0  0  0  0  0  2  0  0  0  0  0  0
  -30.0480  -12.7180   17.7650 C   0  0  0  0  0  2  0  0  0  0  0  0
  -28.6040  -12.5800   18.2860 C   0  0  0  0  0  2  0  0  0  0  0  0
  -28.2840  -13.5790   19.4310 C   0  0  0  0  0  3  0  0  0  0  0  0
  -29.3980  -13.5740   20.5040 C   0  0  0  0  0  2  0  0  0  0  0  0
  -30.6760  -13.8470   19.8260 N   0  0  0  0  0  0  0  0  0  0  0  0
  -32.3930  -15.2100   19.2070 O   0  0  0  0  0  0  0  0  0  0  0  0
  -30.5030  -16.1380   20.0090 N   0  0  0  0  0  0  0  0  0  0  0  0
  -29.6070  -15.9290   20.4220 H   0  0  0  0  0  0  0  0  0  0  0  0
  -25.9850  -14.2340   20.3810 C   0  0  0  0  0  0  0  0  0  0  0  0
  -24.9210  -13.4830   20.8010 C   0  0  0  0  0  0  0  0  0  0  0  0
  -25.3200  -12.1190   20.6570 C   0  0  0  0  0  0  0  0  0  0  0  0
  -26.9680  -13.3280   20.0120 N   0  0  0  0  0  0  0  0  0  0  0  0
  -26.5760  -12.0480   20.2360 N   0  0  0  0  0  0  0  0  0  0  0  0
  -24.5580  -10.8760   20.8410 C   0  0  0  0  0  0  0  0  0  0  0  0
  -24.9510   -9.9030   21.7850 C   0  0  0  0  0  3  0  0  0  0  0  0
  -24.1930   -8.7250   21.9570 C   0  0  0  0  0  3  0  0  0  0  0  0
  -23.0270   -8.5120   21.1840 C   0  0  0  0  0  0  0  0  0  0  0  0
  -22.6530   -9.4730   20.2280 C   0  0  0  0  0  3  0  0  0  0  0  0
  -23.4110  -10.6430   20.0550 C   0  0  0  0  0  3  0  0  0  0  0  0
  -22.2420   -7.3870   21.2650 O   0  0  0  0  0  0  0  0  0  0  0  0
  -22.0420   -6.7330   22.4540 C   0  0  0  0  0  0  0  0  0  0  0  0
  -21.4680   -7.3770   23.5720 C   0  0  0  0  0  3  0  0  0  0  0  0
  -21.2170   -6.6480   24.7510 C   0  0  0  0  0  3  0  0  0  0  0  0
  -21.5300   -5.2770   24.8130 C   0  0  0  0  0  0  0  0  0  0  0  0
  -22.0960   -4.6330   23.6980 C   0  0  0  0  0  3  0  0  0  0  0  0
  -22.3490   -5.3590   22.5220 C   0  0  0  0  0  0  0  0  0  0  0  0
  -22.8760   -4.7290   21.4440 F   0  0  0  0  0  0  0  0  0  0  0  0
  -21.2810   -4.5740   25.9420 F   0  0  0  0  0  0  0  0  0  0  0  0
  -23.5750  -13.9970   21.2200 C   0  0  0  0  0  0  0  0  0  0  0  0
  -22.8980  -13.2850   22.1150 N   0  0  0  0  0  0  0  0  0  0  0  0
  -23.1340  -15.0620   20.7890 O   0  0  0  0  0  0  0  0  0  0  0  0
  -23.2720  -12.4230   22.4840 H   0  0  0  0  0  0  0  0  0  0  0  0
  -21.9950  -13.6040   22.4360 H   0  0  0  0  0  0  0  0  0  0  0  0
  -26.1930  -15.6050   20.2600 N   0  0  0  0  0  0  0  0  0  0  0  0
  -25.4570  -16.2760   20.4550 H   0  0  0  0  0  0  0  0  0  0  0  0
  -27.0170  -16.0290   19.8560 H   0  0  0  0  0  0  0  0  0  0  0  0
  -29.4360  -23.3140   19.7740 C   0  0  0  0  0  2  0  0  0  0  0  0
  -28.8690  -24.6250   19.0900 C   0  0  0  0  0  3  0  0  0  0  0  0
  -29.0090  -25.9630   19.9020 C   0  0  0  0  0  3  0  0  0  0  0  0
  -28.7980  -27.2020   19.1770 O   0  0  0  0  0  0  0  0  0  0  0  0
  -24.8310  -31.6090   23.2060 C   0  0  0  0  0  0  0  0  0  0  0  0
  -27.5990  -27.8620   19.3760 C   0  0  0  0  0  0  0  0  0  0  0  0
  -23.6420  -30.4160   21.3940 C   0  0  0  0  0  3  0  0  0  0  0  0
  -25.1260  -29.2140   19.6970 C   0  0  0  0  0  0  0  0  0  0  0  0
  -26.1370  -30.9540   21.1800 C   0  0  0  0  0  2  0  0  0  0  0  0
  -26.2770  -29.7090   20.3240 C   0  0  0  0  0  0  0  0  0  0  0  0
  -27.5180  -29.0450   20.1550 C   0  0  0  0  0  3  0  0  0  0  0  0
  -26.4290  -27.3820   18.7520 C   0  0  0  0  0  3  0  0  0  0  0  0
  -25.1980  -28.0510   18.9060 C   0  0  0  0  0  3  0  0  0  0  0  0
  -23.8380  -29.9780   19.9160 C   0  0  0  0  0  2  0  0  0  0  0  0
  -24.8900  -31.0020   21.9860 N   0  0  0  0  0  0  0  0  0  0  0  0
  -23.7580  -31.7210   23.8170 O   0  0  0  0  0  0  0  0  0  0  0  0
  -23.0870  -29.2180   22.1980 C   0  0  0  0  0  0  0  0  0  0  0  0
  -21.7790  -28.9530   22.0540 N   0  0  0  0  0  0  0  0  0  0  0  0
  -23.8320  -28.5340   22.9060 O   0  0  0  0  0  0  0  0  0  0  0  0
  -21.2350  -29.5640   21.4620 H   0  0  0  0  0  0  0  0  0  0  0  0
  -18.5270  -27.4000   22.3480 C   0  0  0  0  0  0  0  0  0  0  0  0
  -21.0520  -27.8490   22.6800 C   0  0  0  0  0  3  0  0  0  0  0  0
  -21.2830  -26.5260   21.9150 C   0  0  0  0  0  2  0  0  0  0  0  0
  -20.2130  -26.2470   20.8530 C   0  0  0  0  0  2  0  0  0  0  0  0
  -18.8240  -26.1780   21.4960 C   0  0  0  0  0  2  0  0  0  0  0  0
  -19.5730  -28.1930   22.8910 C   0  0  0  0  0  0  0  0  0  0  0  0
  -19.2420  -29.3390   23.6470 C   0  0  0  0  0  3  0  0  0  0  0  0
  -17.8980  -29.6930   23.8670 C   0  0  0  0  0  3  0  0  0  0  0  0
  -16.8670  -28.8950   23.3400 C   0  0  0  0  0  3  0  0  0  0  0  0
  -17.1820  -27.7520   22.5870 C   0  0  0  0  0  3  0  0  0  0  0  0
  -26.1010  -32.2140   23.8820 C   0  0  0  0  0  3  0  0  0  0  0  0
  -25.7500  -33.5580   24.3620 N   0  0  0  0  0  0  0  0  0  0  0  0
  -26.0520  -34.6970   23.7230 C   0  0  0  0  0  0  0  0  0  0  0  0
  -26.7240  -34.7270   22.6890 O   0  0  0  0  0  0  0  0  0  0  0  0
  -25.1520  -33.6060   25.1730 H   0  0  0  0  0  0  0  0  0  0  0  0
  -24.2720  -36.4660   23.5600 C   0  0  0  0  0  1  0  0  0  0  0  0
  -25.5230  -36.0120   24.3280 C   0  0  0  0  0  3  0  0  0  0  0  0
  -27.6290  -36.8640   25.2640 C   0  0  0  0  0  1  0  0  0  0  0  0
  -26.5250  -37.1000   24.3360 N   0  0  0  0  0  0  0  0  0  0  0  0
  -26.0920  -37.9870   24.5770 H   0  0  0  0  0  0  0  0  0  0  0  0
  -26.6580  -31.3290   25.0640 C   0  0  1  0  0  0  0  0  0  0  0  0
  -25.5890  -30.9480   26.1150 C   0  0  0  0  0  1  0  0  0  0  0  0
  -27.2730  -30.0170   24.5210 C   0  0  0  0  0  1  0  0  0  0  0  0
  -27.7940  -32.0830   25.7920 C   0  0  0  0  0  1  0  0  0  0  0  0
  2  1  1  0
  3  1  2  0
  3  5  1  0
  4  6  1  0
  4  2  2  0
  6  3  1  0
  7  8  1  0
  7  4  1  0
  9  8  1  0
  9 18  1  0
 10 16  1  0
 10 18  1  0
 11 16  1  0
 12 13  1  0
 12 11  1  0
 14 13  1  0
 14 23  1  0
 14 15  1  0
 16 15  1  0
 17 10  2  0
 18 19  1  0
 20 21  2  0
 21 40  1  0
 22 21  1  0
 22 25  1  0
 23 24  1  0
 23 20  1  0
 24 22  2  0
 25 26  1  0
 26 27  2  0
 28 31  1  0
 28 27  1  0
 29 28  2  0
 30 29  1  0
 30 25  2  0
 31 32  1  0
 32 37  2  0
 32 33  1  0
 33 34  2  0
 34 35  1  0
 35 39  1  0
 36 35  2  0
 37 36  1  0
 38 37  1  0
 40 41  1  0
 41 44  1  0
 41 43  1  0
 42 40  2  0
 45 20  1  0
 45 46  1  0
 47 45  1  0
 48  6  1  0
 49 48  1  0
 49 50  2  0
 51 53  1  0
 51 50  1  0
 52 63  2  0
 53 58  1  0
 54 62  1  0
 54 64  1  0
 55 61  1  0
 55 57  1  0
 56 62  1  0
 57 56  1  0
 58 57  2  0
 59 60  1  0
 59 53  2  0
 60 55  2  0
 61 54  1  0
 62 52  1  0
 64 66  2  0
 65 64  1  0
 67 65  1  0
 68 77  2  0
 68 73  1  0
 69 65  1  0
 69 73  1  0
 70 69  1  0
 71 72  1  0
 71 70  1  0
 72 68  1  0
 73 74  2  0
 74 75  1  0
 76 75  2  0
 77 76  1  0
 78 52  1  0
 78 79  1  0
 78 88  1  0
 79 82  1  0
 80 84  1  0
 80 79  1  0
 81 80  2  0
 84 83  1  0
 84 86  1  0
 86 87  1  0
 86 85  1  0
 88 91  1  1
 88 89  1  0
 90 88  1  0
M  ISO  4  10 100  18 100  50 101  51 101
M  END
>  <TORSDO>  (13) 
F 22

>  <SCORE>  (13) 
-8.205

>  <name>  (13) 
12

>  <ligand_id>  (13) 
12

>  <original_smiles>  (13) 
[H]c1c([H])c([H])c2c(c1[H])C([H])([H])C([H])([H])C([H])([H])C2([H])N([H])C(=O)C1([H])N(C(=O)C([H])(N([H])C(=O)C([H])(N([H])C([H])([H])[H])C([H])([H])[H])C(C([H])([H])[H])(C([H])([H])[H])C([H])([H])[H])C([H])([H])c2c([H])c(OC([H])([H])C([H])([H])C([H])([H])n3c(C([H])([H])[H])c([H])c([H])c3C([H])([H])C([H])([H])C([H])([H])N([H])C(=O)N3C([H])([H])C([H])([H])C([H])([H])C([H])(n4nc(-c5c([H])c([H])c(Oc6c([H])c([H])c(F)c([H])c6F)c([H])c5[H])c(C(=O)N([H])[H])c4N([H])[H])C3([H])[H])c([H])c([H])c2C1([H])[H]

>  <smiles>  (13) 
[H]c1c([H])c([H])c2c(c1[H])C([H])([H])C([H])([H])C([H])([H])C2([H])N([H])C(=O)C1([H])N(C(=O)C([H])(N([H])C(=O)C([H])(N([H])C([H])([H])[H])C([H])([H])[H])C(C([H])([H])[H])(C([H])([H])[H])C([H])([H])[H])C([H])([H])c2c([H])c(OC([H])([H])C([H])([H])C([H])([H])n3c(C([H])([H])[H])c([H])c([H])c3C([H])([H])C([H])([H])C([H])([H])N([H])C(=O)N3C([H])([H])C([H])([H])C([H])([H])C([H])(n4nc(-c5c([H])c([H])c(Oc6c([H])c([H])c(F)c([H])c6F)c([H])c5[H])c(C(=O)N([H])[H])c4N([H])[H])C3([H])[H])c([H])c([H])c2C1([H])[H]

$$$$
13:0:0
     RDKit          3D

 98106  0  0  1  0  0  0  0  0999 V2000
  -30.8680  -22.4040   20.5550 C   0  0  0  0  0  3  0  0  0  0  0  0
  -28.9070  -21.0640   20.2080 C   0  0  0  0  0  3  0  0  0  0  0  0
  -29.4710  -22.3870   20.3940 C   0  0  0  0  0  0  0  0  0  0  0  0
  -31.6060  -21.1990   20.5600 C   0  0  0  0  0  0  0  0  0  0  0  0
  -29.7240  -19.8590   20.1780 C   0  0  0  0  0  0  0  0  0  0  0  0
  -31.0590  -19.9790   20.3560 N   0  0  0  0  0  0  0  0  0  0  0  0
  -28.6650  -23.7390   20.6540 C   0  0  0  0  0  2  0  0  0  0  0  0
  -28.8850  -25.0570   19.7510 C   0  0  0  0  0  2  0  0  0  0  0  0
  -28.7000  -26.4480   20.2760 O   0  0  0  0  0  0  0  0  0  0  0  0
  -24.7380  -31.7340   23.1670 C   0  0  0  0  0  0  0  0  0  0  0  0
  -27.5310  -27.2240   20.1720 C   0  0  0  0  0  0  0  0  0  0  0  0
  -23.6000  -30.2900   21.5160 C   0  0  0  0  0  3  0  0  0  0  0  0
  -25.1150  -28.7690   20.1150 C   0  0  0  0  0  0  0  0  0  0  0  0
  -26.1290  -30.6800   21.3670 C   0  0  0  0  0  2  0  0  0  0  0  0
  -26.2580  -29.3000   20.7240 C   0  0  0  0  0  0  0  0  0  0  0  0
  -27.4640  -28.5360   20.7440 C   0  0  0  0  0  3  0  0  0  0  0  0
  -26.3640  -26.7420   19.5430 C   0  0  0  0  0  3  0  0  0  0  0  0
  -25.1710  -27.4980   19.5160 C   0  0  0  0  0  3  0  0  0  0  0  0
  -23.8520  -29.6090   20.1430 C   0  0  0  0  0  2  0  0  0  0  0  0
  -24.8400  -30.9220   22.0730 N   0  0  0  0  0  0  0  0  0  0  0  0
  -23.6410  -31.9830   23.6870 O   0  0  0  0  0  0  0  0  0  0  0  0
  -22.9540  -29.2620   22.4750 C   0  0  0  0  0  0  0  0  0  0  0  0
  -21.6410  -29.0250   22.3130 N   0  0  0  0  0  0  0  0  0  0  0  0
  -23.6350  -28.6790   23.3230 O   0  0  0  0  0  0  0  0  0  0  0  0
  -21.1500  -29.5480   21.6020 H   0  0  0  0  0  0  0  0  0  0  0  0
  -18.3030  -27.7020   22.7470 C   0  0  0  0  0  0  0  0  0  0  0  0
  -20.8420  -28.0640   23.0740 C   0  0  0  0  0  3  0  0  0  0  0  0
  -21.0140  -26.6330   22.5130 C   0  0  0  0  0  2  0  0  0  0  0  0
  -19.9510  -26.2590   21.4780 C   0  0  0  0  0  2  0  0  0  0  0  0
  -18.5490  -26.3550   22.0880 C   0  0  0  0  0  2  0  0  0  0  0  0
  -19.3810  -28.5100   23.1960 C   0  0  0  0  0  0  0  0  0  0  0  0
  -19.0990  -29.7680   23.7700 C   0  0  0  0  0  3  0  0  0  0  0  0
  -17.7730  -30.2200   23.9030 C   0  0  0  0  0  3  0  0  0  0  0  0
  -16.7100  -29.4090   23.4710 C   0  0  0  0  0  3  0  0  0  0  0  0
  -16.9740  -28.1520   22.8980 C   0  0  0  0  0  3  0  0  0  0  0  0
  -25.9940  -32.4060   23.8030 C   0  0  0  0  0  3  0  0  0  0  0  0
  -25.6330  -33.7920   24.1380 N   0  0  0  0  0  0  0  0  0  0  0  0
  -25.9300  -34.8610   23.3890 C   0  0  0  0  0  0  0  0  0  0  0  0
  -26.6040  -34.7860   22.3570 O   0  0  0  0  0  0  0  0  0  0  0  0
  -25.0280  -33.9200   24.9370 H   0  0  0  0  0  0  0  0  0  0  0  0
  -24.1470  -36.6000   23.0320 C   0  0  0  0  0  1  0  0  0  0  0  0
  -25.3930  -36.2290   23.8530 C   0  0  0  0  0  3  0  0  0  0  0  0
  -27.4840  -37.1820   24.7180 C   0  0  0  0  0  1  0  0  0  0  0  0
  -26.3920  -37.3160   23.7580 N   0  0  0  0  0  0  0  0  0  0  0  0
  -25.9550  -38.2210   23.9010 H   0  0  0  0  0  0  0  0  0  0  0  0
  -26.5230  -31.6490   25.0830 C   0  0  1  0  0  0  0  0  0  0  0  0
  -25.4230  -31.3580   26.1320 C   0  0  0  0  0  1  0  0  0  0  0  0
  -27.1710  -30.3010   24.6940 C   0  0  0  0  0  1  0  0  0  0  0  0
  -27.6250  -32.4890   25.7720 C   0  0  0  0  0  1  0  0  0  0  0  0
  -33.0810  -21.2110   20.9320 C   0  0  0  0  0  2  0  0  0  0  0  0
  -34.0230  -21.6410   19.7960 C   0  0  0  0  0  2  0  0  0  0  0  0
  -35.5020  -21.5550   20.2260 C   0  0  0  0  0  2  0  0  0  0  0  0
  -37.9550  -21.6200   19.5990 C   0  0  0  0  0  1  0  0  0  0  0  0
  -36.4160  -23.4120   18.7270 C   0  0  0  0  0  1  0  0  0  0  0  0
  -36.5230  -21.9340   19.1330 C   0  0  0  0  0  3  0  0  0  0  0  0
  -29.1680  -18.3500   20.1770 C   0  0  2  0  0  0  0  0  0  0  0  0
  -27.8930  -18.7190   17.9160 C   0  0  0  0  0  1  0  0  0  0  0  0
  -27.8220  -18.3050   19.3980 C   0  0  0  0  0  2  0  0  0  0  0  0
  -30.1050  -17.6640   22.5350 C   0  0  0  0  0  1  0  0  0  0  0  0
  -28.8740  -17.9490   21.6520 C   0  0  0  0  0  2  0  0  0  0  0  0
  -30.1030  -17.1750   19.5470 C   0  0  0  0  0  2  0  0  0  0  0  0
  -29.8840  -15.7560   19.9560 O   0  0  0  0  0  0  0  0  0  0  0  0
  -30.7550  -14.6820   19.5690 C   0  0  0  0  0  0  0  0  0  0  0  0
  -30.5110  -12.3500   18.6680 C   0  0  0  0  0  2  0  0  0  0  0  0
  -29.4360  -12.3980   17.5580 C   0  0  0  0  0  2  0  0  0  0  0  0
  -28.0280  -12.2010   18.1540 C   0  0  0  0  0  2  0  0  0  0  0  0
  -27.7700  -13.1040   19.3930 C   0  0  0  0  0  3  0  0  0  0  0  0
  -28.9460  -13.0650   20.3880 C   0  0  0  0  0  2  0  0  0  0  0  0
  -30.1680  -13.3940   19.6510 N   0  0  0  0  0  0  0  0  0  0  0  0
  -31.8570  -14.8760   19.0540 O   0  0  0  0  0  0  0  0  0  0  0  0
  -25.5270  -13.6410   20.5150 C   0  0  0  0  0  0  0  0  0  0  0  0
  -24.5130  -12.8460   20.9680 C   0  0  0  0  0  0  0  0  0  0  0  0
  -24.9370  -11.4980   20.7480 C   0  0  0  0  0  0  0  0  0  0  0  0
  -26.5050  -12.7810   20.0440 N   0  0  0  0  0  0  0  0  0  0  0  0
  -26.1670  -11.4810   20.2460 N   0  0  0  0  0  0  0  0  0  0  0  0
  -24.2210  -10.2300   20.9300 C   0  0  0  0  0  0  0  0  0  0  0  0
  -24.6660   -9.2540   21.8490 C   0  0  0  0  0  3  0  0  0  0  0  0
  -23.9480   -8.0500   22.0210 C   0  0  0  0  0  3  0  0  0  0  0  0
  -22.7700   -7.8140   21.2720 C   0  0  0  0  0  0  0  0  0  0  0  0
  -22.3430   -8.7790   20.3430 C   0  0  0  0  0  3  0  0  0  0  0  0
  -23.0630   -9.9730   20.1700 C   0  0  0  0  0  3  0  0  0  0  0  0
  -22.0210   -6.6650   21.3540 O   0  0  0  0  0  0  0  0  0  0  0  0
  -21.8560   -5.9960   22.5400 C   0  0  0  0  0  0  0  0  0  0  0  0
  -21.2870   -6.6180   23.6740 C   0  0  0  0  0  3  0  0  0  0  0  0
  -21.0710   -5.8740   24.8510 C   0  0  0  0  0  3  0  0  0  0  0  0
  -21.4150   -4.5090   24.8950 C   0  0  0  0  0  0  0  0  0  0  0  0
  -21.9780   -3.8870   23.7660 C   0  0  0  0  0  3  0  0  0  0  0  0
  -22.1940   -4.6290   22.5910 C   0  0  0  0  0  0  0  0  0  0  0  0
  -22.7160   -4.0200   21.5000 F   0  0  0  0  0  0  0  0  0  0  0  0
  -21.2030   -3.7920   26.0230 F   0  0  0  0  0  0  0  0  0  0  0  0
  -23.1820  -13.3050   21.4870 C   0  0  0  0  0  0  0  0  0  0  0  0
  -22.5960  -12.5620   22.4210 N   0  0  0  0  0  0  0  0  0  0  0  0
  -22.6740  -14.3570   21.1010 O   0  0  0  0  0  0  0  0  0  0  0  0
  -23.0220  -11.7090   22.7520 H   0  0  0  0  0  0  0  0  0  0  0  0
  -21.7110  -12.8510   22.8100 H   0  0  0  0  0  0  0  0  0  0  0  0
  -25.6940  -15.0210   20.4410 N   0  0  0  0  0  0  0  0  0  0  0  0
  -24.9720  -15.6720   20.7320 H   0  0  0  0  0  0  0  0  0  0  0  0
  -26.5070  -15.4750   20.0460 H   0  0  0  0  0  0  0  0  0  0  0  0
  1  4  1  0
  2  3  1  0
  3  1  2  0
  3  7  1  0
  4 50  1  0
  5  2  2  0
  5  6  1  0
  6  4  2  0
  8  9  1  0
  8  7  1  0
 10 21  2  0
 11  9  1  0
 11 16  1  0
 12 20  1  0
 12 22  1  0
 13 19  1  0
 13 15  1  0
 14 20  1  0
 15 16  2  0
 15 14  1  0
 17 11  2  0
 18 17  1  0
 18 13  2  0
 19 12  1  0
 20 10  1  0
 22 24  2  0
 23 22  1  0
 25 23  1  0
 26 35  2  0
 26 31  1  0
 27 23  1  0
 27 31  1  0
 28 27  1  0
 29 30  1  0
 29 28  1  0
 30 26  1  0
 31 32  2  0
 32 33  1  0
 34 33  2  0
 35 34  1  0
 36 10  1  0
 36 37  1  0
 36 46  1  0
 37 40  1  0
 38 42  1  0
 38 37  1  0
 39 38  2  0
 42 41  1  0
 44 42  1  0
 44 45  1  0
 44 43  1  0
 46 49  1  1
 46 47  1  0
 48 46  1  0
 51 52  1  0
 51 50  1  0
 54 55  1  0
 55 53  1  0
 55 52  1  0
 56  5  1  0
 56 60  1  1
 57 58  1  0
 58 56  1  0
 60 59  1  0
 61 62  1  0
 61 56  1  0
 63 69  1  0
 63 62  1  0
 64 69  1  0
 65 66  1  0
 65 64  1  0
 67 66  1  0
 67 74  1  0
 67 68  1  0
 69 68  1  0
 70 63  2  0
 71 72  2  0
 72 91  1  0
 73 76  1  0
 73 72  1  0
 74 75  1  0
 74 71  1  0
 75 73  2  0
 76 77  1  0
 77 78  2  0
 79 82  1  0
 79 78  1  0
 80 79  2  0
 81 80  1  0
 81 76  2  0
 82 83  1  0
 83 88  2  0
 83 84  1  0
 84 85  2  0
 85 86  1  0
 86 90  1  0
 87 86  2  0
 88 87  1  0
 89 88  1  0
 91 92  1  0
 92 94  1  0
 92 95  1  0
 93 91  2  0
 96 71  1  0
 96 97  1  0
 98 96  1  0
M  ISO  4   8 101   9 101  62 100  63 100
M  END
>  <TORSDO>  (14) 
F 27

>  <SCORE>  (14) 
-9.832

>  <name>  (14) 
13

>  <ligand_id>  (14) 
13

>  <original_smiles>  (14) 
[H]c1c([H])c([H])c2c(c1[H])C([H])([H])C([H])([H])C([H])([H])C2([H])N([H])C(=O)C1([H])N(C(=O)C([H])(N([H])C(=O)C([H])(N([H])C([H])([H])[H])C([H])([H])[H])C(C([H])([H])[H])(C([H])([H])[H])C([H])([H])[H])C([H])([H])c2c([H])c(OC([H])([H])C([H])([H])c3c([H])c(C([H])([H])C([H])([H])C([H])([H])C([H])(C([H])([H])[H])C([H])([H])[H])nc(C(C([H])([H])OC(=O)N4C([H])([H])C([H])([H])C([H])([H])C([H])(n5nc(-c6c([H])c([H])c(Oc7c([H])c([H])c(F)c([H])c7F)c([H])c6[H])c(C(=O)N([H])[H])c5N([H])[H])C4([H])[H])(C([H])([H])C([H])([H])[H])C([H])([H])C([H])([H])[H])c3[H])c([H])c([H])c2C1([H])[H]

>  <smiles>  (14) 
[H]c1c([H])c([H])c2c(c1[H])C([H])([H])C([H])([H])C([H])([H])C2([H])N([H])C(=O)C1([H])N(C(=O)C([H])(N([H])C(=O)C([H])(N([H])C([H])([H])[H])C([H])([H])[H])C(C([H])([H])[H])(C([H])([H])[H])C([H])([H])[H])C([H])([H])c2c([H])c(OC([H])([H])C([H])([H])c3c([H])c(C([H])([H])C([H])([H])C([H])([H])C([H])(C([H])([H])[H])C([H])([H])[H])nc(C(C([H])([H])OC(=O)N4C([H])([H])C([H])([H])C([H])([H])C([H])(n5nc(-c6c([H])c([H])c(Oc7c([H])c([H])c(F)c([H])c7F)c([H])c6[H])c(C(=O)N([H])[H])c5N([H])[H])C4([H])[H])(C([H])([H])C([H])([H])[H])C([H])([H])C([H])([H])[H])c3[H])c([H])c([H])c2C1([H])[H]

$$$$
14:0:0
     RDKit          3D

 96104  0  0  1  0  0  0  0  0999 V2000
  -29.9290  -19.8940   19.3410 C   0  0  0  0  0  3  0  0  0  0  0  0
  -30.1950  -21.1850   19.9180 C   0  0  0  0  0  0  0  0  0  0  0  0
  -30.7320  -18.9220   19.9110 C   0  0  0  0  0  0  0  0  0  0  0  0
  -31.0890  -20.9260   20.9320 C   0  0  0  0  0  0  0  0  0  0  0  0
  -31.7350  -21.9050   21.8710 C   0  0  0  0  0  1  0  0  0  0  0  0
  -31.4310  -19.5670   20.9290 N   0  0  0  0  0  0  0  0  0  0  0  0
  -30.1080  -22.8170   17.9630 C   0  0  0  0  0  1  0  0  0  0  0  0
  -29.7450  -22.6020   19.4430 C   0  0  0  0  0  3  0  0  0  0  0  0
  -28.2630  -23.0410   19.7070 C   0  0  0  0  0  2  0  0  0  0  0  0
  -27.9740  -24.3760   20.5080 C   0  0  0  0  0  2  0  0  0  0  0  0
  -28.7710  -25.7190   20.2950 C   0  0  0  0  0  2  0  0  0  0  0  0
  -28.3400  -26.7290   19.3430 O   0  0  0  0  0  0  0  0  0  0  0  0
  -24.5730  -31.6850   23.0150 C   0  0  0  0  0  0  0  0  0  0  0  0
  -27.1810  -27.4570   19.5640 C   0  0  0  0  0  0  0  0  0  0  0  0
  -23.3430  -30.3810   21.3130 C   0  0  0  0  0  3  0  0  0  0  0  0
  -24.7770  -28.9610   19.7510 C   0  0  0  0  0  0  0  0  0  0  0  0
  -25.8620  -30.7800   21.0720 C   0  0  0  0  0  2  0  0  0  0  0  0
  -25.9490  -29.4480   20.3440 C   0  0  0  0  0  0  0  0  0  0  0  0
  -27.1560  -28.7040   20.2480 C   0  0  0  0  0  3  0  0  0  0  0  0
  -25.9910  -27.0010   18.9630 C   0  0  0  0  0  3  0  0  0  0  0  0
  -24.7940  -27.7390   19.0560 C   0  0  0  0  0  3  0  0  0  0  0  0
  -23.5260  -29.8020   19.8850 C   0  0  0  0  0  2  0  0  0  0  0  0
  -24.6130  -30.9620   21.8580 N   0  0  0  0  0  0  0  0  0  0  0  0
  -23.5040  -31.8990   23.6050 O   0  0  0  0  0  0  0  0  0  0  0  0
  -22.7360  -29.2840   22.2180 C   0  0  0  0  0  0  0  0  0  0  0  0
  -21.4080  -29.1010   22.1350 N   0  0  0  0  0  0  0  0  0  0  0  0
  -23.4550  -28.6060   22.9570 O   0  0  0  0  0  0  0  0  0  0  0  0
  -20.8870  -29.7020   21.5130 H   0  0  0  0  0  0  0  0  0  0  0  0
  -18.0630  -27.8540   22.7070 C   0  0  0  0  0  0  0  0  0  0  0  0
  -20.6310  -28.0960   22.8610 C   0  0  0  0  0  3  0  0  0  0  0  0
  -20.7010  -26.7210   22.1560 C   0  0  0  0  0  2  0  0  0  0  0  0
  -19.5460  -26.4860   21.1790 C   0  0  0  0  0  2  0  0  0  0  0  0
  -18.2000  -26.5700   21.9060 C   0  0  0  0  0  2  0  0  0  0  0  0
  -19.2040  -28.5780   23.1430 C   0  0  0  0  0  0  0  0  0  0  0  0
  -19.0210  -29.7810   23.8580 C   0  0  0  0  0  3  0  0  0  0  0  0
  -17.7280  -30.2610   24.1380 C   0  0  0  0  0  3  0  0  0  0  0  0
  -16.6010  -29.5340   23.7160 C   0  0  0  0  0  3  0  0  0  0  0  0
  -16.7700  -28.3310   23.0060 C   0  0  0  0  0  3  0  0  0  0  0  0
  -25.8650  -32.2960   23.6420 C   0  0  0  0  0  3  0  0  0  0  0  0
  -25.5230  -33.6300   24.1550 N   0  0  0  0  0  0  0  0  0  0  0  0
  -25.7840  -34.7790   23.5160 C   0  0  0  0  0  0  0  0  0  0  0  0
  -26.4090  -34.8270   22.4530 O   0  0  0  0  0  0  0  0  0  0  0  0
  -24.9650  -33.6650   24.9940 H   0  0  0  0  0  0  0  0  0  0  0  0
  -23.9760  -36.5270   23.4600 C   0  0  0  0  0  1  0  0  0  0  0  0
  -25.2690  -36.0810   24.1600 C   0  0  0  0  0  3  0  0  0  0  0  0
  -27.4060  -36.9540   25.0000 C   0  0  0  0  0  1  0  0  0  0  0  0
  -26.2560  -37.1830   24.1300 N   0  0  0  0  0  0  0  0  0  0  0  0
  -25.8230  -38.0610   24.4010 H   0  0  0  0  0  0  0  0  0  0  0  0
  -26.4860  -31.4030   24.7870 C   0  0  1  0  0  0  0  0  0  0  0  0
  -25.4690  -30.9990   25.8800 C   0  0  0  0  0  1  0  0  0  0  0  0
  -27.0910  -30.1050   24.2010 C   0  0  0  0  0  1  0  0  0  0  0  0
  -27.6480  -32.1620   25.4730 C   0  0  0  0  0  1  0  0  0  0  0  0
  -31.0210  -17.4980   19.4010 C   0  0  0  0  0  2  0  0  0  0  0  0
  -31.3590  -15.1610   20.2190 C   0  0  0  0  0  0  0  0  0  0  0  0
  -31.2470  -12.7690   19.6220 C   0  0  0  0  0  2  0  0  0  0  0  0
  -30.3970  -12.6250   18.3450 C   0  0  0  0  0  2  0  0  0  0  0  0
  -28.9070  -12.4780   18.7060 C   0  0  0  0  0  2  0  0  0  0  0  0
  -28.4290  -13.5310   19.7430 C   0  0  0  0  0  3  0  0  0  0  0  0
  -29.4190  -13.6890   20.9190 C   0  0  0  0  0  2  0  0  0  0  0  0
  -30.7450  -13.9500   20.3510 N   0  0  0  0  0  0  0  0  0  0  0  0
  -32.5540  -15.2380   19.9270 O   0  0  0  0  0  0  0  0  0  0  0  0
  -30.5710  -16.2730   20.1320 N   0  0  0  0  0  0  0  0  0  0  0  0
  -29.5850  -16.1650   20.2950 H   0  0  0  0  0  0  0  0  0  0  0  0
  -26.0200  -14.1290   20.4090 C   0  0  0  0  0  0  0  0  0  0  0  0
  -24.9480  -13.3610   20.7690 C   0  0  0  0  0  0  0  0  0  0  0  0
  -25.4090  -12.0090   20.7560 C   0  0  0  0  0  0  0  0  0  0  0  0
  -27.0690  -13.2500   20.2070 N   0  0  0  0  0  0  0  0  0  0  0  0
  -26.7060  -11.9690   20.4720 N   0  0  0  0  0  0  0  0  0  0  0  0
  -24.6780  -10.7480   20.9360 C   0  0  0  0  0  0  0  0  0  0  0  0
  -24.9510   -9.8800   22.0140 C   0  0  0  0  0  3  0  0  0  0  0  0
  -24.2150   -8.6850   22.1790 C   0  0  0  0  0  3  0  0  0  0  0  0
  -23.1920   -8.3510   21.2590 C   0  0  0  0  0  0  0  0  0  0  0  0
  -22.9390   -9.2080   20.1730 C   0  0  0  0  0  3  0  0  0  0  0  0
  -23.6790  -10.3910   20.0090 C   0  0  0  0  0  3  0  0  0  0  0  0
  -22.4480   -7.1980   21.3190 O   0  0  0  0  0  0  0  0  0  0  0  0
  -21.9940   -6.6950   22.5120 C   0  0  0  0  0  0  0  0  0  0  0  0
  -21.1610   -7.4490   23.3690 C   0  0  0  0  0  3  0  0  0  0  0  0
  -20.6620   -6.8680   24.5530 C   0  0  0  0  0  3  0  0  0  0  0  0
  -20.9840   -5.5370   24.8760 C   0  0  0  0  0  0  0  0  0  0  0  0
  -21.8100   -4.7860   24.0220 C   0  0  0  0  0  3  0  0  0  0  0  0
  -22.3100   -5.3620   22.8410 C   0  0  0  0  0  0  0  0  0  0  0  0
  -23.0880   -4.6260   22.0100 F   0  0  0  0  0  0  0  0  0  0  0  0
  -20.4980   -4.9780   26.0100 F   0  0  0  0  0  0  0  0  0  0  0  0
  -23.5450  -13.8450   21.0100 C   0  0  0  0  0  0  0  0  0  0  0  0
  -22.8040  -13.1680   21.8790 N   0  0  0  0  0  0  0  0  0  0  0  0
  -23.1140  -14.8560   20.4590 O   0  0  0  0  0  0  0  0  0  0  0  0
  -23.1680  -12.3530   22.3500 H   0  0  0  0  0  0  0  0  0  0  0  0
  -21.8640  -13.4760   22.0840 H   0  0  0  0  0  0  0  0  0  0  0  0
  -26.1880  -15.4940   20.2130 N   0  0  0  0  0  0  0  0  0  0  0  0
  -25.4190  -16.1480   20.3000 H   0  0  0  0  0  0  0  0  0  0  0  0
  -27.0380  -15.9250   19.8730 H   0  0  0  0  0  0  0  0  0  0  0  0
  -32.4680  -18.9670   21.7790 C   0  0  0  0  0  2  0  0  0  0  0  0
  -31.9440  -18.2730   23.0610 C   0  0  0  0  0  2  0  0  0  0  0  0
  -29.7530  -17.2000   22.2480 C   0  0  0  0  0  1  0  0  0  0  0  0
  -31.0110  -16.2050   24.1860 C   0  0  0  0  0  1  0  0  0  0  0  0
  -31.1480  -16.9650   22.8550 C   0  0  0  0  0  3  0  0  0  0  0  0
  1  3  2  0
  1  2  1  0
  2  4  2  0
  3  6  1  0
  4  5  1  0
  6  4  1  0
  6 92  1  0
  8  7  1  0
  8  9  1  0
  8  2  1  0
  9 10  1  0
 11 10  1  0
 12 14  1  0
 12 11  1  0
 13 24  2  0
 14 19  1  0
 15 23  1  0
 15 25  1  0
 16 22  1  0
 16 18  1  0
 17 23  1  0
 18 17  1  0
 19 18  2  0
 20 21  1  0
 20 14  2  0
 21 16  2  0
 22 15  1  0
 23 13  1  0
 25 27  2  0
 26 25  1  0
 28 26  1  0
 29 38  2  0
 29 34  1  0
 30 26  1  0
 30 34  1  0
 31 30  1  0
 32 33  1  0
 32 31  1  0
 33 29  1  0
 34 35  2  0
 35 36  1  0
 37 36  2  0
 38 37  1  0
 39 13  1  0
 39 40  1  0
 39 49  1  0
 40 43  1  0
 41 40  1  0
 41 45  1  0
 42 41  2  0
 45 44  1  0
 47 45  1  0
 47 48  1  0
 47 46  1  0
 49 52  1  1
 49 50  1  0
 51 49  1  0
 53  3  1  0
 53 62  1  0
 54 60  1  0
 55 60  1  0
 56 57  1  0
 56 55  1  0
 58 57  1  0
 58 67  1  0
 58 59  1  0
 60 59  1  0
 61 54  2  0
 62 54  1  0
 62 63  1  0
 64 65  2  0
 65 84  1  0
 66 65  1  0
 66 69  1  0
 67 64  1  0
 67 68  1  0
 68 66  2  0
 69 70  1  0
 70 71  2  0
 72 75  1  0
 72 71  1  0
 73 72  2  0
 74 73  1  0
 74 69  2  0
 75 76  1  0
 76 81  2  0
 76 77  1  0
 77 78  2  0
 78 79  1  0
 79 83  1  0
 80 79  2  0
 81 80  1  0
 82 81  1  0
 84 85  1  0
 85 88  1  0
 85 87  1  0
 86 84  2  0
 89 90  1  0
 89 64  1  0
 91 89  1  0
 92 93  1  0
 94 96  1  0
 96 93  1  0
 96 95  1  0
M  ISO  4  11 101  12 101  54 100  62 100
M  END
>  <TORSDO>  (15) 
F 24

>  <SCORE>  (15) 
-5.997

>  <name>  (15) 
14

>  <ligand_id>  (15) 
14

>  <original_smiles>  (15) 
[H]c1c([H])c([H])c2c(c1[H])C([H])([H])C([H])([H])C([H])([H])C2([H])N([H])C(=O)C1([H])N(C(=O)C([H])(N([H])C(=O)C([H])(N([H])C([H])([H])[H])C([H])([H])[H])C(C([H])([H])[H])(C([H])([H])[H])C([H])([H])[H])C([H])([H])c2c([H])c(OC([H])([H])C([H])([H])C([H])([H])C([H])(c3c([H])c(C([H])([H])N([H])C(=O)N4C([H])([H])C([H])([H])C([H])([H])C([H])(n5nc(-c6c([H])c([H])c(Oc7c([H])c([H])c(F)c([H])c7F)c([H])c6[H])c(C(=O)N([H])[H])c5N([H])[H])C4([H])[H])n(C([H])([H])C([H])([H])C([H])(C([H])([H])[H])C([H])([H])[H])c3C([H])([H])[H])C([H])([H])[H])c([H])c([H])c2C1([H])[H]

>  <smiles>  (15) 
[H]c1c([H])c([H])c2c(c1[H])C([H])([H])C([H])([H])C([H])([H])C2([H])N([H])C(=O)C1([H])N(C(=O)C([H])(N([H])C(=O)C([H])(N([H])C([H])([H])[H])C([H])([H])[H])C(C([H])([H])[H])(C([H])([H])[H])C([H])([H])[H])C([H])([H])c2c([H])c(OC([H])([H])C([H])([H])C([H])([H])C([H])(c3c([H])c(C([H])([H])N([H])C(=O)N4C([H])([H])C([H])([H])C([H])([H])C([H])(n5nc(-c6c([H])c([H])c(Oc7c([H])c([H])c(F)c([H])c7F)c([H])c6[H])c(C(=O)N([H])[H])c5N([H])[H])C4([H])[H])n(C([H])([H])C([H])([H])C([H])(C([H])([H])[H])C([H])([H])[H])c3C([H])([H])[H])C([H])([H])[H])c([H])c([H])c2C1([H])[H]

$$$$
15:0:0
     RDKit          3D

 98106  0  0  1  0  0  0  0  0999 V2000
  -31.1510  -23.5150   20.7720 C   0  0  0  0  0  3  0  0  0  0  0  0
  -31.9710  -22.3600   20.7750 C   0  0  0  0  0  0  0  0  0  0  0  0
  -29.8280  -23.1750   20.8920 C   0  0  0  0  0  0  0  0  0  0  0  0
  -31.1280  -21.2910   20.8930 C   0  0  0  0  0  0  0  0  0  0  0  0
  -31.5110  -19.8380   21.0010 C   0  0  0  0  0  1  0  0  0  0  0  0
  -29.8040  -21.7580   20.8830 N   0  0  0  0  0  0  0  0  0  0  0  0
  -27.4800  -23.7980   21.8560 C   0  0  0  0  0  1  0  0  0  0  0  0
  -28.6450  -24.1680   20.9220 C   0  0  0  0  0  3  0  0  0  0  0  0
  -29.0360  -25.6600   21.2290 C   0  0  0  0  0  2  0  0  0  0  0  0
  -28.6800  -26.5560   20.1650 O   0  0  0  0  0  0  0  0  0  0  0  0
  -24.9360  -31.7070   23.4570 C   0  0  0  0  0  0  0  0  0  0  0  0
  -27.5290  -27.3000   20.2890 C   0  0  0  0  0  0  0  0  0  0  0  0
  -23.7170  -30.3650   21.7750 C   0  0  0  0  0  3  0  0  0  0  0  0
  -25.1550  -28.8340   20.3270 C   0  0  0  0  0  0  0  0  0  0  0  0
  -26.2470  -30.6860   21.5980 C   0  0  0  0  0  2  0  0  0  0  0  0
  -26.3150  -29.3240   20.9410 C   0  0  0  0  0  0  0  0  0  0  0  0
  -27.5060  -28.5590   20.9320 C   0  0  0  0  0  3  0  0  0  0  0  0
  -26.3600  -26.8300   19.6580 C   0  0  0  0  0  3  0  0  0  0  0  0
  -25.1690  -27.5820   19.6890 C   0  0  0  0  0  3  0  0  0  0  0  0
  -23.9250  -29.7110   20.3820 C   0  0  0  0  0  2  0  0  0  0  0  0
  -24.9840  -30.9340   22.3350 N   0  0  0  0  0  0  0  0  0  0  0  0
  -23.8570  -31.9820   23.9990 O   0  0  0  0  0  0  0  0  0  0  0  0
  -23.0440  -29.3310   22.7080 C   0  0  0  0  0  0  0  0  0  0  0  0
  -21.7370  -29.0980   22.5040 N   0  0  0  0  0  0  0  0  0  0  0  0
  -23.6980  -28.7400   23.5710 O   0  0  0  0  0  0  0  0  0  0  0  0
  -21.2710  -29.6290   21.7810 H   0  0  0  0  0  0  0  0  0  0  0  0
  -18.4040  -27.7290   22.7580 C   0  0  0  0  0  0  0  0  0  0  0  0
  -20.9110  -28.1370   23.2340 C   0  0  0  0  0  3  0  0  0  0  0  0
  -21.1390  -26.6980   22.7170 C   0  0  0  0  0  2  0  0  0  0  0  0
  -20.1460  -26.2850   21.6260 C   0  0  0  0  0  2  0  0  0  0  0  0
  -18.7080  -26.3720   22.1470 C   0  0  0  0  0  2  0  0  0  0  0  0
  -19.4390  -28.5650   23.2540 C   0  0  0  0  0  0  0  0  0  0  0  0
  -19.1030  -29.8300   23.7800 C   0  0  0  0  0  3  0  0  0  0  0  0
  -17.7650  -30.2630   23.8200 C   0  0  0  0  0  3  0  0  0  0  0  0
  -16.7430  -29.4260   23.3410 C   0  0  0  0  0  3  0  0  0  0  0  0
  -17.0620  -28.1620   22.8150 C   0  0  0  0  0  3  0  0  0  0  0  0
  -26.2300  -32.3020   24.0970 C   0  0  0  0  0  3  0  0  0  0  0  0
  -25.9740  -33.7200   24.3730 N   0  0  0  0  0  0  0  0  0  0  0  0
  -26.3770  -34.7320   23.5940 C   0  0  0  0  0  0  0  0  0  0  0  0
  -27.0740  -34.5660   22.5890 O   0  0  0  0  0  0  0  0  0  0  0  0
  -25.3590  -33.9260   25.1470 H   0  0  0  0  0  0  0  0  0  0  0  0
  -24.7470  -36.5890   23.1190 C   0  0  0  0  0  1  0  0  0  0  0  0
  -25.9360  -36.1550   23.9900 C   0  0  0  0  0  3  0  0  0  0  0  0
  -28.0710  -36.9750   24.8830 C   0  0  0  0  0  1  0  0  0  0  0  0
  -27.0200  -37.1560   23.8860 N   0  0  0  0  0  0  0  0  0  0  0  0
  -26.6490  -38.0980   23.9820 H   0  0  0  0  0  0  0  0  0  0  0  0
  -26.6770  -31.5480   25.4100 C   0  0  1  0  0  0  0  0  0  0  0  0
  -25.5430  -31.3730   26.4460 C   0  0  0  0  0  1  0  0  0  0  0  0
  -27.2260  -30.1420   25.0700 C   0  0  0  0  0  1  0  0  0  0  0  0
  -27.8300  -32.3210   26.0900 C   0  0  0  0  0  1  0  0  0  0  0  0
  -34.1130  -23.7020   20.3930 C   0  0  0  0  0  1  0  0  0  0  0  0
  -33.4830  -22.3290   20.6600 C   0  0  0  0  0  2  0  0  0  0  0  0
  -28.6460  -20.8470   20.8700 C   0  0  0  0  0  2  0  0  0  0  0  0
  -28.3660  -20.2270   19.4790 C   0  0  0  0  0  2  0  0  0  0  0  0
  -29.9260  -19.6540   17.6820 C   0  0  0  0  0  1  0  0  0  0  0  0
  -29.4300  -19.2730   19.0310 N   0  0  2  0  0  4  0  0  0  0  0  0
  -30.2090  -19.4610   19.6470 H   0  0  0  0  0  0  0  0  0  0  0  0
  -28.1380  -17.5230   20.3540 C   0  0  0  0  0  1  0  0  0  0  0  0
  -29.0830  -17.8060   19.1600 C   0  0  0  0  0  3  0  0  0  0  0  0
  -30.3380  -16.8790   19.2610 C   0  0  0  0  0  2  0  0  0  0  0  0
  -30.8310  -14.4520   19.5820 C   0  0  0  0  0  0  0  0  0  0  0  0
  -30.6540  -12.0600   19.0400 C   0  0  0  0  0  2  0  0  0  0  0  0
  -29.6730  -11.9150   17.8590 C   0  0  0  0  0  2  0  0  0  0  0  0
  -28.2250  -11.7890   18.3750 C   0  0  0  0  0  2  0  0  0  0  0  0
  -27.8570  -12.8900   19.4090 C   0  0  0  0  0  3  0  0  0  0  0  0
  -28.9570  -13.0260   20.4880 C   0  0  0  0  0  2  0  0  0  0  0  0
  -30.2420  -13.2480   19.8040 N   0  0  0  0  0  0  0  0  0  0  0  0
  -31.9340  -14.5740   19.0450 O   0  0  0  0  0  0  0  0  0  0  0  0
  -30.0520  -15.5300   19.7880 N   0  0  0  0  0  0  0  0  0  0  0  0
  -29.1600  -15.3680   20.2280 H   0  0  0  0  0  0  0  0  0  0  0  0
  -25.5550  -13.5590   20.3470 C   0  0  0  0  0  0  0  0  0  0  0  0
  -24.4980  -12.8150   20.7940 C   0  0  0  0  0  0  0  0  0  0  0  0
  -24.9030  -11.4500   20.6880 C   0  0  0  0  0  0  0  0  0  0  0  0
  -26.5420  -12.6480   20.0020 N   0  0  0  0  0  0  0  0  0  0  0  0
  -26.1580  -11.3730   20.2630 N   0  0  0  0  0  0  0  0  0  0  0  0
  -24.1510  -10.2100   20.9130 C   0  0  0  0  0  0  0  0  0  0  0  0
  -24.5370   -9.2800   21.9040 C   0  0  0  0  0  3  0  0  0  0  0  0
  -23.7850   -8.1040   22.1140 C   0  0  0  0  0  3  0  0  0  0  0  0
  -22.6320   -7.8510   21.3320 C   0  0  0  0  0  0  0  0  0  0  0  0
  -22.2680   -8.7660   20.3290 C   0  0  0  0  0  3  0  0  0  0  0  0
  -23.0210   -9.9340   20.1190 C   0  0  0  0  0  3  0  0  0  0  0  0
  -21.8560   -6.7220   21.4480 O   0  0  0  0  0  0  0  0  0  0  0  0
  -21.6590   -6.1050   22.6560 C   0  0  0  0  0  0  0  0  0  0  0  0
  -21.0680   -6.7770   23.7490 C   0  0  0  0  0  3  0  0  0  0  0  0
  -20.8210   -6.0830   24.9500 C   0  0  0  0  0  3  0  0  0  0  0  0
  -21.1520   -4.7200   25.0600 C   0  0  0  0  0  0  0  0  0  0  0  0
  -21.7330   -4.0490   23.9700 C   0  0  0  0  0  3  0  0  0  0  0  0
  -21.9830   -4.7390   22.7710 C   0  0  0  0  0  0  0  0  0  0  0  0
  -22.5240   -4.0810   21.7180 F   0  0  0  0  0  0  0  0  0  0  0  0
  -20.9080   -4.0510   26.2120 F   0  0  0  0  0  0  0  0  0  0  0  0
  -23.1510  -13.3330   21.2070 C   0  0  0  0  0  0  0  0  0  0  0  0
  -22.4840  -12.6460   22.1280 N   0  0  0  0  0  0  0  0  0  0  0  0
  -22.7030  -14.3830   20.7460 O   0  0  0  0  0  0  0  0  0  0  0  0
  -22.8620  -11.7980   22.5250 H   0  0  0  0  0  0  0  0  0  0  0  0
  -21.5820  -12.9750   22.4430 H   0  0  0  0  0  0  0  0  0  0  0  0
  -25.7520  -14.9280   20.1870 N   0  0  0  0  0  0  0  0  0  0  0  0
  -25.0110  -15.5980   20.3600 H   0  0  0  0  0  0  0  0  0  0  0  0
  -26.5760  -15.3460   19.7750 H   0  0  0  0  0  0  0  0  0  0  0  0
  1  2  1  0
  1  3  2  0
  2  4  2  0
  3  8  1  0
  4  5  1  0
  6  3  1  0
  6  4  1  0
  8  9  1  0
  8  7  1  0
 10 12  1  0
 10  9  1  0
 11 22  2  0
 12 17  1  0
 13 21  1  0
 13 23  1  0
 14 20  1  0
 14 16  1  0
 15 21  1  0
 16 15  1  0
 17 16  2  0
 18 19  1  0
 18 12  2  0
 19 14  2  0
 20 13  1  0
 21 11  1  0
 23 25  2  0
 24 23  1  0
 26 24  1  0
 27 36  2  0
 27 32  1  0
 28 24  1  0
 28 32  1  0
 29 28  1  0
 30 31  1  0
 30 29  1  0
 31 27  1  0
 32 33  2  0
 33 34  1  0
 35 34  2  0
 36 35  1  0
 37 11  1  0
 37 38  1  0
 37 47  1  0
 38 41  1  0
 39 43  1  0
 39 38  1  0
 40 39  2  0
 43 42  1  0
 45 46  1  0
 45 43  1  0
 45 44  1  0
 47 50  1  1
 47 48  1  0
 49 47  1  0
 51 52  1  0
 52  2  1  0
 53  6  1  0
 54 53  1  0
 55 56  1  0
 56 59  1  0
 56 54  1  0
 56 57  1  1
 59 60  1  0
 59 58  1  0
 60 69  1  0
 61 69  1  0
 61 67  1  0
 62 67  1  0
 63 64  1  0
 63 62  1  0
 65 64  1  0
 65 74  1  0
 65 66  1  0
 67 66  1  0
 68 61  2  0
 69 70  1  0
 71 72  2  0
 72 91  1  0
 73 72  1  0
 73 76  1  0
 74 75  1  0
 74 71  1  0
 75 73  2  0
 76 77  1  0
 77 78  2  0
 79 82  1  0
 79 78  1  0
 80 79  2  0
 81 80  1  0
 81 76  2  0
 82 83  1  0
 83 88  2  0
 83 84  1  0
 84 85  2  0
 85 86  1  0
 86 90  1  0
 87 86  2  0
 88 87  1  0
 89 88  1  0
 91 92  1  0
 92 95  1  0
 92 94  1  0
 93 91  2  0
 96 71  1  0
 96 97  1  0
 98 96  1  0
M  ISO  4   9 101  10 101  61 100  69 100
M  END
>  <TORSDO>  (16) 
F 24

>  <SCORE>  (16) 
-11.056

>  <name>  (16) 
15

>  <ligand_id>  (16) 
15

>  <original_smiles>  (16) 
[H]c1c([H])c([H])c2c(c1[H])C([H])([H])C([H])([H])C([H])([H])C2([H])N([H])C(=O)C1([H])N(C(=O)C([H])(N([H])C(=O)C([H])(N([H])C([H])([H])[H])C([H])([H])[H])C(C([H])([H])[H])(C([H])([H])[H])C([H])([H])[H])C([H])([H])c2c([H])c(OC([H])([H])C([H])(c3c([H])c(C([H])([H])C([H])([H])[H])c(C([H])([H])[H])n3C([H])([H])C([H])([H])[N+]([H])(C([H])([H])[H])C([H])(C([H])([H])[H])C([H])([H])N([H])C(=O)N3C([H])([H])C([H])([H])C([H])([H])C([H])(n4nc(-c5c([H])c([H])c(Oc6c([H])c([H])c(F)c([H])c6F)c([H])c5[H])c(C(=O)N([H])[H])c4N([H])[H])C3([H])[H])C([H])([H])[H])c([H])c([H])c2C1([H])[H]

>  <smiles>  (16) 
[H]c1c([H])c([H])c2c(c1[H])C([H])([H])C([H])([H])C([H])([H])C2([H])N([H])C(=O)C1([H])N(C(=O)C([H])(N([H])C(=O)C([H])(N([H])C([H])([H])[H])C([H])([H])[H])C(C([H])([H])[H])(C([H])([H])[H])C([H])([H])[H])C([H])([H])c2c([H])c(OC([H])([H])C([H])(c3c([H])c(C([H])([H])C([H])([H])[H])c(C([H])([H])[H])n3C([H])([H])C([H])([H])[N+]([H])(C([H])([H])[H])C([H])(C([H])([H])[H])C([H])([H])N([H])C(=O)N3C([H])([H])C([H])([H])C([H])([H])C([H])(n4nc(-c5c([H])c([H])c(Oc6c([H])c([H])c(F)c([H])c6F)c([H])c5[H])c(C(=O)N([H])[H])c4N([H])[H])C3([H])[H])C([H])([H])[H])c([H])c([H])c2C1([H])[H]

$$$$
16:0:0
     RDKit          3D

 92100  0  0  1  0  0  0  0  0999 V2000
  -29.8900  -20.9330   18.5730 C   0  0  0  0  0  3  0  0  0  0  0  0
  -29.1970  -22.1570   18.7580 C   0  0  0  0  0  0  0  0  0  0  0  0
  -29.2210  -19.7250   18.9060 C   0  0  0  0  0  0  0  0  0  0  0  0
  -27.3740  -20.9640   19.4870 C   0  0  0  0  0  0  0  0  0  0  0  0
  -25.9480  -20.9740   19.9880 C   0  0  0  0  0  1  0  0  0  0  0  0
  -27.9280  -22.1400   19.2150 N   0  0  0  0  0  0  0  0  0  0  0  0
  -27.9510  -19.7740   19.3490 N   0  0  0  0  0  0  0  0  0  0  0  0
  -29.7430  -23.5470   18.3570 C   0  0  0  0  0  2  0  0  0  0  0  0
  -30.1100  -24.5180   19.5260 C   0  0  0  0  0  2  0  0  0  0  0  0
  -29.0600  -25.6010   19.9380 C   0  0  0  0  0  2  0  0  0  0  0  0
  -29.0970  -26.8830   19.2520 O   0  0  0  0  0  0  0  0  0  0  0  0
  -24.6590  -31.2000   22.8400 C   0  0  0  0  0  0  0  0  0  0  0  0
  -27.8880  -27.5540   19.2920 C   0  0  0  0  0  0  0  0  0  0  0  0
  -23.6690  -29.8890   20.9960 C   0  0  0  0  0  3  0  0  0  0  0  0
  -25.3310  -28.7660   19.4130 C   0  0  0  0  0  0  0  0  0  0  0  0
  -26.1310  -30.5920   20.9170 C   0  0  0  0  0  2  0  0  0  0  0  0
  -26.4070  -29.3420   20.1010 C   0  0  0  0  0  0  0  0  0  0  0  0
  -27.6930  -28.7480   20.0360 C   0  0  0  0  0  3  0  0  0  0  0  0
  -26.7970  -27.0090   18.5850 C   0  0  0  0  0  3  0  0  0  0  0  0
  -25.5240  -27.6070   18.6440 C   0  0  0  0  0  3  0  0  0  0  0  0
  -23.9800  -29.4390   19.5460 C   0  0  0  0  0  2  0  0  0  0  0  0
  -24.8350  -30.5710   21.6440 N   0  0  0  0  0  0  0  0  0  0  0  0
  -23.5450  -31.2540   23.3800 O   0  0  0  0  0  0  0  0  0  0  0  0
  -23.1480  -28.6720   21.7940 C   0  0  0  0  0  0  0  0  0  0  0  0
  -21.8580  -28.3440   21.6130 N   0  0  0  0  0  0  0  0  0  0  0  0
  -23.9030  -28.0330   22.5330 O   0  0  0  0  0  0  0  0  0  0  0  0
  -21.3050  -28.9320   21.0050 H   0  0  0  0  0  0  0  0  0  0  0  0
  -18.6550  -26.6930   21.8970 C   0  0  0  0  0  0  0  0  0  0  0  0
  -21.1650  -27.2120   22.2270 C   0  0  0  0  0  3  0  0  0  0  0  0
  -21.4290  -25.9000   21.4520 C   0  0  0  0  0  2  0  0  0  0  0  0
  -20.3680  -25.6030   20.3890 C   0  0  0  0  0  2  0  0  0  0  0  0
  -18.9870  -25.4860   21.0370 C   0  0  0  0  0  2  0  0  0  0  0  0
  -19.6780  -27.5120   22.4450 C   0  0  0  0  0  0  0  0  0  0  0  0
  -19.3170  -28.6410   23.2110 C   0  0  0  0  0  3  0  0  0  0  0  0
  -17.9630  -28.9540   23.4350 C   0  0  0  0  0  3  0  0  0  0  0  0
  -16.9530  -28.1310   22.9050 C   0  0  0  0  0  3  0  0  0  0  0  0
  -17.3000  -27.0030   22.1400 C   0  0  0  0  0  3  0  0  0  0  0  0
  -25.8430  -31.9050   23.5750 C   0  0  0  0  0  3  0  0  0  0  0  0
  -25.3870  -33.2490   23.9600 N   0  0  0  0  0  0  0  0  0  0  0  0
  -25.6680  -34.3700   23.2830 C   0  0  0  0  0  0  0  0  0  0  0  0
  -26.4070  -34.3870   22.2960 O   0  0  0  0  0  0  0  0  0  0  0  0
  -24.7360  -33.3020   24.7280 H   0  0  0  0  0  0  0  0  0  0  0  0
  -23.8000  -36.0100   22.9190 C   0  0  0  0  0  1  0  0  0  0  0  0
  -25.0270  -35.6790   23.7810 C   0  0  0  0  0  3  0  0  0  0  0  0
  -27.0090  -36.7150   24.7930 C   0  0  0  0  0  1  0  0  0  0  0  0
  -25.9580  -36.8260   23.7850 N   0  0  0  0  0  0  0  0  0  0  0  0
  -25.4570  -37.6950   23.9440 H   0  0  0  0  0  0  0  0  0  0  0  0
  -26.3570  -31.1080   24.8350 C   0  0  1  0  0  0  0  0  0  0  0  0
  -25.2340  -30.7060   25.8190 C   0  0  0  0  0  1  0  0  0  0  0  0
  -27.0860  -29.8150   24.3990 C   0  0  0  0  0  1  0  0  0  0  0  0
  -27.3890  -31.9610   25.6090 C   0  0  0  0  0  1  0  0  0  0  0  0
  -29.7890  -18.2940   18.6990 C   0  0  0  0  0  2  0  0  0  0  0  0
  -31.9300  -18.0920   20.0850 C   0  0  0  0  0  1  0  0  0  0  0  0
  -30.4730  -17.6140   19.9440 C   0  0  0  0  0  3  0  0  0  0  0  0
  -31.0910  -15.0740   19.6540 C   0  0  0  0  0  0  0  0  0  0  0  0
  -30.7950  -12.8130   18.7180 C   0  0  0  0  0  2  0  0  0  0  0  0
  -29.7550  -12.8920   17.5820 C   0  0  0  0  0  2  0  0  0  0  0  0
  -28.3250  -12.7620   18.1400 C   0  0  0  0  0  2  0  0  0  0  0  0
  -28.0610  -13.6990   19.3480 C   0  0  0  0  0  3  0  0  0  0  0  0
  -29.1950  -13.5870   20.3910 C   0  0  0  0  0  2  0  0  0  0  0  0
  -30.4660  -13.8650   19.6970 N   0  0  0  0  0  0  0  0  0  0  0  0
  -32.2140  -15.2150   19.1660 O   0  0  0  0  0  0  0  0  0  0  0  0
  -30.3080  -16.1250   20.0000 N   0  0  0  0  0  0  0  0  0  0  0  0
  -29.4100  -15.8340   20.3650 H   0  0  0  0  0  0  0  0  0  0  0  0
  -25.7810  -14.3660   20.3370 C   0  0  0  0  0  0  0  0  0  0  0  0
  -24.7130  -13.6180   20.7500 C   0  0  0  0  0  0  0  0  0  0  0  0
  -25.0930  -12.2540   20.5750 C   0  0  0  0  0  0  0  0  0  0  0  0
  -26.7480  -13.4550   19.9380 N   0  0  0  0  0  0  0  0  0  0  0  0
  -26.3430  -12.1770   20.1400 N   0  0  0  0  0  0  0  0  0  0  0  0
  -24.3220  -11.0160   20.7410 C   0  0  0  0  0  0  0  0  0  0  0  0
  -24.7360  -10.0000   21.6300 C   0  0  0  0  0  3  0  0  0  0  0  0
  -23.9670   -8.8260   21.7830 C   0  0  0  0  0  3  0  0  0  0  0  0
  -22.7700   -8.6610   21.0450 C   0  0  0  0  0  0  0  0  0  0  0  0
  -22.3760   -9.6640   20.1410 C   0  0  0  0  0  3  0  0  0  0  0  0
  -23.1460  -10.8300   19.9860 C   0  0  0  0  0  3  0  0  0  0  0  0
  -21.9730   -7.5430   21.1100 O   0  0  0  0  0  0  0  0  0  0  0  0
  -21.8540   -6.8110   22.2650 C   0  0  0  0  0  0  0  0  0  0  0  0
  -21.3480   -7.3740   23.4570 C   0  0  0  0  0  3  0  0  0  0  0  0
  -21.1740   -6.5660   24.5980 C   0  0  0  0  0  3  0  0  0  0  0  0
  -21.4970   -5.1970   24.5480 C   0  0  0  0  0  0  0  0  0  0  0  0
  -21.9980   -4.6340   23.3600 C   0  0  0  0  0  3  0  0  0  0  0  0
  -22.1720   -5.4390   22.2220 C   0  0  0  0  0  0  0  0  0  0  0  0
  -22.6340   -4.8860   21.0750 F   0  0  0  0  0  0  0  0  0  0  0  0
  -21.3240   -4.4200   25.6430 F   0  0  0  0  0  0  0  0  0  0  0  0
  -23.3740  -14.1390   21.1900 C   0  0  0  0  0  0  0  0  0  0  0  0
  -22.6950  -13.4140   22.0710 N   0  0  0  0  0  0  0  0  0  0  0  0
  -22.9420  -15.2190   20.7910 O   0  0  0  0  0  0  0  0  0  0  0  0
  -23.0590  -12.5370   22.4120 H   0  0  0  0  0  0  0  0  0  0  0  0
  -21.7990  -13.7410   22.4040 H   0  0  0  0  0  0  0  0  0  0  0  0
  -26.0040  -15.7380   20.2490 N   0  0  0  0  0  0  0  0  0  0  0  0
  -25.2870  -16.4100   20.5000 H   0  0  0  0  0  0  0  0  0  0  0  0
  -26.8280  -16.1740   19.8570 H   0  0  0  0  0  0  0  0  0  0  0  0
  1  2  2  0
  1  3  1  0
  2  6  1  0
  3  7  2  0
  4  5  1  0
  6  4  2  0
  7  4  1  0
  8  2  1  0
  8  9  1  0
  9 10  1  0
 11 13  1  0
 11 10  1  0
 12 23  2  0
 13 18  1  0
 14 22  1  0
 14 24  1  0
 15 21  1  0
 15 17  1  0
 16 22  1  0
 17 16  1  0
 18 17  2  0
 19 20  1  0
 19 13  2  0
 20 15  2  0
 21 14  1  0
 22 12  1  0
 24 26  2  0
 25 24  1  0
 27 25  1  0
 28 37  2  0
 28 33  1  0
 29 25  1  0
 29 33  1  0
 30 29  1  0
 31 32  1  0
 31 30  1  0
 32 28  1  0
 33 34  2  0
 34 35  1  0
 36 35  2  0
 37 36  1  0
 38 12  1  0
 38 39  1  0
 38 48  1  0
 39 42  1  0
 40 44  1  0
 40 39  1  0
 41 40  2  0
 44 43  1  0
 44 46  1  0
 46 47  1  0
 46 45  1  0
 48 51  1  1
 48 49  1  0
 50 48  1  0
 52  3  1  0
 52 54  1  0
 54 63  1  0
 54 53  1  0
 55 61  1  0
 55 63  1  0
 56 61  1  0
 57 58  1  0
 57 56  1  0
 59 58  1  0
 59 68  1  0
 59 60  1  0
 61 60  1  0
 62 55  2  0
 63 64  1  0
 65 66  2  0
 66 85  1  0
 67 70  1  0
 67 66  1  0
 68 69  1  0
 68 65  1  0
 69 67  2  0
 70 71  1  0
 71 72  2  0
 73 76  1  0
 73 72  1  0
 74 73  2  0
 75 74  1  0
 75 70  2  0
 76 77  1  0
 77 78  1  0
 78 79  2  0
 80 79  1  0
 80 84  1  0
 81 80  2  0
 82 77  2  0
 82 81  1  0
 83 82  1  0
 85 86  1  0
 86 89  1  0
 86 88  1  0
 87 85  2  0
 90 65  1  0
 90 91  1  0
 92 90  1  0
M  ISO  4  10 101  11 101  55 100  63 100
M  END
>  <TORSDO>  (17) 
F 21

>  <SCORE>  (17) 
-8.492

>  <name>  (17) 
16

>  <ligand_id>  (17) 
16

>  <original_smiles>  (17) 
[H]c1c(C([H])([H])C([H])([H])C([H])([H])Oc2c([H])c([H])c3c(c2[H])C([H])([H])N(C(=O)C([H])(N([H])C(=O)C([H])(N([H])C([H])([H])[H])C([H])([H])[H])C(C([H])([H])[H])(C([H])([H])[H])C([H])([H])[H])C([H])(C(=O)N([H])C2([H])c4c([H])c([H])c([H])c([H])c4C([H])([H])C([H])([H])C2([H])[H])C3([H])[H])nc(C([H])([H])[H])nc1C([H])([H])C([H])(N([H])C(=O)N1C([H])([H])C([H])([H])C([H])([H])C([H])(n2nc(-c3c([H])c([H])c(Oc4c([H])c([H])c(F)c([H])c4F)c([H])c3[H])c(C(=O)N([H])[H])c2N([H])[H])C1([H])[H])C([H])([H])[H]

>  <smiles>  (17) 
[H]c1c(C([H])([H])C([H])([H])C([H])([H])Oc2c([H])c([H])c3c(c2[H])C([H])([H])N(C(=O)C([H])(N([H])C(=O)C([H])(N([H])C([H])([H])[H])C([H])([H])[H])C(C([H])([H])[H])(C([H])([H])[H])C([H])([H])[H])C([H])(C(=O)N([H])C2([H])c4c([H])c([H])c([H])c([H])c4C([H])([H])C([H])([H])C2([H])[H])C3([H])[H])nc(C([H])([H])[H])nc1C([H])([H])C([H])(N([H])C(=O)N1C([H])([H])C([H])([H])C([H])([H])C([H])(n2nc(-c3c([H])c([H])c(Oc4c([H])c([H])c(F)c([H])c4F)c([H])c3[H])c(C(=O)N([H])[H])c2N([H])[H])C1([H])[H])C([H])([H])[H]

$$$$
17:0:0
     RDKit          3D

 94102  0  0  1  0  0  0  0  0999 V2000
  -29.5650  -22.4680   21.8580 C   0  0  0  0  0  3  0  0  0  0  0  0
  -30.7030  -22.1980   22.6220 C   0  0  0  0  0  3  0  0  0  0  0  0
  -29.1170  -21.5800   20.8510 C   0  0  0  0  0  0  0  0  0  0  0  0
  -31.3860  -21.0080   22.3900 C   0  0  0  0  0  0  0  0  0  0  0  0
  -29.9150  -20.3440   20.6680 C   0  0  0  0  0  0  0  0  0  0  0  0
  -30.9910  -20.1290   21.4580 N   0  0  0  0  0  0  0  0  0  0  0  0
  -29.4260  -19.2550   18.3520 C   0  0  0  0  0  1  0  0  0  0  0  0
  -29.7100  -18.9960   19.8370 C   0  0  0  0  0  3  0  0  0  0  0  0
  -30.8340  -17.8140   19.9970 C   0  0  0  0  0  2  0  0  0  0  0  0
  -31.2660  -15.2110   19.9830 C   0  0  0  0  0  0  0  0  0  0  0  0
  -31.1380  -12.8200   19.2780 C   0  0  0  0  0  2  0  0  0  0  0  0
  -30.2010  -12.6970   18.0560 C   0  0  0  0  0  2  0  0  0  0  0  0
  -28.7320  -12.5520   18.5020 C   0  0  0  0  0  2  0  0  0  0  0  0
  -28.3290  -13.5860   19.5870 C   0  0  0  0  0  3  0  0  0  0  0  0
  -29.3830  -13.6750   20.7110 C   0  0  0  0  0  2  0  0  0  0  0  0
  -30.6710  -13.9750   20.0730 N   0  0  0  0  0  0  0  0  0  0  0  0
  -32.4620  -15.3030   19.6950 O   0  0  0  0  0  0  0  0  0  0  0  0
  -30.4550  -16.3310   20.0100 N   0  0  0  0  0  0  0  0  0  0  0  0
  -29.4760  -16.1380   20.1590 H   0  0  0  0  0  0  0  0  0  0  0  0
  -25.9830  -14.2380   20.3960 C   0  0  0  0  0  0  0  0  0  0  0  0
  -24.9010  -13.4920   20.7740 C   0  0  0  0  0  0  0  0  0  0  0  0
  -25.3180  -12.1260   20.6970 C   0  0  0  0  0  0  0  0  0  0  0  0
  -26.9900  -13.3310   20.1090 N   0  0  0  0  0  0  0  0  0  0  0  0
  -26.5970  -12.0540   20.3550 N   0  0  0  0  0  0  0  0  0  0  0  0
  -24.5520  -10.8850   20.8710 C   0  0  0  0  0  0  0  0  0  0  0  0
  -24.9140   -9.9240   21.8410 C   0  0  0  0  0  3  0  0  0  0  0  0
  -24.1520   -8.7470   22.0020 C   0  0  0  0  0  3  0  0  0  0  0  0
  -23.0130   -8.5220   21.1920 C   0  0  0  0  0  0  0  0  0  0  0  0
  -22.6710   -9.4710   20.2120 C   0  0  0  0  0  3  0  0  0  0  0  0
  -23.4340  -10.6390   20.0490 C   0  0  0  0  0  3  0  0  0  0  0  0
  -22.2270   -7.3970   21.2610 O   0  0  0  0  0  0  0  0  0  0  0  0
  -21.9800   -6.7640   22.4530 C   0  0  0  0  0  0  0  0  0  0  0  0
  -21.3620   -7.4280   23.5360 C   0  0  0  0  0  3  0  0  0  0  0  0
  -21.0630   -6.7200   24.7180 C   0  0  0  0  0  3  0  0  0  0  0  0
  -21.3740   -5.3510   24.8160 C   0  0  0  0  0  0  0  0  0  0  0  0
  -21.9830   -4.6870   23.7370 C   0  0  0  0  0  3  0  0  0  0  0  0
  -22.2840   -5.3920   22.5580 C   0  0  0  0  0  0  0  0  0  0  0  0
  -22.8520   -4.7420   21.5150 F   0  0  0  0  0  0  0  0  0  0  0  0
  -21.0800   -4.6680   25.9480 F   0  0  0  0  0  0  0  0  0  0  0  0
  -23.5270  -14.0080   21.0910 C   0  0  0  0  0  0  0  0  0  0  0  0
  -22.8100  -13.3310   21.9810 N   0  0  0  0  0  0  0  0  0  0  0  0
  -23.1020  -15.0440   20.5830 O   0  0  0  0  0  0  0  0  0  0  0  0
  -23.1690  -12.4920   22.4110 H   0  0  0  0  0  0  0  0  0  0  0  0
  -21.8880  -13.6570   22.2350 H   0  0  0  0  0  0  0  0  0  0  0  0
  -26.1900  -15.6060   20.2470 N   0  0  0  0  0  0  0  0  0  0  0  0
  -25.4490  -16.2830   20.3900 H   0  0  0  0  0  0  0  0  0  0  0  0
  -27.0360  -16.0220   19.8770 H   0  0  0  0  0  0  0  0  0  0  0  0
  -27.7870  -22.0940   20.1620 C   0  0  0  0  0  2  0  0  0  0  0  0
  -27.7760  -23.4890   19.3000 C   0  0  0  0  0  2  0  0  0  0  0  0
  -26.8100  -24.7330   19.6460 C   0  0  0  0  0  2  0  0  0  0  0  0
  -27.1540  -26.1470   19.2540 O   0  0  0  0  0  0  0  0  0  0  0  0
  -24.7740  -31.6370   23.3930 C   0  0  0  0  0  0  0  0  0  0  0  0
  -26.2050  -27.1710   19.4800 C   0  0  0  0  0  0  0  0  0  0  0  0
  -23.1610  -30.6380   21.8180 C   0  0  0  0  0  3  0  0  0  0  0  0
  -24.1480  -29.1050   20.0240 C   0  0  0  0  0  0  0  0  0  0  0  0
  -25.6740  -30.6200   21.2830 C   0  0  0  0  0  2  0  0  0  0  0  0
  -25.4520  -29.3370   20.4810 C   0  0  0  0  0  0  0  0  0  0  0  0
  -26.4830  -28.3820   20.2010 C   0  0  0  0  0  3  0  0  0  0  0  0
  -24.8790  -27.0130   19.0130 C   0  0  0  0  0  3  0  0  0  0  0  0
  -23.8670  -27.9500   19.2810 C   0  0  0  0  0  3  0  0  0  0  0  0
  -23.0820  -30.1280   20.3550 C   0  0  0  0  0  2  0  0  0  0  0  0
  -24.5660  -30.9730   22.2200 N   0  0  0  0  0  0  0  0  0  0  0  0
  -23.8290  -31.9880   24.1140 O   0  0  0  0  0  0  0  0  0  0  0  0
  -22.4870  -29.6030   22.7530 C   0  0  0  0  0  0  0  0  0  0  0  0
  -21.1570  -29.4550   22.6340 N   0  0  0  0  0  0  0  0  0  0  0  0
  -23.1610  -28.9410   23.5440 O   0  0  0  0  0  0  0  0  0  0  0  0
  -20.6730  -30.0430   21.9700 H   0  0  0  0  0  0  0  0  0  0  0  0
  -17.8200  -28.0810   22.9170 C   0  0  0  0  0  0  0  0  0  0  0  0
  -20.3280  -28.5090   23.3850 C   0  0  0  0  0  3  0  0  0  0  0  0
  -20.5590  -27.0590   22.9000 C   0  0  0  0  0  2  0  0  0  0  0  0
  -19.5700  -26.6200   21.8180 C   0  0  0  0  0  2  0  0  0  0  0  0
  -18.1310  -26.7110   22.3340 C   0  0  0  0  0  2  0  0  0  0  0  0
  -18.8540  -28.9300   23.3950 C   0  0  0  0  0  0  0  0  0  0  0  0
  -18.5150  -30.2040   23.8990 C   0  0  0  0  0  3  0  0  0  0  0  0
  -17.1740  -30.6340   23.9290 C   0  0  0  0  0  3  0  0  0  0  0  0
  -16.1540  -29.7840   23.4690 C   0  0  0  0  0  3  0  0  0  0  0  0
  -16.4770  -28.5100   22.9690 C   0  0  0  0  0  3  0  0  0  0  0  0
  -26.2110  -32.0100   23.8750 C   0  0  0  0  0  3  0  0  0  0  0  0
  -26.1540  -33.3680   24.4350 N   0  0  0  0  0  0  0  0  0  0  0  0
  -26.6010  -34.4690   23.8160 C   0  0  0  0  0  0  0  0  0  0  0  0
  -27.1730  -34.4340   22.7230 O   0  0  0  0  0  0  0  0  0  0  0  0
  -25.6510  -33.4770   25.3040 H   0  0  0  0  0  0  0  0  0  0  0  0
  -25.1700  -36.5380   23.8920 C   0  0  0  0  0  1  0  0  0  0  0  0
  -26.3770  -35.8230   24.5190 C   0  0  0  0  0  3  0  0  0  0  0  0
  -28.6750  -36.2280   25.2810 C   0  0  0  0  0  1  0  0  0  0  0  0
  -27.5570  -36.7110   24.4740 N   0  0  0  0  0  0  0  0  0  0  0  0
  -27.3170  -37.6450   24.7960 H   0  0  0  0  0  0  0  0  0  0  0  0
  -26.7910  -30.9970   24.9380 C   0  0  1  0  0  0  0  0  0  0  0  0
  -25.8430  -30.7380   26.1330 C   0  0  0  0  0  1  0  0  0  0  0  0
  -27.0990  -29.6310   24.2800 C   0  0  0  0  0  1  0  0  0  0  0  0
  -28.1300  -31.5330   25.4950 C   0  0  0  0  0  1  0  0  0  0  0  0
  -32.6150  -20.6340   23.1960 C   0  0  0  0  0  2  0  0  0  0  0  0
  -35.1520  -20.7610   23.3850 C   0  0  0  0  0  1  0  0  0  0  0  0
  -33.9220  -21.0920   22.5310 C   0  0  0  0  0  2  0  0  0  0  0  0
  1  2  1  0
  3  1  2  0
  4  2  2  0
  4 92  1  0
  5  3  1  0
  5  6  2  0
  6  4  1  0
  8  7  1  0
  8  9  1  0
  8  5  1  0
  9 18  1  0
 10 18  1  0
 10 16  1  0
 11 16  1  0
 12 13  1  0
 12 11  1  0
 14 13  1  0
 14 23  1  0
 14 15  1  0
 16 15  1  0
 17 10  2  0
 18 19  1  0
 20 21  2  0
 21 40  1  0
 22 21  1  0
 22 25  1  0
 23 24  1  0
 23 20  1  0
 24 22  2  0
 25 26  1  0
 26 27  2  0
 28 31  1  0
 28 27  1  0
 29 28  2  0
 30 29  1  0
 30 25  2  0
 31 32  1  0
 32 37  2  0
 32 33  1  0
 33 34  2  0
 34 35  1  0
 35 39  1  0
 36 35  2  0
 37 36  1  0
 38 37  1  0
 40 41  1  0
 41 44  1  0
 41 43  1  0
 42 40  2  0
 45 46  1  0
 45 20  1  0
 47 45  1  0
 48  3  1  0
 49 50  1  0
 49 48  1  0
 51 53  1  0
 51 50  1  0
 52 63  2  0
 53 58  1  0
 54 62  1  0
 54 64  1  0
 55 61  1  0
 55 57  1  0
 56 62  1  0
 57 56  1  0
 58 57  2  0
 59 60  1  0
 59 53  2  0
 60 55  2  0
 61 54  1  0
 62 52  1  0
 64 66  2  0
 65 64  1  0
 67 65  1  0
 68 77  2  0
 68 73  1  0
 69 65  1  0
 69 73  1  0
 70 69  1  0
 71 72  1  0
 71 70  1  0
 72 68  1  0
 73 74  2  0
 74 75  1  0
 76 75  2  0
 77 76  1  0
 78 52  1  0
 78 79  1  0
 78 88  1  0
 79 82  1  0
 80 79  1  0
 80 84  1  0
 81 80  2  0
 84 83  1  0
 86 84  1  0
 86 87  1  0
 86 85  1  0
 88 91  1  1
 88 89  1  0
 90 88  1  0
 94 92  1  0
 94 93  1  0
M  ISO  4  10 100  18 100  50 101  51 101
M  END
>  <TORSDO>  (18) 
F 23

>  <SCORE>  (18) 
-11.544

>  <name>  (18) 
17

>  <ligand_id>  (18) 
17

>  <original_smiles>  (18) 
[H]c1c(C([H])([H])C([H])([H])C([H])([H])[H])nc(C([H])(C([H])([H])[H])C([H])([H])N([H])C(=O)N2C([H])([H])C([H])([H])C([H])([H])C([H])(n3nc(-c4c([H])c([H])c(Oc5c([H])c([H])c(F)c([H])c5F)c([H])c4[H])c(C(=O)N([H])[H])c3N([H])[H])C2([H])[H])c(C([H])([H])C([H])([H])C([H])([H])Oc2c([H])c([H])c3c(c2[H])C([H])([H])N(C(=O)C([H])(N([H])C(=O)C([H])(N([H])C([H])([H])[H])C([H])([H])[H])C(C([H])([H])[H])(C([H])([H])[H])C([H])([H])[H])C([H])(C(=O)N([H])C2([H])c4c([H])c([H])c([H])c([H])c4C([H])([H])C([H])([H])C2([H])[H])C3([H])[H])c1[H]

>  <smiles>  (18) 
[H]c1c(C([H])([H])C([H])([H])C([H])([H])[H])nc(C([H])(C([H])([H])[H])C([H])([H])N([H])C(=O)N2C([H])([H])C([H])([H])C([H])([H])C([H])(n3nc(-c4c([H])c([H])c(Oc5c([H])c([H])c(F)c([H])c5F)c([H])c4[H])c(C(=O)N([H])[H])c3N([H])[H])C2([H])[H])c(C([H])([H])C([H])([H])C([H])([H])Oc2c([H])c([H])c3c(c2[H])C([H])([H])N(C(=O)C([H])(N([H])C(=O)C([H])(N([H])C([H])([H])[H])C([H])([H])[H])C(C([H])([H])[H])(C([H])([H])[H])C([H])([H])[H])C([H])(C(=O)N([H])C2([H])c4c([H])c([H])c([H])c([H])c4C([H])([H])C([H])([H])C2([H])[H])C3([H])[H])c1[H]

$$$$
18:0:0
     RDKit          3D

 98106  0  0  1  0  0  0  0  0999 V2000
  -31.0920  -21.2190   20.9770 C   0  0  0  0  0  2  0  0  0  0  0  0
  -32.1240  -20.3540   20.7430 C   0  0  0  0  0  3  0  0  0  0  0  0
  -31.5960  -19.3700   19.8500 C   0  0  0  0  0  3  0  0  0  0  0  0
  -30.2290  -19.3360   20.0620 C   0  0  0  0  0  3  0  0  0  0  0  0
  -29.9030  -20.7550   20.4370 N   0  0  0  0  0  0  0  0  0  0  0  0
  -33.5710  -21.1190   22.6910 C   0  0  0  0  0  1  0  0  0  0  0  0
  -34.4180  -21.3640   20.3740 C   0  0  0  0  0  1  0  0  0  0  0  0
  -34.1580  -19.0600   21.4700 C   0  0  0  0  0  1  0  0  0  0  0  0
  -33.5540  -20.4740   21.2880 C   0  0  2  0  0  0  0  0  0  0  0  0
  -27.9850  -18.2530   20.3810 C   0  0  0  0  0  1  0  0  0  0  0  0
  -29.1840  -17.6910   18.3280 C   0  0  0  0  0  1  0  0  0  0  0  0
  -29.3930  -17.9560   19.8290 C   0  0  1  0  0  0  0  0  0  0  0  0
  -29.9000  -16.4970   20.5710 C   0  0  0  0  0  2  0  0  0  0  0  0
  -30.4960  -15.0670   19.9630 C   0  0  0  0  0  0  0  0  0  0  0  0
  -30.2830  -12.7410   18.9810 C   0  0  0  0  0  2  0  0  0  0  0  0
  -29.2840  -12.7730   17.8090 C   0  0  0  0  0  2  0  0  0  0  0  0
  -27.8530  -12.5480   18.3230 C   0  0  0  0  0  2  0  0  0  0  0  0
  -27.5330  -13.4010   19.5780 C   0  0  0  0  0  3  0  0  0  0  0  0
  -28.6640  -13.3730   20.6270 C   0  0  0  0  0  2  0  0  0  0  0  0
  -29.8940  -13.8080   19.9500 N   0  0  0  0  0  0  0  0  0  0  0  0
  -31.6290  -15.1040   19.4810 O   0  0  0  0  0  0  0  0  0  0  0  0
  -25.2110  -13.8990   20.5180 C   0  0  0  0  0  0  0  0  0  0  0  0
  -24.1840  -13.0860   20.9170 C   0  0  0  0  0  0  0  0  0  0  0  0
  -24.6540  -11.7480   20.7680 C   0  0  0  0  0  0  0  0  0  0  0  0
  -26.2400  -13.0510   20.1520 N   0  0  0  0  0  0  0  0  0  0  0  0
  -25.9210  -11.7470   20.3650 N   0  0  0  0  0  0  0  0  0  0  0  0
  -23.9490  -10.4680   20.9330 C   0  0  0  0  0  0  0  0  0  0  0  0
  -24.3740   -9.5080   21.8740 C   0  0  0  0  0  3  0  0  0  0  0  0
  -23.6720   -8.2940   22.0290 C   0  0  0  0  0  3  0  0  0  0  0  0
  -22.5270   -8.0320   21.2380 C   0  0  0  0  0  0  0  0  0  0  0  0
  -22.1220   -8.9790   20.2790 C   0  0  0  0  0  3  0  0  0  0  0  0
  -22.8290  -10.1860   20.1280 C   0  0  0  0  0  3  0  0  0  0  0  0
  -21.7960   -6.8710   21.2990 O   0  0  0  0  0  0  0  0  0  0  0  0
  -21.6350   -6.1800   22.4740 C   0  0  0  0  0  0  0  0  0  0  0  0
  -20.9670   -6.7460   23.5800 C   0  0  0  0  0  3  0  0  0  0  0  0
  -20.7610   -5.9800   24.7450 C   0  0  0  0  0  3  0  0  0  0  0  0
  -21.2160   -4.6490   24.8010 C   0  0  0  0  0  0  0  0  0  0  0  0
  -21.8760   -4.0820   23.6970 C   0  0  0  0  0  3  0  0  0  0  0  0
  -22.0830   -4.8450   22.5360 C   0  0  0  0  0  0  0  0  0  0  0  0
  -22.7020   -4.2870   21.4680 F   0  0  0  0  0  0  0  0  0  0  0  0
  -21.0090   -3.9100   25.9150 F   0  0  0  0  0  0  0  0  0  0  0  0
  -22.8090  -13.5280   21.3220 C   0  0  0  0  0  0  0  0  0  0  0  0
  -22.1450  -12.7530   22.1730 N   0  0  0  0  0  0  0  0  0  0  0  0
  -22.3310  -14.5880   20.9220 O   0  0  0  0  0  0  0  0  0  0  0  0
  -22.5550  -11.8990   22.5170 H   0  0  0  0  0  0  0  0  0  0  0  0
  -21.2200  -13.0170   22.4850 H   0  0  0  0  0  0  0  0  0  0  0  0
  -25.3510  -15.2790   20.4150 N   0  0  0  0  0  0  0  0  0  0  0  0
  -24.5900  -15.9230   20.5980 H   0  0  0  0  0  0  0  0  0  0  0  0
  -26.1720  -15.7310   20.0370 H   0  0  0  0  0  0  0  0  0  0  0  0
  -32.4190  -18.4700   18.9200 C   0  0  0  0  0  2  0  0  0  0  0  0
  -32.4270  -18.9550   17.4480 C   0  0  0  0  0  2  0  0  0  0  0  0
  -33.0360  -18.1240   15.0770 C   0  0  0  0  0  1  0  0  0  0  0  0
  -34.8410  -19.0410   16.5900 C   0  0  0  0  0  1  0  0  0  0  0  0
  -33.4990  -18.2790   16.5430 C   0  0  0  0  0  3  0  0  0  0  0  0
  -28.6900  -21.7660   20.4910 C   0  0  0  0  0  2  0  0  0  0  0  0
  -28.9310  -23.4570   20.5380 C   0  0  0  0  0  3  0  0  0  0  0  0
  -27.8260  -24.7070   20.2650 C   0  0  0  0  0  3  0  0  0  0  0  0
  -28.0730  -26.2450   20.3710 O   0  0  0  0  0  0  0  0  0  0  0  0
  -24.5410  -32.0690   23.2080 C   0  0  0  0  0  0  0  0  0  0  0  0
  -27.0130  -27.2260   20.2870 C   0  0  0  0  0  0  0  0  0  0  0  0
  -23.2940  -30.6160   21.6560 C   0  0  0  0  0  3  0  0  0  0  0  0
  -24.6960  -28.9890   20.2380 C   0  0  0  0  0  0  0  0  0  0  0  0
  -25.8420  -30.8640   21.4140 C   0  0  0  0  0  2  0  0  0  0  0  0
  -25.8930  -29.4470   20.8090 C   0  0  0  0  0  0  0  0  0  0  0  0
  -27.0500  -28.5770   20.8170 C   0  0  0  0  0  3  0  0  0  0  0  0
  -25.7840  -26.8630   19.6840 C   0  0  0  0  0  3  0  0  0  0  0  0
  -24.6560  -27.7140   19.6540 C   0  0  0  0  0  3  0  0  0  0  0  0
  -23.4740  -29.8940   20.2930 C   0  0  0  0  0  2  0  0  0  0  0  0
  -24.5800  -31.2070   22.1460 N   0  0  0  0  0  0  0  0  0  0  0  0
  -23.4670  -32.3870   23.7480 O   0  0  0  0  0  0  0  0  0  0  0  0
  -22.6320  -29.6500   22.6710 C   0  0  0  0  0  0  0  0  0  0  0  0
  -21.3160  -29.4150   22.5260 N   0  0  0  0  0  0  0  0  0  0  0  0
  -23.3080  -29.1160   23.5530 O   0  0  0  0  0  0  0  0  0  0  0  0
  -20.8300  -29.9100   21.7910 H   0  0  0  0  0  0  0  0  0  0  0  0
  -17.9760  -28.0790   22.9920 C   0  0  0  0  0  0  0  0  0  0  0  0
  -20.5060  -28.4950   23.3330 C   0  0  0  0  0  3  0  0  0  0  0  0
  -20.7000  -27.0300   22.8770 C   0  0  0  0  0  2  0  0  0  0  0  0
  -19.6570  -26.5730   21.8540 C   0  0  0  0  0  2  0  0  0  0  0  0
  -18.2440  -26.6910   22.4320 C   0  0  0  0  0  2  0  0  0  0  0  0
  -19.0380  -28.9320   23.3970 C   0  0  0  0  0  0  0  0  0  0  0  0
  -18.7320  -30.2250   23.8790 C   0  0  0  0  0  3  0  0  0  0  0  0
  -17.3970  -30.6670   23.9620 C   0  0  0  0  0  3  0  0  0  0  0  0
  -16.3500  -29.8130   23.5690 C   0  0  0  0  0  3  0  0  0  0  0  0
  -16.6400  -28.5220   23.0900 C   0  0  0  0  0  3  0  0  0  0  0  0
  -25.8370  -32.7170   23.7850 C   0  0  0  0  0  3  0  0  0  0  0  0
  -26.3870  -31.9690   25.0620 C   0  0  1  0  0  0  0  0  0  0  0  0
  -25.3100  -31.6950   26.1410 C   0  0  0  0  0  1  0  0  0  0  0  0
  -27.0090  -30.6080   24.6710 C   0  0  0  0  0  1  0  0  0  0  0  0
  -27.5120  -32.8090   25.7130 C   0  0  0  0  0  1  0  0  0  0  0  0
  -25.5240  -34.1180   24.1100 N   0  0  0  0  0  0  0  0  0  0  0  0
  -25.8490  -35.1730   23.3500 C   0  0  0  0  0  0  0  0  0  0  0  0
  -26.5170  -35.0710   22.3160 O   0  0  0  0  0  0  0  0  0  0  0  0
  -24.9160  -34.2680   24.9020 H   0  0  0  0  0  0  0  0  0  0  0  0
  -24.1570  -37.0040   22.9870 C   0  0  0  0  0  1  0  0  0  0  0  0
  -25.3750  -36.5660   23.8140 C   0  0  0  0  0  3  0  0  0  0  0  0
  -27.4930  -37.4310   24.7070 C   0  0  0  0  0  1  0  0  0  0  0  0
  -26.4250  -37.6040   23.7280 N   0  0  0  0  0  0  0  0  0  0  0  0
  -26.0260  -38.5300   23.8530 H   0  0  0  0  0  0  0  0  0  0  0  0
  2  1  1  0
  2  9  1  0
  3 50  1  0
  3  4  1  0
  3  2  1  0
  4 12  1  0
  4  5  1  0
  5 55  1  0
  5  1  1  0
  9  7  1  6
  9  8  1  0
  9  6  1  0
 12 11  1  6
 12 10  1  0
 12 13  1  0
 14 13  1  0
 15 20  1  0
 16 17  1  0
 16 15  1  0
 18 17  1  0
 18 25  1  0
 18 19  1  0
 20 14  1  0
 20 19  1  0
 21 14  2  0
 22 23  2  0
 23 42  1  0
 24 23  1  0
 24 27  1  0
 25 26  1  0
 25 22  1  0
 26 24  2  0
 27 28  1  0
 28 29  2  0
 30 33  1  0
 30 29  1  0
 31 30  2  0
 32 31  1  0
 32 27  2  0
 33 34  1  0
 34 39  2  0
 34 35  1  0
 35 36  2  0
 36 37  1  0
 37 41  1  0
 38 37  2  0
 39 38  1  0
 40 39  1  0
 42 43  1  0
 43 46  1  0
 43 45  1  0
 44 42  2  0
 47 22  1  0
 47 48  1  0
 49 47  1  0
 51 50  1  0
 52 54  1  0
 54 53  1  0
 54 51  1  0
 55 56  1  0
 57 58  1  0
 57 56  2  0
 59 70  2  0
 60 58  1  0
 60 65  1  0
 61 69  1  0
 61 71  1  0
 62 68  1  0
 62 64  1  0
 63 69  1  0
 64 65  2  0
 64 63  1  0
 66 60  2  0
 67 66  1  0
 67 62  2  0
 68 61  1  0
 69 59  1  0
 71 73  2  0
 72 71  1  0
 74 72  1  0
 75 84  2  0
 75 80  1  0
 76 72  1  0
 76 80  1  0
 77 76  1  0
 78 79  1  0
 78 77  1  0
 79 75  1  0
 80 81  2  0
 81 82  1  0
 83 82  2  0
 84 83  1  0
 85 59  1  0
 85 90  1  0
 85 86  1  0
 86 89  1  1
 86 87  1  0
 88 86  1  0
 90 93  1  0
 91 95  1  0
 91 90  1  0
 92 91  2  0
 95 94  1  0
 97 95  1  0
 97 98  1  0
 97 96  1  0
M  ISO  4  13 100  14 100  57 101  58 101
M  END
>  <TORSDO>  (19) 
F 25

>  <SCORE>  (19) 
-13.030

>  <name>  (19) 
18

>  <ligand_id>  (19) 
18

>  <original_smiles>  (19) 
[H]c1c([H])c([H])c2c(c1[H])C([H])([H])C([H])([H])C([H])([H])C2([H])N([H])C(=O)C1([H])N(C(=O)C([H])(N([H])C(=O)C([H])(N([H])C([H])([H])[H])C([H])([H])[H])C(C([H])([H])[H])(C([H])([H])[H])C([H])([H])[H])C([H])([H])c2c([H])c(OC([H])([H])C([H])([H])C([H])([H])n3c([H])c(C(C([H])([H])[H])(C([H])([H])[H])C([H])([H])[H])c(C([H])([H])C([H])([H])C([H])(C([H])([H])[H])C([H])([H])[H])c3C(C([H])([H])[H])(C([H])([H])[H])C([H])([H])C(=O)N3C([H])([H])C([H])([H])C([H])([H])C([H])(n4nc(-c5c([H])c([H])c(Oc6c([H])c([H])c(F)c([H])c6F)c([H])c5[H])c(C(=O)N([H])[H])c4N([H])[H])C3([H])[H])c([H])c([H])c2C1([H])[H]

>  <smiles>  (19) 
[H]c1c([H])c([H])c2c(c1[H])C([H])([H])C([H])([H])C([H])([H])C2([H])N([H])C(=O)C1([H])N(C(=O)C([H])(N([H])C(=O)C([H])(N([H])C([H])([H])[H])C([H])([H])[H])C(C([H])([H])[H])(C([H])([H])[H])C([H])([H])[H])C([H])([H])c2c([H])c(OC([H])([H])C([H])([H])C([H])([H])n3c([H])c(C(C([H])([H])[H])(C([H])([H])[H])C([H])([H])[H])c(C([H])([H])C([H])([H])C([H])(C([H])([H])[H])C([H])([H])[H])c3C(C([H])([H])[H])(C([H])([H])[H])C([H])([H])C(=O)N3C([H])([H])C([H])([H])C([H])([H])C([H])(n4nc(-c5c([H])c([H])c(Oc6c([H])c([H])c(F)c([H])c6F)c([H])c5[H])c(C(=O)N([H])[H])c4N([H])[H])C3([H])[H])c([H])c([H])c2C1([H])[H]

$$$$
19:0:0
     RDKit          3D

 94102  0  0  1  0  0  0  0  0999 V2000
  -29.3140  -22.4640   19.5630 C   0  0  0  0  0  3  0  0  0  0  0  0
  -29.5370  -23.7260   21.5980 C   0  0  0  0  0  3  0  0  0  0  0  0
  -29.2080  -23.7450   20.2310 C   0  0  0  0  0  0  0  0  0  0  0  0
  -29.7510  -21.2690   20.2440 C   0  0  0  0  0  0  0  0  0  0  0  0
  -29.9530  -22.5240   22.2110 C   0  0  0  0  0  0  0  0  0  0  0  0
  -30.0710  -21.3420   21.5530 N   0  0  0  0  0  0  0  0  0  0  0  0
  -31.7470  -22.0120   23.9320 C   0  0  0  0  0  1  0  0  0  0  0  0
  -29.2790  -21.7330   24.5250 C   0  0  0  0  0  1  0  0  0  0  0  0
  -30.3130  -22.5100   23.6930 C   0  0  0  0  0  3  0  0  0  0  0  0
  -29.6800  -25.4890   18.4050 C   0  0  0  0  0  1  0  0  0  0  0  0
  -28.7290  -25.0950   19.5420 C   0  0  0  0  0  3  0  0  0  0  0  0
  -28.6220  -26.3510   20.3480 O   0  0  0  0  0  0  0  0  0  0  0  0
  -24.9660  -31.5780   23.7400 C   0  0  0  0  0  0  0  0  0  0  0  0
  -27.5340  -27.2490   20.2990 C   0  0  0  0  0  0  0  0  0  0  0  0
  -23.7990  -30.4480   21.8820 C   0  0  0  0  0  3  0  0  0  0  0  0
  -25.2540  -28.9970   20.3580 C   0  0  0  0  0  0  0  0  0  0  0  0
  -26.3580  -30.6400   21.8760 C   0  0  0  0  0  2  0  0  0  0  0  0
  -26.4070  -29.3420   21.0720 C   0  0  0  0  0  0  0  0  0  0  0  0
  -27.5450  -28.4800   21.0350 C   0  0  0  0  0  3  0  0  0  0  0  0
  -26.3520  -26.9600   19.5780 C   0  0  0  0  0  3  0  0  0  0  0  0
  -25.2310  -27.8130   19.6050 C   0  0  0  0  0  3  0  0  0  0  0  0
  -24.0620  -29.9280   20.4450 C   0  0  0  0  0  2  0  0  0  0  0  0
  -25.0580  -30.9000   22.5580 N   0  0  0  0  0  0  0  0  0  0  0  0
  -23.8670  -31.8500   24.2450 O   0  0  0  0  0  0  0  0  0  0  0  0
  -23.0310  -29.3640   22.6770 C   0  0  0  0  0  0  0  0  0  0  0  0
  -21.7070  -29.2770   22.4580 N   0  0  0  0  0  0  0  0  0  0  0  0
  -23.6270  -28.6110   23.4500 O   0  0  0  0  0  0  0  0  0  0  0  0
  -21.2890  -29.9360   21.8170 H   0  0  0  0  0  0  0  0  0  0  0  0
  -18.2510  -28.2220   22.6330 C   0  0  0  0  0  0  0  0  0  0  0  0
  -20.7980  -28.3040   23.0670 C   0  0  0  0  0  3  0  0  0  0  0  0
  -20.8630  -26.9460   22.3300 C   0  0  0  0  0  2  0  0  0  0  0  0
  -19.8080  -26.8080   21.2280 C   0  0  0  0  0  2  0  0  0  0  0  0
  -18.3990  -26.9540   21.8100 C   0  0  0  0  0  2  0  0  0  0  0  0
  -19.3780  -28.8640   23.2100 C   0  0  0  0  0  0  0  0  0  0  0  0
  -19.1880  -30.0590   23.9380 C   0  0  0  0  0  3  0  0  0  0  0  0
  -17.9010  -30.6100   24.0940 C   0  0  0  0  0  3  0  0  0  0  0  0
  -16.7880  -29.9620   23.5330 C   0  0  0  0  0  3  0  0  0  0  0  0
  -16.9630  -28.7700   22.8080 C   0  0  0  0  0  3  0  0  0  0  0  0
  -26.2380  -32.0630   24.5030 C   0  0  0  0  0  3  0  0  0  0  0  0
  -26.0260  -33.4710   24.8680 N   0  0  0  0  0  0  0  0  0  0  0  0
  -26.5260  -34.5160   24.1940 C   0  0  0  0  0  0  0  0  0  0  0  0
  -27.2790  -34.3890   23.2250 O   0  0  0  0  0  0  0  0  0  0  0  0
  -25.3740  -33.6500   25.6160 H   0  0  0  0  0  0  0  0  0  0  0  0
  -25.0230  -36.4860   23.7590 C   0  0  0  0  0  1  0  0  0  0  0  0
  -26.1260  -35.9260   24.6710 C   0  0  0  0  0  3  0  0  0  0  0  0
  -28.2300  -36.5650   25.7660 C   0  0  0  0  0  1  0  0  0  0  0  0
  -27.2600  -36.8750   24.7180 N   0  0  0  0  0  0  0  0  0  0  0  0
  -26.9300  -37.8250   24.8610 H   0  0  0  0  0  0  0  0  0  0  0  0
  -26.5590  -31.2000   25.7850 C   0  0  1  0  0  0  0  0  0  0  0  0
  -25.3580  -31.0460   26.7470 C   0  0  0  0  0  1  0  0  0  0  0  0
  -27.0300  -29.7820   25.3870 C   0  0  0  0  0  1  0  0  0  0  0  0
  -27.7220  -31.8470   26.5730 C   0  0  0  0  0  1  0  0  0  0  0  0
  -30.1250  -19.9020   19.5240 C   0  0  0  0  0  2  0  0  0  0  0  0
  -28.1840  -18.1940   19.5570 C   0  0  0  0  0  1  0  0  0  0  0  0
  -29.6200  -18.4530   20.0350 C   0  0  0  0  0  3  0  0  0  0  0  0
  -30.5640  -17.1940   19.6620 C   0  0  0  0  0  2  0  0  0  0  0  0
  -30.8260  -14.6100   19.6500 C   0  0  0  0  0  0  0  0  0  0  0  0
  -30.5010  -12.3270   18.7070 C   0  0  0  0  0  2  0  0  0  0  0  0
  -29.4750  -12.4030   17.5560 C   0  0  0  0  0  2  0  0  0  0  0  0
  -28.0410  -12.2660   18.0990 C   0  0  0  0  0  2  0  0  0  0  0  0
  -27.7740  -13.1840   19.3220 C   0  0  0  0  0  3  0  0  0  0  0  0
  -28.9130  -13.0990   20.3620 C   0  0  0  0  0  2  0  0  0  0  0  0
  -30.1680  -13.4040   19.6660 N   0  0  0  0  0  0  0  0  0  0  0  0
  -31.9770  -14.6840   19.2130 O   0  0  0  0  0  0  0  0  0  0  0  0
  -30.1110  -15.7610   19.9120 N   0  0  0  0  0  0  0  0  0  0  0  0
  -29.1650  -15.6340   20.2380 H   0  0  0  0  0  0  0  0  0  0  0  0
  -25.4640  -13.8270   20.2360 C   0  0  0  0  0  0  0  0  0  0  0  0
  -24.4160  -13.0770   20.6920 C   0  0  0  0  0  0  0  0  0  0  0  0
  -24.8460  -11.7160   20.6260 C   0  0  0  0  0  0  0  0  0  0  0  0
  -26.4680  -12.9270   19.9180 N   0  0  0  0  0  0  0  0  0  0  0  0
  -26.1070  -11.6510   20.2150 N   0  0  0  0  0  0  0  0  0  0  0  0
  -24.1100  -10.4690   20.8750 C   0  0  0  0  0  0  0  0  0  0  0  0
  -24.5590   -9.5210   21.8200 C   0  0  0  0  0  3  0  0  0  0  0  0
  -23.8230   -8.3390   22.0540 C   0  0  0  0  0  3  0  0  0  0  0  0
  -22.6230   -8.0990   21.3450 C   0  0  0  0  0  0  0  0  0  0  0  0
  -22.1910   -9.0350   20.3890 C   0  0  0  0  0  3  0  0  0  0  0  0
  -22.9280  -10.2080   20.1530 C   0  0  0  0  0  3  0  0  0  0  0  0
  -21.8550   -6.9680   21.4900 O   0  0  0  0  0  0  0  0  0  0  0  0
  -21.7770   -6.3000   22.6850 C   0  0  0  0  0  0  0  0  0  0  0  0
  -21.3270   -6.9330   23.8660 C   0  0  0  0  0  3  0  0  0  0  0  0
  -21.1960   -6.1900   25.0560 C   0  0  0  0  0  3  0  0  0  0  0  0
  -21.5030   -4.8160   25.0670 C   0  0  0  0  0  0  0  0  0  0  0  0
  -21.9460   -4.1840   23.8920 C   0  0  0  0  0  3  0  0  0  0  0  0
  -22.0790   -4.9240   22.7040 C   0  0  0  0  0  0  0  0  0  0  0  0
  -22.4860   -4.3050   21.5700 F   0  0  0  0  0  0  0  0  0  0  0  0
  -21.3700   -4.1010   26.2080 F   0  0  0  0  0  0  0  0  0  0  0  0
  -23.0550  -13.5840   21.0720 C   0  0  0  0  0  0  0  0  0  0  0  0
  -22.3950  -12.9210   22.0140 N   0  0  0  0  0  0  0  0  0  0  0  0
  -22.5900  -14.6050   20.5680 O   0  0  0  0  0  0  0  0  0  0  0  0
  -22.7850  -12.0960   22.4440 H   0  0  0  0  0  0  0  0  0  0  0  0
  -21.4830  -13.2430   22.3110 H   0  0  0  0  0  0  0  0  0  0  0  0
  -25.6380  -15.1950   20.0390 N   0  0  0  0  0  0  0  0  0  0  0  0
  -24.8890  -15.8590   20.2020 H   0  0  0  0  0  0  0  0  0  0  0  0
  -26.4460  -15.6130   19.5970 H   0  0  0  0  0  0  0  0  0  0  0  0
  1  3  2  0
  1  4  1  0
  2  5  2  0
  3  2  1  0
  4  6  2  0
  5  9  1  0
  6  5  1  0
  9  7  1  0
  9  8  1  0
 11 10  1  0
 11  3  1  0
 11 12  1  0
 13 24  2  0
 14 12  1  0
 14 19  1  0
 15 23  1  0
 15 25  1  0
 16 22  1  0
 16 18  1  0
 17 23  1  0
 18 17  1  0
 19 18  2  0
 20 21  1  0
 20 14  2  0
 21 16  2  0
 22 15  1  0
 23 13  1  0
 25 27  2  0
 26 25  1  0
 28 26  1  0
 29 38  2  0
 29 34  1  0
 30 26  1  0
 30 34  1  0
 31 30  1  0
 32 33  1  0
 32 31  1  0
 33 29  1  0
 34 35  2  0
 35 36  1  0
 37 36  2  0
 38 37  1  0
 39 13  1  0
 39 40  1  0
 39 49  1  0
 40 43  1  0
 41 45  1  0
 41 40  1  0
 42 41  2  0
 45 44  1  0
 45 47  1  0
 47 48  1  0
 47 46  1  0
 49 52  1  1
 49 50  1  0
 51 49  1  0
 53 55  1  0
 53  4  1  0
 55 54  1  0
 56 65  1  0
 56 55  1  0
 57 63  1  0
 57 65  1  0
 58 63  1  0
 59 60  1  0
 59 58  1  0
 61 60  1  0
 61 70  1  0
 61 62  1  0
 63 62  1  0
 64 57  2  0
 65 66  1  0
 67 68  2  0
 68 87  1  0
 69 68  1  0
 69 72  1  0
 70 71  1  0
 70 67  1  0
 71 69  2  0
 72 73  1  0
 73 74  2  0
 75 78  1  0
 75 74  1  0
 76 75  2  0
 77 76  1  0
 77 72  2  0
 78 79  1  0
 79 84  2  0
 79 80  1  0
 80 81  2  0
 81 82  1  0
 82 86  1  0
 83 82  2  0
 84 83  1  0
 85 84  1  0
 87 88  1  0
 88 91  1  0
 88 90  1  0
 89 87  2  0
 92 93  1  0
 92 67  1  0
 94 92  1  0
M  ISO  4  11 101  12 101  57 100  65 100
M  END
>  <TORSDO>  (20) 
F 21

>  <SCORE>  (20) 
-11.231

>  <name>  (20) 
19

>  <ligand_id>  (20) 
19

>  <original_smiles>  (20) 
[H]c1c([H])c([H])c2c(c1[H])C([H])([H])C([H])([H])C([H])([H])C2([H])N([H])C(=O)C1([H])N(C(=O)C([H])(N([H])C(=O)C([H])(N([H])C([H])([H])[H])C([H])([H])[H])C(C([H])([H])[H])(C([H])([H])[H])C([H])([H])[H])C([H])([H])c2c([H])c(OC([H])(c3c([H])c(C([H])([H])C([H])(C([H])([H])[H])C([H])([H])N([H])C(=O)N4C([H])([H])C([H])([H])C([H])([H])C([H])(n5nc(-c6c([H])c([H])c(Oc7c([H])c([H])c(F)c([H])c7F)c([H])c6[H])c(C(=O)N([H])[H])c5N([H])[H])C4([H])[H])nc(C([H])(C([H])([H])[H])C([H])([H])[H])c3[H])C([H])([H])[H])c([H])c([H])c2C1([H])[H]

>  <smiles>  (20) 
[H]c1c([H])c([H])c2c(c1[H])C([H])([H])C([H])([H])C([H])([H])C2([H])N([H])C(=O)C1([H])N(C(=O)C([H])(N([H])C(=O)C([H])(N([H])C([H])([H])[H])C([H])([H])[H])C(C([H])([H])[H])(C([H])([H])[H])C([H])([H])[H])C([H])([H])c2c([H])c(OC([H])(c3c([H])c(C([H])([H])C([H])(C([H])([H])[H])C([H])([H])N([H])C(=O)N4C([H])([H])C([H])([H])C([H])([H])C([H])(n5nc(-c6c([H])c([H])c(Oc7c([H])c([H])c(F)c([H])c7F)c([H])c6[H])c(C(=O)N([H])[H])c5N([H])[H])C4([H])[H])nc(C([H])(C([H])([H])[H])C([H])([H])[H])c3[H])C([H])([H])[H])c([H])c([H])c2C1([H])[H]

$$$$
20:0:0
     RDKit          3D

 95103  0  0  1  0  0  0  0  0999 V2000
  -28.1320  -21.8200   19.8600 C   0  0  0  0  0  3  0  0  0  0  0  0
  -28.0860  -20.4020   19.8640 C   0  0  0  0  0  3  0  0  0  0  0  0
  -29.3510  -22.5120   20.0670 C   0  0  0  0  0  0  0  0  0  0  0  0
  -29.2560  -19.6340   20.0620 C   0  0  0  0  0  0  0  0  0  0  0  0
  -30.4880  -21.6560   20.3160 C   0  0  0  0  0  0  0  0  0  0  0  0
  -30.4210  -20.2840   20.2790 N   0  0  0  0  0  0  0  0  0  0  0  0
  -32.3670  -21.5790   22.0270 C   0  0  0  0  0  1  0  0  0  0  0  0
  -32.9120  -21.8120   19.5510 C   0  0  0  0  0  1  0  0  0  0  0  0
  -31.9120  -22.1470   20.6730 C   0  0  1  0  0  0  0  0  0  0  0  0
  -32.0050  -23.4650   20.8340 F   0  0  0  0  0  0  0  0  0  0  0  0
  -30.0950  -24.4970   18.6380 C   0  0  0  0  0  1  0  0  0  0  0  0
  -29.4180  -24.0950   19.9640 C   0  0  0  0  0  3  0  0  0  0  0  0
  -28.0890  -24.9600   20.0670 C   0  0  0  0  0  2  0  0  0  0  0  0
  -28.2610  -26.4310   20.1260 O   0  0  0  0  0  0  0  0  0  0  0  0
  -24.5670  -31.8380   23.1600 C   0  0  0  0  0  0  0  0  0  0  0  0
  -27.1290  -27.2580   20.0990 C   0  0  0  0  0  0  0  0  0  0  0  0
  -23.3460  -30.4560   21.5200 C   0  0  0  0  0  3  0  0  0  0  0  0
  -24.7760  -28.8860   20.1000 C   0  0  0  0  0  0  0  0  0  0  0  0
  -25.8880  -30.7450   21.3350 C   0  0  0  0  0  2  0  0  0  0  0  0
  -25.9520  -29.3670   20.6900 C   0  0  0  0  0  0  0  0  0  0  0  0
  -27.1320  -28.5660   20.6750 C   0  0  0  0  0  3  0  0  0  0  0  0
  -25.9230  -26.8230   19.5000 C   0  0  0  0  0  3  0  0  0  0  0  0
  -24.7640  -27.6190   19.4980 C   0  0  0  0  0  3  0  0  0  0  0  0
  -23.5510  -29.7750   20.1420 C   0  0  0  0  0  2  0  0  0  0  0  0
  -24.6200  -31.0290   22.0630 N   0  0  0  0  0  0  0  0  0  0  0  0
  -23.4870  -32.1320   23.6930 O   0  0  0  0  0  0  0  0  0  0  0  0
  -22.6680  -29.4470   22.4800 C   0  0  0  0  0  0  0  0  0  0  0  0
  -21.3400  -29.2860   22.3500 N   0  0  0  0  0  0  0  0  0  0  0  0
  -23.3370  -28.8150   23.3010 O   0  0  0  0  0  0  0  0  0  0  0  0
  -20.8600  -29.8470   21.6600 H   0  0  0  0  0  0  0  0  0  0  0  0
  -17.9380  -28.1910   22.9000 C   0  0  0  0  0  0  0  0  0  0  0  0
  -20.5090  -28.3610   23.1210 C   0  0  0  0  0  3  0  0  0  0  0  0
  -20.5510  -26.9380   22.5170 C   0  0  0  0  0  2  0  0  0  0  0  0
  -19.4190  -26.6710   21.5200 C   0  0  0  0  0  2  0  0  0  0  0  0
  -18.0550  -26.8500   22.1960 C   0  0  0  0  0  2  0  0  0  0  0  0
  -19.0900  -28.9090   23.3200 C   0  0  0  0  0  0  0  0  0  0  0  0
  -18.9250  -30.1650   23.9410 C   0  0  0  0  0  3  0  0  0  0  0  0
  -17.6410  -30.7060   24.1420 C   0  0  0  0  0  3  0  0  0  0  0  0
  -16.5040  -29.9860   23.7380 C   0  0  0  0  0  3  0  0  0  0  0  0
  -16.6540  -28.7300   23.1230 C   0  0  0  0  0  3  0  0  0  0  0  0
  -25.8580  -32.4550   23.7820 C   0  0  0  0  0  3  0  0  0  0  0  0
  -25.5590  -33.8510   24.1330 N   0  0  0  0  0  0  0  0  0  0  0  0
  -25.8860  -34.9100   23.3800 C   0  0  0  0  0  0  0  0  0  0  0  0
  -26.5390  -34.8150   22.3370 O   0  0  0  0  0  0  0  0  0  0  0  0
  -24.9750  -34.0000   24.9420 H   0  0  0  0  0  0  0  0  0  0  0  0
  -24.1790  -36.7280   23.0530 C   0  0  0  0  0  1  0  0  0  0  0  0
  -25.4130  -36.2960   23.8610 C   0  0  0  0  0  3  0  0  0  0  0  0
  -27.5400  -37.1570   24.7330 C   0  0  0  0  0  1  0  0  0  0  0  0
  -26.4570  -37.3390   23.7690 N   0  0  0  0  0  0  0  0  0  0  0  0
  -26.0590  -38.2630   23.9120 H   0  0  0  0  0  0  0  0  0  0  0  0
  -26.3760  -31.6630   25.0460 C   0  0  1  0  0  0  0  0  0  0  0  0
  -25.2830  -31.4070   26.1110 C   0  0  0  0  0  1  0  0  0  0  0  0
  -26.9600  -30.2920   24.6330 C   0  0  0  0  0  1  0  0  0  0  0  0
  -27.5260  -32.4470   25.7200 C   0  0  0  0  0  1  0  0  0  0  0  0
  -29.5900  -17.8060   18.3270 C   0  0  0  0  0  1  0  0  0  0  0  0
  -29.2550  -18.0760   19.8020 C   0  0  0  0  0  3  0  0  0  0  0  0
  -30.0940  -17.0990   20.7370 C   0  0  0  0  0  2  0  0  0  0  0  0
  -30.5800  -14.5660   20.2760 C   0  0  0  0  0  0  0  0  0  0  0  0
  -30.3660  -12.3320   19.2090 C   0  0  0  0  0  2  0  0  0  0  0  0
  -29.3860  -12.4460   18.0200 C   0  0  0  0  0  2  0  0  0  0  0  0
  -27.9300  -12.2580   18.4910 C   0  0  0  0  0  2  0  0  0  0  0  0
  -27.5910  -13.1150   19.7410 C   0  0  0  0  0  3  0  0  0  0  0  0
  -28.6830  -12.9820   20.8250 C   0  0  0  0  0  2  0  0  0  0  0  0
  -29.9680  -13.3420   20.2070 N   0  0  0  0  0  0  0  0  0  0  0  0
  -31.7340  -14.7350   19.8750 O   0  0  0  0  0  0  0  0  0  0  0  0
  -29.7860  -15.6220   20.6280 N   0  0  0  0  0  0  0  0  0  0  0  0
  -28.8500  -15.3600   20.8950 H   0  0  0  0  0  0  0  0  0  0  0  0
  -25.2140  -13.6710   20.5450 C   0  0  0  0  0  0  0  0  0  0  0  0
  -24.1700  -12.8780   20.9370 C   0  0  0  0  0  0  0  0  0  0  0  0
  -24.6480  -11.5350   20.8690 C   0  0  0  0  0  0  0  0  0  0  0  0
  -26.2610  -12.8090   20.2640 N   0  0  0  0  0  0  0  0  0  0  0  0
  -25.9280  -11.5170   20.5200 N   0  0  0  0  0  0  0  0  0  0  0  0
  -23.9430  -10.2600   21.0600 C   0  0  0  0  0  0  0  0  0  0  0  0
  -24.3620   -9.3240   22.0300 C   0  0  0  0  0  3  0  0  0  0  0  0
  -23.6570   -8.1130   22.2080 C   0  0  0  0  0  3  0  0  0  0  0  0
  -22.5210   -7.8310   21.4140 C   0  0  0  0  0  0  0  0  0  0  0  0
  -22.1230   -8.7560   20.4320 C   0  0  0  0  0  3  0  0  0  0  0  0
  -22.8280   -9.9570   20.2530 C   0  0  0  0  0  3  0  0  0  0  0  0
  -21.7900   -6.6690   21.4980 O   0  0  0  0  0  0  0  0  0  0  0  0
  -21.6730   -5.9770   22.6760 C   0  0  0  0  0  0  0  0  0  0  0  0
  -21.0440   -6.5360   23.8100 C   0  0  0  0  0  3  0  0  0  0  0  0
  -20.8830   -5.7640   24.9780 C   0  0  0  0  0  3  0  0  0  0  0  0
  -21.3410   -4.4330   25.0120 C   0  0  0  0  0  0  0  0  0  0  0  0
  -21.9640   -3.8730   23.8820 C   0  0  0  0  0  3  0  0  0  0  0  0
  -22.1270   -4.6430   22.7170 C   0  0  0  0  0  0  0  0  0  0  0  0
  -22.7070   -4.0920   21.6240 F   0  0  0  0  0  0  0  0  0  0  0  0
  -21.1810   -3.6890   26.1300 F   0  0  0  0  0  0  0  0  0  0  0  0
  -22.7750  -13.3330   21.2580 C   0  0  0  0  0  0  0  0  0  0  0  0
  -22.0790  -12.6070   22.1260 N   0  0  0  0  0  0  0  0  0  0  0  0
  -22.3120  -14.3650   20.7740 O   0  0  0  0  0  0  0  0  0  0  0  0
  -22.4680  -11.7730   22.5390 H   0  0  0  0  0  0  0  0  0  0  0  0
  -21.1440  -12.8910   22.3830 H   0  0  0  0  0  0  0  0  0  0  0  0
  -25.3540  -15.0470   20.3840 N   0  0  0  0  0  0  0  0  0  0  0  0
  -24.5750  -15.6830   20.5180 H   0  0  0  0  0  0  0  0  0  0  0  0
  -26.1720  -15.4990   19.9970 H   0  0  0  0  0  0  0  0  0  0  0  0
  1  2  2  0
  1  3  1  0
  2  4  1  0
  3  5  2  0
  4  6  2  0
  5  9  1  0
  6  5  1  0
  9  8  1  6
  9 10  1  0
  9  7  1  0
 12 11  1  0
 12  3  1  0
 12 13  1  0
 13 14  1  0
 15 26  2  0
 16 14  1  0
 16 21  1  0
 17 25  1  0
 17 27  1  0
 18 24  1  0
 18 20  1  0
 19 25  1  0
 20 19  1  0
 21 20  2  0
 22 16  2  0
 23 22  1  0
 23 18  2  0
 24 17  1  0
 25 15  1  0
 27 29  2  0
 28 27  1  0
 30 28  1  0
 31 40  2  0
 31 36  1  0
 32 28  1  0
 32 36  1  0
 33 32  1  0
 34 35  1  0
 34 33  1  0
 35 31  1  0
 36 37  2  0
 37 38  1  0
 39 38  2  0
 40 39  1  0
 41 15  1  0
 41 42  1  0
 41 51  1  0
 42 45  1  0
 43 47  1  0
 43 42  1  0
 44 43  2  0
 47 46  1  0
 49 47  1  0
 49 50  1  0
 49 48  1  0
 51 54  1  1
 51 52  1  0
 53 51  1  0
 56 55  1  0
 56  4  1  0
 56 57  1  0
 58 66  1  0
 59 64  1  0
 60 61  1  0
 60 59  1  0
 62 61  1  0
 62 71  1  0
 62 63  1  0
 64 58  1  0
 64 63  1  0
 65 58  2  0
 66 57  1  0
 66 67  1  0
 68 69  2  0
 69 88  1  0
 70 69  1  0
 70 73  1  0
 71 72  1  0
 71 68  1  0
 72 70  2  0
 73 74  1  0
 74 75  2  0
 76 79  1  0
 76 75  1  0
 77 76  2  0
 78 77  1  0
 78 73  2  0
 79 80  1  0
 80 85  2  0
 80 81  1  0
 81 82  2  0
 82 83  1  0
 83 87  1  0
 84 83  2  0
 85 84  1  0
 86 85  1  0
 88 89  1  0
 89 92  1  0
 89 91  1  0
 90 88  2  0
 93 94  1  0
 93 68  1  0
 95 93  1  0
M  ISO  4  13 101  14 101  58 100  66 100
M  END
>  <TORSDO>  (21) 
F 21

>  <SCORE>  (21) 
-13.212

>  <name>  (21) 
20

>  <ligand_id>  (21) 
20

>  <original_smiles>  (21) 
[H]c1c(C([H])(C([H])([H])[H])C([H])([H])N([H])C(=O)N2C([H])([H])C([H])([H])C([H])([H])C([H])(n3nc(-c4c([H])c([H])c(Oc5c([H])c([H])c(F)c([H])c5F)c([H])c4[H])c(C(=O)N([H])[H])c3N([H])[H])C2([H])[H])nc(C(F)(C([H])([H])[H])C([H])([H])[H])c(C([H])(C([H])([H])[H])C([H])([H])Oc2c([H])c([H])c3c(c2[H])C([H])([H])N(C(=O)C([H])(N([H])C(=O)C([H])(N([H])C([H])([H])[H])C([H])([H])[H])C(C([H])([H])[H])(C([H])([H])[H])C([H])([H])[H])C([H])(C(=O)N([H])C2([H])c4c([H])c([H])c([H])c([H])c4C([H])([H])C([H])([H])C2([H])[H])C3([H])[H])c1[H]

>  <smiles>  (21) 
[H]c1c(C([H])(C([H])([H])[H])C([H])([H])N([H])C(=O)N2C([H])([H])C([H])([H])C([H])([H])C([H])(n3nc(-c4c([H])c([H])c(Oc5c([H])c([H])c(F)c([H])c5F)c([H])c4[H])c(C(=O)N([H])[H])c3N([H])[H])C2([H])[H])nc(C(F)(C([H])([H])[H])C([H])([H])[H])c(C([H])(C([H])([H])[H])C([H])([H])Oc2c([H])c([H])c3c(c2[H])C([H])([H])N(C(=O)C([H])(N([H])C(=O)C([H])(N([H])C([H])([H])[H])C([H])([H])[H])C(C([H])([H])[H])(C([H])([H])[H])C([H])([H])[H])C([H])(C(=O)N([H])C2([H])c4c([H])c([H])c([H])c([H])c4C([H])([H])C([H])([H])C2([H])[H])C3([H])[H])c1[H]

$$$$
21:0:0
     RDKit          3D

 93101  0  0  1  0  0  0  0  0999 V2000
  -29.9670  -20.0310   20.6120 C   0  0  0  0  0  3  0  0  0  0  0  0
  -28.4320  -18.4090   19.7390 C   0  0  0  0  0  3  0  0  0  0  0  0
  -29.6370  -18.6270   20.4270 C   0  0  0  0  0  0  0  0  0  0  0  0
  -29.1100  -21.1170   20.1650 C   0  0  0  0  0  0  0  0  0  0  0  0
  -27.8930  -20.6920   19.5720 C   0  0  0  0  0  0  0  0  0  0  0  0
  -27.6020  -19.3920   19.3360 N   0  0  0  0  0  0  0  0  0  0  0  0
  -31.9620  -17.5930   20.9370 C   0  0  0  0  0  1  0  0  0  0  0  0
  -30.4360  -17.3840   21.0420 C   0  0  0  0  0  0  0  0  0  0  0  0
  -30.6960  -14.7830   20.4630 C   0  0  0  0  0  0  0  0  0  0  0  0
  -30.4490  -12.5470   19.4040 C   0  0  0  0  0  2  0  0  0  0  0  0
  -29.5430  -12.6520   18.1620 C   0  0  0  0  0  2  0  0  0  0  0  0
  -28.0680  -12.4900   18.5730 C   0  0  0  0  0  2  0  0  0  0  0  0
  -27.6760  -13.3790   19.7840 C   0  0  0  0  0  3  0  0  0  0  0  0
  -28.7060  -13.2690   20.9260 C   0  0  0  0  0  2  0  0  0  0  0  0
  -30.0230  -13.5920   20.3600 N   0  0  0  0  0  0  0  0  0  0  0  0
  -31.8740  -14.8340   20.1060 O   0  0  0  0  0  0  0  0  0  0  0  0
  -29.9860  -15.9280   20.7830 N   0  0  0  0  0  4  0  0  0  0  0  0
  -29.0130  -15.7340   20.9690 H   0  0  0  0  0  0  0  0  0  0  0  0
  -25.2610  -13.9740   20.4240 C   0  0  0  0  0  0  0  0  0  0  0  0
  -24.1900  -13.2020   20.7930 C   0  0  0  0  0  0  0  0  0  0  0  0
  -24.6630  -11.8560   20.8000 C   0  0  0  0  0  0  0  0  0  0  0  0
  -26.3160  -13.0970   20.2400 N   0  0  0  0  0  0  0  0  0  0  0  0
  -25.9610  -11.8180   20.5220 N   0  0  0  0  0  0  0  0  0  0  0  0
  -23.9430  -10.5900   21.0000 C   0  0  0  0  0  0  0  0  0  0  0  0
  -24.3780   -9.6300   21.9400 C   0  0  0  0  0  3  0  0  0  0  0  0
  -23.6520   -8.4350   22.1290 C   0  0  0  0  0  3  0  0  0  0  0  0
  -22.4790   -8.1870   21.3770 C   0  0  0  0  0  0  0  0  0  0  0  0
  -22.0640   -9.1370   20.4270 C   0  0  0  0  0  3  0  0  0  0  0  0
  -22.7910  -10.3250   20.2350 C   0  0  0  0  0  3  0  0  0  0  0  0
  -21.7270   -7.0410   21.4760 O   0  0  0  0  0  0  0  0  0  0  0  0
  -21.7060   -6.2870   22.6240 C   0  0  0  0  0  0  0  0  0  0  0  0
  -21.3300   -6.8370   23.8680 C   0  0  0  0  0  3  0  0  0  0  0  0
  -21.2510   -6.0140   25.0080 C   0  0  0  0  0  3  0  0  0  0  0  0
  -21.5450   -4.6400   24.9060 C   0  0  0  0  0  0  0  0  0  0  0  0
  -21.9130   -4.0890   23.6650 C   0  0  0  0  0  3  0  0  0  0  0  0
  -21.9930   -4.9110   22.5280 C   0  0  0  0  0  0  0  0  0  0  0  0
  -22.3270   -4.3710   21.3320 F   0  0  0  0  0  0  0  0  0  0  0  0
  -21.4670   -3.8450   25.9980 F   0  0  0  0  0  0  0  0  0  0  0  0
  -22.7840  -13.6740   21.0260 C   0  0  0  0  0  0  0  0  0  0  0  0
  -22.0520  -12.9950   21.9020 N   0  0  0  0  0  0  0  0  0  0  0  0
  -22.3460  -14.6800   20.4740 O   0  0  0  0  0  0  0  0  0  0  0  0
  -22.4240  -12.1850   22.3740 H   0  0  0  0  0  0  0  0  0  0  0  0
  -21.1040  -13.2860   22.0970 H   0  0  0  0  0  0  0  0  0  0  0  0
  -25.4200  -15.3380   20.2100 N   0  0  0  0  0  0  0  0  0  0  0  0
  -24.6210  -15.9610   20.1670 H   0  0  0  0  0  0  0  0  0  0  0  0
  -26.2600  -15.7550   19.8320 H   0  0  0  0  0  0  0  0  0  0  0  0
  -29.3700  -22.6450   20.5460 C   0  0  0  0  0  2  0  0  0  0  0  0
  -28.9370  -23.9300   19.6550 C   0  0  0  0  0  2  0  0  0  0  0  0
  -28.4810  -25.2440   20.4530 C   0  0  0  0  0  2  0  0  0  0  0  0
  -28.5000  -26.6010   19.8430 O   0  0  0  0  0  0  0  0  0  0  0  0
  -24.5760  -31.7520   23.0710 C   0  0  0  0  0  0  0  0  0  0  0  0
  -27.3420  -27.3900   19.8830 C   0  0  0  0  0  0  0  0  0  0  0  0
  -23.4230  -30.3750   21.3820 C   0  0  0  0  0  3  0  0  0  0  0  0
  -24.9280  -28.9130   19.9120 C   0  0  0  0  0  0  0  0  0  0  0  0
  -25.9480  -30.7850   21.2110 C   0  0  0  0  0  2  0  0  0  0  0  0
  -26.0770  -29.4310   20.5220 C   0  0  0  0  0  0  0  0  0  0  0  0
  -27.2920  -28.6850   20.4890 C   0  0  0  0  0  3  0  0  0  0  0  0
  -26.1720  -26.9150   19.2570 C   0  0  0  0  0  3  0  0  0  0  0  0
  -24.9780  -27.6660   19.2650 C   0  0  0  0  0  3  0  0  0  0  0  0
  -23.6630  -29.7490   19.9810 C   0  0  0  0  0  2  0  0  0  0  0  0
  -24.6690  -30.9880   21.9450 N   0  0  0  0  0  0  0  0  0  0  0  0
  -23.4860  -31.9770   23.6120 O   0  0  0  0  0  0  0  0  0  0  0  0
  -22.7910  -29.3080   22.3080 C   0  0  0  0  0  0  0  0  0  0  0  0
  -21.4680  -29.1110   22.1860 N   0  0  0  0  0  0  0  0  0  0  0  0
  -23.4910  -28.6550   23.0870 O   0  0  0  0  0  0  0  0  0  0  0  0
  -20.9640  -29.6840   21.5230 H   0  0  0  0  0  0  0  0  0  0  0  0
  -18.1160  -27.8390   22.6720 C   0  0  0  0  0  0  0  0  0  0  0  0
  -20.6740  -28.1250   22.9200 C   0  0  0  0  0  3  0  0  0  0  0  0
  -20.7920  -26.7260   22.2750 C   0  0  0  0  0  2  0  0  0  0  0  0
  -19.6820  -26.4300   21.2640 C   0  0  0  0  0  2  0  0  0  0  0  0
  -18.3030  -26.5280   21.9270 C   0  0  0  0  0  2  0  0  0  0  0  0
  -19.2290  -28.5970   23.1240 C   0  0  0  0  0  0  0  0  0  0  0  0
  -19.0000  -29.8280   23.7730 C   0  0  0  0  0  3  0  0  0  0  0  0
  -17.6890  -30.2950   23.9910 C   0  0  0  0  0  3  0  0  0  0  0  0
  -16.5880  -29.5310   23.5600 C   0  0  0  0  0  3  0  0  0  0  0  0
  -16.8060  -28.3060   22.9040 C   0  0  0  0  0  3  0  0  0  0  0  0
  -25.8370  -32.4020   23.7210 C   0  0  0  0  0  3  0  0  0  0  0  0
  -25.4850  -33.7790   24.0910 N   0  0  0  0  0  0  0  0  0  0  0  0
  -25.7980  -34.8660   23.3730 C   0  0  0  0  0  0  0  0  0  0  0  0
  -26.4820  -34.8160   22.3460 O   0  0  0  0  0  0  0  0  0  0  0  0
  -24.8680  -33.8920   24.8830 H   0  0  0  0  0  0  0  0  0  0  0  0
  -24.0190  -36.6200   23.0740 C   0  0  0  0  0  1  0  0  0  0  0  0
  -25.2720  -36.2250   23.8710 C   0  0  0  0  0  3  0  0  0  0  0  0
  -27.3810  -37.1480   24.7280 C   0  0  0  0  0  1  0  0  0  0  0  0
  -26.2740  -37.3110   23.7900 N   0  0  0  0  0  0  0  0  0  0  0  0
  -25.8410  -38.2140   23.9660 H   0  0  0  0  0  0  0  0  0  0  0  0
  -26.3720  -31.6060   24.9740 C   0  0  1  0  0  0  0  0  0  0  0  0
  -25.2850  -31.3060   26.0320 C   0  0  0  0  0  1  0  0  0  0  0  0
  -26.9900  -30.2550   24.5440 C   0  0  0  0  0  1  0  0  0  0  0  0
  -27.4990  -32.4130   25.6650 C   0  0  0  0  0  1  0  0  0  0  0  0
  -26.6860  -21.6100   19.4210 C   0  0  0  0  0  2  0  0  0  0  0  0
  -24.9660  -22.7550   17.9820 C   0  0  0  0  0  1  0  0  0  0  0  0
  -26.2180  -21.8650   17.9770 C   0  0  0  0  0  2  0  0  0  0  0  0
  2  3  2  0
  3  1  1  0
  3  8  1  0
  4 47  1  0
  4  1  2  0
  5  4  1  0
  6  5  2  0
  6  2  1  0
  7  8  1  0
  9 17  1  0
 10 15  1  0
 11 12  1  0
 11 10  1  0
 13 12  1  0
 13 22  1  0
 13 14  1  0
 15  9  1  0
 15 14  1  0
 16  9  2  0
 17 18  1  0
 17  8  2  0
 19 20  2  0
 20 21  1  0
 20 39  1  0
 21 24  1  0
 22 19  1  0
 22 23  1  0
 23 21  2  0
 24 25  1  0
 25 26  2  0
 27 30  1  0
 27 26  1  0
 28 27  2  0
 29 28  1  0
 29 24  2  0
 30 31  1  0
 31 32  1  0
 32 33  2  0
 34 33  1  0
 34 38  1  0
 35 34  2  0
 36 31  2  0
 36 35  1  0
 37 36  1  0
 39 40  1  0
 40 43  1  0
 40 42  1  0
 41 39  2  0
 44 19  1  0
 45 44  1  0
 46 44  1  0
 48 49  1  0
 48 47  1  0
 50 52  1  0
 50 49  1  0
 51 62  2  0
 52 57  1  0
 53 61  1  0
 53 63  1  0
 54 60  1  0
 54 56  1  0
 55 61  1  0
 56 55  1  0
 57 56  2  0
 58 59  1  0
 58 52  2  0
 59 54  2  0
 60 53  1  0
 61 51  1  0
 63 65  2  0
 64 63  1  0
 66 64  1  0
 67 76  2  0
 67 72  1  0
 68 64  1  0
 68 72  1  0
 69 68  1  0
 70 71  1  0
 70 69  1  0
 71 67  1  0
 72 73  2  0
 73 74  1  0
 75 74  2  0
 76 75  1  0
 77 51  1  0
 77 78  1  0
 77 87  1  0
 78 81  1  0
 79 83  1  0
 79 78  1  0
 80 79  2  0
 83 82  1  0
 85 83  1  0
 85 86  1  0
 85 84  1  0
 87 90  1  1
 87 88  1  0
 89 87  1  0
 91  5  1  0
 93 92  1  0
 93 91  1  0
M  ISO  4   9 100  17 100  49 101  50 101
M  END
>  <TORSDO>  (22) 
F 22

>  <SCORE>  (22) 
-13.048

>  <name>  (22) 
21

>  <ligand_id>  (22) 
21

>  <original_smiles>  (22) 
[H]c1nc(C([H])([H])C([H])([H])C([H])([H])[H])c(C([H])([H])C([H])([H])C([H])([H])Oc2c([H])c([H])c3c(c2[H])C([H])([H])N(C(=O)C([H])(N([H])C(=O)C([H])(N([H])C([H])([H])[H])C([H])([H])[H])C(C([H])([H])[H])(C([H])([H])[H])C([H])([H])[H])C([H])(C(=O)N([H])C2([H])c4c([H])c([H])c([H])c([H])c4C([H])([H])C([H])([H])C2([H])[H])C3([H])[H])c([H])c1C([H])(N([H])C(=O)N1C([H])([H])C([H])([H])C([H])([H])C([H])(n2nc(-c3c([H])c([H])c(Oc4c([H])c([H])c(F)c([H])c4F)c([H])c3[H])c(C(=O)N([H])[H])c2N([H])[H])C1([H])[H])C([H])([H])[H]

>  <smiles>  (22) 
[H]c1nc(C([H])([H])C([H])([H])C([H])([H])[H])c(C([H])([H])C([H])([H])C([H])([H])Oc2c([H])c([H])c3c(c2[H])C([H])([H])N(C(=O)C([H])(N([H])C(=O)C([H])(N([H])C([H])([H])[H])C([H])([H])[H])C(C([H])([H])[H])(C([H])([H])[H])C([H])([H])[H])C([H])(C(=O)N([H])C2([H])c4c([H])c([H])c([H])c([H])c4C([H])([H])C([H])([H])C2([H])[H])C3([H])[H])c([H])c1C([H])(N([H])C(=O)N1C([H])([H])C([H])([H])C([H])([H])C([H])(n2nc(-c3c([H])c([H])c(Oc4c([H])c([H])c(F)c([H])c4F)c([H])c3[H])c(C(=O)N([H])[H])c2N([H])[H])C1([H])[H])C([H])([H])[H]

$$$$
22:0:0
     RDKit          3D

 93101  0  0  1  0  0  0  0  0999 V2000
  -29.7830  -21.1860   21.7740 C   0  0  0  0  0  3  0  0  0  0  0  0
  -29.6170  -22.1850   20.7850 C   0  0  0  0  0  0  0  0  0  0  0  0
  -30.0950  -19.8620   21.3690 C   0  0  0  0  0  0  0  0  0  0  0  0
  -29.8300  -21.7790   19.4440 C   0  0  0  0  0  0  0  0  0  0  0  0
  -29.8220  -22.7560   18.2850 C   0  0  0  0  0  1  0  0  0  0  0  0
  -30.1640  -19.5420   20.0520 N   0  0  0  0  0  0  0  0  0  0  0  0
  -30.0670  -20.4860   19.1100 N   0  0  0  0  0  0  0  0  0  0  0  0
  -30.9220  -19.1630   23.6940 C   0  0  0  0  0  1  0  0  0  0  0  0
  -30.2850  -18.6950   22.3660 C   0  0  0  0  0  3  0  0  0  0  0  0
  -31.1010  -17.4910   21.7860 C   0  0  0  0  0  2  0  0  0  0  0  0
  -30.2780  -16.2090   21.4760 C   0  0  0  0  0  2  0  0  0  0  0  0
  -31.3620  -14.4540   20.0480 C   0  0  0  0  0  0  0  0  0  0  0  0
  -30.9000  -12.3010   18.9560 C   0  0  0  0  0  2  0  0  0  0  0  0
  -29.9540  -12.5560   17.7650 C   0  0  0  0  0  2  0  0  0  0  0  0
  -28.4820  -12.4970   18.2250 C   0  0  0  0  0  2  0  0  0  0  0  0
  -28.2180  -13.3720   19.4850 C   0  0  0  0  0  3  0  0  0  0  0  0
  -29.2830  -13.1080   20.5740 C   0  0  0  0  0  2  0  0  0  0  0  0
  -30.6080  -13.3250   19.9710 N   0  0  0  0  0  0  0  0  0  0  0  0
  -32.5010  -14.5320   19.5840 O   0  0  0  0  0  0  0  0  0  0  0  0
  -30.6780  -15.5980   20.2080 N   0  0  0  0  0  0  0  0  0  0  0  0
  -31.0080  -16.3040   19.5650 H   0  0  0  0  0  0  0  0  0  0  0  0
  -25.8850  -14.1330   20.2520 C   0  0  0  0  0  0  0  0  0  0  0  0
  -24.7810  -13.4290   20.6530 C   0  0  0  0  0  0  0  0  0  0  0  0
  -25.1590  -12.0530   20.6200 C   0  0  0  0  0  0  0  0  0  0  0  0
  -26.8660  -13.1860   19.9990 N   0  0  0  0  0  0  0  0  0  0  0  0
  -26.4340  -11.9300   20.2760 N   0  0  0  0  0  0  0  0  0  0  0  0
  -24.3640  -10.8370   20.8340 C   0  0  0  0  0  0  0  0  0  0  0  0
  -24.7360   -9.8670   21.7930 C   0  0  0  0  0  3  0  0  0  0  0  0
  -23.9440   -8.7150   21.9890 C   0  0  0  0  0  3  0  0  0  0  0  0
  -22.7630   -8.5290   21.2300 C   0  0  0  0  0  0  0  0  0  0  0  0
  -22.4120   -9.4840   20.2620 C   0  0  0  0  0  3  0  0  0  0  0  0
  -23.2050  -10.6260   20.0620 C   0  0  0  0  0  3  0  0  0  0  0  0
  -21.9420   -7.4320   21.3430 O   0  0  0  0  0  0  0  0  0  0  0  0
  -21.8150   -6.7440   22.5240 C   0  0  0  0  0  0  0  0  0  0  0  0
  -21.3850   -7.3750   23.7120 C   0  0  0  0  0  3  0  0  0  0  0  0
  -21.2020   -6.6160   24.8860 C   0  0  0  0  0  3  0  0  0  0  0  0
  -21.4370   -5.2280   24.8710 C   0  0  0  0  0  0  0  0  0  0  0  0
  -21.8580   -4.5970   23.6880 C   0  0  0  0  0  3  0  0  0  0  0  0
  -22.0460   -5.3540   22.5160 C   0  0  0  0  0  0  0  0  0  0  0  0
  -22.4330   -4.7370   21.3730 F   0  0  0  0  0  0  0  0  0  0  0  0
  -21.2530   -4.4960   25.9960 F   0  0  0  0  0  0  0  0  0  0  0  0
  -23.4220  -13.9910   20.9550 C   0  0  0  0  0  0  0  0  0  0  0  0
  -22.6790  -13.3490   21.8510 N   0  0  0  0  0  0  0  0  0  0  0  0
  -23.0290  -15.0320   20.4320 O   0  0  0  0  0  0  0  0  0  0  0  0
  -23.0030  -12.5040   22.2950 H   0  0  0  0  0  0  0  0  0  0  0  0
  -21.7650  -13.7030   22.0910 H   0  0  0  0  0  0  0  0  0  0  0  0
  -26.1290  -15.4900   20.0610 N   0  0  0  0  0  0  0  0  0  0  0  0
  -25.4090  -16.1900   20.1970 H   0  0  0  0  0  0  0  0  0  0  0  0
  -26.9910  -15.8780   19.6940 H   0  0  0  0  0  0  0  0  0  0  0  0
  -29.2430  -23.6240   21.1720 C   0  0  0  0  0  2  0  0  0  0  0  0
  -27.9420  -24.1540   20.5090 C   0  0  0  0  0  2  0  0  0  0  0  0
  -28.1470  -25.2940   19.4800 C   0  0  0  0  0  2  0  0  0  0  0  0
  -28.1010  -26.6010   20.0660 O   0  0  0  0  0  0  0  0  0  0  0  0
  -24.5090  -31.8470   23.2570 C   0  0  0  0  0  0  0  0  0  0  0  0
  -26.9160  -27.3150   20.0990 C   0  0  0  0  0  0  0  0  0  0  0  0
  -23.2090  -30.4800   21.6600 C   0  0  0  0  0  3  0  0  0  0  0  0
  -24.5620  -28.8920   20.1970 C   0  0  0  0  0  0  0  0  0  0  0  0
  -25.7370  -30.7570   21.3770 C   0  0  0  0  0  2  0  0  0  0  0  0
  -25.7560  -29.3830   20.7370 C   0  0  0  0  0  0  0  0  0  0  0  0
  -26.9330  -28.6040   20.6820 C   0  0  0  0  0  3  0  0  0  0  0  0
  -25.6920  -26.8280   19.5800 C   0  0  0  0  0  3  0  0  0  0  0  0
  -24.5240  -27.6110   19.6240 C   0  0  0  0  0  3  0  0  0  0  0  0
  -23.3500  -29.7930   20.2760 C   0  0  0  0  0  2  0  0  0  0  0  0
  -24.5060  -31.0430   22.1550 N   0  0  0  0  0  0  0  0  0  0  0  0
  -23.4540  -32.1550   23.8290 O   0  0  0  0  0  0  0  0  0  0  0  0
  -22.5550  -29.4830   22.6430 C   0  0  0  0  0  0  0  0  0  0  0  0
  -21.2300  -29.2990   22.5170 N   0  0  0  0  0  0  0  0  0  0  0  0
  -23.2350  -28.8730   23.4700 O   0  0  0  0  0  0  0  0  0  0  0  0
  -20.7400  -29.8420   21.8200 H   0  0  0  0  0  0  0  0  0  0  0  0
  -17.8630  -28.0730   22.9840 C   0  0  0  0  0  0  0  0  0  0  0  0
  -20.4100  -28.3810   23.3060 C   0  0  0  0  0  3  0  0  0  0  0  0
  -20.5470  -26.9300   22.7910 C   0  0  0  0  0  2  0  0  0  0  0  0
  -19.4750  -26.5490   21.7660 C   0  0  0  0  0  2  0  0  0  0  0  0
  -18.0760  -26.7010   22.3710 C   0  0  0  0  0  2  0  0  0  0  0  0
  -18.9600  -28.8700   23.4080 C   0  0  0  0  0  0  0  0  0  0  0  0
  -18.7090  -30.1540   23.9380 C   0  0  0  0  0  3  0  0  0  0  0  0
  -17.3930  -30.6420   24.0520 C   0  0  0  0  0  3  0  0  0  0  0  0
  -16.3100  -29.8430   23.6450 C   0  0  0  0  0  3  0  0  0  0  0  0
  -16.5460  -28.5610   23.1160 C   0  0  0  0  0  3  0  0  0  0  0  0
  -25.8330  -32.4350   23.8350 C   0  0  0  0  0  3  0  0  0  0  0  0
  -25.5780  -33.8390   24.1850 N   0  0  0  0  0  0  0  0  0  0  0  0
  -25.9260  -34.8860   23.4250 C   0  0  0  0  0  0  0  0  0  0  0  0
  -26.5710  -34.7710   22.3790 O   0  0  0  0  0  0  0  0  0  0  0  0
  -25.0060  -34.0060   25.0000 H   0  0  0  0  0  0  0  0  0  0  0  0
  -24.2500  -36.7350   23.1230 C   0  0  0  0  0  1  0  0  0  0  0  0
  -25.4940  -36.2860   23.9030 C   0  0  0  0  0  3  0  0  0  0  0  0
  -27.6730  -37.0970   24.6940 C   0  0  0  0  0  1  0  0  0  0  0  0
  -26.5560  -37.3070   23.7750 N   0  0  0  0  0  0  0  0  0  0  0  0
  -26.1830  -38.2370   23.9370 H   0  0  0  0  0  0  0  0  0  0  0  0
  -26.3750  -31.6390   25.0870 C   0  0  1  0  0  0  0  0  0  0  0  0
  -25.3150  -31.4150   26.1890 C   0  0  0  0  0  1  0  0  0  0  0  0
  -26.9090  -30.2530   24.6580 C   0  0  0  0  0  1  0  0  0  0  0  0
  -27.5670  -32.3990   25.7160 C   0  0  0  0  0  1  0  0  0  0  0  0
  2 50  1  0
  2  1  2  0
  3  1  1  0
  3  9  1  0
  4  2  1  0
  5  4  1  0
  6  3  2  0
  7  4  2  0
  7  6  1  0
  9  8  1  0
 10  9  1  0
 11 10  1  0
 12 20  1  0
 13 18  1  0
 14 15  1  0
 14 13  1  0
 16 15  1  0
 16 25  1  0
 16 17  1  0
 18 12  1  0
 18 17  1  0
 19 12  2  0
 20 11  1  0
 21 20  1  0
 22 23  2  0
 23 42  1  0
 24 23  1  0
 24 27  1  0
 25 22  1  0
 25 26  1  0
 26 24  2  0
 27 28  1  0
 28 29  2  0
 30 33  1  0
 30 29  1  0
 31 30  2  0
 32 31  1  0
 32 27  2  0
 33 34  1  0
 34 35  1  0
 35 36  2  0
 37 36  1  0
 37 41  1  0
 38 37  2  0
 39 34  2  0
 39 38  1  0
 40 39  1  0
 42 43  1  0
 43 46  1  0
 43 45  1  0
 44 42  2  0
 47 48  1  0
 47 22  1  0
 49 47  1  0
 51 50  1  0
 52 53  1  0
 52 51  1  0
 53 55  1  0
 54 65  2  0
 55 60  1  0
 56 64  1  0
 56 66  1  0
 57 63  1  0
 57 59  1  0
 58 64  1  0
 59 58  1  0
 60 59  2  0
 61 62  1  0
 61 55  2  0
 62 57  2  0
 63 56  1  0
 64 54  1  0
 66 68  2  0
 67 66  1  0
 69 67  1  0
 70 79  2  0
 70 75  1  0
 71 67  1  0
 71 75  1  0
 72 71  1  0
 73 74  1  0
 73 72  1  0
 74 70  1  0
 75 76  2  0
 76 77  1  0
 78 77  2  0
 79 78  1  0
 80 54  1  0
 80 81  1  0
 80 90  1  0
 81 84  1  0
 82 86  1  0
 82 81  1  0
 83 82  2  0
 86 85  1  0
 88 86  1  0
 88 89  1  0
 88 87  1  0
 90 93  1  1
 90 91  1  0
 92 90  1  0
M  ISO  4  12 100  20 100  52 101  53 101
M  END
>  <TORSDO>  (23) 
F 22

>  <SCORE>  (23) 
-11.991

>  <name>  (23) 
22

>  <ligand_id>  (23) 
22

>  <original_smiles>  (23) 
[H]c1c([H])c([H])c2c(c1[H])C([H])([H])C([H])([H])C([H])([H])C2([H])N([H])C(=O)C1([H])N(C(=O)C([H])(N([H])C(=O)C([H])(N([H])C([H])([H])[H])C([H])([H])[H])C(C([H])([H])[H])(C([H])([H])[H])C([H])([H])[H])C([H])([H])c2c([H])c(OC([H])([H])C([H])([H])C([H])([H])c3c(C([H])([H])[H])nnc(C([H])(C([H])([H])[H])C([H])([H])C([H])([H])N([H])C(=O)N4C([H])([H])C([H])([H])C([H])([H])C([H])(n5nc(-c6c([H])c([H])c(Oc7c([H])c([H])c(F)c([H])c7F)c([H])c6[H])c(C(=O)N([H])[H])c5N([H])[H])C4([H])[H])c3[H])c([H])c([H])c2C1([H])[H]

>  <smiles>  (23) 
[H]c1c([H])c([H])c2c(c1[H])C([H])([H])C([H])([H])C([H])([H])C2([H])N([H])C(=O)C1([H])N(C(=O)C([H])(N([H])C(=O)C([H])(N([H])C([H])([H])[H])C([H])([H])[H])C(C([H])([H])[H])(C([H])([H])[H])C([H])([H])[H])C([H])([H])c2c([H])c(OC([H])([H])C([H])([H])C([H])([H])c3c(C([H])([H])[H])nnc(C([H])(C([H])([H])[H])C([H])([H])C([H])([H])N([H])C(=O)N4C([H])([H])C([H])([H])C([H])([H])C([H])(n5nc(-c6c([H])c([H])c(Oc7c([H])c([H])c(F)c([H])c7F)c([H])c6[H])c(C(=O)N([H])[H])c5N([H])[H])C4([H])[H])c3[H])c([H])c([H])c2C1([H])[H]

$$$$
23:0:0
     RDKit          3D

 88 95  0  0  1  0  0  0  0  0999 V2000
  -29.2910  -21.1870   20.3960 C   0  0  0  0  0  2  0  0  0  0  0  0
  -28.9560  -22.8280   19.7560 C   0  0  0  0  0  2  0  0  0  0  0  0
  -28.2010  -24.3020   20.4160 C   0  0  0  0  0  2  0  0  0  0  0  0
  -28.3600  -25.9110   20.1860 O   0  0  0  0  0  0  0  0  0  0  0  0
  -24.6200  -31.7450   23.1520 C   0  0  0  0  0  0  0  0  0  0  0  0
  -27.3030  -26.9470   20.1820 C   0  0  0  0  0  0  0  0  0  0  0  0
  -23.4790  -30.3490   21.4740 C   0  0  0  0  0  3  0  0  0  0  0  0
  -24.9770  -28.7670   20.0870 C   0  0  0  0  0  0  0  0  0  0  0  0
  -26.0430  -30.6000   21.3870 C   0  0  0  0  0  2  0  0  0  0  0  0
  -26.1450  -29.1970   20.7320 C   0  0  0  0  0  0  0  0  0  0  0  0
  -27.3080  -28.3090   20.7490 C   0  0  0  0  0  3  0  0  0  0  0  0
  -26.1030  -26.6530   19.5010 C   0  0  0  0  0  3  0  0  0  0  0  0
  -24.9780  -27.5140   19.4540 C   0  0  0  0  0  3  0  0  0  0  0  0
  -23.7490  -29.6730   20.1020 C   0  0  0  0  0  2  0  0  0  0  0  0
  -24.7340  -30.9240   22.0590 N   0  0  0  0  0  0  0  0  0  0  0  0
  -23.5160  -32.0190   23.6490 O   0  0  0  0  0  0  0  0  0  0  0  0
  -22.7750  -29.3380   22.4160 C   0  0  0  0  0  0  0  0  0  0  0  0
  -21.4450  -29.1800   22.2720 N   0  0  0  0  0  0  0  0  0  0  0  0
  -23.4290  -28.6980   23.2430 O   0  0  0  0  0  0  0  0  0  0  0  0
  -20.9720  -29.7480   21.5840 H   0  0  0  0  0  0  0  0  0  0  0  0
  -18.0510  -27.9910   22.7350 C   0  0  0  0  0  0  0  0  0  0  0  0
  -20.6110  -28.2320   23.0180 C   0  0  0  0  0  3  0  0  0  0  0  0
  -20.7050  -26.8120   22.4130 C   0  0  0  0  0  2  0  0  0  0  0  0
  -19.6060  -26.5190   21.3870 C   0  0  0  0  0  2  0  0  0  0  0  0
  -18.2210  -26.6580   22.0270 C   0  0  0  0  0  2  0  0  0  0  0  0
  -19.1730  -28.7390   23.1850 C   0  0  0  0  0  0  0  0  0  0  0  0
  -18.9560  -29.9860   23.8090 C   0  0  0  0  0  3  0  0  0  0  0  0
  -17.6520  -30.4880   23.9840 C   0  0  0  0  0  3  0  0  0  0  0  0
  -16.5450  -29.7390   23.5470 C   0  0  0  0  0  3  0  0  0  0  0  0
  -16.7470  -28.4920   22.9280 C   0  0  0  0  0  3  0  0  0  0  0  0
  -25.8700  -32.3930   23.8200 C   0  0  0  0  0  3  0  0  0  0  0  0
  -25.5340  -33.7900   24.1460 N   0  0  0  0  0  0  0  0  0  0  0  0
  -25.8830  -34.8550   23.4120 C   0  0  0  0  0  0  0  0  0  0  0  0
  -26.5840  -34.7650   22.4000 O   0  0  0  0  0  0  0  0  0  0  0  0
  -24.9160  -33.9330   24.9310 H   0  0  0  0  0  0  0  0  0  0  0  0
  -24.1460  -36.6400   23.0440 C   0  0  0  0  0  1  0  0  0  0  0  0
  -25.3780  -36.2390   23.8710 C   0  0  0  0  0  3  0  0  0  0  0  0
  -27.4910  -37.1420   24.7400 C   0  0  0  0  0  1  0  0  0  0  0  0
  -26.4020  -37.3020   23.7780 N   0  0  0  0  0  0  0  0  0  0  0  0
  -25.9850  -38.2180   23.9220 H   0  0  0  0  0  0  0  0  0  0  0  0
  -26.3440  -31.6300   25.1190 C   0  0  1  0  0  0  0  0  0  0  0  0
  -25.2130  -31.3890   26.1470 C   0  0  0  0  0  1  0  0  0  0  0  0
  -26.9500  -30.2550   24.7590 C   0  0  0  0  0  1  0  0  0  0  0  0
  -27.4630  -32.4350   25.8190 C   0  0  0  0  0  1  0  0  0  0  0  0
  -29.5110  -19.5620   19.6720 C   0  0  0  0  0  3  0  0  0  0  0  0
  -27.2740  -18.3840   20.0250 C   0  0  0  0  0  1  0  0  0  0  0  0
  -28.3940  -18.2390   17.7660 C   0  0  0  0  0  1  0  0  0  0  0  0
  -27.3450  -20.3420   18.4770 C   0  0  0  0  0  1  0  0  0  0  0  0
  -28.1530  -19.1330   19.0040 C   0  0  2  0  0  0  0  0  0  0  0  0
  -30.3100  -18.1090   20.3620 C   0  0  0  0  0  2  0  0  0  0  0  0
  -30.7460  -15.2170   20.1770 C   0  0  0  0  0  0  0  0  0  0  0  0
  -30.6350  -12.7900   19.2960 C   0  0  0  0  0  2  0  0  0  0  0  0
  -29.7070  -12.6380   18.0660 C   0  0  0  0  0  2  0  0  0  0  0  0
  -28.2470  -12.4260   18.5070 C   0  0  0  0  0  2  0  0  0  0  0  0
  -27.8320  -13.3990   19.6400 C   0  0  0  0  0  3  0  0  0  0  0  0
  -28.8880  -13.4960   20.7610 C   0  0  0  0  0  2  0  0  0  0  0  0
  -30.1360  -13.9400   20.1260 N   0  0  0  0  0  0  0  0  0  0  0  0
  -31.9680  -15.1980   19.9720 O   0  0  0  0  0  0  0  0  0  0  0  0
  -30.0040  -16.4820   20.2620 N   0  0  0  0  0  0  0  0  0  0  0  0
  -29.0160  -16.2920   20.3390 H   0  0  0  0  0  0  0  0  0  0  0  0
  -25.4720  -14.0180   20.3840 C   0  0  0  0  0  0  0  0  0  0  0  0
  -24.3930  -13.2690   20.7580 C   0  0  0  0  0  0  0  0  0  0  0  0
  -24.8310  -11.9100   20.7460 C   0  0  0  0  0  0  0  0  0  0  0  0
  -26.4970  -13.1190   20.1520 N   0  0  0  0  0  0  0  0  0  0  0  0
  -26.1240  -11.8450   20.4400 N   0  0  0  0  0  0  0  0  0  0  0  0
  -24.0790  -10.6660   20.9490 C   0  0  0  0  0  0  0  0  0  0  0  0
  -24.4860   -9.7000   21.8960 C   0  0  0  0  0  3  0  0  0  0  0  0
  -23.7300   -8.5240   22.0880 C   0  0  0  0  0  3  0  0  0  0  0  0
  -22.5530   -8.3060   21.3340 C   0  0  0  0  0  0  0  0  0  0  0  0
  -22.1650   -9.2590   20.3760 C   0  0  0  0  0  3  0  0  0  0  0  0
  -22.9200  -10.4270   20.1820 C   0  0  0  0  0  3  0  0  0  0  0  0
  -21.7710   -7.1810   21.4340 O   0  0  0  0  0  0  0  0  0  0  0  0
  -21.7020   -6.4530   22.5940 C   0  0  0  0  0  0  0  0  0  0  0  0
  -21.2890   -7.0330   23.8150 C   0  0  0  0  0  3  0  0  0  0  0  0
  -21.1660   -6.2330   24.9680 C   0  0  0  0  0  3  0  0  0  0  0  0
  -21.4470   -4.8540   24.9040 C   0  0  0  0  0  0  0  0  0  0  0  0
  -21.8530   -4.2750   23.6890 C   0  0  0  0  0  3  0  0  0  0  0  0
  -21.9770   -5.0710   22.5380 C   0  0  0  0  0  0  0  0  0  0  0  0
  -22.3470   -4.5040   21.3640 F   0  0  0  0  0  0  0  0  0  0  0  0
  -21.3220   -4.0850   26.0090 F   0  0  0  0  0  0  0  0  0  0  0  0
  -23.0050  -13.7800   21.0110 C   0  0  0  0  0  0  0  0  0  0  0  0
  -22.2650  -13.1280   21.9000 N   0  0  0  0  0  0  0  0  0  0  0  0
  -22.5870  -14.7950   20.4550 O   0  0  0  0  0  0  0  0  0  0  0  0
  -22.6140  -12.3070   22.3710 H   0  0  0  0  0  0  0  0  0  0  0  0
  -21.3340  -13.4550   22.1120 H   0  0  0  0  0  0  0  0  0  0  0  0
  -25.6580  -15.3830   20.1890 N   0  0  0  0  0  0  0  0  0  0  0  0
  -24.8960  -16.0440   20.3000 H   0  0  0  0  0  0  0  0  0  0  0  0
  -26.4990  -15.8060   19.8230 H   0  0  0  0  0  0  0  0  0  0  0  0
  2  1  1  0
  2  3  1  0
  4  3  1  0
  5 16  2  0
  6  4  1  0
  6 11  1  0
  7 15  1  0
  7 17  1  0
  8 14  1  0
  8 10  1  0
  9 15  1  0
 10 11  2  0
 10  9  1  0
 12  6  2  0
 13 12  1  0
 13  8  2  0
 14  7  1  0
 15  5  1  0
 17 19  2  0
 18 17  1  0
 20 18  1  0
 21 30  2  0
 21 26  1  0
 22 18  1  0
 22 26  1  0
 23 22  1  0
 24 25  1  0
 24 23  1  0
 25 21  1  0
 26 27  2  0
 27 28  1  0
 29 28  2  0
 30 29  1  0
 31  5  1  0
 31 32  1  0
 31 41  1  0
 32 35  1  0
 33 37  1  0
 33 32  1  0
 34 33  2  0
 37 36  1  0
 39 37  1  0
 39 40  1  0
 39 38  1  0
 41 44  1  1
 41 42  1  0
 43 41  1  0
 45 50  1  0
 45  1  1  0
 49 47  1  6
 48 49  1  0
 49 45  1  0
 49 46  1  0
 51 59  1  0
 52 57  1  0
 53 54  1  0
 53 52  1  0
 55 54  1  0
 55 64  1  0
 55 56  1  0
 57 51  1  0
 57 56  1  0
 58 51  2  0
 59 60  1  0
 59 50  1  0
 61 62  2  0
 62 81  1  0
 63 62  1  0
 63 66  1  0
 64 61  1  0
 64 65  1  0
 65 63  2  0
 66 67  1  0
 67 68  2  0
 69 72  1  0
 69 68  1  0
 70 69  2  0
 71 70  1  0
 71 66  2  0
 72 73  1  0
 73 74  1  0
 74 75  2  0
 76 75  1  0
 76 80  1  0
 77 76  2  0
 78 73  2  0
 78 77  1  0
 79 78  1  0
 81 82  1  0
 82 85  1  0
 82 84  1  0
 83 81  2  0
 86 87  1  0
 86 61  1  0
 88 86  1  0
M  ISO  4   3 101   4 101  51 100  59 100
M  END
>  <TORSDO>  (24) 
F 21

>  <SCORE>  (24) 
-15.691

>  <name>  (24) 
23

>  <ligand_id>  (24) 
23

>  <original_smiles>  (24) 
[H]c1c([H])c([H])c2c(c1[H])C([H])([H])C([H])([H])C([H])([H])C2([H])N([H])C(=O)C1([H])N(C(=O)C([H])(N([H])C(=O)C([H])(N([H])C([H])([H])[H])C([H])([H])[H])C(C([H])([H])[H])(C([H])([H])[H])C([H])([H])[H])C([H])([H])c2c([H])c(OC([H])([H])C([H])([H])C([H])([H])C([H])(C([H])([H])N([H])C(=O)N3C([H])([H])C([H])([H])C([H])([H])C([H])(n4nc(-c5c([H])c([H])c(Oc6c([H])c([H])c(F)c([H])c6F)c([H])c5[H])c(C(=O)N([H])[H])c4N([H])[H])C3([H])[H])C(C([H])([H])[H])(C([H])([H])[H])C([H])([H])[H])c([H])c([H])c2C1([H])[H]

>  <smiles>  (24) 
[H]c1c([H])c([H])c2c(c1[H])C([H])([H])C([H])([H])C([H])([H])C2([H])N([H])C(=O)C1([H])N(C(=O)C([H])(N([H])C(=O)C([H])(N([H])C([H])([H])[H])C([H])([H])[H])C(C([H])([H])[H])(C([H])([H])[H])C([H])([H])[H])C([H])([H])c2c([H])c(OC([H])([H])C([H])([H])C([H])([H])C([H])(C([H])([H])N([H])C(=O)N3C([H])([H])C([H])([H])C([H])([H])C([H])(n4nc(-c5c([H])c([H])c(Oc6c([H])c([H])c(F)c([H])c6F)c([H])c5[H])c(C(=O)N([H])[H])c4N([H])[H])C3([H])[H])C(C([H])([H])[H])(C([H])([H])[H])C([H])([H])[H])c([H])c([H])c2C1([H])[H]

$$$$
24:0:0
     RDKit          3D

100108  0  0  1  0  0  0  0  0999 V2000
  -31.0570  -22.6920   22.8950 C   0  0  0  0  0  3  0  0  0  0  0  0
  -30.9830  -21.3070   22.6380 C   0  0  0  0  0  0  0  0  0  0  0  0
  -30.5570  -23.6070   21.9490 C   0  0  0  0  0  0  0  0  0  0  0  0
  -30.4220  -20.8800   21.4090 C   0  0  0  0  0  0  0  0  0  0  0  0
  -30.0200  -23.0890   20.7500 C   0  0  0  0  0  0  0  0  0  0  0  0
  -31.4960  -20.3300   23.6860 C   0  0  0  0  0  1  0  0  0  0  0  0
  -29.9880  -21.7680   20.4940 N   0  0  0  0  0  0  0  0  0  0  0  0
  -28.7830  -19.1740   20.4800 C   0  0  0  0  0  1  0  0  0  0  0  0
  -30.2100  -19.4010   21.0300 C   0  0  0  0  0  3  0  0  0  0  0  0
  -32.7540  -19.0460   20.7650 C   0  0  0  0  0  1  0  0  0  0  0  0
  -31.3530  -19.2860   18.7240 C   0  0  0  0  0  1  0  0  0  0  0  0
  -31.3570  -18.7440   20.1740 C   0  0  2  0  0  0  0  0  0  0  0  0
  -31.1780  -17.2000   20.0650 C   0  0  0  0  0  2  0  0  0  0  0  0
  -31.4520  -16.3540   21.3320 C   0  0  0  0  0  2  0  0  0  0  0  0
  -31.4120  -14.0650   20.3610 C   0  0  0  0  0  0  0  0  0  0  0  0
  -30.9580  -11.9270   19.2230 C   0  0  0  0  0  2  0  0  0  0  0  0
  -30.0390  -12.1570   18.0080 C   0  0  0  0  0  2  0  0  0  0  0  0
  -28.5570  -12.1260   18.4280 C   0  0  0  0  0  2  0  0  0  0  0  0
  -28.2650  -13.0330   19.6530 C   0  0  0  0  0  3  0  0  0  0  0  0
  -29.2890  -12.7690   20.7800 C   0  0  0  0  0  2  0  0  0  0  0  0
  -30.6450  -12.9520   20.2300 N   0  0  0  0  0  0  0  0  0  0  0  0
  -32.4720  -14.2370   19.7530 O   0  0  0  0  0  0  0  0  0  0  0  0
  -30.9170  -15.0040   21.1750 N   0  0  0  0  0  0  0  0  0  0  0  0
  -30.0630  -14.7780   21.6640 H   0  0  0  0  0  0  0  0  0  0  0  0
  -25.9190  -13.8250   20.3660 C   0  0  0  0  0  0  0  0  0  0  0  0
  -24.7890  -13.1340   20.7190 C   0  0  0  0  0  0  0  0  0  0  0  0
  -25.1370  -11.7510   20.6600 C   0  0  0  0  0  0  0  0  0  0  0  0
  -26.8910  -12.8640   20.1210 N   0  0  0  0  0  0  0  0  0  0  0  0
  -26.4200  -11.6110   20.3510 N   0  0  0  0  0  0  0  0  0  0  0  0
  -24.3100  -10.5480   20.8250 C   0  0  0  0  0  0  0  0  0  0  0  0
  -24.6440   -9.5450   21.7600 C   0  0  0  0  0  3  0  0  0  0  0  0
  -23.8220   -8.4060   21.9140 C   0  0  0  0  0  3  0  0  0  0  0  0
  -22.6520   -8.2660   21.1290 C   0  0  0  0  0  0  0  0  0  0  0  0
  -22.3370   -9.2580   20.1830 C   0  0  0  0  0  3  0  0  0  0  0  0
  -23.1590  -10.3860   20.0290 C   0  0  0  0  0  3  0  0  0  0  0  0
  -21.8080   -7.1840   21.1910 O   0  0  0  0  0  0  0  0  0  0  0  0
  -21.6160   -6.4860   22.3570 C   0  0  0  0  0  0  0  0  0  0  0  0
  -21.1270   -7.1080   23.5260 C   0  0  0  0  0  3  0  0  0  0  0  0
  -20.8790   -6.3410   24.6810 C   0  0  0  0  0  3  0  0  0  0  0  0
  -21.1090   -4.9530   24.6680 C   0  0  0  0  0  0  0  0  0  0  0  0
  -21.5910   -4.3300   23.5030 C   0  0  0  0  0  3  0  0  0  0  0  0
  -21.8410   -5.0940   22.3500 C   0  0  0  0  0  0  0  0  0  0  0  0
  -22.2850   -4.4860   21.2240 F   0  0  0  0  0  0  0  0  0  0  0  0
  -20.8630   -4.2140   25.7750 F   0  0  0  0  0  0  0  0  0  0  0  0
  -23.4340  -13.7190   21.0030 C   0  0  0  0  0  0  0  0  0  0  0  0
  -22.6660  -13.0860   21.8810 N   0  0  0  0  0  0  0  0  0  0  0  0
  -23.0700  -14.7720   20.4790 O   0  0  0  0  0  0  0  0  0  0  0  0
  -22.9710  -12.2300   22.3210 H   0  0  0  0  0  0  0  0  0  0  0  0
  -21.7570  -13.4590   22.1130 H   0  0  0  0  0  0  0  0  0  0  0  0
  -26.1970  -15.1800   20.2160 N   0  0  0  0  0  0  0  0  0  0  0  0
  -25.4910  -15.8970   20.3400 H   0  0  0  0  0  0  0  0  0  0  0  0
  -27.0870  -15.5510   19.9090 H   0  0  0  0  0  0  0  0  0  0  0  0
  -29.4040  -23.9390   19.6440 C   0  0  0  0  0  2  0  0  0  0  0  0
  -27.8760  -24.0390   19.8010 C   0  0  0  0  0  2  0  0  0  0  0  0
  -27.1850  -24.8750   18.7200 C   0  0  0  0  0  2  0  0  0  0  0  0
  -27.3410  -26.2670   19.0060 O   0  0  0  0  0  0  0  0  0  0  0  0
  -24.3810  -31.3100   23.0410 C   0  0  0  0  0  0  0  0  0  0  0  0
  -26.2260  -27.0570   19.2030 C   0  0  0  0  0  0  0  0  0  0  0  0
  -22.8860  -30.2670   21.3700 C   0  0  0  0  0  3  0  0  0  0  0  0
  -24.0250  -28.7830   19.6410 C   0  0  0  0  0  0  0  0  0  0  0  0
  -25.4130  -30.3740   20.9780 C   0  0  0  0  0  2  0  0  0  0  0  0
  -25.2790  -29.0990   20.1760 C   0  0  0  0  0  0  0  0  0  0  0  0
  -26.3790  -28.2400   19.9590 C   0  0  0  0  0  3  0  0  0  0  0  0
  -24.9510  -26.7670   18.6550 C   0  0  0  0  0  3  0  0  0  0  0  0
  -23.8550  -27.6160   18.8820 C   0  0  0  0  0  3  0  0  0  0  0  0
  -22.8990  -29.7550   19.9060 C   0  0  0  0  0  2  0  0  0  0  0  0
  -24.2510  -30.6550   21.8530 N   0  0  0  0  0  0  0  0  0  0  0  0
  -23.3880  -31.6260   23.7090 O   0  0  0  0  0  0  0  0  0  0  0  0
  -22.2010  -29.2040   22.2590 C   0  0  0  0  0  0  0  0  0  0  0  0
  -20.8600  -29.1740   22.2280 N   0  0  0  0  0  0  0  0  0  0  0  0
  -22.8710  -28.4160   22.9330 O   0  0  0  0  0  0  0  0  0  0  0  0
  -20.3850  -29.8610   21.6590 H   0  0  0  0  0  0  0  0  0  0  0  0
  -17.4180  -28.2790   22.8690 C   0  0  0  0  0  0  0  0  0  0  0  0
  -20.0020  -28.2380   22.9520 C   0  0  0  0  0  3  0  0  0  0  0  0
  -19.9030  -26.8840   22.2120 C   0  0  0  0  0  2  0  0  0  0  0  0
  -18.7010  -26.8000   21.2670 C   0  0  0  0  0  2  0  0  0  0  0  0
  -17.3930  -27.0090   22.0360 C   0  0  0  0  0  2  0  0  0  0  0  0
  -18.6430  -28.8650   23.2850 C   0  0  0  0  0  0  0  0  0  0  0  0
  -18.6110  -30.0660   24.0270 C   0  0  0  0  0  3  0  0  0  0  0  0
  -17.3870  -30.6740   24.3590 C   0  0  0  0  0  3  0  0  0  0  0  0
  -16.1760  -30.0810   23.9590 C   0  0  0  0  0  3  0  0  0  0  0  0
  -16.1940  -28.8860   23.2190 C   0  0  0  0  0  3  0  0  0  0  0  0
  -25.7800  -31.7150   23.6010 C   0  0  0  0  0  3  0  0  0  0  0  0
  -26.2720  -30.7830   24.7760 C   0  0  1  0  0  0  0  0  0  0  0  0
  -25.2470  -30.6370   25.9260 C   0  0  0  0  0  1  0  0  0  0  0  0
  -26.5960  -29.3660   24.2490 C   0  0  0  0  0  1  0  0  0  0  0  0
  -27.5850  -31.3400   25.3720 C   0  0  0  0  0  1  0  0  0  0  0  0
  -25.6860  -33.1110   24.0490 N   0  0  0  0  0  0  0  0  0  0  0  0
  -26.1680  -34.1610   23.3690 C   0  0  0  0  0  0  0  0  0  0  0  0
  -26.8080  -34.0420   22.3200 O   0  0  0  0  0  0  0  0  0  0  0  0
  -25.1250  -33.2870   24.8700 H   0  0  0  0  0  0  0  0  0  0  0  0
  -24.7430  -36.2230   23.1720 C   0  0  0  0  0  1  0  0  0  0  0  0
  -25.8970  -35.5640   23.9440 C   0  0  0  0  0  3  0  0  0  0  0  0
  -28.1270  -36.0370   24.8530 C   0  0  0  0  0  1  0  0  0  0  0  0
  -27.0810  -36.4490   23.9200 N   0  0  0  0  0  0  0  0  0  0  0  0
  -26.8200  -37.4070   24.1400 H   0  0  0  0  0  0  0  0  0  0  0  0
  -30.6190  -25.0990   22.2560 C   0  0  0  0  0  2  0  0  0  0  0  0
  -29.2360  -25.7720   22.2010 C   0  0  0  0  0  2  0  0  0  0  0  0
  -27.9370  -27.9680   22.3320 C   0  0  0  0  0  1  0  0  0  0  0  0
  -29.3150  -27.2950   22.3840 C   0  0  0  0  0  2  0  0  0  0  0  0
  2  1  1  0
  2  6  1  0
  3 97  1  0
  3  1  2  0
  4  2  2  0
  5  3  1  0
  7  5  2  0
  7  4  1  0
  9  8  1  0
  9  4  1  0
 12 11  1  6
 12 10  1  0
 12  9  1  0
 13 12  1  0
 13 14  1  0
 15 23  1  0
 16 21  1  0
 17 18  1  0
 17 16  1  0
 19 18  1  0
 19 28  1  0
 19 20  1  0
 21 15  1  0
 21 20  1  0
 22 15  2  0
 23 14  1  0
 23 24  1  0
 25 26  2  0
 26 45  1  0
 27 26  1  0
 27 30  1  0
 28 29  1  0
 28 25  1  0
 29 27  2  0
 30 31  1  0
 31 32  2  0
 33 36  1  0
 33 32  1  0
 34 33  2  0
 35 34  1  0
 35 30  2  0
 36 37  1  0
 37 38  1  0
 38 39  2  0
 40 39  1  0
 40 44  1  0
 41 40  2  0
 42 37  2  0
 42 41  1  0
 43 42  1  0
 45 46  1  0
 46 49  1  0
 46 48  1  0
 47 45  2  0
 50 51  1  0
 50 25  1  0
 52 50  1  0
 53 54  1  0
 53  5  1  0
 55 56  1  0
 55 54  1  0
 56 58  1  0
 57 68  2  0
 58 63  1  0
 59 67  1  0
 59 69  1  0
 60 66  1  0
 60 62  1  0
 61 67  1  0
 62 61  1  0
 63 62  2  0
 64 65  1  0
 64 58  2  0
 65 60  2  0
 66 59  1  0
 67 57  1  0
 69 71  2  0
 70 69  1  0
 72 70  1  0
 73 82  2  0
 73 78  1  0
 74 70  1  0
 74 78  1  0
 75 74  1  0
 76 77  1  0
 76 75  1  0
 77 73  1  0
 78 79  2  0
 79 80  1  0
 81 80  2  0
 82 81  1  0
 83 57  1  0
 83 88  1  0
 83 84  1  0
 84 87  1  1
 84 85  1  0
 86 84  1  0
 88 91  1  0
 89 93  1  0
 89 88  1  0
 90 89  2  0
 93 92  1  0
 95 93  1  0
 95 96  1  0
 95 94  1  0
 98 97  1  0
 98100  1  0
 99100  1  0
M  ISO  4  15 100  23 100  55 101  56 101
M  END
>  <TORSDO>  (25) 
F 26

>  <SCORE>  (25) 
-10.216

>  <name>  (25) 
24

>  <ligand_id>  (25) 
24

>  <original_smiles>  (25) 
[H]c1c([H])c([H])c2c(c1[H])C([H])([H])C([H])([H])C([H])([H])C2([H])N([H])C(=O)C1([H])N(C(=O)C([H])(N([H])C(=O)C([H])(N([H])C([H])([H])[H])C([H])([H])[H])C(C([H])([H])[H])(C([H])([H])[H])C([H])([H])[H])C([H])([H])c2c([H])c(OC([H])([H])C([H])([H])C([H])([H])c3nc(C([H])(C([H])([H])[H])C(C([H])([H])[H])(C([H])([H])[H])C([H])([H])C([H])([H])N([H])C(=O)N4C([H])([H])C([H])([H])C([H])([H])C([H])(n5nc(-c6c([H])c([H])c(Oc7c([H])c([H])c(F)c([H])c7F)c([H])c6[H])c(C(=O)N([H])[H])c5N([H])[H])C4([H])[H])c(C([H])([H])[H])c([H])c3C([H])([H])C([H])([H])C([H])([H])C([H])([H])[H])c([H])c([H])c2C1([H])[H]

>  <smiles>  (25) 
[H]c1c([H])c([H])c2c(c1[H])C([H])([H])C([H])([H])C([H])([H])C2([H])N([H])C(=O)C1([H])N(C(=O)C([H])(N([H])C(=O)C([H])(N([H])C([H])([H])[H])C([H])([H])[H])C(C([H])([H])[H])(C([H])([H])[H])C([H])([H])[H])C([H])([H])c2c([H])c(OC([H])([H])C([H])([H])C([H])([H])c3nc(C([H])(C([H])([H])[H])C(C([H])([H])[H])(C([H])([H])[H])C([H])([H])C([H])([H])N([H])C(=O)N4C([H])([H])C([H])([H])C([H])([H])C([H])(n5nc(-c6c([H])c([H])c(Oc7c([H])c([H])c(F)c([H])c7F)c([H])c6[H])c(C(=O)N([H])[H])c5N([H])[H])C4([H])[H])c(C([H])([H])[H])c([H])c3C([H])([H])C([H])([H])C([H])([H])C([H])([H])[H])c([H])c([H])c2C1([H])[H]

$$$$
25:0:0
     RDKit          3D

 95103  0  0  1  0  0  0  0  0999 V2000
  -28.9560  -20.4030   19.7520 C   0  0  0  0  0  3  0  0  0  0  0  0
  -28.1390  -21.4650   19.3090 C   0  0  0  0  0  0  0  0  0  0  0  0
  -26.7840  -21.1640   18.9920 C   0  0  0  0  0  0  0  0  0  0  0  0
  -28.4220  -19.1040   19.8770 C   0  0  0  0  0  0  0  0  0  0  0  0
  -26.3260  -19.8370   19.2060 C   0  0  0  0  0  0  0  0  0  0  0  0
  -24.8890  -19.4180   18.9410 C   0  0  0  0  0  1  0  0  0  0  0  0
  -27.1190  -18.8440   19.6540 N   0  0  0  0  0  0  0  0  0  0  0  0
  -29.6740  -18.0470   21.8170 C   0  0  0  0  0  1  0  0  0  0  0  0
  -29.3010  -17.9320   20.3310 C   0  0  0  0  0  3  0  0  0  0  0  0
  -28.7280  -16.5250   19.9850 C   0  0  0  0  0  2  0  0  0  0  0  0
  -30.5430  -14.7170   19.8450 C   0  0  0  0  0  0  0  0  0  0  0  0
  -30.4030  -12.3360   19.2770 C   0  0  0  0  0  2  0  0  0  0  0  0
  -29.4680  -12.1650   18.0650 C   0  0  0  0  0  2  0  0  0  0  0  0
  -28.0020  -12.0230   18.5260 C   0  0  0  0  0  2  0  0  0  0  0  0
  -27.5820  -13.1080   19.5560 C   0  0  0  0  0  3  0  0  0  0  0  0
  -28.6440  -13.2670   20.6670 C   0  0  0  0  0  2  0  0  0  0  0  0
  -29.9330  -13.5170   20.0140 N   0  0  0  0  0  0  0  0  0  0  0  0
  -31.7260  -14.8200   19.5320 O   0  0  0  0  0  0  0  0  0  0  0  0
  -29.7660  -15.6960   19.3600 N   0  0  0  0  0  0  0  0  0  0  0  0
  -30.3110  -16.2420   18.7110 H   0  0  0  0  0  0  0  0  0  0  0  0
  -25.2470  -13.7390   20.4350 C   0  0  0  0  0  0  0  0  0  0  0  0
  -24.1820  -12.9760   20.8280 C   0  0  0  0  0  0  0  0  0  0  0  0
  -24.6040  -11.6170   20.7080 C   0  0  0  0  0  0  0  0  0  0  0  0
  -26.2550  -12.8450   20.1050 N   0  0  0  0  0  0  0  0  0  0  0  0
  -25.8740  -11.5610   20.3280 N   0  0  0  0  0  0  0  0  0  0  0  0
  -23.8550  -10.3650   20.8750 C   0  0  0  0  0  0  0  0  0  0  0  0
  -24.3070   -9.3450   21.7400 C   0  0  0  0  0  3  0  0  0  0  0  0
  -23.5580   -8.1590   21.9020 C   0  0  0  0  0  3  0  0  0  0  0  0
  -22.3430   -7.9870   21.1980 C   0  0  0  0  0  0  0  0  0  0  0  0
  -21.9090   -8.9950   20.3200 C   0  0  0  0  0  3  0  0  0  0  0  0
  -22.6590  -10.1710   20.1560 C   0  0  0  0  0  3  0  0  0  0  0  0
  -21.5630   -6.8570   21.2700 O   0  0  0  0  0  0  0  0  0  0  0  0
  -21.5530   -6.0600   22.3860 C   0  0  0  0  0  0  0  0  0  0  0  0
  -21.2140   -6.5640   23.6610 C   0  0  0  0  0  3  0  0  0  0  0  0
  -21.1510   -5.6940   24.7680 C   0  0  0  0  0  3  0  0  0  0  0  0
  -21.4170   -4.3220   24.6020 C   0  0  0  0  0  0  0  0  0  0  0  0
  -21.7510   -3.8180   23.3330 C   0  0  0  0  0  3  0  0  0  0  0  0
  -21.8160   -4.6840   22.2280 C   0  0  0  0  0  0  0  0  0  0  0  0
  -22.1170   -4.1890   21.0030 F   0  0  0  0  0  0  0  0  0  0  0  0
  -21.3500   -3.4840   25.6650 F   0  0  0  0  0  0  0  0  0  0  0  0
  -22.8150  -13.4740   21.1980 C   0  0  0  0  0  0  0  0  0  0  0  0
  -22.1300  -12.7690   22.0910 N   0  0  0  0  0  0  0  0  0  0  0  0
  -22.3660  -14.5190   20.7290 O   0  0  0  0  0  0  0  0  0  0  0  0
  -22.5130  -11.9230   22.4890 H   0  0  0  0  0  0  0  0  0  0  0  0
  -21.2130  -13.0780   22.3800 H   0  0  0  0  0  0  0  0  0  0  0  0
  -25.4340  -15.1120   20.3110 N   0  0  0  0  0  0  0  0  0  0  0  0
  -24.6870  -15.7720   20.4990 H   0  0  0  0  0  0  0  0  0  0  0  0
  -26.2730  -15.5560   19.9620 H   0  0  0  0  0  0  0  0  0  0  0  0
  -26.0640  -22.4880   16.9290 C   0  0  0  0  0  1  0  0  0  0  0  0
  -25.8380  -22.2270   18.4250 C   0  0  0  0  0  2  0  0  0  0  0  0
  -28.7480  -22.8700   19.1560 C   0  0  0  0  0  2  0  0  0  0  0  0
  -28.3830  -23.8670   20.2900 C   0  0  0  0  0  2  0  0  0  0  0  0
  -29.5560  -24.6930   20.8700 C   0  0  0  0  0  2  0  0  0  0  0  0
  -29.9870  -25.9600   20.0890 C   0  0  0  0  0  2  0  0  0  0  0  0
  -29.5860  -27.1730   20.7540 O   0  0  0  0  0  0  0  0  0  0  0  0
  -24.8760  -31.8290   23.3630 C   0  0  0  0  0  0  0  0  0  0  0  0
  -28.3210  -27.7140   20.6130 C   0  0  0  0  0  0  0  0  0  0  0  0
  -24.0220  -30.3130   21.6060 C   0  0  0  0  0  3  0  0  0  0  0  0
  -25.7830  -28.9560   20.3600 C   0  0  0  0  0  0  0  0  0  0  0  0
  -26.5010  -30.9480   21.6870 C   0  0  0  0  0  2  0  0  0  0  0  0
  -26.8050  -29.5980   21.0660 C   0  0  0  0  0  0  0  0  0  0  0  0
  -28.0740  -28.9870   21.1860 C   0  0  0  0  0  3  0  0  0  0  0  0
  -27.2690  -27.0780   19.9150 C   0  0  0  0  0  3  0  0  0  0  0  0
  -26.0110  -27.6950   19.7850 C   0  0  0  0  0  3  0  0  0  0  0  0
  -24.4570  -29.6740   20.2610 C   0  0  0  0  0  2  0  0  0  0  0  0
  -25.1430  -31.0470   22.2780 N   0  0  0  0  0  0  0  0  0  0  0  0
  -23.7180  -31.9760   23.7770 O   0  0  0  0  0  0  0  0  0  0  0  0
  -23.3880  -29.2170   22.4940 C   0  0  0  0  0  0  0  0  0  0  0  0
  -22.0970  -28.9310   22.2590 N   0  0  0  0  0  0  0  0  0  0  0  0
  -24.0570  -28.6270   23.3460 O   0  0  0  0  0  0  0  0  0  0  0  0
  -21.6180  -29.4660   21.5490 H   0  0  0  0  0  0  0  0  0  0  0  0
  -18.7770  -27.5370   22.5430 C   0  0  0  0  0  0  0  0  0  0  0  0
  -21.3030  -27.9120   22.9440 C   0  0  0  0  0  3  0  0  0  0  0  0
  -21.5070  -26.5210   22.3000 C   0  0  0  0  0  2  0  0  0  0  0  0
  -20.4690  -26.1960   21.2210 C   0  0  0  0  0  2  0  0  0  0  0  0
  -19.0550  -26.2370   21.8090 C   0  0  0  0  0  2  0  0  0  0  0  0
  -19.8330  -28.3310   23.0640 C   0  0  0  0  0  0  0  0  0  0  0  0
  -19.5210  -29.5480   23.7090 C   0  0  0  0  0  3  0  0  0  0  0  0
  -18.1850  -29.9680   23.8430 C   0  0  0  0  0  3  0  0  0  0  0  0
  -17.1420  -29.1700   23.3410 C   0  0  0  0  0  3  0  0  0  0  0  0
  -17.4390  -27.9570   22.6960 C   0  0  0  0  0  3  0  0  0  0  0  0
  -26.0070  -32.5940   24.1190 C   0  0  0  0  0  3  0  0  0  0  0  0
  -25.5730  -33.9900   24.2680 N   0  0  0  0  0  0  0  0  0  0  0  0
  -25.9740  -34.9990   23.4830 C   0  0  0  0  0  0  0  0  0  0  0  0
  -26.8120  -34.8590   22.5880 O   0  0  0  0  0  0  0  0  0  0  0  0
  -24.8430  -34.1680   24.9440 H   0  0  0  0  0  0  0  0  0  0  0  0
  -24.2300  -36.6300   22.6970 C   0  0  0  0  0  1  0  0  0  0  0  0
  -25.3420  -36.3830   23.7270 C   0  0  0  0  0  3  0  0  0  0  0  0
  -27.2700  -37.4650   24.7940 C   0  0  0  0  0  1  0  0  0  0  0  0
  -26.3200  -37.4920   23.6840 N   0  0  0  0  0  0  0  0  0  0  0  0
  -25.8460  -38.3910   23.6960 H   0  0  0  0  0  0  0  0  0  0  0  0
  -26.3530  -31.9640   25.5240 C   0  0  1  0  0  0  0  0  0  0  0  0
  -25.1140  -31.7180   26.4150 C   0  0  0  0  0  1  0  0  0  0  0  0
  -27.0820  -30.6120   25.3500 C   0  0  0  0  0  1  0  0  0  0  0  0
  -27.3250  -32.8930   26.2900 C   0  0  0  0  0  1  0  0  0  0  0  0
  1  4  1  0
  2  1  2  0
  3  5  2  0
  3  2  1  0
  4  9  1  0
  5  7  1  0
  6  5  1  0
  7  4  2  0
  9  8  1  0
 10  9  1  0
 11 17  1  0
 12 17  1  0
 13 14  1  0
 13 12  1  0
 15 14  1  0
 15 24  1  0
 15 16  1  0
 17 16  1  0
 18 11  2  0
 19 11  1  0
 19 10  1  0
 20 19  1  0
 21 22  2  0
 22 41  1  0
 23 22  1  0
 23 26  1  0
 24 25  1  0
 24 21  1  0
 25 23  2  0
 26 27  1  0
 27 28  2  0
 29 32  1  0
 29 28  1  0
 30 29  2  0
 31 30  1  0
 31 26  2  0
 32 33  1  0
 33 34  1  0
 34 35  2  0
 36 35  1  0
 36 40  1  0
 37 36  2  0
 38 33  2  0
 38 37  1  0
 39 38  1  0
 41 42  1  0
 42 45  1  0
 42 44  1  0
 43 41  2  0
 46 21  1  0
 46 47  1  0
 48 46  1  0
 49 50  1  0
 50  3  1  0
 51  2  1  0
 51 52  1  0
 52 53  1  0
 54 55  1  0
 54 53  1  0
 56 67  2  0
 57 55  1  0
 57 62  1  0
 58 66  1  0
 58 68  1  0
 59 61  1  0
 60 66  1  0
 61 62  2  0
 61 60  1  0
 63 57  2  0
 64 63  1  0
 64 59  2  0
 65 59  1  0
 65 58  1  0
 66 56  1  0
 68 70  2  0
 69 68  1  0
 71 69  1  0
 72 81  2  0
 72 77  1  0
 73 69  1  0
 73 77  1  0
 74 73  1  0
 75 76  1  0
 75 74  1  0
 76 72  1  0
 77 78  2  0
 78 79  1  0
 80 79  2  0
 81 80  1  0
 82 56  1  0
 82 83  1  0
 82 92  1  0
 83 86  1  0
 84 88  1  0
 84 83  1  0
 85 84  2  0
 88 87  1  0
 90 91  1  0
 90 88  1  0
 90 89  1  0
 92 95  1  1
 92 93  1  0
 94 92  1  0
M  ISO  4  11 100  19 100  54 101  55 101
M  END
>  <TORSDO>  (26) 
F 23

>  <SCORE>  (26) 
-9.775

>  <name>  (26) 
25

>  <ligand_id>  (26) 
25

>  <original_smiles>  (26) 
[H]c1c([H])c([H])c2c(c1[H])C([H])([H])C([H])([H])C([H])([H])C2([H])N([H])C(=O)C1([H])N(C(=O)C([H])(N([H])C(=O)C([H])(N([H])C([H])([H])[H])C([H])([H])[H])C(C([H])([H])[H])(C([H])([H])[H])C([H])([H])[H])C([H])([H])c2c([H])c(OC([H])([H])C([H])([H])C([H])([H])C([H])([H])c3c([H])c(C([H])(C([H])([H])[H])C([H])([H])N([H])C(=O)N4C([H])([H])C([H])([H])C([H])([H])C([H])(n5nc(-c6c([H])c([H])c(Oc7c([H])c([H])c(F)c([H])c7F)c([H])c6[H])c(C(=O)N([H])[H])c5N([H])[H])C4([H])[H])nc(C([H])([H])[H])c3C([H])([H])C([H])([H])[H])c([H])c([H])c2C1([H])[H]

>  <smiles>  (26) 
[H]c1c([H])c([H])c2c(c1[H])C([H])([H])C([H])([H])C([H])([H])C2([H])N([H])C(=O)C1([H])N(C(=O)C([H])(N([H])C(=O)C([H])(N([H])C([H])([H])[H])C([H])([H])[H])C(C([H])([H])[H])(C([H])([H])[H])C([H])([H])[H])C([H])([H])c2c([H])c(OC([H])([H])C([H])([H])C([H])([H])C([H])([H])c3c([H])c(C([H])(C([H])([H])[H])C([H])([H])N([H])C(=O)N4C([H])([H])C([H])([H])C([H])([H])C([H])(n5nc(-c6c([H])c([H])c(Oc7c([H])c([H])c(F)c([H])c7F)c([H])c6[H])c(C(=O)N([H])[H])c5N([H])[H])C4([H])[H])nc(C([H])([H])[H])c3C([H])([H])C([H])([H])[H])c([H])c([H])c2C1([H])[H]

$$$$
27:0:0
     RDKit          3D

 90 97  0  0  1  0  0  0  0  0999 V2000
  -30.2530  -22.8130   21.6570 C   0  0  0  0  0  1  0  0  0  0  0  0
  -28.9440  -22.4780   20.9100 C   0  0  0  0  0  3  0  0  0  0  0  0
  -29.2200  -21.1460   20.0560 C   0  0  0  0  0  2  0  0  0  0  0  0
  -29.1080  -19.7100   20.7500 C   0  0  0  0  0  2  0  0  0  0  0  0
  -31.3800  -18.6950   20.8860 C   0  0  0  0  0  1  0  0  0  0  0  0
  -30.0570  -18.6350   20.2320 N   0  0  1  0  0  4  0  0  0  0  0  0
  -30.2360  -18.9600   19.2910 H   0  0  0  0  0  0  0  0  0  0  0  0
  -29.5600  -17.2110   19.9620 C   0  0  0  0  0  2  0  0  0  0  0  0
  -29.8670  -15.9920   20.9610 C   0  0  0  0  0  2  0  0  0  0  0  0
  -30.5810  -14.6900   20.3910 C   0  0  0  0  0  0  0  0  0  0  0  0
  -30.3750  -12.4550   19.3090 C   0  0  0  0  0  2  0  0  0  0  0  0
  -29.4240  -12.5890   18.0980 C   0  0  0  0  0  2  0  0  0  0  0  0
  -27.9520  -12.4270   18.5290 C   0  0  0  0  0  2  0  0  0  0  0  0
  -27.6050  -13.2760   19.7820 C   0  0  0  0  0  3  0  0  0  0  0  0
  -28.6670  -13.1040   20.8870 C   0  0  0  0  0  2  0  0  0  0  0  0
  -29.9690  -13.4640   20.3120 N   0  0  0  0  0  0  0  0  0  0  0  0
  -31.7190  -14.8320   19.9360 O   0  0  0  0  0  0  0  0  0  0  0  0
  -25.2140  -13.8740   20.5020 C   0  0  0  0  0  0  0  0  0  0  0  0
  -24.1490  -13.1010   20.8820 C   0  0  0  0  0  0  0  0  0  0  0  0
  -24.6120  -11.7500   20.8560 C   0  0  0  0  0  0  0  0  0  0  0  0
  -26.2590  -12.9930   20.2700 N   0  0  0  0  0  0  0  0  0  0  0  0
  -25.9020  -11.7100   20.5400 N   0  0  0  0  0  0  0  0  0  0  0  0
  -23.8870  -10.4890   21.0570 C   0  0  0  0  0  0  0  0  0  0  0  0
  -24.3380   -9.5150   21.9740 C   0  0  0  0  0  3  0  0  0  0  0  0
  -23.6130   -8.3190   22.1610 C   0  0  0  0  0  3  0  0  0  0  0  0
  -22.4220   -8.0900   21.4310 C   0  0  0  0  0  0  0  0  0  0  0  0
  -21.9900   -9.0520   20.5000 C   0  0  0  0  0  3  0  0  0  0  0  0
  -22.7170  -10.2400   20.3120 C   0  0  0  0  0  3  0  0  0  0  0  0
  -21.6660   -6.9470   21.5280 O   0  0  0  0  0  0  0  0  0  0  0  0
  -21.6550   -6.1850   22.6700 C   0  0  0  0  0  0  0  0  0  0  0  0
  -21.2950   -6.7260   23.9220 C   0  0  0  0  0  3  0  0  0  0  0  0
  -21.2310   -5.8920   25.0580 C   0  0  0  0  0  3  0  0  0  0  0  0
  -21.5170   -4.5190   24.9390 C   0  0  0  0  0  0  0  0  0  0  0  0
  -21.8730   -3.9770   23.6910 C   0  0  0  0  0  3  0  0  0  0  0  0
  -21.9390   -4.8080   22.5590 C   0  0  0  0  0  0  0  0  0  0  0  0
  -22.2610   -4.2770   21.3540 F   0  0  0  0  0  0  0  0  0  0  0  0
  -21.4510   -3.7160   26.0280 F   0  0  0  0  0  0  0  0  0  0  0  0
  -22.7540  -13.5810   21.1610 C   0  0  0  0  0  0  0  0  0  0  0  0
  -22.0320  -12.8880   22.0360 N   0  0  0  0  0  0  0  0  0  0  0  0
  -22.3110  -14.6020   20.6390 O   0  0  0  0  0  0  0  0  0  0  0  0
  -22.4030  -12.0600   22.4760 H   0  0  0  0  0  0  0  0  0  0  0  0
  -21.0970  -13.1880   22.2680 H   0  0  0  0  0  0  0  0  0  0  0  0
  -25.3810  -15.2430   20.3150 N   0  0  0  0  0  0  0  0  0  0  0  0
  -24.6150  -15.9010   20.4100 H   0  0  0  0  0  0  0  0  0  0  0  0
  -26.2300  -15.6680   19.9640 H   0  0  0  0  0  0  0  0  0  0  0  0
  -28.3000  -23.7590   20.1530 C   0  0  0  0  0  3  0  0  0  0  0  0
  -26.5460  -22.6700   18.5080 C   0  0  0  0  0  1  0  0  0  0  0  0
  -26.8220  -23.4020   19.8310 C   0  0  0  0  0  2  0  0  0  0  0  0
  -28.3050  -25.2020   20.8940 C   0  0  0  0  0  2  0  0  0  0  0  0
  -28.3380  -26.4960   20.1560 O   0  0  0  0  0  0  0  0  0  0  0  0
  -24.6260  -31.9030   23.2440 C   0  0  0  0  0  0  0  0  0  0  0  0
  -27.2210  -27.3450   20.1820 C   0  0  0  0  0  0  0  0  0  0  0  0
  -23.4100  -30.5030   21.6150 C   0  0  0  0  0  3  0  0  0  0  0  0
  -24.8540  -28.9520   20.1810 C   0  0  0  0  0  0  0  0  0  0  0  0
  -25.9460  -30.8220   21.4140 C   0  0  0  0  0  2  0  0  0  0  0  0
  -26.0250  -29.4410   20.7770 C   0  0  0  0  0  0  0  0  0  0  0  0
  -27.2130  -28.6460   20.7740 C   0  0  0  0  0  3  0  0  0  0  0  0
  -26.0460  -26.9360   19.5220 C   0  0  0  0  0  3  0  0  0  0  0  0
  -24.8680  -27.7040   19.5410 C   0  0  0  0  0  3  0  0  0  0  0  0
  -23.6140  -29.8240   20.2350 C   0  0  0  0  0  2  0  0  0  0  0  0
  -24.6800  -31.0910   22.1500 N   0  0  0  0  0  0  0  0  0  0  0  0
  -23.5470  -32.1840   23.7860 O   0  0  0  0  0  0  0  0  0  0  0  0
  -22.7590  -29.4840   22.5820 C   0  0  0  0  0  0  0  0  0  0  0  0
  -21.4330  -29.3040   22.4600 N   0  0  0  0  0  0  0  0  0  0  0  0
  -23.4450  -28.8640   23.4010 O   0  0  0  0  0  0  0  0  0  0  0  0
  -20.9410  -29.8530   21.7690 H   0  0  0  0  0  0  0  0  0  0  0  0
  -18.0640  -28.0930   22.9730 C   0  0  0  0  0  0  0  0  0  0  0  0
  -20.6230  -28.3680   23.2370 C   0  0  0  0  0  3  0  0  0  0  0  0
  -20.7300  -26.9340   22.6720 C   0  0  0  0  0  2  0  0  0  0  0  0
  -19.6270  -26.5980   21.6610 C   0  0  0  0  0  2  0  0  0  0  0  0
  -18.2460  -26.7400   22.3060 C   0  0  0  0  0  2  0  0  0  0  0  0
  -19.1810  -28.8640   23.3970 C   0  0  0  0  0  0  0  0  0  0  0  0
  -18.9570  -30.1290   23.9840 C   0  0  0  0  0  3  0  0  0  0  0  0
  -17.6510  -30.6260   24.1480 C   0  0  0  0  0  3  0  0  0  0  0  0
  -16.5500  -29.8530   23.7400 C   0  0  0  0  0  3  0  0  0  0  0  0
  -16.7580  -28.5890   23.1600 C   0  0  0  0  0  3  0  0  0  0  0  0
  -25.9150  -32.5350   23.8540 C   0  0  0  0  0  3  0  0  0  0  0  0
  -25.6060  -33.9320   24.1920 N   0  0  0  0  0  0  0  0  0  0  0  0
  -25.9240  -34.9890   23.4330 C   0  0  0  0  0  0  0  0  0  0  0  0
  -26.5810  -34.8920   22.3930 O   0  0  0  0  0  0  0  0  0  0  0  0
  -25.0140  -34.0800   24.9980 H   0  0  0  0  0  0  0  0  0  0  0  0
  -24.1820  -36.7760   23.1110 C   0  0  0  0  0  1  0  0  0  0  0  0
  -25.4370  -36.3740   23.9010 C   0  0  0  0  0  3  0  0  0  0  0  0
  -27.5810  -37.2670   24.6980 C   0  0  0  0  0  1  0  0  0  0  0  0
  -26.4630  -37.4320   23.7740 N   0  0  0  0  0  0  0  0  0  0  0  0
  -26.0560  -38.3500   23.9280 H   0  0  0  0  0  0  0  0  0  0  0  0
  -26.4470  -31.7590   25.1210 C   0  0  1  0  0  0  0  0  0  0  0  0
  -25.3650  -31.5170   26.1980 C   0  0  0  0  0  1  0  0  0  0  0  0
  -27.0260  -30.3820   24.7170 C   0  0  0  0  0  1  0  0  0  0  0  0
  -27.6030  -32.5540   25.7720 C   0  0  0  0  0  1  0  0  0  0  0  0
  2  1  1  0
  3  4  1  0
  3  2  1  0
  6  4  1  0
  6  5  1  0
  6  7  1  6
  8  6  1  0
  8  9  1  0
 10  9  1  0
 11 16  1  0
 12 13  1  0
 12 11  1  0
 14 13  1  0
 14 21  1  0
 14 15  1  0
 16 10  1  0
 16 15  1  0
 17 10  2  0
 18 19  2  0
 19 38  1  0
 20 19  1  0
 20 23  1  0
 21 18  1  0
 21 22  1  0
 22 20  2  0
 23 24  1  0
 24 25  2  0
 26 29  1  0
 26 25  1  0
 27 26  2  0
 28 27  1  0
 28 23  2  0
 29 30  1  0
 30 31  1  0
 31 32  2  0
 33 32  1  0
 33 37  1  0
 34 33  2  0
 35 30  2  0
 35 34  1  0
 36 35  1  0
 38 39  1  0
 39 42  1  0
 39 41  1  0
 40 38  2  0
 43 44  1  0
 43 18  1  0
 45 43  1  0
 46 48  1  0
 46 49  1  0
 46  2  1  0
 47 48  1  0
 50 52  1  0
 50 49  1  0
 51 62  2  0
 52 57  1  0
 53 61  1  0
 53 63  1  0
 54 60  1  0
 54 56  1  0
 55 61  1  0
 56 55  1  0
 57 56  2  0
 58 59  1  0
 58 52  2  0
 59 54  2  0
 60 53  1  0
 61 51  1  0
 63 65  2  0
 64 63  1  0
 66 64  1  0
 67 76  2  0
 67 72  1  0
 68 64  1  0
 68 72  1  0
 69 68  1  0
 70 71  1  0
 70 69  1  0
 71 67  1  0
 72 73  2  0
 73 74  1  0
 75 74  2  0
 76 75  1  0
 77 51  1  0
 77 78  1  0
 77 87  1  0
 78 81  1  0
 79 83  1  0
 79 78  1  0
 80 79  2  0
 83 82  1  0
 85 83  1  0
 85 86  1  0
 85 84  1  0
 87 90  1  1
 87 88  1  0
 89 87  1  0
M  ISO  4   9 100  10 100  49 101  50 101
M  END
>  <TORSDO>  (27) 
F 24

>  <SCORE>  (27) 
-12.526

>  <name>  (27) 
27

>  <ligand_id>  (27) 
27

>  <original_smiles>  (27) 
[H]c1c([H])c([H])c2c(c1[H])C([H])([H])C([H])([H])C([H])([H])C2([H])N([H])C(=O)C1([H])N(C(=O)C([H])(N([H])C(=O)C([H])(N([H])C([H])([H])[H])C([H])([H])[H])C(C([H])([H])[H])(C([H])([H])[H])C([H])([H])[H])C([H])([H])c2c([H])c(OC([H])([H])C([H])(C([H])([H])C([H])([H])[H])C([H])(C([H])([H])[H])C([H])([H])C([H])([H])[N+]([H])(C([H])([H])[H])C([H])([H])C([H])([H])C(=O)N3C([H])([H])C([H])([H])C([H])([H])C([H])(n4nc(-c5c([H])c([H])c(Oc6c([H])c([H])c(F)c([H])c6F)c([H])c5[H])c(C(=O)N([H])[H])c4N([H])[H])C3([H])[H])c([H])c([H])c2C1([H])[H]

>  <smiles>  (27) 
[H]c1c([H])c([H])c2c(c1[H])C([H])([H])C([H])([H])C([H])([H])C2([H])N([H])C(=O)C1([H])N(C(=O)C([H])(N([H])C(=O)C([H])(N([H])C([H])([H])[H])C([H])([H])[H])C(C([H])([H])[H])(C([H])([H])[H])C([H])([H])[H])C([H])([H])c2c([H])c(OC([H])([H])C([H])(C([H])([H])C([H])([H])[H])C([H])(C([H])([H])[H])C([H])([H])C([H])([H])[N+]([H])(C([H])([H])[H])C([H])([H])C([H])([H])C(=O)N3C([H])([H])C([H])([H])C([H])([H])C([H])(n4nc(-c5c([H])c([H])c(Oc6c([H])c([H])c(F)c([H])c6F)c([H])c5[H])c(C(=O)N([H])[H])c4N([H])[H])C3([H])[H])c([H])c([H])c2C1([H])[H]

$$$$
28:0:0
     RDKit          3D

 93101  0  0  1  0  0  0  0  0999 V2000
  -29.4700  -21.7520   20.1020 C   0  0  0  0  0  3  0  0  0  0  0  0
  -31.7490  -22.7990   21.1990 C   0  0  0  0  0  3  0  0  0  0  0  0
  -30.5510  -20.8610   20.3420 C   0  0  0  0  0  0  0  0  0  0  0  0
  -31.7330  -21.4250   20.8930 C   0  0  0  0  0  0  0  0  0  0  0  0
  -29.6140  -23.1370   20.3640 C   0  0  0  0  0  0  0  0  0  0  0  0
  -33.0290  -20.6540   21.1090 C   0  0  0  0  0  1  0  0  0  0  0  0
  -30.7390  -23.6360   20.9140 N   0  0  0  0  0  0  0  0  0  0  0  0
  -30.4940  -19.4230   19.7760 C   0  0  0  0  0  2  0  0  0  0  0  0
  -31.0100  -18.0180   21.8880 C   0  0  0  0  0  1  0  0  0  0  0  0
  -28.6420  -18.3210   21.1560 C   0  0  0  0  0  1  0  0  0  0  0  0
  -30.0940  -18.1830   20.6620 C   0  0  1  0  0  0  0  0  0  0  0  0
  -30.2270  -16.9200   19.7460 C   0  0  0  0  0  2  0  0  0  0  0  0
  -30.7670  -14.5040   20.0260 C   0  0  0  0  0  0  0  0  0  0  0  0
  -30.3970  -12.3590   18.8890 C   0  0  0  0  0  2  0  0  0  0  0  0
  -29.4190  -12.6230   17.7270 C   0  0  0  0  0  2  0  0  0  0  0  0
  -27.9580  -12.5020   18.2060 C   0  0  0  0  0  2  0  0  0  0  0  0
  -27.6820  -13.2960   19.5120 C   0  0  0  0  0  3  0  0  0  0  0  0
  -28.7820  -13.0420   20.5690 C   0  0  0  0  0  2  0  0  0  0  0  0
  -30.0840  -13.3300   19.9500 N   0  0  0  0  0  0  0  0  0  0  0  0
  -31.9040  -14.6380   19.5640 O   0  0  0  0  0  0  0  0  0  0  0  0
  -30.0310  -15.5870   20.3620 N   0  0  0  0  0  0  0  0  0  0  0  0
  -29.1180  -15.3970   20.7470 H   0  0  0  0  0  0  0  0  0  0  0  0
  -25.3070  -13.9020   20.2930 C   0  0  0  0  0  0  0  0  0  0  0  0
  -24.2540  -13.1320   20.7080 C   0  0  0  0  0  0  0  0  0  0  0  0
  -24.7150  -11.7810   20.6730 C   0  0  0  0  0  0  0  0  0  0  0  0
  -26.3450  -13.0210   20.0370 N   0  0  0  0  0  0  0  0  0  0  0  0
  -25.9950  -11.7390   20.3220 N   0  0  0  0  0  0  0  0  0  0  0  0
  -23.9950  -10.5210   20.9020 C   0  0  0  0  0  0  0  0  0  0  0  0
  -24.4380   -9.5840   21.8620 C   0  0  0  0  0  3  0  0  0  0  0  0
  -23.7190   -8.3890   22.0790 C   0  0  0  0  0  3  0  0  0  0  0  0
  -22.5430   -8.1220   21.3360 C   0  0  0  0  0  0  0  0  0  0  0  0
  -22.1210   -9.0480   20.3660 C   0  0  0  0  0  3  0  0  0  0  0  0
  -22.8410  -10.2350   20.1460 C   0  0  0  0  0  3  0  0  0  0  0  0
  -21.7970   -6.9750   21.4590 O   0  0  0  0  0  0  0  0  0  0  0  0
  -21.7290   -6.2830   22.6420 C   0  0  0  0  0  0  0  0  0  0  0  0
  -21.2650   -6.8840   23.8330 C   0  0  0  0  0  3  0  0  0  0  0  0
  -21.1460   -6.1190   25.0100 C   0  0  0  0  0  3  0  0  0  0  0  0
  -21.4830   -4.7510   24.9970 C   0  0  0  0  0  0  0  0  0  0  0  0
  -21.9410   -4.1500   23.8120 C   0  0  0  0  0  3  0  0  0  0  0  0
  -22.0610   -4.9140   22.6390 C   0  0  0  0  0  0  0  0  0  0  0  0
  -22.4820   -4.3250   21.4930 F   0  0  0  0  0  0  0  0  0  0  0  0
  -21.3640   -4.0130   26.1240 F   0  0  0  0  0  0  0  0  0  0  0  0
  -22.8670  -13.6120   21.0240 C   0  0  0  0  0  0  0  0  0  0  0  0
  -22.1700  -12.9250   21.9210 N   0  0  0  0  0  0  0  0  0  0  0  0
  -22.4080  -14.6310   20.5080 O   0  0  0  0  0  0  0  0  0  0  0  0
  -22.5520  -12.1010   22.3620 H   0  0  0  0  0  0  0  0  0  0  0  0
  -21.2380  -13.2280   22.1690 H   0  0  0  0  0  0  0  0  0  0  0  0
  -25.4620  -15.2720   20.0940 N   0  0  0  0  0  0  0  0  0  0  0  0
  -24.6950  -15.9240   20.2170 H   0  0  0  0  0  0  0  0  0  0  0  0
  -26.2960  -15.7150   19.7310 H   0  0  0  0  0  0  0  0  0  0  0  0
  -28.6320  -24.1860   19.8170 C   0  0  0  0  0  2  0  0  0  0  0  0
  -28.2580  -25.3520   20.7760 C   0  0  0  0  0  2  0  0  0  0  0  0
  -28.3610  -26.6490   20.1490 O   0  0  0  0  0  0  0  0  0  0  0  0
  -24.5750  -31.8530   23.2000 C   0  0  0  0  0  0  0  0  0  0  0  0
  -27.2090  -27.3990   20.1400 C   0  0  0  0  0  0  0  0  0  0  0  0
  -23.3750  -30.4620   21.5440 C   0  0  0  0  0  3  0  0  0  0  0  0
  -24.8290  -28.9190   20.1250 C   0  0  0  0  0  0  0  0  0  0  0  0
  -25.9020  -30.8110   21.3620 C   0  0  0  0  0  2  0  0  0  0  0  0
  -25.9860  -29.4410   20.7190 C   0  0  0  0  0  0  0  0  0  0  0  0
  -27.1850  -28.6910   20.7120 C   0  0  0  0  0  3  0  0  0  0  0  0
  -26.0380  -26.8910   19.5400 C   0  0  0  0  0  3  0  0  0  0  0  0
  -24.8510  -27.6460   19.5300 C   0  0  0  0  0  3  0  0  0  0  0  0
  -23.5850  -29.7790   20.1660 C   0  0  0  0  0  2  0  0  0  0  0  0
  -24.6360  -31.0560   22.0930 N   0  0  0  0  0  0  0  0  0  0  0  0
  -23.4910  -32.1280   23.7310 O   0  0  0  0  0  0  0  0  0  0  0  0
  -22.7110  -29.4410   22.4970 C   0  0  0  0  0  0  0  0  0  0  0  0
  -21.3870  -29.2670   22.3580 N   0  0  0  0  0  0  0  0  0  0  0  0
  -23.3870  -28.8090   23.3150 O   0  0  0  0  0  0  0  0  0  0  0  0
  -20.9050  -29.8290   21.6700 H   0  0  0  0  0  0  0  0  0  0  0  0
  -18.0020  -28.0900   22.8240 C   0  0  0  0  0  0  0  0  0  0  0  0
  -20.5600  -28.3290   23.1170 C   0  0  0  0  0  3  0  0  0  0  0  0
  -20.6560  -26.9000   22.5350 C   0  0  0  0  0  2  0  0  0  0  0  0
  -19.5600  -26.5890   21.5110 C   0  0  0  0  0  2  0  0  0  0  0  0
  -18.1750  -26.7420   22.1430 C   0  0  0  0  0  2  0  0  0  0  0  0
  -19.1230  -28.8420   23.2670 C   0  0  0  0  0  0  0  0  0  0  0  0
  -18.9090  -30.1050   23.8610 C   0  0  0  0  0  3  0  0  0  0  0  0
  -17.6070  -30.6170   24.0150 C   0  0  0  0  0  3  0  0  0  0  0  0
  -16.5000  -29.8610   23.5910 C   0  0  0  0  0  3  0  0  0  0  0  0
  -16.6990  -28.5990   23.0030 C   0  0  0  0  0  3  0  0  0  0  0  0
  -25.8600  -32.4730   23.8330 C   0  0  0  0  0  3  0  0  0  0  0  0
  -25.5540  -33.8710   24.1690 N   0  0  0  0  0  0  0  0  0  0  0  0
  -25.8950  -34.9250   23.4150 C   0  0  0  0  0  0  0  0  0  0  0  0
  -26.5710  -34.8230   22.3880 O   0  0  0  0  0  0  0  0  0  0  0  0
  -24.9530  -34.0230   24.9650 H   0  0  0  0  0  0  0  0  0  0  0  0
  -24.1750  -36.7230   23.0570 C   0  0  0  0  0  1  0  0  0  0  0  0
  -25.4100  -36.3130   23.8760 C   0  0  0  0  0  3  0  0  0  0  0  0
  -27.5420  -37.1880   24.7240 C   0  0  0  0  0  1  0  0  0  0  0  0
  -26.4490  -37.3630   23.7710 N   0  0  0  0  0  0  0  0  0  0  0  0
  -26.0460  -38.2850   23.9150 H   0  0  0  0  0  0  0  0  0  0  0  0
  -26.3660  -31.6920   25.1070 C   0  0  1  0  0  0  0  0  0  0  0  0
  -25.2630  -31.4490   26.1620 C   0  0  0  0  0  1  0  0  0  0  0  0
  -26.9520  -30.3180   24.7090 C   0  0  0  0  0  1  0  0  0  0  0  0
  -27.5160  -32.4780   25.7810 C   0  0  0  0  0  1  0  0  0  0  0  0
  1  3  2  0
  1  5  1  0
  3  4  1  0
  4  6  1  0
  4  2  2  0
  5  7  2  0
  7  2  1  0
  8  3  1  0
  8 11  1  0
 11 10  1  1
 11  9  1  0
 12 21  1  0
 12 11  1  0
 13 21  1  0
 14 19  1  0
 15 16  1  0
 15 14  1  0
 17 16  1  0
 17 26  1  0
 17 18  1  0
 19 13  1  0
 19 18  1  0
 20 13  2  0
 21 22  1  0
 23 24  2  0
 24 43  1  0
 25 24  1  0
 25 28  1  0
 26 23  1  0
 26 27  1  0
 27 25  2  0
 28 29  1  0
 29 30  2  0
 31 34  1  0
 31 30  1  0
 32 31  2  0
 33 32  1  0
 33 28  2  0
 34 35  1  0
 35 36  1  0
 36 37  2  0
 38 37  1  0
 38 42  1  0
 39 38  2  0
 40 35  2  0
 40 39  1  0
 41 40  1  0
 43 44  1  0
 44 47  1  0
 44 46  1  0
 45 43  2  0
 48 49  1  0
 48 23  1  0
 50 48  1  0
 51  5  1  0
 51 52  1  0
 53 52  1  0
 54 65  2  0
 55 53  1  0
 55 60  1  0
 56 64  1  0
 56 66  1  0
 57 63  1  0
 57 59  1  0
 58 64  1  0
 59 58  1  0
 60 59  2  0
 61 55  2  0
 62 61  1  0
 62 57  2  0
 63 56  1  0
 64 54  1  0
 66 68  2  0
 67 66  1  0
 69 67  1  0
 70 79  2  0
 70 75  1  0
 71 67  1  0
 71 75  1  0
 72 71  1  0
 73 74  1  0
 73 72  1  0
 74 70  1  0
 75 76  2  0
 76 77  1  0
 78 77  2  0
 79 78  1  0
 80 54  1  0
 80 81  1  0
 80 90  1  0
 81 84  1  0
 82 86  1  0
 82 81  1  0
 83 82  2  0
 86 85  1  0
 88 86  1  0
 88 89  1  0
 88 87  1  0
 90 93  1  1
 90 91  1  0
 92 90  1  0
M  ISO  4  13 100  21 100  52 101  53 101
M  END
>  <TORSDO>  (28) 
F 21

>  <SCORE>  (28) 
-12.794

>  <name>  (28) 
28

>  <ligand_id>  (28) 
28

>  <original_smiles>  (28) 
[H]c1nc(C([H])([H])C([H])([H])Oc2c([H])c([H])c3c(c2[H])C([H])([H])N(C(=O)C([H])(N([H])C(=O)C([H])(N([H])C([H])([H])[H])C([H])([H])[H])C(C([H])([H])[H])(C([H])([H])[H])C([H])([H])[H])C([H])(C(=O)N([H])C2([H])c4c([H])c([H])c([H])c([H])c4C([H])([H])C([H])([H])C2([H])[H])C3([H])[H])c([H])c(C([H])([H])C(C([H])([H])[H])(C([H])([H])[H])C([H])([H])N([H])C(=O)N2C([H])([H])C([H])([H])C([H])([H])C([H])(n3nc(-c4c([H])c([H])c(Oc5c([H])c([H])c(F)c([H])c5F)c([H])c4[H])c(C(=O)N([H])[H])c3N([H])[H])C2([H])[H])c1C([H])([H])[H]

>  <smiles>  (28) 
[H]c1nc(C([H])([H])C([H])([H])Oc2c([H])c([H])c3c(c2[H])C([H])([H])N(C(=O)C([H])(N([H])C(=O)C([H])(N([H])C([H])([H])[H])C([H])([H])[H])C(C([H])([H])[H])(C([H])([H])[H])C([H])([H])[H])C([H])(C(=O)N([H])C2([H])c4c([H])c([H])c([H])c([H])c4C([H])([H])C([H])([H])C2([H])[H])C3([H])[H])c([H])c(C([H])([H])C(C([H])([H])[H])(C([H])([H])[H])C([H])([H])N([H])C(=O)N2C([H])([H])C([H])([H])C([H])([H])C([H])(n3nc(-c4c([H])c([H])c(Oc5c([H])c([H])c(F)c([H])c5F)c([H])c4[H])c(C(=O)N([H])[H])c3N([H])[H])C2([H])[H])c1C([H])([H])[H]

$$$$
29:0:0
     RDKit          3D

 98106  0  0  1  0  0  0  0  0999 V2000
  -29.3670  -23.4840   21.7910 C   0  0  0  0  0  3  0  0  0  0  0  0
  -29.7570  -23.1730   23.1000 C   0  0  0  0  0  0  0  0  0  0  0  0
  -29.3260  -22.4890   20.7880 C   0  0  0  0  0  0  0  0  0  0  0  0
  -30.1590  -21.8540   23.3690 C   0  0  0  0  0  0  0  0  0  0  0  0
  -29.7600  -21.1630   21.1550 C   0  0  0  0  0  0  0  0  0  0  0  0
  -30.5620  -21.3970   24.7580 C   0  0  0  0  0  1  0  0  0  0  0  0
  -30.1910  -20.9070   22.4130 N   0  0  0  0  0  0  0  0  0  0  0  0
  -29.6920  -24.2640   24.1610 C   0  0  0  0  0  2  0  0  0  0  0  0
  -28.2450  -24.7170   24.4300 C   0  0  0  0  0  2  0  0  0  0  0  0
  -28.0600  -26.2410   24.3420 C   0  0  0  0  0  2  0  0  0  0  0  0
  -26.3510  -28.0160   23.7410 C   0  0  0  0  0  1  0  0  0  0  0  0
  -26.1310  -26.7640   25.9220 C   0  0  0  0  0  1  0  0  0  0  0  0
  -26.5870  -26.6800   24.4570 C   0  0  0  0  0  3  0  0  0  0  0  0
  -29.9160  -19.9340   20.2080 C   0  0  0  0  0  2  0  0  0  0  0  0
  -29.8330  -18.5010   20.8920 C   0  0  0  0  0  3  0  0  0  0  0  0
  -30.1490  -17.2220   20.0140 C   0  0  0  0  0  3  0  0  0  0  0  0
  -30.9420  -14.8340   20.1070 C   0  0  0  0  0  0  0  0  0  0  0  0
  -30.6380  -12.6460   18.9670 C   0  0  0  0  0  2  0  0  0  0  0  0
  -29.6470  -12.8040   17.7940 C   0  0  0  0  0  2  0  0  0  0  0  0
  -28.1940  -12.6290   18.2770 C   0  0  0  0  0  2  0  0  0  0  0  0
  -27.8850  -13.4620   19.5500 C   0  0  0  0  0  3  0  0  0  0  0  0
  -28.9880  -13.2840   20.6170 C   0  0  0  0  0  2  0  0  0  0  0  0
  -30.2760  -13.6390   20.0010 N   0  0  0  0  0  0  0  0  0  0  0  0
  -32.0110  -15.0210   19.5170 O   0  0  0  0  0  0  0  0  0  0  0  0
  -30.3140  -15.9280   22.1730 C   0  0  0  0  0  1  0  0  0  0  0  0
  -30.2930  -15.8870   20.7040 N   0  0  0  0  0  0  0  0  0  0  0  0
  -25.5230  -14.0250   20.3940 C   0  0  0  0  0  0  0  0  0  0  0  0
  -24.4780  -13.2340   20.7880 C   0  0  0  0  0  0  0  0  0  0  0  0
  -24.9440  -11.8860   20.6910 C   0  0  0  0  0  0  0  0  0  0  0  0
  -26.5600  -13.1590   20.0850 N   0  0  0  0  0  0  0  0  0  0  0  0
  -26.2180  -11.8650   20.3200 N   0  0  0  0  0  0  0  0  0  0  0  0
  -24.2320  -10.6160   20.8730 C   0  0  0  0  0  0  0  0  0  0  0  0
  -24.6260   -9.6830   21.8580 C   0  0  0  0  0  3  0  0  0  0  0  0
  -23.9130   -8.4750   22.0280 C   0  0  0  0  0  3  0  0  0  0  0  0
  -22.7920   -8.1920   21.2110 C   0  0  0  0  0  0  0  0  0  0  0  0
  -22.4180   -9.1130   20.2170 C   0  0  0  0  0  3  0  0  0  0  0  0
  -23.1320  -10.3110   20.0460 C   0  0  0  0  0  3  0  0  0  0  0  0
  -22.0550   -7.0350   21.2880 O   0  0  0  0  0  0  0  0  0  0  0  0
  -21.7910   -6.4270   22.4890 C   0  0  0  0  0  0  0  0  0  0  0  0
  -21.1230   -7.1000   23.5340 C   0  0  0  0  0  3  0  0  0  0  0  0
  -20.8110   -6.4150   24.7260 C   0  0  0  0  0  3  0  0  0  0  0  0
  -21.1570   -5.0590   24.8700 C   0  0  0  0  0  0  0  0  0  0  0  0
  -21.8180   -4.3850   23.8280 C   0  0  0  0  0  3  0  0  0  0  0  0
  -22.1310   -5.0670   22.6390 C   0  0  0  0  0  0  0  0  0  0  0  0
  -22.7490   -4.4090   21.6290 F   0  0  0  0  0  0  0  0  0  0  0  0
  -20.8530   -4.3980   26.0120 F   0  0  0  0  0  0  0  0  0  0  0  0
  -23.0940  -13.6950   21.1430 C   0  0  0  0  0  0  0  0  0  0  0  0
  -22.4260  -12.9880   22.0480 N   0  0  0  0  0  0  0  0  0  0  0  0
  -22.6140  -14.7150   20.6530 O   0  0  0  0  0  0  0  0  0  0  0  0
  -22.8270  -12.1600   22.4670 H   0  0  0  0  0  0  0  0  0  0  0  0
  -21.4970  -13.2740   22.3230 H   0  0  0  0  0  0  0  0  0  0  0  0
  -25.6750  -15.4020   20.2550 N   0  0  0  0  0  0  0  0  0  0  0  0
  -24.9200  -16.0550   20.4320 H   0  0  0  0  0  0  0  0  0  0  0  0
  -26.5230  -15.8540   19.9350 H   0  0  0  0  0  0  0  0  0  0  0  0
  -28.8180  -22.9170   19.3900 C   0  0  0  0  0  2  0  0  0  0  0  0
  -27.9020  -24.2100   19.3130 C   0  0  0  0  0  2  0  0  0  0  0  0
  -28.5870  -25.5760   18.9550 C   0  0  0  0  0  2  0  0  0  0  0  0
  -28.3410  -26.7200   19.8200 O   0  0  0  0  0  0  0  0  0  0  0  0
  -24.5170  -31.8610   22.9800 C   0  0  0  0  0  0  0  0  0  0  0  0
  -27.1540  -27.4420   19.7980 C   0  0  0  0  0  0  0  0  0  0  0  0
  -23.2980  -30.4650   21.3430 C   0  0  0  0  0  3  0  0  0  0  0  0
  -24.7440  -28.9550   19.8700 C   0  0  0  0  0  0  0  0  0  0  0  0
  -25.8200  -30.8400   21.1110 C   0  0  0  0  0  2  0  0  0  0  0  0
  -25.9070  -29.4730   20.4500 C   0  0  0  0  0  0  0  0  0  0  0  0
  -27.1090  -28.7220   20.4150 C   0  0  0  0  0  3  0  0  0  0  0  0
  -25.9720  -26.9530   19.2000 C   0  0  0  0  0  3  0  0  0  0  0  0
  -24.7760  -27.6980   19.2410 C   0  0  0  0  0  3  0  0  0  0  0  0
  -23.4900  -29.7990   19.9520 C   0  0  0  0  0  2  0  0  0  0  0  0
  -24.5640  -31.0700   21.8690 N   0  0  0  0  0  0  0  0  0  0  0  0
  -23.4420  -32.1170   23.5410 O   0  0  0  0  0  0  0  0  0  0  0  0
  -22.6730  -29.4290   22.3040 C   0  0  0  0  0  0  0  0  0  0  0  0
  -21.3380  -29.2900   22.2510 N   0  0  0  0  0  0  0  0  0  0  0  0
  -23.3830  -28.7540   23.0540 O   0  0  0  0  0  0  0  0  0  0  0  0
  -20.8240  -29.8840   21.6150 H   0  0  0  0  0  0  0  0  0  0  0  0
  -17.9680  -28.1620   22.9010 C   0  0  0  0  0  0  0  0  0  0  0  0
  -20.5430  -28.3440   23.0330 C   0  0  0  0  0  3  0  0  0  0  0  0
  -20.5730  -26.9330   22.4000 C   0  0  0  0  0  2  0  0  0  0  0  0
  -19.4070  -26.6780   21.4390 C   0  0  0  0  0  2  0  0  0  0  0  0
  -18.0690  -26.8350   22.1670 C   0  0  0  0  0  2  0  0  0  0  0  0
  -19.1300  -28.8790   23.2930 C   0  0  0  0  0  0  0  0  0  0  0  0
  -18.9800  -30.1240   23.9410 C   0  0  0  0  0  3  0  0  0  0  0  0
  -17.7010  -30.6530   24.1960 C   0  0  0  0  0  3  0  0  0  0  0  0
  -16.5540  -29.9330   23.8180 C   0  0  0  0  0  3  0  0  0  0  0  0
  -16.6880  -28.6890   23.1790 C   0  0  0  0  0  3  0  0  0  0  0  0
  -25.8060  -32.5000   23.5840 C   0  0  0  0  0  3  0  0  0  0  0  0
  -26.4210  -31.6600   24.7690 C   0  0  1  0  0  0  0  0  0  0  0  0
  -25.3780  -31.2160   25.8210 C   0  0  0  0  0  1  0  0  0  0  0  0
  -27.1160  -30.3890   24.2300 C   0  0  0  0  0  1  0  0  0  0  0  0
  -27.5140  -32.4840   25.4890 C   0  0  0  0  0  1  0  0  0  0  0  0
  -25.4600  -33.8550   24.0360 N   0  0  0  0  0  0  0  0  0  0  0  0
  -25.7730  -34.9800   23.3780 C   0  0  0  0  0  0  0  0  0  0  0  0
  -26.4530  -34.9840   22.3480 O   0  0  0  0  0  0  0  0  0  0  0  0
  -24.8550  -33.9240   24.8420 H   0  0  0  0  0  0  0  0  0  0  0  0
  -24.0040  -36.7550   23.1650 C   0  0  0  0  0  1  0  0  0  0  0  0
  -25.2470  -36.3090   23.9520 C   0  0  0  0  0  3  0  0  0  0  0  0
  -27.3440  -37.1690   24.8940 C   0  0  0  0  0  1  0  0  0  0  0  0
  -26.2540  -37.3920   23.9470 N   0  0  0  0  0  0  0  0  0  0  0  0
  -25.8240  -38.2850   24.1640 H   0  0  0  0  0  0  0  0  0  0  0  0
  1  2  1  0
  2  4  2  0
  2  8  1  0
  3  5  1  0
  3  1  2  0
  4  6  1  0
  5  7  2  0
  7  4  1  0
  8  9  1  0
 10  9  1  0
 10 13  1  0
 11 13  1  0
 13 12  1  0
 14 15  1  0
 14  5  1  0
 16 26  1  0
 16 15  2  0
 17 26  1  0
 18 23  1  0
 19 20  1  0
 19 18  1  0
 21 20  1  0
 21 30  1  0
 21 22  1  0
 23 17  1  0
 23 22  1  0
 24 17  2  0
 26 25  1  0
 27 28  2  0
 28 47  1  0
 29 28  1  0
 29 32  1  0
 30 31  1  0
 30 27  1  0
 31 29  2  0
 32 33  1  0
 33 34  2  0
 35 38  1  0
 35 34  1  0
 36 35  2  0
 37 36  1  0
 37 32  2  0
 38 39  1  0
 39 44  2  0
 39 40  1  0
 40 41  2  0
 41 42  1  0
 42 46  1  0
 43 42  2  0
 44 43  1  0
 45 44  1  0
 47 48  1  0
 48 51  1  0
 48 50  1  0
 49 47  2  0
 52 27  1  0
 52 53  1  0
 54 52  1  0
 55  3  1  0
 56 55  1  0
 57 56  1  0
 57 58  1  0
 59 70  2  0
 60 58  1  0
 60 65  1  0
 61 69  1  0
 61 71  1  0
 62 68  1  0
 62 64  1  0
 63 69  1  0
 64 63  1  0
 65 64  2  0
 66 67  1  0
 66 60  2  0
 67 62  2  0
 68 61  1  0
 69 59  1  0
 71 73  2  0
 72 71  1  0
 74 72  1  0
 75 84  2  0
 75 80  1  0
 76 72  1  0
 76 80  1  0
 77 76  1  0
 78 79  1  0
 78 77  1  0
 79 75  1  0
 80 81  2  0
 81 82  1  0
 83 82  2  0
 84 83  1  0
 85 59  1  0
 85 90  1  0
 85 86  1  0
 86 89  1  1
 86 87  1  0
 88 86  1  0
 90 93  1  0
 91 95  1  0
 91 90  1  0
 92 91  2  0
 95 94  1  0
 97 95  1  0
 97 98  1  0
 97 96  1  0
M  ISO  4  17 100  26 100  57 101  58 101
M  END
>  <TORSDO>  (29) 
F 26

>  <SCORE>  (29) 
-10.462

>  <name>  (29) 
29

>  <ligand_id>  (29) 
29

>  <original_smiles>  (29) 
[H]c1c([H])c([H])c2c(c1[H])C([H])([H])C([H])([H])C([H])([H])C2([H])N([H])C(=O)C1([H])N(C(=O)C([H])(N([H])C(=O)C([H])(N([H])C([H])([H])[H])C([H])([H])[H])C(C([H])([H])[H])(C([H])([H])[H])C([H])([H])[H])C([H])([H])c2c([H])c(OC([H])([H])C([H])([H])C([H])([H])c3c(C([H])([H])C([H])([H])C([H])([H])N(C(=O)N4C([H])([H])C([H])([H])C([H])([H])C([H])(n5nc(-c6c([H])c([H])c(Oc7c([H])c([H])c(F)c([H])c7F)c([H])c6[H])c(C(=O)N([H])[H])c5N([H])[H])C4([H])[H])C([H])([H])[H])nc(C([H])([H])[H])c(C([H])([H])C([H])([H])C([H])([H])C([H])(C([H])([H])[H])C([H])([H])[H])c3[H])c([H])c([H])c2C1([H])[H]

>  <smiles>  (29) 
[H]c1c([H])c([H])c2c(c1[H])C([H])([H])C([H])([H])C([H])([H])C2([H])N([H])C(=O)C1([H])N(C(=O)C([H])(N([H])C(=O)C([H])(N([H])C([H])([H])[H])C([H])([H])[H])C(C([H])([H])[H])(C([H])([H])[H])C([H])([H])[H])C([H])([H])c2c([H])c(OC([H])([H])C([H])([H])C([H])([H])c3c(C([H])([H])C([H])([H])C([H])([H])N(C(=O)N4C([H])([H])C([H])([H])C([H])([H])C([H])(n5nc(-c6c([H])c([H])c(Oc7c([H])c([H])c(F)c([H])c7F)c([H])c6[H])c(C(=O)N([H])[H])c5N([H])[H])C4([H])[H])C([H])([H])[H])nc(C([H])([H])[H])c(C([H])([H])C([H])([H])C([H])([H])C([H])(C([H])([H])[H])C([H])([H])[H])c3[H])c([H])c([H])c2C1([H])[H]

$$$$
30:0:0
     RDKit          3D

 94102  0  0  1  0  0  0  0  0999 V2000
  -30.0000  -20.9990   21.1380 C   0  0  0  0  0  2  0  0  0  0  0  0
  -30.6400  -22.4210   21.0850 C   0  0  0  0  0  2  0  0  0  0  0  0
  -30.5240  -20.8710   18.6180 C   0  0  0  0  0  2  0  0  0  0  0  0
  -29.4970  -20.5490   19.7590 C   0  0  0  0  0  3  0  0  0  0  0  0
  -31.4780  -22.8000   19.8210 C   0  0  0  0  0  3  0  0  0  0  0  0
  -31.8320  -21.4630   19.0440 N   0  0  1  0  0  4  0  0  0  0  0  0
  -32.2790  -21.7740   18.1950 H   0  0  0  0  0  0  0  0  0  0  0  0
  -28.9450  -19.0940   19.7270 C   0  0  0  0  0  2  0  0  0  0  0  0
  -26.8280  -17.7680   20.3260 C   0  0  0  0  0  1  0  0  0  0  0  0
  -28.4830  -18.2780   22.1380 C   0  0  0  0  0  1  0  0  0  0  0  0
  -27.8780  -18.7750   20.8160 C   0  0  0  0  0  3  0  0  0  0  0  0
  -30.8460  -24.1790   19.0220 C   0  0  0  0  0  3  0  0  0  0  0  0
  -30.0640  -25.5410   19.6790 C   0  0  0  0  0  3  0  0  0  0  0  0
  -29.7210  -26.9530   19.0880 O   0  0  0  0  0  0  0  0  0  0  0  0
  -24.8380  -30.8010   23.0630 C   0  0  0  0  0  0  0  0  0  0  0  0
  -28.4480  -27.6140   19.2260 C   0  0  0  0  0  0  0  0  0  0  0  0
  -23.9950  -29.5100   21.1400 C   0  0  0  0  0  3  0  0  0  0  0  0
  -25.7600  -28.6950   19.4570 C   0  0  0  0  0  0  0  0  0  0  0  0
  -26.3830  -30.4580   21.0950 C   0  0  0  0  0  2  0  0  0  0  0  0
  -26.8010  -29.2940   20.1800 C   0  0  0  0  0  0  0  0  0  0  0  0
  -28.1440  -28.7750   20.0460 C   0  0  0  0  0  3  0  0  0  0  0  0
  -27.3590  -27.1100   18.4830 C   0  0  0  0  0  3  0  0  0  0  0  0
  -26.0480  -27.6280   18.5890 C   0  0  0  0  0  3  0  0  0  0  0  0
  -24.3420  -29.2130   19.6550 C   0  0  0  0  0  2  0  0  0  0  0  0
  -25.0890  -30.2720   21.8250 N   0  0  0  0  0  0  0  0  0  0  0  0
  -23.7290  -30.6790   23.6080 O   0  0  0  0  0  0  0  0  0  0  0  0
  -23.6320  -28.1820   21.8520 C   0  0  0  0  0  0  0  0  0  0  0  0
  -22.4320  -27.6450   21.5740 N   0  0  0  0  0  0  0  0  0  0  0  0
  -24.4360  -27.6460   22.6170 O   0  0  0  0  0  0  0  0  0  0  0  0
  -21.8200  -28.1550   20.9550 H   0  0  0  0  0  0  0  0  0  0  0  0
  -19.5550  -25.4370   21.6110 C   0  0  0  0  0  0  0  0  0  0  0  0
  -21.9190  -26.3730   22.0960 C   0  0  0  0  0  3  0  0  0  0  0  0
  -22.4450  -25.1730   21.2730 C   0  0  0  0  0  2  0  0  0  0  0  0
  -21.5010  -24.7560   20.1420 C   0  0  0  0  0  2  0  0  0  0  0  0
  -20.1330  -24.3610   20.7050 C   0  0  0  0  0  2  0  0  0  0  0  0
  -20.3920  -26.3900   22.2510 C   0  0  0  0  0  0  0  0  0  0  0  0
  -19.7990  -27.3880   23.0530 C   0  0  0  0  0  3  0  0  0  0  0  0
  -18.4040  -27.4400   23.2260 C   0  0  0  0  0  3  0  0  0  0  0  0
  -17.5820  -26.4840   22.6050 C   0  0  0  0  0  3  0  0  0  0  0  0
  -18.1590  -25.4840   21.8010 C   0  0  0  0  0  3  0  0  0  0  0  0
  -25.9220  -31.6060   23.8410 C   0  0  0  0  0  3  0  0  0  0  0  0
  -25.3390  -32.9070   24.2030 N   0  0  0  0  0  0  0  0  0  0  0  0
  -25.6160  -34.0680   23.5920 C   0  0  0  0  0  0  0  0  0  0  0  0
  -26.4510  -34.1610   22.6900 O   0  0  0  0  0  0  0  0  0  0  0  0
  -24.5970  -32.8950   24.8870 H   0  0  0  0  0  0  0  0  0  0  0  0
  -23.7210  -35.6430   23.0620 C   0  0  0  0  0  1  0  0  0  0  0  0
  -24.8490  -35.3220   24.0540 C   0  0  0  0  0  3  0  0  0  0  0  0
  -26.6050  -36.4240   25.3710 C   0  0  0  0  0  1  0  0  0  0  0  0
  -25.7080  -36.5130   24.2220 N   0  0  0  0  0  0  0  0  0  0  0  0
  -25.1450  -37.3510   24.3270 H   0  0  0  0  0  0  0  0  0  0  0  0
  -26.4420  -30.8610   25.1340 C   0  0  1  0  0  0  0  0  0  0  0  0
  -25.3110  -30.3160   26.0420 C   0  0  0  0  0  1  0  0  0  0  0  0
  -27.3470  -29.6660   24.7540 C   0  0  0  0  0  1  0  0  0  0  0  0
  -27.3190  -31.8200   25.9740 C   0  0  0  0  0  1  0  0  0  0  0  0
  -32.8440  -20.3770   19.6350 C   0  0  0  0  0  2  0  0  0  0  0  0
  -33.2790  -18.8950   18.9330 C   0  0  0  0  0  2  0  0  0  0  0  0
  -33.9430  -16.2620   19.4200 C   0  0  0  0  0  0  0  0  0  0  0  0
  -33.7980  -13.9220   18.4230 C   0  0  0  0  0  2  0  0  0  0  0  0
  -32.8890  -13.9100   17.1680 C   0  0  0  0  0  2  0  0  0  0  0  0
  -31.3980  -13.7900   17.5420 C   0  0  0  0  0  2  0  0  0  0  0  0
  -31.0180  -14.7300   18.7160 C   0  0  0  0  0  3  0  0  0  0  0  0
  -32.0260  -14.5740   19.8670 C   0  0  0  0  0  2  0  0  0  0  0  0
  -33.3250  -15.0050   19.3340 N   0  0  0  0  0  0  0  0  0  0  0  0
  -35.1240  -16.3030   19.0450 O   0  0  0  0  0  0  0  0  0  0  0  0
  -32.2540  -17.6010   20.7610 C   0  0  0  0  0  1  0  0  0  0  0  0
  -33.1990  -17.4780   19.6380 N   0  0  0  0  0  0  0  0  0  0  0  0
  -28.6220  -15.4680   19.2460 C   0  0  0  0  0  0  0  0  0  0  0  0
  -27.5200  -14.7740   19.6440 C   0  0  0  0  0  0  0  0  0  0  0  0
  -27.9380  -13.4120   19.7870 C   0  0  0  0  0  0  0  0  0  0  0  0
  -29.6480  -14.5390   19.1630 N   0  0  0  0  0  0  0  0  0  0  0  0
  -29.2390  -13.3040   19.5520 N   0  0  0  0  0  0  0  0  0  0  0  0
  -27.1650  -12.2000   20.0760 C   0  0  0  0  0  0  0  0  0  0  0  0
  -27.2480  -11.5490   21.3270 C   0  0  0  0  0  3  0  0  0  0  0  0
  -26.4770  -10.3980   21.5880 C   0  0  0  0  0  3  0  0  0  0  0  0
  -25.6100   -9.8840   20.5940 C   0  0  0  0  0  0  0  0  0  0  0  0
  -25.5460  -10.5230   19.3410 C   0  0  0  0  0  3  0  0  0  0  0  0
  -26.3200  -11.6650   19.0820 C   0  0  0  0  0  3  0  0  0  0  0  0
  -24.8420   -8.7550   20.7470 O   0  0  0  0  0  0  0  0  0  0  0  0
  -24.0610   -8.5600   21.8590 C   0  0  0  0  0  0  0  0  0  0  0  0
  -23.0070   -9.4380   22.1920 C   0  0  0  0  0  3  0  0  0  0  0  0
  -22.1850   -9.1620   23.3030 C   0  0  0  0  0  3  0  0  0  0  0  0
  -22.4110   -8.0090   24.0770 C   0  0  0  0  0  0  0  0  0  0  0  0
  -23.4610   -7.1330   23.7480 C   0  0  0  0  0  3  0  0  0  0  0  0
  -24.2820   -7.4080   22.6400 C   0  0  0  0  0  0  0  0  0  0  0  0
  -25.2760   -6.5480   22.3110 F   0  0  0  0  0  0  0  0  0  0  0  0
  -21.6200   -7.7410   25.1410 F   0  0  0  0  0  0  0  0  0  0  0  0
  -26.1290  -15.3140   19.7960 C   0  0  0  0  0  0  0  0  0  0  0  0
  -25.3850  -14.8190   20.7720 N   0  0  0  0  0  0  0  0  0  0  0  0
  -25.7180  -16.2250   19.0750 O   0  0  0  0  0  0  0  0  0  0  0  0
  -25.7370  -14.0810   21.3670 H   0  0  0  0  0  0  0  0  0  0  0  0
  -24.4560  -15.1810   20.9330 H   0  0  0  0  0  0  0  0  0  0  0  0
  -28.8430  -16.8080   18.9200 N   0  0  0  0  0  0  0  0  0  0  0  0
  -28.1020  -17.4990   18.9250 H   0  0  0  0  0  0  0  0  0  0  0  0
  -29.7200  -17.1640   18.5710 H   0  0  0  0  0  0  0  0  0  0  0  0
  2  1  1  0
  3  6  1  0
  3  4  1  0
  4  8  1  0
  4  1  1  0
  5 12  1  0
  5  2  1  0
  6 55  1  0
  6  5  1  0
  6  7  1  6
  8 11  1  0
  9 11  1  0
 11 10  1  0
 12 13  2  0
 14 16  1  0
 14 13  1  0
 15 26  2  0
 16 21  1  0
 17 25  1  0
 17 27  1  0
 18 24  1  0
 18 20  1  0
 19 25  1  0
 20 19  1  0
 21 20  2  0
 22 23  1  0
 22 16  2  0
 23 18  2  0
 24 17  1  0
 25 15  1  0
 27 29  2  0
 28 27  1  0
 30 28  1  0
 31 40  2  0
 31 36  1  0
 32 28  1  0
 32 36  1  0
 33 32  1  0
 34 35  1  0
 34 33  1  0
 35 31  1  0
 36 37  2  0
 37 38  1  0
 39 38  2  0
 40 39  1  0
 41 15  1  0
 41 42  1  0
 41 51  1  0
 42 45  1  0
 43 47  1  0
 43 42  1  0
 44 43  2  0
 47 46  1  0
 47 49  1  0
 49 50  1  0
 49 48  1  0
 51 54  1  1
 51 52  1  0
 53 51  1  0
 56 55  1  0
 56 66  1  0
 57 66  1  0
 58 63  1  0
 59 60  1  0
 59 58  1  0
 61 60  1  0
 61 70  1  0
 61 62  1  0
 63 57  1  0
 63 62  1  0
 64 57  2  0
 66 65  1  0
 67 68  2  0
 68 69  1  0
 68 87  1  0
 69 72  1  0
 70 67  1  0
 70 71  1  0
 71 69  2  0
 72 73  1  0
 73 74  2  0
 75 78  1  0
 75 74  1  0
 76 75  2  0
 77 76  1  0
 77 72  2  0
 78 79  1  0
 79 80  2  0
 79 84  1  0
 80 81  1  0
 81 82  2  0
 82 86  1  0
 83 82  1  0
 84 83  2  0
 85 84  1  0
 87 88  1  0
 88 91  1  0
 88 90  1  0
 89 87  2  0
 92 93  1  0
 92 67  1  0
 94 92  1  0
M  ISO  4  13 101  14 101  57 100  66 100
M  END
>  <TORSDO>  (30) 
F 22

>  <SCORE>  (30) 
1.522

>  <name>  (30) 
30

>  <ligand_id>  (30) 
30

>  <original_smiles>  (30) 
[H]c1c([H])c([H])c2c(c1[H])C([H])([H])C([H])([H])C([H])([H])C2([H])N([H])C(=O)C1([H])N(C(=O)C([H])(N([H])C(=O)C([H])(N([H])C([H])([H])[H])C([H])([H])[H])C(C([H])([H])[H])(C([H])([H])[H])C([H])([H])[H])C([H])([H])c2c([H])c(OC([H])([H])C([H])([H])C3([H])C([H])([H])C([H])([H])C([H])(C([H])([H])C([H])(C([H])([H])[H])C([H])([H])[H])C([H])([H])[N+]3([H])C([H])([H])C([H])([H])N(C(=O)N3C([H])([H])C([H])([H])C([H])([H])C([H])(n4nc(-c5c([H])c([H])c(Oc6c([H])c([H])c(F)c([H])c6F)c([H])c5[H])c(C(=O)N([H])[H])c4N([H])[H])C3([H])[H])C([H])([H])[H])c([H])c([H])c2C1([H])[H]

>  <smiles>  (30) 
[H]c1c([H])c([H])c2c(c1[H])C([H])([H])C([H])([H])C([H])([H])C2([H])N([H])C(=O)C1([H])N(C(=O)C([H])(N([H])C(=O)C([H])(N([H])C([H])([H])[H])C([H])([H])[H])C(C([H])([H])[H])(C([H])([H])[H])C([H])([H])[H])C([H])([H])c2c([H])c(OC([H])([H])C([H])([H])C3([H])C([H])([H])C([H])([H])C([H])(C([H])([H])C([H])(C([H])([H])[H])C([H])([H])[H])C([H])([H])[N+]3([H])C([H])([H])C([H])([H])N(C(=O)N3C([H])([H])C([H])([H])C([H])([H])C([H])(n4nc(-c5c([H])c([H])c(Oc6c([H])c([H])c(F)c([H])c6F)c([H])c5[H])c(C(=O)N([H])[H])c4N([H])[H])C3([H])[H])C([H])([H])[H])c([H])c([H])c2C1([H])[H]

$$$$
31:0:0
     RDKit          3D

 97105  0  0  1  0  0  0  0  0999 V2000
  -29.8510  -20.6580   19.5430 C   0  0  0  0  0  3  0  0  0  0  0  0
  -29.5960  -21.8920   20.1820 C   0  0  0  0  0  0  0  0  0  0  0  0
  -30.4930  -19.6410   20.2780 C   0  0  0  0  0  0  0  0  0  0  0  0
  -30.5570  -21.0480   22.0890 C   0  0  0  0  0  0  0  0  0  0  0  0
  -29.9190  -22.0530   21.4830 N   0  0  0  0  0  0  0  0  0  0  0  0
  -30.9020  -19.8940   21.5320 N   0  0  0  0  0  0  0  0  0  0  0  0
  -31.7030  -18.1470   18.6270 C   0  0  0  0  0  1  0  0  0  0  0  0
  -30.6450  -18.1900   19.7430 C   0  0  0  0  0  3  0  0  0  0  0  0
  -30.9330  -17.0900   20.8350 C   0  0  0  0  0  2  0  0  0  0  0  0
  -31.1590  -14.6610   20.0430 C   0  0  0  0  0  0  0  0  0  0  0  0
  -30.7700  -12.4790   18.9470 C   0  0  0  0  0  2  0  0  0  0  0  0
  -29.7920  -12.6630   17.7670 C   0  0  0  0  0  2  0  0  0  0  0  0
  -28.3280  -12.5820   18.2470 C   0  0  0  0  0  2  0  0  0  0  0  0
  -28.0510  -13.4640   19.4910 C   0  0  0  0  0  3  0  0  0  0  0  0
  -29.1340  -13.2450   20.5730 C   0  0  0  0  0  2  0  0  0  0  0  0
  -30.4480  -13.5030   19.9540 N   0  0  0  0  0  0  0  0  0  0  0  0
  -32.2940  -14.7910   19.5830 O   0  0  0  0  0  0  0  0  0  0  0  0
  -30.4770  -15.7110   20.5380 N   0  0  0  0  0  0  0  0  0  0  0  0
  -29.5360  -15.4980   20.8360 H   0  0  0  0  0  0  0  0  0  0  0  0
  -25.7060  -14.1680   20.2850 C   0  0  0  0  0  0  0  0  0  0  0  0
  -24.6160  -13.4400   20.6800 C   0  0  0  0  0  0  0  0  0  0  0  0
  -25.0160  -12.0710   20.6230 C   0  0  0  0  0  0  0  0  0  0  0  0
  -26.7040  -13.2450   20.0140 N   0  0  0  0  0  0  0  0  0  0  0  0
  -26.2930  -11.9760   20.2730 N   0  0  0  0  0  0  0  0  0  0  0  0
  -24.2400  -10.8390   20.8220 C   0  0  0  0  0  0  0  0  0  0  0  0
  -24.6330   -9.8640   21.7640 C   0  0  0  0  0  3  0  0  0  0  0  0
  -23.8610   -8.6990   21.9530 C   0  0  0  0  0  3  0  0  0  0  0  0
  -22.6800   -8.4990   21.1980 C   0  0  0  0  0  0  0  0  0  0  0  0
  -22.3050   -9.4640   20.2450 C   0  0  0  0  0  3  0  0  0  0  0  0
  -23.0780  -10.6210   20.0550 C   0  0  0  0  0  3  0  0  0  0  0  0
  -21.8810   -7.3860   21.2950 O   0  0  0  0  0  0  0  0  0  0  0  0
  -21.7450   -6.6970   22.4730 C   0  0  0  0  0  0  0  0  0  0  0  0
  -21.2430   -7.3120   23.6410 C   0  0  0  0  0  3  0  0  0  0  0  0
  -21.0520   -6.5520   24.8120 C   0  0  0  0  0  3  0  0  0  0  0  0
  -21.3550   -5.1770   24.8160 C   0  0  0  0  0  0  0  0  0  0  0  0
  -21.8500   -4.5610   23.6520 C   0  0  0  0  0  3  0  0  0  0  0  0
  -22.0400   -5.3190   22.4840 C   0  0  0  0  0  0  0  0  0  0  0  0
  -22.4960   -4.7170   21.3590 F   0  0  0  0  0  0  0  0  0  0  0  0
  -21.1660   -4.4440   25.9370 F   0  0  0  0  0  0  0  0  0  0  0  0
  -23.2510  -13.9760   21.0010 C   0  0  0  0  0  0  0  0  0  0  0  0
  -22.5390  -13.3270   21.9170 N   0  0  0  0  0  0  0  0  0  0  0  0
  -22.8270  -15.0030   20.4750 O   0  0  0  0  0  0  0  0  0  0  0  0
  -22.8990  -12.4960   22.3620 H   0  0  0  0  0  0  0  0  0  0  0  0
  -21.6240  -13.6650   22.1750 H   0  0  0  0  0  0  0  0  0  0  0  0
  -25.9260  -15.5320   20.1150 N   0  0  0  0  0  0  0  0  0  0  0  0
  -25.1900  -16.2160   20.2570 H   0  0  0  0  0  0  0  0  0  0  0  0
  -26.7810  -15.9380   19.7580 H   0  0  0  0  0  0  0  0  0  0  0  0
  -28.7610  -22.9910   19.5010 C   0  0  0  0  0  2  0  0  0  0  0  0
  -29.2450  -24.4750   19.5910 C   0  0  0  0  0  2  0  0  0  0  0  0
  -28.4010  -25.4150   20.4990 C   0  0  0  0  0  2  0  0  0  0  0  0
  -28.4660  -26.8090   20.1030 O   0  0  0  0  0  0  0  0  0  0  0  0
  -24.4550  -31.8290   23.2320 C   0  0  0  0  0  0  0  0  0  0  0  0
  -27.2790  -27.5240   20.0950 C   0  0  0  0  0  0  0  0  0  0  0  0
  -23.3180  -30.4380   21.5320 C   0  0  0  0  0  3  0  0  0  0  0  0
  -24.8420  -28.9820   20.0950 C   0  0  0  0  0  0  0  0  0  0  0  0
  -25.8380  -30.8720   21.3850 C   0  0  0  0  0  2  0  0  0  0  0  0
  -25.9770  -29.5200   20.7110 C   0  0  0  0  0  0  0  0  0  0  0  0
  -27.2020  -28.8030   20.6980 C   0  0  0  0  0  3  0  0  0  0  0  0
  -26.1250  -27.0100   19.4600 C   0  0  0  0  0  3  0  0  0  0  0  0
  -24.9130  -27.7280   19.4600 C   0  0  0  0  0  3  0  0  0  0  0  0
  -23.5690  -29.8000   20.1410 C   0  0  0  0  0  2  0  0  0  0  0  0
  -24.5540  -31.0590   22.1100 N   0  0  0  0  0  0  0  0  0  0  0  0
  -23.3580  -32.0600   23.7580 O   0  0  0  0  0  0  0  0  0  0  0  0
  -22.6740  -29.3760   22.4560 C   0  0  0  0  0  0  0  0  0  0  0  0
  -21.3440  -29.2190   22.3510 N   0  0  0  0  0  0  0  0  0  0  0  0
  -23.3680  -28.6950   23.2140 O   0  0  0  0  0  0  0  0  0  0  0  0
  -20.8480  -29.8180   21.7070 H   0  0  0  0  0  0  0  0  0  0  0  0
  -17.9580  -28.0950   22.9260 C   0  0  0  0  0  0  0  0  0  0  0  0
  -20.5310  -28.2510   23.0880 C   0  0  0  0  0  3  0  0  0  0  0  0
  -20.5580  -26.8660   22.4020 C   0  0  0  0  0  2  0  0  0  0  0  0
  -19.4010  -26.6570   21.4220 C   0  0  0  0  0  2  0  0  0  0  0  0
  -18.0550  -26.7960   22.1420 C   0  0  0  0  0  2  0  0  0  0  0  0
  -19.1200  -28.7870   23.3550 C   0  0  0  0  0  0  0  0  0  0  0  0
  -18.9750  -30.0080   24.0480 C   0  0  0  0  0  3  0  0  0  0  0  0
  -17.6970  -30.5360   24.3150 C   0  0  0  0  0  3  0  0  0  0  0  0
  -16.5490  -29.8380   23.9030 C   0  0  0  0  0  3  0  0  0  0  0  0
  -16.6790  -28.6200   23.2130 C   0  0  0  0  0  3  0  0  0  0  0  0
  -25.7110  -32.4750   23.8950 C   0  0  0  0  0  3  0  0  0  0  0  0
  -26.1760  -31.7280   25.2050 C   0  0  1  0  0  0  0  0  0  0  0  0
  -25.0390  -31.4960   26.2280 C   0  0  0  0  0  1  0  0  0  0  0  0
  -26.7810  -30.3490   24.8550 C   0  0  0  0  0  1  0  0  0  0  0  0
  -27.3000  -32.5360   25.8970 C   0  0  0  0  0  1  0  0  0  0  0  0
  -25.3860  -33.8790   24.1850 N   0  0  0  0  0  0  0  0  0  0  0  0
  -25.7410  -34.9160   23.4140 C   0  0  0  0  0  0  0  0  0  0  0  0
  -26.4450  -34.7890   22.4080 O   0  0  0  0  0  0  0  0  0  0  0  0
  -24.7670  -34.0530   24.9630 H   0  0  0  0  0  0  0  0  0  0  0  0
  -24.0180  -36.6900   22.9610 C   0  0  0  0  0  1  0  0  0  0  0  0
  -25.2330  -36.3110   23.8220 C   0  0  0  0  0  3  0  0  0  0  0  0
  -27.3310  -37.2300   24.7060 C   0  0  0  0  0  1  0  0  0  0  0  0
  -26.2650  -37.3660   23.7170 N   0  0  0  0  0  0  0  0  0  0  0  0
  -25.8510  -38.2870   23.8240 H   0  0  0  0  0  0  0  0  0  0  0  0
  -30.6830  -21.0840   23.6050 C   0  0  0  0  0  2  0  0  0  0  0  0
  -29.9240  -19.8930   24.2330 C   0  0  0  0  0  2  0  0  0  0  0  0
  -29.3810  -20.1370   25.6500 C   0  0  0  0  0  2  0  0  0  0  0  0
  -27.4500  -19.3960   27.1160 C   0  0  0  0  0  1  0  0  0  0  0  0
  -29.5000  -17.9340   26.9760 C   0  0  0  0  0  1  0  0  0  0  0  0
  -28.6020  -18.9280   26.2160 C   0  0  0  0  0  3  0  0  0  0  0  0
  1  2  2  0
  1  3  1  0
  2  5  1  0
  3  6  2  0
  4 92  1  0
  5  4  2  0
  6  4  1  0
  8  7  1  0
  8  3  1  0
  8  9  1  0
 10 18  1  0
 11 16  1  0
 12 13  1  0
 12 11  1  0
 14 13  1  0
 14 23  1  0
 14 15  1  0
 16 10  1  0
 16 15  1  0
 17 10  2  0
 18  9  1  0
 18 19  1  0
 20 21  2  0
 21 40  1  0
 22 21  1  0
 22 25  1  0
 23 24  1  0
 23 20  1  0
 24 22  2  0
 25 26  1  0
 26 27  2  0
 28 31  1  0
 28 27  1  0
 29 28  2  0
 30 29  1  0
 30 25  2  0
 31 32  1  0
 32 37  2  0
 32 33  1  0
 33 34  2  0
 34 35  1  0
 35 39  1  0
 36 35  2  0
 37 36  1  0
 38 37  1  0
 40 41  1  0
 41 44  1  0
 41 43  1  0
 42 40  2  0
 45 46  1  0
 45 20  1  0
 47 45  1  0
 48 49  1  0
 48  2  1  0
 49 50  1  0
 51 50  1  0
 52 63  2  0
 53 51  1  0
 53 58  1  0
 54 62  1  0
 54 64  1  0
 55 61  1  0
 55 57  1  0
 56 62  1  0
 57 56  1  0
 58 57  2  0
 59 53  2  0
 60 59  1  0
 60 55  2  0
 61 54  1  0
 62 52  1  0
 64 66  2  0
 65 64  1  0
 67 65  1  0
 68 77  2  0
 68 73  1  0
 69 65  1  0
 69 73  1  0
 70 69  1  0
 71 72  1  0
 71 70  1  0
 72 68  1  0
 73 74  2  0
 74 75  1  0
 76 75  2  0
 77 76  1  0
 78 52  1  0
 78 83  1  0
 78 79  1  0
 79 82  1  1
 79 80  1  0
 81 79  1  0
 83 86  1  0
 84 88  1  0
 84 83  1  0
 85 84  2  0
 88 87  1  0
 90 88  1  0
 90 91  1  0
 90 89  1  0
 92 93  1  0
 93 94  1  0
 94 97  1  0
 97 96  1  0
 97 95  1  0
M  ISO  4  10 100  18 100  50 101  51 101
M  END
>  <TORSDO>  (31) 
F 25

>  <SCORE>  (31) 
-3.242

>  <name>  (31) 
31

>  <ligand_id>  (31) 
31

>  <original_smiles>  (31) 
[H]c1c(C([H])([H])C([H])([H])C([H])([H])Oc2c([H])c([H])c3c(c2[H])C([H])([H])N(C(=O)C([H])(N([H])C(=O)C([H])(N([H])C([H])([H])[H])C([H])([H])[H])C(C([H])([H])[H])(C([H])([H])[H])C([H])([H])[H])C([H])(C(=O)N([H])C2([H])c4c([H])c([H])c([H])c([H])c4C([H])([H])C([H])([H])C2([H])[H])C3([H])[H])nc(C([H])([H])C([H])([H])C([H])([H])C([H])(C([H])([H])[H])C([H])([H])[H])nc1C([H])(C([H])([H])[H])C([H])([H])N([H])C(=O)N1C([H])([H])C([H])([H])C([H])([H])C([H])(n2nc(-c3c([H])c([H])c(Oc4c([H])c([H])c(F)c([H])c4F)c([H])c3[H])c(C(=O)N([H])[H])c2N([H])[H])C1([H])[H]

>  <smiles>  (31) 
[H]c1c(C([H])([H])C([H])([H])C([H])([H])Oc2c([H])c([H])c3c(c2[H])C([H])([H])N(C(=O)C([H])(N([H])C(=O)C([H])(N([H])C([H])([H])[H])C([H])([H])[H])C(C([H])([H])[H])(C([H])([H])[H])C([H])([H])[H])C([H])(C(=O)N([H])C2([H])c4c([H])c([H])c([H])c([H])c4C([H])([H])C([H])([H])C2([H])[H])C3([H])[H])nc(C([H])([H])C([H])([H])C([H])([H])C([H])(C([H])([H])[H])C([H])([H])[H])nc1C([H])(C([H])([H])[H])C([H])([H])N([H])C(=O)N1C([H])([H])C([H])([H])C([H])([H])C([H])(n2nc(-c3c([H])c([H])c(Oc4c([H])c([H])c(F)c([H])c4F)c([H])c3[H])c(C(=O)N([H])[H])c2N([H])[H])C1([H])[H]

$$$$
32:0:0
     RDKit          3D

101110  0  0  1  0  0  0  0  0999 V2000
  -31.2590  -22.9970   17.3900 C   0  0  0  0  0  3  0  0  0  0  0  0
  -31.7150  -23.3800   18.6770 C   0  0  0  0  0  3  0  0  0  0  0  0
  -30.0490  -22.3850   17.5410 C   0  0  0  0  0  0  0  0  0  0  0  0
  -30.7720  -23.0030   19.5930 C   0  0  0  0  0  0  0  0  0  0  0  0
  -29.1390  -21.8180   16.5000 C   0  0  0  0  0  1  0  0  0  0  0  0
  -29.7460  -22.3570   18.9020 N   0  0  0  0  0  0  0  0  0  0  0  0
  -28.5410  -21.7490   19.4870 C   0  0  0  0  0  2  0  0  0  0  0  0
  -28.9480  -17.3990   19.5110 C   0  0  0  0  0  3  0  0  0  0  0  0
  -27.7720  -17.9750   19.0000 C   0  0  0  0  0  3  0  0  0  0  0  0
  -29.7690  -19.6110   20.0580 C   0  0  0  0  0  3  0  0  0  0  0  0
  -29.9450  -18.2140   20.0750 C   0  0  0  0  0  0  0  0  0  0  0  0
  -27.5640  -19.3750   19.0240 C   0  0  0  0  0  0  0  0  0  0  0  0
  -28.6080  -20.2140   19.5160 C   0  0  0  0  0  0  0  0  0  0  0  0
  -25.0220  -19.0670   18.9690 C   0  0  0  0  0  1  0  0  0  0  0  0
  -26.2270  -20.0640   16.9820 C   0  0  0  0  0  1  0  0  0  0  0  0
  -26.2210  -19.9170   18.5100 C   0  0  0  0  0  3  0  0  0  0  0  0
  -31.2400  -17.6280   20.6280 C   0  0  0  0  0  2  0  0  0  0  0  0
  -31.0890  -16.6190   21.7950 C   0  0  0  0  0  2  0  0  0  0  0  0
  -31.0910  -14.4000   20.6560 C   0  0  0  0  0  0  0  0  0  0  0  0
  -30.6920  -12.3610   19.3340 C   0  0  0  0  0  2  0  0  0  0  0  0
  -29.7860  -12.6890   18.1320 C   0  0  0  0  0  2  0  0  0  0  0  0
  -28.2990  -12.5900   18.5290 C   0  0  0  0  0  2  0  0  0  0  0  0
  -27.9770  -13.3670   19.8330 C   0  0  0  0  0  3  0  0  0  0  0  0
  -28.9950  -13.0260   20.9440 C   0  0  0  0  0  2  0  0  0  0  0  0
  -30.3480  -13.2880   20.4200 N   0  0  0  0  0  0  0  0  0  0  0  0
  -32.1990  -14.5910   20.1500 O   0  0  0  0  0  0  0  0  0  0  0  0
  -30.5060  -15.3270   21.4250 N   0  0  0  0  0  0  0  0  0  0  0  0
  -29.5970  -15.1020   21.8010 H   0  0  0  0  0  0  0  0  0  0  0  0
  -25.5730  -14.0390   20.4630 C   0  0  0  0  0  0  0  0  0  0  0  0
  -24.4750  -13.2940   20.8010 C   0  0  0  0  0  0  0  0  0  0  0  0
  -24.9030  -11.9320   20.7870 C   0  0  0  0  0  0  0  0  0  0  0  0
  -26.6030  -13.1310   20.2690 N   0  0  0  0  0  0  0  0  0  0  0  0
  -26.2010  -11.8590   20.5200 N   0  0  0  0  0  0  0  0  0  0  0  0
  -24.1430  -10.6880   20.9600 C   0  0  0  0  0  0  0  0  0  0  0  0
  -24.5080   -9.7270   21.9280 C   0  0  0  0  0  3  0  0  0  0  0  0
  -23.7500   -8.5460   22.0870 C   0  0  0  0  0  3  0  0  0  0  0  0
  -22.6130   -8.3190   21.2750 C   0  0  0  0  0  0  0  0  0  0  0  0
  -22.2670   -9.2680   20.2970 C   0  0  0  0  0  3  0  0  0  0  0  0
  -23.0250  -10.4400   20.1380 C   0  0  0  0  0  3  0  0  0  0  0  0
  -21.8330   -7.1890   21.3410 O   0  0  0  0  0  0  0  0  0  0  0  0
  -21.6800   -6.4860   22.5090 C   0  0  0  0  0  0  0  0  0  0  0  0
  -21.1450   -7.0810   23.6720 C   0  0  0  0  0  3  0  0  0  0  0  0
  -20.9410   -6.3040   24.8290 C   0  0  0  0  0  3  0  0  0  0  0  0
  -21.2620   -4.9330   24.8230 C   0  0  0  0  0  0  0  0  0  0  0  0
  -21.7900   -4.3380   23.6650 C   0  0  0  0  0  3  0  0  0  0  0  0
  -21.9950   -5.1120   22.5090 C   0  0  0  0  0  0  0  0  0  0  0  0
  -22.4840   -4.5300   21.3880 F   0  0  0  0  0  0  0  0  0  0  0  0
  -21.0590   -4.1850   25.9330 F   0  0  0  0  0  0  0  0  0  0  0  0
  -23.0820  -13.8060   21.0320 C   0  0  0  0  0  0  0  0  0  0  0  0
  -22.3150  -13.1310   21.8810 N   0  0  0  0  0  0  0  0  0  0  0  0
  -22.6820  -14.8380   20.4950 O   0  0  0  0  0  0  0  0  0  0  0  0
  -22.6510  -12.2960   22.3380 H   0  0  0  0  0  0  0  0  0  0  0  0
  -21.3790  -13.4550   22.0810 H   0  0  0  0  0  0  0  0  0  0  0  0
  -25.7770  -15.4040   20.2930 N   0  0  0  0  0  0  0  0  0  0  0  0
  -25.0290  -16.0800   20.3960 H   0  0  0  0  0  0  0  0  0  0  0  0
  -26.6610  -15.8270   20.0380 H   0  0  0  0  0  0  0  0  0  0  0  0
  -30.7580  -23.2280   21.0790 C   0  0  0  0  0  2  0  0  0  0  0  0
  -29.8970  -24.4320   21.4960 C   0  0  0  0  0  2  0  0  0  0  0  0
  -30.5590  -25.7910   21.1940 C   0  0  0  0  0  2  0  0  0  0  0  0
  -29.5720  -26.9630   21.2370 C   0  0  0  0  0  2  0  0  0  0  0  0
  -28.6250  -26.7440   20.2010 O   0  0  0  0  0  0  0  0  0  0  0  0
  -24.6180  -31.8430   23.1820 C   0  0  0  0  0  0  0  0  0  0  0  0
  -27.4700  -27.4860   20.2180 C   0  0  0  0  0  0  0  0  0  0  0  0
  -23.4960  -30.4150   21.4970 C   0  0  0  0  0  3  0  0  0  0  0  0
  -25.0340  -28.9060   20.1330 C   0  0  0  0  0  0  0  0  0  0  0  0
  -26.0100  -30.8410   21.3780 C   0  0  0  0  0  2  0  0  0  0  0  0
  -26.1500  -29.4650   20.7670 C   0  0  0  0  0  0  0  0  0  0  0  0
  -27.3680  -28.7600   20.8220 C   0  0  0  0  0  3  0  0  0  0  0  0
  -26.3460  -26.9390   19.5710 C   0  0  0  0  0  3  0  0  0  0  0  0
  -25.1240  -27.6380   19.5330 C   0  0  0  0  0  3  0  0  0  0  0  0
  -23.7660  -29.7310   20.1290 C   0  0  0  0  0  2  0  0  0  0  0  0
  -24.7250  -31.0460   22.0800 N   0  0  0  0  0  0  0  0  0  0  0  0
  -23.5150  -32.0920   23.6840 O   0  0  0  0  0  0  0  0  0  0  0  0
  -22.8320  -29.3850   22.4370 C   0  0  0  0  0  0  0  0  0  0  0  0
  -21.5100  -29.2130   22.2910 N   0  0  0  0  0  0  0  0  0  0  0  0
  -23.5050  -28.7420   23.2480 O   0  0  0  0  0  0  0  0  0  0  0  0
  -21.0310  -29.7820   21.6060 H   0  0  0  0  0  0  0  0  0  0  0  0
  -18.1130  -28.0840   22.7690 C   0  0  0  0  0  0  0  0  0  0  0  0
  -20.6760  -28.2710   23.0380 C   0  0  0  0  0  3  0  0  0  0  0  0
  -20.7430  -26.8570   22.4140 C   0  0  0  0  0  2  0  0  0  0  0  0
  -19.6280  -26.5950   21.3960 C   0  0  0  0  0  2  0  0  0  0  0  0
  -18.2540  -26.7520   22.0530 C   0  0  0  0  0  2  0  0  0  0  0  0
  -19.2510  -28.8040   23.2190 C   0  0  0  0  0  0  0  0  0  0  0  0
  -19.0670  -30.0550   23.8480 C   0  0  0  0  0  3  0  0  0  0  0  0
  -17.7760  -30.5830   24.0340 C   0  0  0  0  0  3  0  0  0  0  0  0
  -16.6510  -29.8580   23.6040 C   0  0  0  0  0  3  0  0  0  0  0  0
  -16.8210  -28.6100   22.9780 C   0  0  0  0  0  3  0  0  0  0  0  0
  -25.8710  -32.4940   23.8470 C   0  0  0  0  0  3  0  0  0  0  0  0
  -26.3550  -31.7310   25.1410 C   0  0  1  0  0  0  0  0  0  0  0  0
  -25.2290  -31.4780   26.1700 C   0  0  0  0  0  1  0  0  0  0  0  0
  -26.9700  -30.3620   24.7640 C   0  0  0  0  0  1  0  0  0  0  0  0
  -27.4730  -32.5400   25.8400 C   0  0  0  0  0  1  0  0  0  0  0  0
  -25.5330  -33.8880   24.1580 N   0  0  0  0  0  0  0  0  0  0  0  0
  -25.8790  -34.9400   23.4010 C   0  0  0  0  0  0  0  0  0  0  0  0
  -26.5880  -34.8390   22.3960 O   0  0  0  0  0  0  0  0  0  0  0  0
  -24.9060  -34.0410   24.9340 H   0  0  0  0  0  0  0  0  0  0  0  0
  -24.1470  -36.7060   22.9520 C   0  0  0  0  0  1  0  0  0  0  0  0
  -25.3520  -36.3230   23.8260 C   0  0  0  0  0  3  0  0  0  0  0  0
  -27.4300  -37.2420   24.7550 C   0  0  0  0  0  1  0  0  0  0  0  0
  -26.3750  -37.3880   23.7560 N   0  0  0  0  0  0  0  0  0  0  0  0
  -25.9510  -38.3050   23.8750 H   0  0  0  0  0  0  0  0  0  0  0  0
  1  3  2  0
  1  2  1  0
  2  4  2  0
  3  6  1  0
  4 57  1  0
  5  3  1  0
  6  7  1  0
  6  4  1  0
  7 13  1  0
  8 11  1  0
  9 12  1  0
  9  8  2  0
 10 11  2  0
 11 17  1  0
 12 13  2  0
 13 10  1  0
 15 16  1  0
 16 14  1  0
 16 12  1  0
 17 18  1  0
 19 27  1  0
 20 25  1  0
 21 22  1  0
 21 20  1  0
 23 22  1  0
 23 32  1  0
 23 24  1  0
 25 19  1  0
 25 24  1  0
 26 19  2  0
 27 18  1  0
 27 28  1  0
 29 30  2  0
 30 49  1  0
 31 30  1  0
 31 34  1  0
 32 29  1  0
 32 33  1  0
 33 31  2  0
 34 35  1  0
 35 36  2  0
 37 40  1  0
 37 36  1  0
 38 37  2  0
 39 38  1  0
 39 34  2  0
 40 41  1  0
 41 42  1  0
 42 43  2  0
 44 43  1  0
 44 48  1  0
 45 44  2  0
 46 41  2  0
 46 45  1  0
 47 46  1  0
 49 50  1  0
 50 53  1  0
 50 52  1  0
 51 49  2  0
 54 55  1  0
 54 29  1  0
 56 54  1  0
 57 58  1  0
 59 60  1  0
 59 58  1  0
 61 63  1  0
 61 60  1  0
 62 73  2  0
 63 68  1  0
 64 72  1  0
 64 74  1  0
 65 67  1  0
 66 72  1  0
 67 68  2  0
 67 66  1  0
 69 63  2  0
 70 69  1  0
 70 65  2  0
 71 65  1  0
 71 64  1  0
 72 62  1  0
 74 76  2  0
 75 74  1  0
 77 75  1  0
 78 87  2  0
 78 83  1  0
 79 75  1  0
 79 83  1  0
 80 79  1  0
 81 82  1  0
 81 80  1  0
 82 78  1  0
 83 84  2  0
 84 85  1  0
 86 85  2  0
 87 86  1  0
 88 62  1  0
 88 93  1  0
 88 89  1  0
 89 92  1  1
 89 90  1  0
 91 89  1  0
 93 96  1  0
 94 98  1  0
 94 93  1  0
 95 94  2  0
 98 97  1  0
100 98  1  0
100101  1  0
100 99  1  0
M  ISO  4  19 100  27 100  60 101  61 101
M  END
>  <TORSDO>  (32) 
F 25

>  <SCORE>  (32) 
-11.681

>  <name>  (32) 
32

>  <ligand_id>  (32) 
32

>  <original_smiles>  (32) 
[H]c1c([H])c([H])c2c(c1[H])C([H])([H])C([H])([H])C([H])([H])C2([H])N([H])C(=O)C1([H])N(C(=O)C([H])(N([H])C(=O)C([H])(N([H])C([H])([H])[H])C([H])([H])[H])C(C([H])([H])[H])(C([H])([H])[H])C([H])([H])[H])C([H])([H])c2c([H])c(OC([H])([H])C([H])([H])C([H])([H])C([H])([H])c3c([H])c([H])c(C([H])([H])[H])n3C([H])([H])c3c([H])c(C([H])([H])C([H])([H])N([H])C(=O)N4C([H])([H])C([H])([H])C([H])([H])C([H])(n5nc(-c6c([H])c([H])c(Oc7c([H])c([H])c(F)c([H])c7F)c([H])c6[H])c(C(=O)N([H])[H])c5N([H])[H])C4([H])[H])c([H])c([H])c3C([H])(C([H])([H])[H])C([H])([H])[H])c([H])c([H])c2C1([H])[H]

>  <smiles>  (32) 
[H]c1c([H])c([H])c2c(c1[H])C([H])([H])C([H])([H])C([H])([H])C2([H])N([H])C(=O)C1([H])N(C(=O)C([H])(N([H])C(=O)C([H])(N([H])C([H])([H])[H])C([H])([H])[H])C(C([H])([H])[H])(C([H])([H])[H])C([H])([H])[H])C([H])([H])c2c([H])c(OC([H])([H])C([H])([H])C([H])([H])C([H])([H])c3c([H])c([H])c(C([H])([H])[H])n3C([H])([H])c3c([H])c(C([H])([H])C([H])([H])N([H])C(=O)N4C([H])([H])C([H])([H])C([H])([H])C([H])(n5nc(-c6c([H])c([H])c(Oc7c([H])c([H])c(F)c([H])c7F)c([H])c6[H])c(C(=O)N([H])[H])c5N([H])[H])C4([H])[H])c([H])c([H])c3C([H])(C([H])([H])[H])C([H])([H])[H])c([H])c([H])c2C1([H])[H]

$$$$
33:0:0
     RDKit          3D

 92100  0  0  1  0  0  0  0  0999 V2000
  -29.5940  -20.5910   19.7040 C   0  0  0  0  0  3  0  0  0  0  0  0
  -30.0000  -20.2420   22.3110 C   0  0  0  0  0  3  0  0  0  0  0  0
  -29.5330  -21.8620   20.4950 C   0  0  0  0  0  0  0  0  0  0  0  0
  -29.8400  -21.5990   21.8840 C   0  0  0  0  0  0  0  0  0  0  0  0
  -29.8690  -19.2240   20.2440 C   0  0  0  0  0  0  0  0  0  0  0  0
  -30.0070  -19.1230   21.5650 N   0  0  0  0  0  0  0  0  0  0  0  0
  -29.4150  -23.9820   23.0100 C   0  0  0  0  0  1  0  0  0  0  0  0
  -30.2070  -22.6700   22.9630 C   0  0  0  0  0  3  0  0  0  0  0  0
  -31.6610  -21.6350   24.8380 C   0  0  0  0  0  1  0  0  0  0  0  0
  -30.2620  -22.1230   24.4230 C   0  0  0  0  0  2  0  0  0  0  0  0
  -29.4600  -23.4230   19.8750 C   0  0  0  0  0  2  0  0  0  0  0  0
  -28.2500  -24.6390   19.9380 C   0  0  0  0  0  2  0  0  0  0  0  0
  -28.4410  -26.2000   20.0560 O   0  0  0  0  0  0  0  0  0  0  0  0
  -24.5410  -31.7520   23.0240 C   0  0  0  0  0  0  0  0  0  0  0  0
  -27.3530  -27.1570   19.9840 C   0  0  0  0  0  0  0  0  0  0  0  0
  -23.4350  -30.3560   21.3210 C   0  0  0  0  0  3  0  0  0  0  0  0
  -24.9730  -28.8450   19.9160 C   0  0  0  0  0  0  0  0  0  0  0  0
  -25.9840  -30.6920   21.2430 C   0  0  0  0  0  2  0  0  0  0  0  0
  -26.1210  -29.3140   20.5650 C   0  0  0  0  0  0  0  0  0  0  0  0
  -27.3110  -28.4870   20.5780 C   0  0  0  0  0  3  0  0  0  0  0  0
  -26.1720  -26.7950   19.3000 C   0  0  0  0  0  3  0  0  0  0  0  0
  -25.0120  -27.6000   19.2700 C   0  0  0  0  0  3  0  0  0  0  0  0
  -23.7200  -29.7090   19.9400 C   0  0  0  0  0  2  0  0  0  0  0  0
  -24.6720  -30.9540   21.9190 N   0  0  0  0  0  0  0  0  0  0  0  0
  -23.4310  -31.9980   23.5220 O   0  0  0  0  0  0  0  0  0  0  0  0
  -22.7500  -29.3150   22.2440 C   0  0  0  0  0  0  0  0  0  0  0  0
  -21.4140  -29.1870   22.1440 N   0  0  0  0  0  0  0  0  0  0  0  0
  -23.4240  -28.6250   23.0140 O   0  0  0  0  0  0  0  0  0  0  0  0
  -20.9270  -29.7960   21.5020 H   0  0  0  0  0  0  0  0  0  0  0  0
  -18.0070  -28.1070   22.7400 C   0  0  0  0  0  0  0  0  0  0  0  0
  -20.5870  -28.2280   22.8830 C   0  0  0  0  0  3  0  0  0  0  0  0
  -20.5830  -26.8440   22.1910 C   0  0  0  0  0  2  0  0  0  0  0  0
  -19.4150  -26.6590   21.2160 C   0  0  0  0  0  2  0  0  0  0  0  0
  -18.0790  -26.8130   21.9470 C   0  0  0  0  0  2  0  0  0  0  0  0
  -19.1840  -28.7790   23.1660 C   0  0  0  0  0  0  0  0  0  0  0  0
  -19.0580  -29.9940   23.8740 C   0  0  0  0  0  3  0  0  0  0  0  0
  -17.7900  -30.5380   24.1520 C   0  0  0  0  0  3  0  0  0  0  0  0
  -16.6290  -29.8610   23.7390 C   0  0  0  0  0  3  0  0  0  0  0  0
  -16.7400  -28.6460   23.0410 C   0  0  0  0  0  3  0  0  0  0  0  0
  -25.7800  -32.4120   23.7060 C   0  0  0  0  0  3  0  0  0  0  0  0
  -25.4220  -33.7970   24.0450 N   0  0  0  0  0  0  0  0  0  0  0  0
  -25.7690  -34.8760   23.3290 C   0  0  0  0  0  0  0  0  0  0  0  0
  -26.4890  -34.8080   22.3300 O   0  0  0  0  0  0  0  0  0  0  0  0
  -24.7860  -33.9210   24.8190 H   0  0  0  0  0  0  0  0  0  0  0  0
  -24.0370  -36.6550   22.9220 C   0  0  0  0  0  1  0  0  0  0  0  0
  -25.2360  -36.2450   23.7940 C   0  0  0  0  0  3  0  0  0  0  0  0
  -27.2970  -37.1460   24.7770 C   0  0  0  0  0  1  0  0  0  0  0  0
  -26.2560  -37.3150   23.7670 N   0  0  0  0  0  0  0  0  0  0  0  0
  -25.8280  -38.2260   23.9060 H   0  0  0  0  0  0  0  0  0  0  0  0
  -26.2610  -31.6390   24.9960 C   0  0  1  0  0  0  0  0  0  0  0  0
  -25.1330  -31.3790   26.0220 C   0  0  0  0  0  1  0  0  0  0  0  0
  -26.8770  -30.2720   24.6190 C   0  0  0  0  0  1  0  0  0  0  0  0
  -27.3760  -32.4450   25.7050 C   0  0  0  0  0  1  0  0  0  0  0  0
  -30.1810  -17.7870   19.4830 C   0  0  0  0  0  2  0  0  0  0  0  0
  -30.7030  -15.1070   19.9300 C   0  0  0  0  0  0  0  0  0  0  0  0
  -30.5750  -12.7010   19.1230 C   0  0  0  0  0  2  0  0  0  0  0  0
  -29.6280  -12.5900   17.9050 C   0  0  0  0  0  2  0  0  0  0  0  0
  -28.1770  -12.3820   18.3750 C   0  0  0  0  0  2  0  0  0  0  0  0
  -27.7790  -13.3550   19.5170 C   0  0  0  0  0  3  0  0  0  0  0  0
  -28.8540  -13.4380   20.6220 C   0  0  0  0  0  2  0  0  0  0  0  0
  -30.1090  -13.8400   19.9750 N   0  0  0  0  0  0  0  0  0  0  0  0
  -31.8870  -15.1430   19.5820 O   0  0  0  0  0  0  0  0  0  0  0  0
  -29.9510  -16.3130   20.0440 N   0  0  0  0  0  0  0  0  0  0  0  0
  -29.0310  -16.1880   20.4370 H   0  0  0  0  0  0  0  0  0  0  0  0
  -25.4190  -13.9360   20.3190 C   0  0  0  0  0  0  0  0  0  0  0  0
  -24.3610  -13.1640   20.7130 C   0  0  0  0  0  0  0  0  0  0  0  0
  -24.8180  -11.8110   20.6670 C   0  0  0  0  0  0  0  0  0  0  0  0
  -26.4540  -13.0560   20.0510 N   0  0  0  0  0  0  0  0  0  0  0  0
  -26.1030  -11.7720   20.3250 N   0  0  0  0  0  0  0  0  0  0  0  0
  -24.0890  -10.5520   20.8710 C   0  0  0  0  0  0  0  0  0  0  0  0
  -24.5050   -9.6060   21.8330 C   0  0  0  0  0  3  0  0  0  0  0  0
  -23.7750   -8.4130   22.0270 C   0  0  0  0  0  3  0  0  0  0  0  0
  -22.6160   -8.1570   21.2560 C   0  0  0  0  0  0  0  0  0  0  0  0
  -22.2190   -9.0920   20.2830 C   0  0  0  0  0  3  0  0  0  0  0  0
  -22.9490  -10.2750   20.0890 C   0  0  0  0  0  3  0  0  0  0  0  0
  -21.8600   -7.0140   21.3560 O   0  0  0  0  0  0  0  0  0  0  0  0
  -21.7460   -6.3280   22.5380 C   0  0  0  0  0  0  0  0  0  0  0  0
  -21.2190   -6.9310   23.7010 C   0  0  0  0  0  3  0  0  0  0  0  0
  -21.0540   -6.1690   24.8760 C   0  0  0  0  0  3  0  0  0  0  0  0
  -21.4070   -4.8060   24.8880 C   0  0  0  0  0  0  0  0  0  0  0  0
  -21.9300   -4.2030   23.7300 C   0  0  0  0  0  3  0  0  0  0  0  0
  -22.0950   -4.9620   22.5570 C   0  0  0  0  0  0  0  0  0  0  0  0
  -22.5790   -4.3720   21.4370 F   0  0  0  0  0  0  0  0  0  0  0  0
  -21.2430   -4.0720   26.0130 F   0  0  0  0  0  0  0  0  0  0  0  0
  -22.9740  -13.6490   21.0160 C   0  0  0  0  0  0  0  0  0  0  0  0
  -22.2690  -12.9690   21.9140 N   0  0  0  0  0  0  0  0  0  0  0  0
  -22.5250  -14.6670   20.4920 O   0  0  0  0  0  0  0  0  0  0  0  0
  -22.6470  -12.1470   22.3610 H   0  0  0  0  0  0  0  0  0  0  0  0
  -21.3380  -13.2770   22.1550 H   0  0  0  0  0  0  0  0  0  0  0  0
  -25.5780  -15.3070   20.1410 N   0  0  0  0  0  0  0  0  0  0  0  0
  -24.8050  -15.9510   20.2720 H   0  0  0  0  0  0  0  0  0  0  0  0
  -26.4060  -15.7510   19.7670 H   0  0  0  0  0  0  0  0  0  0  0  0
  1  5  2  0
  1  3  1  0
  3  4  2  0
  4  2  1  0
  4  8  1  0
  5  6  1  0
  6  2  2  0
  8  7  1  0
  8 10  1  0
 10  9  1  0
 11 12  1  0
 11  3  1  0
 12 13  1  0
 14 25  2  0
 15 13  1  0
 15 20  1  0
 16 24  1  0
 16 26  1  0
 17 23  1  0
 17 19  1  0
 18 24  1  0
 19 20  2  0
 19 18  1  0
 21 15  2  0
 22 21  1  0
 22 17  2  0
 23 16  1  0
 24 14  1  0
 26 28  2  0
 27 26  1  0
 29 27  1  0
 30 39  2  0
 30 35  1  0
 31 27  1  0
 31 35  1  0
 32 31  1  0
 33 34  1  0
 33 32  1  0
 34 30  1  0
 35 36  2  0
 36 37  1  0
 38 37  2  0
 39 38  1  0
 40 14  1  0
 40 41  1  0
 40 50  1  0
 41 44  1  0
 42 46  1  0
 42 41  1  0
 43 42  2  0
 46 45  1  0
 48 46  1  0
 48 49  1  0
 48 47  1  0
 50 53  1  1
 50 51  1  0
 52 50  1  0
 54 63  1  0
 54  5  1  0
 55 61  1  0
 55 63  1  0
 56 61  1  0
 57 58  1  0
 57 56  1  0
 59 58  1  0
 59 68  1  0
 59 60  1  0
 61 60  1  0
 62 55  2  0
 63 64  1  0
 65 66  2  0
 66 85  1  0
 67 66  1  0
 67 70  1  0
 68 65  1  0
 68 69  1  0
 69 67  2  0
 70 71  1  0
 71 72  2  0
 73 76  1  0
 73 72  1  0
 74 73  2  0
 75 74  1  0
 75 70  2  0
 76 77  1  0
 77 82  2  0
 77 78  1  0
 78 79  2  0
 79 80  1  0
 80 84  1  0
 81 80  2  0
 82 81  1  0
 83 82  1  0
 85 86  1  0
 86 89  1  0
 86 88  1  0
 87 85  2  0
 90 91  1  0
 90 65  1  0
 92 90  1  0
M  ISO  4  12 101  13 101  55 100  63 100
M  END
>  <TORSDO>  (33) 
F 21

>  <SCORE>  (33) 
-14.085

>  <name>  (33) 
33

>  <ligand_id>  (33) 
33

>  <original_smiles>  (33) 
[H]c1nc(C([H])([H])N([H])C(=O)N2C([H])([H])C([H])([H])C([H])([H])C([H])(n3nc(-c4c([H])c([H])c(Oc5c([H])c([H])c(F)c([H])c5F)c([H])c4[H])c(C(=O)N([H])[H])c3N([H])[H])C2([H])[H])c([H])c(C([H])([H])C([H])([H])Oc2c([H])c([H])c3c(c2[H])C([H])([H])N(C(=O)C([H])(N([H])C(=O)C([H])(N([H])C([H])([H])[H])C([H])([H])[H])C(C([H])([H])[H])(C([H])([H])[H])C([H])([H])[H])C([H])(C(=O)N([H])C2([H])c4c([H])c([H])c([H])c([H])c4C([H])([H])C([H])([H])C2([H])[H])C3([H])[H])c1C([H])(C([H])([H])[H])C([H])([H])C([H])([H])[H]

>  <smiles>  (33) 
[H]c1nc(C([H])([H])N([H])C(=O)N2C([H])([H])C([H])([H])C([H])([H])C([H])(n3nc(-c4c([H])c([H])c(Oc5c([H])c([H])c(F)c([H])c5F)c([H])c4[H])c(C(=O)N([H])[H])c3N([H])[H])C2([H])[H])c([H])c(C([H])([H])C([H])([H])Oc2c([H])c([H])c3c(c2[H])C([H])([H])N(C(=O)C([H])(N([H])C(=O)C([H])(N([H])C([H])([H])[H])C([H])([H])[H])C(C([H])([H])[H])(C([H])([H])[H])C([H])([H])[H])C([H])(C(=O)N([H])C2([H])c4c([H])c([H])c([H])c([H])c4C([H])([H])C([H])([H])C2([H])[H])C3([H])[H])c1C([H])(C([H])([H])[H])C([H])([H])C([H])([H])[H]

$$$$
34:0:0
     RDKit          3D

 98106  0  0  1  0  0  0  0  0999 V2000
  -29.3470  -20.3780   21.5250 C   0  0  0  0  0  2  0  0  0  0  0  0
  -31.3800  -14.8600   19.9300 C   0  0  0  0  0  0  0  0  0  0  0  0
  -30.9870  -12.6940   18.8150 C   0  0  0  0  0  2  0  0  0  0  0  0
  -29.9020  -12.8330   17.7300 C   0  0  0  0  0  2  0  0  0  0  0  0
  -28.5000  -12.6430   18.3380 C   0  0  0  0  0  2  0  0  0  0  0  0
  -28.2770  -13.5010   19.6120 C   0  0  0  0  0  3  0  0  0  0  0  0
  -29.4630  -13.3480   20.5920 C   0  0  0  0  0  2  0  0  0  0  0  0
  -30.7060  -13.6800   19.8720 N   0  0  0  0  0  0  0  0  0  0  0  0
  -32.3500  -15.0920   19.1980 O   0  0  0  0  0  0  0  0  0  0  0  0
  -30.2430  -18.0390   21.2320 C   0  0  0  0  0  3  0  0  0  0  0  0
  -30.5120  -19.4220   21.2710 C   0  0  0  0  0  0  0  0  0  0  0  0
  -31.8410  -19.8540   21.0230 C   0  0  0  0  0  0  0  0  0  0  0  0
  -32.8350  -18.8630   20.8270 C   0  0  0  0  0  0  0  0  0  0  0  0
  -31.2660  -17.1240   20.9260 C   0  0  0  0  0  0  0  0  0  0  0  0
  -32.2060  -21.3330   20.9250 C   0  0  0  0  0  1  0  0  0  0  0  0
  -32.5380  -17.5490   20.7720 N   0  0  0  0  0  0  0  0  0  0  0  0
  -30.8840  -15.7660   20.7900 N   0  0  0  0  0  0  0  0  0  0  0  0
  -30.0470  -15.4830   21.2730 H   0  0  0  0  0  0  0  0  0  0  0  0
  -26.0300  -14.0300   20.7530 C   0  0  0  0  0  0  0  0  0  0  0  0
  -25.0060  -13.2240   21.1760 C   0  0  0  0  0  0  0  0  0  0  0  0
  -25.4160  -11.8860   20.8930 C   0  0  0  0  0  0  0  0  0  0  0  0
  -27.0020  -13.1790   20.2510 N   0  0  0  0  0  0  0  0  0  0  0  0
  -26.6430  -11.8760   20.3880 N   0  0  0  0  0  0  0  0  0  0  0  0
  -24.6900  -10.6150   21.0210 C   0  0  0  0  0  0  0  0  0  0  0  0
  -25.0980   -9.6200   21.9360 C   0  0  0  0  0  3  0  0  0  0  0  0
  -24.3710   -8.4140   22.0540 C   0  0  0  0  0  3  0  0  0  0  0  0
  -23.2230   -8.1980   21.2560 C   0  0  0  0  0  0  0  0  0  0  0  0
  -22.8340   -9.1820   20.3310 C   0  0  0  0  0  3  0  0  0  0  0  0
  -23.5610  -10.3790   20.2120 C   0  0  0  0  0  3  0  0  0  0  0  0
  -22.4720   -7.0470   21.2850 O   0  0  0  0  0  0  0  0  0  0  0  0
  -22.2350   -6.3710   22.4530 C   0  0  0  0  0  0  0  0  0  0  0  0
  -21.6050   -6.9880   23.5570 C   0  0  0  0  0  3  0  0  0  0  0  0
  -21.3190   -6.2360   24.7140 C   0  0  0  0  0  3  0  0  0  0  0  0
  -21.6500   -4.8690   24.7670 C   0  0  0  0  0  0  0  0  0  0  0  0
  -22.2710   -4.2520   23.6680 C   0  0  0  0  0  3  0  0  0  0  0  0
  -22.5600   -5.0010   22.5130 C   0  0  0  0  0  0  0  0  0  0  0  0
  -23.1400   -4.3960   21.4470 F   0  0  0  0  0  0  0  0  0  0  0  0
  -21.3670   -4.1450   25.8760 F   0  0  0  0  0  0  0  0  0  0  0  0
  -23.6810  -13.6720   21.7230 C   0  0  0  0  0  0  0  0  0  0  0  0
  -23.1120  -12.9080   22.6480 N   0  0  0  0  0  0  0  0  0  0  0  0
  -23.1660  -14.7320   21.3660 O   0  0  0  0  0  0  0  0  0  0  0  0
  -23.5450  -12.0500   22.9570 H   0  0  0  0  0  0  0  0  0  0  0  0
  -22.2290  -13.1850   23.0550 H   0  0  0  0  0  0  0  0  0  0  0  0
  -26.2090  -15.4090   20.7380 N   0  0  0  0  0  0  0  0  0  0  0  0
  -25.4900  -16.0530   21.0520 H   0  0  0  0  0  0  0  0  0  0  0  0
  -27.0090  -15.8800   20.3340 H   0  0  0  0  0  0  0  0  0  0  0  0
  -34.6780  -18.9900   19.0940 C   0  0  0  0  0  1  0  0  0  0  0  0
  -35.2550  -18.4080   21.5080 C   0  0  0  0  0  1  0  0  0  0  0  0
  -34.3120  -19.1890   20.5730 C   0  0  0  0  0  3  0  0  0  0  0  0
  -29.4250  -21.1420   22.8700 C   0  0  0  0  0  2  0  0  0  0  0  0
  -29.8960  -22.6100   22.7700 C   0  0  0  0  0  2  0  0  0  0  0  0
  -28.9810  -23.4350   21.9480 N   0  0  0  0  0  4  0  0  0  0  0  0
  -28.1100  -23.5530   22.4440 H   0  0  0  0  0  0  0  0  0  0  0  0
  -28.7800  -22.9270   21.1030 H   0  0  0  0  0  0  0  0  0  0  0  0
  -29.5130  -24.7610   21.5570 C   0  0  0  0  0  2  0  0  0  0  0  0
  -28.5970  -25.4480   20.5260 C   0  0  0  0  0  2  0  0  0  0  0  0
  -29.1080  -26.8230   20.0630 C   0  0  0  0  0  2  0  0  0  0  0  0
  -28.4000  -27.2140   18.8890 O   0  0  0  0  0  0  0  0  0  0  0  0
  -24.5040  -31.6700   22.8530 C   0  0  0  0  0  0  0  0  0  0  0  0
  -27.2010  -27.8420   19.1050 C   0  0  0  0  0  0  0  0  0  0  0  0
  -23.2720  -30.3820   21.1330 C   0  0  0  0  0  3  0  0  0  0  0  0
  -24.7160  -29.1270   19.4470 C   0  0  0  0  0  0  0  0  0  0  0  0
  -25.7410  -30.9500   20.8190 C   0  0  0  0  0  2  0  0  0  0  0  0
  -25.8700  -29.6690   20.0260 C   0  0  0  0  0  0  0  0  0  0  0  0
  -27.1160  -29.0280   19.8640 C   0  0  0  0  0  3  0  0  0  0  0  0
  -26.0390  -27.3100   18.5140 C   0  0  0  0  0  3  0  0  0  0  0  0
  -24.7920  -27.9420   18.6910 C   0  0  0  0  0  3  0  0  0  0  0  0
  -23.4240  -29.8780   19.6730 C   0  0  0  0  0  2  0  0  0  0  0  0
  -24.5270  -31.0090   21.6610 N   0  0  0  0  0  0  0  0  0  0  0  0
  -23.4510  -31.8010   23.4910 O   0  0  0  0  0  0  0  0  0  0  0  0
  -22.7600  -29.2140   22.0050 C   0  0  0  0  0  0  0  0  0  0  0  0
  -21.4400  -28.9760   21.9650 N   0  0  0  0  0  0  0  0  0  0  0  0
  -23.5420  -28.5290   22.6700 O   0  0  0  0  0  0  0  0  0  0  0  0
  -20.8680  -29.5860   21.3990 H   0  0  0  0  0  0  0  0  0  0  0  0
  -18.1750  -27.5670   22.6000 C   0  0  0  0  0  0  0  0  0  0  0  0
  -20.7350  -27.9060   22.6710 C   0  0  0  0  0  3  0  0  0  0  0  0
  -20.8320  -26.5730   21.8940 C   0  0  0  0  0  2  0  0  0  0  0  0
  -19.6490  -26.3370   20.9500 C   0  0  0  0  0  2  0  0  0  0  0  0
  -18.3320  -26.3290   21.7330 C   0  0  0  0  0  2  0  0  0  0  0  0
  -19.3020  -28.3170   23.0270 C   0  0  0  0  0  0  0  0  0  0  0  0
  -19.1000  -29.4800   23.8000 C   0  0  0  0  0  3  0  0  0  0  0  0
  -17.8000  -29.8940   24.1510 C   0  0  0  0  0  3  0  0  0  0  0  0
  -16.6880  -29.1390   23.7380 C   0  0  0  0  0  3  0  0  0  0  0  0
  -16.8770  -27.9770   22.9680 C   0  0  0  0  0  3  0  0  0  0  0  0
  -25.7930  -32.3090   23.4610 C   0  0  0  0  0  3  0  0  0  0  0  0
  -25.4240  -33.6340   23.9750 N   0  0  0  0  0  0  0  0  0  0  0  0
  -25.6510  -34.7870   23.3330 C   0  0  0  0  0  0  0  0  0  0  0  0
  -26.2670  -34.8500   22.2650 O   0  0  0  0  0  0  0  0  0  0  0  0
  -24.8630  -33.6520   24.8150 H   0  0  0  0  0  0  0  0  0  0  0  0
  -23.8020  -36.4900   23.2890 C   0  0  0  0  0  1  0  0  0  0  0  0
  -25.1110  -36.0770   23.9800 C   0  0  0  0  0  3  0  0  0  0  0  0
  -27.2330  -36.9990   24.8000 C   0  0  0  0  0  1  0  0  0  0  0  0
  -26.0710  -37.2010   23.9380 N   0  0  0  0  0  0  0  0  0  0  0  0
  -25.6210  -38.0710   24.2120 H   0  0  0  0  0  0  0  0  0  0  0  0
  -26.4490  -31.4300   24.5950 C   0  0  1  0  0  0  0  0  0  0  0  0
  -25.4560  -30.9940   25.6970 C   0  0  0  0  0  1  0  0  0  0  0  0
  -27.0810  -30.1530   23.9950 C   0  0  0  0  0  1  0  0  0  0  0  0
  -27.6000  -32.2170   25.2680 C   0  0  0  0  0  1  0  0  0  0  0  0
  1 50  1  0
  2 17  1  0
  3  8  1  0
  4  5  1  0
  4  3  1  0
  6  5  1  0
  6 22  1  0
  6  7  1  0
  8  2  1  0
  8  7  1  0
  9  2  2  0
 10 11  1  0
 11  1  1  0
 12 11  2  0
 13 12  1  0
 14 10  2  0
 15 12  1  0
 16 13  2  0
 16 14  1  0
 17 14  1  0
 17 18  1  0
 19 20  2  0
 20 39  1  0
 21 24  1  0
 21 20  1  0
 22 23  1  0
 22 19  1  0
 23 21  2  0
 24 25  1  0
 25 26  2  0
 27 30  1  0
 27 26  1  0
 28 27  2  0
 29 28  1  0
 29 24  2  0
 30 31  1  0
 31 36  2  0
 31 32  1  0
 32 33  2  0
 33 34  1  0
 34 38  1  0
 35 34  2  0
 36 35  1  0
 37 36  1  0
 39 40  1  0
 40 42  1  0
 40 43  1  0
 41 39  2  0
 44 19  1  0
 44 45  1  0
 46 44  1  0
 47 49  1  0
 49 13  1  0
 49 48  1  0
 51 50  1  0
 52 53  1  0
 52 51  1  0
 54 52  1  0
 55 52  1  0
 56 55  1  0
 57 56  1  0
 58 60  1  0
 58 57  1  0
 59 70  2  0
 60 65  1  0
 61 69  1  0
 61 71  1  0
 62 68  1  0
 62 64  1  0
 63 69  1  0
 64 63  1  0
 65 64  2  0
 66 67  1  0
 66 60  2  0
 67 62  2  0
 68 61  1  0
 69 59  1  0
 71 73  2  0
 72 71  1  0
 74 72  1  0
 75 84  2  0
 75 80  1  0
 76 72  1  0
 76 80  1  0
 77 76  1  0
 78 79  1  0
 78 77  1  0
 79 75  1  0
 80 81  2  0
 81 82  1  0
 83 82  2  0
 84 83  1  0
 85 59  1  0
 85 86  1  0
 85 95  1  0
 86 89  1  0
 87 86  1  0
 87 91  1  0
 88 87  2  0
 91 90  1  0
 93 91  1  0
 93 94  1  0
 93 92  1  0
 95 98  1  1
 95 96  1  0
 97 95  1  0
M  ISO  4   2 100  17 100  57 101  58 101
M  END
>  <TORSDO>  (34) 
F 23

>  <SCORE>  (34) 
-8.927

>  <name>  (34) 
34

>  <ligand_id>  (34) 
34

>  <original_smiles>  (34) 
[H]c1c([H])c([H])c2c(c1[H])C([H])([H])C([H])([H])C([H])([H])C2([H])N([H])C(=O)C1([H])N(C(=O)C([H])(N([H])C(=O)C([H])(N([H])C([H])([H])[H])C([H])([H])[H])C(C([H])([H])[H])(C([H])([H])[H])C([H])([H])[H])C([H])([H])c2c([H])c(OC([H])([H])C([H])([H])C([H])([H])[N+]([H])([H])C([H])([H])C([H])([H])C([H])([H])c3c([H])c(N([H])C(=O)N4C([H])([H])C([H])([H])C([H])([H])C([H])(n5nc(-c6c([H])c([H])c(Oc7c([H])c([H])c(F)c([H])c7F)c([H])c6[H])c(C(=O)N([H])[H])c5N([H])[H])C4([H])[H])nc(C([H])(C([H])([H])[H])C([H])([H])[H])c3C([H])([H])[H])c([H])c([H])c2C1([H])[H]

>  <smiles>  (34) 
[H]c1c([H])c([H])c2c(c1[H])C([H])([H])C([H])([H])C([H])([H])C2([H])N([H])C(=O)C1([H])N(C(=O)C([H])(N([H])C(=O)C([H])(N([H])C([H])([H])[H])C([H])([H])[H])C(C([H])([H])[H])(C([H])([H])[H])C([H])([H])[H])C([H])([H])c2c([H])c(OC([H])([H])C([H])([H])C([H])([H])[N+]([H])([H])C([H])([H])C([H])([H])C([H])([H])c3c([H])c(N([H])C(=O)N4C([H])([H])C([H])([H])C([H])([H])C([H])(n5nc(-c6c([H])c([H])c(Oc7c([H])c([H])c(F)c([H])c7F)c([H])c6[H])c(C(=O)N([H])[H])c5N([H])[H])C4([H])[H])nc(C([H])(C([H])([H])[H])C([H])([H])[H])c3C([H])([H])[H])c([H])c([H])c2C1([H])[H]

$$$$
35:0:0
     RDKit          3D

 90 98  0  0  1  0  0  0  0  0999 V2000
  -28.5590  -21.1620   20.7300 C   0  0  0  0  0  3  0  0  0  0  0  0
  -29.3840  -20.0990   20.3490 C   0  0  0  0  0  0  0  0  0  0  0  0
  -30.5110  -20.7720   19.7650 C   0  0  0  0  0  0  0  0  0  0  0  0
  -30.3450  -22.1430   19.8720 C   0  0  0  0  0  0  0  0  0  0  0  0
  -31.7060  -20.0880   19.1470 C   0  0  0  0  0  1  0  0  0  0  0  0
  -31.2970  -23.2360   19.4880 C   0  0  0  0  0  1  0  0  0  0  0  0
  -29.1080  -22.4380   20.4430 N   0  0  0  0  0  0  0  0  0  0  0  0
  -29.1010  -18.5270   20.4940 C   0  0  0  0  0  3  0  0  0  0  0  0
  -30.2540  -17.3880   20.4470 C   0  0  0  0  0  3  0  0  0  0  0  0
  -30.6390  -14.7880   20.3360 C   0  0  0  0  0  0  0  0  0  0  0  0
  -30.4300  -12.5300   19.2930 C   0  0  0  0  0  2  0  0  0  0  0  0
  -29.4740  -12.6260   18.0830 C   0  0  0  0  0  2  0  0  0  0  0  0
  -28.0110  -12.4410   18.5310 C   0  0  0  0  0  2  0  0  0  0  0  0
  -27.6540  -13.3080   19.7690 C   0  0  0  0  0  3  0  0  0  0  0  0
  -28.7280  -13.2020   20.8740 C   0  0  0  0  0  2  0  0  0  0  0  0
  -30.0140  -13.5640   20.2680 N   0  0  0  0  0  0  0  0  0  0  0  0
  -31.8150  -14.9030   19.9790 O   0  0  0  0  0  0  0  0  0  0  0  0
  -29.8710  -15.9120   20.5940 N   0  0  0  0  0  0  0  0  0  0  0  0
  -28.9140  -15.7260   20.8510 H   0  0  0  0  0  0  0  0  0  0  0  0
  -25.2710  -13.8790   20.5300 C   0  0  0  0  0  0  0  0  0  0  0  0
  -24.2150  -13.0960   20.9070 C   0  0  0  0  0  0  0  0  0  0  0  0
  -24.6840  -11.7480   20.8580 C   0  0  0  0  0  0  0  0  0  0  0  0
  -26.3160  -13.0070   20.2730 N   0  0  0  0  0  0  0  0  0  0  0  0
  -25.9710  -11.7200   20.5340 N   0  0  0  0  0  0  0  0  0  0  0  0
  -23.9680  -10.4800   21.0450 C   0  0  0  0  0  0  0  0  0  0  0  0
  -24.4070   -9.5120   21.9740 C   0  0  0  0  0  3  0  0  0  0  0  0
  -23.6900   -8.3090   22.1500 C   0  0  0  0  0  3  0  0  0  0  0  0
  -22.5180   -8.0650   21.3940 C   0  0  0  0  0  0  0  0  0  0  0  0
  -22.0980   -9.0210   20.4530 C   0  0  0  0  0  3  0  0  0  0  0  0
  -22.8160  -10.2160   20.2760 C   0  0  0  0  0  3  0  0  0  0  0  0
  -21.7710   -6.9150   21.4790 O   0  0  0  0  0  0  0  0  0  0  0  0
  -21.7180   -6.1750   22.6330 C   0  0  0  0  0  0  0  0  0  0  0  0
  -21.2550   -6.7230   23.8490 C   0  0  0  0  0  3  0  0  0  0  0  0
  -21.1500   -5.9080   24.9940 C   0  0  0  0  0  3  0  0  0  0  0  0
  -21.4980   -4.5460   24.9230 C   0  0  0  0  0  0  0  0  0  0  0  0
  -21.9550   -3.9980   23.7120 C   0  0  0  0  0  3  0  0  0  0  0  0
  -22.0610   -4.8100   22.5700 C   0  0  0  0  0  0  0  0  0  0  0  0
  -22.4810   -4.2710   21.4000 F   0  0  0  0  0  0  0  0  0  0  0  0
  -21.3920   -3.7610   26.0210 F   0  0  0  0  0  0  0  0  0  0  0  0
  -22.8180  -13.5620   21.1990 C   0  0  0  0  0  0  0  0  0  0  0  0
  -22.1000  -12.8480   22.0580 N   0  0  0  0  0  0  0  0  0  0  0  0
  -22.3720  -14.5950   20.7010 O   0  0  0  0  0  0  0  0  0  0  0  0
  -22.4730  -12.0120   22.4840 H   0  0  0  0  0  0  0  0  0  0  0  0
  -21.1630  -13.1420   22.2970 H   0  0  0  0  0  0  0  0  0  0  0  0
  -25.4250  -15.2530   20.3610 N   0  0  0  0  0  0  0  0  0  0  0  0
  -24.6520  -15.8990   20.4800 H   0  0  0  0  0  0  0  0  0  0  0  0
  -26.2570  -15.6960   19.9920 H   0  0  0  0  0  0  0  0  0  0  0  0
  -28.5580  -23.8180   20.8490 C   0  0  0  0  0  2  0  0  0  0  0  0
  -28.4230  -25.0550   19.8140 C   0  0  0  0  0  2  0  0  0  0  0  0
  -28.3430  -26.4770   20.3060 O   0  0  0  0  0  0  0  0  0  0  0  0
  -24.5650  -31.9070   23.2490 C   0  0  0  0  0  0  0  0  0  0  0  0
  -27.2020  -27.3080   20.2270 C   0  0  0  0  0  0  0  0  0  0  0  0
  -23.3750  -30.4990   21.6070 C   0  0  0  0  0  3  0  0  0  0  0  0
  -24.8360  -28.9420   20.1950 C   0  0  0  0  0  0  0  0  0  0  0  0
  -25.9170  -30.8130   21.4400 C   0  0  0  0  0  2  0  0  0  0  0  0
  -26.0010  -29.4300   20.7980 C   0  0  0  0  0  0  0  0  0  0  0  0
  -27.1820  -28.6230   20.8020 C   0  0  0  0  0  3  0  0  0  0  0  0
  -26.0070  -26.8800   19.6040 C   0  0  0  0  0  3  0  0  0  0  0  0
  -24.8440  -27.6760   19.5900 C   0  0  0  0  0  3  0  0  0  0  0  0
  -23.5980  -29.8180   20.2310 C   0  0  0  0  0  2  0  0  0  0  0  0
  -24.6380  -31.0920   22.1550 N   0  0  0  0  0  0  0  0  0  0  0  0
  -23.4780  -32.1850   23.7750 O   0  0  0  0  0  0  0  0  0  0  0  0
  -22.7080  -29.4870   22.5690 C   0  0  0  0  0  0  0  0  0  0  0  0
  -21.3810  -29.3100   22.4370 N   0  0  0  0  0  0  0  0  0  0  0  0
  -23.3820  -28.8630   23.3920 O   0  0  0  0  0  0  0  0  0  0  0  0
  -20.8960  -29.8670   21.7470 H   0  0  0  0  0  0  0  0  0  0  0  0
  -17.9970  -28.1340   22.9470 C   0  0  0  0  0  0  0  0  0  0  0  0
  -20.5580  -28.3750   23.2070 C   0  0  0  0  0  3  0  0  0  0  0  0
  -20.6490  -26.9450   22.6250 C   0  0  0  0  0  2  0  0  0  0  0  0
  -19.5400  -26.6340   21.6130 C   0  0  0  0  0  2  0  0  0  0  0  0
  -18.1620  -26.7860   22.2630 C   0  0  0  0  0  2  0  0  0  0  0  0
  -19.1220  -28.8870   23.3750 C   0  0  0  0  0  0  0  0  0  0  0  0
  -18.9140  -30.1480   23.9740 C   0  0  0  0  0  3  0  0  0  0  0  0
  -17.6130  -30.6560   24.1480 C   0  0  0  0  0  3  0  0  0  0  0  0
  -16.5030  -29.9010   23.7340 C   0  0  0  0  0  3  0  0  0  0  0  0
  -16.6950  -28.6410   23.1390 C   0  0  0  0  0  3  0  0  0  0  0  0
  -25.8410  -32.5450   23.8780 C   0  0  0  0  0  3  0  0  0  0  0  0
  -26.3410  -31.7910   25.1710 C   0  0  1  0  0  0  0  0  0  0  0  0
  -25.2340  -31.5680   26.2280 C   0  0  0  0  0  1  0  0  0  0  0  0
  -26.9280  -30.4070   24.8060 C   0  0  0  0  0  1  0  0  0  0  0  0
  -27.4830  -32.5930   25.8380 C   0  0  0  0  0  1  0  0  0  0  0  0
  -25.5300  -33.9480   24.1880 N   0  0  0  0  0  0  0  0  0  0  0  0
  -25.8780  -34.9940   23.4250 C   0  0  0  0  0  0  0  0  0  0  0  0
  -26.5620  -34.8780   22.4050 O   0  0  0  0  0  0  0  0  0  0  0  0
  -24.9230  -34.1130   24.9790 H   0  0  0  0  0  0  0  0  0  0  0  0
  -24.1730  -36.7980   23.0150 C   0  0  0  0  0  1  0  0  0  0  0  0
  -25.3890  -36.3890   23.8620 C   0  0  0  0  0  3  0  0  0  0  0  0
  -27.5050  -37.2660   24.7490 C   0  0  0  0  0  1  0  0  0  0  0  0
  -26.4320  -37.4330   23.7710 N   0  0  0  0  0  0  0  0  0  0  0  0
  -26.0290  -38.3570   23.8970 H   0  0  0  0  0  0  0  0  0  0  0  0
  2  8  1  0
  2  1  2  0
  3  4  2  0
  3  2  1  0
  4  7  1  0
  5  3  1  0
  6  4  1  0
  7  1  1  0
  7 48  1  0
  9  8  2  0
  9 18  1  0
 10 18  1  0
 11 16  1  0
 12 13  1  0
 12 11  1  0
 14 13  1  0
 14 23  1  0
 14 15  1  0
 16 10  1  0
 16 15  1  0
 17 10  2  0
 18 19  1  0
 20 21  2  0
 21 40  1  0
 22 21  1  0
 22 25  1  0
 23 20  1  0
 23 24  1  0
 24 22  2  0
 25 26  1  0
 26 27  2  0
 28 31  1  0
 28 27  1  0
 29 28  2  0
 30 29  1  0
 30 25  2  0
 31 32  1  0
 32 33  1  0
 33 34  2  0
 35 34  1  0
 35 39  1  0
 36 35  2  0
 37 32  2  0
 37 36  1  0
 38 37  1  0
 40 41  1  0
 41 44  1  0
 41 43  1  0
 42 40  2  0
 45 46  1  0
 45 20  1  0
 47 45  1  0
 49 50  1  0
 49 48  1  0
 51 62  2  0
 52 50  1  0
 52 57  1  0
 53 61  1  0
 53 63  1  0
 54 60  1  0
 54 56  1  0
 55 61  1  0
 56 57  2  0
 56 55  1  0
 58 52  2  0
 59 58  1  0
 59 54  2  0
 60 53  1  0
 61 51  1  0
 63 65  2  0
 64 63  1  0
 66 64  1  0
 67 76  2  0
 67 72  1  0
 68 64  1  0
 68 72  1  0
 69 68  1  0
 70 71  1  0
 70 69  1  0
 71 67  1  0
 72 73  2  0
 73 74  1  0
 75 74  2  0
 76 75  1  0
 77 51  1  0
 77 82  1  0
 77 78  1  0
 78 81  1  1
 78 79  1  0
 80 78  1  0
 82 85  1  0
 83 87  1  0
 83 82  1  0
 84 83  2  0
 87 86  1  0
 89 87  1  0
 89 90  1  0
 89 88  1  0
M  ISO  4  10 100  18 100  49 101  50 101
M  END
>  <TORSDO>  (35) 
F 20

>  <SCORE>  (35) 
-13.894

>  <name>  (35) 
35

>  <ligand_id>  (35) 
35

>  <original_smiles>  (35) 
[H]c1c([H])c([H])c2c(c1[H])C([H])([H])C([H])([H])C([H])([H])C2([H])N([H])C(=O)C1([H])N(C(=O)C([H])(N([H])C(=O)C([H])(N([H])C([H])([H])[H])C([H])([H])[H])C(C([H])([H])[H])(C([H])([H])[H])C([H])([H])[H])C([H])([H])c2c([H])c(OC([H])([H])C([H])([H])n3c([H])c(C([H])([H])C([H])([H])N([H])C(=O)N4C([H])([H])C([H])([H])C([H])([H])C([H])(n5nc(-c6c([H])c([H])c(Oc7c([H])c([H])c(F)c([H])c7F)c([H])c6[H])c(C(=O)N([H])[H])c5N([H])[H])C4([H])[H])c(C([H])([H])[H])c3C([H])([H])[H])c([H])c([H])c2C1([H])[H]

>  <smiles>  (35) 
[H]c1c([H])c([H])c2c(c1[H])C([H])([H])C([H])([H])C([H])([H])C2([H])N([H])C(=O)C1([H])N(C(=O)C([H])(N([H])C(=O)C([H])(N([H])C([H])([H])[H])C([H])([H])[H])C(C([H])([H])[H])(C([H])([H])[H])C([H])([H])[H])C([H])([H])c2c([H])c(OC([H])([H])C([H])([H])n3c([H])c(C([H])([H])C([H])([H])N([H])C(=O)N4C([H])([H])C([H])([H])C([H])([H])C([H])(n5nc(-c6c([H])c([H])c(Oc7c([H])c([H])c(F)c([H])c7F)c([H])c6[H])c(C(=O)N([H])[H])c5N([H])[H])C4([H])[H])c(C([H])([H])[H])c3C([H])([H])[H])c([H])c([H])c2C1([H])[H]

$$$$
36:0:0
     RDKit          3D

 95103  0  0  1  0  0  0  0  0999 V2000
  -30.0880  -22.4840   20.0510 C   0  0  0  0  0  3  0  0  0  0  0  0
  -28.3040  -20.9360   19.5980 C   0  0  0  0  0  3  0  0  0  0  0  0
  -28.7500  -22.3140   19.7000 C   0  0  0  0  0  0  0  0  0  0  0  0
  -30.9130  -21.4300   20.4750 C   0  0  0  0  0  0  0  0  0  0  0  0
  -29.1360  -19.7890   19.9450 C   0  0  0  0  0  0  0  0  0  0  0  0
  -30.4380  -20.0750   20.4910 C   0  0  0  0  0  0  0  0  0  0  0  0
  -31.4880  -19.1200   22.6520 C   0  0  0  0  0  1  0  0  0  0  0  0
  -32.5710  -18.5930   20.3700 C   0  0  0  0  0  1  0  0  0  0  0  0
  -31.2770  -18.9460   21.1370 C   0  0  0  0  0  3  0  0  0  0  0  0
  -32.2630  -22.8580   22.1110 C   0  0  0  0  0  1  0  0  0  0  0  0
  -32.3020  -21.8970   20.9090 C   0  0  0  0  0  2  0  0  0  0  0  0
  -27.9570  -23.6450   19.3380 C   0  0  0  0  0  2  0  0  0  0  0  0
  -28.6700  -24.7920   21.6410 C   0  0  0  0  0  1  0  0  0  0  0  0
  -27.8040  -24.8930   20.3780 C   0  0  0  0  0  3  0  0  0  0  0  0
  -28.0250  -26.3040   19.9470 O   0  0  0  0  0  0  0  0  0  0  0  0
  -24.5740  -31.7820   23.2620 C   0  0  0  0  0  0  0  0  0  0  0  0
  -26.9560  -27.2100   20.0190 C   0  0  0  0  0  0  0  0  0  0  0  0
  -23.2970  -30.4790   21.6030 C   0  0  0  0  0  3  0  0  0  0  0  0
  -24.6650  -28.9160   20.1040 C   0  0  0  0  0  0  0  0  0  0  0  0
  -25.8430  -30.7000   21.3890 C   0  0  0  0  0  2  0  0  0  0  0  0
  -25.8620  -29.3380   20.6970 C   0  0  0  0  0  0  0  0  0  0  0  0
  -27.0180  -28.4970   20.6420 C   0  0  0  0  0  3  0  0  0  0  0  0
  -25.7420  -26.8440   19.4050 C   0  0  0  0  0  3  0  0  0  0  0  0
  -24.6060  -27.6760   19.4470 C   0  0  0  0  0  3  0  0  0  0  0  0
  -23.4670  -29.8430   20.1980 C   0  0  0  0  0  2  0  0  0  0  0  0
  -24.5930  -31.0020   22.1420 N   0  0  0  0  0  0  0  0  0  0  0  0
  -23.5100  -32.0810   23.8240 O   0  0  0  0  0  0  0  0  0  0  0  0
  -22.6130  -29.4570   22.5400 C   0  0  0  0  0  0  0  0  0  0  0  0
  -21.2860  -29.2870   22.3860 N   0  0  0  0  0  0  0  0  0  0  0  0
  -23.2710  -28.8190   23.3660 O   0  0  0  0  0  0  0  0  0  0  0  0
  -20.8120  -29.8570   21.7010 H   0  0  0  0  0  0  0  0  0  0  0  0
  -17.9000  -28.0750   22.7820 C   0  0  0  0  0  0  0  0  0  0  0  0
  -20.4460  -28.3480   23.1330 C   0  0  0  0  0  3  0  0  0  0  0  0
  -20.5760  -26.9150   22.5690 C   0  0  0  0  0  2  0  0  0  0  0  0
  -19.5110  -26.5800   21.5220 C   0  0  0  0  0  2  0  0  0  0  0  0
  -18.1070  -26.7230   22.1180 C   0  0  0  0  0  2  0  0  0  0  0  0
  -19.0000  -28.8440   23.2440 C   0  0  0  0  0  0  0  0  0  0  0  0
  -18.7570  -30.1080   23.8240 C   0  0  0  0  0  3  0  0  0  0  0  0
  -17.4440  -30.6040   23.9460 C   0  0  0  0  0  3  0  0  0  0  0  0
  -16.3580  -29.8300   23.5010 C   0  0  0  0  0  3  0  0  0  0  0  0
  -16.5870  -28.5680   22.9230 C   0  0  0  0  0  3  0  0  0  0  0  0
  -25.8870  -32.3530   23.8820 C   0  0  0  0  0  3  0  0  0  0  0  0
  -25.6480  -33.7650   24.2130 N   0  0  0  0  0  0  0  0  0  0  0  0
  -26.0200  -34.8000   23.4480 C   0  0  0  0  0  0  0  0  0  0  0  0
  -26.6720  -34.6630   22.4080 O   0  0  0  0  0  0  0  0  0  0  0  0
  -25.0750  -33.9460   25.0250 H   0  0  0  0  0  0  0  0  0  0  0  0
  -24.3720  -36.6710   23.1170 C   0  0  0  0  0  1  0  0  0  0  0  0
  -25.6070  -36.2110   23.9090 C   0  0  0  0  0  3  0  0  0  0  0  0
  -27.7840  -37.0130   24.7170 C   0  0  0  0  0  1  0  0  0  0  0  0
  -26.6870  -37.2140   23.7740 N   0  0  0  0  0  0  0  0  0  0  0  0
  -26.3190  -38.1530   23.9130 H   0  0  0  0  0  0  0  0  0  0  0  0
  -26.3660  -31.5570   25.1590 C   0  0  1  0  0  0  0  0  0  0  0  0
  -25.2600  -31.3550   26.2200 C   0  0  0  0  0  1  0  0  0  0  0  0
  -26.8980  -30.1600   24.7650 C   0  0  0  0  0  1  0  0  0  0  0  0
  -27.5430  -32.3050   25.8310 C   0  0  0  0  0  1  0  0  0  0  0  0
  -28.5850  -18.2830   19.8630 C   0  0  0  0  0  2  0  0  0  0  0  0
  -29.4600  -17.0720   19.2340 C   0  0  0  0  0  2  0  0  0  0  0  0
  -30.1250  -14.5720   19.5340 C   0  0  0  0  0  0  0  0  0  0  0  0
  -30.0650  -12.1840   18.8190 C   0  0  0  0  0  2  0  0  0  0  0  0
  -29.0080  -12.0200   17.7040 C   0  0  0  0  0  2  0  0  0  0  0  0
  -27.6120  -11.7760   18.3100 C   0  0  0  0  0  2  0  0  0  0  0  0
  -27.2700  -12.7780   19.4450 C   0  0  0  0  0  3  0  0  0  0  0  0
  -28.4360  -12.9170   20.4500 C   0  0  0  0  0  2  0  0  0  0  0  0
  -29.6280  -13.3010   19.6870 N   0  0  0  0  0  0  0  0  0  0  0  0
  -31.2450  -14.7420   19.0430 O   0  0  0  0  0  0  0  0  0  0  0  0
  -29.2690  -15.6410   19.7220 N   0  0  0  0  0  0  0  0  0  0  0  0
  -28.3630  -15.4090   20.1010 H   0  0  0  0  0  0  0  0  0  0  0  0
  -25.0010  -13.2790   20.5320 C   0  0  0  0  0  0  0  0  0  0  0  0
  -24.0140  -12.4650   21.0130 C   0  0  0  0  0  0  0  0  0  0  0  0
  -24.4890  -11.1270   20.8500 C   0  0  0  0  0  0  0  0  0  0  0  0
  -26.0160  -12.4380   20.1070 N   0  0  0  0  0  0  0  0  0  0  0  0
  -25.7220  -11.1350   20.3600 N   0  0  0  0  0  0  0  0  0  0  0  0
  -23.8190   -9.8400   21.0780 C   0  0  0  0  0  0  0  0  0  0  0  0
  -24.2770   -8.9320   22.0580 C   0  0  0  0  0  3  0  0  0  0  0  0
  -23.6030   -7.7110   22.2730 C   0  0  0  0  0  3  0  0  0  0  0  0
  -22.4580   -7.3870   21.5060 C   0  0  0  0  0  0  0  0  0  0  0  0
  -22.0200   -8.2870   20.5170 C   0  0  0  0  0  3  0  0  0  0  0  0
  -22.6960   -9.4980   20.3010 C   0  0  0  0  0  3  0  0  0  0  0  0
  -21.7560   -6.2140   21.6260 O   0  0  0  0  0  0  0  0  0  0  0  0
  -21.6040   -5.5860   22.8350 C   0  0  0  0  0  0  0  0  0  0  0  0
  -20.9200   -6.1950   23.9100 C   0  0  0  0  0  3  0  0  0  0  0  0
  -20.7260   -5.4870   25.1130 C   0  0  0  0  0  3  0  0  0  0  0  0
  -21.2080   -4.1700   25.2420 C   0  0  0  0  0  0  0  0  0  0  0  0
  -21.8860   -3.5610   24.1720 C   0  0  0  0  0  3  0  0  0  0  0  0
  -22.0810   -4.2660   22.9720 C   0  0  0  0  0  0  0  0  0  0  0  0
  -22.7160   -3.6660   21.9350 F   0  0  0  0  0  0  0  0  0  0  0  0
  -21.0160   -3.4870   26.3950 F   0  0  0  0  0  0  0  0  0  0  0  0
  -22.6610  -12.8960   21.5040 C   0  0  0  0  0  0  0  0  0  0  0  0
  -22.0750  -12.1430   22.4280 N   0  0  0  0  0  0  0  0  0  0  0  0
  -22.1360  -13.9330   21.1010 O   0  0  0  0  0  0  0  0  0  0  0  0
  -22.5120  -11.3000   22.7710 H   0  0  0  0  0  0  0  0  0  0  0  0
  -21.1770  -12.4150   22.8000 H   0  0  0  0  0  0  0  0  0  0  0  0
  -25.1120  -14.6620   20.3980 N   0  0  0  0  0  0  0  0  0  0  0  0
  -24.3470  -15.2850   20.6400 H   0  0  0  0  0  0  0  0  0  0  0  0
  -25.8710  -15.1350   19.9240 H   0  0  0  0  0  0  0  0  0  0  0  0
  1  4  1  0
  2  3  1  0
  2  5  2  0
  3  1  2  0
  4  6  2  0
  4 11  1  0
  5  6  1  0
  6  9  1  0
  8  9  1  0
  9  7  1  0
 11 10  1  0
 12  3  1  0
 12 14  1  0
 14 13  1  0
 15 17  1  0
 15 14  1  0
 16 27  2  0
 17 22  1  0
 18 26  1  0
 18 28  1  0
 19 25  1  0
 19 21  1  0
 20 26  1  0
 21 20  1  0
 22 21  2  0
 23 24  1  0
 23 17  2  0
 24 19  2  0
 25 18  1  0
 26 16  1  0
 28 30  2  0
 29 28  1  0
 31 29  1  0
 32 41  2  0
 32 37  1  0
 33 29  1  0
 33 37  1  0
 34 33  1  0
 35 36  1  0
 35 34  1  0
 36 32  1  0
 37 38  2  0
 38 39  1  0
 40 39  2  0
 41 40  1  0
 42 16  1  0
 42 43  1  0
 42 52  1  0
 43 46  1  0
 44 48  1  0
 44 43  1  0
 45 44  2  0
 48 47  1  0
 50 48  1  0
 50 51  1  0
 50 49  1  0
 52 55  1  1
 52 53  1  0
 54 52  1  0
 56  5  1  0
 57 66  1  0
 57 56  1  0
 58 64  1  0
 58 66  1  0
 59 64  1  0
 60 61  1  0
 60 59  1  0
 62 61  1  0
 62 71  1  0
 62 63  1  0
 64 63  1  0
 65 58  2  0
 66 67  1  0
 68 69  2  0
 69 88  1  0
 70 69  1  0
 70 73  1  0
 71 72  1  0
 71 68  1  0
 72 70  2  0
 73 74  1  0
 74 75  2  0
 76 79  1  0
 76 75  1  0
 77 76  2  0
 78 77  1  0
 78 73  2  0
 79 80  1  0
 80 85  2  0
 80 81  1  0
 81 82  2  0
 82 83  1  0
 83 87  1  0
 84 83  2  0
 85 84  1  0
 86 85  1  0
 88 89  1  0
 89 91  1  0
 89 92  1  0
 90 88  2  0
 93 68  1  0
 93 94  1  0
 95 93  1  0
M  ISO  4  14 101  15 101  58 100  66 100
M  END
>  <TORSDO>  (36) 
F 22

>  <SCORE>  (36) 
-10.269

>  <name>  (36) 
36

>  <ligand_id>  (36) 
36

>  <original_smiles>  (36) 
[H]c1c([H])c([H])c2c(c1[H])C([H])([H])C([H])([H])C([H])([H])C2([H])N([H])C(=O)C1([H])N(C(=O)C([H])(N([H])C(=O)C([H])(N([H])C([H])([H])[H])C([H])([H])[H])C(C([H])([H])[H])(C([H])([H])[H])C([H])([H])[H])C([H])([H])c2c([H])c(OC([H])(C([H])([H])[H])C([H])([H])c3c([H])c(C([H])([H])C([H])([H])[H])c(C([H])(C([H])([H])[H])C([H])([H])[H])c(C([H])([H])C([H])([H])N([H])C(=O)N4C([H])([H])C([H])([H])C([H])([H])C([H])(n5nc(-c6c([H])c([H])c(Oc7c([H])c([H])c(F)c([H])c7F)c([H])c6[H])c(C(=O)N([H])[H])c5N([H])[H])C4([H])[H])c3[H])c([H])c([H])c2C1([H])[H]

>  <smiles>  (36) 
[H]c1c([H])c([H])c2c(c1[H])C([H])([H])C([H])([H])C([H])([H])C2([H])N([H])C(=O)C1([H])N(C(=O)C([H])(N([H])C(=O)C([H])(N([H])C([H])([H])[H])C([H])([H])[H])C(C([H])([H])[H])(C([H])([H])[H])C([H])([H])[H])C([H])([H])c2c([H])c(OC([H])(C([H])([H])[H])C([H])([H])c3c([H])c(C([H])([H])C([H])([H])[H])c(C([H])(C([H])([H])[H])C([H])([H])[H])c(C([H])([H])C([H])([H])N([H])C(=O)N4C([H])([H])C([H])([H])C([H])([H])C([H])(n5nc(-c6c([H])c([H])c(Oc7c([H])c([H])c(F)c([H])c7F)c([H])c6[H])c(C(=O)N([H])[H])c5N([H])[H])C4([H])[H])c3[H])c([H])c([H])c2C1([H])[H]

$$$$
37:0:0
     RDKit          3D

 98106  0  0  1  0  0  0  0  0999 V2000
  -30.8850  -21.5310   21.8730 C   0  0  0  0  0  0  0  0  0  0  0  0
  -31.2570  -20.9160   23.0990 C   0  0  0  0  0  0  0  0  0  0  0  0
  -29.9030  -20.9010   21.0450 C   0  0  0  0  0  0  0  0  0  0  0  0
  -30.8910  -19.5710   23.2880 C   0  0  0  0  0  0  0  0  0  0  0  0
  -29.8830  -19.4340   21.1730 C   0  0  0  0  0  0  0  0  0  0  0  0
  -31.1850  -18.7680   24.5460 C   0  0  0  0  0  1  0  0  0  0  0  0
  -30.3090  -18.8580   22.3160 N   0  0  0  0  0  0  0  0  0  0  0  0
  -31.0410  -22.2660   25.2500 C   0  0  0  0  0  1  0  0  0  0  0  0
  -32.0000  -21.6870   24.2000 C   0  0  0  0  0  2  0  0  0  0  0  0
  -31.6280  -22.7900   21.4160 C   0  0  0  0  0  2  0  0  0  0  0  0
  -32.6340  -22.5230   20.2710 C   0  0  0  0  0  2  0  0  0  0  0  0
  -34.1910  -23.4700   18.5100 C   0  0  0  0  0  1  0  0  0  0  0  0
  -32.0700  -24.7180   19.0780 C   0  0  0  0  0  1  0  0  0  0  0  0
  -33.1850  -23.8090   19.6200 C   0  0  0  0  0  3  0  0  0  0  0  0
  -28.8740  -21.8510   20.2590 C   0  0  0  0  0  2  0  0  0  0  0  0
  -28.9160  -23.4850   20.4670 C   0  0  0  0  0  3  0  0  0  0  0  0
  -27.8210  -24.5320   19.9280 C   0  0  0  0  0  3  0  0  0  0  0  0
  -28.1280  -26.0060   19.9820 O   0  0  0  0  0  0  0  0  0  0  0  0
  -25.0690  -31.6840   23.2860 C   0  0  0  0  0  0  0  0  0  0  0  0
  -27.0940  -26.9690   19.9900 C   0  0  0  0  0  0  0  0  0  0  0  0
  -23.6540  -30.4190   21.7080 C   0  0  0  0  0  3  0  0  0  0  0  0
  -24.8780  -28.7920   20.1580 C   0  0  0  0  0  0  0  0  0  0  0  0
  -26.1940  -30.5330   21.3620 C   0  0  0  0  0  2  0  0  0  0  0  0
  -26.1200  -29.1640   20.6870 C   0  0  0  0  0  0  0  0  0  0  0  0
  -27.2290  -28.2640   20.5960 C   0  0  0  0  0  3  0  0  0  0  0  0
  -25.8370  -26.6740   19.4170 C   0  0  0  0  0  3  0  0  0  0  0  0
  -24.7420  -27.5540   19.5110 C   0  0  0  0  0  3  0  0  0  0  0  0
  -23.7220  -29.7610   20.3060 C   0  0  0  0  0  2  0  0  0  0  0  0
  -24.9970  -30.8940   22.1740 N   0  0  0  0  0  0  0  0  0  0  0  0
  -24.0480  -32.0340   23.8960 O   0  0  0  0  0  0  0  0  0  0  0  0
  -22.9770  -29.4370   22.6950 C   0  0  0  0  0  0  0  0  0  0  0  0
  -21.6580  -29.2290   22.5360 N   0  0  0  0  0  0  0  0  0  0  0  0
  -23.6390  -28.8630   23.5640 O   0  0  0  0  0  0  0  0  0  0  0  0
  -21.1820  -29.7430   21.8080 H   0  0  0  0  0  0  0  0  0  0  0  0
  -18.3150  -27.8940   22.9030 C   0  0  0  0  0  0  0  0  0  0  0  0
  -20.8320  -28.3150   23.3260 C   0  0  0  0  0  3  0  0  0  0  0  0
  -21.0450  -26.8480   22.8840 C   0  0  0  0  0  2  0  0  0  0  0  0
  -20.0390  -26.3850   21.8260 C   0  0  0  0  0  2  0  0  0  0  0  0
  -18.6070  -26.5050   22.3580 C   0  0  0  0  0  2  0  0  0  0  0  0
  -19.3610  -28.7490   23.3430 C   0  0  0  0  0  0  0  0  0  0  0  0
  -19.0370  -30.0410   23.8090 C   0  0  0  0  0  3  0  0  0  0  0  0
  -17.6990  -30.4810   23.8410 C   0  0  0  0  0  3  0  0  0  0  0  0
  -16.6680  -29.6250   23.4190 C   0  0  0  0  0  3  0  0  0  0  0  0
  -16.9760  -28.3340   22.9540 C   0  0  0  0  0  3  0  0  0  0  0  0
  -26.4350  -32.2030   23.8310 C   0  0  0  0  0  3  0  0  0  0  0  0
  -27.0650  -31.2580   24.9270 C   0  0  1  0  0  0  0  0  0  0  0  0
  -26.0820  -30.8780   26.0590 C   0  0  0  0  0  1  0  0  0  0  0  0
  -27.5800  -29.9470   24.2910 C   0  0  0  0  0  1  0  0  0  0  0  0
  -28.2920  -31.9480   25.5700 C   0  0  0  0  0  1  0  0  0  0  0  0
  -26.2130  -33.5510   24.3750 N   0  0  0  0  0  0  0  0  0  0  0  0
  -26.5190  -34.6900   23.7390 C   0  0  0  0  0  0  0  0  0  0  0  0
  -27.0860  -34.7130   22.6430 O   0  0  0  0  0  0  0  0  0  0  0  0
  -25.7020  -33.6080   25.2440 H   0  0  0  0  0  0  0  0  0  0  0  0
  -24.8480  -36.5700   23.7930 C   0  0  0  0  0  1  0  0  0  0  0  0
  -26.1340  -36.0150   24.4270 C   0  0  0  0  0  3  0  0  0  0  0  0
  -28.3620  -36.7100   25.1890 C   0  0  0  0  0  1  0  0  0  0  0  0
  -27.1990  -37.0390   24.3690 N   0  0  0  0  0  0  0  0  0  0  0  0
  -26.8450  -37.9450   24.6690 H   0  0  0  0  0  0  0  0  0  0  0  0
  -29.4360  -18.2570   20.2090 C   0  0  0  0  0  2  0  0  0  0  0  0
  -30.4280  -16.9550   20.1200 C   0  0  0  0  0  2  0  0  0  0  0  0
  -30.6350  -14.3490   19.7870 C   0  0  0  0  0  0  0  0  0  0  0  0
  -30.3210  -12.0400   18.8800 C   0  0  0  0  0  2  0  0  0  0  0  0
  -29.3070  -12.0750   17.7160 C   0  0  0  0  0  2  0  0  0  0  0  0
  -27.8640  -11.9550   18.2460 C   0  0  0  0  0  2  0  0  0  0  0  0
  -27.5860  -12.9060   19.4420 C   0  0  0  0  0  3  0  0  0  0  0  0
  -28.7120  -12.8480   20.4950 C   0  0  0  0  0  2  0  0  0  0  0  0
  -29.9710  -13.1440   19.8020 N   0  0  0  0  0  0  0  0  0  0  0  0
  -31.8030  -14.4010   19.3960 O   0  0  0  0  0  0  0  0  0  0  0  0
  -29.9180  -15.5120   20.0250 N   0  0  0  0  0  0  0  0  0  0  0  0
  -28.9450  -15.3750   20.2580 H   0  0  0  0  0  0  0  0  0  0  0  0
  -25.2800  -13.5890   20.3350 C   0  0  0  0  0  0  0  0  0  0  0  0
  -24.2160  -12.8560   20.7820 C   0  0  0  0  0  0  0  0  0  0  0  0
  -24.6230  -11.4880   20.7230 C   0  0  0  0  0  0  0  0  0  0  0  0
  -26.2710  -12.6690   20.0290 N   0  0  0  0  0  0  0  0  0  0  0  0
  -25.8870  -11.4000   20.3250 N   0  0  0  0  0  0  0  0  0  0  0  0
  -23.8640  -10.2550   20.9670 C   0  0  0  0  0  0  0  0  0  0  0  0
  -24.2750   -9.3150   21.9370 C   0  0  0  0  0  3  0  0  0  0  0  0
  -23.5170   -8.1460   22.1670 C   0  0  0  0  0  3  0  0  0  0  0  0
  -22.3340   -7.9090   21.4260 C   0  0  0  0  0  0  0  0  0  0  0  0
  -21.9420   -8.8380   20.4450 C   0  0  0  0  0  3  0  0  0  0  0  0
  -22.7010   -9.9980   20.2140 C   0  0  0  0  0  3  0  0  0  0  0  0
  -21.5490   -6.7900   21.5630 O   0  0  0  0  0  0  0  0  0  0  0  0
  -21.4660   -6.1110   22.7510 C   0  0  0  0  0  0  0  0  0  0  0  0
  -20.9750   -6.7210   23.9270 C   0  0  0  0  0  3  0  0  0  0  0  0
  -20.8430   -5.9670   25.1090 C   0  0  0  0  0  3  0  0  0  0  0  0
  -21.1880   -4.6030   25.1180 C   0  0  0  0  0  0  0  0  0  0  0  0
  -21.6700   -3.9910   23.9470 C   0  0  0  0  0  3  0  0  0  0  0  0
  -21.8060   -4.7430   22.7670 C   0  0  0  0  0  0  0  0  0  0  0  0
  -22.2510   -4.1440   21.6360 F   0  0  0  0  0  0  0  0  0  0  0  0
  -21.0530   -3.8740   26.2510 F   0  0  0  0  0  0  0  0  0  0  0  0
  -22.8600  -13.3860   21.1480 C   0  0  0  0  0  0  0  0  0  0  0  0
  -22.1700  -12.7220   22.0690 N   0  0  0  0  0  0  0  0  0  0  0  0
  -22.4230  -14.4240   20.6510 O   0  0  0  0  0  0  0  0  0  0  0  0
  -22.5370  -11.8830   22.4920 H   0  0  0  0  0  0  0  0  0  0  0  0
  -21.2620  -13.0590   22.3560 H   0  0  0  0  0  0  0  0  0  0  0  0
  -25.4820  -14.9520   20.1390 N   0  0  0  0  0  0  0  0  0  0  0  0
  -24.7460  -15.6310   20.2950 H   0  0  0  0  0  0  0  0  0  0  0  0
  -26.3080  -15.3580   19.7180 H   0  0  0  0  0  0  0  0  0  0  0  0
  1  2  1  0
  2  4  2  0
  2  9  1  0
  3  5  1  0
  3  1  2  0
  4  6  1  0
  5  7  2  0
  7  4  1  0
  9  8  1  0
 10  1  1  0
 11 10  1  0
 12 14  1  0
 13 14  1  0
 14 11  1  0
 15 16  1  0
 15  3  1  0
 17 18  1  0
 17 16  2  0
 18 20  1  0
 19 30  2  0
 20 25  1  0
 21 29  1  0
 21 31  1  0
 22 28  1  0
 22 24  1  0
 23 29  1  0
 24 23  1  0
 25 24  2  0
 26 27  1  0
 26 20  2  0
 27 22  2  0
 28 21  1  0
 29 19  1  0
 31 33  2  0
 32 31  1  0
 34 32  1  0
 35 44  2  0
 35 40  1  0
 36 32  1  0
 36 40  1  0
 37 36  1  0
 38 39  1  0
 38 37  1  0
 39 35  1  0
 40 41  2  0
 41 42  1  0
 43 42  2  0
 44 43  1  0
 45 19  1  0
 45 50  1  0
 45 46  1  0
 46 49  1  1
 46 47  1  0
 48 46  1  0
 50 53  1  0
 51 50  1  0
 51 55  1  0
 52 51  2  0
 55 54  1  0
 57 55  1  0
 57 58  1  0
 57 56  1  0
 59  5  1  0
 60 59  1  0
 61 67  1  0
 61 69  1  0
 62 67  1  0
 63 64  1  0
 63 62  1  0
 65 64  1  0
 65 74  1  0
 65 66  1  0
 67 66  1  0
 68 61  2  0
 69 60  1  0
 69 70  1  0
 71 72  2  0
 72 91  1  0
 73 72  1  0
 73 76  1  0
 74 75  1  0
 74 71  1  0
 75 73  2  0
 76 77  1  0
 77 78  2  0
 79 82  1  0
 79 78  1  0
 80 79  2  0
 81 80  1  0
 81 76  2  0
 82 83  1  0
 83 88  2  0
 83 84  1  0
 84 85  2  0
 85 86  1  0
 86 90  1  0
 87 86  2  0
 88 87  1  0
 89 88  1  0
 91 92  1  0
 92 95  1  0
 92 94  1  0
 93 91  2  0
 96 97  1  0
 96 71  1  0
 98 96  1  0
M  ISO  4  17 101  18 101  61 100  69 100
M  END
>  <TORSDO>  (37) 
F 25

>  <SCORE>  (37) 
-8.959

>  <name>  (37) 
37

>  <ligand_id>  (37) 
37

>  <original_smiles>  (37) 
[H]c1c([H])c([H])c2c(c1[H])C([H])([H])C([H])([H])C([H])([H])C2([H])N([H])C(=O)C1([H])N(C(=O)C([H])(N([H])C(=O)C([H])(N([H])C([H])([H])[H])C([H])([H])[H])C(C([H])([H])[H])(C([H])([H])[H])C([H])([H])[H])C([H])([H])c2c([H])c(OC([H])([H])C([H])([H])C([H])([H])c3c(C([H])([H])C([H])([H])N([H])C(=O)N4C([H])([H])C([H])([H])C([H])([H])C([H])(n5nc(-c6c([H])c([H])c(Oc7c([H])c([H])c(F)c([H])c7F)c([H])c6[H])c(C(=O)N([H])[H])c5N([H])[H])C4([H])[H])nc(C([H])([H])[H])c(C([H])([H])C([H])([H])[H])c3C([H])([H])C([H])([H])C([H])(C([H])([H])[H])C([H])([H])[H])c([H])c([H])c2C1([H])[H]

>  <smiles>  (37) 
[H]c1c([H])c([H])c2c(c1[H])C([H])([H])C([H])([H])C([H])([H])C2([H])N([H])C(=O)C1([H])N(C(=O)C([H])(N([H])C(=O)C([H])(N([H])C([H])([H])[H])C([H])([H])[H])C(C([H])([H])[H])(C([H])([H])[H])C([H])([H])[H])C([H])([H])c2c([H])c(OC([H])([H])C([H])([H])C([H])([H])c3c(C([H])([H])C([H])([H])N([H])C(=O)N4C([H])([H])C([H])([H])C([H])([H])C([H])(n5nc(-c6c([H])c([H])c(Oc7c([H])c([H])c(F)c([H])c7F)c([H])c6[H])c(C(=O)N([H])[H])c5N([H])[H])C4([H])[H])nc(C([H])([H])[H])c(C([H])([H])C([H])([H])[H])c3C([H])([H])C([H])([H])C([H])(C([H])([H])[H])C([H])([H])[H])c([H])c([H])c2C1([H])[H]

$$$$
38:0:0
     RDKit          3D

 96104  0  0  1  0  0  0  0  0999 V2000
  -29.2040  -20.2410   19.1670 C   0  0  0  0  0  3  0  0  0  0  0  0
  -28.3260  -19.2020   19.0070 C   0  0  0  0  0  0  0  0  0  0  0  0
  -27.1110  -19.7800   18.5160 C   0  0  0  0  0  0  0  0  0  0  0  0
  -27.3060  -21.1300   18.3730 C   0  0  0  0  0  0  0  0  0  0  0  0
  -26.3570  -22.2040   17.9240 C   0  0  0  0  0  1  0  0  0  0  0  0
  -28.6150  -21.4100   18.7280 N   0  0  0  0  0  0  0  0  0  0  0  0
  -28.5140  -17.7140   19.2940 C   0  0  0  0  0  2  0  0  0  0  0  0
  -30.9410  -17.6440   18.2470 C   0  0  0  0  0  1  0  0  0  0  0  0
  -29.9300  -17.0690   19.2540 C   0  0  0  0  0  3  0  0  0  0  0  0
  -30.5380  -16.8660   20.6700 C   0  0  0  0  0  2  0  0  0  0  0  0
  -31.0720  -14.4450   20.6900 C   0  0  0  0  0  0  0  0  0  0  0  0
  -30.7960  -12.2420   19.6450 C   0  0  0  0  0  2  0  0  0  0  0  0
  -29.9210  -12.4180   18.3860 C   0  0  0  0  0  2  0  0  0  0  0  0
  -28.4240  -12.3350   18.7390 C   0  0  0  0  0  2  0  0  0  0  0  0
  -28.0400  -13.2210   19.9560 C   0  0  0  0  0  3  0  0  0  0  0  0
  -29.0350  -13.0220   21.1220 C   0  0  0  0  0  2  0  0  0  0  0  0
  -30.3960  -13.2690   20.6150 N   0  0  0  0  0  0  0  0  0  0  0  0
  -32.2010  -14.6120   20.2230 O   0  0  0  0  0  0  0  0  0  0  0  0
  -30.3390  -15.4840   21.1160 N   0  0  0  0  0  0  0  0  0  0  0  0
  -29.4490  -15.2610   21.5370 H   0  0  0  0  0  0  0  0  0  0  0  0
  -25.6490  -13.9050   20.6210 C   0  0  0  0  0  0  0  0  0  0  0  0
  -24.5370  -13.1670   20.9180 C   0  0  0  0  0  0  0  0  0  0  0  0
  -24.9370  -11.7980   20.8270 C   0  0  0  0  0  0  0  0  0  0  0  0
  -26.6610  -12.9890   20.3780 N   0  0  0  0  0  0  0  0  0  0  0  0
  -26.2320  -11.7140   20.5550 N   0  0  0  0  0  0  0  0  0  0  0  0
  -24.1510  -10.5620   20.9270 C   0  0  0  0  0  0  0  0  0  0  0  0
  -24.5360   -9.5100   21.7880 C   0  0  0  0  0  3  0  0  0  0  0  0
  -23.7510   -8.3410   21.8840 C   0  0  0  0  0  3  0  0  0  0  0  0
  -22.5680   -8.2160   21.1170 C   0  0  0  0  0  0  0  0  0  0  0  0
  -22.2020   -9.2560   20.2440 C   0  0  0  0  0  3  0  0  0  0  0  0
  -22.9870  -10.4150   20.1460 C   0  0  0  0  0  3  0  0  0  0  0  0
  -21.7590   -7.1050   21.1220 O   0  0  0  0  0  0  0  0  0  0  0  0
  -21.6910   -6.2700   22.2080 C   0  0  0  0  0  0  0  0  0  0  0  0
  -21.3230   -6.7410   23.4870 C   0  0  0  0  0  3  0  0  0  0  0  0
  -21.1960   -5.8370   24.5610 C   0  0  0  0  0  3  0  0  0  0  0  0
  -21.4290   -4.4640   24.3580 C   0  0  0  0  0  0  0  0  0  0  0  0
  -21.7910   -3.9930   23.0840 C   0  0  0  0  0  3  0  0  0  0  0  0
  -21.9190   -4.8930   22.0110 C   0  0  0  0  0  0  0  0  0  0  0  0
  -22.2470   -4.4300   20.7810 F   0  0  0  0  0  0  0  0  0  0  0  0
  -21.3010   -3.5960   25.3880 F   0  0  0  0  0  0  0  0  0  0  0  0
  -23.1550  -13.6930   21.1810 C   0  0  0  0  0  0  0  0  0  0  0  0
  -22.3770  -12.9980   22.0030 N   0  0  0  0  0  0  0  0  0  0  0  0
  -22.7730  -14.7570   20.6920 O   0  0  0  0  0  0  0  0  0  0  0  0
  -22.6990  -12.1390   22.4240 H   0  0  0  0  0  0  0  0  0  0  0  0
  -21.4490  -13.3350   22.2190 H   0  0  0  0  0  0  0  0  0  0  0  0
  -25.8810  -15.2730   20.5190 N   0  0  0  0  0  0  0  0  0  0  0  0
  -25.1310  -15.9490   20.6040 H   0  0  0  0  0  0  0  0  0  0  0  0
  -26.7570  -15.6830   20.2280 H   0  0  0  0  0  0  0  0  0  0  0  0
  -25.8260  -19.0390   18.2170 C   0  0  0  0  0  2  0  0  0  0  0  0
  -23.7380  -17.9820   19.2420 C   0  0  0  0  0  1  0  0  0  0  0  0
  -24.9590  -18.8780   19.4730 C   0  0  0  0  0  2  0  0  0  0  0  0
  -29.2970  -22.6930   18.6270 C   0  0  0  0  0  2  0  0  0  0  0  0
  -29.2410  -23.5380   19.9120 C   0  0  0  0  0  2  0  0  0  0  0  0
  -29.9420  -24.8960   19.7270 C   0  0  0  0  0  2  0  0  0  0  0  0
  -28.9810  -26.0150   19.2890 C   0  0  0  0  0  2  0  0  0  0  0  0
  -28.4690  -26.6090   20.4730 O   0  0  0  0  0  0  0  0  0  0  0  0
  -24.7480  -31.9040   23.3250 C   0  0  0  0  0  0  0  0  0  0  0  0
  -27.2980  -27.3210   20.3970 C   0  0  0  0  0  0  0  0  0  0  0  0
  -23.5000  -30.4540   21.7530 C   0  0  0  0  0  3  0  0  0  0  0  0
  -24.9140  -28.8360   20.3780 C   0  0  0  0  0  0  0  0  0  0  0  0
  -26.0250  -30.7680   21.5160 C   0  0  0  0  0  2  0  0  0  0  0  0
  -26.0800  -29.3720   20.9370 C   0  0  0  0  0  0  0  0  0  0  0  0
  -27.2680  -28.6140   20.9590 C   0  0  0  0  0  3  0  0  0  0  0  0
  -26.1140  -26.7840   19.8430 C   0  0  0  0  0  3  0  0  0  0  0  0
  -24.9230  -27.5380   19.8330 C   0  0  0  0  0  3  0  0  0  0  0  0
  -23.6820  -29.7120   20.4020 C   0  0  0  0  0  2  0  0  0  0  0  0
  -24.7760  -31.0600   22.2560 N   0  0  0  0  0  0  0  0  0  0  0  0
  -23.6780  -32.2190   23.8630 O   0  0  0  0  0  0  0  0  0  0  0  0
  -22.8430  -29.4880   22.7630 C   0  0  0  0  0  0  0  0  0  0  0  0
  -21.5350  -29.2440   22.5920 N   0  0  0  0  0  0  0  0  0  0  0  0
  -23.5100  -28.9550   23.6550 O   0  0  0  0  0  0  0  0  0  0  0  0
  -21.0570  -29.7260   21.8430 H   0  0  0  0  0  0  0  0  0  0  0  0
  -18.2080  -27.8870   22.9620 C   0  0  0  0  0  0  0  0  0  0  0  0
  -20.7150  -28.3370   23.3950 C   0  0  0  0  0  3  0  0  0  0  0  0
  -20.9480  -26.8650   22.9850 C   0  0  0  0  0  2  0  0  0  0  0  0
  -19.9520  -26.3680   21.9320 C   0  0  0  0  0  2  0  0  0  0  0  0
  -18.5170  -26.4890   22.4520 C   0  0  0  0  0  2  0  0  0  0  0  0
  -19.2420  -28.7600   23.3900 C   0  0  0  0  0  0  0  0  0  0  0  0
  -18.9050  -30.0610   23.8220 C   0  0  0  0  0  3  0  0  0  0  0  0
  -17.5650  -30.4920   23.8320 C   0  0  0  0  0  3  0  0  0  0  0  0
  -16.5430  -29.6170   23.4230 C   0  0  0  0  0  3  0  0  0  0  0  0
  -16.8650  -28.3180   22.9930 C   0  0  0  0  0  3  0  0  0  0  0  0
  -26.0530  -32.5370   23.9050 C   0  0  0  0  0  3  0  0  0  0  0  0
  -26.6110  -31.7670   25.1650 C   0  0  1  0  0  0  0  0  0  0  0  0
  -25.5440  -31.4980   26.2510 C   0  0  0  0  0  1  0  0  0  0  0  0
  -27.2150  -30.4060   24.7480 C   0  0  0  0  0  1  0  0  0  0  0  0
  -27.7570  -32.5810   25.8110 C   0  0  0  0  0  1  0  0  0  0  0  0
  -25.7560  -33.9360   24.2380 N   0  0  0  0  0  0  0  0  0  0  0  0
  -26.0680  -34.9840   23.4650 C   0  0  0  0  0  0  0  0  0  0  0  0
  -26.7100  -34.8760   22.4160 O   0  0  0  0  0  0  0  0  0  0  0  0
  -25.1830  -34.0950   25.0540 H   0  0  0  0  0  0  0  0  0  0  0  0
  -24.3260  -36.7700   23.1560 C   0  0  0  0  0  1  0  0  0  0  0  0
  -25.5940  -36.3730   23.9290 C   0  0  0  0  0  3  0  0  0  0  0  0
  -27.7560  -37.2650   24.6790 C   0  0  0  0  0  1  0  0  0  0  0  0
  -26.6200  -37.4280   23.7750 N   0  0  0  0  0  0  0  0  0  0  0  0
  -26.2180  -38.3480   23.9350 H   0  0  0  0  0  0  0  0  0  0  0  0
  2  1  2  0
  2  7  1  0
  3  2  1  0
  4  3  2  0
  4  6  1  0
  5  4  1  0
  6  1  1  0
  9  8  1  0
  9  7  1  0
  9 10  1  0
 10 19  1  0
 11 19  1  0
 12 17  1  0
 13 14  1  0
 13 12  1  0
 15 14  1  0
 15 24  1  0
 15 16  1  0
 17 11  1  0
 17 16  1  0
 18 11  2  0
 19 20  1  0
 21 22  2  0
 22 41  1  0
 23 22  1  0
 23 26  1  0
 24 25  1  0
 24 21  1  0
 25 23  2  0
 26 27  1  0
 27 28  2  0
 29 32  1  0
 29 28  1  0
 30 29  2  0
 31 30  1  0
 31 26  2  0
 32 33  1  0
 33 34  1  0
 34 35  2  0
 36 35  1  0
 36 40  1  0
 37 36  2  0
 38 33  2  0
 38 37  1  0
 39 38  1  0
 41 42  1  0
 42 45  1  0
 42 44  1  0
 43 41  2  0
 46 47  1  0
 46 21  1  0
 48 46  1  0
 49  3  1  0
 49 51  1  0
 50 51  1  0
 52  6  1  0
 52 53  1  0
 54 53  1  0
 55 54  1  0
 55 56  1  0
 57 68  2  0
 58 56  1  0
 58 63  1  0
 59 67  1  0
 59 69  1  0
 60 66  1  0
 60 62  1  0
 61 67  1  0
 62 63  2  0
 62 61  1  0
 64 58  2  0
 65 64  1  0
 65 60  2  0
 66 59  1  0
 67 57  1  0
 69 71  2  0
 70 69  1  0
 72 70  1  0
 73 82  2  0
 73 78  1  0
 74 70  1  0
 75 74  1  0
 76 77  1  0
 76 75  1  0
 77 73  1  0
 78 74  1  0
 78 79  2  0
 79 80  1  0
 81 80  2  0
 82 81  1  0
 83 57  1  0
 83 88  1  0
 83 84  1  0
 84 87  1  1
 84 85  1  0
 86 84  1  0
 88 91  1  0
 89 93  1  0
 89 88  1  0
 90 89  2  0
 93 92  1  0
 95 93  1  0
 95 96  1  0
 95 94  1  0
M  ISO  4  11 100  19 100  55 101  56 101
M  END
>  <TORSDO>  (38) 
F 25

>  <SCORE>  (38) 
-9.211

>  <name>  (38) 
38

>  <ligand_id>  (38) 
38

>  <original_smiles>  (38) 
[H]c1c([H])c([H])c2c(c1[H])C([H])([H])C([H])([H])C([H])([H])C2([H])N([H])C(=O)C1([H])N(C(=O)C([H])(N([H])C(=O)C([H])(N([H])C([H])([H])[H])C([H])([H])[H])C(C([H])([H])[H])(C([H])([H])[H])C([H])([H])[H])C([H])([H])c2c([H])c(OC([H])([H])C([H])([H])C([H])([H])C([H])([H])n3c([H])c(C([H])([H])C([H])(C([H])([H])[H])C([H])([H])N([H])C(=O)N4C([H])([H])C([H])([H])C([H])([H])C([H])(n5nc(-c6c([H])c([H])c(Oc7c([H])c([H])c(F)c([H])c7F)c([H])c6[H])c(C(=O)N([H])[H])c5N([H])[H])C4([H])[H])c(C([H])([H])C([H])([H])C([H])([H])[H])c3C([H])([H])[H])c([H])c([H])c2C1([H])[H]

>  <smiles>  (38) 
[H]c1c([H])c([H])c2c(c1[H])C([H])([H])C([H])([H])C([H])([H])C2([H])N([H])C(=O)C1([H])N(C(=O)C([H])(N([H])C(=O)C([H])(N([H])C([H])([H])[H])C([H])([H])[H])C(C([H])([H])[H])(C([H])([H])[H])C([H])([H])[H])C([H])([H])c2c([H])c(OC([H])([H])C([H])([H])C([H])([H])C([H])([H])n3c([H])c(C([H])([H])C([H])(C([H])([H])[H])C([H])([H])N([H])C(=O)N4C([H])([H])C([H])([H])C([H])([H])C([H])(n5nc(-c6c([H])c([H])c(Oc7c([H])c([H])c(F)c([H])c7F)c([H])c6[H])c(C(=O)N([H])[H])c5N([H])[H])C4([H])[H])c(C([H])([H])C([H])([H])C([H])([H])[H])c3C([H])([H])[H])c([H])c([H])c2C1([H])[H]

$$$$
39:0:0
     RDKit          3D

 94 97  0  0  1  0  0  0  0  0999 V2000
  -22.4250  -26.5950   20.3290 C   0  0  0  0  0  2  0  0  0  0  0  0
  -23.8880  -26.4280   19.6260 C   0  0  0  0  0  3  0  0  0  0  0  0
  -21.8170  -25.8500   21.7070 C   0  0  0  0  0  2  0  0  0  0  0  0
  -24.7760  -25.1270   19.8250 C   0  0  0  0  0  0  0  0  0  0  0  0
  -26.1080  -23.2530   18.8050 C   0  0  0  0  0  1  0  0  0  0  0  0
  -23.1340  -24.3880   22.2990 N   0  0  0  0  0  1  0  0  0  0  0  0
  -24.3800  -24.2720   21.1670 N   0  0  0  0  0  0  0  0  0  0  0  0
  -25.9750  -24.7020   18.6690 N   0  0  0  0  0  0  0  0  0  0  0  0
  -24.6170  -27.6890   18.6820 C   0  0  0  0  0  2  0  0  0  0  0  0
  -25.4170  -29.1220   18.9380 O   0  0  0  0  0  0  0  0  0  0  0  0
  -26.5640  -32.3200   24.6350 C   0  0  0  0  0  0  0  0  0  0  0  0
  -24.7710  -30.3040   19.2640 C   0  0  0  0  0  3  0  0  0  0  0  0
  -24.8310  -30.6670   24.1740 C   0  0  0  0  0  3  0  0  0  0  0  0
  -23.8840  -30.5560   21.8010 C   0  0  0  0  0  0  0  0  0  0  0  0
  -25.3670  -32.4550   22.4340 C   0  0  0  0  0  2  0  0  0  0  0  0
  -24.8650  -31.4600   21.3920 C   0  0  0  0  0  0  0  0  0  0  0  0
  -25.3720  -31.3190   20.0730 C   0  0  0  0  0  3  0  0  0  0  0  0
  -23.4680  -29.9460   19.5070 C   0  0  0  0  0  2  0  0  0  0  0  0
  -23.1480  -29.8340   20.8530 C   0  0  0  0  0  3  0  0  0  0  0  0
  -23.5940  -30.4280   23.2630 C   0  0  0  0  0  2  0  0  0  0  0  0
  -25.5970  -31.8750   23.7820 N   0  0  0  0  0  0  0  0  0  0  0  0
  -26.7430  -31.7910   25.7460 O   0  0  0  0  0  0  0  0  0  0  0  0
  -25.8220  -29.5000   24.1700 C   0  0  0  0  0  0  0  0  0  0  0  0
  -25.8390  -28.6690   25.1790 N   0  0  0  0  0  0  0  0  0  0  0  0
  -26.6490  -29.3780   23.2680 O   0  0  0  0  0  0  0  0  0  0  0  0
  -25.2120  -28.7990   25.9590 H   0  0  0  0  0  0  0  0  0  0  0  0
  -25.8550  -25.7470   27.4860 C   0  0  0  0  0  0  0  0  0  0  0  0
  -26.5320  -27.4030   25.0500 C   0  0  0  0  0  3  0  0  0  0  0  0
  -25.7190  -26.5620   23.4980 C   0  0  0  0  0  1  0  0  0  0  0  0
  -23.8820  -24.2180   25.0300 C   0  0  0  0  0 15  0  0  0  0  0  0
  -24.7000  -24.4450   26.9020 C   0  0  0  0  0  1  0  0  0  0  0  0
  -26.5440  -26.9130   26.7230 C   0  0  0  0  0  0  0  0  0  0  0  0
  -27.2400  -27.9130   27.5290 C   0  0  0  0  0  3  0  0  0  0  0  0
  -27.4320  -27.8870   28.9280 C   0  0  0  0  0  3  0  0  0  0  0  0
  -26.9190  -26.7920   29.6240 C   0  0  0  0  0  3  0  0  0  0  0  0
  -26.1680  -25.7890   28.9220 C   0  0  0  0  0  3  0  0  0  0  0  0
  -27.4700  -33.5150   24.2590 C   0  0  0  0  0  3  0  0  0  0  0  0
  -27.5750  -34.3380   25.4670 N   0  0  0  0  0  0  0  0  0  0  0  0
  -26.7830  -35.3810   25.7370 C   0  0  0  0  0  0  0  0  0  0  0  0
  -25.9460  -35.8080   24.9370 O   0  0  0  0  0  0  0  0  0  0  0  0
  -28.2060  -34.0110   26.1830 H   0  0  0  0  0  0  0  0  0  0  0  0
  -25.8410  -35.5920   28.0590 C   0  0  0  0  0  1  0  0  0  0  0  0
  -26.9520  -36.0620   27.1060 C   0  0  0  0  0  3  0  0  0  0  0  0
  -28.1250  -38.0760   26.3380 C   0  0  0  0  0  1  0  0  0  0  0  0
  -26.9540  -37.5380   27.0270 N   0  0  0  0  0  0  0  0  0  0  0  0
  -26.9180  -37.9480   27.9570 H   0  0  0  0  0  0  0  0  0  0  0  0
  -28.8990  -33.0860   23.7490 C   0  0  1  0  0  0  0  0  0  0  0  0
  -29.6220  -32.0750   24.6690 C   0  0  0  0  0  1  0  0  0  0  0  0
  -28.8240  -32.4600   22.3370 C   0  0  0  0  0  1  0  0  0  0  0  0
  -29.7880  -34.3440   23.6210 C   0  0  0  0  0  1  0  0  0  0  0  0
  -20.2330  -26.1310   21.8140 C   0  0  0  0  0  2  0  0  0  0  0  0
  -18.6270  -27.7500   23.5960 C   0  0  0  0  0  1  0  0  0  0  0  0
  -19.6860  -27.4220   22.5090 C   0  0  0  0  0  2  0  0  0  0  0  0
  -27.0610  -25.1900   17.2680 C   0  0  0  0  0  1  0  0  0  0  0  0
  -28.1870  -24.4630   15.6690 C   0  0  0  0  0 15  0  0  0  0  0  0
  -29.4820  -24.9480   14.1100 C   0  0  0  0  0  1  0  0  0  0  0  0
  -31.4590  -24.5510   11.3430 C   0  0  0  0  0  0  0  0  0  0  0  0
  -32.1450  -24.0250    8.7240 C   0  0  0  0  0  2  0  0  0  0  0  0
  -30.9510  -23.9920    7.7100 C   0  0  0  0  0  2  0  0  0  0  0  0
  -30.1100  -22.7140    7.8880 C   0  0  0  0  0  2  0  0  0  0  0  0
  -29.9950  -22.3810    9.3880 C   0  0  0  0  0  3  0  0  0  0  0  0
  -31.3410  -22.3100   10.0970 C   0  0  0  0  0  2  0  0  0  0  0  0
  -31.6880  -23.7000   10.1740 N   0  0  0  0  0  0  0  0  0  0  0  0
  -32.2360  -25.5260   11.1070 O   0  0  0  0  0  0  0  0  0  0  0  0
  -30.3840  -24.3390   12.5630 N   0  0  0  0  0  0  0  0  0  0  0  0
  -29.9900  -23.4240   12.3710 H   0  0  0  0  0  0  0  0  0  0  0  0
  -28.3610  -21.0410   10.7240 C   0  0  0  0  0  0  0  0  0  0  0  0
  -27.9270  -19.7560   10.6040 C   0  0  0  0  0  0  0  0  0  0  0  0
  -28.6530  -19.1910    9.5090 C   0  0  0  0  0  0  0  0  0  0  0  0
  -29.2690  -21.1980    9.7000 N   0  0  0  0  0  0  0  0  0  0  0  0
  -29.5180  -20.0610    9.0200 N   0  0  0  0  0  0  0  0  0  0  0  0
  -28.5240  -17.8970    8.8450 C   0  0  0  0  0  0  0  0  0  0  0  0
  -29.6180  -17.0120    8.7360 C   0  0  0  0  0  3  0  0  0  0  0  0
  -29.4590  -15.7630    8.1010 C   0  0  0  0  0  3  0  0  0  0  0  0
  -28.2000  -15.3950    7.5700 C   0  0  0  0  0  0  0  0  0  0  0  0
  -27.1230  -16.2950    7.6600 C   0  0  0  0  0  3  0  0  0  0  0  0
  -27.2830  -17.5380    8.2880 C   0  0  0  0  0  3  0  0  0  0  0  0
  -27.9560  -14.2140    6.9160 O   0  0  0  0  0  0  0  0  0  0  0  0
  -28.6310  -13.0650    7.2360 C   0  0  0  0  0  0  0  0  0  0  0  0
  -28.6350  -12.5420    8.5470 C   0  0  0  0  0  3  0  0  0  0  0  0
  -29.2860  -11.3220    8.8150 C   0  0  0  0  0  3  0  0  0  0  0  0
  -29.9220  -10.6200    7.7730 C   0  0  0  0  0  0  0  0  0  0  0  0
  -29.9130  -11.1370    6.4660 C   0  0  0  0  0  3  0  0  0  0  0  0
  -29.2670  -12.3550    6.1980 C   0  0  0  0  0  0  0  0  0  0  0  0
  -29.2440  -12.8420    4.9340 F   0  0  0  0  0  0  0  0  0  0  0  0
  -30.5400   -9.4420    8.0280 F   0  0  0  0  0  0  0  0  0  0  0  0
  -26.8170  -19.1300   11.3860 C   0  0  0  0  0  0  0  0  0  0  0  0
  -26.8740  -17.8190   11.5810 N   0  0  0  0  0  0  0  0  0  0  0  0
  -25.9150  -19.8150   11.8670 O   0  0  0  0  0  0  0  0  0  0  0  0
  -27.6270  -17.2670   11.1980 H   0  0  0  0  0  0  0  0  0  0  0  0
  -26.1550  -17.3580   12.1220 H   0  0  0  0  0  0  0  0  0  0  0  0
  -28.0450  -22.0960   11.5790 N   0  0  0  0  0  0  0  0  0  0  0  0
  -27.2540  -21.9840   12.2040 H   0  0  0  0  0  0  0  0  0  0  0  0
  -28.1340  -23.0500   11.2530 H   0  0  0  0  0  0  0  0  0  0  0  0
  1  3  1  0
  2  9  1  0
  2  4  1  0
  2  1  1  0
  3 51  1  0
  4  7  2  0
  7  6  1  0
  8  5  1  0
  8  4  1  0
  9 10  1  0
 11 22  2  0
 12 10  1  0
 12 18  1  0
 12 17  1  0
 13 23  1  0
 14 20  1  0
 15 21  1  0
 16 14  1  0
 16 15  1  0
 17 16  2  0
 18 19  1  0
 19 14  2  0
 20 13  1  0
 21 13  1  0
 21 11  1  0
 23 24  1  0
 24 26  1  0
 25 23  2  0
 27 36  1  0
 28 29  1  0
 28 24  1  0
 28 32  1  0
 31 27  1  0
 32 27  2  0
 32 33  1  0
 33 34  2  0
 34 35  1  0
 36 35  2  0
 37 11  1  0
 37 38  1  0
 38 39  1  0
 38 41  1  0
 39 43  1  0
 40 39  2  0
 43 42  1  0
 44 45  1  0
 45 43  1  0
 45 46  1  0
 47 37  1  0
 47 48  1  1
 49 47  1  0
 50 47  1  0
 51 53  1  0
 53 52  1  0
 54  8  1  0
 57 65  1  0
 58 63  1  0
 59 60  1  0
 59 58  1  0
 61 60  1  0
 61 70  1  0
 61 62  1  0
 62 63  1  0
 63 57  1  0
 64 57  2  0
 65 56  1  0
 66 65  1  0
 67 92  1  0
 68 67  2  0
 68 87  1  0
 69 68  1  0
 70 67  1  0
 71 69  2  0
 71 70  1  0
 72 69  1  0
 73 72  1  0
 74 73  2  0
 75 76  2  0
 75 74  1  0
 76 77  1  0
 77 72  2  0
 78 79  1  0
 78 75  1  0
 79 80  1  0
 80 81  2  0
 82 86  1  0
 82 81  1  0
 83 82  2  0
 84 83  1  0
 84 79  2  0
 85 84  1  0
 87 88  1  0
 87 89  2  0
 88 91  1  0
 90 88  1  0
 92 93  1  0
 94 92  1  0
M  ISO  4   9 101  10 101  57 100  65 100
M  END
>  <TORSDO>  (39) 
F 22

>  <SCORE>  (39) 
37.178

>  <name>  (39) 
39

>  <ligand_id>  (39) 
39

>  <original_smiles>  (39) 
[H]c1c([H])c([H])c2c(c1[H])C([H])([H])C([H])([H])C([H])([H])C2([H])N([H])C(=O)C1([H])N(C(=O)C([H])(N([H])C(=O)C([H])(N([H])C([H])([H])[H])C([H])([H])[H])C(C([H])([H])[H])(C([H])([H])[H])C([H])([H])[H])C([H])([H])c2c([H])c(OC([H])([H])c3c(N(C([H])([H])[H])C([H])([H])C([H])([H])C([H])([H])N([H])C(=O)N4C([H])([H])C([H])([H])C([H])([H])C([H])(n5nc(-c6c([H])c([H])c(Oc7c([H])c([H])c(F)c([H])c7F)c([H])c6[H])c(C(=O)N([H])[H])c5N([H])[H])C4([H])[H])nnc(C([H])([H])C([H])([H])C([H])([H])[H])c3[H])c([H])c([H])c2C1([H])[H]

>  <smiles>  (39) 
[H]c1c([H])c([H])c2c(c1[H])C([H])([H])C([H])([H])C([H])([H])C2([H])N([H])C(=O)C1([H])N(C(=O)C([H])(N([H])C(=O)C([H])(N([H])C([H])([H])[H])C([H])([H])[H])C(C([H])([H])[H])(C([H])([H])[H])C([H])([H])[H])C([H])([H])c2c([H])c(OC([H])([H])c3c(N(C([H])([H])[H])C([H])([H])C([H])([H])C([H])([H])N([H])C(=O)N4C([H])([H])C([H])([H])C([H])([H])C([H])(n5nc(-c6c([H])c([H])c(Oc7c([H])c([H])c(F)c([H])c7F)c([H])c6[H])c(C(=O)N([H])[H])c5N([H])[H])C4([H])[H])nnc(C([H])([H])C([H])([H])C([H])([H])[H])c3[H])c([H])c([H])c2C1([H])[H]

$$$$
40:0:0
     RDKit          3D

 96104  0  0  1  0  0  0  0  0999 V2000
  -29.7060  -21.3140   20.1280 C   0  0  0  0  0  3  0  0  0  0  0  0
  -28.7590  -22.4250   20.1470 C   0  0  0  0  0  0  0  0  0  0  0  0
  -29.2630  -19.9350   20.0720 C   0  0  0  0  0  0  0  0  0  0  0  0
  -27.4050  -21.9640   20.0710 C   0  0  0  0  0  0  0  0  0  0  0  0
  -27.9460  -19.6640   20.0300 N   0  0  0  0  0  0  0  0  0  0  0  0
  -27.0550  -20.6500   20.0280 N   0  0  0  0  0  0  0  0  0  0  0  0
  -28.9950  -24.2160   21.9010 C   0  0  0  0  0  1  0  0  0  0  0  0
  -30.6680  -24.1720   20.0620 C   0  0  0  0  0  1  0  0  0  0  0  0
  -29.1710  -23.9720   20.3900 C   0  0  1  0  0  0  0  0  0  0  0  0
  -28.3980  -25.1810   19.6270 C   0  0  0  0  0  2  0  0  0  0  0  0
  -28.5810  -26.6260   20.0180 O   0  0  0  0  0  0  0  0  0  0  0  0
  -24.6210  -31.7990   23.2080 C   0  0  0  0  0  0  0  0  0  0  0  0
  -27.4650  -27.4900   19.9620 C   0  0  0  0  0  0  0  0  0  0  0  0
  -23.5100  -30.4470   21.4700 C   0  0  0  0  0  3  0  0  0  0  0  0
  -25.0510  -29.0410   19.9900 C   0  0  0  0  0  0  0  0  0  0  0  0
  -26.0450  -30.8620   21.3690 C   0  0  0  0  0  2  0  0  0  0  0  0
  -26.1890  -29.5250   20.6470 C   0  0  0  0  0  0  0  0  0  0  0  0
  -27.4000  -28.7620   20.6250 C   0  0  0  0  0  3  0  0  0  0  0  0
  -26.3110  -27.0980   19.2490 C   0  0  0  0  0  3  0  0  0  0  0  0
  -25.1180  -27.8400   19.2740 C   0  0  0  0  0  3  0  0  0  0  0  0
  -23.7830  -29.8620   20.0620 C   0  0  0  0  0  2  0  0  0  0  0  0
  -24.7430  -31.0530   22.0720 N   0  0  0  0  0  0  0  0  0  0  0  0
  -23.5150  -32.0030   23.7300 O   0  0  0  0  0  0  0  0  0  0  0  0
  -22.8660  -29.3530   22.3560 C   0  0  0  0  0  0  0  0  0  0  0  0
  -21.5470  -29.1420   22.2000 N   0  0  0  0  0  0  0  0  0  0  0  0
  -23.5520  -28.6980   23.1440 O   0  0  0  0  0  0  0  0  0  0  0  0
  -21.0420  -29.7310   21.5530 H   0  0  0  0  0  0  0  0  0  0  0  0
  -18.2000  -27.8420   22.6390 C   0  0  0  0  0  0  0  0  0  0  0  0
  -20.7550  -28.1330   22.9050 C   0  0  0  0  0  3  0  0  0  0  0  0
  -20.8760  -26.7480   22.2270 C   0  0  0  0  0  2  0  0  0  0  0  0
  -19.7730  -26.4780   21.1980 C   0  0  0  0  0  2  0  0  0  0  0  0
  -18.3950  -26.5490   21.8630 C   0  0  0  0  0  2  0  0  0  0  0  0
  -19.3070  -28.5910   23.1160 C   0  0  0  0  0  0  0  0  0  0  0  0
  -19.0700  -29.8010   23.8040 C   0  0  0  0  0  3  0  0  0  0  0  0
  -17.7570  -30.2650   24.0140 C   0  0  0  0  0  3  0  0  0  0  0  0
  -16.6640  -29.5130   23.5510 C   0  0  0  0  0  3  0  0  0  0  0  0
  -16.8870  -28.3010   22.8720 C   0  0  0  0  0  3  0  0  0  0  0  0
  -25.8610  -32.4520   23.8930 C   0  0  0  0  0  3  0  0  0  0  0  0
  -25.5110  -33.8440   24.2110 N   0  0  0  0  0  0  0  0  0  0  0  0
  -25.8340  -34.9040   23.4560 C   0  0  0  0  0  0  0  0  0  0  0  0
  -26.5270  -34.8140   22.4390 O   0  0  0  0  0  0  0  0  0  0  0  0
  -24.8980  -33.9850   25.0000 H   0  0  0  0  0  0  0  0  0  0  0  0
  -24.0650  -36.6530   23.0760 C   0  0  0  0  0  1  0  0  0  0  0  0
  -25.3070  -36.2830   23.9000 C   0  0  0  0  0  3  0  0  0  0  0  0
  -27.4080  -37.2310   24.7490 C   0  0  0  0  0  1  0  0  0  0  0  0
  -26.3140  -37.3620   23.7910 N   0  0  0  0  0  0  0  0  0  0  0  0
  -25.8820  -38.2720   23.9240 H   0  0  0  0  0  0  0  0  0  0  0  0
  -26.3270  -31.6870   25.1930 C   0  0  1  0  0  0  0  0  0  0  0  0
  -25.1880  -31.4230   26.2070 C   0  0  0  0  0  1  0  0  0  0  0  0
  -26.9520  -30.3200   24.8260 C   0  0  0  0  0  1  0  0  0  0  0  0
  -27.4270  -32.5010   25.9110 C   0  0  0  0  0  1  0  0  0  0  0  0
  -30.1320  -18.6340   19.8390 C   0  0  0  0  0  2  0  0  0  0  0  0
  -30.2700  -17.5250   20.9920 C   0  0  0  0  0  2  0  0  0  0  0  0
  -30.8050  -14.9660   20.5670 C   0  0  0  0  0  0  0  0  0  0  0  0
  -30.6820  -12.6690   19.6070 C   0  0  0  0  0  2  0  0  0  0  0  0
  -29.7910  -12.6920   18.3490 C   0  0  0  0  0  2  0  0  0  0  0  0
  -28.3010  -12.5230   18.7160 C   0  0  0  0  0  2  0  0  0  0  0  0
  -27.8640  -13.4420   19.8890 C   0  0  0  0  0  3  0  0  0  0  0  0
  -28.8780  -13.3970   21.0540 C   0  0  0  0  0  2  0  0  0  0  0  0
  -30.1960  -13.7370   20.5020 N   0  0  0  0  0  0  0  0  0  0  0  0
  -32.0090  -15.0950   20.3280 O   0  0  0  0  0  0  0  0  0  0  0  0
  -29.9850  -16.0600   20.6980 N   0  0  0  0  0  0  0  0  0  0  0  0
  -29.0040  -15.8260   20.7260 H   0  0  0  0  0  0  0  0  0  0  0  0
  -25.4440  -14.0230   20.5250 C   0  0  0  0  0  0  0  0  0  0  0  0
  -24.3710  -13.2470   20.8610 C   0  0  0  0  0  0  0  0  0  0  0  0
  -24.8460  -11.8970   20.8620 C   0  0  0  0  0  0  0  0  0  0  0  0
  -26.5040  -13.1510   20.3340 N   0  0  0  0  0  0  0  0  0  0  0  0
  -26.1480  -11.8680   20.6030 N   0  0  0  0  0  0  0  0  0  0  0  0
  -24.1220  -10.6320   21.0370 C   0  0  0  0  0  0  0  0  0  0  0  0
  -24.5050   -9.6910   22.0180 C   0  0  0  0  0  3  0  0  0  0  0  0
  -23.7800   -8.4900   22.1790 C   0  0  0  0  0  3  0  0  0  0  0  0
  -22.6600   -8.2210   21.3570 C   0  0  0  0  0  0  0  0  0  0  0  0
  -22.2970   -9.1510   20.3670 C   0  0  0  0  0  3  0  0  0  0  0  0
  -23.0220  -10.3430   20.2040 C   0  0  0  0  0  3  0  0  0  0  0  0
  -21.9110   -7.0700   21.4270 O   0  0  0  0  0  0  0  0  0  0  0  0
  -21.7760   -6.3660   22.5980 C   0  0  0  0  0  0  0  0  0  0  0  0
  -21.2290   -6.9500   23.7600 C   0  0  0  0  0  3  0  0  0  0  0  0
  -21.0430   -6.1720   24.9200 C   0  0  0  0  0  3  0  0  0  0  0  0
  -21.3960   -4.8100   24.9180 C   0  0  0  0  0  0  0  0  0  0  0  0
  -21.9360   -4.2230   23.7600 C   0  0  0  0  0  3  0  0  0  0  0  0
  -22.1230   -4.9980   22.6020 C   0  0  0  0  0  0  0  0  0  0  0  0
  -22.6220   -4.4230   21.4820 F   0  0  0  0  0  0  0  0  0  0  0  0
  -21.2120   -4.0600   26.0290 F   0  0  0  0  0  0  0  0  0  0  0  0
  -22.9580  -13.7140   21.0710 C   0  0  0  0  0  0  0  0  0  0  0  0
  -22.2050  -13.0260   21.9200 N   0  0  0  0  0  0  0  0  0  0  0  0
  -22.5320  -14.7250   20.5150 O   0  0  0  0  0  0  0  0  0  0  0  0
  -22.5600  -12.2090   22.3930 H   0  0  0  0  0  0  0  0  0  0  0  0
  -21.2530  -13.3190   22.0980 H   0  0  0  0  0  0  0  0  0  0  0  0
  -25.6040  -15.3950   20.3370 N   0  0  0  0  0  0  0  0  0  0  0  0
  -24.8300  -16.0450   20.4140 H   0  0  0  0  0  0  0  0  0  0  0  0
  -26.4540  -15.8380   20.0190 H   0  0  0  0  0  0  0  0  0  0  0  0
  -26.1640  -22.8260   19.9350 C   0  0  0  0  0  2  0  0  0  0  0  0
  -25.8910  -23.1130   18.4430 C   0  0  0  0  0  2  0  0  0  0  0  0
  -24.1240  -24.9280   18.6200 C   0  0  0  0  0  1  0  0  0  0  0  0
  -24.1700  -23.3670   16.6240 C   0  0  0  0  0  1  0  0  0  0  0  0
  -24.4430  -23.5120   18.1280 C   0  0  0  0  0  3  0  0  0  0  0  0
  1  2  1  0
  2  9  1  0
  3  1  2  0
  4  2  2  0
  5  3  1  0
  6  5  2  0
  6  4  1  0
  9  8  1  1
  9  7  1  0
 10 11  1  0
 10  9  1  0
 12 23  2  0
 13 11  1  0
 13 18  1  0
 14 22  1  0
 14 24  1  0
 15 21  1  0
 15 17  1  0
 16 22  1  0
 17 16  1  0
 18 17  2  0
 19 20  1  0
 19 13  2  0
 20 15  2  0
 21 14  1  0
 22 12  1  0
 24 26  2  0
 25 24  1  0
 27 25  1  0
 28 37  2  0
 28 33  1  0
 29 25  1  0
 29 33  1  0
 30 29  1  0
 31 32  1  0
 31 30  1  0
 32 28  1  0
 33 34  2  0
 34 35  1  0
 36 35  2  0
 37 36  1  0
 38 12  1  0
 38 39  1  0
 38 48  1  0
 39 42  1  0
 40 44  1  0
 40 39  1  0
 41 40  2  0
 44 43  1  0
 46 44  1  0
 46 47  1  0
 46 45  1  0
 48 51  1  1
 48 49  1  0
 50 48  1  0
 52  3  1  0
 52 53  1  0
 54 62  1  0
 55 60  1  0
 56 57  1  0
 56 55  1  0
 58 57  1  0
 58 67  1  0
 58 59  1  0
 60 54  1  0
 60 59  1  0
 61 54  2  0
 62 63  1  0
 62 53  1  0
 64 65  2  0
 65 66  1  0
 65 84  1  0
 66 69  1  0
 67 64  1  0
 67 68  1  0
 68 66  2  0
 69 70  1  0
 70 71  2  0
 72 75  1  0
 72 71  1  0
 73 72  2  0
 74 73  1  0
 74 69  2  0
 75 76  1  0
 76 81  2  0
 76 77  1  0
 77 78  2  0
 79 78  1  0
 79 83  1  0
 80 79  2  0
 81 80  1  0
 82 81  1  0
 84 85  1  0
 85 88  1  0
 85 87  1  0
 86 84  2  0
 89 90  1  0
 89 64  1  0
 91 89  1  0
 92  4  1  0
 93 92  1  0
 95 96  1  0
 96 93  1  0
 96 94  1  0
M  ISO  4  10 101  11 101  54 100  62 100
M  END
>  <TORSDO>  (40) 
F 23

>  <SCORE>  (40) 
-12.424

>  <name>  (40) 
40

>  <ligand_id>  (40) 
40

>  <original_smiles>  (40) 
[H]c1c([H])c([H])c2c(c1[H])C([H])([H])C([H])([H])C([H])([H])C2([H])N([H])C(=O)C1([H])N(C(=O)C([H])(N([H])C(=O)C([H])(N([H])C([H])([H])[H])C([H])([H])[H])C(C([H])([H])[H])(C([H])([H])[H])C([H])([H])[H])C([H])([H])c2c([H])c(OC([H])([H])C(c3c(C([H])([H])C([H])([H])C([H])(C([H])([H])[H])C([H])([H])[H])nnc(C([H])([H])C([H])([H])N([H])C(=O)N4C([H])([H])C([H])([H])C([H])([H])C([H])(n5nc(-c6c([H])c([H])c(Oc7c([H])c([H])c(F)c([H])c7F)c([H])c6[H])c(C(=O)N([H])[H])c5N([H])[H])C4([H])[H])c3[H])(C([H])([H])[H])C([H])([H])[H])c([H])c([H])c2C1([H])[H]

>  <smiles>  (40) 
[H]c1c([H])c([H])c2c(c1[H])C([H])([H])C([H])([H])C([H])([H])C2([H])N([H])C(=O)C1([H])N(C(=O)C([H])(N([H])C(=O)C([H])(N([H])C([H])([H])[H])C([H])([H])[H])C(C([H])([H])[H])(C([H])([H])[H])C([H])([H])[H])C([H])([H])c2c([H])c(OC([H])([H])C(c3c(C([H])([H])C([H])([H])C([H])(C([H])([H])[H])C([H])([H])[H])nnc(C([H])([H])C([H])([H])N([H])C(=O)N4C([H])([H])C([H])([H])C([H])([H])C([H])(n5nc(-c6c([H])c([H])c(Oc7c([H])c([H])c(F)c([H])c7F)c([H])c6[H])c(C(=O)N([H])[H])c5N([H])[H])C4([H])[H])c3[H])(C([H])([H])[H])C([H])([H])[H])c([H])c([H])c2C1([H])[H]

$$$$
41:0:0
     RDKit          3D

 97105  0  0  1  0  0  0  0  0999 V2000
  -30.8570  -19.8270   18.5000 C   0  0  0  0  0  3  0  0  0  0  0  0
  -31.4480  -20.9380   17.8480 C   0  0  0  0  0  0  0  0  0  0  0  0
  -30.6640  -20.1250   19.8190 C   0  0  0  0  0  0  0  0  0  0  0  0
  -31.5620  -21.9280   18.7920 C   0  0  0  0  0  0  0  0  0  0  0  0
  -32.2150  -23.2710   18.6440 C   0  0  0  0  0  1  0  0  0  0  0  0
  -31.0040  -21.4730   19.9900 N   0  0  0  0  0  0  0  0  0  0  0  0
  -31.9180  -20.9710   16.4080 C   0  0  0  0  0  3  0  0  0  0  0  0
  -31.8190  -19.7400   15.8970 F   0  0  0  0  0  0  0  0  0  0  0  0
  -31.6630  -21.8510   14.0500 C   0  0  0  0  0  1  0  0  0  0  0  0
  -29.6230  -21.8020   15.5630 C   0  0  0  0  0  1  0  0  0  0  0  0
  -31.1560  -21.9600   15.4980 C   0  0  0  0  0  3  0  0  0  0  0  0
  -30.2300  -19.1920   20.9240 C   0  0  0  0  0  2  0  0  0  0  0  0
  -30.1620  -17.7010   20.4850 C   0  0  0  0  0  2  0  0  0  0  0  0
  -30.1380  -16.6880   21.6510 C   0  0  0  0  0  2  0  0  0  0  0  0
  -30.6290  -14.4490   20.4880 C   0  0  0  0  0  0  0  0  0  0  0  0
  -30.3820  -12.3640   19.1710 C   0  0  0  0  0  2  0  0  0  0  0  0
  -29.3980  -12.5900   18.0040 C   0  0  0  0  0  2  0  0  0  0  0  0
  -27.9300  -12.4300   18.4530 C   0  0  0  0  0  2  0  0  0  0  0  0
  -27.6210  -13.2050   19.7600 C   0  0  0  0  0  3  0  0  0  0  0  0
  -28.6890  -12.8860   20.8270 C   0  0  0  0  0  2  0  0  0  0  0  0
  -30.0020  -13.2610   20.2720 N   0  0  0  0  0  0  0  0  0  0  0  0
  -31.7070  -14.7520   19.9690 O   0  0  0  0  0  0  0  0  0  0  0  0
  -29.9060  -15.2950   21.2470 N   0  0  0  0  0  0  0  0  0  0  0  0
  -29.0610  -14.8800   21.6090 H   0  0  0  0  0  0  0  0  0  0  0  0
  -25.2200  -13.8010   20.4650 C   0  0  0  0  0  0  0  0  0  0  0  0
  -24.1600  -13.0210   20.8510 C   0  0  0  0  0  0  0  0  0  0  0  0
  -24.6350  -11.6750   20.8280 C   0  0  0  0  0  0  0  0  0  0  0  0
  -26.2710  -12.9260   20.2420 N   0  0  0  0  0  0  0  0  0  0  0  0
  -25.9220  -11.6440   20.5130 N   0  0  0  0  0  0  0  0  0  0  0  0
  -23.9260  -10.4070   21.0330 C   0  0  0  0  0  0  0  0  0  0  0  0
  -24.3670   -9.4650   21.9870 C   0  0  0  0  0  3  0  0  0  0  0  0
  -23.6630   -8.2560   22.1790 C   0  0  0  0  0  3  0  0  0  0  0  0
  -22.4990   -7.9880   21.4200 C   0  0  0  0  0  0  0  0  0  0  0  0
  -22.0750   -8.9190   20.4560 C   0  0  0  0  0  3  0  0  0  0  0  0
  -22.7820  -10.1190   20.2610 C   0  0  0  0  0  3  0  0  0  0  0  0
  -21.7630   -6.8310   21.5200 O   0  0  0  0  0  0  0  0  0  0  0  0
  -21.7090   -6.1110   22.6850 C   0  0  0  0  0  0  0  0  0  0  0  0
  -21.2400   -6.6780   23.8910 C   0  0  0  0  0  3  0  0  0  0  0  0
  -21.1390   -5.8820   25.0510 C   0  0  0  0  0  3  0  0  0  0  0  0
  -21.4930   -4.5210   25.0050 C   0  0  0  0  0  0  0  0  0  0  0  0
  -21.9580   -3.9550   23.8040 C   0  0  0  0  0  3  0  0  0  0  0  0
  -22.0610   -4.7460   22.6480 C   0  0  0  0  0  0  0  0  0  0  0  0
  -22.4860   -4.1910   21.4880 F   0  0  0  0  0  0  0  0  0  0  0  0
  -21.3920   -3.7550   26.1150 F   0  0  0  0  0  0  0  0  0  0  0  0
  -22.7600  -13.4870   21.1300 C   0  0  0  0  0  0  0  0  0  0  0  0
  -22.0470  -12.7850   22.0040 N   0  0  0  0  0  0  0  0  0  0  0  0
  -22.3090  -14.5050   20.6110 O   0  0  0  0  0  0  0  0  0  0  0  0
  -22.4200  -11.9590   22.4490 H   0  0  0  0  0  0  0  0  0  0  0  0
  -21.1090  -13.0810   22.2350 H   0  0  0  0  0  0  0  0  0  0  0  0
  -25.3730  -15.1710   20.2690 N   0  0  0  0  0  0  0  0  0  0  0  0
  -24.6090  -15.8320   20.3700 H   0  0  0  0  0  0  0  0  0  0  0  0
  -26.2280  -15.6010   19.9380 H   0  0  0  0  0  0  0  0  0  0  0  0
  -30.8900  -22.2440   21.2380 C   0  0  0  0  0  2  0  0  0  0  0  0
  -29.6150  -23.1260   21.3610 C   0  0  0  0  0  2  0  0  0  0  0  0
  -29.6200  -24.4740   20.5920 C   0  0  0  0  0  2  0  0  0  0  0  0
  -28.4070  -25.3810   20.9010 C   0  0  0  0  0  2  0  0  0  0  0  0
  -28.5380  -26.6760   20.2870 O   0  0  0  0  0  0  0  0  0  0  0  0
  -24.5830  -31.8370   23.2030 C   0  0  0  0  0  0  0  0  0  0  0  0
  -27.3740  -27.4120   20.2370 C   0  0  0  0  0  0  0  0  0  0  0  0
  -23.4520  -30.4270   21.5150 C   0  0  0  0  0  3  0  0  0  0  0  0
  -24.9700  -28.9000   20.1480 C   0  0  0  0  0  0  0  0  0  0  0  0
  -25.9790  -30.8060   21.4150 C   0  0  0  0  0  2  0  0  0  0  0  0
  -26.1020  -29.4360   20.7780 C   0  0  0  0  0  0  0  0  0  0  0  0
  -27.3090  -28.7010   20.8150 C   0  0  0  0  0  3  0  0  0  0  0  0
  -26.2280  -26.8950   19.5910 C   0  0  0  0  0  3  0  0  0  0  0  0
  -25.0280  -27.6310   19.5500 C   0  0  0  0  0  3  0  0  0  0  0  0
  -23.7170  -29.7490   20.1450 C   0  0  0  0  0  2  0  0  0  0  0  0
  -24.6870  -31.0380   22.1030 N   0  0  0  0  0  0  0  0  0  0  0  0
  -23.4790  -32.1010   23.7010 O   0  0  0  0  0  0  0  0  0  0  0  0
  -22.7710  -29.4010   22.4500 C   0  0  0  0  0  0  0  0  0  0  0  0
  -21.4480  -29.2320   22.2880 N   0  0  0  0  0  0  0  0  0  0  0  0
  -23.4300  -28.7630   23.2750 O   0  0  0  0  0  0  0  0  0  0  0  0
  -20.9800  -29.7950   21.5930 H   0  0  0  0  0  0  0  0  0  0  0  0
  -18.0470  -28.0940   22.7240 C   0  0  0  0  0  0  0  0  0  0  0  0
  -20.6050  -28.2940   23.0310 C   0  0  0  0  0  3  0  0  0  0  0  0
  -20.6870  -26.8750   22.4210 C   0  0  0  0  0  2  0  0  0  0  0  0
  -19.5900  -26.5970   21.3890 C   0  0  0  0  0  2  0  0  0  0  0  0
  -18.2040  -26.7560   22.0210 C   0  0  0  0  0  2  0  0  0  0  0  0
  -19.1750  -28.8230   23.1840 C   0  0  0  0  0  0  0  0  0  0  0  0
  -18.9760  -30.0780   23.8000 C   0  0  0  0  0  3  0  0  0  0  0  0
  -17.6800  -30.6020   23.9620 C   0  0  0  0  0  3  0  0  0  0  0  0
  -16.5650  -29.8680   23.5200 C   0  0  0  0  0  3  0  0  0  0  0  0
  -16.7490  -28.6160   22.9080 C   0  0  0  0  0  3  0  0  0  0  0  0
  -25.8400  -32.4750   23.8720 C   0  0  0  0  0  3  0  0  0  0  0  0
  -26.3140  -31.7080   25.1670 C   0  0  1  0  0  0  0  0  0  0  0  0
  -25.1820  -31.4640   26.1920 C   0  0  0  0  0  1  0  0  0  0  0  0
  -26.9200  -30.3340   24.7970 C   0  0  0  0  0  1  0  0  0  0  0  0
  -27.4330  -32.5110   25.8720 C   0  0  0  0  0  1  0  0  0  0  0  0
  -25.5130  -33.8720   24.1850 N   0  0  0  0  0  0  0  0  0  0  0  0
  -25.8650  -34.9230   23.4340 C   0  0  0  0  0  0  0  0  0  0  0  0
  -26.5730  -34.8200   22.4270 O   0  0  0  0  0  0  0  0  0  0  0  0
  -24.8900  -34.0260   24.9650 H   0  0  0  0  0  0  0  0  0  0  0  0
  -24.1430  -36.7040   23.0050 C   0  0  0  0  0  1  0  0  0  0  0  0
  -25.3540  -36.3100   23.8670 C   0  0  0  0  0  3  0  0  0  0  0  0
  -27.4470  -37.2100   24.7810 C   0  0  0  0  0  1  0  0  0  0  0  0
  -26.3850  -37.3690   23.7910 N   0  0  0  0  0  0  0  0  0  0  0  0
  -25.9660  -38.2860   23.9200 H   0  0  0  0  0  0  0  0  0  0  0  0
  1  3  2  0
  2  1  1  0
  2  4  2  0
  3  6  1  0
  3 12  1  0
  4  6  1  0
  5  4  1  0
  6 53  1  0
  7  8  1  0
  7  2  1  0
  9 11  1  0
 11 10  1  0
 11  7  1  0
 13 12  1  0
 13 14  1  0
 15 23  1  0
 16 21  1  0
 17 18  1  0
 17 16  1  0
 19 18  1  0
 19 28  1  0
 19 20  1  0
 21 15  1  0
 21 20  1  0
 22 15  2  0
 23 24  1  0
 23 14  1  0
 25 26  2  0
 26 45  1  0
 27 26  1  0
 27 30  1  0
 28 25  1  0
 28 29  1  0
 29 27  2  0
 30 31  1  0
 31 32  2  0
 33 36  1  0
 33 32  1  0
 34 33  2  0
 35 34  1  0
 35 30  2  0
 36 37  1  0
 37 38  1  0
 38 39  2  0
 40 39  1  0
 40 44  1  0
 41 40  2  0
 42 37  2  0
 42 41  1  0
 43 42  1  0
 45 46  1  0
 46 49  1  0
 46 48  1  0
 47 45  2  0
 50 51  1  0
 50 25  1  0
 52 50  1  0
 53 54  1  0
 55 56  1  0
 55 54  1  0
 57 56  1  0
 58 69  2  0
 59 57  1  0
 59 64  1  0
 60 68  1  0
 60 70  1  0
 61 63  1  0
 62 68  1  0
 63 64  2  0
 63 62  1  0
 65 59  2  0
 66 65  1  0
 66 61  2  0
 67 61  1  0
 67 60  1  0
 68 58  1  0
 70 72  2  0
 71 70  1  0
 73 71  1  0
 74 83  2  0
 74 79  1  0
 75 71  1  0
 75 79  1  0
 76 75  1  0
 77 78  1  0
 77 76  1  0
 78 74  1  0
 79 80  2  0
 80 81  1  0
 82 81  2  0
 83 82  1  0
 84 58  1  0
 84 89  1  0
 84 85  1  0
 85 88  1  1
 85 86  1  0
 87 85  1  0
 89 92  1  0
 90 94  1  0
 90 89  1  0
 91 90  2  0
 94 93  1  0
 96 94  1  0
 96 97  1  0
 96 95  1  0
M  ISO  4  15 100  23 100  56 101  57 101
M  END
>  <TORSDO>  (41) 
F 25

>  <SCORE>  (41) 
-12.210

>  <name>  (41) 
41

>  <ligand_id>  (41) 
41

>  <original_smiles>  (41) 
[H]c1c([H])c([H])c2c(c1[H])C([H])([H])C([H])([H])C([H])([H])C2([H])N([H])C(=O)C1([H])N(C(=O)C([H])(N([H])C(=O)C([H])(N([H])C([H])([H])[H])C([H])([H])[H])C(C([H])([H])[H])(C([H])([H])[H])C([H])([H])[H])C([H])([H])c2c([H])c(OC([H])([H])C([H])([H])C([H])([H])C([H])([H])n3c(C([H])([H])[H])c(C([H])(F)C([H])(C([H])([H])[H])C([H])([H])[H])c([H])c3C([H])([H])C([H])([H])C([H])([H])N([H])C(=O)N3C([H])([H])C([H])([H])C([H])([H])C([H])(n4nc(-c5c([H])c([H])c(Oc6c([H])c([H])c(F)c([H])c6F)c([H])c5[H])c(C(=O)N([H])[H])c4N([H])[H])C3([H])[H])c([H])c([H])c2C1([H])[H]

>  <smiles>  (41) 
[H]c1c([H])c([H])c2c(c1[H])C([H])([H])C([H])([H])C([H])([H])C2([H])N([H])C(=O)C1([H])N(C(=O)C([H])(N([H])C(=O)C([H])(N([H])C([H])([H])[H])C([H])([H])[H])C(C([H])([H])[H])(C([H])([H])[H])C([H])([H])[H])C([H])([H])c2c([H])c(OC([H])([H])C([H])([H])C([H])([H])C([H])([H])n3c(C([H])([H])[H])c(C([H])(F)C([H])(C([H])([H])[H])C([H])([H])[H])c([H])c3C([H])([H])C([H])([H])C([H])([H])N([H])C(=O)N3C([H])([H])C([H])([H])C([H])([H])C([H])(n4nc(-c5c([H])c([H])c(Oc6c([H])c([H])c(F)c([H])c6F)c([H])c5[H])c(C(=O)N([H])[H])c4N([H])[H])C3([H])[H])c([H])c([H])c2C1([H])[H]

$$$$
42:0:0
     RDKit          3D

 96104  0  0  1  0  0  0  0  0999 V2000
  -32.2090  -29.1860   19.2890 C   0  0  0  0  0  3  0  0  0  0  0  0
  -32.4640  -28.0710   18.4510 C   0  0  0  0  0  0  0  0  0  0  0  0
  -31.4450  -29.0990   20.4620 C   0  0  0  0  0  0  0  0  0  0  0  0
  -31.8320  -26.8080   18.9010 C   0  0  0  0  0  0  0  0  0  0  0  0
  -30.9420  -27.8420   20.8320 C   0  0  0  0  0  0  0  0  0  0  0  0
  -31.1270  -26.7620   20.0530 N   0  0  0  0  0  0  0  0  0  0  0  0
  -30.9740  -28.1510   23.3450 C   0  0  0  0  0  1  0  0  0  0  0  0
  -29.8350  -26.0990   22.3290 C   0  0  0  0  0  1  0  0  0  0  0  0
  -30.1990  -27.5810   22.1460 C   0  0  0  0  0  3  0  0  0  0  0  0
  -33.3630  -28.4230   17.1720 C   0  0  0  0  0  2  0  0  0  0  0  0
  -34.9820  -28.6690   17.3700 C   0  0  0  0  0  2  0  0  0  0  0  0
  -35.8760  -29.6380   16.4360 C   0  0  0  0  0  2  0  0  0  0  0  0
  -37.0830  -29.1590   15.6730 O   0  0  0  0  0  0  0  0  0  0  0  0
  -36.8320  -26.9880    8.7660 C   0  0  0  0  0  0  0  0  0  0  0  0
  -37.3740  -29.4550   14.3240 C   0  0  0  0  0  0  0  0  0  0  0  0
  -38.3790  -28.8410    9.2900 C   0  0  0  0  0  3  0  0  0  0  0  0
  -38.0800  -29.9430   11.5820 C   0  0  0  0  0  0  0  0  0  0  0  0
  -36.2520  -28.5020   10.6830 C   0  0  0  0  0  2  0  0  0  0  0  0
  -36.9860  -29.1190   11.8750 C   0  0  0  0  0  0  0  0  0  0  0  0
  -36.6280  -28.8810   13.2380 C   0  0  0  0  0  3  0  0  0  0  0  0
  -38.4450  -30.3030   13.9730 C   0  0  0  0  0  3  0  0  0  0  0  0
  -38.8000  -30.5400   12.6300 C   0  0  0  0  0  3  0  0  0  0  0  0
  -38.4400  -30.1480   10.1240 C   0  0  0  0  0  2  0  0  0  0  0  0
  -37.1360  -28.0510    9.5710 N   0  0  0  0  0  0  0  0  0  0  0  0
  -37.5480  -26.6840    7.8000 O   0  0  0  0  0  0  0  0  0  0  0  0
  -39.6820  -28.0350    9.5180 C   0  0  0  0  0  0  0  0  0  0  0  0
  -40.7760  -28.4500    8.8580 N   0  0  0  0  0  0  0  0  0  0  0  0
  -39.6980  -27.0740   10.2920 O   0  0  0  0  0  0  0  0  0  0  0  0
  -40.6820  -29.2350    8.2280 H   0  0  0  0  0  0  0  0  0  0  0  0
  -44.2790  -29.0430    8.1750 C   0  0  0  0  0  0  0  0  0  0  0  0
  -42.1160  -27.8670    8.9640 C   0  0  0  0  0  3  0  0  0  0  0  0
  -42.6790  -28.0170   10.3960 C   0  0  0  0  0  2  0  0  0  0  0  0
  -43.5280  -29.2780   10.5820 C   0  0  0  0  0  2  0  0  0  0  0  0
  -44.7160  -29.2740    9.6150 C   0  0  0  0  0  2  0  0  0  0  0  0
  -43.0530  -28.3970    7.8710 C   0  0  0  0  0  0  0  0  0  0  0  0
  -42.6800  -28.2360    6.5190 C   0  0  0  0  0  3  0  0  0  0  0  0
  -43.5040  -28.7140    5.4830 C   0  0  0  0  0  3  0  0  0  0  0  0
  -44.7260  -29.3360    5.7890 C   0  0  0  0  0  3  0  0  0  0  0  0
  -45.1160  -29.4950    7.1320 C   0  0  0  0  0  3  0  0  0  0  0  0
  -35.5620  -26.1170    9.0090 C   0  0  0  0  0  3  0  0  0  0  0  0
  -34.4000  -26.8760    8.5230 N   0  0  0  0  0  0  0  0  0  0  0  0
  -33.2800  -27.0930    9.2270 C   0  0  0  0  0  0  0  0  0  0  0  0
  -33.0930  -26.6110   10.3470 O   0  0  0  0  0  0  0  0  0  0  0  0
  -34.5050  -27.3410    7.6330 H   0  0  0  0  0  0  0  0  0  0  0  0
  -32.2680  -29.3950    9.1990 C   0  0  0  0  0  1  0  0  0  0  0  0
  -32.1980  -27.9860    8.5890 C   0  0  0  0  0  3  0  0  0  0  0  0
  -30.5570  -26.3070    7.8710 C   0  0  0  0  0  1  0  0  0  0  0  0
  -30.8290  -27.4510    8.7370 N   0  0  0  0  0  0  0  0  0  0  0  0
  -30.1380  -28.1690    8.5370 H   0  0  0  0  0  0  0  0  0  0  0  0
  -35.6340  -24.7040    8.3060 C   0  0  1  0  0  0  0  0  0  0  0  0
  -35.7650  -24.7780    6.7670 C   0  0  0  0  0  1  0  0  0  0  0  0
  -36.8360  -23.8920    8.8400 C   0  0  0  0  0  1  0  0  0  0  0  0
  -34.3630  -23.8870    8.6390 C   0  0  0  0  0  1  0  0  0  0  0  0
  -31.1940  -30.3720   21.2640 C   0  0  0  0  0  2  0  0  0  0  0  0
  -31.8750  -32.8230   21.5680 C   0  0  0  0  0  1  0  0  0  0  0  0
  -31.9470  -31.5780   20.6750 C   0  0  0  0  0  2  0  0  0  0  0  0
  -31.6610  -25.3970   18.2150 C   0  0  0  0  0  2  0  0  0  0  0  0
  -32.2530  -24.0470   18.9350 C   0  0  0  0  0  2  0  0  0  0  0  0
  -34.8510  -24.1290   19.4010 C   0  0  0  0  0  0  0  0  0  0  0  0
  -37.2920  -24.3690   18.9290 C   0  0  0  0  0  2  0  0  0  0  0  0
  -37.5080  -24.4790   17.4040 C   0  0  0  0  0  2  0  0  0  0  0  0
  -37.6230  -23.0790   16.7700 C   0  0  0  0  0  2  0  0  0  0  0  0
  -36.5020  -22.1150   17.2440 C   0  0  0  0  0  3  0  0  0  0  0  0
  -36.3210  -22.1570   18.7750 C   0  0  0  0  0  2  0  0  0  0  0  0
  -36.0740  -23.5550   19.1430 N   0  0  0  0  0  0  0  0  0  0  0  0
  -34.7990  -25.2250   19.9660 O   0  0  0  0  0  0  0  0  0  0  0  0
  -33.7110  -23.5700   18.8350 N   0  0  0  0  0  0  0  0  0  0  0  0
  -33.8510  -22.7010   18.3410 H   0  0  0  0  0  0  0  0  0  0  0  0
  -37.7740  -20.2490   16.0290 C   0  0  0  0  0  0  0  0  0  0  0  0
  -37.5330  -18.9100   15.8980 C   0  0  0  0  0  0  0  0  0  0  0  0
  -36.2970  -18.6620   16.5690 C   0  0  0  0  0  0  0  0  0  0  0  0
  -36.7090  -20.7570   16.7540 N   0  0  0  0  0  0  0  0  0  0  0  0
  -35.7850  -19.7990   17.0260 N   0  0  0  0  0  0  0  0  0  0  0  0
  -35.6020  -17.4000   16.8560 C   0  0  0  0  0  0  0  0  0  0  0  0
  -35.2720  -16.4880   15.8300 C   0  0  0  0  0  3  0  0  0  0  0  0
  -34.6220  -15.2720   16.1340 C   0  0  0  0  0  3  0  0  0  0  0  0
  -34.3000  -14.9560   17.4760 C   0  0  0  0  0  0  0  0  0  0  0  0
  -34.6100  -15.8780   18.4910 C   0  0  0  0  0  3  0  0  0  0  0  0
  -35.2520  -17.0890   18.1860 C   0  0  0  0  0  3  0  0  0  0  0  0
  -33.6470  -13.8120   17.8630 O   0  0  0  0  0  0  0  0  0  0  0  0
  -34.2480  -12.8770   18.6660 C   0  0  0  0  0  0  0  0  0  0  0  0
  -34.0920  -12.8900   20.0700 C   0  0  0  0  0  3  0  0  0  0  0  0
  -34.6700  -11.8700   20.8510 C   0  0  0  0  0  3  0  0  0  0  0  0
  -35.3960  -10.8330   20.2330 C   0  0  0  0  0  0  0  0  0  0  0  0
  -35.5490  -10.8160   18.8370 C   0  0  0  0  0  3  0  0  0  0  0  0
  -34.9730  -11.8340   18.0550 C   0  0  0  0  0  0  0  0  0  0  0  0
  -35.1050  -11.8010   16.7070 F   0  0  0  0  0  0  0  0  0  0  0  0
  -35.9460   -9.8490   20.9840 F   0  0  0  0  0  0  0  0  0  0  0  0
  -38.4470  -17.8980   15.2690 C   0  0  0  0  0  0  0  0  0  0  0  0
  -37.9500  -17.1460   14.2940 N   0  0  0  0  0  0  0  0  0  0  0  0
  -39.6250  -17.8020   15.6090 O   0  0  0  0  0  0  0  0  0  0  0  0
  -36.9870  -17.2370   14.0030 H   0  0  0  0  0  0  0  0  0  0  0  0
  -38.5400  -16.4690   13.8310 H   0  0  0  0  0  0  0  0  0  0  0  0
  -38.8190  -21.0710   15.6200 N   0  0  0  0  0  0  0  0  0  0  0  0
  -39.6260  -20.7060   15.1260 H   0  0  0  0  0  0  0  0  0  0  0  0
  -38.8950  -22.0590   15.8230 H   0  0  0  0  0  0  0  0  0  0  0  0
  1  3  1  0
  2  4  1  0
  2  1  2  0
  3  5  2  0
  3 54  1  0
  4  6  2  0
  5  9  1  0
  6  5  1  0
  9  8  1  0
  9  7  1  0
 10 11  1  0
 10  2  1  0
 12 11  1  0
 13 12  1  0
 14 24  1  0
 15 13  1  0
 16 26  1  0
 16 24  1  0
 16 23  1  0
 17 19  2  0
 17 22  1  0
 18 19  1  0
 19 20  1  0
 20 15  2  0
 21 15  1  0
 22 21  2  0
 23 17  1  0
 24 18  1  0
 25 14  2  0
 26 28  2  0
 27 26  1  0
 29 27  1  0
 30 34  1  0
 31 27  1  0
 31 32  1  0
 32 33  1  0
 34 33  1  0
 35 30  1  0
 35 31  1  0
 36 35  2  0
 37 38  2  0
 37 36  1  0
 38 39  1  0
 39 30  2  0
 40 14  1  0
 41 40  1  0
 41 42  1  0
 42 43  2  0
 44 41  1  0
 46 48  1  0
 46 45  1  0
 46 42  1  0
 47 48  1  0
 49 48  1  0
 50 53  1  6
 50 52  1  0
 50 40  1  0
 51 50  1  0
 56 54  1  0
 56 55  1  0
 57  4  1  0
 57 58  1  0
 59 66  2  0
 60 65  1  0
 61 60  1  0
 62 63  1  0
 62 61  1  0
 63 72  1  0
 63 64  1  0
 64 65  1  0
 65 59  1  0
 67 58  1  0
 67 59  1  0
 68 67  1  0
 69 72  1  0
 70 69  2  0
 70 71  1  0
 71 74  1  0
 71 73  2  0
 72 73  1  0
 74 79  1  0
 75 76  1  0
 75 74  2  0
 76 77  2  0
 77 80  1  0
 77 78  1  0
 79 78  2  0
 80 81  1  0
 81 82  1  0
 82 83  2  0
 84 83  1  0
 84 88  1  0
 85 84  2  0
 86 81  2  0
 86 85  1  0
 87 86  1  0
 89 91  2  0
 89 70  1  0
 90 89  1  0
 92 90  1  0
 93 90  1  0
 94 96  1  0
 94 69  1  0
 95 94  1  0
M  ISO  4  12 101  13 101  59 100  67 100
M  END
>  <TORSDO>  (42) 
F 24

>  <SCORE>  (42) 
0.380

>  <name>  (42) 
42

>  <ligand_id>  (42) 
42

>  <original_smiles>  (42) 
[H]c1c([H])c([H])c2c(c1[H])C([H])([H])C([H])([H])C([H])([H])C2([H])N([H])C(=O)C1([H])N(C(=O)C([H])(N([H])C(=O)C([H])(N([H])C([H])([H])[H])C([H])([H])[H])C(C([H])([H])[H])(C([H])([H])[H])C([H])([H])[H])C([H])([H])c2c([H])c(OC([H])([H])C([H])([H])C([H])([H])c3c(C([H])([H])C([H])([H])N([H])C(=O)N4C([H])([H])C([H])([H])C([H])([H])C([H])(n5nc(-c6c([H])c([H])c(Oc7c([H])c([H])c(F)c([H])c7F)c([H])c6[H])c(C(=O)N([H])[H])c5N([H])[H])C4([H])[H])nc(C([H])(C([H])([H])[H])C([H])([H])[H])c(C([H])([H])C([H])([H])C([H])([H])[H])c3[H])c([H])c([H])c2C1([H])[H]

>  <smiles>  (42) 
[H]c1c([H])c([H])c2c(c1[H])C([H])([H])C([H])([H])C([H])([H])C2([H])N([H])C(=O)C1([H])N(C(=O)C([H])(N([H])C(=O)C([H])(N([H])C([H])([H])[H])C([H])([H])[H])C(C([H])([H])[H])(C([H])([H])[H])C([H])([H])[H])C([H])([H])c2c([H])c(OC([H])([H])C([H])([H])C([H])([H])c3c(C([H])([H])C([H])([H])N([H])C(=O)N4C([H])([H])C([H])([H])C([H])([H])C([H])(n5nc(-c6c([H])c([H])c(Oc7c([H])c([H])c(F)c([H])c7F)c([H])c6[H])c(C(=O)N([H])[H])c5N([H])[H])C4([H])[H])nc(C([H])(C([H])([H])[H])C([H])([H])[H])c(C([H])([H])C([H])([H])C([H])([H])[H])c3[H])c([H])c([H])c2C1([H])[H]

$$$$
43:0:0
     RDKit          3D

 94102  0  0  1  0  0  0  0  0999 V2000
  -30.2200  -20.6330   20.2170 C   0  0  0  0  0  3  0  0  0  0  0  0
  -29.6980  -21.8660   20.6760 C   0  0  0  0  0  0  0  0  0  0  0  0
  -30.5050  -19.6350   21.1780 C   0  0  0  0  0  0  0  0  0  0  0  0
  -29.8440  -21.0990   22.8290 C   0  0  0  0  0  0  0  0  0  0  0  0
  -29.4980  -22.0650   21.9880 N   0  0  0  0  0  0  0  0  0  0  0  0
  -30.3070  -19.8970   22.4880 N   0  0  0  0  0  0  0  0  0  0  0  0
  -32.1470  -17.8020   21.8520 C   0  0  0  0  0  1  0  0  0  0  0  0
  -31.0750  -18.2270   20.8330 C   0  0  0  0  0  3  0  0  0  0  0  0
  -29.9780  -17.1350   20.5820 C   0  0  0  0  0  2  0  0  0  0  0  0
  -30.9760  -14.7780   20.4440 C   0  0  0  0  0  0  0  0  0  0  0  0
  -30.7410  -12.6020   19.2850 C   0  0  0  0  0  2  0  0  0  0  0  0
  -29.8140  -12.8160   18.0690 C   0  0  0  0  0  2  0  0  0  0  0  0
  -28.3300  -12.6930   18.4670 C   0  0  0  0  0  2  0  0  0  0  0  0
  -27.9820  -13.5150   19.7350 C   0  0  0  0  0  3  0  0  0  0  0  0
  -29.0130  -13.2490   20.8570 C   0  0  0  0  0  2  0  0  0  0  0  0
  -30.3550  -13.5670   20.3300 N   0  0  0  0  0  0  0  0  0  0  0  0
  -32.0670  -15.0270   19.9230 O   0  0  0  0  0  0  0  0  0  0  0  0
  -30.2200  -15.7350   21.0270 N   0  0  0  0  0  0  0  0  0  0  0  0
  -29.4500  -15.3470   21.5510 H   0  0  0  0  0  0  0  0  0  0  0  0
  -25.5710  -14.1550   20.3730 C   0  0  0  0  0  0  0  0  0  0  0  0
  -24.4900  -13.4000   20.7370 C   0  0  0  0  0  0  0  0  0  0  0  0
  -24.9400  -12.0440   20.7430 C   0  0  0  0  0  0  0  0  0  0  0  0
  -26.6150  -13.2620   20.1830 N   0  0  0  0  0  0  0  0  0  0  0  0
  -26.2340  -11.9880   20.4580 N   0  0  0  0  0  0  0  0  0  0  0  0
  -24.2000  -10.7910   20.9430 C   0  0  0  0  0  0  0  0  0  0  0  0
  -24.5900   -9.8540   21.9230 C   0  0  0  0  0  3  0  0  0  0  0  0
  -23.8530   -8.6640   22.1090 C   0  0  0  0  0  3  0  0  0  0  0  0
  -22.7110   -8.4050   21.3150 C   0  0  0  0  0  0  0  0  0  0  0  0
  -22.3430   -9.3310   20.3230 C   0  0  0  0  0  3  0  0  0  0  0  0
  -23.0810  -10.5110   20.1340 C   0  0  0  0  0  3  0  0  0  0  0  0
  -21.9470   -7.2670   21.4090 O   0  0  0  0  0  0  0  0  0  0  0  0
  -21.8180   -6.5820   22.5910 C   0  0  0  0  0  0  0  0  0  0  0  0
  -21.3340   -7.2030   23.7630 C   0  0  0  0  0  3  0  0  0  0  0  0
  -21.1520   -6.4450   24.9380 C   0  0  0  0  0  3  0  0  0  0  0  0
  -21.4420   -5.0680   24.9400 C   0  0  0  0  0  0  0  0  0  0  0  0
  -21.9180   -4.4470   23.7720 C   0  0  0  0  0  3  0  0  0  0  0  0
  -22.1020   -5.2020   22.6010 C   0  0  0  0  0  0  0  0  0  0  0  0
  -22.5400   -4.5940   21.4720 F   0  0  0  0  0  0  0  0  0  0  0  0
  -21.2600   -4.3370   26.0650 F   0  0  0  0  0  0  0  0  0  0  0  0
  -23.0910  -13.8900   20.9770 C   0  0  0  0  0  0  0  0  0  0  0  0
  -22.3480  -13.2230   21.8530 N   0  0  0  0  0  0  0  0  0  0  0  0
  -22.6660  -14.9020   20.4190 O   0  0  0  0  0  0  0  0  0  0  0  0
  -22.7020  -12.4040   22.3250 H   0  0  0  0  0  0  0  0  0  0  0  0
  -21.4090  -13.5350   22.0550 H   0  0  0  0  0  0  0  0  0  0  0  0
  -25.7530  -15.5210   20.1700 N   0  0  0  0  0  0  0  0  0  0  0  0
  -24.9910  -16.1860   20.2430 H   0  0  0  0  0  0  0  0  0  0  0  0
  -26.6150  -15.9410   19.8480 H   0  0  0  0  0  0  0  0  0  0  0  0
  -29.2140  -22.9860   19.7390 C   0  0  0  0  0  2  0  0  0  0  0  0
  -29.0650  -24.4130   20.3620 C   0  0  0  0  0  2  0  0  0  0  0  0
  -28.7530  -25.5230   19.3200 C   0  0  0  0  0  2  0  0  0  0  0  0
  -28.5670  -26.8320   19.8950 O   0  0  0  0  0  0  0  0  0  0  0  0
  -24.6360  -31.7630   23.1890 C   0  0  0  0  0  0  0  0  0  0  0  0
  -27.3430  -27.4810   19.9090 C   0  0  0  0  0  0  0  0  0  0  0  0
  -23.4340  -30.3940   21.5130 C   0  0  0  0  0  3  0  0  0  0  0  0
  -24.9010  -28.9350   20.0150 C   0  0  0  0  0  0  0  0  0  0  0  0
  -25.9530  -30.8070   21.3000 C   0  0  0  0  0  2  0  0  0  0  0  0
  -26.0540  -29.4610   20.6070 C   0  0  0  0  0  0  0  0  0  0  0  0
  -27.2700  -28.7410   20.5530 C   0  0  0  0  0  3  0  0  0  0  0  0
  -26.1620  -26.9630   19.3260 C   0  0  0  0  0  3  0  0  0  0  0  0
  -24.9520  -27.6830   19.3740 C   0  0  0  0  0  3  0  0  0  0  0  0
  -23.6380  -29.7650   20.1090 C   0  0  0  0  0  2  0  0  0  0  0  0
  -24.6910  -31.0070   22.0560 N   0  0  0  0  0  0  0  0  0  0  0  0
  -23.5590  -31.9890   23.7580 O   0  0  0  0  0  0  0  0  0  0  0  0
  -22.8220  -29.3260   22.4480 C   0  0  0  0  0  0  0  0  0  0  0  0
  -21.5100  -29.0790   22.2980 N   0  0  0  0  0  0  0  0  0  0  0  0
  -23.5250  -28.7210   23.2610 O   0  0  0  0  0  0  0  0  0  0  0  0
  -21.0030  -29.6110   21.6050 H   0  0  0  0  0  0  0  0  0  0  0  0
  -18.2090  -27.6570   22.6870 C   0  0  0  0  0  0  0  0  0  0  0  0
  -20.7340  -28.0890   23.0450 C   0  0  0  0  0  3  0  0  0  0  0  0
  -20.9550  -26.6690   22.4750 C   0  0  0  0  0  2  0  0  0  0  0  0
  -19.9120  -26.2710   21.4260 C   0  0  0  0  0  2  0  0  0  0  0  0
  -18.5010  -26.3230   22.0200 C   0  0  0  0  0  2  0  0  0  0  0  0
  -19.2600  -28.4920   23.1560 C   0  0  0  0  0  0  0  0  0  0  0  0
  -18.9370  -29.7370   23.7370 C   0  0  0  0  0  3  0  0  0  0  0  0
  -17.5960  -30.1490   23.8600 C   0  0  0  0  0  3  0  0  0  0  0  0
  -16.5600  -29.3110   23.4110 C   0  0  0  0  0  3  0  0  0  0  0  0
  -16.8670  -28.0680   22.8290 C   0  0  0  0  0  3  0  0  0  0  0  0
  -25.9190  -32.4010   23.8110 C   0  0  0  0  0  3  0  0  0  0  0  0
  -25.5940  -33.7860   24.1800 N   0  0  0  0  0  0  0  0  0  0  0  0
  -25.8990  -34.8610   23.4420 C   0  0  0  0  0  0  0  0  0  0  0  0
  -26.5600  -34.7950   22.4030 O   0  0  0  0  0  0  0  0  0  0  0  0
  -25.0160  -33.9110   24.9980 H   0  0  0  0  0  0  0  0  0  0  0  0
  -24.1310  -36.6270   23.1460 C   0  0  0  0  0  1  0  0  0  0  0  0
  -25.3890  -36.2290   23.9350 C   0  0  0  0  0  3  0  0  0  0  0  0
  -27.5160  -37.1390   24.7600 C   0  0  0  0  0  1  0  0  0  0  0  0
  -26.3990  -37.3050   23.8340 N   0  0  0  0  0  0  0  0  0  0  0  0
  -25.9770  -38.2130   24.0050 H   0  0  0  0  0  0  0  0  0  0  0  0
  -26.4670  -31.6080   25.0620 C   0  0  1  0  0  0  0  0  0  0  0  0
  -25.3970  -31.3330   26.1420 C   0  0  0  0  0  1  0  0  0  0  0  0
  -27.0670  -30.2480   24.6340 C   0  0  0  0  0  1  0  0  0  0  0  0
  -27.6170  -32.4040   25.7230 C   0  0  0  0  0  1  0  0  0  0  0  0
  -29.8120  -21.4630   24.3080 C   0  0  0  0  0  2  0  0  0  0  0  0
  -32.3900  -21.4330   24.5840 C   0  0  0  0  0  1  0  0  0  0  0  0
  -31.0790  -22.2110   24.7830 C   0  0  0  0  0  2  0  0  0  0  0  0
  1  2  2  0
  1  3  1  0
  2  5  1  0
  3  6  2  0
  4 92  1  0
  5  4  2  0
  6  4  1  0
  8  3  1  0
  8  7  1  0
  9  8  1  0
  9 18  1  0
 10 18  1  0
 11 16  1  0
 12 13  1  0
 12 11  1  0
 14 13  1  0
 14 23  1  0
 14 15  1  0
 16 10  1  0
 16 15  1  0
 17 10  2  0
 18 19  1  0
 20 21  2  0
 21 22  1  0
 21 40  1  0
 22 25  1  0
 23 20  1  0
 23 24  1  0
 24 22  2  0
 25 26  1  0
 26 27  2  0
 28 31  1  0
 28 27  1  0
 29 28  2  0
 30 29  1  0
 30 25  2  0
 31 32  1  0
 32 37  2  0
 32 33  1  0
 33 34  2  0
 34 35  1  0
 35 39  1  0
 36 35  2  0
 37 36  1  0
 38 37  1  0
 40 41  1  0
 41 44  1  0
 41 43  1  0
 42 40  2  0
 45 46  1  0
 45 20  1  0
 47 45  1  0
 48 49  1  0
 48  2  1  0
 50 51  1  0
 50 49  1  0
 51 53  1  0
 52 63  2  0
 53 58  1  0
 54 62  1  0
 54 64  1  0
 55 61  1  0
 55 57  1  0
 56 62  1  0
 57 56  1  0
 58 57  2  0
 59 60  1  0
 59 53  2  0
 60 55  2  0
 61 54  1  0
 62 52  1  0
 64 66  2  0
 65 64  1  0
 67 65  1  0
 68 77  2  0
 68 73  1  0
 69 65  1  0
 69 73  1  0
 70 69  1  0
 71 72  1  0
 71 70  1  0
 72 68  1  0
 73 74  2  0
 74 75  1  0
 76 75  2  0
 77 76  1  0
 78 52  1  0
 78 79  1  0
 78 88  1  0
 79 82  1  0
 80 84  1  0
 80 79  1  0
 81 80  2  0
 84 83  1  0
 86 84  1  0
 86 87  1  0
 86 85  1  0
 88 91  1  1
 88 89  1  0
 90 88  1  0
 92 94  1  0
 93 94  1  0
M  ISO  4  10 100  18 100  50 101  51 101
M  END
>  <TORSDO>  (43) 
F 23

>  <SCORE>  (43) 
-11.347

>  <name>  (43) 
43

>  <ligand_id>  (43) 
43

>  <original_smiles>  (43) 
[H]c1c(C([H])([H])C([H])([H])C([H])([H])Oc2c([H])c([H])c3c(c2[H])C([H])([H])N(C(=O)C([H])(N([H])C(=O)C([H])(N([H])C([H])([H])[H])C([H])([H])[H])C(C([H])([H])[H])(C([H])([H])[H])C([H])([H])[H])C([H])(C(=O)N([H])C2([H])c4c([H])c([H])c([H])c([H])c4C([H])([H])C([H])([H])C2([H])[H])C3([H])[H])nc(C([H])([H])C([H])([H])C([H])([H])[H])nc1C([H])(C([H])([H])[H])C([H])([H])N([H])C(=O)N1C([H])([H])C([H])([H])C([H])([H])C([H])(n2nc(-c3c([H])c([H])c(Oc4c([H])c([H])c(F)c([H])c4F)c([H])c3[H])c(C(=O)N([H])[H])c2N([H])[H])C1([H])[H]

>  <smiles>  (43) 
[H]c1c(C([H])([H])C([H])([H])C([H])([H])Oc2c([H])c([H])c3c(c2[H])C([H])([H])N(C(=O)C([H])(N([H])C(=O)C([H])(N([H])C([H])([H])[H])C([H])([H])[H])C(C([H])([H])[H])(C([H])([H])[H])C([H])([H])[H])C([H])(C(=O)N([H])C2([H])c4c([H])c([H])c([H])c([H])c4C([H])([H])C([H])([H])C2([H])[H])C3([H])[H])nc(C([H])([H])C([H])([H])C([H])([H])[H])nc1C([H])(C([H])([H])[H])C([H])([H])N([H])C(=O)N1C([H])([H])C([H])([H])C([H])([H])C([H])(n2nc(-c3c([H])c([H])c(Oc4c([H])c([H])c(F)c([H])c4F)c([H])c3[H])c(C(=O)N([H])[H])c2N([H])[H])C1([H])[H]

$$$$
44:0:0
     RDKit          3D

 85 92  0  0  1  0  0  0  0  0999 V2000
  -28.7360  -22.8500   20.5090 C   0  0  0  0  0  2  0  0  0  0  0  0
  -29.1990  -21.2810   19.7980 C   0  0  0  0  0  2  0  0  0  0  0  0
  -27.6380  -19.2160   20.3900 C   0  0  0  0  0  1  0  0  0  0  0  0
  -29.1250  -19.5870   20.3610 C   0  0  0  0  0  3  0  0  0  0  0  0
  -29.9810  -18.1240   19.8180 C   0  0  0  0  0  2  0  0  0  0  0  0
  -30.4890  -15.2580   19.9080 C   0  0  0  0  0  0  0  0  0  0  0  0
  -30.3530  -12.8600   18.9620 C   0  0  0  0  0  2  0  0  0  0  0  0
  -29.3440  -12.7350   17.7930 C   0  0  0  0  0  2  0  0  0  0  0  0
  -27.9290  -12.4650   18.3270 C   0  0  0  0  0  2  0  0  0  0  0  0
  -27.5720  -13.3940   19.5150 C   0  0  0  0  0  3  0  0  0  0  0  0
  -28.6980  -13.4820   20.5700 C   0  0  0  0  0  2  0  0  0  0  0  0
  -29.8990  -13.9700   19.8760 N   0  0  0  0  0  0  0  0  0  0  0  0
  -31.6720  -15.2710   19.5430 O   0  0  0  0  0  0  0  0  0  0  0  0
  -29.7580  -16.5140   20.1390 N   0  0  0  0  0  0  0  0  0  0  0  0
  -28.8180  -16.3250   20.4550 H   0  0  0  0  0  0  0  0  0  0  0  0
  -25.2630  -13.9450   20.4490 C   0  0  0  0  0  0  0  0  0  0  0  0
  -24.2230  -13.1620   20.8670 C   0  0  0  0  0  0  0  0  0  0  0  0
  -24.6750  -11.8120   20.7600 C   0  0  0  0  0  0  0  0  0  0  0  0
  -26.2780  -13.0710   20.1040 N   0  0  0  0  0  0  0  0  0  0  0  0
  -25.9420  -11.7800   20.3600 N   0  0  0  0  0  0  0  0  0  0  0  0
  -23.9530  -10.5480   20.9600 C   0  0  0  0  0  0  0  0  0  0  0  0
  -24.4160   -9.5670   21.8620 C   0  0  0  0  0  3  0  0  0  0  0  0
  -23.6940   -8.3690   22.0510 C   0  0  0  0  0  3  0  0  0  0  0  0
  -22.4930   -8.1440   21.3370 C   0  0  0  0  0  0  0  0  0  0  0  0
  -22.0480   -9.1140   20.4220 C   0  0  0  0  0  3  0  0  0  0  0  0
  -22.7690  -10.3040   20.2310 C   0  0  0  0  0  3  0  0  0  0  0  0
  -21.7370   -7.0020   21.4390 O   0  0  0  0  0  0  0  0  0  0  0  0
  -21.7010   -6.2620   22.5950 C   0  0  0  0  0  0  0  0  0  0  0  0
  -21.2780   -6.8180   23.8220 C   0  0  0  0  0  3  0  0  0  0  0  0
  -21.1880   -6.0040   24.9690 C   0  0  0  0  0  3  0  0  0  0  0  0
  -21.5120   -4.6370   24.8900 C   0  0  0  0  0  0  0  0  0  0  0  0
  -21.9270   -4.0810   23.6680 C   0  0  0  0  0  3  0  0  0  0  0  0
  -22.0190   -4.8910   22.5230 C   0  0  0  0  0  0  0  0  0  0  0  0
  -22.3990   -4.3440   21.3430 F   0  0  0  0  0  0  0  0  0  0  0  0
  -21.4190   -3.8530   25.9910 F   0  0  0  0  0  0  0  0  0  0  0  0
  -22.8510  -13.6380   21.2460 C   0  0  0  0  0  0  0  0  0  0  0  0
  -22.1790  -12.9220   22.1390 N   0  0  0  0  0  0  0  0  0  0  0  0
  -22.3870  -14.6790   20.7850 O   0  0  0  0  0  0  0  0  0  0  0  0
  -22.5680  -12.0790   22.5350 H   0  0  0  0  0  0  0  0  0  0  0  0
  -21.2590  -13.2210   22.4320 H   0  0  0  0  0  0  0  0  0  0  0  0
  -25.4210  -15.3200   20.3040 N   0  0  0  0  0  0  0  0  0  0  0  0
  -24.6620  -15.9700   20.4810 H   0  0  0  0  0  0  0  0  0  0  0  0
  -26.2330  -15.7650   19.8970 H   0  0  0  0  0  0  0  0  0  0  0  0
  -28.2600  -24.4220   19.8130 C   0  0  0  0  0  2  0  0  0  0  0  0
  -28.2620  -25.9730   20.3270 O   0  0  0  0  0  0  0  0  0  0  0  0
  -24.6500  -31.8560   23.2370 C   0  0  0  0  0  0  0  0  0  0  0  0
  -27.2310  -27.0300   20.2070 C   0  0  0  0  0  0  0  0  0  0  0  0
  -23.4580  -30.4580   21.5960 C   0  0  0  0  0  3  0  0  0  0  0  0
  -24.9130  -28.8680   20.1660 C   0  0  0  0  0  0  0  0  0  0  0  0
  -26.0200  -30.6900   21.4460 C   0  0  0  0  0  2  0  0  0  0  0  0
  -26.0950  -29.2870   20.7880 C   0  0  0  0  0  0  0  0  0  0  0  0
  -27.2440  -28.3860   20.7900 C   0  0  0  0  0  3  0  0  0  0  0  0
  -26.0220  -26.7580   19.5250 C   0  0  0  0  0  3  0  0  0  0  0  0
  -24.8980  -27.6230   19.5170 C   0  0  0  0  0  3  0  0  0  0  0  0
  -23.6880  -29.7770   20.2180 C   0  0  0  0  0  2  0  0  0  0  0  0
  -24.7300  -31.0280   22.1470 N   0  0  0  0  0  0  0  0  0  0  0  0
  -23.5610  -32.1410   23.7600 O   0  0  0  0  0  0  0  0  0  0  0  0
  -22.7720  -29.4580   22.5610 C   0  0  0  0  0  0  0  0  0  0  0  0
  -21.4420  -29.2870   22.4330 N   0  0  0  0  0  0  0  0  0  0  0  0
  -23.4400  -28.8360   23.3900 O   0  0  0  0  0  0  0  0  0  0  0  0
  -20.9570  -29.8400   21.7400 H   0  0  0  0  0  0  0  0  0  0  0  0
  -18.0660  -28.0580   22.9290 C   0  0  0  0  0  0  0  0  0  0  0  0
  -20.6220  -28.3450   23.2020 C   0  0  0  0  0  3  0  0  0  0  0  0
  -20.7380  -26.9120   22.6330 C   0  0  0  0  0  2  0  0  0  0  0  0
  -19.6430  -26.5780   21.6150 C   0  0  0  0  0  2  0  0  0  0  0  0
  -18.2580  -26.7100   22.2530 C   0  0  0  0  0  2  0  0  0  0  0  0
  -19.1760  -28.8320   23.3600 C   0  0  0  0  0  0  0  0  0  0  0  0
  -18.9420  -30.0910   23.9560 C   0  0  0  0  0  3  0  0  0  0  0  0
  -17.6320  -30.5770   24.1200 C   0  0  0  0  0  3  0  0  0  0  0  0
  -16.5350  -29.8010   23.7020 C   0  0  0  0  0  3  0  0  0  0  0  0
  -16.7530  -28.5430   23.1140 C   0  0  0  0  0  3  0  0  0  0  0  0
  -25.9210  -32.4990   23.8700 C   0  0  0  0  0  3  0  0  0  0  0  0
  -26.4300  -31.7340   25.1550 C   0  0  1  0  0  0  0  0  0  0  0  0
  -25.3290  -31.4990   26.2170 C   0  0  0  0  0  1  0  0  0  0  0  0
  -27.0180  -30.3540   24.7800 C   0  0  0  0  0  1  0  0  0  0  0  0
  -27.5740  -32.5320   25.8220 C   0  0  0  0  0  1  0  0  0  0  0  0
  -25.6010  -33.8970   24.2070 N   0  0  0  0  0  0  0  0  0  0  0  0
  -25.9180  -34.9600   23.4570 C   0  0  0  0  0  0  0  0  0  0  0  0
  -26.5760  -34.8670   22.4170 O   0  0  0  0  0  0  0  0  0  0  0  0
  -25.0130  -34.0410   25.0150 H   0  0  0  0  0  0  0  0  0  0  0  0
  -24.1700  -36.7460   23.1520 C   0  0  0  0  0  1  0  0  0  0  0  0
  -25.4330  -36.3450   23.9320 C   0  0  0  0  0  3  0  0  0  0  0  0
  -27.5770  -37.2480   24.7200 C   0  0  0  0  0  1  0  0  0  0  0  0
  -26.4540  -37.4070   23.7980 N   0  0  0  0  0  0  0  0  0  0  0  0
  -26.0450  -38.3240   23.9530 H   0  0  0  0  0  0  0  0  0  0  0  0
  2  4  1  0
  2  1  1  0
  4  3  1  0
  5 14  1  0
  5  4  1  0
  6 14  1  0
  7 12  1  0
  8  9  1  0
  8  7  1  0
 10  9  1  0
 10 19  1  0
 10 11  1  0
 12  6  1  0
 12 11  1  0
 13  6  2  0
 14 15  1  0
 16 17  2  0
 17 36  1  0
 18 17  1  0
 18 21  1  0
 19 20  1  0
 19 16  1  0
 20 18  2  0
 21 22  1  0
 22 23  2  0
 24 27  1  0
 24 23  1  0
 25 24  2  0
 26 25  1  0
 26 21  2  0
 27 28  1  0
 28 29  1  0
 29 30  2  0
 31 30  1  0
 31 35  1  0
 32 31  2  0
 33 28  2  0
 33 32  1  0
 34 33  1  0
 36 37  1  0
 37 40  1  0
 37 39  1  0
 38 36  2  0
 41 16  1  0
 41 42  1  0
 43 41  1  0
 44 45  1  0
 44  1  1  0
 46 57  2  0
 47 45  1  0
 47 52  1  0
 48 56  1  0
 48 58  1  0
 49 55  1  0
 49 51  1  0
 50 56  1  0
 51 52  2  0
 51 50  1  0
 53 47  2  0
 54 53  1  0
 54 49  2  0
 55 48  1  0
 56 46  1  0
 58 60  2  0
 59 58  1  0
 61 59  1  0
 62 71  2  0
 62 67  1  0
 63 59  1  0
 63 67  1  0
 64 63  1  0
 65 66  1  0
 65 64  1  0
 66 62  1  0
 67 68  2  0
 68 69  1  0
 70 69  2  0
 71 70  1  0
 72 46  1  0
 72 77  1  0
 72 73  1  0
 73 76  1  1
 73 74  1  0
 75 73  1  0
 77 80  1  0
 78 82  1  0
 78 77  1  0
 79 78  2  0
 82 81  1  0
 84 82  1  0
 84 85  1  0
 84 83  1  0
M  ISO  4   6 100  14 100  44 101  45 101
M  END
>  <TORSDO>  (44) 
F 20

>  <SCORE>  (44) 
-15.337

>  <name>  (44) 
44

>  <ligand_id>  (44) 
44

>  <original_smiles>  (44) 
[H]c1c([H])c([H])c2c(c1[H])C([H])([H])C([H])([H])C([H])([H])C2([H])N([H])C(=O)C1([H])N(C(=O)C([H])(N([H])C(=O)C([H])(N([H])C([H])([H])[H])C([H])([H])[H])C(C([H])([H])[H])(C([H])([H])[H])C([H])([H])[H])C([H])([H])c2c([H])c(OC([H])([H])C([H])([H])C([H])([H])C([H])(C([H])([H])[H])C([H])([H])N([H])C(=O)N3C([H])([H])C([H])([H])C([H])([H])C([H])(n4nc(-c5c([H])c([H])c(Oc6c([H])c([H])c(F)c([H])c6F)c([H])c5[H])c(C(=O)N([H])[H])c4N([H])[H])C3([H])[H])c([H])c([H])c2C1([H])[H]

>  <smiles>  (44) 
[H]c1c([H])c([H])c2c(c1[H])C([H])([H])C([H])([H])C([H])([H])C2([H])N([H])C(=O)C1([H])N(C(=O)C([H])(N([H])C(=O)C([H])(N([H])C([H])([H])[H])C([H])([H])[H])C(C([H])([H])[H])(C([H])([H])[H])C([H])([H])[H])C([H])([H])c2c([H])c(OC([H])([H])C([H])([H])C([H])([H])C([H])(C([H])([H])[H])C([H])([H])N([H])C(=O)N3C([H])([H])C([H])([H])C([H])([H])C([H])(n4nc(-c5c([H])c([H])c(Oc6c([H])c([H])c(F)c([H])c6F)c([H])c5[H])c(C(=O)N([H])[H])c4N([H])[H])C3([H])[H])c([H])c([H])c2C1([H])[H]

$$$$
45:0:0
     RDKit          3D

 94102  0  0  1  0  0  0  0  0999 V2000
  -30.0050  -20.3940   21.1170 C   0  0  0  0  0  3  0  0  0  0  0  0
  -31.4260  -22.2080   20.4060 C   0  0  0  0  0  3  0  0  0  0  0  0
  -30.1380  -21.7630   20.7460 C   0  0  0  0  0  0  0  0  0  0  0  0
  -31.1420  -19.5300   21.1430 C   0  0  0  0  0  0  0  0  0  0  0  0
  -32.3870  -20.1070   20.7540 C   0  0  0  0  0  0  0  0  0  0  0  0
  -32.5040  -21.4080   20.4040 N   0  0  0  0  0  0  0  0  0  0  0  0
  -34.7480  -20.0540   21.6600 C   0  0  0  0  0  1  0  0  0  0  0  0
  -34.2850  -19.1910   19.2910 C   0  0  0  0  0  1  0  0  0  0  0  0
  -33.7320  -19.3640   20.7240 C   0  0  0  0  0  3  0  0  0  0  0  0
  -29.9020  -17.7930   22.6080 C   0  0  0  0  0  1  0  0  0  0  0  0
  -31.0230  -18.0380   21.5770 C   0  0  0  0  0  3  0  0  0  0  0  0
  -30.9770  -17.0670   20.3530 C   0  0  0  0  0  2  0  0  0  0  0  0
  -31.0640  -14.5870   20.0130 C   0  0  0  0  0  0  0  0  0  0  0  0
  -30.6610  -12.3870   18.9690 C   0  0  0  0  0  2  0  0  0  0  0  0
  -29.7130  -12.5530   17.7680 C   0  0  0  0  0  2  0  0  0  0  0  0
  -28.2410  -12.4500   18.2150 C   0  0  0  0  0  2  0  0  0  0  0  0
  -27.9290  -13.3290   19.4620 C   0  0  0  0  0  3  0  0  0  0  0  0
  -29.0100  -13.1830   20.5600 C   0  0  0  0  0  2  0  0  0  0  0  0
  -30.3290  -13.4350   19.9550 N   0  0  0  0  0  0  0  0  0  0  0  0
  -32.1460  -14.6920   19.4350 O   0  0  0  0  0  0  0  0  0  0  0  0
  -30.5150  -15.6740   20.6030 N   0  0  0  0  0  0  0  0  0  0  0  0
  -29.6300  -15.5550   21.0700 H   0  0  0  0  0  0  0  0  0  0  0  0
  -25.5590  -13.9710   20.2400 C   0  0  0  0  0  0  0  0  0  0  0  0
  -24.4890  -13.2190   20.6480 C   0  0  0  0  0  0  0  0  0  0  0  0
  -24.9310  -11.8610   20.6210 C   0  0  0  0  0  0  0  0  0  0  0  0
  -26.5830  -13.0730   19.9830 N   0  0  0  0  0  0  0  0  0  0  0  0
  -26.2090  -11.7970   20.2670 N   0  0  0  0  0  0  0  0  0  0  0  0
  -24.1900  -10.6110   20.8530 C   0  0  0  0  0  0  0  0  0  0  0  0
  -24.6000   -9.6770   21.8310 C   0  0  0  0  0  3  0  0  0  0  0  0
  -23.8590   -8.4940   22.0510 C   0  0  0  0  0  3  0  0  0  0  0  0
  -22.6930   -8.2360   21.2900 C   0  0  0  0  0  0  0  0  0  0  0  0
  -22.2970   -9.1600   20.3060 C   0  0  0  0  0  3  0  0  0  0  0  0
  -23.0400  -10.3340   20.0860 C   0  0  0  0  0  3  0  0  0  0  0  0
  -21.9280   -7.1020   21.4140 O   0  0  0  0  0  0  0  0  0  0  0  0
  -21.8090   -6.4400   22.6090 C   0  0  0  0  0  0  0  0  0  0  0  0
  -21.3210   -7.0790   23.7700 C   0  0  0  0  0  3  0  0  0  0  0  0
  -21.1460   -6.3440   24.9580 C   0  0  0  0  0  3  0  0  0  0  0  0
  -21.4510   -4.9690   24.9890 C   0  0  0  0  0  0  0  0  0  0  0  0
  -21.9310   -4.3290   23.8320 C   0  0  0  0  0  3  0  0  0  0  0  0
  -22.1060   -5.0620   22.6440 C   0  0  0  0  0  0  0  0  0  0  0  0
  -22.5470   -4.4340   21.5280 F   0  0  0  0  0  0  0  0  0  0  0  0
  -21.2770   -4.2600   26.1290 F   0  0  0  0  0  0  0  0  0  0  0  0
  -23.1080  -13.7240   20.9560 C   0  0  0  0  0  0  0  0  0  0  0  0
  -22.3970  -13.0610   21.8610 N   0  0  0  0  0  0  0  0  0  0  0  0
  -22.6670  -14.7420   20.4270 O   0  0  0  0  0  0  0  0  0  0  0  0
  -22.7620  -12.2390   22.3160 H   0  0  0  0  0  0  0  0  0  0  0  0
  -21.4690  -13.3820   22.0950 H   0  0  0  0  0  0  0  0  0  0  0  0
  -25.7470  -15.3370   20.0510 N   0  0  0  0  0  0  0  0  0  0  0  0
  -25.0160  -16.0200   20.2160 H   0  0  0  0  0  0  0  0  0  0  0  0
  -26.6180  -15.7580   19.7500 H   0  0  0  0  0  0  0  0  0  0  0  0
  -28.9150  -22.7120   20.6650 C   0  0  0  0  0  2  0  0  0  0  0  0
  -29.1700  -24.2650   20.5820 C   0  0  0  0  0  2  0  0  0  0  0  0
  -27.9380  -25.0990   20.1130 C   0  0  0  0  0  2  0  0  0  0  0  0
  -28.1160  -26.5480   20.1320 O   0  0  0  0  0  0  0  0  0  0  0  0
  -24.5020  -31.9270   23.1890 C   0  0  0  0  0  0  0  0  0  0  0  0
  -26.9720  -27.3440   20.0990 C   0  0  0  0  0  0  0  0  0  0  0  0
  -23.2330  -30.5180   21.6130 C   0  0  0  0  0  3  0  0  0  0  0  0
  -24.6150  -28.9400   20.1560 C   0  0  0  0  0  0  0  0  0  0  0  0
  -25.7620  -30.8210   21.3310 C   0  0  0  0  0  2  0  0  0  0  0  0
  -25.8050  -29.4340   20.7100 C   0  0  0  0  0  0  0  0  0  0  0  0
  -26.9830  -28.6410   20.6820 C   0  0  0  0  0  3  0  0  0  0  0  0
  -25.7650  -26.8950   19.5130 C   0  0  0  0  0  3  0  0  0  0  0  0
  -24.5960  -27.6730   19.5520 C   0  0  0  0  0  3  0  0  0  0  0  0
  -23.3860  -29.8180   20.2370 C   0  0  0  0  0  2  0  0  0  0  0  0
  -24.5230  -31.1040   22.1020 N   0  0  0  0  0  0  0  0  0  0  0  0
  -23.4410  -32.2220   23.7540 O   0  0  0  0  0  0  0  0  0  0  0  0
  -22.5960  -29.5200   22.6080 C   0  0  0  0  0  0  0  0  0  0  0  0
  -21.2810  -29.2930   22.4670 N   0  0  0  0  0  0  0  0  0  0  0  0
  -23.2840  -28.9500   23.4580 O   0  0  0  0  0  0  0  0  0  0  0  0
  -20.7900  -29.8000   21.7430 H   0  0  0  0  0  0  0  0  0  0  0  0
  -17.9550  -27.9330   22.8910 C   0  0  0  0  0  0  0  0  0  0  0  0
  -20.4780  -28.3650   23.2630 C   0  0  0  0  0  3  0  0  0  0  0  0
  -20.6940  -26.9060   22.7990 C   0  0  0  0  0  2  0  0  0  0  0  0
  -19.6650  -26.4450   21.7620 C   0  0  0  0  0  2  0  0  0  0  0  0
  -18.2450  -26.5520   22.3250 C   0  0  0  0  0  2  0  0  0  0  0  0
  -19.0050  -28.7900   23.3170 C   0  0  0  0  0  0  0  0  0  0  0  0
  -18.6860  -30.0770   23.8030 C   0  0  0  0  0  3  0  0  0  0  0  0
  -17.3490  -30.5090   23.8750 C   0  0  0  0  0  3  0  0  0  0  0  0
  -16.3130  -29.6530   23.4680 C   0  0  0  0  0  3  0  0  0  0  0  0
  -16.6150  -28.3690   22.9800 C   0  0  0  0  0  3  0  0  0  0  0  0
  -25.8130  -32.5540   23.7610 C   0  0  0  0  0  3  0  0  0  0  0  0
  -25.5140  -33.9460   24.1200 N   0  0  0  0  0  0  0  0  0  0  0  0
  -25.8570  -35.0130   23.3860 C   0  0  0  0  0  0  0  0  0  0  0  0
  -26.5310  -34.9260   22.3570 O   0  0  0  0  0  0  0  0  0  0  0  0
  -24.9080  -34.0890   24.9150 H   0  0  0  0  0  0  0  0  0  0  0  0
  -24.1570  -36.8400   23.0610 C   0  0  0  0  0  1  0  0  0  0  0  0
  -25.3830  -36.3940   23.8720 C   0  0  0  0  0  3  0  0  0  0  0  0
  -27.5230  -37.2280   24.7470 C   0  0  0  0  0  1  0  0  0  0  0  0
  -26.4330  -37.4360   23.7960 N   0  0  0  0  0  0  0  0  0  0  0  0
  -26.0380  -38.3570   23.9690 H   0  0  0  0  0  0  0  0  0  0  0  0
  -26.3830  -31.7690   25.0060 C   0  0  1  0  0  0  0  0  0  0  0  0
  -25.3310  -31.5110   26.1120 C   0  0  0  0  0  1  0  0  0  0  0  0
  -26.9560  -30.4010   24.5680 C   0  0  0  0  0  1  0  0  0  0  0  0
  -27.5530  -32.5640   25.6310 C   0  0  0  0  0  1  0  0  0  0  0  0
  1  4  1  0
  2  3  1  0
  3  1  2  0
  4 11  1  0
  5  4  2  0
  6  2  2  0
  6  5  1  0
  8  9  1  0
  9  5  1  0
  9  7  1  0
 11 10  1  0
 12 21  1  0
 12 11  1  0
 13 21  1  0
 14 19  1  0
 15 16  1  0
 15 14  1  0
 17 16  1  0
 17 26  1  0
 17 18  1  0
 19 13  1  0
 19 18  1  0
 20 13  2  0
 21 22  1  0
 23 24  2  0
 24 43  1  0
 25 24  1  0
 25 28  1  0
 26 23  1  0
 26 27  1  0
 27 25  2  0
 28 29  1  0
 29 30  2  0
 31 34  1  0
 31 30  1  0
 32 31  2  0
 33 32  1  0
 33 28  2  0
 34 35  1  0
 35 40  2  0
 35 36  1  0
 36 37  2  0
 37 38  1  0
 38 42  1  0
 39 38  2  0
 40 39  1  0
 41 40  1  0
 43 44  1  0
 44 47  1  0
 44 46  1  0
 45 43  2  0
 48 49  1  0
 48 23  1  0
 50 48  1  0
 51  3  1  0
 52 51  1  0
 53 54  1  0
 53 52  1  0
 55 66  2  0
 56 54  1  0
 56 61  1  0
 57 65  1  0
 57 67  1  0
 58 64  1  0
 58 60  1  0
 59 65  1  0
 60 59  1  0
 61 60  2  0
 62 63  1  0
 62 56  2  0
 63 58  2  0
 64 57  1  0
 65 55  1  0
 67 69  2  0
 68 67  1  0
 70 68  1  0
 71 80  2  0
 71 76  1  0
 72 68  1  0
 72 76  1  0
 73 72  1  0
 74 75  1  0
 74 73  1  0
 75 71  1  0
 76 77  2  0
 77 78  1  0
 79 78  2  0
 80 79  1  0
 81 55  1  0
 81 82  1  0
 81 91  1  0
 82 85  1  0
 83 87  1  0
 83 82  1  0
 84 83  2  0
 87 86  1  0
 89 87  1  0
 89 90  1  0
 89 88  1  0
 91 94  1  1
 91 92  1  0
 93 91  1  0
M  ISO  4  13 100  21 100  53 101  54 101
M  END
>  <TORSDO>  (45) 
F 22

>  <SCORE>  (45) 
-12.440

>  <name>  (45) 
45

>  <ligand_id>  (45) 
45

>  <original_smiles>  (45) 
[H]c1nc(C([H])(C([H])([H])[H])C([H])([H])[H])c(C([H])(C([H])([H])[H])C([H])([H])N([H])C(=O)N2C([H])([H])C([H])([H])C([H])([H])C([H])(n3nc(-c4c([H])c([H])c(Oc5c([H])c([H])c(F)c([H])c5F)c([H])c4[H])c(C(=O)N([H])[H])c3N([H])[H])C2([H])[H])c([H])c1C([H])([H])C([H])([H])C([H])([H])Oc1c([H])c([H])c2c(c1[H])C([H])([H])N(C(=O)C([H])(N([H])C(=O)C([H])(N([H])C([H])([H])[H])C([H])([H])[H])C(C([H])([H])[H])(C([H])([H])[H])C([H])([H])[H])C([H])(C(=O)N([H])C1([H])c3c([H])c([H])c([H])c([H])c3C([H])([H])C([H])([H])C1([H])[H])C2([H])[H]

>  <smiles>  (45) 
[H]c1nc(C([H])(C([H])([H])[H])C([H])([H])[H])c(C([H])(C([H])([H])[H])C([H])([H])N([H])C(=O)N2C([H])([H])C([H])([H])C([H])([H])C([H])(n3nc(-c4c([H])c([H])c(Oc5c([H])c([H])c(F)c([H])c5F)c([H])c4[H])c(C(=O)N([H])[H])c3N([H])[H])C2([H])[H])c([H])c1C([H])([H])C([H])([H])C([H])([H])Oc1c([H])c([H])c2c(c1[H])C([H])([H])N(C(=O)C([H])(N([H])C(=O)C([H])(N([H])C([H])([H])[H])C([H])([H])[H])C(C([H])([H])[H])(C([H])([H])[H])C([H])([H])[H])C([H])(C(=O)N([H])C1([H])c3c([H])c([H])c([H])c([H])c3C([H])([H])C([H])([H])C1([H])[H])C2([H])[H]

$$$$
46:0:0
     RDKit          3D

 95103  0  0  1  0  0  0  0  0999 V2000
  -26.5170  -24.5020   20.7200 C   0  0  0  0  0  2  0  0  0  0  0  0
  -25.7110  -23.4830   20.1770 C   0  0  0  0  0  0  0  0  0  0  0  0
  -27.8380  -24.2250   20.5710 C   0  0  0  0  0  3  0  0  0  0  0  0
  -26.5900  -22.5320   19.7040 C   0  0  0  0  0  0  0  0  0  0  0  0
  -26.2600  -21.3620   18.8230 C   0  0  0  0  0  1  0  0  0  0  0  0
  -27.8960  -22.8110   20.1890 N   0  0  0  0  0  0  0  0  0  0  0  0
  -23.6630  -23.6460   21.6430 C   0  0  0  0  0  1  0  0  0  0  0  0
  -23.3950  -22.5710   19.3880 C   0  0  0  0  0  1  0  0  0  0  0  0
  -24.1850  -23.6130   20.1930 C   0  0  0  0  0  3  0  0  0  0  0  0
  -30.2860  -24.9930   20.4240 C   0  0  0  0  0  1  0  0  0  0  0  0
  -28.9020  -25.2890   21.0150 C   0  0  0  0  0  3  0  0  0  0  0  0
  -28.7050  -26.7600   20.6690 O   0  0  0  0  0  0  0  0  0  0  0  0
  -24.8520  -32.1840   23.6870 C   0  0  0  0  0  0  0  0  0  0  0  0
  -27.5590  -27.5850   20.7390 C   0  0  0  0  0  0  0  0  0  0  0  0
  -23.7150  -30.8150   21.9740 C   0  0  0  0  0  3  0  0  0  0  0  0
  -25.2190  -29.2510   20.6080 C   0  0  0  0  0  0  0  0  0  0  0  0
  -26.2660  -31.1010   21.9150 C   0  0  0  0  0  2  0  0  0  0  0  0
  -26.3620  -29.7160   21.2760 C   0  0  0  0  0  0  0  0  0  0  0  0
  -27.5340  -28.8950   21.3280 C   0  0  0  0  0  3  0  0  0  0  0  0
  -26.4130  -27.2070   20.0090 C   0  0  0  0  0  3  0  0  0  0  0  0
  -25.2480  -28.0000   19.9700 C   0  0  0  0  0  3  0  0  0  0  0  0
  -23.9920  -30.1450   20.6010 C   0  0  0  0  0  2  0  0  0  0  0  0
  -24.9620  -31.3880   22.5830 N   0  0  0  0  0  0  0  0  0  0  0  0
  -23.7470  -32.4660   24.1710 O   0  0  0  0  0  0  0  0  0  0  0  0
  -23.0010  -29.7960   22.8950 C   0  0  0  0  0  0  0  0  0  0  0  0
  -21.6900  -29.5880   22.6710 N   0  0  0  0  0  0  0  0  0  0  0  0
  -23.6260  -29.1940   23.7730 O   0  0  0  0  0  0  0  0  0  0  0  0
  -21.2440  -30.1320   21.9440 H   0  0  0  0  0  0  0  0  0  0  0  0
  -18.3070  -28.3330   22.9300 C   0  0  0  0  0  0  0  0  0  0  0  0
  -20.8370  -28.6340   23.3820 C   0  0  0  0  0  3  0  0  0  0  0  0
  -21.0010  -27.2020   22.8190 C   0  0  0  0  0  2  0  0  0  0  0  0
  -19.9790  -26.8630   21.7310 C   0  0  0  0  0  2  0  0  0  0  0  0
  -18.5520  -26.9860   22.2730 C   0  0  0  0  0  2  0  0  0  0  0  0
  -19.3800  -29.1130   23.4390 C   0  0  0  0  0  0  0  0  0  0  0  0
  -19.1000  -30.3750   24.0080 C   0  0  0  0  0  3  0  0  0  0  0  0
  -17.7780  -30.8550   24.0780 C   0  0  0  0  0  3  0  0  0  0  0  0
  -16.7180  -30.0700   23.5900 C   0  0  0  0  0  3  0  0  0  0  0  0
  -16.9840  -28.8120   23.0220 C   0  0  0  0  0  3  0  0  0  0  0  0
  -26.1060  -32.8000   24.3800 C   0  0  0  0  0  3  0  0  0  0  0  0
  -25.8220  -34.2170   24.6450 N   0  0  0  0  0  0  0  0  0  0  0  0
  -26.2180  -35.2320   23.8630 C   0  0  0  0  0  0  0  0  0  0  0  0
  -26.9310  -35.0710   22.8690 O   0  0  0  0  0  0  0  0  0  0  0  0
  -25.1890  -34.4210   25.4030 H   0  0  0  0  0  0  0  0  0  0  0  0
  -24.5490  -37.0500   23.3830 C   0  0  0  0  0  1  0  0  0  0  0  0
  -25.7540  -36.6510   24.2470 C   0  0  0  0  0  3  0  0  0  0  0  0
  -27.8880  -37.5190   25.0980 C   0  0  0  0  0  1  0  0  0  0  0  0
  -26.8160  -37.6720   24.1180 N   0  0  0  0  0  0  0  0  0  0  0  0
  -26.4320  -38.6090   24.2100 H   0  0  0  0  0  0  0  0  0  0  0  0
  -26.5040  -32.0560   25.7160 C   0  0  1  0  0  0  0  0  0  0  0  0
  -25.3190  -31.8490   26.6880 C   0  0  0  0  0  1  0  0  0  0  0  0
  -27.1130  -30.6670   25.4100 C   0  0  0  0  0  1  0  0  0  0  0  0
  -27.5980  -32.8620   26.4540 C   0  0  0  0  0  1  0  0  0  0  0  0
  -29.0540  -21.7770   20.2490 C   0  0  0  0  0  2  0  0  0  0  0  0
  -28.8020  -20.1430   20.1710 C   0  0  0  0  0  2  0  0  0  0  0  0
  -31.1750  -19.4080   21.0270 C   0  0  0  0  0  1  0  0  0  0  0  0
  -29.7350  -18.9370   20.7720 C   0  0  0  0  0  3  0  0  0  0  0  0
  -29.7810  -17.5030   19.9930 C   0  0  0  0  0  2  0  0  0  0  0  0
  -30.7040  -15.0540   20.4450 C   0  0  0  0  0  0  0  0  0  0  0  0
  -30.6110  -12.7370   19.5020 C   0  0  0  0  0  2  0  0  0  0  0  0
  -29.7000  -12.7590   18.2550 C   0  0  0  0  0  2  0  0  0  0  0  0
  -28.2250  -12.5690   18.6530 C   0  0  0  0  0  2  0  0  0  0  0  0
  -27.8090  -13.4770   19.8440 C   0  0  0  0  0  3  0  0  0  0  0  0
  -28.8400  -13.4200   20.9920 C   0  0  0  0  0  2  0  0  0  0  0  0
  -30.1460  -13.7950   20.4340 N   0  0  0  0  0  0  0  0  0  0  0  0
  -31.8620  -15.2120   20.0430 O   0  0  0  0  0  0  0  0  0  0  0  0
  -29.8780  -16.1410   20.7010 N   0  0  0  0  0  0  0  0  0  0  0  0
  -29.0290  -15.8790   21.1760 H   0  0  0  0  0  0  0  0  0  0  0  0
  -25.4190  -14.0520   20.5720 C   0  0  0  0  0  0  0  0  0  0  0  0
  -24.3400  -13.2680   20.8960 C   0  0  0  0  0  0  0  0  0  0  0  0
  -24.7920  -11.9180   20.8010 C   0  0  0  0  0  0  0  0  0  0  0  0
  -26.4600  -13.1760   20.3090 N   0  0  0  0  0  0  0  0  0  0  0  0
  -26.0860  -11.8840   20.5000 N   0  0  0  0  0  0  0  0  0  0  0  0
  -24.0540  -10.6530   20.9250 C   0  0  0  0  0  0  0  0  0  0  0  0
  -24.4390   -9.6610   21.8530 C   0  0  0  0  0  3  0  0  0  0  0  0
  -23.7010   -8.4630   21.9650 C   0  0  0  0  0  3  0  0  0  0  0  0
  -22.5660   -8.2490   21.1480 C   0  0  0  0  0  0  0  0  0  0  0  0
  -22.2010   -9.2300   20.2090 C   0  0  0  0  0  3  0  0  0  0  0  0
  -22.9390  -10.4200   20.0960 C   0  0  0  0  0  3  0  0  0  0  0  0
  -21.8050   -7.1040   21.1700 O   0  0  0  0  0  0  0  0  0  0  0  0
  -21.6560   -6.3600   22.3120 C   0  0  0  0  0  0  0  0  0  0  0  0
  -21.1180   -6.9100   23.4950 C   0  0  0  0  0  3  0  0  0  0  0  0
  -20.9200   -6.0920   24.6250 C   0  0  0  0  0  3  0  0  0  0  0  0
  -21.2520   -4.7250   24.5730 C   0  0  0  0  0  0  0  0  0  0  0  0
  -21.7810   -4.1730   23.3930 C   0  0  0  0  0  3  0  0  0  0  0  0
  -21.9800   -4.9880   22.2650 C   0  0  0  0  0  0  0  0  0  0  0  0
  -22.4720   -4.4490   21.1240 F   0  0  0  0  0  0  0  0  0  0  0  0
  -21.0540   -3.9360   25.6540 F   0  0  0  0  0  0  0  0  0  0  0  0
  -22.9460  -13.7470   21.1770 C   0  0  0  0  0  0  0  0  0  0  0  0
  -22.2140  -13.0220   22.0180 N   0  0  0  0  0  0  0  0  0  0  0  0
  -22.5170  -14.7900   20.6880 O   0  0  0  0  0  0  0  0  0  0  0  0
  -22.5770  -12.1780   22.4380 H   0  0  0  0  0  0  0  0  0  0  0  0
  -21.2740  -13.3160   22.2440 H   0  0  0  0  0  0  0  0  0  0  0  0
  -25.6000  -15.4260   20.4560 N   0  0  0  0  0  0  0  0  0  0  0  0
  -24.8450  -16.0910   20.5820 H   0  0  0  0  0  0  0  0  0  0  0  0
  -26.4540  -15.8570   20.1280 H   0  0  0  0  0  0  0  0  0  0  0  0
  2  9  1  0
  2  1  1  0
  3  1  1  0
  3 11  1  0
  4  2  2  0
  4  6  1  0
  5  4  1  0
  6 53  1  0
  6  3  1  0
  8  9  1  0
  9  7  1  0
 11 10  1  0
 12 14  1  0
 12 11  1  0
 13 24  2  0
 14 19  1  0
 15 23  1  0
 15 25  1  0
 16 18  1  0
 17 23  1  0
 18 19  2  0
 18 17  1  0
 20 14  2  0
 21 20  1  0
 21 16  2  0
 22 16  1  0
 22 15  1  0
 23 13  1  0
 25 27  2  0
 26 25  1  0
 28 26  1  0
 29 38  2  0
 29 34  1  0
 30 26  1  0
 30 34  1  0
 31 30  1  0
 32 33  1  0
 32 31  1  0
 33 29  1  0
 34 35  2  0
 35 36  1  0
 37 36  2  0
 38 37  1  0
 39 13  1  0
 39 40  1  0
 39 49  1  0
 40 43  1  0
 41 45  1  0
 41 40  1  0
 42 41  2  0
 45 44  1  0
 47 48  1  0
 47 45  1  0
 47 46  1  0
 49 52  1  1
 49 50  1  0
 51 49  1  0
 54 53  1  0
 54 56  1  0
 56 55  1  0
 57 66  1  0
 57 56  1  0
 58 66  1  0
 59 64  1  0
 60 61  1  0
 60 59  1  0
 62 61  1  0
 62 71  1  0
 62 63  1  0
 64 58  1  0
 64 63  1  0
 65 58  2  0
 66 67  1  0
 68 69  2  0
 69 88  1  0
 70 69  1  0
 70 73  1  0
 71 72  1  0
 71 68  1  0
 72 70  2  0
 73 74  1  0
 74 75  2  0
 76 79  1  0
 76 75  1  0
 77 76  2  0
 78 77  1  0
 78 73  2  0
 79 80  1  0
 80 81  1  0
 81 82  2  0
 83 82  1  0
 83 87  1  0
 84 83  2  0
 85 80  2  0
 85 84  1  0
 86 85  1  0
 88 89  1  0
 89 92  1  0
 89 91  1  0
 90 88  2  0
 93 68  1  0
 93 94  1  0
 95 93  1  0
M  ISO  4  11 101  12 101  58 100  66 100
M  END
>  <TORSDO>  (46) 
F 22

>  <SCORE>  (46) 
-12.021

>  <name>  (46) 
46

>  <ligand_id>  (46) 
46

>  <original_smiles>  (46) 
[H]c1c([H])c([H])c2c(c1[H])C([H])([H])C([H])([H])C([H])([H])C2([H])N([H])C(=O)C1([H])N(C(=O)C([H])(N([H])C(=O)C([H])(N([H])C([H])([H])[H])C([H])([H])[H])C(C([H])([H])[H])(C([H])([H])[H])C([H])([H])[H])C([H])([H])c2c([H])c(OC([H])(c3c([H])c(C([H])(C([H])([H])[H])C([H])([H])[H])c(C([H])([H])[H])n3C([H])([H])C([H])([H])C([H])(C([H])([H])[H])C([H])([H])N([H])C(=O)N3C([H])([H])C([H])([H])C([H])([H])C([H])(n4nc(-c5c([H])c([H])c(Oc6c([H])c([H])c(F)c([H])c6F)c([H])c5[H])c(C(=O)N([H])[H])c4N([H])[H])C3([H])[H])C([H])([H])[H])c([H])c([H])c2C1([H])[H]

>  <smiles>  (46) 
[H]c1c([H])c([H])c2c(c1[H])C([H])([H])C([H])([H])C([H])([H])C2([H])N([H])C(=O)C1([H])N(C(=O)C([H])(N([H])C(=O)C([H])(N([H])C([H])([H])[H])C([H])([H])[H])C(C([H])([H])[H])(C([H])([H])[H])C([H])([H])[H])C([H])([H])c2c([H])c(OC([H])(c3c([H])c(C([H])(C([H])([H])[H])C([H])([H])[H])c(C([H])([H])[H])n3C([H])([H])C([H])([H])C([H])(C([H])([H])[H])C([H])([H])N([H])C(=O)N3C([H])([H])C([H])([H])C([H])([H])C([H])(n4nc(-c5c([H])c([H])c(Oc6c([H])c([H])c(F)c([H])c6F)c([H])c5[H])c(C(=O)N([H])[H])c4N([H])[H])C3([H])[H])C([H])([H])[H])c([H])c([H])c2C1([H])[H]

$$$$
47:0:0
     RDKit          3D

 92100  0  0  1  0  0  0  0  0999 V2000
  -29.9910  -21.1860   20.3100 C   0  0  0  0  0  3  0  0  0  0  0  0
  -30.3080  -18.6480   20.9720 C   0  0  0  0  0  3  0  0  0  0  0  0
  -29.8460  -17.3920   20.5620 C   0  0  0  0  0  0  0  0  0  0  0  0
  -28.8960  -19.0500   19.3260 C   0  0  0  0  0  3  0  0  0  0  0  0
  -29.6980  -19.6660   20.2250 N   0  0  0  0  0  0  0  0  0  0  0  0
  -29.0070  -17.7180   19.5200 N   0  0  0  0  0  0  0  0  0  0  0  0
  -28.4940  -17.0480   18.9600 H   0  0  0  0  0  0  0  0  0  0  0  0
  -26.8460  -18.7670   17.8440 C   0  0  0  0  0  1  0  0  0  0  0  0
  -28.8750  -20.0630   17.0260 C   0  0  0  0  0  1  0  0  0  0  0  0
  -28.0380  -19.6570   18.2470 C   0  0  0  0  0  3  0  0  0  0  0  0
  -29.9350  -15.9480   21.1700 C   0  0  0  0  0  2  0  0  0  0  0  0
  -30.6510  -14.7120   20.4590 C   0  0  0  0  0  0  0  0  0  0  0  0
  -30.4430  -12.4920   19.3160 C   0  0  0  0  0  2  0  0  0  0  0  0
  -29.5020  -12.6230   18.0980 C   0  0  0  0  0  2  0  0  0  0  0  0
  -28.0230  -12.4810   18.5140 C   0  0  0  0  0  2  0  0  0  0  0  0
  -27.6660  -13.3230   19.7680 C   0  0  0  0  0  3  0  0  0  0  0  0
  -28.7160  -13.1140   20.8800 C   0  0  0  0  0  2  0  0  0  0  0  0
  -30.0280  -13.4910   20.3260 N   0  0  0  0  0  0  0  0  0  0  0  0
  -31.7840  -14.8730   19.9940 O   0  0  0  0  0  0  0  0  0  0  0  0
  -25.2620  -13.9380   20.4400 C   0  0  0  0  0  0  0  0  0  0  0  0
  -24.1860  -13.1740   20.7950 C   0  0  0  0  0  0  0  0  0  0  0  0
  -24.6450  -11.8210   20.7910 C   0  0  0  0  0  0  0  0  0  0  0  0
  -26.3090  -13.0500   20.2340 N   0  0  0  0  0  0  0  0  0  0  0  0
  -25.9410  -11.7720   20.5060 N   0  0  0  0  0  0  0  0  0  0  0  0
  -23.9120  -10.5640   20.9890 C   0  0  0  0  0  0  0  0  0  0  0  0
  -24.3290   -9.6110   21.9430 C   0  0  0  0  0  3  0  0  0  0  0  0
  -23.5980   -8.4170   22.1270 C   0  0  0  0  0  3  0  0  0  0  0  0
  -22.4380   -8.1690   21.3530 C   0  0  0  0  0  0  0  0  0  0  0  0
  -22.0410   -9.1130   20.3890 C   0  0  0  0  0  3  0  0  0  0  0  0
  -22.7710  -10.2980   20.2040 C   0  0  0  0  0  3  0  0  0  0  0  0
  -21.6800   -7.0280   21.4440 O   0  0  0  0  0  0  0  0  0  0  0  0
  -21.6080   -6.3020   22.6060 C   0  0  0  0  0  0  0  0  0  0  0  0
  -21.1590   -6.8770   23.8170 C   0  0  0  0  0  3  0  0  0  0  0  0
  -21.0320   -6.0770   24.9710 C   0  0  0  0  0  3  0  0  0  0  0  0
  -21.3440   -4.7060   24.9170 C   0  0  0  0  0  0  0  0  0  0  0  0
  -21.7870   -4.1320   23.7120 C   0  0  0  0  0  3  0  0  0  0  0  0
  -21.9150   -4.9280   22.5590 C   0  0  0  0  0  0  0  0  0  0  0  0
  -22.3200   -4.3650   21.3970 F   0  0  0  0  0  0  0  0  0  0  0  0
  -21.2170   -3.9360   26.0230 F   0  0  0  0  0  0  0  0  0  0  0  0
  -22.7860  -13.6620   21.0380 C   0  0  0  0  0  0  0  0  0  0  0  0
  -22.0380  -12.9820   21.8990 N   0  0  0  0  0  0  0  0  0  0  0  0
  -22.3610  -14.6800   20.4950 O   0  0  0  0  0  0  0  0  0  0  0  0
  -22.3910  -12.1590   22.3650 H   0  0  0  0  0  0  0  0  0  0  0  0
  -21.0990  -13.2920   22.1000 H   0  0  0  0  0  0  0  0  0  0  0  0
  -25.4350  -15.3070   20.2560 N   0  0  0  0  0  0  0  0  0  0  0  0
  -24.6740  -15.9660   20.3830 H   0  0  0  0  0  0  0  0  0  0  0  0
  -26.3020  -15.7510   19.9990 H   0  0  0  0  0  0  0  0  0  0  0  0
  -28.8390  -22.3200   20.3370 C   0  0  0  0  0  3  0  0  0  0  0  0
  -29.2200  -23.8850   20.4970 C   0  0  0  0  0  2  0  0  0  0  0  0
  -27.2360  -24.8060   21.8300 C   0  0  0  0  0  1  0  0  0  0  0  0
  -28.0250  -24.9650   20.5080 C   0  0  0  0  0  3  0  0  0  0  0  0
  -28.3060  -26.4310   20.3170 O   0  0  0  0  0  0  0  0  0  0  0  0
  -24.5690  -31.8780   23.2570 C   0  0  0  0  0  0  0  0  0  0  0  0
  -27.2130  -27.3210   20.2120 C   0  0  0  0  0  0  0  0  0  0  0  0
  -23.3780  -30.4750   21.6100 C   0  0  0  0  0  3  0  0  0  0  0  0
  -24.8440  -28.9400   20.1810 C   0  0  0  0  0  0  0  0  0  0  0  0
  -25.9180  -30.8050   21.4360 C   0  0  0  0  0  2  0  0  0  0  0  0
  -26.0060  -29.4260   20.7910 C   0  0  0  0  0  0  0  0  0  0  0  0
  -27.1920  -28.6240   20.8030 C   0  0  0  0  0  3  0  0  0  0  0  0
  -26.0360  -26.9180   19.5400 C   0  0  0  0  0  3  0  0  0  0  0  0
  -24.8650  -27.6970   19.5360 C   0  0  0  0  0  3  0  0  0  0  0  0
  -23.5970  -29.8000   20.2320 C   0  0  0  0  0  2  0  0  0  0  0  0
  -24.6400  -31.0720   22.1560 N   0  0  0  0  0  0  0  0  0  0  0  0
  -23.4820  -32.1480   23.7910 O   0  0  0  0  0  0  0  0  0  0  0  0
  -22.7170  -29.4550   22.5660 C   0  0  0  0  0  0  0  0  0  0  0  0
  -21.3890  -29.2740   22.4340 N   0  0  0  0  0  0  0  0  0  0  0  0
  -23.3940  -28.8270   23.3850 O   0  0  0  0  0  0  0  0  0  0  0  0
  -20.9020  -29.8210   21.7390 H   0  0  0  0  0  0  0  0  0  0  0  0
  -18.0080  -28.0890   22.9350 C   0  0  0  0  0  0  0  0  0  0  0  0
  -20.5690  -28.3350   23.2020 C   0  0  0  0  0  3  0  0  0  0  0  0
  -20.6640  -26.9100   22.6090 C   0  0  0  0  0  2  0  0  0  0  0  0
  -19.5580  -26.6040   21.5950 C   0  0  0  0  0  2  0  0  0  0  0  0
  -18.1780  -26.7490   22.2440 C   0  0  0  0  0  2  0  0  0  0  0  0
  -19.1310  -28.8430   23.3700 C   0  0  0  0  0  0  0  0  0  0  0  0
  -18.9180  -30.1020   23.9710 C   0  0  0  0  0  3  0  0  0  0  0  0
  -17.6140  -30.6050   24.1450 C   0  0  0  0  0  3  0  0  0  0  0  0
  -16.5060  -29.8460   23.7300 C   0  0  0  0  0  3  0  0  0  0  0  0
  -16.7040  -28.5900   23.1290 C   0  0  0  0  0  3  0  0  0  0  0  0
  -25.8470  -32.5140   23.8840 C   0  0  0  0  0  3  0  0  0  0  0  0
  -25.5310  -33.9100   24.2180 N   0  0  0  0  0  0  0  0  0  0  0  0
  -25.8610  -34.9670   23.4640 C   0  0  0  0  0  0  0  0  0  0  0  0
  -26.5340  -34.8700   22.4330 O   0  0  0  0  0  0  0  0  0  0  0  0
  -24.9380  -34.0570   25.0210 H   0  0  0  0  0  0  0  0  0  0  0  0
  -24.1310  -36.7570   23.1040 C   0  0  0  0  0  1  0  0  0  0  0  0
  -25.3690  -36.3530   23.9230 C   0  0  0  0  0  3  0  0  0  0  0  0
  -27.4950  -37.2400   24.7710 C   0  0  0  0  0  1  0  0  0  0  0  0
  -26.3990  -37.4090   23.8200 N   0  0  0  0  0  0  0  0  0  0  0  0
  -25.9890  -38.3280   23.9670 H   0  0  0  0  0  0  0  0  0  0  0  0
  -26.3610  -31.7420   25.1610 C   0  0  1  0  0  0  0  0  0  0  0  0
  -25.2600  -31.5000   26.2210 C   0  0  0  0  0  1  0  0  0  0  0  0
  -26.9500  -30.3670   24.7700 C   0  0  0  0  0  1  0  0  0  0  0  0
  -27.5070  -32.5370   25.8310 C   0  0  0  0  0  1  0  0  0  0  0  0
  1 48  2  0
  3  2  2  0
  3 11  1  0
  4 10  1  0
  4  6  1  0
  4  5  1  0
  5  1  1  0
  5  2  1  0
  6  3  1  0
  7  6  1  0
  8 10  1  0
  9 10  1  0
 12 11  1  0
 13 18  1  0
 14 15  1  0
 14 13  1  0
 16 15  1  0
 16 23  1  0
 16 17  1  0
 18 12  1  0
 18 17  1  0
 19 12  2  0
 20 21  2  0
 21 40  1  0
 22 21  1  0
 22 25  1  0
 23 20  1  0
 23 24  1  0
 24 22  2  0
 25 26  1  0
 26 27  2  0
 28 31  1  0
 28 27  1  0
 29 28  2  0
 30 29  1  0
 30 25  2  0
 31 32  1  0
 32 33  1  0
 33 34  2  0
 35 34  1  0
 35 39  1  0
 36 35  2  0
 37 32  2  0
 37 36  1  0
 38 37  1  0
 40 41  1  0
 41 44  1  0
 41 43  1  0
 42 40  2  0
 45 46  1  0
 45 20  1  0
 47 45  1  0
 48 49  1  0
 49 51  1  0
 51 50  1  0
 52 51  1  0
 53 64  2  0
 54 52  1  0
 54 59  1  0
 55 63  1  0
 55 65  1  0
 56 62  1  0
 56 58  1  0
 57 63  1  0
 58 59  2  0
 58 57  1  0
 60 54  2  0
 61 60  1  0
 61 56  2  0
 62 55  1  0
 63 53  1  0
 65 67  2  0
 66 65  1  0
 68 66  1  0
 69 78  2  0
 69 74  1  0
 70 66  1  0
 70 74  1  0
 71 70  1  0
 72 73  1  0
 72 71  1  0
 73 69  1  0
 74 75  2  0
 75 76  1  0
 77 76  2  0
 78 77  1  0
 79 53  1  0
 79 80  1  0
 79 89  1  0
 80 83  1  0
 81 85  1  0
 81 80  1  0
 82 81  2  0
 85 84  1  0
 87 85  1  0
 87 88  1  0
 87 86  1  0
 89 92  1  1
 89 90  1  0
 91 89  1  0
M  ISO  4  11 100  12 100  51 101  52 101
M  END
>  <TORSDO>  (47) 
F 22

>  <SCORE>  (47) 
-12.953

>  <name>  (47) 
47

>  <ligand_id>  (47) 
47

>  <original_smiles>  (47) 
[H]c1c([H])c([H])c2c(c1[H])C([H])([H])C([H])([H])C([H])([H])C2([H])N([H])C(=O)C1([H])N(C(=O)C([H])(N([H])C(=O)C([H])(N([H])C([H])([H])[H])C([H])([H])[H])C(C([H])([H])[H])(C([H])([H])[H])C([H])([H])[H])C([H])([H])c2c([H])c(OC([H])(C([H])([H])[H])C([H])([H])C([H])([H])C([H])([H])n3c([H])c(C([H])([H])C(=O)N4C([H])([H])C([H])([H])C([H])([H])C([H])(n5nc(-c6c([H])c([H])c(Oc7c([H])c([H])c(F)c([H])c7F)c([H])c6[H])c(C(=O)N([H])[H])c5N([H])[H])C4([H])[H])[n+]([H])c3C([H])(C([H])([H])[H])C([H])([H])[H])c([H])c([H])c2C1([H])[H]

>  <smiles>  (47) 
[H]c1c([H])c([H])c2c(c1[H])C([H])([H])C([H])([H])C([H])([H])C2([H])N([H])C(=O)C1([H])N(C(=O)C([H])(N([H])C(=O)C([H])(N([H])C([H])([H])[H])C([H])([H])[H])C(C([H])([H])[H])(C([H])([H])[H])C([H])([H])[H])C([H])([H])c2c([H])c(OC([H])(C([H])([H])[H])C([H])([H])C([H])([H])C([H])([H])n3c([H])c(C([H])([H])C(=O)N4C([H])([H])C([H])([H])C([H])([H])C([H])(n5nc(-c6c([H])c([H])c(Oc7c([H])c([H])c(F)c([H])c7F)c([H])c6[H])c(C(=O)N([H])[H])c5N([H])[H])C4([H])[H])[n+]([H])c3C([H])(C([H])([H])[H])C([H])([H])[H])c([H])c([H])c2C1([H])[H]

$$$$
48:0:0
     RDKit          3D

102111  0  0  1  0  0  0  0  0999 V2000
  -29.4200  -20.5070   20.5830 C   0  0  0  0  0  3  0  0  0  0  0  0
  -27.4430  -21.8520   20.2020 C   0  0  0  0  0  3  0  0  0  0  0  0
  -29.0340  -19.6140   19.5560 C   0  0  0  0  0  0  0  0  0  0  0  0
  -28.6280  -21.6220   20.9100 C   0  0  0  0  0  0  0  0  0  0  0  0
  -26.9990  -20.9980   19.1600 C   0  0  0  0  0  0  0  0  0  0  0  0
  -27.7980  -19.8370   18.8660 C   0  0  0  0  0  0  0  0  0  0  0  0
  -27.4100  -18.8210   17.7920 C   0  0  0  0  0  1  0  0  0  0  0  0
  -31.9200  -18.4600   17.2360 C   0  0  0  0  0  2  0  0  0  0  0  0
  -32.9410  -18.0720   18.3030 C   0  0  0  0  0  2  0  0  0  0  0  0
  -30.7940  -19.2800   17.8720 C   0  0  0  0  0  2  0  0  0  0  0  0
  -32.2490  -17.2490   19.3910 C   0  0  0  0  0  2  0  0  0  0  0  0
  -30.0690  -18.5760   19.0480 C   0  0  0  0  0  3  0  0  0  0  0  0
  -31.0850  -17.9890   20.0960 C   0  0  0  0  0  3  0  0  0  0  0  0
  -30.4790  -17.1340   21.2640 C   0  0  0  0  0  2  0  0  0  0  0  0
  -30.7920  -14.6640   20.7300 C   0  0  0  0  0  0  0  0  0  0  0  0
  -30.5420  -12.4850   19.6130 C   0  0  0  0  0  2  0  0  0  0  0  0
  -29.6700  -12.6720   18.3540 C   0  0  0  0  0  2  0  0  0  0  0  0
  -28.1720  -12.5540   18.7060 C   0  0  0  0  0  2  0  0  0  0  0  0
  -27.7700  -13.4170   19.9320 C   0  0  0  0  0  3  0  0  0  0  0  0
  -28.7620  -13.2200   21.0990 C   0  0  0  0  0  2  0  0  0  0  0  0
  -30.1120  -13.4970   20.5850 N   0  0  0  0  0  0  0  0  0  0  0  0
  -31.9920  -14.7630   20.4800 O   0  0  0  0  0  0  0  0  0  0  0  0
  -30.0290  -15.7520   20.9760 N   0  0  0  0  0  0  0  0  0  0  0  0
  -29.0420  -15.5730   21.0810 H   0  0  0  0  0  0  0  0  0  0  0  0
  -25.3570  -14.0550   20.5520 C   0  0  0  0  0  0  0  0  0  0  0  0
  -24.2570  -13.2960   20.8440 C   0  0  0  0  0  0  0  0  0  0  0  0
  -24.6910  -11.9360   20.7920 C   0  0  0  0  0  0  0  0  0  0  0  0
  -26.3930  -13.1570   20.3420 N   0  0  0  0  0  0  0  0  0  0  0  0
  -25.9930  -11.8750   20.5460 N   0  0  0  0  0  0  0  0  0  0  0  0
  -23.9290  -10.6850   20.9040 C   0  0  0  0  0  0  0  0  0  0  0  0
  -24.3300   -9.6550   21.7820 C   0  0  0  0  0  3  0  0  0  0  0  0
  -23.5710   -8.4690   21.8880 C   0  0  0  0  0  3  0  0  0  0  0  0
  -22.3960   -8.3080   21.1140 C   0  0  0  0  0  0  0  0  0  0  0  0
  -22.0150   -9.3270   20.2260 C   0  0  0  0  0  3  0  0  0  0  0  0
  -22.7750  -10.5040   20.1170 C   0  0  0  0  0  3  0  0  0  0  0  0
  -21.6100   -7.1810   21.1330 O   0  0  0  0  0  0  0  0  0  0  0  0
  -21.5710   -6.3500   22.2230 C   0  0  0  0  0  0  0  0  0  0  0  0
  -21.2200   -6.8220   23.5080 C   0  0  0  0  0  3  0  0  0  0  0  0
  -21.1220   -5.9200   24.5870 C   0  0  0  0  0  3  0  0  0  0  0  0
  -21.3630   -4.5480   24.3830 C   0  0  0  0  0  0  0  0  0  0  0  0
  -21.7060   -4.0770   23.1030 C   0  0  0  0  0  3  0  0  0  0  0  0
  -21.8060   -4.9740   22.0270 C   0  0  0  0  0  0  0  0  0  0  0  0
  -22.1170   -4.5120   20.7920 F   0  0  0  0  0  0  0  0  0  0  0  0
  -21.2630   -3.6800   25.4170 F   0  0  0  0  0  0  0  0  0  0  0  0
  -22.8580  -13.7950   21.0590 C   0  0  0  0  0  0  0  0  0  0  0  0
  -22.0800  -13.0990   21.8810 N   0  0  0  0  0  0  0  0  0  0  0  0
  -22.4620  -14.8350   20.5350 O   0  0  0  0  0  0  0  0  0  0  0  0
  -22.4130  -12.2570   22.3260 H   0  0  0  0  0  0  0  0  0  0  0  0
  -21.1390  -13.4130   22.0660 H   0  0  0  0  0  0  0  0  0  0  0  0
  -25.5580  -15.4260   20.4280 N   0  0  0  0  0  0  0  0  0  0  0  0
  -24.7970  -16.0890   20.5170 H   0  0  0  0  0  0  0  0  0  0  0  0
  -26.4270  -15.8560   20.1440 H   0  0  0  0  0  0  0  0  0  0  0  0
  -25.0980  -22.7490   18.8620 C   0  0  0  0  0  1  0  0  0  0  0  0
  -24.5780  -20.3680   18.6280 C   0  0  0  0  0  1  0  0  0  0  0  0
  -25.9840  -21.6500   16.8830 C   0  0  0  0  0  1  0  0  0  0  0  0
  -25.7030  -21.3990   18.3860 C   0  0  2  0  0  0  0  0  0  0  0  0
  -29.0340  -22.5890   22.0160 C   0  0  0  0  0  2  0  0  0  0  0  0
  -30.1540  -23.5810   21.6390 C   0  0  0  0  0  2  0  0  0  0  0  0
  -31.1180  -25.4510   20.2820 C   0  0  0  0  0  1  0  0  0  0  0  0
  -29.8050  -24.7400   20.6680 C   0  0  0  0  0  3  0  0  0  0  0  0
  -28.7660  -25.7490   21.2360 C   0  0  0  0  0  2  0  0  0  0  0  0
  -28.5870  -26.8410   20.3280 O   0  0  0  0  0  0  0  0  0  0  0  0
  -24.6260  -31.9330   23.3760 C   0  0  0  0  0  0  0  0  0  0  0  0
  -27.3930  -27.5160   20.3930 C   0  0  0  0  0  0  0  0  0  0  0  0
  -23.4660  -30.4970   21.7260 C   0  0  0  0  0  3  0  0  0  0  0  0
  -24.9670  -28.9620   20.3490 C   0  0  0  0  0  0  0  0  0  0  0  0
  -25.9860  -30.8990   21.5630 C   0  0  0  0  0  2  0  0  0  0  0  0
  -26.1050  -29.5210   20.9470 C   0  0  0  0  0  0  0  0  0  0  0  0
  -27.3240  -28.8060   20.9620 C   0  0  0  0  0  3  0  0  0  0  0  0
  -26.2410  -26.9600   19.8010 C   0  0  0  0  0  3  0  0  0  0  0  0
  -25.0290  -27.6780   19.7750 C   0  0  0  0  0  3  0  0  0  0  0  0
  -23.7080  -29.8000   20.3600 C   0  0  0  0  0  2  0  0  0  0  0  0
  -24.7100  -31.1250   22.2810 N   0  0  0  0  0  0  0  0  0  0  0  0
  -23.5330  -32.1940   23.8970 O   0  0  0  0  0  0  0  0  0  0  0  0
  -22.8150  -29.4770   22.6870 C   0  0  0  0  0  0  0  0  0  0  0  0
  -21.5000  -29.2560   22.5210 N   0  0  0  0  0  0  0  0  0  0  0  0
  -23.4890  -28.8880   23.5370 O   0  0  0  0  0  0  0  0  0  0  0  0
  -21.0180  -29.7870   21.8090 H   0  0  0  0  0  0  0  0  0  0  0  0
  -18.1500  -27.9670   22.9220 C   0  0  0  0  0  0  0  0  0  0  0  0
  -20.6860  -28.3100   23.2820 C   0  0  0  0  0  3  0  0  0  0  0  0
  -20.8530  -26.8700   22.7420 C   0  0  0  0  0  2  0  0  0  0  0  0
  -19.8010  -26.4920   21.6960 C   0  0  0  0  0  2  0  0  0  0  0  0
  -18.3920  -26.6100   22.2850 C   0  0  0  0  0  2  0  0  0  0  0  0
  -19.2280  -28.7730   23.3750 C   0  0  0  0  0  0  0  0  0  0  0  0
  -18.9490  -30.0420   23.9270 C   0  0  0  0  0  3  0  0  0  0  0  0
  -17.6250  -30.5070   24.0340 C   0  0  0  0  0  3  0  0  0  0  0  0
  -16.5600  -29.6990   23.5970 C   0  0  0  0  0  3  0  0  0  0  0  0
  -16.8230  -28.4320   23.0460 C   0  0  0  0  0  3  0  0  0  0  0  0
  -25.8940  -32.5860   24.0100 C   0  0  0  0  0  3  0  0  0  0  0  0
  -25.5780  -33.9960   24.2800 N   0  0  0  0  0  0  0  0  0  0  0  0
  -25.9310  -35.0170   23.4900 C   0  0  0  0  0  0  0  0  0  0  0  0
  -26.6290  -34.8750   22.4820 O   0  0  0  0  0  0  0  0  0  0  0  0
  -24.9650  -34.1800   25.0600 H   0  0  0  0  0  0  0  0  0  0  0  0
  -24.2010  -36.7830   23.0310 C   0  0  0  0  0  1  0  0  0  0  0  0
  -25.4310  -36.4210   23.8780 C   0  0  0  0  0  3  0  0  0  0  0  0
  -27.5520  -37.3480   24.6990 C   0  0  0  0  0  1  0  0  0  0  0  0
  -26.4610  -37.4740   23.7360 N   0  0  0  0  0  0  0  0  0  0  0  0
  -26.0490  -38.3970   23.8430 H   0  0  0  0  0  0  0  0  0  0  0  0
  -26.3750  -31.8600   25.3270 C   0  0  1  0  0  0  0  0  0  0  0  0
  -25.2470  -31.6410   26.3620 C   0  0  0  0  0  1  0  0  0  0  0  0
  -26.9900  -30.4780   24.9940 C   0  0  0  0  0  1  0  0  0  0  0  0
  -27.4930  -32.6890   26.0030 C   0  0  0  0  0  1  0  0  0  0  0  0
  1  4  1  0
  2  4  2  0
  3  1  2  0
  4 57  1  0
  5  2  1  0
  6  5  2  0
  6  3  1  0
  7  6  1  0
  8 10  1  0
  8  9  1  0
  9 11  1  0
 10 12  1  0
 11 13  1  0
 12  3  1  0
 12 13  1  0
 13 14  1  0
 15 23  1  0
 16 21  1  0
 17 18  1  0
 17 16  1  0
 19 18  1  0
 19 28  1  0
 19 20  1  0
 21 15  1  0
 21 20  1  0
 22 15  2  0
 23 24  1  0
 23 14  1  0
 25 26  2  0
 26 45  1  0
 27 26  1  0
 27 30  1  0
 28 29  1  0
 28 25  1  0
 29 27  2  0
 30 31  1  0
 31 32  2  0
 33 36  1  0
 33 32  1  0
 34 33  2  0
 35 34  1  0
 35 30  2  0
 36 37  1  0
 37 38  1  0
 38 39  2  0
 40 39  1  0
 40 44  1  0
 41 40  2  0
 42 37  2  0
 42 41  1  0
 43 42  1  0
 45 46  1  0
 46 49  1  0
 46 48  1  0
 47 45  2  0
 50 51  1  0
 50 25  1  0
 52 50  1  0
 56 55  1  6
 56 54  1  0
 56 53  1  0
 56  5  1  0
 58 57  1  0
 60 59  1  0
 60 61  1  0
 60 58  1  0
 62 64  1  0
 62 61  1  0
 63 74  2  0
 64 69  1  0
 65 73  1  0
 65 75  1  0
 66 72  1  0
 66 68  1  0
 67 73  1  0
 68 69  2  0
 68 67  1  0
 70 64  2  0
 71 70  1  0
 71 66  2  0
 72 65  1  0
 73 63  1  0
 75 77  2  0
 76 75  1  0
 78 76  1  0
 79 88  2  0
 79 84  1  0
 80 76  1  0
 80 84  1  0
 81 80  1  0
 82 83  1  0
 82 81  1  0
 83 79  1  0
 84 85  2  0
 85 86  1  0
 87 86  2  0
 88 87  1  0
 89 63  1  0
 89 90  1  0
 89 99  1  0
 90 93  1  0
 91 95  1  0
 91 90  1  0
 92 91  2  0
 95 94  1  0
 97 98  1  0
 97 95  1  0
 97 96  1  0
 99102  1  1
 99100  1  0
101 99  1  0
M  ISO  4  15 100  23 100  61 101  62 101
M  END
>  <TORSDO>  (48) 
F 23

>  <SCORE>  (48) 
-11.999

>  <name>  (48) 
48

>  <ligand_id>  (48) 
48

>  <original_smiles>  (48) 
[H]c1c([H])c([H])c2c(c1[H])C([H])([H])C([H])([H])C([H])([H])C2([H])N([H])C(=O)C1([H])N(C(=O)C([H])(N([H])C(=O)C([H])(N([H])C([H])([H])[H])C([H])([H])[H])C(C([H])([H])[H])(C([H])([H])[H])C([H])([H])[H])C([H])([H])c2c([H])c(OC([H])([H])C([H])(C([H])([H])[H])C([H])([H])C([H])([H])c3c([H])c(C4([H])C([H])([H])C([H])([H])C([H])([H])C([H])([H])C4([H])C([H])([H])N([H])C(=O)N4C([H])([H])C([H])([H])C([H])([H])C([H])(n5nc(-c6c([H])c([H])c(Oc7c([H])c([H])c(F)c([H])c7F)c([H])c6[H])c(C(=O)N([H])[H])c5N([H])[H])C4([H])[H])c(C([H])([H])[H])c(C(C([H])([H])[H])(C([H])([H])[H])C([H])([H])[H])c3[H])c([H])c([H])c2C1([H])[H]

>  <smiles>  (48) 
[H]c1c([H])c([H])c2c(c1[H])C([H])([H])C([H])([H])C([H])([H])C2([H])N([H])C(=O)C1([H])N(C(=O)C([H])(N([H])C(=O)C([H])(N([H])C([H])([H])[H])C([H])([H])[H])C(C([H])([H])[H])(C([H])([H])[H])C([H])([H])[H])C([H])([H])c2c([H])c(OC([H])([H])C([H])(C([H])([H])[H])C([H])([H])C([H])([H])c3c([H])c(C4([H])C([H])([H])C([H])([H])C([H])([H])C([H])([H])C4([H])C([H])([H])N([H])C(=O)N4C([H])([H])C([H])([H])C([H])([H])C([H])(n5nc(-c6c([H])c([H])c(Oc7c([H])c([H])c(F)c([H])c7F)c([H])c6[H])c(C(=O)N([H])[H])c5N([H])[H])C4([H])[H])c(C([H])([H])[H])c(C(C([H])([H])[H])(C([H])([H])[H])C([H])([H])[H])c3[H])c([H])c([H])c2C1([H])[H]

$$$$
49:0:0
     RDKit          3D

 97105  0  0  1  0  0  0  0  0999 V2000
  -30.5890  -23.5000   19.5720 C   0  0  0  0  0  3  0  0  0  0  0  0
  -29.4780  -22.8020   20.1100 C   0  0  0  0  0  0  0  0  0  0  0  0
  -31.7070  -22.7360   19.6340 C   0  0  0  0  0  0  0  0  0  0  0  0
  -29.9420  -21.4830   20.4070 C   0  0  0  0  0  0  0  0  0  0  0  0
  -31.3460  -21.5290   20.2220 N   0  0  0  0  0  0  0  0  0  0  0  0
  -27.0980  -22.7790   20.9780 C   0  0  0  0  0  1  0  0  0  0  0  0
  -27.5860  -23.7190   18.7330 C   0  0  0  0  0  1  0  0  0  0  0  0
  -28.1180  -23.6090   20.1770 C   0  0  2  0  0  0  0  0  0  0  0  0
  -28.1640  -25.1050   20.8510 C   0  0  0  0  0  2  0  0  0  0  0  0
  -28.3430  -26.4360   20.1780 O   0  0  0  0  0  0  0  0  0  0  0  0
  -24.6250  -31.9030   23.2230 C   0  0  0  0  0  0  0  0  0  0  0  0
  -27.2490  -27.3240   20.1770 C   0  0  0  0  0  0  0  0  0  0  0  0
  -23.4320  -30.4930   21.5880 C   0  0  0  0  0  3  0  0  0  0  0  0
  -24.8870  -28.9470   20.1680 C   0  0  0  0  0  0  0  0  0  0  0  0
  -25.9730  -30.8190   21.4060 C   0  0  0  0  0  2  0  0  0  0  0  0
  -26.0590  -29.4370   20.7600 C   0  0  0  0  0  0  0  0  0  0  0  0
  -27.2490  -28.6400   20.7480 C   0  0  0  0  0  3  0  0  0  0  0  0
  -26.0530  -26.8960   19.5690 C   0  0  0  0  0  3  0  0  0  0  0  0
  -24.8870  -27.6820   19.5640 C   0  0  0  0  0  3  0  0  0  0  0  0
  -23.6510  -29.8210   20.2090 C   0  0  0  0  0  2  0  0  0  0  0  0
  -24.6950  -31.0900   22.1270 N   0  0  0  0  0  0  0  0  0  0  0  0
  -23.5380  -32.1760   23.7540 O   0  0  0  0  0  0  0  0  0  0  0  0
  -22.7680  -29.4750   22.5490 C   0  0  0  0  0  0  0  0  0  0  0  0
  -21.4440  -29.2900   22.4170 N   0  0  0  0  0  0  0  0  0  0  0  0
  -23.4470  -28.8580   23.3750 O   0  0  0  0  0  0  0  0  0  0  0  0
  -20.9530  -29.8420   21.7270 H   0  0  0  0  0  0  0  0  0  0  0  0
  -18.0740  -28.0640   22.9080 C   0  0  0  0  0  0  0  0  0  0  0  0
  -20.6290  -28.3490   23.1910 C   0  0  0  0  0  3  0  0  0  0  0  0
  -20.7460  -26.9130   22.6250 C   0  0  0  0  0  2  0  0  0  0  0  0
  -19.6530  -26.5750   21.6060 C   0  0  0  0  0  2  0  0  0  0  0  0
  -18.2660  -26.7110   22.2420 C   0  0  0  0  0  2  0  0  0  0  0  0
  -19.1830  -28.8380   23.3400 C   0  0  0  0  0  0  0  0  0  0  0  0
  -18.9500  -30.1020   23.9230 C   0  0  0  0  0  3  0  0  0  0  0  0
  -17.6390  -30.5940   24.0770 C   0  0  0  0  0  3  0  0  0  0  0  0
  -16.5440  -29.8160   23.6630 C   0  0  0  0  0  3  0  0  0  0  0  0
  -16.7630  -28.5530   23.0850 C   0  0  0  0  0  3  0  0  0  0  0  0
  -25.9020  -32.5450   23.8460 C   0  0  0  0  0  3  0  0  0  0  0  0
  -25.5870  -33.9440   24.1670 N   0  0  0  0  0  0  0  0  0  0  0  0
  -25.9200  -34.9940   23.4050 C   0  0  0  0  0  0  0  0  0  0  0  0
  -26.5940  -34.8870   22.3780 O   0  0  0  0  0  0  0  0  0  0  0  0
  -24.9870  -34.1020   24.9630 H   0  0  0  0  0  0  0  0  0  0  0  0
  -24.1920  -36.7840   23.0340 C   0  0  0  0  0  1  0  0  0  0  0  0
  -25.4270  -36.3820   23.8560 C   0  0  0  0  0  3  0  0  0  0  0  0
  -27.5530  -37.2730   24.7020 C   0  0  0  0  0  1  0  0  0  0  0  0
  -26.4580  -37.4380   23.7490 N   0  0  0  0  0  0  0  0  0  0  0  0
  -26.0480  -38.3560   23.8920 H   0  0  0  0  0  0  0  0  0  0  0  0
  -26.4170  -31.7850   25.1290 C   0  0  1  0  0  0  0  0  0  0  0  0
  -25.3220  -31.5520   26.1970 C   0  0  0  0  0  1  0  0  0  0  0  0
  -27.0060  -30.4060   24.7500 C   0  0  0  0  0  1  0  0  0  0  0  0
  -27.5650  -32.5860   25.7880 C   0  0  0  0  0  1  0  0  0  0  0  0
  -33.4790  -24.5370   19.5500 C   0  0  0  0  0  1  0  0  0  0  0  0
  -33.2390  -22.9070   17.6540 C   0  0  0  0  0  1  0  0  0  0  0  0
  -33.0980  -23.0970   19.1730 C   0  0  0  0  0  3  0  0  0  0  0  0
  -29.3370  -20.1500   21.0280 C   0  0  0  0  0  2  0  0  0  0  0  0
  -29.4350  -18.6370   20.3850 C   0  0  0  0  0  2  0  0  0  0  0  0
  -30.3900  -17.3440   20.7030 C   0  0  0  0  0  2  0  0  0  0  0  0
  -30.6240  -14.7580   20.4210 C   0  0  0  0  0  0  0  0  0  0  0  0
  -30.4040  -12.4960   19.3850 C   0  0  0  0  0  2  0  0  0  0  0  0
  -29.4770  -12.5810   18.1540 C   0  0  0  0  0  2  0  0  0  0  0  0
  -28.0050  -12.4140   18.5750 C   0  0  0  0  0  2  0  0  0  0  0  0
  -27.6250  -13.3040   19.7880 C   0  0  0  0  0  3  0  0  0  0  0  0
  -28.6730  -13.2120   20.9190 C   0  0  0  0  0  2  0  0  0  0  0  0
  -29.9770  -13.5480   20.3350 N   0  0  0  0  0  0  0  0  0  0  0  0
  -31.8160  -14.8400   20.1130 O   0  0  0  0  0  0  0  0  0  0  0  0
  -29.8800  -15.9040   20.6490 N   0  0  0  0  0  0  0  0  0  0  0  0
  -28.8960  -15.7610   20.8180 H   0  0  0  0  0  0  0  0  0  0  0  0
  -25.2300  -13.8990   20.4860 C   0  0  0  0  0  0  0  0  0  0  0  0
  -24.1620  -13.1250   20.8530 C   0  0  0  0  0  0  0  0  0  0  0  0
  -24.6300  -11.7750   20.8440 C   0  0  0  0  0  0  0  0  0  0  0  0
  -26.2790  -13.0190   20.2730 N   0  0  0  0  0  0  0  0  0  0  0  0
  -25.9230  -11.7380   20.5490 N   0  0  0  0  0  0  0  0  0  0  0  0
  -23.9060  -10.5130   21.0380 C   0  0  0  0  0  0  0  0  0  0  0  0
  -24.3310   -9.5550   21.9860 C   0  0  0  0  0  3  0  0  0  0  0  0
  -23.6040   -8.3590   22.1680 C   0  0  0  0  0  3  0  0  0  0  0  0
  -22.4400   -8.1110   21.4010 C   0  0  0  0  0  0  0  0  0  0  0  0
  -22.0350   -9.0570   20.4440 C   0  0  0  0  0  3  0  0  0  0  0  0
  -22.7610  -10.2460   20.2600 C   0  0  0  0  0  3  0  0  0  0  0  0
  -21.6850   -6.9660   21.4920 O   0  0  0  0  0  0  0  0  0  0  0  0
  -21.6290   -6.2320   22.6490 C   0  0  0  0  0  0  0  0  0  0  0  0
  -21.1920   -6.7930   23.8690 C   0  0  0  0  0  3  0  0  0  0  0  0
  -21.0850   -5.9830   25.0170 C   0  0  0  0  0  3  0  0  0  0  0  0
  -21.4020   -4.6130   24.9470 C   0  0  0  0  0  0  0  0  0  0  0  0
  -21.8320   -4.0520   23.7310 C   0  0  0  0  0  3  0  0  0  0  0  0
  -21.9410   -4.8590   22.5850 C   0  0  0  0  0  0  0  0  0  0  0  0
  -22.3350   -4.3090   21.4120 F   0  0  0  0  0  0  0  0  0  0  0  0
  -21.2930   -3.8330   26.0480 F   0  0  0  0  0  0  0  0  0  0  0  0
  -22.7590  -13.6010   21.1000 C   0  0  0  0  0  0  0  0  0  0  0  0
  -22.0220  -12.9090   21.9610 N   0  0  0  0  0  0  0  0  0  0  0  0
  -22.3260  -14.6210   20.5620 O   0  0  0  0  0  0  0  0  0  0  0  0
  -22.3900  -12.0910   22.4230 H   0  0  0  0  0  0  0  0  0  0  0  0
  -21.0780  -13.2040   22.1670 H   0  0  0  0  0  0  0  0  0  0  0  0
  -25.3900  -15.2660   20.2940 N   0  0  0  0  0  0  0  0  0  0  0  0
  -24.6090  -15.9110   20.3760 H   0  0  0  0  0  0  0  0  0  0  0  0
  -26.2290  -15.7060   19.9400 H   0  0  0  0  0  0  0  0  0  0  0  0
  -32.3350  -20.5230   20.6440 C   0  0  0  0  0  2  0  0  0  0  0  0
  -33.9170  -18.6260   19.9980 C   0  0  0  0  0  1  0  0  0  0  0  0
  -32.9420  -19.6950   19.4900 C   0  0  0  0  0  2  0  0  0  0  0  0
  1  3  2  0
  1  2  1  0
  2  8  1  0
  2  4  2  0
  3  5  1  0
  4 54  1  0
  5  4  1  0
  5 95  1  0
  8  7  1  6
  8  9  1  0
  8  6  1  0
 10  9  1  0
 11 22  2  0
 12 10  1  0
 12 17  1  0
 13 21  1  0
 13 23  1  0
 14 20  1  0
 14 16  1  0
 15 21  1  0
 16 15  1  0
 17 16  2  0
 18 12  2  0
 19 18  1  0
 19 14  2  0
 20 13  1  0
 21 11  1  0
 23 25  2  0
 24 23  1  0
 26 24  1  0
 27 36  2  0
 27 32  1  0
 28 24  1  0
 28 32  1  0
 29 28  1  0
 30 31  1  0
 30 29  1  0
 31 27  1  0
 32 33  2  0
 33 34  1  0
 35 34  2  0
 36 35  1  0
 37 11  1  0
 37 38  1  0
 37 47  1  0
 38 41  1  0
 39 43  1  0
 39 38  1  0
 40 39  2  0
 43 42  1  0
 45 43  1  0
 45 46  1  0
 45 44  1  0
 47 50  1  1
 47 48  1  0
 49 47  1  0
 52 53  1  0
 53 51  1  0
 53  3  1  0
 55 56  1  0
 55 54  1  0
 57 65  1  0
 58 63  1  0
 59 60  1  0
 59 58  1  0
 61 60  1  0
 61 70  1  0
 61 62  1  0
 63 57  1  0
 63 62  1  0
 64 57  2  0
 65 56  1  0
 65 66  1  0
 67 68  2  0
 68 87  1  0
 69 68  1  0
 69 72  1  0
 70 67  1  0
 70 71  1  0
 71 69  2  0
 72 73  1  0
 73 74  2  0
 75 78  1  0
 75 74  1  0
 76 75  2  0
 77 76  1  0
 77 72  2  0
 78 79  1  0
 79 80  1  0
 80 81  2  0
 82 81  1  0
 82 86  1  0
 83 82  2  0
 84 79  2  0
 84 83  1  0
 85 84  1  0
 87 88  1  0
 88 91  1  0
 88 90  1  0
 89 87  2  0
 92 93  1  0
 92 67  1  0
 94 92  1  0
 97 96  1  0
 97 95  1  0
M  ISO  4   9 101  10 101  57 100  65 100
M  END
>  <TORSDO>  (49) 
F 24

>  <SCORE>  (49) 
-12.677

>  <name>  (49) 
49

>  <ligand_id>  (49) 
49

>  <original_smiles>  (49) 
[H]c1c([H])c([H])c2c(c1[H])C([H])([H])C([H])([H])C([H])([H])C2([H])N([H])C(=O)C1([H])N(C(=O)C([H])(N([H])C(=O)C([H])(N([H])C([H])([H])[H])C([H])([H])[H])C(C([H])([H])[H])(C([H])([H])[H])C([H])([H])[H])C([H])([H])c2c([H])c(OC([H])([H])C(c3c([H])c(C([H])(C([H])([H])[H])C([H])([H])[H])n(C([H])([H])C([H])([H])C([H])([H])[H])c3C([H])([H])C([H])([H])C([H])([H])N([H])C(=O)N3C([H])([H])C([H])([H])C([H])([H])C([H])(n4nc(-c5c([H])c([H])c(Oc6c([H])c([H])c(F)c([H])c6F)c([H])c5[H])c(C(=O)N([H])[H])c4N([H])[H])C3([H])[H])(C([H])([H])[H])C([H])([H])[H])c([H])c([H])c2C1([H])[H]

>  <smiles>  (49) 
[H]c1c([H])c([H])c2c(c1[H])C([H])([H])C([H])([H])C([H])([H])C2([H])N([H])C(=O)C1([H])N(C(=O)C([H])(N([H])C(=O)C([H])(N([H])C([H])([H])[H])C([H])([H])[H])C(C([H])([H])[H])(C([H])([H])[H])C([H])([H])[H])C([H])([H])c2c([H])c(OC([H])([H])C(c3c([H])c(C([H])(C([H])([H])[H])C([H])([H])[H])n(C([H])([H])C([H])([H])C([H])([H])[H])c3C([H])([H])C([H])([H])C([H])([H])N([H])C(=O)N3C([H])([H])C([H])([H])C([H])([H])C([H])(n4nc(-c5c([H])c([H])c(Oc6c([H])c([H])c(F)c([H])c6F)c([H])c5[H])c(C(=O)N([H])[H])c4N([H])[H])C3([H])[H])(C([H])([H])[H])C([H])([H])[H])c([H])c([H])c2C1([H])[H]

$$$$
50:0:0
     RDKit          3D

 94102  0  0  1  0  0  0  0  0999 V2000
  -30.2230  -19.7510   23.1200 C   0  0  0  0  0  3  0  0  0  0  0  0
  -29.8400  -20.2880   20.9990 C   0  0  0  0  0  3  0  0  0  0  0  0
  -30.0890  -19.2020   21.8120 C   0  0  0  0  0  0  0  0  0  0  0  0
  -29.9590  -21.0920   23.1020 C   0  0  0  0  0  0  0  0  0  0  0  0
  -29.7600  -21.4550   21.7690 N   0  0  0  0  0  0  0  0  0  0  0  0
  -30.7920  -23.1670   24.3240 C   0  0  0  0  0  1  0  0  0  0  0  0
  -29.8510  -21.2720   25.6430 C   0  0  0  0  0  1  0  0  0  0  0  0
  -29.7860  -22.0180   24.2880 C   0  0  0  0  0  3  0  0  0  0  0  0
  -31.0580  -16.9260   22.4630 C   0  0  0  0  0  1  0  0  0  0  0  0
  -30.0850  -17.6890   21.5400 C   0  0  0  0  0  3  0  0  0  0  0  0
  -30.2050  -17.1720   20.0780 C   0  0  0  0  0  2  0  0  0  0  0  0
  -30.8910  -14.6870   19.7980 C   0  0  0  0  0  0  0  0  0  0  0  0
  -30.6580  -12.3820   18.9590 C   0  0  0  0  0  2  0  0  0  0  0  0
  -29.6420  -12.4000   17.7980 C   0  0  0  0  0  2  0  0  0  0  0  0
  -28.2020  -12.2580   18.3330 C   0  0  0  0  0  2  0  0  0  0  0  0
  -27.8900  -13.2400   19.4910 C   0  0  0  0  0  3  0  0  0  0  0  0
  -29.0060  -13.2050   20.5580 C   0  0  0  0  0  2  0  0  0  0  0  0
  -30.2920  -13.4690   19.8810 N   0  0  0  0  0  0  0  0  0  0  0  0
  -32.0000  -14.8660   19.2940 O   0  0  0  0  0  0  0  0  0  0  0  0
  -30.0770  -15.7020   20.1320 N   0  0  0  0  0  0  0  0  0  0  0  0
  -29.1950  -15.3760   20.4910 H   0  0  0  0  0  0  0  0  0  0  0  0
  -25.5810  -13.8780   20.4250 C   0  0  0  0  0  0  0  0  0  0  0  0
  -24.5260  -13.1070   20.8540 C   0  0  0  0  0  0  0  0  0  0  0  0
  -24.9550  -11.7500   20.7340 C   0  0  0  0  0  0  0  0  0  0  0  0
  -26.5790  -12.9820   20.0740 N   0  0  0  0  0  0  0  0  0  0  0  0
  -26.2140  -11.6980   20.3210 N   0  0  0  0  0  0  0  0  0  0  0  0
  -24.2170  -10.4930   20.9320 C   0  0  0  0  0  0  0  0  0  0  0  0
  -24.6350   -9.5260   21.8720 C   0  0  0  0  0  3  0  0  0  0  0  0
  -23.8910   -8.3410   22.0570 C   0  0  0  0  0  3  0  0  0  0  0  0
  -22.7200   -8.1110   21.2970 C   0  0  0  0  0  0  0  0  0  0  0  0
  -22.3240   -9.0650   20.3420 C   0  0  0  0  0  3  0  0  0  0  0  0
  -23.0700  -10.2410   20.1560 C   0  0  0  0  0  3  0  0  0  0  0  0
  -21.9520   -6.9740   21.3870 O   0  0  0  0  0  0  0  0  0  0  0  0
  -21.7950   -6.3060   22.5740 C   0  0  0  0  0  0  0  0  0  0  0  0
  -21.2680   -6.9390   23.7210 C   0  0  0  0  0  3  0  0  0  0  0  0
  -21.0570   -6.1960   24.9000 C   0  0  0  0  0  3  0  0  0  0  0  0
  -21.3710   -4.8220   24.9330 C   0  0  0  0  0  0  0  0  0  0  0  0
  -21.8930   -4.1920   23.7900 C   0  0  0  0  0  3  0  0  0  0  0  0
  -22.1010   -4.9320   22.6140 C   0  0  0  0  0  0  0  0  0  0  0  0
  -22.5850   -4.3160   21.5070 F   0  0  0  0  0  0  0  0  0  0  0  0
  -21.1630   -4.1040   26.0620 F   0  0  0  0  0  0  0  0  0  0  0  0
  -23.1690  -13.6020   21.2550 C   0  0  0  0  0  0  0  0  0  0  0  0
  -22.5080  -12.9000   22.1710 N   0  0  0  0  0  0  0  0  0  0  0  0
  -22.7040  -14.6390   20.7860 O   0  0  0  0  0  0  0  0  0  0  0  0
  -22.9070  -12.0660   22.5730 H   0  0  0  0  0  0  0  0  0  0  0  0
  -21.5930  -13.2010   22.4740 H   0  0  0  0  0  0  0  0  0  0  0  0
  -25.7480  -15.2500   20.2830 N   0  0  0  0  0  0  0  0  0  0  0  0
  -24.9860  -15.8890   20.4770 H   0  0  0  0  0  0  0  0  0  0  0  0
  -26.5580  -15.7090   19.8850 H   0  0  0  0  0  0  0  0  0  0  0  0
  -29.3100  -22.7820   21.2990 C   0  0  0  0  0  2  0  0  0  0  0  0
  -29.9610  -23.3640   20.0110 C   0  0  0  0  0  2  0  0  0  0  0  0
  -30.5700  -24.8020   20.0930 C   0  0  0  0  0  2  0  0  0  0  0  0
  -29.5990  -25.8850   20.6200 C   0  0  0  0  0  2  0  0  0  0  0  0
  -29.6160  -27.1180   19.8680 O   0  0  0  0  0  0  0  0  0  0  0  0
  -24.9660  -31.2660   23.3060 C   0  0  0  0  0  0  0  0  0  0  0  0
  -28.3760  -27.7250   19.8390 C   0  0  0  0  0  0  0  0  0  0  0  0
  -24.0450  -29.8570   21.4900 C   0  0  0  0  0  3  0  0  0  0  0  0
  -25.7570  -28.7810   19.9420 C   0  0  0  0  0  0  0  0  0  0  0  0
  -26.4630  -30.6930   21.3950 C   0  0  0  0  0  2  0  0  0  0  0  0
  -26.8010  -29.4430   20.6060 C   0  0  0  0  0  0  0  0  0  0  0  0
  -28.1200  -28.9280   20.5390 C   0  0  0  0  0  3  0  0  0  0  0  0
  -27.3140  -27.1010   19.1450 C   0  0  0  0  0  3  0  0  0  0  0  0
  -26.0090  -27.6180   19.1950 C   0  0  0  0  0  3  0  0  0  0  0  0
  -24.3800  -29.3880   20.0510 C   0  0  0  0  0  2  0  0  0  0  0  0
  -25.1730  -30.6170   22.1270 N   0  0  0  0  0  0  0  0  0  0  0  0
  -23.8520  -31.2690   23.8470 O   0  0  0  0  0  0  0  0  0  0  0  0
  -23.5810  -28.6390   22.3240 C   0  0  0  0  0  0  0  0  0  0  0  0
  -22.3490  -28.1720   22.0660 N   0  0  0  0  0  0  0  0  0  0  0  0
  -24.3320  -28.1220   23.1550 O   0  0  0  0  0  0  0  0  0  0  0  0
  -21.8070  -28.6250   21.3400 H   0  0  0  0  0  0  0  0  0  0  0  0
  -19.3590  -26.1330   22.1650 C   0  0  0  0  0  0  0  0  0  0  0  0
  -21.7280  -27.0140   22.7100 C   0  0  0  0  0  3  0  0  0  0  0  0
  -22.2550  -25.6900   22.1070 C   0  0  0  0  0  2  0  0  0  0  0  0
  -21.3690  -25.1590   20.9770 C   0  0  0  0  0  2  0  0  0  0  0  0
  -19.9450  -24.9120   21.4830 C   0  0  0  0  0  2  0  0  0  0  0  0
  -20.2010  -27.1260   22.7350 C   0  0  0  0  0  0  0  0  0  0  0  0
  -19.6150  -28.2550   23.3380 C   0  0  0  0  0  3  0  0  0  0  0  0
  -18.2190  -28.4110   23.3680 C   0  0  0  0  0  3  0  0  0  0  0  0
  -17.3880  -27.4240   22.8080 C   0  0  0  0  0  3  0  0  0  0  0  0
  -17.9560  -26.2850   22.2150 C   0  0  0  0  0  3  0  0  0  0  0  0
  -26.1150  -32.0490   24.0170 C   0  0  0  0  0  3  0  0  0  0  0  0
  -25.5880  -33.3690   24.3900 N   0  0  0  0  0  0  0  0  0  0  0  0
  -25.7920  -34.4880   23.6830 C   0  0  0  0  0  0  0  0  0  0  0  0
  -26.5160  -34.5330   22.6860 O   0  0  0  0  0  0  0  0  0  0  0  0
  -24.9410  -33.3910   25.1620 H   0  0  0  0  0  0  0  0  0  0  0  0
  -23.8310  -36.0280   23.3120 C   0  0  0  0  0  1  0  0  0  0  0  0
  -25.0830  -35.7710   24.1660 C   0  0  0  0  0  3  0  0  0  0  0  0
  -27.0300  -36.9190   25.1250 C   0  0  0  0  0  1  0  0  0  0  0  0
  -25.9540  -36.9680   24.1390 N   0  0  0  0  0  0  0  0  0  0  0  0
  -25.4090  -37.8060   24.3210 H   0  0  0  0  0  0  0  0  0  0  0  0
  -26.6830  -31.3000   25.2820 C   0  0  1  0  0  0  0  0  0  0  0  0
  -25.5940  -30.8480   26.2800 C   0  0  0  0  0  1  0  0  0  0  0  0
  -27.4890  -30.0430   24.8640 C   0  0  0  0  0  1  0  0  0  0  0  0
  -27.6600  -32.2230   26.0450 C   0  0  0  0  0  1  0  0  0  0  0  0
  2  5  1  0
  2  3  2  0
  3  1  1  0
  4  1  2  0
  4  8  1  0
  5  4  1  0
  8  6  1  0
  8  7  1  0
 10  3  1  0
 10  9  1  0
 11 20  1  0
 11 10  1  0
 12 18  1  0
 12 20  1  0
 13 18  1  0
 14 15  1  0
 14 13  1  0
 16 15  1  0
 16 25  1  0
 16 17  1  0
 18 17  1  0
 19 12  2  0
 20 21  1  0
 22 23  2  0
 23 42  1  0
 24 23  1  0
 24 27  1  0
 25 26  1  0
 25 22  1  0
 26 24  2  0
 27 28  1  0
 28 29  2  0
 30 33  1  0
 30 29  1  0
 31 30  2  0
 32 31  1  0
 32 27  2  0
 33 34  1  0
 34 39  2  0
 34 35  1  0
 35 36  2  0
 36 37  1  0
 37 41  1  0
 38 37  2  0
 39 38  1  0
 40 39  1  0
 42 43  1  0
 43 46  1  0
 43 45  1  0
 44 42  2  0
 47 22  1  0
 47 48  1  0
 49 47  1  0
 50  5  1  0
 51 52  1  0
 51 50  1  0
 52 53  1  0
 54 53  1  0
 55 66  2  0
 56 54  1  0
 56 61  1  0
 57 65  1  0
 57 67  1  0
 58 64  1  0
 58 60  1  0
 59 65  1  0
 60 59  1  0
 61 60  2  0
 62 63  1  0
 62 56  2  0
 63 58  2  0
 64 57  1  0
 65 55  1  0
 67 69  2  0
 68 67  1  0
 70 68  1  0
 71 80  2  0
 71 76  1  0
 72 68  1  0
 72 76  1  0
 73 72  1  0
 74 75  1  0
 74 73  1  0
 75 71  1  0
 76 77  2  0
 77 78  1  0
 79 78  2  0
 80 79  1  0
 81 55  1  0
 81 82  1  0
 81 91  1  0
 82 85  1  0
 83 87  1  0
 83 82  1  0
 84 83  2  0
 87 86  1  0
 89 87  1  0
 89 90  1  0
 89 88  1  0
 91 94  1  1
 91 92  1  0
 93 91  1  0
M  ISO  4  12 100  20 100  53 101  54 101
M  END
>  <TORSDO>  (50) 
F 23

>  <SCORE>  (50) 
-7.080

>  <name>  (50) 
50

>  <ligand_id>  (50) 
50

>  <original_smiles>  (50) 
[H]c1c([H])c([H])c2c(c1[H])C([H])([H])C([H])([H])C([H])([H])C2([H])N([H])C(=O)C1([H])N(C(=O)C([H])(N([H])C(=O)C([H])(N([H])C([H])([H])[H])C([H])([H])[H])C(C([H])([H])[H])(C([H])([H])[H])C([H])([H])[H])C([H])([H])c2c([H])c(OC([H])([H])C([H])([H])C([H])([H])C([H])([H])n3c([H])c(C([H])(C([H])([H])[H])C([H])([H])N([H])C(=O)N4C([H])([H])C([H])([H])C([H])([H])C([H])(n5nc(-c6c([H])c([H])c(Oc7c([H])c([H])c(F)c([H])c7F)c([H])c6[H])c(C(=O)N([H])[H])c5N([H])[H])C4([H])[H])c([H])c3C([H])(C([H])([H])[H])C([H])([H])[H])c([H])c([H])c2C1([H])[H]

>  <smiles>  (50) 
[H]c1c([H])c([H])c2c(c1[H])C([H])([H])C([H])([H])C([H])([H])C2([H])N([H])C(=O)C1([H])N(C(=O)C([H])(N([H])C(=O)C([H])(N([H])C([H])([H])[H])C([H])([H])[H])C(C([H])([H])[H])(C([H])([H])[H])C([H])([H])[H])C([H])([H])c2c([H])c(OC([H])([H])C([H])([H])C([H])([H])C([H])([H])n3c([H])c(C([H])(C([H])([H])[H])C([H])([H])N([H])C(=O)N4C([H])([H])C([H])([H])C([H])([H])C([H])(n5nc(-c6c([H])c([H])c(Oc7c([H])c([H])c(F)c([H])c7F)c([H])c6[H])c(C(=O)N([H])[H])c5N([H])[H])C4([H])[H])c([H])c3C([H])(C([H])([H])[H])C([H])([H])[H])c([H])c([H])c2C1([H])[H]

$$$$
51:0:0
     RDKit          3D

100109  0  0  1  0  0  0  0  0999 V2000
  -28.1450  -21.2680   20.4760 C   0  0  0  0  0  0  0  0  0  0  0  0
  -28.4610  -19.8810   20.3820 C   0  0  0  0  0  0  0  0  0  0  0  0
  -29.2200  -22.2000   20.5850 C   0  0  0  0  0  0  0  0  0  0  0  0
  -29.8110  -19.4600   20.5350 C   0  0  0  0  0  0  0  0  0  0  0  0
  -30.5310  -21.6730   20.7140 C   0  0  0  0  0  0  0  0  0  0  0  0
  -30.8040  -20.3500   20.7300 N   0  0  0  0  0  0  0  0  0  0  0  0
  -26.4200  -22.6820   19.1840 C   0  0  0  0  0  1  0  0  0  0  0  0
  -26.6890  -21.7510   20.3790 C   0  0  0  0  0  2  0  0  0  0  0  0
  -32.3120  -22.8790   19.3390 C   0  0  0  0  0  1  0  0  0  0  0  0
  -31.7750  -22.5550   20.7450 C   0  0  0  0  0  2  0  0  0  0  0  0
  -27.3890  -18.8570   19.9820 C   0  0  0  0  0  2  0  0  0  0  0  0
  -27.8460  -17.8390   18.8950 C   0  0  0  0  0  3  0  0  0  0  0  0
  -29.7070  -16.3560   17.8820 C   0  0  0  0  0  1  0  0  0  0  0  0
  -29.2830  -17.2690   19.0430 C   0  0  0  0  0  0  0  0  0  0  0  0
  -28.9780  -23.7200   20.4270 C   0  0  0  0  0  2  0  0  0  0  0  0
  -29.6250  -24.7310   21.4280 C   0  0  0  0  0  3  0  0  0  0  0  0
  -29.5590  -24.1250   23.9440 C   0  0  0  0  0  1  0  0  0  0  0  0
  -30.3660  -24.0940   22.6390 C   0  0  0  0  0  2  0  0  0  0  0  0
  -30.4640  -25.8240   20.7050 C   0  0  0  0  0  2  0  0  0  0  0  0
  -30.1090  -27.1530   21.1080 O   0  0  0  0  0  0  0  0  0  0  0  0
  -25.1440  -31.6310   23.4760 C   0  0  0  0  0  0  0  0  0  0  0  0
  -28.8260  -27.6300   20.9100 C   0  0  0  0  0  0  0  0  0  0  0  0
  -24.4020  -30.0720   21.7040 C   0  0  0  0  0  3  0  0  0  0  0  0
  -26.2540  -28.7660   20.5370 C   0  0  0  0  0  0  0  0  0  0  0  0
  -26.8480  -30.8000   21.8600 C   0  0  0  0  0  2  0  0  0  0  0  0
  -27.2240  -29.4560   21.2700 C   0  0  0  0  0  0  0  0  0  0  0  0
  -28.5070  -28.8960   21.4540 C   0  0  0  0  0  3  0  0  0  0  0  0
  -27.8250  -26.9410   20.1800 C   0  0  0  0  0  3  0  0  0  0  0  0
  -26.5520  -27.5060   19.9900 C   0  0  0  0  0  3  0  0  0  0  0  0
  -24.9050  -29.4310   20.3820 C   0  0  0  0  0  2  0  0  0  0  0  0
  -25.4720  -30.8510   22.4080 N   0  0  0  0  0  0  0  0  0  0  0  0
  -23.9690  -31.7410   23.8500 O   0  0  0  0  0  0  0  0  0  0  0  0
  -23.7740  -28.9620   22.5790 C   0  0  0  0  0  0  0  0  0  0  0  0
  -22.5370  -28.5630   22.2440 N   0  0  0  0  0  0  0  0  0  0  0  0
  -24.4050  -28.4620   23.5130 O   0  0  0  0  0  0  0  0  0  0  0  0
  -22.0830  -29.0300   21.4720 H   0  0  0  0  0  0  0  0  0  0  0  0
  -19.3430  -26.8990   22.2670 C   0  0  0  0  0  0  0  0  0  0  0  0
  -21.7710  -27.5120   22.9130 C   0  0  0  0  0  3  0  0  0  0  0  0
  -22.1550  -26.1120   22.3770 C   0  0  0  0  0  2  0  0  0  0  0  0
  -21.2780  -25.6520   21.2060 C   0  0  0  0  0  2  0  0  0  0  0  0
  -19.8000  -25.6050   21.6090 C   0  0  0  0  0  2  0  0  0  0  0  0
  -20.2690  -27.8020   22.8590 C   0  0  0  0  0  0  0  0  0  0  0  0
  -19.7930  -29.0090   23.4110 C   0  0  0  0  0  3  0  0  0  0  0  0
  -18.4210  -29.3200   23.3910 C   0  0  0  0  0  3  0  0  0  0  0  0
  -17.5100  -28.4190   22.8210 C   0  0  0  0  0  3  0  0  0  0  0  0
  -17.9670  -27.2100   22.2630 C   0  0  0  0  0  3  0  0  0  0  0  0
  -26.2220  -32.4420   24.2580 C   0  0  0  0  0  3  0  0  0  0  0  0
  -26.6510  -31.7580   25.6150 C   0  0  1  0  0  0  0  0  0  0  0  0
  -25.4570  -31.2850   26.4750 C   0  0  0  0  0  1  0  0  0  0  0  0
  -27.5580  -30.5340   25.3500 C   0  0  0  0  0  1  0  0  0  0  0  0
  -27.4830  -32.7490   26.4630 C   0  0  0  0  0  1  0  0  0  0  0  0
  -25.6800  -33.7850   24.5000 N   0  0  0  0  0  0  0  0  0  0  0  0
  -25.9360  -34.8570   23.7380 C   0  0  0  0  0  0  0  0  0  0  0  0
  -26.7260  -34.8320   22.7890 O   0  0  0  0  0  0  0  0  0  0  0  0
  -24.9840  -33.8680   25.2280 H   0  0  0  0  0  0  0  0  0  0  0  0
  -23.9850  -36.3320   23.1630 C   0  0  0  0  0  1  0  0  0  0  0  0
  -25.2030  -36.1680   24.0840 C   0  0  0  0  0  3  0  0  0  0  0  0
  -27.1160  -37.3990   25.0030 C   0  0  0  0  0  1  0  0  0  0  0  0
  -26.0650  -37.3650   23.9900 N   0  0  0  0  0  0  0  0  0  0  0  0
  -25.5150  -38.2130   24.0820 H   0  0  0  0  0  0  0  0  0  0  0  0
  -30.2910  -18.0020   20.3030 C   0  0  0  0  0  3  0  0  0  0  0  0
  -31.0550  -17.2580   21.4480 C   0  0  0  0  0  2  0  0  0  0  0  0
  -31.6910  -14.8340   20.8040 C   0  0  0  0  0  0  0  0  0  0  0  0
  -31.4400  -12.6950   19.5820 C   0  0  0  0  0  2  0  0  0  0  0  0
  -30.5110  -12.9300   18.3700 C   0  0  0  0  0  2  0  0  0  0  0  0
  -29.0230  -12.8340   18.7690 C   0  0  0  0  0  2  0  0  0  0  0  0
  -28.6910  -13.6450   20.0480 C   0  0  0  0  0  3  0  0  0  0  0  0
  -29.7130  -13.3310   21.1630 C   0  0  0  0  0  2  0  0  0  0  0  0
  -31.0510  -13.6450   20.6340 N   0  0  0  0  0  0  0  0  0  0  0  0
  -32.8260  -15.0570   20.3770 O   0  0  0  0  0  0  0  0  0  0  0  0
  -30.8950  -15.7910   21.3300 N   0  0  0  0  0  0  0  0  0  0  0  0
  -29.9960  -15.4370   21.6160 H   0  0  0  0  0  0  0  0  0  0  0  0
  -26.3440  -14.3510   20.8240 C   0  0  0  0  0  0  0  0  0  0  0  0
  -25.2170  -13.6290   21.1090 C   0  0  0  0  0  0  0  0  0  0  0  0
  -25.5710  -12.2590   20.9140 C   0  0  0  0  0  0  0  0  0  0  0  0
  -27.3180  -13.4230   20.4920 N   0  0  0  0  0  0  0  0  0  0  0  0
  -26.8540  -12.1530   20.5960 N   0  0  0  0  0  0  0  0  0  0  0  0
  -24.7500  -11.0460   20.9540 C   0  0  0  0  0  0  0  0  0  0  0  0
  -25.1340   -9.9240   21.7220 C   0  0  0  0  0  3  0  0  0  0  0  0
  -24.3190   -8.7730   21.7570 C   0  0  0  0  0  3  0  0  0  0  0  0
  -23.1080   -8.7360   21.0230 C   0  0  0  0  0  0  0  0  0  0  0  0
  -22.7460   -9.8460   20.2430 C   0  0  0  0  0  3  0  0  0  0  0  0
  -23.5610  -10.9910   20.2000 C   0  0  0  0  0  3  0  0  0  0  0  0
  -22.2710   -7.6470   20.9770 O   0  0  0  0  0  0  0  0  0  0  0  0
  -22.1560   -6.7860   22.0390 C   0  0  0  0  0  0  0  0  0  0  0  0
  -21.7940   -7.2340   23.3290 C   0  0  0  0  0  3  0  0  0  0  0  0
  -21.6150   -6.3050   24.3730 C   0  0  0  0  0  3  0  0  0  0  0  0
  -21.7940   -4.9290   24.1300 C   0  0  0  0  0  0  0  0  0  0  0  0
  -22.1490   -4.4790   22.8460 C   0  0  0  0  0  3  0  0  0  0  0  0
  -22.3270   -5.4060   21.8030 C   0  0  0  0  0  0  0  0  0  0  0  0
  -22.6480   -4.9670   20.5620 F   0  0  0  0  0  0  0  0  0  0  0  0
  -21.6170   -4.0360   25.1310 F   0  0  0  0  0  0  0  0  0  0  0  0
  -23.8620  -14.1780   21.4450 C   0  0  0  0  0  0  0  0  0  0  0  0
  -23.0930  -13.4540   22.2540 N   0  0  0  0  0  0  0  0  0  0  0  0
  -23.4930  -15.2740   21.0270 O   0  0  0  0  0  0  0  0  0  0  0  0
  -23.4030  -12.5600   22.6070 H   0  0  0  0  0  0  0  0  0  0  0  0
  -22.1780  -13.7900   22.5200 H   0  0  0  0  0  0  0  0  0  0  0  0
  -26.6240  -15.7120   20.8050 N   0  0  0  0  0  0  0  0  0  0  0  0
  -25.9290  -16.4160   21.0160 H   0  0  0  0  0  0  0  0  0  0  0  0
  -27.5120  -16.0970   20.5180 H   0  0  0  0  0  0  0  0  0  0  0  0
  1  3  1  0
  2  1  2  0
  2  4  1  0
  3  5  2  0
  4  6  2  0
  5  6  1  0
  5 10  1  0
  7  8  1  0
  8  1  1  0
  9 10  1  0
 11  2  1  0
 12 14  2  0
 12 11  1  0
 13 14  1  0
 14 61  1  0
 15  3  1  0
 16 15  1  0
 16 18  1  0
 18 17  1  0
 19 20  1  0
 19 16  1  0
 21 32  2  0
 22 20  1  0
 22 27  1  0
 23 31  1  0
 23 33  1  0
 24 26  1  0
 25 31  1  0
 26 27  2  0
 26 25  1  0
 28 22  2  0
 29 28  1  0
 29 24  2  0
 30 24  1  0
 30 23  1  0
 31 21  1  0
 33 35  2  0
 34 33  1  0
 36 34  1  0
 37 42  1  0
 38 34  1  0
 39 38  1  0
 40 41  1  0
 40 39  1  0
 41 37  1  0
 42 38  1  0
 42 43  2  0
 44 43  1  0
 45 44  2  0
 46 37  2  0
 46 45  1  0
 47 21  1  0
 47 52  1  0
 47 48  1  0
 48 51  1  1
 48 49  1  0
 50 48  1  0
 52 55  1  0
 53 57  1  0
 53 52  1  0
 54 53  2  0
 57 56  1  0
 59 60  1  0
 59 57  1  0
 59 58  1  0
 61  4  1  0
 61 62  1  0
 63 71  1  0
 64 69  1  0
 65 66  1  0
 65 64  1  0
 67 66  1  0
 67 76  1  0
 67 68  1  0
 69 63  1  0
 69 68  1  0
 70 63  2  0
 71 62  1  0
 71 72  1  0
 73 74  2  0
 74 93  1  0
 75 78  1  0
 75 74  1  0
 76 77  1  0
 76 73  1  0
 77 75  2  0
 78 79  1  0
 79 80  2  0
 81 80  1  0
 82 81  2  0
 83 82  1  0
 83 78  2  0
 84 81  1  0
 84 85  1  0
 85 86  1  0
 86 87  2  0
 88 87  1  0
 88 92  1  0
 89 88  2  0
 90 85  2  0
 90 89  1  0
 91 90  1  0
 93 94  1  0
 94 97  1  0
 94 96  1  0
 95 93  2  0
 98 73  1  0
 98 99  1  0
100 98  1  0
M  ISO  4  19 101  20 101  63 100  71 100
M  END
>  <TORSDO>  (51) 
F 27

>  <SCORE>  (51) 
-7.510

>  <name>  (51) 
51

>  <ligand_id>  (51) 
51

>  <original_smiles>  (51) 
[H]c1c([H])c([H])c2c(c1[H])C([H])([H])C([H])([H])C([H])([H])C2([H])N([H])C(=O)C1([H])N(C(=O)C([H])(N([H])C(=O)C([H])(N([H])C([H])([H])[H])C([H])([H])[H])C(C([H])([H])[H])(C([H])([H])[H])C([H])([H])[H])C([H])([H])c2c([H])c(OC([H])([H])C([H])(C([H])([H])c3c(C([H])([H])C([H])([H])[H])nc(C([H])([H])C([H])([H])N([H])C(=O)N4C([H])([H])C([H])([H])C([H])([H])C([H])(n5nc(-c6c([H])c([H])c(Oc7c([H])c([H])c(F)c([H])c7F)c([H])c6[H])c(C(=O)N([H])[H])c5N([H])[H])C4([H])[H])c(C([H])([H])C([H])([H])C([H])([H])C([H])([H])[H])c3C([H])([H])C([H])([H])[H])C([H])([H])C([H])([H])[H])c([H])c([H])c2C1([H])[H]

>  <smiles>  (51) 
[H]c1c([H])c([H])c2c(c1[H])C([H])([H])C([H])([H])C([H])([H])C2([H])N([H])C(=O)C1([H])N(C(=O)C([H])(N([H])C(=O)C([H])(N([H])C([H])([H])[H])C([H])([H])[H])C(C([H])([H])[H])(C([H])([H])[H])C([H])([H])[H])C([H])([H])c2c([H])c(OC([H])([H])C([H])(C([H])([H])c3c(C([H])([H])C([H])([H])[H])nc(C([H])([H])C([H])([H])N([H])C(=O)N4C([H])([H])C([H])([H])C([H])([H])C([H])(n5nc(-c6c([H])c([H])c(Oc7c([H])c([H])c(F)c([H])c7F)c([H])c6[H])c(C(=O)N([H])[H])c5N([H])[H])C4([H])[H])c(C([H])([H])C([H])([H])C([H])([H])C([H])([H])[H])c3C([H])([H])C([H])([H])[H])C([H])([H])C([H])([H])[H])c([H])c([H])c2C1([H])[H]

$$$$
52:0:0
     RDKit          3D

 93101  0  0  1  0  0  0  0  0999 V2000
  -28.2210  -22.0390   21.3400 C   0  0  0  0  0  0  0  0  0  0  0  0
  -29.3260  -21.7680   20.5630 C   0  0  0  0  0  0  0  0  0  0  0  0
  -27.7640  -20.8620   21.9210 N   0  0  0  0  0  0  0  0  0  0  0  0
  -28.4550  -19.8620   21.4960 N   0  0  0  0  0  0  0  0  0  0  0  0
  -29.4270  -20.3170   20.6670 N   0  0  0  0  0  0  0  0  0  0  0  0
  -27.5180  -23.3560   21.5980 C   0  0  0  0  0  2  0  0  0  0  0  0
  -25.9930  -23.3950   21.3560 C   0  0  0  0  0  2  0  0  0  0  0  0
  -24.0390  -24.3090   19.9850 C   0  0  0  0  0  1  0  0  0  0  0  0
  -25.5470  -24.0200   20.0210 C   0  0  0  0  0  2  0  0  0  0  0  0
  -30.1480  -22.8310   19.7510 C   0  0  0  0  0  2  0  0  0  0  0  0
  -30.1540  -24.4180   20.1410 C   0  0  0  0  0  3  0  0  0  0  0  0
  -29.0930  -25.4840   19.5530 C   0  0  0  0  0  3  0  0  0  0  0  0
  -29.1410  -26.9370   19.9390 O   0  0  0  0  0  0  0  0  0  0  0  0
  -24.7790  -31.7140   23.2350 C   0  0  0  0  0  0  0  0  0  0  0  0
  -27.9480  -27.6980   19.9110 C   0  0  0  0  0  0  0  0  0  0  0  0
  -23.7770  -30.3370   21.4480 C   0  0  0  0  0  3  0  0  0  0  0  0
  -25.4240  -29.0750   19.9510 C   0  0  0  0  0  0  0  0  0  0  0  0
  -26.2770  -30.9270   21.3840 C   0  0  0  0  0  2  0  0  0  0  0  0
  -26.5220  -29.6240   20.6250 C   0  0  0  0  0  0  0  0  0  0  0  0
  -27.7860  -28.9510   20.5920 C   0  0  0  0  0  3  0  0  0  0  0  0
  -26.8170  -27.2150   19.2120 C   0  0  0  0  0  3  0  0  0  0  0  0
  -25.5770  -27.8790   19.2340 C   0  0  0  0  0  3  0  0  0  0  0  0
  -24.1000  -29.8070   20.0270 C   0  0  0  0  0  2  0  0  0  0  0  0
  -24.9600  -31.0070   22.0800 N   0  0  0  0  0  0  0  0  0  0  0  0
  -23.6580  -31.8320   23.7500 O   0  0  0  0  0  0  0  0  0  0  0  0
  -23.2020  -29.1800   22.2990 C   0  0  0  0  0  0  0  0  0  0  0  0
  -21.9060  -28.8810   22.1160 N   0  0  0  0  0  0  0  0  0  0  0  0
  -23.9220  -28.5580   23.0840 O   0  0  0  0  0  0  0  0  0  0  0  0
  -21.3800  -29.4450   21.4630 H   0  0  0  0  0  0  0  0  0  0  0  0
  -18.6530  -27.3190   22.4200 C   0  0  0  0  0  0  0  0  0  0  0  0
  -21.1690  -27.8030   22.7800 C   0  0  0  0  0  3  0  0  0  0  0  0
  -21.4230  -26.4430   22.0900 C   0  0  0  0  0  2  0  0  0  0  0  0
  -20.3790  -26.1020   21.0210 C   0  0  0  0  0  2  0  0  0  0  0  0
  -18.9770  -26.0560   21.6370 C   0  0  0  0  0  2  0  0  0  0  0  0
  -19.6840  -28.1470   22.9420 C   0  0  0  0  0  0  0  0  0  0  0  0
  -19.3300  -29.3250   23.6340 C   0  0  0  0  0  3  0  0  0  0  0  0
  -17.9800  -29.6800   23.8090 C   0  0  0  0  0  3  0  0  0  0  0  0
  -16.9640  -28.8480   23.3060 C   0  0  0  0  0  3  0  0  0  0  0  0
  -17.3020  -27.6710   22.6150 C   0  0  0  0  0  3  0  0  0  0  0  0
  -25.9690  -32.4260   23.9480 C   0  0  0  0  0  3  0  0  0  0  0  0
  -25.5290  -33.7860   24.2930 N   0  0  0  0  0  0  0  0  0  0  0  0
  -25.8160  -34.8850   23.5820 C   0  0  0  0  0  0  0  0  0  0  0  0
  -26.5480  -34.8640   22.5880 O   0  0  0  0  0  0  0  0  0  0  0  0
  -24.8810  -33.8700   25.0640 H   0  0  0  0  0  0  0  0  0  0  0  0
  -23.9570  -36.5370   23.1910 C   0  0  0  0  0  1  0  0  0  0  0  0
  -25.1940  -36.2160   24.0460 C   0  0  0  0  0  3  0  0  0  0  0  0
  -27.2120  -37.2540   24.9820 C   0  0  0  0  0  1  0  0  0  0  0  0
  -26.1360  -37.3550   24.0000 N   0  0  0  0  0  0  0  0  0  0  0  0
  -25.6470  -38.2320   24.1580 H   0  0  0  0  0  0  0  0  0  0  0  0
  -26.4680  -31.6620   25.2370 C   0  0  1  0  0  0  0  0  0  0  0  0
  -25.3350  -31.3150   26.2310 C   0  0  0  0  0  1  0  0  0  0  0  0
  -27.1760  -30.3420   24.8550 C   0  0  0  0  0  1  0  0  0  0  0  0
  -27.5170  -32.5220   25.9820 C   0  0  0  0  0  1  0  0  0  0  0  0
  -30.2350  -19.1950   20.0290 C   0  0  0  0  0  2  0  0  0  0  0  0
  -30.6910  -17.9010   20.9240 C   0  0  0  0  0  2  0  0  0  0  0  0
  -30.9300  -15.3220   20.4170 C   0  0  0  0  0  0  0  0  0  0  0  0
  -30.7330  -13.0710   19.3420 C   0  0  0  0  0  2  0  0  0  0  0  0
  -29.8100  -13.1460   18.1070 C   0  0  0  0  0  2  0  0  0  0  0  0
  -28.3370  -12.9590   18.5170 C   0  0  0  0  0  2  0  0  0  0  0  0
  -27.9400  -13.8310   19.7370 C   0  0  0  0  0  3  0  0  0  0  0  0
  -28.9830  -13.7420   20.8720 C   0  0  0  0  0  2  0  0  0  0  0  0
  -30.2840  -14.1110   20.2980 N   0  0  0  0  0  0  0  0  0  0  0  0
  -32.1230  -15.4100   20.1190 O   0  0  0  0  0  0  0  0  0  0  0  0
  -30.1930  -16.4690   20.6820 N   0  0  0  0  0  0  0  0  0  0  0  0
  -29.2080  -16.3190   20.8400 H   0  0  0  0  0  0  0  0  0  0  0  0
  -25.5440  -14.3910   20.4620 C   0  0  0  0  0  0  0  0  0  0  0  0
  -24.4720  -13.6020   20.7800 C   0  0  0  0  0  0  0  0  0  0  0  0
  -24.9320  -12.2530   20.6900 C   0  0  0  0  0  0  0  0  0  0  0  0
  -26.5910  -13.5210   20.2000 N   0  0  0  0  0  0  0  0  0  0  0  0
  -26.2270  -12.2270   20.4000 N   0  0  0  0  0  0  0  0  0  0  0  0
  -24.2000  -10.9860   20.8080 C   0  0  0  0  0  0  0  0  0  0  0  0
  -24.6280   -9.9630   21.6830 C   0  0  0  0  0  3  0  0  0  0  0  0
  -23.8950   -8.7600   21.7930 C   0  0  0  0  0  3  0  0  0  0  0  0
  -22.7200   -8.5730   21.0270 C   0  0  0  0  0  0  0  0  0  0  0  0
  -22.3110   -9.5850   20.1410 C   0  0  0  0  0  3  0  0  0  0  0  0
  -23.0440  -10.7780   20.0290 C   0  0  0  0  0  3  0  0  0  0  0  0
  -21.9600   -7.4280   21.0490 O   0  0  0  0  0  0  0  0  0  0  0  0
  -21.9080   -6.6200   22.1570 C   0  0  0  0  0  0  0  0  0  0  0  0
  -21.5120   -7.1120   23.4190 C   0  0  0  0  0  3  0  0  0  0  0  0
  -21.4050   -6.2340   24.5160 C   0  0  0  0  0  3  0  0  0  0  0  0
  -21.6840   -4.8640   24.3520 C   0  0  0  0  0  0  0  0  0  0  0  0
  -22.0730   -4.3710   23.0930 C   0  0  0  0  0  3  0  0  0  0  0  0
  -22.1820   -5.2460   22.0000 C   0  0  0  0  0  0  0  0  0  0  0  0
  -22.5360   -4.7620   20.7850 F   0  0  0  0  0  0  0  0  0  0  0  0
  -21.5740   -4.0180   25.4030 F   0  0  0  0  0  0  0  0  0  0  0  0
  -23.0720  -14.0700   21.0550 C   0  0  0  0  0  0  0  0  0  0  0  0
  -22.3420  -13.3510   21.8990 N   0  0  0  0  0  0  0  0  0  0  0  0
  -22.6350  -15.1080   20.5570 O   0  0  0  0  0  0  0  0  0  0  0  0
  -22.7080  -12.5100   22.3170 H   0  0  0  0  0  0  0  0  0  0  0  0
  -21.4050  -13.6470   22.1310 H   0  0  0  0  0  0  0  0  0  0  0  0
  -25.7120  -15.7680   20.3520 N   0  0  0  0  0  0  0  0  0  0  0  0
  -24.9440  -16.4170   20.4860 H   0  0  0  0  0  0  0  0  0  0  0  0
  -26.5600  -16.2200   20.0340 H   0  0  0  0  0  0  0  0  0  0  0  0
  1  6  1  0
  1  3  1  0
  2  5  1  0
  2  1  2  0
  4  3  2  0
  5  4  1  0
  7  6  1  0
  8  9  1  0
  9  7  1  0
 10 11  1  0
 10  2  1  0
 12 13  1  0
 12 11  2  0
 14 25  2  0
 15 13  1  0
 15 20  1  0
 16 24  1  0
 16 26  1  0
 17 23  1  0
 17 19  1  0
 18 24  1  0
 19 18  1  0
 20 19  2  0
 21 22  1  0
 21 15  2  0
 22 17  2  0
 23 16  1  0
 24 14  1  0
 26 28  2  0
 27 26  1  0
 29 27  1  0
 30 39  2  0
 30 35  1  0
 31 27  1  0
 31 35  1  0
 32 31  1  0
 33 34  1  0
 33 32  1  0
 34 30  1  0
 35 36  2  0
 36 37  1  0
 38 37  2  0
 39 38  1  0
 40 14  1  0
 40 41  1  0
 40 50  1  0
 41 44  1  0
 42 46  1  0
 42 41  1  0
 43 42  2  0
 46 45  1  0
 48 46  1  0
 48 49  1  0
 48 47  1  0
 50 53  1  1
 50 51  1  0
 52 50  1  0
 54  5  1  0
 54 55  1  0
 56 64  1  0
 57 62  1  0
 58 59  1  0
 58 57  1  0
 60 59  1  0
 60 69  1  0
 60 61  1  0
 62 56  1  0
 62 61  1  0
 63 56  2  0
 64 65  1  0
 64 55  1  0
 66 67  2  0
 67 86  1  0
 68 67  1  0
 68 71  1  0
 69 70  1  0
 69 66  1  0
 70 68  2  0
 71 72  1  0
 72 73  2  0
 74 77  1  0
 74 73  1  0
 75 74  2  0
 76 75  1  0
 76 71  2  0
 77 78  1  0
 78 79  1  0
 79 80  2  0
 81 80  1  0
 81 85  1  0
 82 81  2  0
 83 78  2  0
 83 82  1  0
 84 83  1  0
 86 87  1  0
 87 90  1  0
 87 89  1  0
 88 86  2  0
 91 66  1  0
 91 92  1  0
 93 91  1  0
M  ISO  4  12 101  13 101  56 100  64 100
M  END
>  <TORSDO>  (52) 
F 24

>  <SCORE>  (52) 
-9.568

>  <name>  (52) 
52

>  <ligand_id>  (52) 
52

>  <original_smiles>  (52) 
[H]c1c([H])c([H])c2c(c1[H])C([H])([H])C([H])([H])C([H])([H])C2([H])N([H])C(=O)C1([H])N(C(=O)C([H])(N([H])C(=O)C([H])(N([H])C([H])([H])[H])C([H])([H])[H])C(C([H])([H])[H])(C([H])([H])[H])C([H])([H])[H])C([H])([H])c2c([H])c(OC([H])([H])C([H])([H])C([H])([H])c3c(C([H])([H])C([H])([H])C([H])([H])C([H])([H])[H])nnn3C([H])([H])C([H])([H])N([H])C(=O)N3C([H])([H])C([H])([H])C([H])([H])C([H])(n4nc(-c5c([H])c([H])c(Oc6c([H])c([H])c(F)c([H])c6F)c([H])c5[H])c(C(=O)N([H])[H])c4N([H])[H])C3([H])[H])c([H])c([H])c2C1([H])[H]

>  <smiles>  (52) 
[H]c1c([H])c([H])c2c(c1[H])C([H])([H])C([H])([H])C([H])([H])C2([H])N([H])C(=O)C1([H])N(C(=O)C([H])(N([H])C(=O)C([H])(N([H])C([H])([H])[H])C([H])([H])[H])C(C([H])([H])[H])(C([H])([H])[H])C([H])([H])[H])C([H])([H])c2c([H])c(OC([H])([H])C([H])([H])C([H])([H])c3c(C([H])([H])C([H])([H])C([H])([H])C([H])([H])[H])nnn3C([H])([H])C([H])([H])N([H])C(=O)N3C([H])([H])C([H])([H])C([H])([H])C([H])(n4nc(-c5c([H])c([H])c(Oc6c([H])c([H])c(F)c([H])c6F)c([H])c5[H])c(C(=O)N([H])[H])c4N([H])[H])C3([H])[H])c([H])c([H])c2C1([H])[H]

$$$$
53:0:0
     RDKit          3D

 96104  0  0  1  0  0  0  0  0999 V2000
  -30.3660  -22.4620   19.2380 C   0  0  0  0  0  3  0  0  0  0  0  0
  -29.4670  -23.5760   18.9650 C   0  0  0  0  0  0  0  0  0  0  0  0
  -29.9020  -21.6560   20.2550 C   0  0  0  0  0  0  0  0  0  0  0  0
  -28.4080  -23.3420   19.8220 C   0  0  0  0  0  0  0  0  0  0  0  0
  -27.0590  -24.0330   19.8780 C   0  0  0  0  0  1  0  0  0  0  0  0
  -28.7340  -22.2810   20.6870 N   0  0  0  0  0  0  0  0  0  0  0  0
  -28.5830  -24.3000   16.6570 C   0  0  0  0  0  1  0  0  0  0  0  0
  -30.9630  -24.3970   17.1610 C   0  0  0  0  0  1  0  0  0  0  0  0
  -29.5780  -24.6470   17.7890 C   0  0  2  0  0  0  0  0  0  0  0  0
  -29.5780  -26.2490   18.0170 C   0  0  0  0  0  2  0  0  0  0  0  0
  -29.0530  -27.0280   19.1230 O   0  0  0  0  0  0  0  0  0  0  0  0
  -24.7410  -31.4370   22.7540 C   0  0  0  0  0  0  0  0  0  0  0  0
  -27.8420  -27.7150   19.0930 C   0  0  0  0  0  0  0  0  0  0  0  0
  -23.6640  -30.0260   21.0430 C   0  0  0  0  0  3  0  0  0  0  0  0
  -25.2420  -28.8800   19.3700 C   0  0  0  0  0  0  0  0  0  0  0  0
  -26.0980  -30.7660   20.7600 C   0  0  0  0  0  2  0  0  0  0  0  0
  -26.3480  -29.4930   19.9680 C   0  0  0  0  0  0  0  0  0  0  0  0
  -27.6420  -28.9160   19.8390 C   0  0  0  0  0  3  0  0  0  0  0  0
  -26.7110  -27.1230   18.4970 C   0  0  0  0  0  3  0  0  0  0  0  0
  -25.4280  -27.6970   18.6260 C   0  0  0  0  0  3  0  0  0  0  0  0
  -23.8830  -29.5280   19.5870 C   0  0  0  0  0  2  0  0  0  0  0  0
  -24.8560  -30.7520   21.5800 N   0  0  0  0  0  0  0  0  0  0  0  0
  -23.6640  -31.4960   23.3630 O   0  0  0  0  0  0  0  0  0  0  0  0
  -23.2230  -28.8330   21.9180 C   0  0  0  0  0  0  0  0  0  0  0  0
  -21.9440  -28.4370   21.7920 N   0  0  0  0  0  0  0  0  0  0  0  0
  -24.0240  -28.2700   22.6690 O   0  0  0  0  0  0  0  0  0  0  0  0
  -21.3490  -28.9470   21.1530 H   0  0  0  0  0  0  0  0  0  0  0  0
  -18.8540  -26.6000   22.2330 C   0  0  0  0  0  0  0  0  0  0  0  0
  -21.3260  -27.3120   22.4960 C   0  0  0  0  0  3  0  0  0  0  0  0
  -21.6810  -25.9750   21.8110 C   0  0  0  0  0  2  0  0  0  0  0  0
  -20.6300  -25.5180   20.7910 C   0  0  0  0  0  2  0  0  0  0  0  0
  -19.2600  -25.3570   21.4560 C   0  0  0  0  0  2  0  0  0  0  0  0
  -19.8260  -27.5210   22.7060 C   0  0  0  0  0  0  0  0  0  0  0  0
  -19.4010  -28.6730   23.4020 C   0  0  0  0  0  3  0  0  0  0  0  0
  -18.0350  -28.9210   23.6200 C   0  0  0  0  0  3  0  0  0  0  0  0
  -17.0740  -28.0050   23.1560 C   0  0  0  0  0  3  0  0  0  0  0  0
  -17.4840  -26.8440   22.4750 C   0  0  0  0  0  3  0  0  0  0  0  0
  -25.9530  -32.1990   23.3750 C   0  0  0  0  0  3  0  0  0  0  0  0
  -25.4440  -33.4690   23.9140 N   0  0  0  0  0  0  0  0  0  0  0  0
  -25.5700  -34.6590   23.3120 C   0  0  0  0  0  0  0  0  0  0  0  0
  -26.2030  -34.8150   22.2660 O   0  0  0  0  0  0  0  0  0  0  0  0
  -24.8650  -33.4160   24.7390 H   0  0  0  0  0  0  0  0  0  0  0  0
  -23.5650  -36.1830   23.2630 C   0  0  0  0  0  1  0  0  0  0  0  0
  -24.8890  -35.8710   23.9800 C   0  0  0  0  0  3  0  0  0  0  0  0
  -26.8890  -36.9580   24.8920 C   0  0  0  0  0  1  0  0  0  0  0  0
  -25.7340  -37.0830   24.0070 N   0  0  0  0  0  0  0  0  0  0  0  0
  -25.1950  -37.8920   24.3020 H   0  0  0  0  0  0  0  0  0  0  0  0
  -26.6930  -31.3680   24.4930 C   0  0  1  0  0  0  0  0  0  0  0  0
  -25.7410  -30.8270   25.5840 C   0  0  0  0  0  1  0  0  0  0  0  0
  -27.4590  -30.1630   23.8820 C   0  0  0  0  0  1  0  0  0  0  0  0
  -27.7430  -32.2630   25.1930 C   0  0  0  0  0  1  0  0  0  0  0  0
  -30.5290  -20.3940   20.9150 C   0  0  0  0  0  2  0  0  0  0  0  0
  -30.0100  -18.9450   20.5570 C   0  0  0  0  0  3  0  0  0  0  0  0
  -30.8430  -17.7460   21.1620 C   0  0  0  0  0  3  0  0  0  0  0  0
  -31.0320  -15.2490   20.5730 C   0  0  0  0  0  0  0  0  0  0  0  0
  -30.7890  -13.0270   19.4850 C   0  0  0  0  0  2  0  0  0  0  0  0
  -29.9040  -13.1490   18.2270 C   0  0  0  0  0  2  0  0  0  0  0  0
  -28.4230  -12.9600   18.6120 C   0  0  0  0  0  2  0  0  0  0  0  0
  -28.0030  -13.8520   19.8140 C   0  0  0  0  0  3  0  0  0  0  0  0
  -29.0240  -13.7470   20.9720 C   0  0  0  0  0  2  0  0  0  0  0  0
  -30.3550  -14.0680   20.4370 N   0  0  0  0  0  0  0  0  0  0  0  0
  -32.2070  -15.3630   20.2250 O   0  0  0  0  0  0  0  0  0  0  0  0
  -30.3270  -16.3520   20.9450 N   0  0  0  0  0  0  0  0  0  0  0  0
  -29.3710  -16.1790   21.2060 H   0  0  0  0  0  0  0  0  0  0  0  0
  -25.5910  -14.4320   20.4950 C   0  0  0  0  0  0  0  0  0  0  0  0
  -24.5110  -13.6440   20.8110 C   0  0  0  0  0  0  0  0  0  0  0  0
  -24.9720  -12.2980   20.7390 C   0  0  0  0  0  0  0  0  0  0  0  0
  -26.6400  -13.5560   20.2610 N   0  0  0  0  0  0  0  0  0  0  0  0
  -26.2710  -12.2650   20.4650 N   0  0  0  0  0  0  0  0  0  0  0  0
  -24.2370  -11.0310   20.8640 C   0  0  0  0  0  0  0  0  0  0  0  0
  -24.6340  -10.0320   21.7790 C   0  0  0  0  0  3  0  0  0  0  0  0
  -23.9010   -8.8290   21.8920 C   0  0  0  0  0  3  0  0  0  0  0  0
  -22.7560   -8.6170   21.0880 C   0  0  0  0  0  0  0  0  0  0  0  0
  -22.3800   -9.6040   20.1610 C   0  0  0  0  0  3  0  0  0  0  0  0
  -23.1150  -10.7960   20.0450 C   0  0  0  0  0  3  0  0  0  0  0  0
  -21.9990   -7.4680   21.1070 O   0  0  0  0  0  0  0  0  0  0  0  0
  -21.8910   -6.7010   22.2390 C   0  0  0  0  0  0  0  0  0  0  0  0
  -21.4020   -7.2280   23.4560 C   0  0  0  0  0  3  0  0  0  0  0  0
  -21.2330   -6.3840   24.5720 C   0  0  0  0  0  3  0  0  0  0  0  0
  -21.5530   -5.0160   24.4790 C   0  0  0  0  0  0  0  0  0  0  0  0
  -22.0410   -4.4900   23.2680 C   0  0  0  0  0  3  0  0  0  0  0  0
  -22.2060   -5.3310   22.1540 C   0  0  0  0  0  0  0  0  0  0  0  0
  -22.6520   -4.8110   20.9840 F   0  0  0  0  0  0  0  0  0  0  0  0
  -21.3880   -4.2060   25.5490 F   0  0  0  0  0  0  0  0  0  0  0  0
  -23.1100  -14.1190   21.0640 C   0  0  0  0  0  0  0  0  0  0  0  0
  -22.3490  -13.3910   21.8780 N   0  0  0  0  0  0  0  0  0  0  0  0
  -22.6860  -15.1570   20.5660 O   0  0  0  0  0  0  0  0  0  0  0  0
  -22.6910  -12.5430   22.3030 H   0  0  0  0  0  0  0  0  0  0  0  0
  -21.4120  -13.7030   22.0910 H   0  0  0  0  0  0  0  0  0  0  0  0
  -25.7540  -15.8070   20.3790 N   0  0  0  0  0  0  0  0  0  0  0  0
  -24.9700  -16.4450   20.4760 H   0  0  0  0  0  0  0  0  0  0  0  0
  -26.6070  -16.2690   20.0810 H   0  0  0  0  0  0  0  0  0  0  0  0
  -27.9580  -21.8650   21.8530 C   0  0  0  0  0  2  0  0  0  0  0  0
  -27.2250  -24.1110   22.8840 C   0  0  0  0  0  1  0  0  0  0  0  0
  -29.4890  -23.2210   23.4390 C   0  0  0  0  0  1  0  0  0  0  0  0
  -28.0500  -22.8280   23.0680 C   0  0  0  0  0  3  0  0  0  0  0  0
  1  3  2  0
  2  1  1  0
  2  4  2  0
  3  6  1  0
  3 52  1  0
  4  5  1  0
  4  6  1  0
  6 93  1  0
  9  7  1  6
  8  9  1  0
  9 10  1  0
  9  2  1  0
 10 11  1  0
 12 23  2  0
 13 11  1  0
 13 18  1  0
 14 22  1  0
 14 24  1  0
 15 21  1  0
 15 17  1  0
 16 22  1  0
 17 16  1  0
 18 17  2  0
 19 20  1  0
 19 13  2  0
 20 15  2  0
 21 14  1  0
 22 12  1  0
 24 26  2  0
 25 24  1  0
 27 25  1  0
 28 37  2  0
 28 33  1  0
 29 25  1  0
 29 33  1  0
 30 29  1  0
 31 32  1  0
 31 30  1  0
 32 28  1  0
 33 34  2  0
 34 35  1  0
 36 35  2  0
 37 36  1  0
 38 12  1  0
 38 39  1  0
 38 48  1  0
 39 42  1  0
 40 39  1  0
 40 44  1  0
 41 40  2  0
 44 43  1  0
 44 46  1  0
 46 47  1  0
 46 45  1  0
 48 51  1  1
 48 49  1  0
 50 48  1  0
 53 52  1  0
 53 54  2  0
 55 63  1  0
 56 61  1  0
 57 58  1  0
 57 56  1  0
 59 58  1  0
 59 68  1  0
 59 60  1  0
 61 55  1  0
 61 60  1  0
 62 55  2  0
 63 54  1  0
 63 64  1  0
 65 66  2  0
 66 85  1  0
 67 66  1  0
 67 70  1  0
 68 69  1  0
 68 65  1  0
 69 67  2  0
 70 71  1  0
 71 72  2  0
 73 76  1  0
 73 72  1  0
 74 73  2  0
 75 74  1  0
 75 70  2  0
 76 77  1  0
 77 78  1  0
 78 79  2  0
 80 79  1  0
 80 84  1  0
 81 80  2  0
 82 77  2  0
 82 81  1  0
 83 82  1  0
 85 86  1  0
 86 89  1  0
 86 88  1  0
 87 85  2  0
 90 91  1  0
 90 65  1  0
 92 90  1  0
 93 96  1  0
 94 96  1  0
 96 95  1  0
M  ISO  4  10 101  11 101  55 100  63 100
M  END
>  <TORSDO>  (53) 
F 23

>  <SCORE>  (53) 
-7.225

>  <name>  (53) 
53

>  <ligand_id>  (53) 
53

>  <original_smiles>  (53) 
[H]c1c([H])c([H])c2c(c1[H])C([H])([H])C([H])([H])C([H])([H])C2([H])N([H])C(=O)C1([H])N(C(=O)C([H])(N([H])C(=O)C([H])(N([H])C([H])([H])[H])C([H])([H])[H])C(C([H])([H])[H])(C([H])([H])[H])C([H])([H])[H])C([H])([H])c2c([H])c(OC([H])([H])C(c3c([H])c(C([H])([H])C([H])([H])C([H])([H])N([H])C(=O)N4C([H])([H])C([H])([H])C([H])([H])C([H])(n5nc(-c6c([H])c([H])c(Oc7c([H])c([H])c(F)c([H])c7F)c([H])c6[H])c(C(=O)N([H])[H])c5N([H])[H])C4([H])[H])n(C([H])([H])C([H])(C([H])([H])[H])C([H])([H])[H])c3C([H])([H])[H])(C([H])([H])[H])C([H])([H])[H])c([H])c([H])c2C1([H])[H]

>  <smiles>  (53) 
[H]c1c([H])c([H])c2c(c1[H])C([H])([H])C([H])([H])C([H])([H])C2([H])N([H])C(=O)C1([H])N(C(=O)C([H])(N([H])C(=O)C([H])(N([H])C([H])([H])[H])C([H])([H])[H])C(C([H])([H])[H])(C([H])([H])[H])C([H])([H])[H])C([H])([H])c2c([H])c(OC([H])([H])C(c3c([H])c(C([H])([H])C([H])([H])C([H])([H])N([H])C(=O)N4C([H])([H])C([H])([H])C([H])([H])C([H])(n5nc(-c6c([H])c([H])c(Oc7c([H])c([H])c(F)c([H])c7F)c([H])c6[H])c(C(=O)N([H])[H])c5N([H])[H])C4([H])[H])n(C([H])([H])C([H])(C([H])([H])[H])C([H])([H])[H])c3C([H])([H])[H])(C([H])([H])[H])C([H])([H])[H])c([H])c([H])c2C1([H])[H]

$$$$
54:0:0
     RDKit          3D

 96104  0  0  1  0  0  0  0  0999 V2000
  -30.8060  -23.0200   21.5770 C   0  0  0  0  0  2  0  0  0  0  0  0
  -31.6260  -25.0770   20.3950 C   0  0  0  0  0  1  0  0  0  0  0  0
  -30.5270  -23.3300   19.0500 C   0  0  0  0  0  1  0  0  0  0  0  0
  -30.4880  -24.0280   20.4300 C   0  0  1  0  0  0  0  0  0  0  0  0
  -29.0660  -24.6600   20.6260 C   0  0  0  0  0  2  0  0  0  0  0  0
  -28.0890  -26.1860   22.4670 C   0  0  0  0  0  1  0  0  0  0  0  0
  -28.9220  -26.1100   21.1670 C   0  0  0  0  0  3  0  0  0  0  0  0
  -28.4410  -26.8740   20.0550 O   0  0  0  0  0  0  0  0  0  0  0  0
  -24.5700  -31.9120   23.2570 C   0  0  0  0  0  0  0  0  0  0  0  0
  -27.2460  -27.5380   20.1540 C   0  0  0  0  0  0  0  0  0  0  0  0
  -23.3580  -30.5030   21.6130 C   0  0  0  0  0  3  0  0  0  0  0  0
  -24.8190  -28.9730   20.1850 C   0  0  0  0  0  0  0  0  0  0  0  0
  -25.8700  -30.8950   21.3960 C   0  0  0  0  0  2  0  0  0  0  0  0
  -25.9680  -29.5230   20.7680 C   0  0  0  0  0  0  0  0  0  0  0  0
  -27.1830  -28.8110   20.7580 C   0  0  0  0  0  3  0  0  0  0  0  0
  -26.0890  -26.9890   19.5650 C   0  0  0  0  0  3  0  0  0  0  0  0
  -24.8720  -27.7030   19.5820 C   0  0  0  0  0  3  0  0  0  0  0  0
  -23.5610  -29.8110   20.2360 C   0  0  0  0  0  2  0  0  0  0  0  0
  -24.6170  -31.1170   22.1500 N   0  0  0  0  0  0  0  0  0  0  0  0
  -23.4940  -32.1760   23.8080 O   0  0  0  0  0  0  0  0  0  0  0  0
  -22.7190  -29.4820   22.5820 C   0  0  0  0  0  0  0  0  0  0  0  0
  -21.3970  -29.2860   22.4540 N   0  0  0  0  0  0  0  0  0  0  0  0
  -23.4110  -28.8630   23.3970 O   0  0  0  0  0  0  0  0  0  0  0  0
  -20.9040  -29.8430   21.7690 H   0  0  0  0  0  0  0  0  0  0  0  0
  -18.0350  -28.0560   22.9270 C   0  0  0  0  0  0  0  0  0  0  0  0
  -20.5880  -28.3410   23.2200 C   0  0  0  0  0  3  0  0  0  0  0  0
  -20.7140  -26.9110   22.6480 C   0  0  0  0  0  2  0  0  0  0  0  0
  -19.6220  -26.5700   21.6290 C   0  0  0  0  0  2  0  0  0  0  0  0
  -18.2320  -26.7020   22.2620 C   0  0  0  0  0  2  0  0  0  0  0  0
  -19.1430  -28.8320   23.3610 C   0  0  0  0  0  0  0  0  0  0  0  0
  -18.9090  -30.0960   23.9440 C   0  0  0  0  0  3  0  0  0  0  0  0
  -17.5980  -30.5850   24.1010 C   0  0  0  0  0  3  0  0  0  0  0  0
  -16.5040  -29.8050   23.6850 C   0  0  0  0  0  3  0  0  0  0  0  0
  -16.7240  -28.5430   23.1030 C   0  0  0  0  0  3  0  0  0  0  0  0
  -25.8600  -32.5450   23.8680 C   0  0  0  0  0  3  0  0  0  0  0  0
  -25.5550  -33.9420   24.1960 N   0  0  0  0  0  0  0  0  0  0  0  0
  -25.8880  -34.9930   23.4340 C   0  0  0  0  0  0  0  0  0  0  0  0
  -26.5590  -34.8870   22.4020 O   0  0  0  0  0  0  0  0  0  0  0  0
  -24.9690  -34.0970   25.0040 H   0  0  0  0  0  0  0  0  0  0  0  0
  -24.1650  -36.7880   23.0580 C   0  0  0  0  0  1  0  0  0  0  0  0
  -25.3950  -36.3810   23.8840 C   0  0  0  0  0  3  0  0  0  0  0  0
  -27.5310  -37.2520   24.7250 C   0  0  0  0  0  1  0  0  0  0  0  0
  -26.4240  -37.4400   23.7920 N   0  0  0  0  0  0  0  0  0  0  0  0
  -26.0140  -38.3520   23.9770 H   0  0  0  0  0  0  0  0  0  0  0  0
  -26.3880  -31.7740   25.1410 C   0  0  1  0  0  0  0  0  0  0  0  0
  -25.3090  -31.5480   26.2250 C   0  0  0  0  0  1  0  0  0  0  0  0
  -26.9590  -30.3930   24.7400 C   0  0  0  0  0  1  0  0  0  0  0  0
  -27.5540  -32.5640   25.7850 C   0  0  0  0  0  1  0  0  0  0  0  0
  -29.2430  -21.6880   22.9740 C   0  0  0  0  0  1  0  0  0  0  0  0
  -29.8780  -21.8490   21.6400 N   0  0  2  0  0  4  0  0  0  0  0  0
  -29.1200  -22.1060   21.0260 H   0  0  0  0  0  0  0  0  0  0  0  0
  -30.0260  -18.3850   19.8620 C   0  0  0  0  0  2  0  0  0  0  0  0
  -32.2030  -18.7830   21.1480 C   0  0  0  0  0  2  0  0  0  0  0  0
  -29.3840  -19.5530   20.6420 C   0  0  0  0  0  2  0  0  0  0  0  0
  -31.5020  -19.8960   21.9490 C   0  0  0  0  0  2  0  0  0  0  0  0
  -31.2290  -17.7220   20.5820 C   0  0  0  0  0  3  0  0  0  0  0  0
  -30.4510  -20.5930   21.0590 C   0  0  0  0  0  3  0  0  0  0  0  0
  -30.8540  -16.6540   21.6480 C   0  0  0  0  0  2  0  0  0  0  0  0
  -30.7450  -14.5070   20.3550 C   0  0  0  0  0  0  0  0  0  0  0  0
  -30.3660  -12.4100   19.1100 C   0  0  0  0  0  2  0  0  0  0  0  0
  -29.4070  -12.6480   17.9270 C   0  0  0  0  0  2  0  0  0  0  0  0
  -27.9410  -12.5080   18.3810 C   0  0  0  0  0  2  0  0  0  0  0  0
  -27.6290  -13.3230   19.6640 C   0  0  0  0  0  3  0  0  0  0  0  0
  -28.6990  -13.0790   20.7500 C   0  0  0  0  0  2  0  0  0  0  0  0
  -30.0180  -13.3730   20.1650 N   0  0  0  0  0  0  0  0  0  0  0  0
  -31.8370  -14.6940   19.8130 O   0  0  0  0  0  0  0  0  0  0  0  0
  -30.1870  -15.4490   21.1330 N   0  0  0  0  0  0  0  0  0  0  0  0
  -29.2700  -15.2390   21.5010 H   0  0  0  0  0  0  0  0  0  0  0  0
  -25.2360  -13.9240   20.3950 C   0  0  0  0  0  0  0  0  0  0  0  0
  -24.1740  -13.1470   20.7790 C   0  0  0  0  0  0  0  0  0  0  0  0
  -24.6420  -11.7980   20.7510 C   0  0  0  0  0  0  0  0  0  0  0  0
  -26.2820  -13.0460   20.1580 N   0  0  0  0  0  0  0  0  0  0  0  0
  -25.9280  -11.7620   20.4300 N   0  0  0  0  0  0  0  0  0  0  0  0
  -23.9230  -10.5330   20.9560 C   0  0  0  0  0  0  0  0  0  0  0  0
  -24.3640   -9.5770   21.8960 C   0  0  0  0  0  3  0  0  0  0  0  0
  -23.6450   -8.3770   22.0870 C   0  0  0  0  0  3  0  0  0  0  0  0
  -22.4720   -8.1250   21.3380 C   0  0  0  0  0  0  0  0  0  0  0  0
  -22.0490   -9.0720   20.3880 C   0  0  0  0  0  3  0  0  0  0  0  0
  -22.7680  -10.2620   20.1940 C   0  0  0  0  0  3  0  0  0  0  0  0
  -21.7240   -6.9760   21.4370 O   0  0  0  0  0  0  0  0  0  0  0  0
  -21.6830   -6.2430   22.5960 C   0  0  0  0  0  0  0  0  0  0  0  0
  -21.2550   -6.8040   23.8190 C   0  0  0  0  0  3  0  0  0  0  0  0
  -21.1610   -5.9980   24.9710 C   0  0  0  0  0  3  0  0  0  0  0  0
  -21.4860   -4.6290   24.9010 C   0  0  0  0  0  0  0  0  0  0  0  0
  -21.9070   -4.0670   23.6830 C   0  0  0  0  0  3  0  0  0  0  0  0
  -22.0030   -4.8720   22.5340 C   0  0  0  0  0  0  0  0  0  0  0  0
  -22.3890   -4.3200   21.3580 F   0  0  0  0  0  0  0  0  0  0  0  0
  -21.3890   -3.8520   26.0050 F   0  0  0  0  0  0  0  0  0  0  0  0
  -22.7770  -13.6210   21.0620 C   0  0  0  0  0  0  0  0  0  0  0  0
  -22.0610  -12.9230   21.9380 N   0  0  0  0  0  0  0  0  0  0  0  0
  -22.3310  -14.6430   20.5450 O   0  0  0  0  0  0  0  0  0  0  0  0
  -22.4350  -12.0970   22.3800 H   0  0  0  0  0  0  0  0  0  0  0  0
  -21.1240  -13.2220   22.1680 H   0  0  0  0  0  0  0  0  0  0  0  0
  -25.3930  -15.2930   20.2080 N   0  0  0  0  0  0  0  0  0  0  0  0
  -24.6250  -15.9460   20.3190 H   0  0  0  0  0  0  0  0  0  0  0  0
  -26.2410  -15.7310   19.8730 H   0  0  0  0  0  0  0  0  0  0  0  0
  1 50  1  0
  4  2  1  6
  3  4  1  0
  4  5  1  0
  4  1  1  0
  5  7  1  0
  7  6  1  0
  8 10  1  0
  8  7  1  0
  9 20  2  0
 10 15  1  0
 11 19  1  0
 11 21  1  0
 12 18  1  0
 12 14  1  0
 13 19  1  0
 14 13  1  0
 15 14  2  0
 16 17  1  0
 16 10  2  0
 17 12  2  0
 18 11  1  0
 19  9  1  0
 21 23  2  0
 22 21  1  0
 24 22  1  0
 25 34  2  0
 25 30  1  0
 26 22  1  0
 26 30  1  0
 27 26  1  0
 28 29  1  0
 28 27  1  0
 29 25  1  0
 30 31  2  0
 31 32  1  0
 33 32  2  0
 34 33  1  0
 35  9  1  0
 35 36  1  0
 35 45  1  0
 36 39  1  0
 37 41  1  0
 37 36  1  0
 38 37  2  0
 41 40  1  0
 43 41  1  0
 43 44  1  0
 43 42  1  0
 45 48  1  1
 45 46  1  0
 47 45  1  0
 50 49  1  0
 50 51  1  6
 52 56  1  0
 52 54  1  0
 53 55  1  0
 54 57  1  0
 56 53  1  0
 56 58  1  0
 57 50  1  0
 57 55  1  0
 59 67  1  0
 60 65  1  0
 61 62  1  0
 61 60  1  0
 63 62  1  0
 63 72  1  0
 63 64  1  0
 65 59  1  0
 65 64  1  0
 66 59  2  0
 67 68  1  0
 67 58  1  0
 69 70  2  0
 70 89  1  0
 71 70  1  0
 71 74  1  0
 72 69  1  0
 72 73  1  0
 73 71  2  0
 74 75  1  0
 75 76  2  0
 77 80  1  0
 77 76  1  0
 78 77  2  0
 79 78  1  0
 79 74  2  0
 80 81  1  0
 81 82  1  0
 82 83  2  0
 84 83  1  0
 84 88  1  0
 85 84  2  0
 86 81  2  0
 86 85  1  0
 87 86  1  0
 89 90  1  0
 90 93  1  0
 90 92  1  0
 91 89  2  0
 94 95  1  0
 94 69  1  0
 96 94  1  0
M  ISO  4   7 101   8 101  59 100  67 100
M  END
>  <TORSDO>  (54) 
F 22

>  <SCORE>  (54) 
-13.516

>  <name>  (54) 
54

>  <ligand_id>  (54) 
54

>  <original_smiles>  (54) 
[H]c1c([H])c([H])c2c(c1[H])C([H])([H])C([H])([H])C([H])([H])C2([H])N([H])C(=O)C1([H])N(C(=O)C([H])(N([H])C(=O)C([H])(N([H])C([H])([H])[H])C([H])([H])[H])C(C([H])([H])[H])(C([H])([H])[H])C([H])([H])[H])C([H])([H])c2c([H])c(OC([H])(C([H])([H])[H])C([H])([H])C(C([H])([H])[H])(C([H])([H])[H])C([H])([H])[N+]([H])(C([H])([H])[H])C3([H])C([H])([H])C([H])([H])C([H])(C([H])([H])N([H])C(=O)N4C([H])([H])C([H])([H])C([H])([H])C([H])(n5nc(-c6c([H])c([H])c(Oc7c([H])c([H])c(F)c([H])c7F)c([H])c6[H])c(C(=O)N([H])[H])c5N([H])[H])C4([H])[H])C([H])([H])C3([H])[H])c([H])c([H])c2C1([H])[H]

>  <smiles>  (54) 
[H]c1c([H])c([H])c2c(c1[H])C([H])([H])C([H])([H])C([H])([H])C2([H])N([H])C(=O)C1([H])N(C(=O)C([H])(N([H])C(=O)C([H])(N([H])C([H])([H])[H])C([H])([H])[H])C(C([H])([H])[H])(C([H])([H])[H])C([H])([H])[H])C([H])([H])c2c([H])c(OC([H])(C([H])([H])[H])C([H])([H])C(C([H])([H])[H])(C([H])([H])[H])C([H])([H])[N+]([H])(C([H])([H])[H])C3([H])C([H])([H])C([H])([H])C([H])(C([H])([H])N([H])C(=O)N4C([H])([H])C([H])([H])C([H])([H])C([H])(n5nc(-c6c([H])c([H])c(Oc7c([H])c([H])c(F)c([H])c7F)c([H])c6[H])c(C(=O)N([H])[H])c5N([H])[H])C4([H])[H])C([H])([H])C3([H])[H])c([H])c([H])c2C1([H])[H]

$$$$
55:0:0
     RDKit          3D

 95103  0  0  1  0  0  0  0  0999 V2000
  -30.5680  -21.5200   20.3900 N   0  0  0  0  0  0  0  0  0  0  0  0
  -29.8980  -21.7500   21.1150 H   0  0  0  0  0  0  0  0  0  0  0  0
  -32.4290  -17.7890   20.3850 C   0  0  0  0  0  3  0  0  0  0  0  0
  -30.7930  -19.2810   21.3540 C   0  0  0  0  0  3  0  0  0  0  0  0
  -31.4330  -18.0170   21.3560 C   0  0  0  0  0  0  0  0  0  0  0  0
  -32.7280  -18.8040   19.4630 C   0  0  0  0  0  0  0  0  0  0  0  0
  -31.1660  -20.2500   20.4000 C   0  0  0  0  0  0  0  0  0  0  0  0
  -33.8010  -18.6170   18.4140 C   0  0  0  0  0  1  0  0  0  0  0  0
  -32.1100  -20.0010   19.4730 N   0  0  0  0  0  0  0  0  0  0  0  0
  -31.1140  -16.9950   22.4470 C   0  0  0  0  0  2  0  0  0  0  0  0
  -31.4210  -15.5020   22.1710 C   0  0  0  0  0  2  0  0  0  0  0  0
  -30.5130  -14.2470   20.2230 C   0  0  0  0  0  0  0  0  0  0  0  0
  -30.0100  -12.2620   18.8490 C   0  0  0  0  0  2  0  0  0  0  0  0
  -28.9880  -12.5280   17.7340 C   0  0  0  0  0  2  0  0  0  0  0  0
  -27.5560  -12.3400   18.2630 C   0  0  0  0  0  2  0  0  0  0  0  0
  -27.3050  -13.1270   19.5760 C   0  0  0  0  0  3  0  0  0  0  0  0
  -28.4290  -12.8710   20.6050 C   0  0  0  0  0  2  0  0  0  0  0  0
  -29.7300  -13.1670   19.9740 N   0  0  0  0  0  0  0  0  0  0  0  0
  -31.4170  -14.6170   19.4700 O   0  0  0  0  0  0  0  0  0  0  0  0
  -30.3770  -14.7670   21.4490 N   0  0  0  0  0  0  0  0  0  0  0  0
  -29.6120  -14.4020   21.9990 H   0  0  0  0  0  0  0  0  0  0  0  0
  -24.9300  -13.6810   20.4000 C   0  0  0  0  0  0  0  0  0  0  0  0
  -23.9050  -12.8840   20.8360 C   0  0  0  0  0  0  0  0  0  0  0  0
  -24.4020  -11.5460   20.8010 C   0  0  0  0  0  0  0  0  0  0  0  0
  -25.9860  -12.8240   20.1290 N   0  0  0  0  0  0  0  0  0  0  0  0
  -25.6740  -11.5360   20.4250 N   0  0  0  0  0  0  0  0  0  0  0  0
  -23.7230  -10.2660   21.0500 C   0  0  0  0  0  0  0  0  0  0  0  0
  -24.2160   -9.3400   21.9950 C   0  0  0  0  0  3  0  0  0  0  0  0
  -23.5370   -8.1260   22.2290 C   0  0  0  0  0  3  0  0  0  0  0  0
  -22.3510   -7.8270   21.5170 C   0  0  0  0  0  0  0  0  0  0  0  0
  -21.8760   -8.7420   20.5610 C   0  0  0  0  0  3  0  0  0  0  0  0
  -22.5570   -9.9490   20.3260 C   0  0  0  0  0  3  0  0  0  0  0  0
  -21.6390   -6.6610   21.6600 O   0  0  0  0  0  0  0  0  0  0  0  0
  -21.6370   -5.9570   22.8370 C   0  0  0  0  0  0  0  0  0  0  0  0
  -21.2210   -6.5420   24.0530 C   0  0  0  0  0  3  0  0  0  0  0  0
  -21.1680   -5.7640   25.2270 C   0  0  0  0  0  3  0  0  0  0  0  0
  -21.5210   -4.4020   25.1850 C   0  0  0  0  0  0  0  0  0  0  0  0
  -21.9290   -3.8160   23.9740 C   0  0  0  0  0  3  0  0  0  0  0  0
  -21.9840   -4.5920   22.8030 C   0  0  0  0  0  0  0  0  0  0  0  0
  -22.3590   -4.0180   21.6340 F   0  0  0  0  0  0  0  0  0  0  0  0
  -21.4630   -3.6510   26.3110 F   0  0  0  0  0  0  0  0  0  0  0  0
  -22.5100  -13.3260   21.1760 C   0  0  0  0  0  0  0  0  0  0  0  0
  -21.8530  -12.6280   22.0960 N   0  0  0  0  0  0  0  0  0  0  0  0
  -22.0130  -14.3270   20.6620 O   0  0  0  0  0  0  0  0  0  0  0  0
  -22.2690  -11.8200   22.5350 H   0  0  0  0  0  0  0  0  0  0  0  0
  -20.9200  -12.9080   22.3680 H   0  0  0  0  0  0  0  0  0  0  0  0
  -25.0470  -15.0510   20.1930 N   0  0  0  0  0  0  0  0  0  0  0  0
  -24.2750  -15.6910   20.3420 H   0  0  0  0  0  0  0  0  0  0  0  0
  -25.8770  -15.5050   19.8330 H   0  0  0  0  0  0  0  0  0  0  0  0
  -31.1520  -22.6190   19.6090 C   0  0  0  0  0  2  0  0  0  0  0  0
  -28.9940  -22.8410   18.2710 C   0  0  0  0  0  1  0  0  0  0  0  0
  -30.1170  -23.5970   19.0050 C   0  0  0  0  0  3  0  0  0  0  0  0
  -29.6290  -24.6760   20.0030 C   0  0  0  0  0  2  0  0  0  0  0  0
  -28.4260  -25.5060   19.5040 C   0  0  0  0  0  2  0  0  0  0  0  0
  -28.3610  -26.7820   20.1500 O   0  0  0  0  0  0  0  0  0  0  0  0
  -24.5450  -31.9320   23.2410 C   0  0  0  0  0  0  0  0  0  0  0  0
  -27.1710  -27.4890   20.1250 C   0  0  0  0  0  0  0  0  0  0  0  0
  -23.3280  -30.5340   21.6040 C   0  0  0  0  0  3  0  0  0  0  0  0
  -24.7710  -29.0010   20.1640 C   0  0  0  0  0  0  0  0  0  0  0  0
  -25.8500  -30.8850   21.3930 C   0  0  0  0  0  2  0  0  0  0  0  0
  -25.9310  -29.5140   20.7530 C   0  0  0  0  0  0  0  0  0  0  0  0
  -27.1270  -28.7600   20.7450 C   0  0  0  0  0  3  0  0  0  0  0  0
  -25.9880  -26.9960   19.5190 C   0  0  0  0  0  3  0  0  0  0  0  0
  -24.7940  -27.7380   19.5530 C   0  0  0  0  0  3  0  0  0  0  0  0
  -23.5280  -29.8580   20.2190 C   0  0  0  0  0  2  0  0  0  0  0  0
  -24.5940  -31.1300   22.1380 N   0  0  0  0  0  0  0  0  0  0  0  0
  -23.4680  -32.2030   23.7900 O   0  0  0  0  0  0  0  0  0  0  0  0
  -22.6840  -29.5090   22.5660 C   0  0  0  0  0  0  0  0  0  0  0  0
  -21.3630  -29.3120   22.4360 N   0  0  0  0  0  0  0  0  0  0  0  0
  -23.3700  -28.8940   23.3860 O   0  0  0  0  0  0  0  0  0  0  0  0
  -20.8670  -29.8620   21.7500 H   0  0  0  0  0  0  0  0  0  0  0  0
  -18.0050  -28.0700   22.9100 C   0  0  0  0  0  0  0  0  0  0  0  0
  -20.5550  -28.3690   23.2070 C   0  0  0  0  0  3  0  0  0  0  0  0
  -20.6870  -26.9330   22.6500 C   0  0  0  0  0  2  0  0  0  0  0  0
  -19.6020  -26.5820   21.6260 C   0  0  0  0  0  2  0  0  0  0  0  0
  -18.2100  -26.7150   22.2530 C   0  0  0  0  0  2  0  0  0  0  0  0
  -19.1070  -28.8540   23.3420 C   0  0  0  0  0  0  0  0  0  0  0  0
  -18.8640  -30.1210   23.9160 C   0  0  0  0  0  3  0  0  0  0  0  0
  -17.5490  -30.6070   24.0570 C   0  0  0  0  0  3  0  0  0  0  0  0
  -16.4620  -29.8200   23.6410 C   0  0  0  0  0  3  0  0  0  0  0  0
  -16.6900  -28.5530   23.0730 C   0  0  0  0  0  3  0  0  0  0  0  0
  -25.8370  -32.5600   23.8490 C   0  0  0  0  0  3  0  0  0  0  0  0
  -25.5360  -33.9600   24.1760 N   0  0  0  0  0  0  0  0  0  0  0  0
  -25.8690  -35.0060   23.4090 C   0  0  0  0  0  0  0  0  0  0  0  0
  -26.5360  -34.8950   22.3760 O   0  0  0  0  0  0  0  0  0  0  0  0
  -24.9510  -34.1220   24.9820 H   0  0  0  0  0  0  0  0  0  0  0  0
  -24.1500  -36.8050   23.0440 C   0  0  0  0  0  1  0  0  0  0  0  0
  -25.3860  -36.3980   23.8600 C   0  0  0  0  0  3  0  0  0  0  0  0
  -27.5240  -37.2790   24.6860 C   0  0  0  0  0  1  0  0  0  0  0  0
  -26.4230  -37.4460   23.7430 N   0  0  0  0  0  0  0  0  0  0  0  0
  -26.0200  -38.3670   23.8900 H   0  0  0  0  0  0  0  0  0  0  0  0
  -26.3630  -31.7900   25.1210 C   0  0  1  0  0  0  0  0  0  0  0  0
  -25.2790  -31.5510   26.1990 C   0  0  0  0  0  1  0  0  0  0  0  0
  -26.9420  -30.4120   24.7220 C   0  0  0  0  0  1  0  0  0  0  0  0
  -27.5190  -32.5840   25.7730 C   0  0  0  0  0  1  0  0  0  0  0  0
  1  7  1  0
  1  2  1  0
  3  5  1  0
  4  5  2  0
  5 10  1  0
  6  9  1  0
  6  3  2  0
  7  4  1  0
  8  6  1  0
  9  7  2  0
 11 10  1  0
 12 20  1  0
 13 18  1  0
 14 15  1  0
 14 13  1  0
 16 15  1  0
 16 25  1  0
 16 17  1  0
 18 12  1  0
 18 17  1  0
 19 12  2  0
 20 21  1  0
 20 11  1  0
 22 23  2  0
 23 42  1  0
 24 23  1  0
 24 27  1  0
 25 22  1  0
 25 26  1  0
 26 24  2  0
 27 28  1  0
 28 29  2  0
 30 33  1  0
 30 29  1  0
 31 30  2  0
 32 31  1  0
 32 27  2  0
 33 34  1  0
 34 35  1  0
 35 36  2  0
 37 36  1  0
 37 41  1  0
 38 37  2  0
 39 34  2  0
 39 38  1  0
 40 39  1  0
 42 43  1  0
 43 46  1  0
 43 45  1  0
 44 42  2  0
 47 48  1  0
 47 22  1  0
 49 47  1  0
 50  1  1  0
 52 51  1  0
 52 50  1  0
 52 53  1  0
 54 53  1  0
 54 55  1  0
 56 67  2  0
 57 55  1  0
 57 62  1  0
 58 66  1  0
 58 68  1  0
 59 65  1  0
 59 61  1  0
 60 66  1  0
 61 60  1  0
 62 61  2  0
 63 64  1  0
 63 57  2  0
 64 59  2  0
 65 58  1  0
 66 56  1  0
 68 70  2  0
 69 68  1  0
 71 69  1  0
 72 81  2  0
 72 77  1  0
 73 69  1  0
 73 77  1  0
 74 73  1  0
 75 76  1  0
 75 74  1  0
 76 72  1  0
 77 78  2  0
 78 79  1  0
 80 79  2  0
 81 80  1  0
 82 56  1  0
 82 83  1  0
 82 92  1  0
 83 86  1  0
 84 88  1  0
 84 83  1  0
 85 84  2  0
 88 87  1  0
 90 88  1  0
 90 91  1  0
 90 89  1  0
 92 95  1  1
 92 93  1  0
 94 92  1  0
M  ISO  4  12 100  20 100  54 101  55 101
M  END
>  <TORSDO>  (55) 
F 23

>  <SCORE>  (55) 
-11.792

>  <name>  (55) 
55

>  <ligand_id>  (55) 
55

>  <original_smiles>  (55) 
[H]c1c([H])c([H])c2c(c1[H])C([H])([H])C([H])([H])C([H])([H])C2([H])N([H])C(=O)C1([H])N(C(=O)C([H])(N([H])C(=O)C([H])(N([H])C([H])([H])[H])C([H])([H])[H])C(C([H])([H])[H])(C([H])([H])[H])C([H])([H])[H])C([H])([H])c2c([H])c(OC([H])([H])C([H])([H])C([H])(C([H])([H])[H])C([H])([H])N([H])c3nc(C([H])([H])[H])c([H])c(C([H])([H])C([H])([H])N([H])C(=O)N4C([H])([H])C([H])([H])C([H])([H])C([H])(n5nc(-c6c([H])c([H])c(Oc7c([H])c([H])c(F)c([H])c7F)c([H])c6[H])c(C(=O)N([H])[H])c5N([H])[H])C4([H])[H])c3[H])c([H])c([H])c2C1([H])[H]

>  <smiles>  (55) 
[H]c1c([H])c([H])c2c(c1[H])C([H])([H])C([H])([H])C([H])([H])C2([H])N([H])C(=O)C1([H])N(C(=O)C([H])(N([H])C(=O)C([H])(N([H])C([H])([H])[H])C([H])([H])[H])C(C([H])([H])[H])(C([H])([H])[H])C([H])([H])[H])C([H])([H])c2c([H])c(OC([H])([H])C([H])([H])C([H])(C([H])([H])[H])C([H])([H])N([H])c3nc(C([H])([H])[H])c([H])c(C([H])([H])C([H])([H])N([H])C(=O)N4C([H])([H])C([H])([H])C([H])([H])C([H])(n5nc(-c6c([H])c([H])c(Oc7c([H])c([H])c(F)c([H])c7F)c([H])c6[H])c(C(=O)N([H])[H])c5N([H])[H])C4([H])[H])c3[H])c([H])c([H])c2C1([H])[H]

$$$$
56:0:0
     RDKit          3D

 95103  0  0  1  0  0  0  0  0999 V2000
  -28.4690  -21.0850   20.0190 C   0  0  0  0  0  3  0  0  0  0  0  0
  -29.5360  -20.2200   20.5020 C   0  0  0  0  0  0  0  0  0  0  0  0
  -30.7940  -20.8710   20.6710 C   0  0  0  0  0  0  0  0  0  0  0  0
  -28.6970  -22.4720   19.6600 C   0  0  0  0  0  0  0  0  0  0  0  0
  -30.9550  -22.2030   20.2020 C   0  0  0  0  0  0  0  0  0  0  0  0
  -31.9560  -20.1790   21.3820 C   0  0  0  0  0  1  0  0  0  0  0  0
  -29.9490  -22.9400   19.7100 N   0  0  0  0  0  0  0  0  0  0  0  0
  -26.4320  -22.8910   18.4400 C   0  0  0  0  0  1  0  0  0  0  0  0
  -27.7240  -23.5360   18.9810 C   0  0  0  0  0  3  0  0  0  0  0  0
  -27.4300  -24.9340   19.7470 C   0  0  0  0  0  2  0  0  0  0  0  0
  -27.5080  -26.2740   19.0800 O   0  0  0  0  0  0  0  0  0  0  0  0
  -24.6950  -31.6790   23.0410 C   0  0  0  0  0  0  0  0  0  0  0  0
  -26.4900  -27.2130   19.3090 C   0  0  0  0  0  0  0  0  0  0  0  0
  -23.1820  -30.5380   21.4600 C   0  0  0  0  0  3  0  0  0  0  0  0
  -24.3020  -29.0040   19.7460 C   0  0  0  0  0  0  0  0  0  0  0  0
  -25.7020  -30.6660   20.9790 C   0  0  0  0  0  2  0  0  0  0  0  0
  -25.5770  -29.3470   20.2160 C   0  0  0  0  0  0  0  0  0  0  0  0
  -26.6760  -28.4650   19.9840 C   0  0  0  0  0  3  0  0  0  0  0  0
  -25.1960  -26.9300   18.8290 C   0  0  0  0  0  3  0  0  0  0  0  0
  -24.1140  -27.8010   19.0470 C   0  0  0  0  0  3  0  0  0  0  0  0
  -23.1680  -29.9710   20.0170 C   0  0  0  0  0  2  0  0  0  0  0  0
  -24.5540  -30.9720   21.8820 N   0  0  0  0  0  0  0  0  0  0  0  0
  -23.7120  -31.9900   23.7310 O   0  0  0  0  0  0  0  0  0  0  0  0
  -22.5500  -29.4980   22.4140 C   0  0  0  0  0  0  0  0  0  0  0  0
  -21.2120  -29.3640   22.3690 N   0  0  0  0  0  0  0  0  0  0  0  0
  -23.2590  -28.8120   23.1560 O   0  0  0  0  0  0  0  0  0  0  0  0
  -20.6950  -29.9660   21.7400 H   0  0  0  0  0  0  0  0  0  0  0  0
  -17.8590  -28.1230   22.9180 C   0  0  0  0  0  0  0  0  0  0  0  0
  -20.4200  -28.4120   23.1480 C   0  0  0  0  0  3  0  0  0  0  0  0
  -20.5290  -26.9850   22.5630 C   0  0  0  0  0  2  0  0  0  0  0  0
  -19.4150  -26.6540   21.5650 C   0  0  0  0  0  2  0  0  0  0  0  0
  -18.0420  -26.7810   22.2310 C   0  0  0  0  0  2  0  0  0  0  0  0
  -18.9770  -28.8940   23.3370 C   0  0  0  0  0  0  0  0  0  0  0  0
  -18.7530  -30.1490   23.9440 C   0  0  0  0  0  3  0  0  0  0  0  0
  -17.4450  -30.6340   24.1350 C   0  0  0  0  0  3  0  0  0  0  0  0
  -16.3430  -29.8590   23.7310 C   0  0  0  0  0  3  0  0  0  0  0  0
  -16.5500  -28.6060   23.1290 C   0  0  0  0  0  3  0  0  0  0  0  0
  -26.0900  -32.1520   23.5460 C   0  0  0  0  0  3  0  0  0  0  0  0
  -25.9290  -33.5010   24.1040 N   0  0  0  0  0  0  0  0  0  0  0  0
  -26.2770  -34.6340   23.4780 C   0  0  0  0  0  0  0  0  0  0  0  0
  -26.8410  -34.6420   22.3810 O   0  0  0  0  0  0  0  0  0  0  0  0
  -25.4230  -33.5750   24.9750 H   0  0  0  0  0  0  0  0  0  0  0  0
  -24.6980  -36.5890   23.5520 C   0  0  0  0  0  1  0  0  0  0  0  0
  -25.9540  -35.9650   24.1800 C   0  0  0  0  0  3  0  0  0  0  0  0
  -28.2150  -36.5420   24.9420 C   0  0  0  0  0  1  0  0  0  0  0  0
  -27.0640  -36.9430   24.1370 N   0  0  0  0  0  0  0  0  0  0  0  0
  -26.7540  -37.8560   24.4560 H   0  0  0  0  0  0  0  0  0  0  0  0
  -26.7230  -31.1810   24.6180 C   0  0  1  0  0  0  0  0  0  0  0  0
  -25.7770  -30.8610   25.7990 C   0  0  0  0  0  1  0  0  0  0  0  0
  -27.1380  -29.8400   23.9690 C   0  0  0  0  0  1  0  0  0  0  0  0
  -28.0130  -31.8090   25.1980 C   0  0  0  0  0  1  0  0  0  0  0  0
  -29.3360  -18.6890   20.9360 C   0  0  0  0  0  3  0  0  0  0  0  0
  -30.3650  -17.5210   20.4730 C   0  0  0  0  0  3  0  0  0  0  0  0
  -30.8020  -14.9550   20.3720 C   0  0  0  0  0  0  0  0  0  0  0  0
  -30.6360  -12.6880   19.3450 C   0  0  0  0  0  2  0  0  0  0  0  0
  -29.6870  -12.7610   18.1300 C   0  0  0  0  0  2  0  0  0  0  0  0
  -28.2220  -12.5620   18.5720 C   0  0  0  0  0  2  0  0  0  0  0  0
  -27.8480  -13.4410   19.7960 C   0  0  0  0  0  3  0  0  0  0  0  0
  -28.9150  -13.3490   20.9090 C   0  0  0  0  0  2  0  0  0  0  0  0
  -30.2040  -13.7210   20.3120 N   0  0  0  0  0  0  0  0  0  0  0  0
  -31.9620  -15.1070   19.9730 O   0  0  0  0  0  0  0  0  0  0  0  0
  -30.0170  -16.0510   20.6750 N   0  0  0  0  0  0  0  0  0  0  0  0
  -29.0790  -15.8420   20.9930 H   0  0  0  0  0  0  0  0  0  0  0  0
  -25.4710  -14.0070   20.5880 C   0  0  0  0  0  0  0  0  0  0  0  0
  -24.4120  -13.2160   20.9440 C   0  0  0  0  0  0  0  0  0  0  0  0
  -24.8740  -11.8670   20.8470 C   0  0  0  0  0  0  0  0  0  0  0  0
  -26.5100  -13.1370   20.2960 N   0  0  0  0  0  0  0  0  0  0  0  0
  -26.1580  -11.8450   20.5130 N   0  0  0  0  0  0  0  0  0  0  0  0
  -24.1520  -10.5970   20.9970 C   0  0  0  0  0  0  0  0  0  0  0  0
  -24.5850   -9.6020   21.8990 C   0  0  0  0  0  3  0  0  0  0  0  0
  -23.8600   -8.3990   22.0380 C   0  0  0  0  0  3  0  0  0  0  0  0
  -22.6900   -8.1800   21.2740 C   0  0  0  0  0  0  0  0  0  0  0  0
  -22.2770   -9.1650   20.3580 C   0  0  0  0  0  3  0  0  0  0  0  0
  -23.0010  -10.3610   20.2170 C   0  0  0  0  0  3  0  0  0  0  0  0
  -21.9350   -7.0340   21.3220 O   0  0  0  0  0  0  0  0  0  0  0  0
  -21.8390   -6.2870   22.4690 C   0  0  0  0  0  0  0  0  0  0  0  0
  -21.3730   -6.8380   23.6810 C   0  0  0  0  0  3  0  0  0  0  0  0
  -21.2250   -6.0160   24.8170 C   0  0  0  0  0  3  0  0  0  0  0  0
  -21.5310   -4.6440   24.7390 C   0  0  0  0  0  0  0  0  0  0  0  0
  -21.9910   -4.0940   23.5310 C   0  0  0  0  0  3  0  0  0  0  0  0
  -22.1430   -4.9120   22.3990 C   0  0  0  0  0  0  0  0  0  0  0  0
  -22.5640   -4.3710   21.2300 F   0  0  0  0  0  0  0  0  0  0  0  0
  -21.3830   -3.8530   25.8280 F   0  0  0  0  0  0  0  0  0  0  0  0
  -23.0200  -13.6810   21.2580 C   0  0  0  0  0  0  0  0  0  0  0  0
  -22.3130  -12.9610   22.1230 N   0  0  0  0  0  0  0  0  0  0  0  0
  -22.5660  -14.7170   20.7690 O   0  0  0  0  0  0  0  0  0  0  0  0
  -22.6910  -12.1210   22.5380 H   0  0  0  0  0  0  0  0  0  0  0  0
  -21.3800  -13.2550   22.3730 H   0  0  0  0  0  0  0  0  0  0  0  0
  -25.6280  -15.3820   20.4650 N   0  0  0  0  0  0  0  0  0  0  0  0
  -24.8530  -16.0220   20.6080 H   0  0  0  0  0  0  0  0  0  0  0  0
  -26.4560  -15.8390   20.1050 H   0  0  0  0  0  0  0  0  0  0  0  0
  -32.2830  -22.9510   20.1500 C   0  0  0  0  0  2  0  0  0  0  0  0
  -32.1340  -24.4760   20.3380 C   0  0  0  0  0  2  0  0  0  0  0  0
  -31.5710  -26.7430   19.2590 C   0  0  0  0  0  1  0  0  0  0  0  0
  -31.6750  -25.2250   19.0670 C   0  0  0  0  0  2  0  0  0  0  0  0
  1  2  1  0
  2  3  2  0
  2 52  1  0
  3  6  1  0
  4  7  1  0
  4  1  2  0
  5  3  1  0
  7  5  2  0
  9  8  1  0
  9  4  1  0
  9 10  1  0
 11 13  1  0
 11 10  1  0
 12 23  2  0
 13 18  1  0
 14 22  1  0
 14 24  1  0
 15 21  1  0
 15 17  1  0
 16 22  1  0
 17 16  1  0
 18 17  2  0
 19 20  1  0
 19 13  2  0
 20 15  2  0
 21 14  1  0
 22 12  1  0
 24 26  2  0
 25 24  1  0
 27 25  1  0
 28 37  2  0
 28 33  1  0
 29 25  1  0
 29 33  1  0
 30 29  1  0
 31 32  1  0
 31 30  1  0
 32 28  1  0
 33 34  2  0
 34 35  1  0
 36 35  2  0
 37 36  1  0
 38 12  1  0
 38 39  1  0
 38 48  1  0
 39 42  1  0
 40 39  1  0
 40 44  1  0
 41 40  2  0
 44 43  1  0
 46 44  1  0
 46 47  1  0
 46 45  1  0
 48 51  1  1
 48 49  1  0
 50 48  1  0
 53 62  1  0
 53 52  2  0
 54 62  1  0
 55 60  1  0
 56 57  1  0
 56 55  1  0
 58 57  1  0
 58 67  1  0
 58 59  1  0
 60 54  1  0
 60 59  1  0
 61 54  2  0
 62 63  1  0
 64 65  2  0
 65 84  1  0
 66 65  1  0
 66 69  1  0
 67 68  1  0
 67 64  1  0
 68 66  2  0
 69 70  1  0
 70 71  2  0
 72 75  1  0
 72 71  1  0
 73 72  2  0
 74 73  1  0
 74 69  2  0
 75 76  1  0
 76 77  1  0
 77 78  2  0
 79 78  1  0
 79 83  1  0
 80 79  2  0
 81 76  2  0
 81 80  1  0
 82 81  1  0
 84 85  1  0
 85 88  1  0
 85 87  1  0
 86 84  2  0
 89 64  1  0
 89 90  1  0
 91 89  1  0
 92  5  1  0
 92 93  1  0
 95 94  1  0
 95 93  1  0
M  ISO  4  10 101  11 101  54 100  62 100
M  END
>  <TORSDO>  (56) 
F 23

>  <SCORE>  (56) 
-11.890

>  <name>  (56) 
56

>  <ligand_id>  (56) 
56

>  <original_smiles>  (56) 
[H]c1c([H])c([H])c2c(c1[H])C([H])([H])C([H])([H])C([H])([H])C2([H])N([H])C(=O)C1([H])N(C(=O)C([H])(N([H])C(=O)C([H])(N([H])C([H])([H])[H])C([H])([H])[H])C(C([H])([H])[H])(C([H])([H])[H])C([H])([H])[H])C([H])([H])c2c([H])c(OC([H])([H])C([H])(c3nc(C([H])([H])C([H])([H])C([H])([H])C([H])([H])[H])c(C([H])([H])[H])c(C([H])([H])C([H])([H])N([H])C(=O)N4C([H])([H])C([H])([H])C([H])([H])C([H])(n5nc(-c6c([H])c([H])c(Oc7c([H])c([H])c(F)c([H])c7F)c([H])c6[H])c(C(=O)N([H])[H])c5N([H])[H])C4([H])[H])c3[H])C([H])([H])[H])c([H])c([H])c2C1([H])[H]

>  <smiles>  (56) 
[H]c1c([H])c([H])c2c(c1[H])C([H])([H])C([H])([H])C([H])([H])C2([H])N([H])C(=O)C1([H])N(C(=O)C([H])(N([H])C(=O)C([H])(N([H])C([H])([H])[H])C([H])([H])[H])C(C([H])([H])[H])(C([H])([H])[H])C([H])([H])[H])C([H])([H])c2c([H])c(OC([H])([H])C([H])(c3nc(C([H])([H])C([H])([H])C([H])([H])C([H])([H])[H])c(C([H])([H])[H])c(C([H])([H])C([H])([H])N([H])C(=O)N4C([H])([H])C([H])([H])C([H])([H])C([H])(n5nc(-c6c([H])c([H])c(Oc7c([H])c([H])c(F)c([H])c7F)c([H])c6[H])c(C(=O)N([H])[H])c5N([H])[H])C4([H])[H])c3[H])C([H])([H])[H])c([H])c([H])c2C1([H])[H]

$$$$
57:0:0
     RDKit          3D

 93101  0  0  1  0  0  0  0  0999 V2000
  -28.6490  -21.1490   20.4850 C   0  0  0  0  0  3  0  0  0  0  0  0
  -29.1100  -22.5200   20.5840 C   0  0  0  0  0  0  0  0  0  0  0  0
  -30.5130  -22.6500   20.8110 C   0  0  0  0  0  0  0  0  0  0  0  0
  -29.5390  -20.0140   20.5790 C   0  0  0  0  0  0  0  0  0  0  0  0
  -31.3330  -21.4890   20.8360 C   0  0  0  0  0  0  0  0  0  0  0  0
  -31.1690  -24.0090   21.0550 C   0  0  0  0  0  1  0  0  0  0  0  0
  -30.8570  -20.2290   20.7350 N   0  0  0  0  0  0  0  0  0  0  0  0
  -33.4810  -21.6700   19.5150 C   0  0  0  0  0  1  0  0  0  0  0  0
  -32.8560  -21.5570   20.9130 C   0  0  0  0  0  2  0  0  0  0  0  0
  -27.7760  -24.1980   22.0250 C   0  0  0  0  0  1  0  0  0  0  0  0
  -28.1190  -23.7790   20.5870 C   0  0  0  0  0  3  0  0  0  0  0  0
  -28.3820  -25.0710   19.6450 C   0  0  0  0  0  2  0  0  0  0  0  0
  -28.3150  -26.4800   20.1440 O   0  0  0  0  0  0  0  0  0  0  0  0
  -24.5970  -31.8620   23.1880 C   0  0  0  0  0  0  0  0  0  0  0  0
  -27.1720  -27.2980   20.0890 C   0  0  0  0  0  0  0  0  0  0  0  0
  -23.3720  -30.4690   21.5570 C   0  0  0  0  0  3  0  0  0  0  0  0
  -24.8050  -28.9170   20.1090 C   0  0  0  0  0  0  0  0  0  0  0  0
  -25.9080  -30.7830   21.3450 C   0  0  0  0  0  2  0  0  0  0  0  0
  -25.9790  -29.4050   20.6930 C   0  0  0  0  0  0  0  0  0  0  0  0
  -27.1610  -28.6050   20.6740 C   0  0  0  0  0  3  0  0  0  0  0  0
  -25.9700  -26.8580   19.4930 C   0  0  0  0  0  3  0  0  0  0  0  0
  -24.8030  -27.6500   19.5030 C   0  0  0  0  0  3  0  0  0  0  0  0
  -23.5680  -29.7930   20.1740 C   0  0  0  0  0  2  0  0  0  0  0  0
  -24.6450  -31.0570   22.0860 N   0  0  0  0  0  0  0  0  0  0  0  0
  -23.5210  -32.1390   23.7380 O   0  0  0  0  0  0  0  0  0  0  0  0
  -22.7230  -29.4520   22.5240 C   0  0  0  0  0  0  0  0  0  0  0  0
  -21.3940  -29.2760   22.4120 N   0  0  0  0  0  0  0  0  0  0  0  0
  -23.4110  -28.8220   23.3310 O   0  0  0  0  0  0  0  0  0  0  0  0
  -20.8980  -29.8330   21.7320 H   0  0  0  0  0  0  0  0  0  0  0  0
  -18.0240  -28.0820   22.9460 C   0  0  0  0  0  0  0  0  0  0  0  0
  -20.5840  -28.3380   23.1900 C   0  0  0  0  0  3  0  0  0  0  0  0
  -20.6790  -26.9090   22.6080 C   0  0  0  0  0  2  0  0  0  0  0  0
  -19.5670  -26.5910   21.6050 C   0  0  0  0  0  2  0  0  0  0  0  0
  -18.1920  -26.7360   22.2630 C   0  0  0  0  0  2  0  0  0  0  0  0
  -19.1460  -28.8410   23.3660 C   0  0  0  0  0  0  0  0  0  0  0  0
  -18.9370  -30.1030   23.9650 C   0  0  0  0  0  3  0  0  0  0  0  0
  -17.6340  -30.6050   24.1470 C   0  0  0  0  0  3  0  0  0  0  0  0
  -16.5250  -29.8430   23.7440 C   0  0  0  0  0  3  0  0  0  0  0  0
  -16.7200  -28.5830   23.1500 C   0  0  0  0  0  3  0  0  0  0  0  0
  -25.8890  -32.4910   23.7990 C   0  0  0  0  0  3  0  0  0  0  0  0
  -25.5820  -33.8840   24.1500 N   0  0  0  0  0  0  0  0  0  0  0  0
  -25.9010  -34.9480   23.4010 C   0  0  0  0  0  0  0  0  0  0  0  0
  -26.5550  -34.8590   22.3580 O   0  0  0  0  0  0  0  0  0  0  0  0
  -24.9980  -34.0290   24.9610 H   0  0  0  0  0  0  0  0  0  0  0  0
  -24.1630  -36.7420   23.1000 C   0  0  0  0  0  1  0  0  0  0  0  0
  -25.4180  -36.3290   23.8860 C   0  0  0  0  0  3  0  0  0  0  0  0
  -27.5640  -37.2080   24.6940 C   0  0  0  0  0  1  0  0  0  0  0  0
  -26.4460  -37.3860   23.7710 N   0  0  0  0  0  0  0  0  0  0  0  0
  -26.0410  -38.3040   23.9360 H   0  0  0  0  0  0  0  0  0  0  0  0
  -26.4270  -31.7060   25.0580 C   0  0  1  0  0  0  0  0  0  0  0  0
  -25.3490  -31.4590   26.1410 C   0  0  0  0  0  1  0  0  0  0  0  0
  -27.0050  -30.3340   24.6440 C   0  0  0  0  0  1  0  0  0  0  0  0
  -27.5880  -32.4940   25.7100 C   0  0  0  0  0  1  0  0  0  0  0  0
  -29.1010  -18.4870   20.6660 C   0  0  0  0  0  3  0  0  0  0  0  0
  -30.1720  -17.3070   20.3730 C   0  0  0  0  0  3  0  0  0  0  0  0
  -30.5800  -14.7250   20.3300 C   0  0  0  0  0  0  0  0  0  0  0  0
  -30.3840  -12.4670   19.3020 C   0  0  0  0  0  2  0  0  0  0  0  0
  -29.4380  -12.5630   18.0860 C   0  0  0  0  0  2  0  0  0  0  0  0
  -27.9710  -12.3880   18.5240 C   0  0  0  0  0  2  0  0  0  0  0  0
  -27.6050  -13.2630   19.7520 C   0  0  0  0  0  3  0  0  0  0  0  0
  -28.6660  -13.1550   20.8670 C   0  0  0  0  0  2  0  0  0  0  0  0
  -29.9620  -13.5020   20.2700 N   0  0  0  0  0  0  0  0  0  0  0  0
  -31.7600  -14.8430   19.9860 O   0  0  0  0  0  0  0  0  0  0  0  0
  -29.7920  -15.8380   20.5530 N   0  0  0  0  0  0  0  0  0  0  0  0
  -28.8260  -15.6430   20.7730 H   0  0  0  0  0  0  0  0  0  0  0  0
  -25.2170  -13.8500   20.4800 C   0  0  0  0  0  0  0  0  0  0  0  0
  -24.1540  -13.0730   20.8560 C   0  0  0  0  0  0  0  0  0  0  0  0
  -24.6220  -11.7240   20.8280 C   0  0  0  0  0  0  0  0  0  0  0  0
  -26.2620  -12.9730   20.2450 N   0  0  0  0  0  0  0  0  0  0  0  0
  -25.9110  -11.6900   20.5170 N   0  0  0  0  0  0  0  0  0  0  0  0
  -23.9010  -10.4590   21.0230 C   0  0  0  0  0  0  0  0  0  0  0  0
  -24.3450   -9.4910   21.9500 C   0  0  0  0  0  3  0  0  0  0  0  0
  -23.6250   -8.2920   22.1350 C   0  0  0  0  0  3  0  0  0  0  0  0
  -22.4450   -8.0520   21.3900 C   0  0  0  0  0  0  0  0  0  0  0  0
  -22.0220   -9.0080   20.4520 C   0  0  0  0  0  3  0  0  0  0  0  0
  -22.7420  -10.1990   20.2660 C   0  0  0  0  0  3  0  0  0  0  0  0
  -21.6950   -6.9050   21.4830 O   0  0  0  0  0  0  0  0  0  0  0  0
  -21.6660   -6.1560   22.6310 C   0  0  0  0  0  0  0  0  0  0  0  0
  -21.2610   -6.7040   23.8680 C   0  0  0  0  0  3  0  0  0  0  0  0
  -21.1780   -5.8810   25.0080 C   0  0  0  0  0  3  0  0  0  0  0  0
  -21.4910   -4.5110   24.9130 C   0  0  0  0  0  0  0  0  0  0  0  0
  -21.8890   -3.9630   23.6820 C   0  0  0  0  0  3  0  0  0  0  0  0
  -21.9730   -4.7840   22.5430 C   0  0  0  0  0  0  0  0  0  0  0  0
  -22.3360   -4.2460   21.3540 F   0  0  0  0  0  0  0  0  0  0  0  0
  -21.4050   -3.7180   26.0060 F   0  0  0  0  0  0  0  0  0  0  0  0
  -22.7560  -13.5450   21.1300 C   0  0  0  0  0  0  0  0  0  0  0  0
  -22.0320  -12.8490   22.0000 N   0  0  0  0  0  0  0  0  0  0  0  0
  -22.3130  -14.5670   20.6070 O   0  0  0  0  0  0  0  0  0  0  0  0
  -22.4010  -12.0210   22.4460 H   0  0  0  0  0  0  0  0  0  0  0  0
  -21.0940  -13.1490   22.2260 H   0  0  0  0  0  0  0  0  0  0  0  0
  -25.3740  -15.2200   20.2900 N   0  0  0  0  0  0  0  0  0  0  0  0
  -24.6060  -15.8740   20.3920 H   0  0  0  0  0  0  0  0  0  0  0  0
  -26.2100  -15.6530   19.9220 H   0  0  0  0  0  0  0  0  0  0  0  0
  1  4  2  0
  1  2  1  0
  2 11  1  0
  2  3  2  0
  3  5  1  0
  3  6  1  0
  4 54  1  0
  4  7  1  0
  5  9  1  0
  7  5  2  0
  8  9  1  0
 11 10  1  0
 12 13  1  0
 12 11  1  0
 14 25  2  0
 15 13  1  0
 15 20  1  0
 16 24  1  0
 16 26  1  0
 17 23  1  0
 17 19  1  0
 18 24  1  0
 19 18  1  0
 20 19  2  0
 21 22  1  0
 21 15  2  0
 22 17  2  0
 23 16  1  0
 24 14  1  0
 26 28  2  0
 27 26  1  0
 29 27  1  0
 30 39  2  0
 30 35  1  0
 31 27  1  0
 31 35  1  0
 32 31  1  0
 33 34  1  0
 33 32  1  0
 34 30  1  0
 35 36  2  0
 36 37  1  0
 38 37  2  0
 39 38  1  0
 40 14  1  0
 40 41  1  0
 40 50  1  0
 41 44  1  0
 42 46  1  0
 42 41  1  0
 43 42  2  0
 46 45  1  0
 48 46  1  0
 48 49  1  0
 48 47  1  0
 50 53  1  1
 50 51  1  0
 52 50  1  0
 55 64  1  0
 55 54  2  0
 56 64  1  0
 57 62  1  0
 58 59  1  0
 58 57  1  0
 60 59  1  0
 60 69  1  0
 60 61  1  0
 62 56  1  0
 62 61  1  0
 63 56  2  0
 64 65  1  0
 66 67  2  0
 67 86  1  0
 68 67  1  0
 68 71  1  0
 69 66  1  0
 69 70  1  0
 70 68  2  0
 71 72  1  0
 72 73  2  0
 74 77  1  0
 74 73  1  0
 75 74  2  0
 76 75  1  0
 76 71  2  0
 77 78  1  0
 78 79  1  0
 79 80  2  0
 81 80  1  0
 81 85  1  0
 82 81  2  0
 83 78  2  0
 83 82  1  0
 84 83  1  0
 86 87  1  0
 87 90  1  0
 87 89  1  0
 88 86  2  0
 91 92  1  0
 91 66  1  0
 93 91  1  0
M  ISO  4  12 101  13 101  56 100  64 100
M  END
>  <TORSDO>  (57) 
F 21

>  <SCORE>  (57) 
-13.445

>  <name>  (57) 
57

>  <ligand_id>  (57) 
57

>  <original_smiles>  (57) 
[H]c1c([H])c([H])c2c(c1[H])C([H])([H])C([H])([H])C([H])([H])C2([H])N([H])C(=O)C1([H])N(C(=O)C([H])(N([H])C(=O)C([H])(N([H])C([H])([H])[H])C([H])([H])[H])C(C([H])([H])[H])(C([H])([H])[H])C([H])([H])[H])C([H])([H])c2c([H])c(OC([H])([H])C([H])(c3c([H])c(C([H])([H])C([H])([H])N([H])C(=O)N4C([H])([H])C([H])([H])C([H])([H])C([H])(n5nc(-c6c([H])c([H])c(Oc7c([H])c([H])c(F)c([H])c7F)c([H])c6[H])c(C(=O)N([H])[H])c5N([H])[H])C4([H])[H])nc(C([H])([H])C([H])([H])[H])c3C([H])([H])[H])C([H])([H])[H])c([H])c([H])c2C1([H])[H]

>  <smiles>  (57) 
[H]c1c([H])c([H])c2c(c1[H])C([H])([H])C([H])([H])C([H])([H])C2([H])N([H])C(=O)C1([H])N(C(=O)C([H])(N([H])C(=O)C([H])(N([H])C([H])([H])[H])C([H])([H])[H])C(C([H])([H])[H])(C([H])([H])[H])C([H])([H])[H])C([H])([H])c2c([H])c(OC([H])([H])C([H])(c3c([H])c(C([H])([H])C([H])([H])N([H])C(=O)N4C([H])([H])C([H])([H])C([H])([H])C([H])(n5nc(-c6c([H])c([H])c(Oc7c([H])c([H])c(F)c([H])c7F)c([H])c6[H])c(C(=O)N([H])[H])c5N([H])[H])C4([H])[H])nc(C([H])([H])C([H])([H])[H])c3C([H])([H])[H])C([H])([H])[H])c([H])c([H])c2C1([H])[H]

$$$$
58:0:0
     RDKit          3D

 99107  0  0  1  0  0  0  0  0999 V2000
  -31.1960  -21.7750   19.8050 C   0  0  0  0  0  3  0  0  0  0  0  0
  -31.9210  -21.1460   18.8400 C   0  0  0  0  0  0  0  0  0  0  0  0
  -31.4850  -19.7640   18.8560 C   0  0  0  0  0  0  0  0  0  0  0  0
  -30.5010  -19.6330   19.8340 C   0  0  0  0  0  0  0  0  0  0  0  0
  -30.2320  -20.9400   20.3080 N   0  0  0  0  0  0  0  0  0  0  0  0
  -33.1880  -23.3320   18.4960 C   0  0  0  0  0  1  0  0  0  0  0  0
  -32.2360  -22.1120   16.5520 C   0  0  0  0  0  1  0  0  0  0  0  0
  -34.2690  -21.2460   17.7390 C   0  0  0  0  0  1  0  0  0  0  0  0
  -32.8980  -21.9210   17.9260 C   0  0  2  0  0  0  0  0  0  0  0  0
  -33.0560  -17.7430   18.5250 C   0  0  0  0  0  1  0  0  0  0  0  0
  -32.0100  -18.6870   17.8910 C   0  0  0  0  0  3  0  0  0  0  0  0
  -30.0020  -18.7800   16.2470 C   0  0  0  0  0  1  0  0  0  0  0  0
  -30.9450  -17.9010   17.0900 C   0  0  0  0  0  2  0  0  0  0  0  0
  -29.7060  -18.3800   20.2780 C   0  0  0  0  0  2  0  0  0  0  0  0
  -30.5260  -17.2050   20.9370 C   0  0  0  0  0  2  0  0  0  0  0  0
  -30.6950  -14.7120   20.4240 C   0  0  0  0  0  0  0  0  0  0  0  0
  -30.4050  -12.5300   19.2930 C   0  0  0  0  0  2  0  0  0  0  0  0
  -29.4540  -12.7090   18.0930 C   0  0  0  0  0  2  0  0  0  0  0  0
  -27.9870  -12.5410   18.5390 C   0  0  0  0  0  2  0  0  0  0  0  0
  -27.6470  -13.3670   19.8110 C   0  0  0  0  0  3  0  0  0  0  0  0
  -28.7240  -13.1960   20.9050 C   0  0  0  0  0  2  0  0  0  0  0  0
  -30.0240  -13.5290   20.3090 N   0  0  0  0  0  0  0  0  0  0  0  0
  -31.8550  -14.8330   20.0250 O   0  0  0  0  0  0  0  0  0  0  0  0
  -29.9900  -15.8080   20.8240 N   0  0  0  0  0  0  0  0  0  0  0  0
  -29.0280  -15.6560   21.0920 H   0  0  0  0  0  0  0  0  0  0  0  0
  -25.2560  -13.9240   20.5720 C   0  0  0  0  0  0  0  0  0  0  0  0
  -24.2010  -13.1320   20.9390 C   0  0  0  0  0  0  0  0  0  0  0  0
  -24.6770  -11.7860   20.8770 C   0  0  0  0  0  0  0  0  0  0  0  0
  -26.3080  -13.0610   20.3100 N   0  0  0  0  0  0  0  0  0  0  0  0
  -25.9650  -11.7700   20.5540 N   0  0  0  0  0  0  0  0  0  0  0  0
  -23.9660  -10.5130   21.0510 C   0  0  0  0  0  0  0  0  0  0  0  0
  -24.3850   -9.5580   22.0030 C   0  0  0  0  0  3  0  0  0  0  0  0
  -23.6750   -8.3490   22.1640 C   0  0  0  0  0  3  0  0  0  0  0  0
  -22.5320   -8.0860   21.3720 C   0  0  0  0  0  0  0  0  0  0  0  0
  -22.1340   -9.0280   20.4090 C   0  0  0  0  0  3  0  0  0  0  0  0
  -22.8450  -10.2300   20.2460 C   0  0  0  0  0  3  0  0  0  0  0  0
  -21.7940   -6.9280   21.4410 O   0  0  0  0  0  0  0  0  0  0  0  0
  -21.6840   -6.2140   22.6060 C   0  0  0  0  0  0  0  0  0  0  0  0
  -21.1180   -6.7720   23.7740 C   0  0  0  0  0  3  0  0  0  0  0  0
  -20.9640   -5.9790   24.9290 C   0  0  0  0  0  3  0  0  0  0  0  0
  -21.3640   -4.6290   24.9150 C   0  0  0  0  0  0  0  0  0  0  0  0
  -21.9240   -4.0720   23.7520 C   0  0  0  0  0  3  0  0  0  0  0  0
  -22.0800   -4.8610   22.6010 C   0  0  0  0  0  0  0  0  0  0  0  0
  -22.6000   -4.3130   21.4760 F   0  0  0  0  0  0  0  0  0  0  0  0
  -21.2100   -3.8650   26.0220 F   0  0  0  0  0  0  0  0  0  0  0  0
  -22.8020  -13.5870   21.2350 C   0  0  0  0  0  0  0  0  0  0  0  0
  -22.0830  -12.8590   22.0830 N   0  0  0  0  0  0  0  0  0  0  0  0
  -22.3520  -14.6230   20.7450 O   0  0  0  0  0  0  0  0  0  0  0  0
  -22.4560  -12.0180   22.4980 H   0  0  0  0  0  0  0  0  0  0  0  0
  -21.1450  -13.1480   22.3180 H   0  0  0  0  0  0  0  0  0  0  0  0
  -25.3970  -15.3000   20.4180 N   0  0  0  0  0  0  0  0  0  0  0  0
  -24.6130  -15.9310   20.5450 H   0  0  0  0  0  0  0  0  0  0  0  0
  -26.2190  -15.7660   20.0600 H   0  0  0  0  0  0  0  0  0  0  0  0
  -29.1460  -21.4290   21.1810 C   0  0  0  0  0  2  0  0  0  0  0  0
  -29.0550  -22.9830   21.5060 C   0  0  0  0  0  2  0  0  0  0  0  0
  -27.7930  -23.5980   19.3510 C   0  0  0  0  0  1  0  0  0  0  0  0
  -28.7870  -24.0960   20.4130 C   0  0  0  0  0  3  0  0  0  0  0  0
  -28.3320  -25.4570   21.0770 C   0  0  0  0  0  2  0  0  0  0  0  0
  -28.4300  -26.6960   20.3080 O   0  0  0  0  0  0  0  0  0  0  0  0
  -24.5770  -31.9930   23.2750 C   0  0  0  0  0  0  0  0  0  0  0  0
  -27.2890  -27.4880   20.2960 C   0  0  0  0  0  0  0  0  0  0  0  0
  -23.4030  -30.5610   21.6360 C   0  0  0  0  0  3  0  0  0  0  0  0
  -24.8900  -29.0100   20.2520 C   0  0  0  0  0  0  0  0  0  0  0  0
  -25.9360  -30.9270   21.4660 C   0  0  0  0  0  2  0  0  0  0  0  0
  -26.0440  -29.5460   20.8390 C   0  0  0  0  0  0  0  0  0  0  0  0
  -27.2540  -28.7980   20.8480 C   0  0  0  0  0  3  0  0  0  0  0  0
  -26.1150  -26.9780   19.7050 C   0  0  0  0  0  3  0  0  0  0  0  0
  -24.9230  -27.7260   19.6790 C   0  0  0  0  0  3  0  0  0  0  0  0
  -23.6380  -29.8620   20.2710 C   0  0  0  0  0  2  0  0  0  0  0  0
  -24.6580  -31.1770   22.1820 N   0  0  0  0  0  0  0  0  0  0  0  0
  -23.4870  -32.2620   23.7980 O   0  0  0  0  0  0  0  0  0  0  0  0
  -22.7490  -29.5480   22.6040 C   0  0  0  0  0  0  0  0  0  0  0  0
  -21.4340  -29.3310   22.4510 N   0  0  0  0  0  0  0  0  0  0  0  0
  -23.4280  -28.9550   23.4480 O   0  0  0  0  0  0  0  0  0  0  0  0
  -20.9450  -29.8590   21.7430 H   0  0  0  0  0  0  0  0  0  0  0  0
  -18.0740  -28.0750   22.9050 C   0  0  0  0  0  0  0  0  0  0  0  0
  -20.6200  -28.3900   23.2230 C   0  0  0  0  0  3  0  0  0  0  0  0
  -20.7610  -26.9500   22.6740 C   0  0  0  0  0  2  0  0  0  0  0  0
  -19.6860  -26.5870   21.6450 C   0  0  0  0  0  2  0  0  0  0  0  0
  -18.2900  -26.7180   22.2570 C   0  0  0  0  0  2  0  0  0  0  0  0
  -19.1680  -28.8670   23.3430 C   0  0  0  0  0  0  0  0  0  0  0  0
  -18.9110  -30.1370   23.9040 C   0  0  0  0  0  3  0  0  0  0  0  0
  -17.5920  -30.6120   24.0380 C   0  0  0  0  0  3  0  0  0  0  0  0
  -16.5130  -29.8150   23.6190 C   0  0  0  0  0  3  0  0  0  0  0  0
  -16.7540  -28.5500   23.0560 C   0  0  0  0  0  3  0  0  0  0  0  0
  -25.8500  -32.6460   23.9000 C   0  0  0  0  0  3  0  0  0  0  0  0
  -26.3710  -31.8910   25.1850 C   0  0  1  0  0  0  0  0  0  0  0  0
  -25.2740  -31.6280   26.2430 C   0  0  0  0  0  1  0  0  0  0  0  0
  -26.9960  -30.5290   24.8060 C   0  0  0  0  0  1  0  0  0  0  0  0
  -27.4980  -32.7130   25.8540 C   0  0  0  0  0  1  0  0  0  0  0  0
  -25.5230  -34.0420   24.2210 N   0  0  0  0  0  0  0  0  0  0  0  0
  -25.8330  -35.0930   23.4470 C   0  0  0  0  0  0  0  0  0  0  0  0
  -26.4970  -34.9880   22.4130 O   0  0  0  0  0  0  0  0  0  0  0  0
  -24.9470  -34.1980   25.0360 H   0  0  0  0  0  0  0  0  0  0  0  0
  -24.0770  -36.8530   23.0690 C   0  0  0  0  0  1  0  0  0  0  0  0
  -25.3220  -36.4770   23.8900 C   0  0  0  0  0  3  0  0  0  0  0  0
  -27.4340  -37.4060   24.7300 C   0  0  0  0  0  1  0  0  0  0  0  0
  -26.3390  -37.5450   23.7730 N   0  0  0  0  0  0  0  0  0  0  0  0
  -25.9170  -38.4600   23.9060 H   0  0  0  0  0  0  0  0  0  0  0  0
  1  5  1  0
  2  3  1  0
  2  1  2  0
  3  4  2  0
  4 14  1  0
  4  5  1  0
  5 54  1  0
  9  7  1  6
  8  9  1  0
  9  6  1  0
  9  2  1  0
 11 10  1  0
 11  3  1  0
 12 13  1  0
 13 11  1  0
 14 15  1  0
 16 24  1  0
 17 22  1  0
 18 19  1  0
 18 17  1  0
 20 19  1  0
 20 29  1  0
 20 21  1  0
 22 16  1  0
 22 21  1  0
 23 16  2  0
 24 15  1  0
 24 25  1  0
 26 27  2  0
 27 46  1  0
 28 27  1  0
 28 31  1  0
 29 30  1  0
 29 26  1  0
 30 28  2  0
 31 32  1  0
 32 33  2  0
 34 37  1  0
 34 33  1  0
 35 34  2  0
 36 35  1  0
 36 31  2  0
 37 38  1  0
 38 39  1  0
 39 40  2  0
 41 40  1  0
 41 45  1  0
 42 41  2  0
 43 38  2  0
 43 42  1  0
 44 43  1  0
 46 47  1  0
 47 50  1  0
 47 49  1  0
 48 46  2  0
 51 52  1  0
 51 26  1  0
 53 51  1  0
 54 55  1  0
 57 56  1  0
 57 58  1  0
 57 55  1  0
 59 58  1  0
 60 71  2  0
 61 59  1  0
 61 66  1  0
 62 70  1  0
 62 72  1  0
 63 69  1  0
 63 65  1  0
 64 70  1  0
 65 66  2  0
 65 64  1  0
 67 61  2  0
 68 67  1  0
 68 63  2  0
 69 62  1  0
 70 60  1  0
 72 74  2  0
 73 72  1  0
 75 73  1  0
 76 85  2  0
 76 81  1  0
 77 73  1  0
 77 81  1  0
 78 77  1  0
 79 80  1  0
 79 78  1  0
 80 76  1  0
 81 82  2  0
 82 83  1  0
 84 83  2  0
 85 84  1  0
 86 60  1  0
 86 91  1  0
 86 87  1  0
 87 90  1  1
 87 88  1  0
 89 87  1  0
 91 94  1  0
 92 96  1  0
 92 91  1  0
 93 92  2  0
 96 95  1  0
 98 96  1  0
 98 99  1  0
 98 97  1  0
M  ISO  4  16 100  24 100  58 101  59 101
M  END
>  <TORSDO>  (58) 
F 25

>  <SCORE>  (58) 
-12.430

>  <name>  (58) 
58

>  <ligand_id>  (58) 
58

>  <original_smiles>  (58) 
[H]c1c([H])c([H])c2c(c1[H])C([H])([H])C([H])([H])C([H])([H])C2([H])N([H])C(=O)C1([H])N(C(=O)C([H])(N([H])C(=O)C([H])(N([H])C([H])([H])[H])C([H])([H])[H])C(C([H])([H])[H])(C([H])([H])[H])C([H])([H])[H])C([H])([H])c2c([H])c(OC([H])([H])C([H])(C([H])([H])[H])C([H])([H])C([H])([H])n3c([H])c(C(C([H])([H])[H])(C([H])([H])[H])C([H])([H])[H])c(C([H])(C([H])([H])[H])C([H])([H])C([H])([H])[H])c3C([H])([H])C([H])([H])N([H])C(=O)N3C([H])([H])C([H])([H])C([H])([H])C([H])(n4nc(-c5c([H])c([H])c(Oc6c([H])c([H])c(F)c([H])c6F)c([H])c5[H])c(C(=O)N([H])[H])c4N([H])[H])C3([H])[H])c([H])c([H])c2C1([H])[H]

>  <smiles>  (58) 
[H]c1c([H])c([H])c2c(c1[H])C([H])([H])C([H])([H])C([H])([H])C2([H])N([H])C(=O)C1([H])N(C(=O)C([H])(N([H])C(=O)C([H])(N([H])C([H])([H])[H])C([H])([H])[H])C(C([H])([H])[H])(C([H])([H])[H])C([H])([H])[H])C([H])([H])c2c([H])c(OC([H])([H])C([H])(C([H])([H])[H])C([H])([H])C([H])([H])n3c([H])c(C(C([H])([H])[H])(C([H])([H])[H])C([H])([H])[H])c(C([H])(C([H])([H])[H])C([H])([H])C([H])([H])[H])c3C([H])([H])C([H])([H])N([H])C(=O)N3C([H])([H])C([H])([H])C([H])([H])C([H])(n4nc(-c5c([H])c([H])c(Oc6c([H])c([H])c(F)c([H])c6F)c([H])c5[H])c(C(=O)N([H])[H])c4N([H])[H])C3([H])[H])c([H])c([H])c2C1([H])[H]

$$$$
59:0:0
     RDKit          3D

 98106  0  0  1  0  0  0  0  0999 V2000
  -29.7520  -21.1690   21.3830 C   0  0  0  0  0  3  0  0  0  0  0  0
  -28.6640  -19.5080   20.0080 C   0  0  0  0  0  3  0  0  0  0  0  0
  -28.6600  -20.7980   20.5790 C   0  0  0  0  0  0  0  0  0  0  0  0
  -30.8230  -20.2700   21.5430 C   0  0  0  0  0  0  0  0  0  0  0  0
  -29.7770  -18.6610   20.2220 C   0  0  0  0  0  0  0  0  0  0  0  0
  -30.8480  -19.0630   20.9420 N   0  0  0  0  0  0  0  0  0  0  0  0
  -30.9110  -17.5910   18.2720 C   0  0  0  0  0  1  0  0  0  0  0  0
  -29.9290  -17.3540   19.4330 C   0  0  0  0  0  3  0  0  0  0  0  0
  -30.3870  -16.1090   20.2570 C   0  0  0  0  0  2  0  0  0  0  0  0
  -30.1880  -13.8330   19.2710 C   0  0  0  0  0  0  0  0  0  0  0  0
  -30.0010  -11.4520   18.6460 C   0  0  0  0  0  2  0  0  0  0  0  0
  -28.9590  -11.2430   17.5320 C   0  0  0  0  0  2  0  0  0  0  0  0
  -27.5540  -11.0680   18.1360 C   0  0  0  0  0  2  0  0  0  0  0  0
  -27.2060  -12.1740   19.1670 C   0  0  0  0  0  3  0  0  0  0  0  0
  -28.3510  -12.3570   20.1860 C   0  0  0  0  0  2  0  0  0  0  0  0
  -29.5940  -12.6210   19.4400 N   0  0  0  0  0  0  0  0  0  0  0  0
  -31.1540  -14.0100   18.5250 O   0  0  0  0  0  0  0  0  0  0  0  0
  -29.6880  -14.8410   20.0010 N   0  0  0  0  0  0  0  0  0  0  0  0
  -28.8740  -14.6410   20.5650 H   0  0  0  0  0  0  0  0  0  0  0  0
  -24.9380  -12.7870   20.2160 C   0  0  0  0  0  0  0  0  0  0  0  0
  -23.9300  -12.0170   20.7290 C   0  0  0  0  0  0  0  0  0  0  0  0
  -24.3740  -10.6640   20.6240 C   0  0  0  0  0  0  0  0  0  0  0  0
  -25.9340  -11.9030   19.8330 N   0  0  0  0  0  0  0  0  0  0  0  0
  -25.6050  -10.6200   20.1330 N   0  0  0  0  0  0  0  0  0  0  0  0
  -23.6760   -9.4030   20.9080 C   0  0  0  0  0  0  0  0  0  0  0  0
  -24.0170   -8.6060   22.0230 C   0  0  0  0  0  3  0  0  0  0  0  0
  -23.3190   -7.4060   22.2840 C   0  0  0  0  0  3  0  0  0  0  0  0
  -22.2690   -6.9950   21.4300 C   0  0  0  0  0  0  0  0  0  0  0  0
  -21.9500   -7.7810   20.3090 C   0  0  0  0  0  3  0  0  0  0  0  0
  -22.6490   -8.9710   20.0470 C   0  0  0  0  0  3  0  0  0  0  0  0
  -21.5540   -5.8330   21.5920 O   0  0  0  0  0  0  0  0  0  0  0  0
  -21.1850   -5.3820   22.8340 C   0  0  0  0  0  0  0  0  0  0  0  0
  -20.2470   -6.0740   23.6300 C   0  0  0  0  0  3  0  0  0  0  0  0
  -19.8440   -5.5380   24.8690 C   0  0  0  0  0  3  0  0  0  0  0  0
  -20.3680   -4.3080   25.3100 C   0  0  0  0  0  0  0  0  0  0  0  0
  -21.2990   -3.6140   24.5150 C   0  0  0  0  0  3  0  0  0  0  0  0
  -21.7030   -4.1490   23.2790 C   0  0  0  0  0  0  0  0  0  0  0  0
  -22.5830   -3.4650   22.5080 F   0  0  0  0  0  0  0  0  0  0  0  0
  -19.9760   -3.7880   26.4960 F   0  0  0  0  0  0  0  0  0  0  0  0
  -22.5880  -12.4980   21.2040 C   0  0  0  0  0  0  0  0  0  0  0  0
  -21.9660  -11.7680   22.1220 N   0  0  0  0  0  0  0  0  0  0  0  0
  -22.1050  -13.5540   20.7940 O   0  0  0  0  0  0  0  0  0  0  0  0
  -22.3730  -10.9130   22.4720 H   0  0  0  0  0  0  0  0  0  0  0  0
  -21.0700  -12.0670   22.4800 H   0  0  0  0  0  0  0  0  0  0  0  0
  -25.0860  -14.1570   20.0220 N   0  0  0  0  0  0  0  0  0  0  0  0
  -24.3630  -14.8230   20.2650 H   0  0  0  0  0  0  0  0  0  0  0  0
  -25.9020  -14.5890   19.6070 H   0  0  0  0  0  0  0  0  0  0  0  0
  -27.5480  -21.8060   20.3040 C   0  0  0  0  0  2  0  0  0  0  0  0
  -28.0520  -23.0100   19.4770 C   0  0  0  0  0  2  0  0  0  0  0  0
  -26.9470  -23.9880   19.0140 C   0  0  0  0  0  2  0  0  0  0  0  0
  -28.1010  -26.2630   19.4900 C   0  0  0  0  0  1  0  0  0  0  0  0
  -27.5040  -25.3120   18.4350 C   0  0  0  0  0  3  0  0  0  0  0  0
  -26.5770  -25.9800   17.5660 O   0  0  0  0  0  0  0  0  0  0  0  0
  -24.8350  -30.5480   22.7370 C   0  0  0  0  0  0  0  0  0  0  0  0
  -25.6110  -26.7870   18.1210 C   0  0  0  0  0  0  0  0  0  0  0  0
  -22.9810  -29.8330   21.2630 C   0  0  0  0  0  3  0  0  0  0  0  0
  -23.6640  -28.5390   19.1740 C   0  0  0  0  0  0  0  0  0  0  0  0
  -25.3880  -29.8710   20.4050 C   0  0  0  0  0  2  0  0  0  0  0  0
  -25.0160  -28.7220   19.4920 C   0  0  0  0  0  0  0  0  0  0  0  0
  -25.9930  -27.8540   18.9620 C   0  0  0  0  0  3  0  0  0  0  0  0
  -24.2480  -26.6130   17.8030 C   0  0  0  0  0  3  0  0  0  0  0  0
  -23.2730  -27.4830   18.3320 C   0  0  0  0  0  3  0  0  0  0  0  0
  -22.6850  -29.5240   19.7700 C   0  0  0  0  0  2  0  0  0  0  0  0
  -24.4370  -30.0790   21.5210 N   0  0  0  0  0  0  0  0  0  0  0  0
  -24.0090  -30.8160   23.6210 O   0  0  0  0  0  0  0  0  0  0  0  0
  -22.3900  -28.6960   22.1270 C   0  0  0  0  0  0  0  0  0  0  0  0
  -21.0570  -28.5450   22.0850 N   0  0  0  0  0  0  0  0  0  0  0  0
  -23.1240  -27.9570   22.7880 O   0  0  0  0  0  0  0  0  0  0  0  0
  -20.5240  -29.1930   21.5220 H   0  0  0  0  0  0  0  0  0  0  0  0
  -17.7450  -27.1580   22.4750 C   0  0  0  0  0  0  0  0  0  0  0  0
  -20.2850  -27.5200   22.7860 C   0  0  0  0  0  3  0  0  0  0  0  0
  -20.4620  -26.1380   22.1140 C   0  0  0  0  0  2  0  0  0  0  0  0
  -19.3820  -25.8330   21.0720 C   0  0  0  0  0  2  0  0  0  0  0  0
  -17.9910  -25.8670   21.7120 C   0  0  0  0  0  2  0  0  0  0  0  0
  -18.8220  -27.9420   22.9660 C   0  0  0  0  0  0  0  0  0  0  0  0
  -18.5400  -29.1520   23.6360 C   0  0  0  0  0  3  0  0  0  0  0  0
  -17.2120  -29.5790   23.8220 C   0  0  0  0  0  3  0  0  0  0  0  0
  -16.1480  -28.7910   23.3480 C   0  0  0  0  0  3  0  0  0  0  0  0
  -16.4150  -27.5820   22.6810 C   0  0  0  0  0  3  0  0  0  0  0  0
  -26.3410  -30.7940   23.0680 C   0  0  0  0  0  3  0  0  0  0  0  0
  -26.4270  -32.0440   23.8340 N   0  0  0  0  0  0  0  0  0  0  0  0
  -26.9460  -33.1880   23.3660 C   0  0  0  0  0  0  0  0  0  0  0  0
  -27.4730  -33.2790   22.2520 O   0  0  0  0  0  0  0  0  0  0  0  0
  -25.9670  -32.0580   24.7310 H   0  0  0  0  0  0  0  0  0  0  0  0
  -25.7680  -35.3710   23.7660 C   0  0  0  0  0  1  0  0  0  0  0  0
  -26.8680  -34.4270   24.2770 C   0  0  0  0  0  3  0  0  0  0  0  0
  -29.1660  -34.4390   25.1390 C   0  0  0  0  0  1  0  0  0  0  0  0
  -28.1470  -35.1620   24.3840 N   0  0  0  0  0  0  0  0  0  0  0  0
  -28.0060  -36.0660   24.8270 H   0  0  0  0  0  0  0  0  0  0  0  0
  -27.0040  -29.6040   23.8620 C   0  0  1  0  0  0  0  0  0  0  0  0
  -26.2000  -29.1650   25.1080 C   0  0  0  0  0  1  0  0  0  0  0  0
  -27.1740  -28.3690   22.9470 C   0  0  0  0  0  1  0  0  0  0  0  0
  -28.4230  -30.0100   24.3260 C   0  0  0  0  0  1  0  0  0  0  0  0
  -32.0480  -20.6450   22.3700 C   0  0  0  0  0  2  0  0  0  0  0  0
  -30.4150  -20.4890   24.3620 C   0  0  0  0  0  1  0  0  0  0  0  0
  -32.8880  -20.3050   24.7440 C   0  0  0  0  0  1  0  0  0  0  0  0
  -31.8860  -22.4940   24.0780 C   0  0  0  0  0  1  0  0  0  0  0  0
  -31.8000  -20.9680   23.8770 C   0  0  1  0  0  0  0  0  0  0  0  0
  1  4  1  0
  2  5  2  0
  2  3  1  0
  3  1  2  0
  4 94  1  0
  5  6  1  0
  6  4  2  0
  8  7  1  0
  8  5  1  0
  8  9  1  0
 10 16  1  0
 10 18  1  0
 11 16  1  0
 12 13  1  0
 12 11  1  0
 14 13  1  0
 14 23  1  0
 14 15  1  0
 16 15  1  0
 17 10  2  0
 18  9  1  0
 18 19  1  0
 20 21  2  0
 21 40  1  0
 22 21  1  0
 22 25  1  0
 23 24  1  0
 23 20  1  0
 24 22  2  0
 25 26  1  0
 26 27  2  0
 28 31  1  0
 28 27  1  0
 29 28  2  0
 30 29  1  0
 30 25  2  0
 31 32  1  0
 32 37  2  0
 32 33  1  0
 33 34  2  0
 34 35  1  0
 35 39  1  0
 36 35  2  0
 37 36  1  0
 38 37  1  0
 40 41  1  0
 41 43  1  0
 41 44  1  0
 42 40  2  0
 45 20  1  0
 45 46  1  0
 47 45  1  0
 48  3  1  0
 49 48  1  0
 50 49  1  0
 52 50  1  0
 52 51  1  0
 53 55  1  0
 53 52  1  0
 54 65  2  0
 55 60  1  0
 56 64  1  0
 56 66  1  0
 57 59  1  0
 57 63  1  0
 58 64  1  0
 59 58  1  0
 60 59  2  0
 61 55  2  0
 61 62  1  0
 62 57  2  0
 63 56  1  0
 64 54  1  0
 66 68  2  0
 67 66  1  0
 69 67  1  0
 70 79  2  0
 70 75  1  0
 71 67  1  0
 71 75  1  0
 72 71  1  0
 73 74  1  0
 73 72  1  0
 74 70  1  0
 75 76  2  0
 76 77  1  0
 78 77  2  0
 79 78  1  0
 80 54  1  0
 80 81  1  0
 80 90  1  0
 81 84  1  0
 82 81  1  0
 82 86  1  0
 83 82  2  0
 86 85  1  0
 86 88  1  0
 88 89  1  0
 88 87  1  0
 90 93  1  1
 90 91  1  0
 92 90  1  0
 94 98  1  0
 98 97  1  6
 98 95  1  0
 98 96  1  0
M  ISO  4  10 100  18 100  52 101  53 101
M  END
>  <TORSDO>  (59) 
F 24

>  <SCORE>  (59) 
-2.641

>  <name>  (59) 
59

>  <ligand_id>  (59) 
59

>  <original_smiles>  (59) 
[H]c1c([H])c([H])c2c(c1[H])C([H])([H])C([H])([H])C([H])([H])C2([H])N([H])C(=O)C1([H])N(C(=O)C([H])(N([H])C(=O)C([H])(N([H])C([H])([H])[H])C([H])([H])[H])C(C([H])([H])[H])(C([H])([H])[H])C([H])([H])[H])C([H])([H])c2c([H])c(OC([H])(C([H])([H])[H])C([H])([H])C([H])([H])C([H])([H])c3c([H])c(C([H])([H])C(C([H])([H])[H])(C([H])([H])[H])C([H])([H])[H])nc(C([H])(C([H])([H])[H])C([H])([H])N([H])C(=O)N4C([H])([H])C([H])([H])C([H])([H])C([H])(n5nc(-c6c([H])c([H])c(Oc7c([H])c([H])c(F)c([H])c7F)c([H])c6[H])c(C(=O)N([H])[H])c5N([H])[H])C4([H])[H])c3[H])c([H])c([H])c2C1([H])[H]

>  <smiles>  (59) 
[H]c1c([H])c([H])c2c(c1[H])C([H])([H])C([H])([H])C([H])([H])C2([H])N([H])C(=O)C1([H])N(C(=O)C([H])(N([H])C(=O)C([H])(N([H])C([H])([H])[H])C([H])([H])[H])C(C([H])([H])[H])(C([H])([H])[H])C([H])([H])[H])C([H])([H])c2c([H])c(OC([H])(C([H])([H])[H])C([H])([H])C([H])([H])C([H])([H])c3c([H])c(C([H])([H])C(C([H])([H])[H])(C([H])([H])[H])C([H])([H])[H])nc(C([H])(C([H])([H])[H])C([H])([H])N([H])C(=O)N4C([H])([H])C([H])([H])C([H])([H])C([H])(n5nc(-c6c([H])c([H])c(Oc7c([H])c([H])c(F)c([H])c7F)c([H])c6[H])c(C(=O)N([H])[H])c5N([H])[H])C4([H])[H])c3[H])c([H])c([H])c2C1([H])[H]

$$$$
60:0:0
     RDKit          3D

 98106  0  0  1  0  0  0  0  0999 V2000
  -31.0490  -24.1730   22.9490 C   0  0  0  0  0  3  0  0  0  0  0  0
  -31.1900  -24.6660   21.6280 C   0  0  0  0  0  0  0  0  0  0  0  0
  -31.6810  -22.9910   23.3770 C   0  0  0  0  0  0  0  0  0  0  0  0
  -32.0630  -23.8750   20.7410 C   0  0  0  0  0  0  0  0  0  0  0  0
  -32.4940  -22.3050   22.4530 C   0  0  0  0  0  0  0  0  0  0  0  0
  -32.6630  -22.7540   21.1960 N   0  0  0  0  0  0  0  0  0  0  0  0
  -34.5500  -21.2880   23.5470 C   0  0  0  0  0  1  0  0  0  0  0  0
  -33.5010  -20.1600   21.5210 C   0  0  0  0  0  1  0  0  0  0  0  0
  -33.2490  -21.0090   22.7800 C   0  0  0  0  0  3  0  0  0  0  0  0
  -30.2940  -25.9420   21.3210 C   0  0  0  0  0  2  0  0  0  0  0  0
  -30.1830  -27.1960   22.3710 C   0  0  0  0  0  2  0  0  0  0  0  0
  -30.0330  -27.0020   23.9700 C   0  0  0  0  0  2  0  0  0  0  0  0
  -29.2420  -27.9480   24.8420 O   0  0  0  0  0  0  0  0  0  0  0  0
  -28.8850  -32.6330   30.3750 C   0  0  0  0  0  0  0  0  0  0  0  0
  -29.9250  -28.6920   25.8350 C   0  0  0  0  0  0  0  0  0  0  0  0
  -31.0430  -32.4510   29.1920 C   0  0  0  0  0  3  0  0  0  0  0  0
  -31.3170  -30.4190   27.6610 C   0  0  0  0  0  0  0  0  0  0  0  0
  -29.4640  -30.4290   29.3250 C   0  0  0  0  0  2  0  0  0  0  0  0
  -30.0420  -29.9450   27.9960 C   0  0  0  0  0  0  0  0  0  0  0  0
  -29.3510  -29.0700   27.0950 C   0  0  0  0  0  3  0  0  0  0  0  0
  -31.2380  -29.1480   25.5830 C   0  0  0  0  0  3  0  0  0  0  0  0
  -31.9220  -30.0040   26.4660 C   0  0  0  0  0  3  0  0  0  0  0  0
  -32.0000  -31.3740   28.6200 C   0  0  0  0  0  2  0  0  0  0  0  0
  -29.7410  -31.8600   29.6430 N   0  0  0  0  0  0  0  0  0  0  0  0
  -29.1750  -33.7970   30.6910 O   0  0  0  0  0  0  0  0  0  0  0  0
  -30.8730  -33.5870   28.1530 C   0  0  0  0  0  0  0  0  0  0  0  0
  -31.8600  -34.4960   28.0800 N   0  0  0  0  0  0  0  0  0  0  0  0
  -29.8790  -33.6290   27.4230 O   0  0  0  0  0  0  0  0  0  0  0  0
  -32.6350  -34.4040   28.7230 H   0  0  0  0  0  0  0  0  0  0  0  0
  -33.6850  -37.5150   27.2630 C   0  0  0  0  0  0  0  0  0  0  0  0
  -31.9250  -35.6240   27.1470 C   0  0  0  0  0  3  0  0  0  0  0  0
  -32.6050  -35.2120   25.8220 C   0  0  0  0  0  2  0  0  0  0  0  0
  -34.1120  -35.4910   25.8050 C   0  0  0  0  0  2  0  0  0  0  0  0
  -34.3850  -36.9820   26.0250 C   0  0  0  0  0  2  0  0  0  0  0  0
  -32.5400  -36.8680   27.8010 C   0  0  0  0  0  0  0  0  0  0  0  0
  -31.9490  -37.3870   28.9720 C   0  0  0  0  0  3  0  0  0  0  0  0
  -32.4790  -38.5270   29.6040 C   0  0  0  0  0  3  0  0  0  0  0  0
  -33.6030  -39.1740   29.0600 C   0  0  0  0  0  3  0  0  0  0  0  0
  -34.2010  -38.6680   27.8910 C   0  0  0  0  0  3  0  0  0  0  0  0
  -27.5110  -32.0830   30.8670 C   0  0  0  0  0  3  0  0  0  0  0  0
  -26.3810  -33.1840   30.9120 C   0  0  1  0  0  0  0  0  0  0  0  0
  -26.8000  -34.4820   31.6400 C   0  0  0  0  0  1  0  0  0  0  0  0
  -25.9340  -33.5760   29.4830 C   0  0  0  0  0  1  0  0  0  0  0  0
  -25.1290  -32.6170   31.6210 C   0  0  0  0  0  1  0  0  0  0  0  0
  -27.7190  -31.5020   32.2030 N   0  0  0  0  0  0  0  0  0  0  0  0
  -27.9420  -30.2030   32.4400 C   0  0  0  0  0  0  0  0  0  0  0  0
  -27.9230  -29.3460   31.5500 O   0  0  0  0  0  0  0  0  0  0  0  0
  -27.8010  -32.1530   32.9710 H   0  0  0  0  0  0  0  0  0  0  0  0
  -29.7450  -29.6690   34.1160 C   0  0  0  0  0  1  0  0  0  0  0  0
  -28.2270  -29.7820   33.8960 C   0  0  0  0  0  3  0  0  0  0  0  0
  -26.1290  -28.6260   34.4460 C   0  0  0  0  0  1  0  0  0  0  0  0
  -27.5760  -28.5110   34.2820 N   0  0  0  0  0  0  0  0  0  0  0  0
  -27.9660  -28.1570   35.1510 H   0  0  0  0  0  0  0  0  0  0  0  0
  -31.4040  -22.4560   24.7810 C   0  0  0  0  0  2  0  0  0  0  0  0
  -32.5310  -22.7250   25.8000 C   0  0  0  0  0  2  0  0  0  0  0  0
  -34.0850  -21.0440   26.9460 C   0  0  0  0  0  1  0  0  0  0  0  0
  -32.2240  -22.1220   28.2560 C   0  0  0  0  0  1  0  0  0  0  0  0
  -32.6580  -21.6180   26.8730 C   0  0  0  0  0  3  0  0  0  0  0  0
  -32.3520  -23.9570   19.1880 C   0  0  0  0  0  2  0  0  0  0  0  0
  -31.3500  -24.8060   18.2150 C   0  0  0  0  0  2  0  0  0  0  0  0
  -30.9050  -27.2920   17.4400 C   0  0  0  0  0  0  0  0  0  0  0  0
  -30.6750  -29.2830   15.9440 C   0  0  0  0  0  2  0  0  0  0  0  0
  -31.0430  -28.8820   14.4970 C   0  0  0  0  0  2  0  0  0  0  0  0
  -32.5630  -29.0020   14.2700 C   0  0  0  0  0  2  0  0  0  0  0  0
  -33.3880  -28.3400   15.4040 C   0  0  0  0  0  3  0  0  0  0  0  0
  -32.8730  -28.7560   16.8000 C   0  0  0  0  0  2  0  0  0  0  0  0
  -31.4500  -28.4100   16.8540 N   0  0  0  0  0  0  0  0  0  0  0  0
  -29.6880  -27.2360   17.6430 O   0  0  0  0  0  0  0  0  0  0  0  0
  -31.7050  -26.1700   17.6090 N   0  0  0  0  0  0  0  0  0  0  0  0
  -32.6750  -26.2970   17.3590 H   0  0  0  0  0  0  0  0  0  0  0  0
  -35.8460  -27.6750   15.0870 C   0  0  0  0  0  0  0  0  0  0  0  0
  -36.9810  -28.4180   14.9100 C   0  0  0  0  0  0  0  0  0  0  0  0
  -36.5730  -29.7860   14.9820 C   0  0  0  0  0  0  0  0  0  0  0  0
  -34.8180  -28.5890   15.2540 N   0  0  0  0  0  0  0  0  0  0  0  0
  -35.2770  -29.8670   15.2520 N   0  0  0  0  0  0  0  0  0  0  0  0
  -37.3310  -31.0220   14.7490 C   0  0  0  0  0  0  0  0  0  0  0  0
  -37.9820  -31.6980   15.8040 C   0  0  0  0  0  3  0  0  0  0  0  0
  -38.7230  -32.8730   15.5520 C   0  0  0  0  0  3  0  0  0  0  0  0
  -38.8200  -33.3820   14.2360 C   0  0  0  0  0  0  0  0  0  0  0  0
  -38.1540  -32.7170   13.1930 C   0  0  0  0  0  3  0  0  0  0  0  0
  -37.4120  -31.5500   13.4450 C   0  0  0  0  0  3  0  0  0  0  0  0
  -39.4980  -34.5300   13.9000 O   0  0  0  0  0  0  0  0  0  0  0  0
  -40.8570  -34.6340   14.0530 C   0  0  0  0  0  0  0  0  0  0  0  0
  -41.7550  -33.8370   13.3090 C   0  0  0  0  0  3  0  0  0  0  0  0
  -43.1430  -34.0260   13.4480 C   0  0  0  0  0  3  0  0  0  0  0  0
  -43.6380  -35.0150   14.3200 C   0  0  0  0  0  0  0  0  0  0  0  0
  -42.7450  -35.8140   15.0550 C   0  0  0  0  0  3  0  0  0  0  0  0
  -41.3600  -35.6240   14.9210 C   0  0  0  0  0  0  0  0  0  0  0  0
  -40.5040  -36.4120   15.6170 F   0  0  0  0  0  0  0  0  0  0  0  0
  -44.9720  -35.2020   14.4460 F   0  0  0  0  0  0  0  0  0  0  0  0
  -38.3490  -27.8920   14.5900 C   0  0  0  0  0  0  0  0  0  0  0  0
  -39.3920  -28.5920   15.0230 N   0  0  0  0  0  0  0  0  0  0  0  0
  -38.5010  -26.8270   13.9920 O   0  0  0  0  0  0  0  0  0  0  0  0
  -39.2670  -29.4570   15.5290 H   0  0  0  0  0  0  0  0  0  0  0  0
  -40.3270  -28.2550   14.8480 H   0  0  0  0  0  0  0  0  0  0  0  0
  -35.5970  -26.3060   15.0940 N   0  0  0  0  0  0  0  0  0  0  0  0
  -36.3290  -25.6250   14.9250 H   0  0  0  0  0  0  0  0  0  0  0  0
  -34.6810  -25.8850   15.1770 H   0  0  0  0  0  0  0  0  0  0  0  0
  1  3  1  0
  2  1  2  0
  3 54  1  0
  4  6  2  0
  4  2  1  0
  5  9  1  0
  5  3  2  0
  6  5  1  0
  8  9  1  0
  9  7  1  0
 10  2  1  0
 10 11  1  0
 11 12  1  0
 12 13  1  0
 13 15  1  0
 14 25  2  0
 15 20  1  0
 16 26  1  0
 16 24  1  0
 17 19  1  0
 17 23  1  0
 18 24  1  0
 19 18  1  0
 20 19  2  0
 21 15  2  0
 21 22  1  0
 22 17  2  0
 23 16  1  0
 24 14  1  0
 27 26  1  0
 27 29  1  0
 28 26  2  0
 30 35  2  0
 30 39  1  0
 31 35  1  0
 31 27  1  0
 32 31  1  0
 33 32  1  0
 33 34  1  0
 34 30  1  0
 35 36  1  0
 36 37  2  0
 38 37  1  0
 39 38  2  0
 40 14  1  0
 40 41  1  0
 40 45  1  0
 41 44  1  1
 41 42  1  0
 43 41  1  0
 45 46  1  0
 45 48  1  0
 46 50  1  0
 47 46  2  0
 50 49  1  0
 50 52  1  0
 52 51  1  0
 52 53  1  0
 54 55  1  0
 55 58  1  0
 58 56  1  0
 58 57  1  0
 59  4  1  0
 60 59  1  0
 61 69  1  0
 61 68  2  0
 62 67  1  0
 63 62  1  0
 64 63  1  0
 65 64  1  0
 65 66  1  0
 66 67  1  0
 67 61  1  0
 69 60  1  0
 70 69  1  0
 71 96  1  0
 71 74  1  0
 72 73  1  0
 72 71  2  0
 73 75  2  0
 74 65  1  0
 75 74  1  0
 76 73  1  0
 76 77  1  0
 78 77  2  0
 79 78  1  0
 80 81  1  0
 80 79  2  0
 81 76  2  0
 82 83  1  0
 82 79  1  0
 83 88  1  0
 84 85  1  0
 84 83  2  0
 85 86  2  0
 86 90  1  0
 86 87  1  0
 88 87  2  0
 88 89  1  0
 91 72  1  0
 91 92  1  0
 92 94  1  0
 93 91  2  0
 95 92  1  0
 96 98  1  0
 97 96  1  0
M  ISO  4  12 101  13 101  61 100  69 100
M  END
>  <TORSDO>  (60) 
F 25

>  <SCORE>  (60) 
30.837

>  <name>  (60) 
60

>  <ligand_id>  (60) 
60

>  <original_smiles>  (60) 
[H]c1c([H])c([H])c2c(c1[H])C([H])([H])C([H])([H])C([H])([H])C2([H])N([H])C(=O)C1([H])N(C(=O)C([H])(N([H])C(=O)C([H])(N([H])C([H])([H])[H])C([H])([H])[H])C(C([H])([H])[H])(C([H])([H])[H])C([H])([H])[H])C([H])([H])c2c([H])c(OC([H])([H])C([H])([H])C([H])([H])c3c(C([H])([H])C([H])([H])N([H])C(=O)N4C([H])([H])C([H])([H])C([H])([H])C([H])(n5nc(-c6c([H])c([H])c(Oc7c([H])c([H])c(F)c([H])c7F)c([H])c6[H])c(C(=O)N([H])[H])c5N([H])[H])C4([H])[H])nc(C([H])(C([H])([H])[H])C([H])([H])[H])c(C([H])([H])C([H])([H])C([H])(C([H])([H])[H])C([H])([H])[H])c3[H])c([H])c([H])c2C1([H])[H]

>  <smiles>  (60) 
[H]c1c([H])c([H])c2c(c1[H])C([H])([H])C([H])([H])C([H])([H])C2([H])N([H])C(=O)C1([H])N(C(=O)C([H])(N([H])C(=O)C([H])(N([H])C([H])([H])[H])C([H])([H])[H])C(C([H])([H])[H])(C([H])([H])[H])C([H])([H])[H])C([H])([H])c2c([H])c(OC([H])([H])C([H])([H])C([H])([H])c3c(C([H])([H])C([H])([H])N([H])C(=O)N4C([H])([H])C([H])([H])C([H])([H])C([H])(n5nc(-c6c([H])c([H])c(Oc7c([H])c([H])c(F)c([H])c7F)c([H])c6[H])c(C(=O)N([H])[H])c5N([H])[H])C4([H])[H])nc(C([H])(C([H])([H])[H])C([H])([H])[H])c(C([H])([H])C([H])([H])C([H])(C([H])([H])[H])C([H])([H])[H])c3[H])c([H])c([H])c2C1([H])[H]

$$$$
61:0:0
     RDKit          3D

 98106  0  0  1  0  0  0  0  0999 V2000
  -28.4830  -21.8950   19.2200 C   0  0  0  0  0  3  0  0  0  0  0  0
  -29.8040  -20.6260   20.8090 C   0  0  0  0  0  3  0  0  0  0  0  0
  -29.3050  -21.8690   20.3570 C   0  0  0  0  0  0  0  0  0  0  0  0
  -28.1270  -20.7030   18.5550 C   0  0  0  0  0  0  0  0  0  0  0  0
  -29.4610  -19.4080   20.1700 C   0  0  0  0  0  0  0  0  0  0  0  0
  -28.6050  -19.4490   19.0320 C   0  0  0  0  0  0  0  0  0  0  0  0
  -28.1740  -18.1470   18.3630 C   0  0  0  0  0  1  0  0  0  0  0  0
  -29.9840  -18.1490   22.3090 C   0  0  0  0  0  1  0  0  0  0  0  0
  -29.9730  -18.0780   20.7710 C   0  0  0  0  0  3  0  0  0  0  0  0
  -31.3580  -17.6400   20.2280 C   0  0  0  0  0  2  0  0  0  0  0  0
  -31.3620  -16.5050   19.1750 C   0  0  0  0  0  2  0  0  0  0  0  0
  -31.6170  -14.0310   19.3890 C   0  0  0  0  0  0  0  0  0  0  0  0
  -31.2420  -11.6430   18.9130 C   0  0  0  0  0  2  0  0  0  0  0  0
  -30.2210  -11.5160   17.7630 C   0  0  0  0  0  2  0  0  0  0  0  0
  -28.7800  -11.5300   18.3100 C   0  0  0  0  0  2  0  0  0  0  0  0
  -28.5280  -12.6960   19.3020 C   0  0  0  0  0  3  0  0  0  0  0  0
  -29.6540  -12.7780   20.3590 C   0  0  0  0  0  2  0  0  0  0  0  0
  -30.9380  -12.8820   19.6480 N   0  0  0  0  0  0  0  0  0  0  0  0
  -32.6870  -14.0480   18.7750 O   0  0  0  0  0  0  0  0  0  0  0  0
  -30.9790  -15.1790   19.6970 N   0  0  0  0  0  0  0  0  0  0  0  0
  -30.1070  -15.0980   20.1990 H   0  0  0  0  0  0  0  0  0  0  0  0
  -26.3350  -13.5960   20.3060 C   0  0  0  0  0  0  0  0  0  0  0  0
  -25.2150  -12.9650   20.7710 C   0  0  0  0  0  0  0  0  0  0  0  0
  -25.4680  -11.5660   20.6390 C   0  0  0  0  0  0  0  0  0  0  0  0
  -27.2110  -12.5910   19.9240 N   0  0  0  0  0  0  0  0  0  0  0  0
  -26.6970  -11.3610   20.1800 N   0  0  0  0  0  0  0  0  0  0  0  0
  -24.5920  -10.4110   20.8670 C   0  0  0  0  0  0  0  0  0  0  0  0
  -24.9360   -9.3930   21.7840 C   0  0  0  0  0  3  0  0  0  0  0  0
  -24.0680   -8.3010   22.0000 C   0  0  0  0  0  3  0  0  0  0  0  0
  -22.8410   -8.2210   21.3000 C   0  0  0  0  0  0  0  0  0  0  0  0
  -22.5140   -9.2240   20.3710 C   0  0  0  0  0  3  0  0  0  0  0  0
  -23.3810  -10.3080   20.1530 C   0  0  0  0  0  3  0  0  0  0  0  0
  -21.9470   -7.1860   21.4270 O   0  0  0  0  0  0  0  0  0  0  0  0
  -21.8040   -6.4990   22.6060 C   0  0  0  0  0  0  0  0  0  0  0  0
  -21.4340   -7.1490   23.8050 C   0  0  0  0  0  3  0  0  0  0  0  0
  -21.2300   -6.3950   24.9790 C   0  0  0  0  0  3  0  0  0  0  0  0
  -21.3850   -4.9960   24.9530 C   0  0  0  0  0  0  0  0  0  0  0  0
  -21.7470   -4.3480   23.7610 C   0  0  0  0  0  3  0  0  0  0  0  0
  -21.9530   -5.0980   22.5900 C   0  0  0  0  0  0  0  0  0  0  0  0
  -22.2820   -4.4670   21.4370 F   0  0  0  0  0  0  0  0  0  0  0  0
  -21.1810   -4.2720   26.0790 F   0  0  0  0  0  0  0  0  0  0  0  0
  -23.9410  -13.6200   21.2230 C   0  0  0  0  0  0  0  0  0  0  0  0
  -23.2360  -13.0030   22.1650 N   0  0  0  0  0  0  0  0  0  0  0  0
  -23.5880  -14.7100   20.7760 O   0  0  0  0  0  0  0  0  0  0  0  0
  -23.5360  -12.1180   22.5450 H   0  0  0  0  0  0  0  0  0  0  0  0
  -22.3840  -13.4220   22.5110 H   0  0  0  0  0  0  0  0  0  0  0  0
  -26.6750  -14.9350   20.1550 N   0  0  0  0  0  0  0  0  0  0  0  0
  -26.0180  -15.6810   20.3550 H   0  0  0  0  0  0  0  0  0  0  0  0
  -27.5260  -15.2570   19.7170 H   0  0  0  0  0  0  0  0  0  0  0  0
  -29.6860  -23.1640   21.0750 C   0  0  0  0  0  2  0  0  0  0  0  0
  -28.6330  -24.3090   21.0580 C   0  0  0  0  0  2  0  0  0  0  0  0
  -28.7650  -25.3210   19.8950 C   0  0  0  0  0  2  0  0  0  0  0  0
  -28.6240  -26.6730   20.3510 O   0  0  0  0  0  0  0  0  0  0  0  0
  -24.6870  -31.7660   23.3590 C   0  0  0  0  0  0  0  0  0  0  0  0
  -27.4140  -27.3380   20.3190 C   0  0  0  0  0  0  0  0  0  0  0  0
  -23.5330  -30.4010   21.6460 C   0  0  0  0  0  3  0  0  0  0  0  0
  -25.0260  -28.8620   20.2650 C   0  0  0  0  0  0  0  0  0  0  0  0
  -26.0680  -30.7350   21.5550 C   0  0  0  0  0  2  0  0  0  0  0  0
  -26.1640  -29.3700   20.9020 C   0  0  0  0  0  0  0  0  0  0  0  0
  -27.3570  -28.6160   20.9220 C   0  0  0  0  0  3  0  0  0  0  0  0
  -26.2510  -26.8340   19.6930 C   0  0  0  0  0  3  0  0  0  0  0  0
  -25.0650  -27.5920   19.6600 C   0  0  0  0  0  3  0  0  0  0  0  0
  -23.7920  -29.7350   20.2680 C   0  0  0  0  0  2  0  0  0  0  0  0
  -24.7780  -30.9820   22.2460 N   0  0  0  0  0  0  0  0  0  0  0  0
  -23.5870  -32.0420   23.8580 O   0  0  0  0  0  0  0  0  0  0  0  0
  -22.8340  -29.3740   22.5650 C   0  0  0  0  0  0  0  0  0  0  0  0
  -21.5080  -29.2350   22.4050 N   0  0  0  0  0  0  0  0  0  0  0  0
  -23.4810  -28.7070   23.3770 O   0  0  0  0  0  0  0  0  0  0  0  0
  -21.0500  -29.8280   21.7270 H   0  0  0  0  0  0  0  0  0  0  0  0
  -18.0830  -28.1650   22.8320 C   0  0  0  0  0  0  0  0  0  0  0  0
  -20.6480  -28.3000   23.1290 C   0  0  0  0  0  3  0  0  0  0  0  0
  -20.6930  -26.8920   22.4920 C   0  0  0  0  0  2  0  0  0  0  0  0
  -19.5850  -26.6610   21.4580 C   0  0  0  0  0  2  0  0  0  0  0  0
  -18.2070  -26.8390   22.1000 C   0  0  0  0  0  2  0  0  0  0  0  0
  -19.2310  -28.8590   23.3000 C   0  0  0  0  0  0  0  0  0  0  0  0
  -19.0640  -30.1030   23.9450 C   0  0  0  0  0  3  0  0  0  0  0  0
  -17.7820  -30.6560   24.1230 C   0  0  0  0  0  3  0  0  0  0  0  0
  -16.6480  -29.9590   23.6710 C   0  0  0  0  0  3  0  0  0  0  0  0
  -16.7990  -28.7150   23.0330 C   0  0  0  0  0  3  0  0  0  0  0  0
  -25.9530  -32.3720   24.0390 C   0  0  0  0  0  3  0  0  0  0  0  0
  -26.4090  -31.5780   25.3250 C   0  0  1  0  0  0  0  0  0  0  0  0
  -25.2700  -31.3370   26.3420 C   0  0  0  0  0  1  0  0  0  0  0  0
  -26.9960  -30.2020   24.9320 C   0  0  0  0  0  1  0  0  0  0  0  0
  -27.5380  -32.3510   26.0470 C   0  0  0  0  0  1  0  0  0  0  0  0
  -25.6520  -33.7690   24.3740 N   0  0  0  0  0  0  0  0  0  0  0  0
  -26.0330  -34.8260   23.6440 C   0  0  0  0  0  0  0  0  0  0  0  0
  -26.7460  -34.7240   22.6420 O   0  0  0  0  0  0  0  0  0  0  0  0
  -25.0300  -33.9240   25.1540 H   0  0  0  0  0  0  0  0  0  0  0  0
  -24.3480  -36.6460   23.2280 C   0  0  0  0  0  1  0  0  0  0  0  0
  -25.5440  -36.2150   24.0940 C   0  0  0  0  0  3  0  0  0  0  0  0
  -27.6480  -37.0590   25.0370 C   0  0  0  0  0  1  0  0  0  0  0  0
  -26.5960  -37.2540   24.0420 N   0  0  0  0  0  0  0  0  0  0  0  0
  -26.1980  -38.1790   24.1800 H   0  0  0  0  0  0  0  0  0  0  0  0
  -27.1980  -20.8310   17.3520 C   0  0  0  0  0  2  0  0  0  0  0  0
  -25.7140  -20.7320   17.7530 C   0  0  0  0  0  2  0  0  0  0  0  0
  -23.2950  -20.6910   17.0090 C   0  0  0  0  0  1  0  0  0  0  0  0
  -24.7900  -22.5650   16.2230 C   0  0  0  0  0  1  0  0  0  0  0  0
  -24.7290  -21.0810   16.6190 C   0  0  0  0  0  3  0  0  0  0  0  0
  1  3  1  0
  3  2  2  0
  3 50  1  0
  4  6  1  0
  4  1  2  0
  5  9  1  0
  5  2  1  0
  6  5  2  0
  7  6  1  0
  9  8  1  0
 10  9  1  0
 11 20  1  0
 11 10  1  0
 12 18  1  0
 12 20  1  0
 13 18  1  0
 14 15  1  0
 14 13  1  0
 16 15  1  0
 16 25  1  0
 16 17  1  0
 18 17  1  0
 19 12  2  0
 20 21  1  0
 22 23  2  0
 23 42  1  0
 24 23  1  0
 24 27  1  0
 25 26  1  0
 25 22  1  0
 26 24  2  0
 27 28  1  0
 28 29  2  0
 30 33  1  0
 30 29  1  0
 31 30  2  0
 32 31  1  0
 32 27  2  0
 33 34  1  0
 34 35  1  0
 35 36  2  0
 37 36  1  0
 37 41  1  0
 38 37  2  0
 39 34  2  0
 39 38  1  0
 40 39  1  0
 42 43  1  0
 43 46  1  0
 43 45  1  0
 44 42  2  0
 47 22  1  0
 47 48  1  0
 49 47  1  0
 51 50  1  0
 52 53  1  0
 52 51  1  0
 54 65  2  0
 55 53  1  0
 55 60  1  0
 56 64  1  0
 56 66  1  0
 57 63  1  0
 57 59  1  0
 58 64  1  0
 59 60  2  0
 59 58  1  0
 61 55  2  0
 62 61  1  0
 62 57  2  0
 63 56  1  0
 64 54  1  0
 66 68  2  0
 67 66  1  0
 69 67  1  0
 70 79  2  0
 70 75  1  0
 71 67  1  0
 71 75  1  0
 72 71  1  0
 73 74  1  0
 73 72  1  0
 74 70  1  0
 75 76  2  0
 76 77  1  0
 78 77  2  0
 79 78  1  0
 80 54  1  0
 80 85  1  0
 80 81  1  0
 81 84  1  1
 81 82  1  0
 83 81  1  0
 85 88  1  0
 86 90  1  0
 86 85  1  0
 87 86  2  0
 90 89  1  0
 92 90  1  0
 92 93  1  0
 92 91  1  0
 94 95  1  0
 94  4  1  0
 97 98  1  0
 98 96  1  0
 98 95  1  0
M  ISO  4  12 100  20 100  52 101  53 101
M  END
>  <TORSDO>  (61) 
F 25

>  <SCORE>  (61) 
-9.731

>  <name>  (61) 
61

>  <ligand_id>  (61) 
61

>  <original_smiles>  (61) 
[H]c1c([H])c([H])c2c(c1[H])C([H])([H])C([H])([H])C([H])([H])C2([H])N([H])C(=O)C1([H])N(C(=O)C([H])(N([H])C(=O)C([H])(N([H])C([H])([H])[H])C([H])([H])[H])C(C([H])([H])[H])(C([H])([H])[H])C([H])([H])[H])C([H])([H])c2c([H])c(OC([H])([H])C([H])([H])C([H])([H])c3c([H])c(C([H])([H])C([H])([H])C([H])(C([H])([H])[H])C([H])([H])[H])c(C([H])([H])[H])c(C([H])(C([H])([H])[H])C([H])([H])C([H])([H])N([H])C(=O)N4C([H])([H])C([H])([H])C([H])([H])C([H])(n5nc(-c6c([H])c([H])c(Oc7c([H])c([H])c(F)c([H])c7F)c([H])c6[H])c(C(=O)N([H])[H])c5N([H])[H])C4([H])[H])c3[H])c([H])c([H])c2C1([H])[H]

>  <smiles>  (61) 
[H]c1c([H])c([H])c2c(c1[H])C([H])([H])C([H])([H])C([H])([H])C2([H])N([H])C(=O)C1([H])N(C(=O)C([H])(N([H])C(=O)C([H])(N([H])C([H])([H])[H])C([H])([H])[H])C(C([H])([H])[H])(C([H])([H])[H])C([H])([H])[H])C([H])([H])c2c([H])c(OC([H])([H])C([H])([H])C([H])([H])c3c([H])c(C([H])([H])C([H])([H])C([H])(C([H])([H])[H])C([H])([H])[H])c(C([H])([H])[H])c(C([H])(C([H])([H])[H])C([H])([H])C([H])([H])N([H])C(=O)N4C([H])([H])C([H])([H])C([H])([H])C([H])(n5nc(-c6c([H])c([H])c(Oc7c([H])c([H])c(F)c([H])c7F)c([H])c6[H])c(C(=O)N([H])[H])c5N([H])[H])C4([H])[H])c3[H])c([H])c([H])c2C1([H])[H]

$$$$
62:0:0
     RDKit          3D

 94102  0  0  1  0  0  0  0  0999 V2000
  -30.3910  -23.7780   19.7830 C   0  0  0  0  0  3  0  0  0  0  0  0
  -28.4430  -22.3750   19.7050 C   0  0  0  0  0  3  0  0  0  0  0  0
  -28.9910  -23.7180   19.6960 C   0  0  0  0  0  0  0  0  0  0  0  0
  -31.1300  -22.5810   19.8660 C   0  0  0  0  0  0  0  0  0  0  0  0
  -29.2600  -21.1910   19.8650 C   0  0  0  0  0  0  0  0  0  0  0  0
  -30.5810  -21.3490   20.0180 N   0  0  0  0  0  0  0  0  0  0  0  0
  -32.7500  -21.9060   18.1000 C   0  0  0  0  0  1  0  0  0  0  0  0
  -33.5890  -22.0940   20.5230 C   0  0  0  0  0  1  0  0  0  0  0  0
  -32.5970  -22.5910   19.4640 C   0  0  0  0  0  3  0  0  0  0  0  0
  -27.8270  -19.7170   21.3970 C   0  0  0  0  0  1  0  0  0  0  0  0
  -28.6480  -19.7390   20.0960 C   0  0  0  0  0  3  0  0  0  0  0  0
  -29.1250  -18.2390   19.6410 C   0  0  0  0  0  2  0  0  0  0  0  0
  -31.7820  -18.1730   19.8970 C   0  0  0  0  0  1  0  0  0  0  0  0
  -30.5040  -17.4690   19.4550 C   0  0  0  0  0  3  0  0  0  0  0  0
  -31.2010  -14.8680   19.6450 C   0  0  0  0  0  0  0  0  0  0  0  0
  -30.9310  -12.5060   18.8770 C   0  0  0  0  0  2  0  0  0  0  0  0
  -29.9530  -12.5260   17.6800 C   0  0  0  0  0  2  0  0  0  0  0  0
  -28.4930  -12.4360   18.1650 C   0  0  0  0  0  2  0  0  0  0  0  0
  -28.1730  -13.4080   19.3370 C   0  0  0  0  0  3  0  0  0  0  0  0
  -29.2850  -13.3930   20.4120 C   0  0  0  0  0  2  0  0  0  0  0  0
  -30.5760  -13.6520   19.7520 N   0  0  0  0  0  0  0  0  0  0  0  0
  -32.3430  -14.9500   19.1650 O   0  0  0  0  0  0  0  0  0  0  0  0
  -30.4330  -15.9890   19.8790 N   0  0  0  0  0  0  0  0  0  0  0  0
  -29.5610  -15.7100   20.3040 H   0  0  0  0  0  0  0  0  0  0  0  0
  -25.8540  -14.0730   20.2260 C   0  0  0  0  0  0  0  0  0  0  0  0
  -24.7810  -13.3280   20.6500 C   0  0  0  0  0  0  0  0  0  0  0  0
  -25.1910  -11.9650   20.5640 C   0  0  0  0  0  0  0  0  0  0  0  0
  -26.8460  -13.1620   19.9070 N   0  0  0  0  0  0  0  0  0  0  0  0
  -26.4580  -11.8880   20.1750 N   0  0  0  0  0  0  0  0  0  0  0  0
  -24.4270  -10.7220   20.7710 C   0  0  0  0  0  0  0  0  0  0  0  0
  -24.7860   -9.7990   21.7730 C   0  0  0  0  0  3  0  0  0  0  0  0
  -24.0260   -8.6230   21.9720 C   0  0  0  0  0  3  0  0  0  0  0  0
  -22.8900   -8.3680   21.1680 C   0  0  0  0  0  0  0  0  0  0  0  0
  -22.5520   -9.2780   20.1530 C   0  0  0  0  0  3  0  0  0  0  0  0
  -23.3140  -10.4460   19.9550 C   0  0  0  0  0  3  0  0  0  0  0  0
  -22.1110   -7.2410   21.2700 O   0  0  0  0  0  0  0  0  0  0  0  0
  -21.8590   -6.6470   22.4780 C   0  0  0  0  0  0  0  0  0  0  0  0
  -21.2280   -7.3380   23.5380 C   0  0  0  0  0  3  0  0  0  0  0  0
  -20.9370   -6.6670   24.7390 C   0  0  0  0  0  3  0  0  0  0  0  0
  -21.2480   -5.3010   24.8820 C   0  0  0  0  0  0  0  0  0  0  0  0
  -21.8630   -4.6090   23.8220 C   0  0  0  0  0  3  0  0  0  0  0  0
  -22.1650   -5.2770   22.6270 C   0  0  0  0  0  0  0  0  0  0  0  0
  -22.7410   -4.5980   21.6030 F   0  0  0  0  0  0  0  0  0  0  0  0
  -20.9550   -4.6530   26.0320 F   0  0  0  0  0  0  0  0  0  0  0  0
  -23.4210  -13.8520   21.0050 C   0  0  0  0  0  0  0  0  0  0  0  0
  -22.7210  -13.1780   21.9140 N   0  0  0  0  0  0  0  0  0  0  0  0
  -22.9850  -14.8910   20.5130 O   0  0  0  0  0  0  0  0  0  0  0  0
  -23.0920  -12.3450   22.3430 H   0  0  0  0  0  0  0  0  0  0  0  0
  -21.7990  -13.5000   22.1820 H   0  0  0  0  0  0  0  0  0  0  0  0
  -26.0570  -15.4370   20.0650 N   0  0  0  0  0  0  0  0  0  0  0  0
  -25.3220  -16.1180   20.2320 H   0  0  0  0  0  0  0  0  0  0  0  0
  -26.8860  -15.8410   19.6470 H   0  0  0  0  0  0  0  0  0  0  0  0
  -28.1180  -25.0080   19.3840 C   0  0  0  0  0  2  0  0  0  0  0  0
  -28.4290  -26.4320   19.7890 O   0  0  0  0  0  0  0  0  0  0  0  0
  -24.5430  -31.5970   23.1360 C   0  0  0  0  0  0  0  0  0  0  0  0
  -27.3320  -27.3380   19.7610 C   0  0  0  0  0  0  0  0  0  0  0  0
  -23.4040  -30.2810   21.3900 C   0  0  0  0  0  3  0  0  0  0  0  0
  -24.9200  -28.9140   19.8510 C   0  0  0  0  0  0  0  0  0  0  0  0
  -25.9370  -30.7030   21.2460 C   0  0  0  0  0  2  0  0  0  0  0  0
  -26.0760  -29.3790   20.4960 C   0  0  0  0  0  0  0  0  0  0  0  0
  -27.2840  -28.6060   20.4450 C   0  0  0  0  0  3  0  0  0  0  0  0
  -26.1510  -26.9740   19.0670 C   0  0  0  0  0  3  0  0  0  0  0  0
  -24.9680  -27.7200   19.1240 C   0  0  0  0  0  3  0  0  0  0  0  0
  -23.6510  -29.7370   19.9600 C   0  0  0  0  0  2  0  0  0  0  0  0
  -24.6460  -30.8690   21.9810 N   0  0  0  0  0  0  0  0  0  0  0  0
  -23.4450  -31.7860   23.6820 O   0  0  0  0  0  0  0  0  0  0  0  0
  -22.7810  -29.1580   22.2590 C   0  0  0  0  0  0  0  0  0  0  0  0
  -21.4660  -28.9290   22.1080 N   0  0  0  0  0  0  0  0  0  0  0  0
  -23.4840  -28.5070   23.0370 O   0  0  0  0  0  0  0  0  0  0  0  0
  -20.9560  -29.5140   21.4600 H   0  0  0  0  0  0  0  0  0  0  0  0
  -18.1390  -27.5640   22.5080 C   0  0  0  0  0  0  0  0  0  0  0  0
  -20.6860  -27.9000   22.7990 C   0  0  0  0  0  3  0  0  0  0  0  0
  -20.8440  -26.5250   22.1120 C   0  0  0  0  0  2  0  0  0  0  0  0
  -19.7520  -26.2420   21.0750 C   0  0  0  0  0  2  0  0  0  0  0  0
  -18.3660  -26.2800   21.7280 C   0  0  0  0  0  2  0  0  0  0  0  0
  -19.2290  -28.3330   22.9980 C   0  0  0  0  0  0  0  0  0  0  0  0
  -18.9620  -29.5320   23.6900 C   0  0  0  0  0  3  0  0  0  0  0  0
  -17.6400  -29.9700   23.8930 C   0  0  0  0  0  3  0  0  0  0  0  0
  -16.5640  -29.1980   23.4180 C   0  0  0  0  0  3  0  0  0  0  0  0
  -16.8160  -27.9950   22.7330 C   0  0  0  0  0  3  0  0  0  0  0  0
  -25.7950  -32.2330   23.8110 C   0  0  0  0  0  3  0  0  0  0  0  0
  -25.4560  -33.6240   24.1480 N   0  0  0  0  0  0  0  0  0  0  0  0
  -25.7830  -34.6880   23.4060 C   0  0  0  0  0  0  0  0  0  0  0  0
  -26.4690  -34.6050   22.3830 O   0  0  0  0  0  0  0  0  0  0  0  0
  -24.8420  -33.7600   24.9380 H   0  0  0  0  0  0  0  0  0  0  0  0
  -24.0200  -36.4510   23.0560 C   0  0  0  0  0  1  0  0  0  0  0  0
  -25.2660  -36.0650   23.8700 C   0  0  0  0  0  3  0  0  0  0  0  0
  -27.3750  -36.9870   24.7220 C   0  0  0  0  0  1  0  0  0  0  0  0
  -26.2780  -37.1380   23.7700 N   0  0  0  0  0  0  0  0  0  0  0  0
  -25.8520  -38.0480   23.9210 H   0  0  0  0  0  0  0  0  0  0  0  0
  -26.2740  -31.4500   25.0950 C   0  0  1  0  0  0  0  0  0  0  0  0
  -25.1480  -31.1890   26.1210 C   0  0  0  0  0  1  0  0  0  0  0  0
  -26.8850  -30.0840   24.7070 C   0  0  0  0  0  1  0  0  0  0  0  0
  -27.3900  -32.2490   25.8070 C   0  0  0  0  0  1  0  0  0  0  0  0
  1  4  1  0
  2  5  2  0
  3  2  1  0
  3  1  2  0
  4  6  2  0
  5  6  1  0
  5 11  1  0
  7  9  1  0
  9  4  1  0
  9  8  1  0
 11 10  1  0
 12 11  1  0
 14 12  1  0
 14 23  1  0
 14 13  1  0
 15 21  1  0
 15 23  1  0
 16 21  1  0
 17 18  1  0
 17 16  1  0
 19 18  1  0
 19 28  1  0
 19 20  1  0
 21 20  1  0
 22 15  2  0
 23 24  1  0
 25 26  2  0
 26 45  1  0
 27 26  1  0
 27 30  1  0
 28 29  1  0
 28 25  1  0
 29 27  2  0
 30 31  1  0
 31 32  2  0
 33 36  1  0
 33 32  1  0
 34 33  2  0
 35 34  1  0
 35 30  2  0
 36 37  1  0
 37 42  2  0
 37 38  1  0
 38 39  2  0
 39 40  1  0
 40 44  1  0
 41 40  2  0
 42 41  1  0
 43 42  1  0
 45 46  1  0
 46 49  1  0
 46 48  1  0
 47 45  2  0
 50 25  1  0
 50 51  1  0
 52 50  1  0
 53  3  1  0
 53 54  1  0
 55 66  2  0
 56 54  1  0
 56 61  1  0
 57 65  1  0
 57 67  1  0
 58 64  1  0
 58 60  1  0
 59 65  1  0
 60 59  1  0
 61 60  2  0
 62 63  1  0
 62 56  2  0
 63 58  2  0
 64 57  1  0
 65 55  1  0
 67 69  2  0
 68 67  1  0
 70 68  1  0
 71 80  2  0
 71 76  1  0
 72 68  1  0
 72 76  1  0
 73 72  1  0
 74 75  1  0
 74 73  1  0
 75 71  1  0
 76 77  2  0
 77 78  1  0
 79 78  2  0
 80 79  1  0
 81 55  1  0
 81 82  1  0
 81 91  1  0
 82 85  1  0
 83 87  1  0
 83 82  1  0
 84 83  2  0
 87 86  1  0
 89 87  1  0
 89 90  1  0
 89 88  1  0
 91 94  1  1
 91 92  1  0
 93 91  1  0
M  ISO  4  15 100  23 100  53 101  54 101
M  END
>  <TORSDO>  (62) 
F 21

>  <SCORE>  (62) 
-10.817

>  <name>  (62) 
62

>  <ligand_id>  (62) 
62

>  <original_smiles>  (62) 
[H]c1c([H])c([H])c2c(c1[H])C([H])([H])C([H])([H])C([H])([H])C2([H])N([H])C(=O)C1([H])N(C(=O)C([H])(N([H])C(=O)C([H])(N([H])C([H])([H])[H])C([H])([H])[H])C(C([H])([H])[H])(C([H])([H])[H])C([H])([H])[H])C([H])([H])c2c([H])c(OC([H])([H])c3c([H])c(C([H])(C([H])([H])[H])C([H])([H])[H])nc(C([H])(C([H])([H])[H])C([H])([H])C([H])(N([H])C(=O)N4C([H])([H])C([H])([H])C([H])([H])C([H])(n5nc(-c6c([H])c([H])c(Oc7c([H])c([H])c(F)c([H])c7F)c([H])c6[H])c(C(=O)N([H])[H])c5N([H])[H])C4([H])[H])C([H])([H])[H])c3[H])c([H])c([H])c2C1([H])[H]

>  <smiles>  (62) 
[H]c1c([H])c([H])c2c(c1[H])C([H])([H])C([H])([H])C([H])([H])C2([H])N([H])C(=O)C1([H])N(C(=O)C([H])(N([H])C(=O)C([H])(N([H])C([H])([H])[H])C([H])([H])[H])C(C([H])([H])[H])(C([H])([H])[H])C([H])([H])[H])C([H])([H])c2c([H])c(OC([H])([H])c3c([H])c(C([H])(C([H])([H])[H])C([H])([H])[H])nc(C([H])(C([H])([H])[H])C([H])([H])C([H])(N([H])C(=O)N4C([H])([H])C([H])([H])C([H])([H])C([H])(n5nc(-c6c([H])c([H])c(Oc7c([H])c([H])c(F)c([H])c7F)c([H])c6[H])c(C(=O)N([H])[H])c5N([H])[H])C4([H])[H])C([H])([H])[H])c3[H])c([H])c([H])c2C1([H])[H]

$$$$
63:0:0
     RDKit          3D

 98106  0  0  1  0  0  0  0  0999 V2000
  -27.6560  -20.1340   22.5890 C   0  0  0  0  0  3  0  0  0  0  0  0
  -29.4780  -19.9250   21.0160 C   0  0  0  0  0  3  0  0  0  0  0  0
  -28.3400  -20.6190   21.4610 C   0  0  0  0  0  0  0  0  0  0  0  0
  -28.1480  -18.9820   23.2260 C   0  0  0  0  0  0  0  0  0  0  0  0
  -29.8690  -18.7570   21.6930 C   0  0  0  0  0  0  0  0  0  0  0  0
  -29.2340  -18.3080   22.7960 N   0  0  0  0  0  0  0  0  0  0  0  0
  -30.9310  -17.8470   21.1060 C   0  0  0  0  0  2  0  0  0  0  0  0
  -30.3130  -16.8470   20.1040 C   0  0  0  0  0  2  0  0  0  0  0  0
  -30.7280  -14.4420   20.4920 C   0  0  0  0  0  0  0  0  0  0  0  0
  -30.4050  -12.2690   19.4220 C   0  0  0  0  0  2  0  0  0  0  0  0
  -29.4900  -12.5010   18.2030 C   0  0  0  0  0  2  0  0  0  0  0  0
  -28.0110  -12.3730   18.6130 C   0  0  0  0  0  2  0  0  0  0  0  0
  -27.6610  -13.2110   19.8740 C   0  0  0  0  0  3  0  0  0  0  0  0
  -28.7090  -13.0230   20.9970 C   0  0  0  0  0  2  0  0  0  0  0  0
  -30.0420  -13.2740   20.4280 N   0  0  0  0  0  0  0  0  0  0  0  0
  -31.8980  -14.5630   20.1220 O   0  0  0  0  0  0  0  0  0  0  0  0
  -29.9730  -15.5340   20.6760 N   0  0  0  0  0  0  0  0  0  0  0  0
  -29.0180  -15.3890   20.9630 H   0  0  0  0  0  0  0  0  0  0  0  0
  -25.2590  -13.8170   20.5670 C   0  0  0  0  0  0  0  0  0  0  0  0
  -24.1840  -13.0440   20.9180 C   0  0  0  0  0  0  0  0  0  0  0  0
  -24.6420  -11.6910   20.8770 C   0  0  0  0  0  0  0  0  0  0  0  0
  -26.3040  -12.9360   20.3390 N   0  0  0  0  0  0  0  0  0  0  0  0
  -25.9340  -11.6530   20.5810 N   0  0  0  0  0  0  0  0  0  0  0  0
  -23.9080  -10.4290   21.0410 C   0  0  0  0  0  0  0  0  0  0  0  0
  -24.3630   -9.4210   21.9190 C   0  0  0  0  0  3  0  0  0  0  0  0
  -23.6300   -8.2250   22.0760 C   0  0  0  0  0  3  0  0  0  0  0  0
  -22.4290   -8.0300   21.3550 C   0  0  0  0  0  0  0  0  0  0  0  0
  -21.9930   -9.0270   20.4640 C   0  0  0  0  0  3  0  0  0  0  0  0
  -22.7270  -10.2150   20.3040 C   0  0  0  0  0  3  0  0  0  0  0  0
  -21.6650   -6.8900   21.4250 O   0  0  0  0  0  0  0  0  0  0  0  0
  -21.6870   -6.0750   22.5290 C   0  0  0  0  0  0  0  0  0  0  0  0
  -21.4010   -6.5650   23.8220 C   0  0  0  0  0  3  0  0  0  0  0  0
  -21.3650   -5.6800   24.9180 C   0  0  0  0  0  3  0  0  0  0  0  0
  -21.6050   -4.3060   24.7220 C   0  0  0  0  0  0  0  0  0  0  0  0
  -21.8810   -3.8160   23.4350 C   0  0  0  0  0  3  0  0  0  0  0  0
  -21.9190   -4.6970   22.3400 C   0  0  0  0  0  0  0  0  0  0  0  0
  -22.1670   -4.2160   21.0980 F   0  0  0  0  0  0  0  0  0  0  0  0
  -21.5630   -3.4550   25.7730 F   0  0  0  0  0  0  0  0  0  0  0  0
  -22.7860  -13.5220   21.1840 C   0  0  0  0  0  0  0  0  0  0  0  0
  -22.0500  -12.8190   22.0380 N   0  0  0  0  0  0  0  0  0  0  0  0
  -22.3560  -14.5540   20.6720 O   0  0  0  0  0  0  0  0  0  0  0  0
  -22.4110  -11.9820   22.4710 H   0  0  0  0  0  0  0  0  0  0  0  0
  -21.1110  -13.1200   22.2570 H   0  0  0  0  0  0  0  0  0  0  0  0
  -25.4220  -15.1890   20.4040 N   0  0  0  0  0  0  0  0  0  0  0  0
  -24.6330  -15.8230   20.4730 H   0  0  0  0  0  0  0  0  0  0  0  0
  -26.2520  -15.6340   20.0330 H   0  0  0  0  0  0  0  0  0  0  0  0
  -27.4630  -18.3930   24.4400 C   0  0  0  0  0  2  0  0  0  0  0  0
  -26.8040  -17.0350   24.1200 C   0  0  0  0  0  2  0  0  0  0  0  0
  -26.7210  -16.0860   25.3300 C   0  0  0  0  0  2  0  0  0  0  0  0
  -27.9150  -14.9290   27.1420 C   0  0  0  0  0  1  0  0  0  0  0  0
  -28.8160  -14.8070   24.8660 C   0  0  0  0  0  1  0  0  0  0  0  0
  -28.0420  -15.6180   25.8370 N   0  0  1  0  0  4  0  0  0  0  0  0
  -28.6000  -16.4380   26.0250 H   0  0  0  0  0  0  0  0  0  0  0  0
  -27.8420  -21.8350   20.7090 C   0  0  0  0  0  2  0  0  0  0  0  0
  -28.3440  -23.1480   21.3190 C   0  0  0  0  0  2  0  0  0  0  0  0
  -28.1220  -24.3410   20.3800 C   0  0  0  0  0  2  0  0  0  0  0  0
  -28.3730  -25.6850   21.0720 C   0  0  0  0  0  2  0  0  0  0  0  0
  -28.3890  -26.7410   20.1160 O   0  0  0  0  0  0  0  0  0  0  0  0
  -24.6100  -31.8680   23.2150 C   0  0  0  0  0  0  0  0  0  0  0  0
  -27.2320  -27.4760   20.0990 C   0  0  0  0  0  0  0  0  0  0  0  0
  -23.3950  -30.4920   21.5510 C   0  0  0  0  0  3  0  0  0  0  0  0
  -24.8440  -28.9620   20.1160 C   0  0  0  0  0  0  0  0  0  0  0  0
  -25.9160  -30.8510   21.3580 C   0  0  0  0  0  2  0  0  0  0  0  0
  -25.9990  -29.4880   20.7080 C   0  0  0  0  0  0  0  0  0  0  0  0
  -27.2000  -28.7510   20.6970 C   0  0  0  0  0  3  0  0  0  0  0  0
  -26.0660  -26.9540   19.5030 C   0  0  0  0  0  3  0  0  0  0  0  0
  -24.8680  -27.6920   19.5140 C   0  0  0  0  0  3  0  0  0  0  0  0
  -23.6030  -29.8230   20.1660 C   0  0  0  0  0  2  0  0  0  0  0  0
  -24.6580  -31.0840   22.1020 N   0  0  0  0  0  0  0  0  0  0  0  0
  -23.5320  -32.1380   23.7640 O   0  0  0  0  0  0  0  0  0  0  0  0
  -22.7350  -29.4650   22.5000 C   0  0  0  0  0  0  0  0  0  0  0  0
  -21.4080  -29.3030   22.3750 N   0  0  0  0  0  0  0  0  0  0  0  0
  -23.4120  -28.8160   23.3000 O   0  0  0  0  0  0  0  0  0  0  0  0
  -20.9160  -29.8840   21.7110 H   0  0  0  0  0  0  0  0  0  0  0  0
  -18.0230  -28.1350   22.8470 C   0  0  0  0  0  0  0  0  0  0  0  0
  -20.5830  -28.3630   23.1330 C   0  0  0  0  0  3  0  0  0  0  0  0
  -20.6730  -26.9370   22.5390 C   0  0  0  0  0  2  0  0  0  0  0  0
  -19.5730  -26.6380   21.5150 C   0  0  0  0  0  2  0  0  0  0  0  0
  -18.1910  -26.7900   22.1570 C   0  0  0  0  0  2  0  0  0  0  0  0
  -19.1490  -28.8800   23.2900 C   0  0  0  0  0  0  0  0  0  0  0  0
  -18.9420  -30.1410   23.8900 C   0  0  0  0  0  3  0  0  0  0  0  0
  -17.6440  -30.6570   24.0560 C   0  0  0  0  0  3  0  0  0  0  0  0
  -16.5320  -29.9080   23.6320 C   0  0  0  0  0  3  0  0  0  0  0  0
  -16.7230  -28.6490   23.0340 C   0  0  0  0  0  3  0  0  0  0  0  0
  -25.9000  -32.4820   23.8400 C   0  0  0  0  0  3  0  0  0  0  0  0
  -26.4470  -31.6580   25.0710 C   0  0  1  0  0  0  0  0  0  0  0  0
  -25.3770  -31.3590   26.1490 C   0  0  0  0  0  1  0  0  0  0  0  0
  -27.0340  -30.3040   24.6020 C   0  0  0  0  0  1  0  0  0  0  0  0
  -27.6060  -32.4260   25.7480 C   0  0  0  0  0  1  0  0  0  0  0  0
  -25.5930  -33.8620   24.2360 N   0  0  0  0  0  0  0  0  0  0  0  0
  -25.9030  -34.9470   23.5140 C   0  0  0  0  0  0  0  0  0  0  0  0
  -26.5570  -34.8900   22.4670 O   0  0  0  0  0  0  0  0  0  0  0  0
  -25.0160  -33.9790   25.0560 H   0  0  0  0  0  0  0  0  0  0  0  0
  -24.1500  -36.7320   23.2620 C   0  0  0  0  0  1  0  0  0  0  0  0
  -25.4120  -36.3110   24.0310 C   0  0  0  0  0  3  0  0  0  0  0  0
  -27.5580  -37.1830   24.8450 C   0  0  0  0  0  1  0  0  0  0  0  0
  -26.4300  -37.3800   23.9400 N   0  0  0  0  0  0  0  0  0  0  0  0
  -26.0190  -38.2870   24.1430 H   0  0  0  0  0  0  0  0  0  0  0  0
  1  4  1  0
  2  3  1  0
  2  5  2  0
  3  1  2  0
  4 47  1  0
  5  6  1  0
  6  4  2  0
  7  5  1  0
  8 17  1  0
  8  7  1  0
  9 17  1  0
 10 15  1  0
 11 12  1  0
 11 10  1  0
 13 12  1  0
 13 22  1  0
 13 14  1  0
 15  9  1  0
 15 14  1  0
 16  9  2  0
 17 18  1  0
 19 20  2  0
 20 39  1  0
 21 20  1  0
 21 24  1  0
 22 19  1  0
 22 23  1  0
 23 21  2  0
 24 25  1  0
 25 26  2  0
 27 30  1  0
 27 26  1  0
 28 27  2  0
 29 28  1  0
 29 24  2  0
 30 31  1  0
 31 32  1  0
 32 33  2  0
 34 33  1  0
 34 38  1  0
 35 34  2  0
 36 31  2  0
 36 35  1  0
 37 36  1  0
 39 40  1  0
 40 43  1  0
 40 42  1  0
 41 39  2  0
 44 45  1  0
 44 19  1  0
 46 44  1  0
 48 47  1  0
 48 49  1  0
 49 52  1  0
 51 52  1  0
 52 53  1  1
 52 50  1  0
 54 55  1  0
 54  3  1  0
 56 57  1  0
 56 55  1  0
 58 57  1  0
 59 70  2  0
 60 58  1  0
 60 65  1  0
 61 69  1  0
 61 71  1  0
 62 68  1  0
 62 64  1  0
 63 69  1  0
 64 63  1  0
 65 64  2  0
 66 67  1  0
 66 60  2  0
 67 62  2  0
 68 61  1  0
 69 59  1  0
 71 73  2  0
 72 71  1  0
 74 72  1  0
 75 84  2  0
 75 80  1  0
 76 72  1  0
 76 80  1  0
 77 76  1  0
 78 79  1  0
 78 77  1  0
 79 75  1  0
 80 81  2  0
 81 82  1  0
 83 82  2  0
 84 83  1  0
 85 59  1  0
 85 90  1  0
 85 86  1  0
 86 89  1  1
 86 87  1  0
 88 86  1  0
 90 93  1  0
 91 95  1  0
 91 90  1  0
 92 91  2  0
 95 94  1  0
 97 95  1  0
 97 98  1  0
 97 96  1  0
M  ISO  4   9 100  17 100  57 101  58 101
M  END
>  <TORSDO>  (63) 
F 26

>  <SCORE>  (63) 
51.388

>  <name>  (63) 
63

>  <ligand_id>  (63) 
63

>  <original_smiles>  (63) 
[H]c1c([H])c([H])c2c(c1[H])C([H])([H])C([H])([H])C([H])([H])C2([H])N([H])C(=O)C1([H])N(C(=O)C([H])(N([H])C(=O)C([H])(N([H])C([H])([H])[H])C([H])([H])[H])C(C([H])([H])[H])(C([H])([H])[H])C([H])([H])[H])C([H])([H])c2c([H])c(OC([H])([H])C([H])([H])C([H])([H])C([H])([H])c3c([H])c(C([H])([H])C([H])([H])N([H])C(=O)N4C([H])([H])C([H])([H])C([H])([H])C([H])(n5nc(-c6c([H])c([H])c(Oc7c([H])c([H])c(F)c([H])c7F)c([H])c6[H])c(C(=O)N([H])[H])c5N([H])[H])C4([H])[H])nc(C([H])([H])C([H])([H])C([H])([H])[N+]([H])(C([H])([H])[H])C([H])([H])[H])c3[H])c([H])c([H])c2C1([H])[H]

>  <smiles>  (63) 
[H]c1c([H])c([H])c2c(c1[H])C([H])([H])C([H])([H])C([H])([H])C2([H])N([H])C(=O)C1([H])N(C(=O)C([H])(N([H])C(=O)C([H])(N([H])C([H])([H])[H])C([H])([H])[H])C(C([H])([H])[H])(C([H])([H])[H])C([H])([H])[H])C([H])([H])c2c([H])c(OC([H])([H])C([H])([H])C([H])([H])C([H])([H])c3c([H])c(C([H])([H])C([H])([H])N([H])C(=O)N4C([H])([H])C([H])([H])C([H])([H])C([H])(n5nc(-c6c([H])c([H])c(Oc7c([H])c([H])c(F)c([H])c7F)c([H])c6[H])c(C(=O)N([H])[H])c5N([H])[H])C4([H])[H])nc(C([H])([H])C([H])([H])C([H])([H])[N+]([H])(C([H])([H])[H])C([H])([H])[H])c3[H])c([H])c([H])c2C1([H])[H]

$$$$
64:0:0
     RDKit          3D

 96104  0  0  1  0  0  0  0  0999 V2000
  -28.8390  -23.5270   22.1170 C   0  0  0  0  0  3  0  0  0  0  0  0
  -29.6860  -23.1800   23.1810 C   0  0  0  0  0  0  0  0  0  0  0  0
  -28.7390  -22.7560   20.9300 C   0  0  0  0  0  0  0  0  0  0  0  0
  -30.4710  -22.0260   23.0380 C   0  0  0  0  0  0  0  0  0  0  0  0
  -29.5410  -21.5120   20.9400 C   0  0  0  0  0  0  0  0  0  0  0  0
  -31.4480  -21.5550   24.0990 C   0  0  0  0  0  1  0  0  0  0  0  0
  -30.3730  -21.2330   21.9630 N   0  0  0  0  0  0  0  0  0  0  0  0
  -29.6790  -24.0120   24.4650 C   0  0  0  0  0  2  0  0  0  0  0  0
  -29.1570  -25.4520   24.2920 C   0  0  0  0  0  2  0  0  0  0  0  0
  -28.1850  -27.5340   25.3510 C   0  0  0  0  0  1  0  0  0  0  0  0
  -27.4210  -25.2780   26.1730 C   0  0  0  0  0  1  0  0  0  0  0  0
  -28.6010  -26.0750   25.5900 C   0  0  0  0  0  3  0  0  0  0  0  0
  -27.7630  -23.3930   19.8200 C   0  0  0  0  0  2  0  0  0  0  0  0
  -27.2590  -24.9510   20.0050 C   0  0  0  0  0  2  0  0  0  0  0  0
  -27.0170  -25.9810   18.9390 O   0  0  0  0  0  0  0  0  0  0  0  0
  -24.2950  -31.4880   22.8640 C   0  0  0  0  0  0  0  0  0  0  0  0
  -26.0260  -26.9610   19.1630 C   0  0  0  0  0  0  0  0  0  0  0  0
  -22.7630  -30.3480   21.3000 C   0  0  0  0  0  3  0  0  0  0  0  0
  -23.8610  -28.7970   19.5830 C   0  0  0  0  0  0  0  0  0  0  0  0
  -25.2800  -30.4450   20.8040 C   0  0  0  0  0  2  0  0  0  0  0  0
  -25.1410  -29.1220   20.0520 C   0  0  0  0  0  0  0  0  0  0  0  0
  -26.2300  -28.2190   19.8260 C   0  0  0  0  0  3  0  0  0  0  0  0
  -24.7280  -26.6990   18.6830 C   0  0  0  0  0  3  0  0  0  0  0  0
  -23.6580  -27.5940   18.8880 C   0  0  0  0  0  3  0  0  0  0  0  0
  -22.7350  -29.7760   19.8580 C   0  0  0  0  0  2  0  0  0  0  0  0
  -24.1400  -30.7730   21.7110 N   0  0  0  0  0  0  0  0  0  0  0  0
  -23.3200  -31.8130   23.5580 O   0  0  0  0  0  0  0  0  0  0  0  0
  -22.1260  -29.3180   22.2650 C   0  0  0  0  0  0  0  0  0  0  0  0
  -20.7910  -29.1740   22.2030 N   0  0  0  0  0  0  0  0  0  0  0  0
  -22.8310  -28.6530   23.0290 O   0  0  0  0  0  0  0  0  0  0  0  0
  -20.2810  -29.7620   21.5580 H   0  0  0  0  0  0  0  0  0  0  0  0
  -17.4390  -27.9120   22.7220 C   0  0  0  0  0  0  0  0  0  0  0  0
  -19.9920  -28.2290   22.9860 C   0  0  0  0  0  3  0  0  0  0  0  0
  -20.1240  -26.7930   22.4290 C   0  0  0  0  0  2  0  0  0  0  0  0
  -19.0270  -26.4350   21.4200 C   0  0  0  0  0  2  0  0  0  0  0  0
  -17.6430  -26.5580   22.0630 C   0  0  0  0  0  2  0  0  0  0  0  0
  -18.5410  -28.7030   23.1400 C   0  0  0  0  0  0  0  0  0  0  0  0
  -18.2960  -29.9680   23.7180 C   0  0  0  0  0  3  0  0  0  0  0  0
  -16.9800  -30.4410   23.8810 C   0  0  0  0  0  3  0  0  0  0  0  0
  -15.8930  -29.6480   23.4780 C   0  0  0  0  0  3  0  0  0  0  0  0
  -16.1230  -28.3860   22.9030 C   0  0  0  0  0  3  0  0  0  0  0  0
  -25.7010  -31.9480   23.3570 C   0  0  0  0  0  3  0  0  0  0  0  0
  -25.5410  -33.2670   23.9880 N   0  0  0  0  0  0  0  0  0  0  0  0
  -25.9330  -34.4270   23.4430 C   0  0  0  0  0  0  0  0  0  0  0  0
  -26.5350  -34.4890   22.3680 O   0  0  0  0  0  0  0  0  0  0  0  0
  -25.0020  -33.2970   24.8410 H   0  0  0  0  0  0  0  0  0  0  0  0
  -24.4060  -36.4250   23.5530 C   0  0  0  0  0  1  0  0  0  0  0  0
  -25.6050  -35.7230   24.2110 C   0  0  0  0  0  3  0  0  0  0  0  0
  -27.8300  -36.1770   25.1450 C   0  0  0  0  0  1  0  0  0  0  0  0
  -26.7460  -36.6610   24.2950 N   0  0  0  0  0  0  0  0  0  0  0  0
  -26.4440  -37.5660   24.6470 H   0  0  0  0  0  0  0  0  0  0  0  0
  -26.3710  -30.9310   24.3620 C   0  0  1  0  0  0  0  0  0  0  0  0
  -25.4560  -30.5300   25.5430 C   0  0  0  0  0  1  0  0  0  0  0  0
  -26.7910  -29.6340   23.6320 C   0  0  0  0  0  1  0  0  0  0  0  0
  -27.6640  -31.5470   24.9450 C   0  0  0  0  0  1  0  0  0  0  0  0
  -29.4570  -20.2210   20.0440 C   0  0  0  0  0  2  0  0  0  0  0  0
  -30.2520  -18.8000   20.3270 C   0  0  0  0  0  2  0  0  0  0  0  0
  -29.9200  -17.6580   21.4290 C   0  0  0  0  0  2  0  0  0  0  0  0
  -30.7350  -15.0890   21.0740 C   0  0  0  0  0  0  0  0  0  0  0  0
  -30.7590  -12.7560   20.1530 C   0  0  0  0  0  2  0  0  0  0  0  0
  -29.9610  -12.7210   18.8300 C   0  0  0  0  0  2  0  0  0  0  0  0
  -28.4550  -12.5230   19.0960 C   0  0  0  0  0  2  0  0  0  0  0  0
  -27.9150  -13.4610   20.2070 C   0  0  0  0  0  3  0  0  0  0  0  0
  -28.8370  -13.4530   21.4450 C   0  0  0  0  0  2  0  0  0  0  0  0
  -30.1800  -13.8320   20.9860 N   0  0  0  0  0  0  0  0  0  0  0  0
  -31.9530  -15.2450   20.9490 O   0  0  0  0  0  0  0  0  0  0  0  0
  -29.8500  -16.1580   21.1000 N   0  0  0  0  0  0  0  0  0  0  0  0
  -28.8980  -15.8260   21.0590 H   0  0  0  0  0  0  0  0  0  0  0  0
  -25.4360  -14.0160   20.5620 C   0  0  0  0  0  0  0  0  0  0  0  0
  -24.3560  -13.2350   20.8670 C   0  0  0  0  0  0  0  0  0  0  0  0
  -24.8610  -11.9080   21.0320 C   0  0  0  0  0  0  0  0  0  0  0  0
  -26.5290  -13.1640   20.5500 N   0  0  0  0  0  0  0  0  0  0  0  0
  -26.1820  -11.8980   20.8970 N   0  0  0  0  0  0  0  0  0  0  0  0
  -24.1560  -10.6390   21.2520 C   0  0  0  0  0  0  0  0  0  0  0  0
  -24.5530   -9.7380   22.2640 C   0  0  0  0  0  3  0  0  0  0  0  0
  -23.8480   -8.5320   22.4660 C   0  0  0  0  0  3  0  0  0  0  0  0
  -22.7300   -8.2200   21.6560 C   0  0  0  0  0  0  0  0  0  0  0  0
  -22.3530   -9.1090   20.6340 C   0  0  0  0  0  3  0  0  0  0  0  0
  -23.0590  -10.3050   20.4300 C   0  0  0  0  0  3  0  0  0  0  0  0
  -22.0000   -7.0610   21.7650 O   0  0  0  0  0  0  0  0  0  0  0  0
  -21.8880   -6.3890   22.9560 C   0  0  0  0  0  0  0  0  0  0  0  0
  -21.3790   -7.0120   24.1170 C   0  0  0  0  0  3  0  0  0  0  0  0
  -21.2160   -6.2650   25.3010 C   0  0  0  0  0  3  0  0  0  0  0  0
  -21.5520   -4.8990   25.3250 C   0  0  0  0  0  0  0  0  0  0  0  0
  -22.0530   -4.2750   24.1690 C   0  0  0  0  0  3  0  0  0  0  0  0
  -22.2170   -5.0190   22.9860 C   0  0  0  0  0  0  0  0  0  0  0  0
  -22.6810   -4.4100   21.8690 F   0  0  0  0  0  0  0  0  0  0  0  0
  -21.3880   -4.1790   26.4600 F   0  0  0  0  0  0  0  0  0  0  0  0
  -22.9200  -13.6720   20.9060 C   0  0  0  0  0  0  0  0  0  0  0  0
  -22.1140  -13.0540   21.7630 N   0  0  0  0  0  0  0  0  0  0  0  0
  -22.5160  -14.6010   20.2090 O   0  0  0  0  0  0  0  0  0  0  0  0
  -22.4520  -12.3060   22.3500 H   0  0  0  0  0  0  0  0  0  0  0  0
  -21.1460  -13.3340   21.8340 H   0  0  0  0  0  0  0  0  0  0  0  0
  -25.5750  -15.3690   20.2670 N   0  0  0  0  0  0  0  0  0  0  0  0
  -24.7720  -15.9850   20.2020 H   0  0  0  0  0  0  0  0  0  0  0  0
  -26.4340  -15.8080   19.9610 H   0  0  0  0  0  0  0  0  0  0  0  0
  1  2  1  0
  2  8  1  0
  3  5  1  0
  3  1  2  0
  4  2  2  0
  4  6  1  0
  5  7  2  0
  7  4  1  0
  9  8  1  0
  9 12  1  0
 10 12  1  0
 12 11  1  0
 13 14  1  0
 13  3  1  0
 15 17  1  0
 15 14  1  0
 16 27  2  0
 17 22  1  0
 18 26  1  0
 18 28  1  0
 19 25  1  0
 19 21  1  0
 20 26  1  0
 21 20  1  0
 22 21  2  0
 23 24  1  0
 23 17  2  0
 24 19  2  0
 25 18  1  0
 26 16  1  0
 28 30  2  0
 29 28  1  0
 31 29  1  0
 32 41  2  0
 32 37  1  0
 33 29  1  0
 33 37  1  0
 34 33  1  0
 35 36  1  0
 35 34  1  0
 36 32  1  0
 37 38  2  0
 38 39  1  0
 40 39  2  0
 41 40  1  0
 42 16  1  0
 42 43  1  0
 42 52  1  0
 43 46  1  0
 44 43  1  0
 44 48  1  0
 45 44  2  0
 48 47  1  0
 48 50  1  0
 50 51  1  0
 50 49  1  0
 52 55  1  1
 52 53  1  0
 54 52  1  0
 56 57  1  0
 56  5  1  0
 57 58  1  0
 59 67  1  0
 60 65  1  0
 61 62  1  0
 61 60  1  0
 63 62  1  0
 63 72  1  0
 63 64  1  0
 65 59  1  0
 65 64  1  0
 66 59  2  0
 67 58  1  0
 68 67  1  0
 69 70  2  0
 70 89  1  0
 70 71  1  0
 71 74  1  0
 72 69  1  0
 72 73  1  0
 73 71  2  0
 74 75  1  0
 75 76  2  0
 77 80  1  0
 77 76  1  0
 78 77  2  0
 79 78  1  0
 79 74  2  0
 80 81  1  0
 81 86  2  0
 81 82  1  0
 82 83  2  0
 83 84  1  0
 84 88  1  0
 85 84  2  0
 86 85  1  0
 87 86  1  0
 89 90  1  0
 90 93  1  0
 90 92  1  0
 91 89  2  0
 94 69  1  0
 95 94  1  0
 96 94  1  0
M  ISO  4  14 101  15 101  59 100  67 100
M  END
>  <TORSDO>  (64) 
F 24

>  <SCORE>  (64) 
-8.429

>  <name>  (64) 
64

>  <ligand_id>  (64) 
64

>  <original_smiles>  (64) 
[H]c1c([H])c([H])c2c(c1[H])C([H])([H])C([H])([H])C([H])([H])C2([H])N([H])C(=O)C1([H])N(C(=O)C([H])(N([H])C(=O)C([H])(N([H])C([H])([H])[H])C([H])([H])[H])C(C([H])([H])[H])(C([H])([H])[H])C([H])([H])[H])C([H])([H])c2c([H])c(OC([H])([H])C([H])([H])c3c(C([H])([H])C([H])([H])C([H])([H])N([H])C(=O)N4C([H])([H])C([H])([H])C([H])([H])C([H])(n5nc(-c6c([H])c([H])c(Oc7c([H])c([H])c(F)c([H])c7F)c([H])c6[H])c(C(=O)N([H])[H])c5N([H])[H])C4([H])[H])nc(C([H])([H])[H])c(C([H])([H])C([H])([H])C([H])(C([H])([H])[H])C([H])([H])[H])c3[H])c([H])c([H])c2C1([H])[H]

>  <smiles>  (64) 
[H]c1c([H])c([H])c2c(c1[H])C([H])([H])C([H])([H])C([H])([H])C2([H])N([H])C(=O)C1([H])N(C(=O)C([H])(N([H])C(=O)C([H])(N([H])C([H])([H])[H])C([H])([H])[H])C(C([H])([H])[H])(C([H])([H])[H])C([H])([H])[H])C([H])([H])c2c([H])c(OC([H])([H])C([H])([H])c3c(C([H])([H])C([H])([H])C([H])([H])N([H])C(=O)N4C([H])([H])C([H])([H])C([H])([H])C([H])(n5nc(-c6c([H])c([H])c(Oc7c([H])c([H])c(F)c([H])c7F)c([H])c6[H])c(C(=O)N([H])[H])c5N([H])[H])C4([H])[H])nc(C([H])([H])[H])c(C([H])([H])C([H])([H])C([H])(C([H])([H])[H])C([H])([H])[H])c3[H])c([H])c([H])c2C1([H])[H]

$$$$
65:0:0
     RDKit          3D

 88 96  0  0  1  0  0  0  0  0999 V2000
  -29.1480  -21.1550   19.6190 C   0  0  0  0  0  3  0  0  0  0  0  0
  -29.1690  -22.2890   20.4380 C   0  0  0  0  0  0  0  0  0  0  0  0
  -29.2780  -21.7540   21.7320 N   0  0  0  0  0  0  0  0  0  0  0  0
  -29.3060  -20.4360   21.7210 N   0  0  0  0  0  0  0  0  0  0  0  0
  -29.2630  -19.9980   20.4340 N   0  0  0  0  0  0  0  0  0  0  0  0
  -29.2990  -23.8530   20.1430 C   0  0  0  0  0  3  0  0  0  0  0  0
  -28.1080  -24.9230   20.3770 C   0  0  0  0  0  3  0  0  0  0  0  0
  -28.3420  -26.4140   20.2330 O   0  0  0  0  0  0  0  0  0  0  0  0
  -24.6450  -31.9070   23.2680 C   0  0  0  0  0  0  0  0  0  0  0  0
  -27.2380  -27.3030   20.2080 C   0  0  0  0  0  0  0  0  0  0  0  0
  -23.4380  -30.5070   21.6350 C   0  0  0  0  0  3  0  0  0  0  0  0
  -24.8830  -28.9570   20.2020 C   0  0  0  0  0  0  0  0  0  0  0  0
  -25.9800  -30.8150   21.4460 C   0  0  0  0  0  2  0  0  0  0  0  0
  -26.0580  -29.4330   20.7970 C   0  0  0  0  0  0  0  0  0  0  0  0
  -27.2390  -28.6200   20.7850 C   0  0  0  0  0  3  0  0  0  0  0  0
  -26.0360  -26.9020   19.5810 C   0  0  0  0  0  3  0  0  0  0  0  0
  -24.8780  -27.7010   19.5820 C   0  0  0  0  0  3  0  0  0  0  0  0
  -23.6470  -29.8330   20.2540 C   0  0  0  0  0  2  0  0  0  0  0  0
  -24.7070  -31.0950   22.1720 N   0  0  0  0  0  0  0  0  0  0  0  0
  -23.5630  -32.1860   23.8030 O   0  0  0  0  0  0  0  0  0  0  0  0
  -22.7770  -29.4920   22.5970 C   0  0  0  0  0  0  0  0  0  0  0  0
  -21.4530  -29.3040   22.4650 N   0  0  0  0  0  0  0  0  0  0  0  0
  -23.4570  -28.8740   23.4210 O   0  0  0  0  0  0  0  0  0  0  0  0
  -20.9630  -29.8540   21.7730 H   0  0  0  0  0  0  0  0  0  0  0  0
  -18.0840  -28.0800   22.9530 C   0  0  0  0  0  0  0  0  0  0  0  0
  -20.6370  -28.3650   23.2360 C   0  0  0  0  0  3  0  0  0  0  0  0
  -20.7560  -26.9310   22.6710 C   0  0  0  0  0  2  0  0  0  0  0  0
  -19.6630  -26.5900   21.6530 C   0  0  0  0  0  2  0  0  0  0  0  0
  -18.2780  -26.7270   22.2880 C   0  0  0  0  0  2  0  0  0  0  0  0
  -19.1920  -28.8560   23.3850 C   0  0  0  0  0  0  0  0  0  0  0  0
  -18.9570  -30.1210   23.9660 C   0  0  0  0  0  3  0  0  0  0  0  0
  -17.6470  -30.6070   24.1260 C   0  0  0  0  0  3  0  0  0  0  0  0
  -16.5520  -29.8280   23.7120 C   0  0  0  0  0  3  0  0  0  0  0  0
  -16.7710  -28.5680   23.1280 C   0  0  0  0  0  3  0  0  0  0  0  0
  -25.9280  -32.5420   23.8880 C   0  0  0  0  0  3  0  0  0  0  0  0
  -26.4420  -31.7780   25.1700 C   0  0  1  0  0  0  0  0  0  0  0  0
  -25.3460  -31.5510   26.2380 C   0  0  0  0  0  1  0  0  0  0  0  0
  -27.0260  -30.3980   24.7910 C   0  0  0  0  0  1  0  0  0  0  0  0
  -27.5940  -32.5750   25.8280 C   0  0  0  0  0  1  0  0  0  0  0  0
  -25.6200  -33.9420   24.2120 N   0  0  0  0  0  0  0  0  0  0  0  0
  -25.9450  -34.9920   23.4460 C   0  0  0  0  0  0  0  0  0  0  0  0
  -26.6050  -34.8840   22.4080 O   0  0  0  0  0  0  0  0  0  0  0  0
  -25.0320  -34.1020   25.0170 H   0  0  0  0  0  0  0  0  0  0  0  0
  -24.2110  -36.7830   23.1040 C   0  0  0  0  0  1  0  0  0  0  0  0
  -25.4610  -36.3820   23.9020 C   0  0  0  0  0  3  0  0  0  0  0  0
  -27.6040  -37.2730   24.7040 C   0  0  0  0  0  1  0  0  0  0  0  0
  -26.4910  -37.4360   23.7740 N   0  0  0  0  0  0  0  0  0  0  0  0
  -26.0850  -38.3550   23.9210 H   0  0  0  0  0  0  0  0  0  0  0  0
  -29.1400  -18.5010   20.1090 C   0  0  0  0  0  3  0  0  0  0  0  0
  -30.1680  -17.3840   20.6810 C   0  0  0  0  0  3  0  0  0  0  0  0
  -30.5780  -14.7770   20.3040 C   0  0  0  0  0  0  0  0  0  0  0  0
  -30.3700  -12.5070   19.2700 C   0  0  0  0  0  2  0  0  0  0  0  0
  -29.4320  -12.6130   18.0460 C   0  0  0  0  0  2  0  0  0  0  0  0
  -27.9580  -12.4540   18.4740 C   0  0  0  0  0  2  0  0  0  0  0  0
  -27.5970  -13.3220   19.7090 C   0  0  0  0  0  3  0  0  0  0  0  0
  -28.6570  -13.1990   20.8240 C   0  0  0  0  0  2  0  0  0  0  0  0
  -29.9540  -13.5530   20.2320 N   0  0  0  0  0  0  0  0  0  0  0  0
  -31.7590  -14.8890   19.9630 O   0  0  0  0  0  0  0  0  0  0  0  0
  -29.8040  -15.8940   20.5810 N   0  0  0  0  0  0  0  0  0  0  0  0
  -28.8430  -15.6770   20.8010 H   0  0  0  0  0  0  0  0  0  0  0  0
  -25.2130  -13.9260   20.4480 C   0  0  0  0  0  0  0  0  0  0  0  0
  -24.1470  -13.1580   20.8270 C   0  0  0  0  0  0  0  0  0  0  0  0
  -24.6050  -11.8060   20.7950 C   0  0  0  0  0  0  0  0  0  0  0  0
  -26.2530  -13.0420   20.2040 N   0  0  0  0  0  0  0  0  0  0  0  0
  -25.8920  -11.7600   20.4750 N   0  0  0  0  0  0  0  0  0  0  0  0
  -23.8730  -10.5470   20.9940 C   0  0  0  0  0  0  0  0  0  0  0  0
  -24.3060   -9.5810   21.9290 C   0  0  0  0  0  3  0  0  0  0  0  0
  -23.5750   -8.3880   22.1160 C   0  0  0  0  0  3  0  0  0  0  0  0
  -22.3980   -8.1510   21.3670 C   0  0  0  0  0  0  0  0  0  0  0  0
  -21.9840   -9.1060   20.4210 C   0  0  0  0  0  3  0  0  0  0  0  0
  -22.7160  -10.2910   20.2320 C   0  0  0  0  0  3  0  0  0  0  0  0
  -21.6380   -7.0110   21.4620 O   0  0  0  0  0  0  0  0  0  0  0  0
  -21.5840   -6.2770   22.6200 C   0  0  0  0  0  0  0  0  0  0  0  0
  -21.1490   -6.8410   23.8400 C   0  0  0  0  0  3  0  0  0  0  0  0
  -21.0410   -6.0320   24.9880 C   0  0  0  0  0  3  0  0  0  0  0  0
  -21.3570   -4.6610   24.9190 C   0  0  0  0  0  0  0  0  0  0  0  0
  -21.7860   -4.1000   23.7040 C   0  0  0  0  0  3  0  0  0  0  0  0
  -21.8960   -4.9060   22.5580 C   0  0  0  0  0  0  0  0  0  0  0  0
  -22.2890   -4.3530   21.3840 F   0  0  0  0  0  0  0  0  0  0  0  0
  -21.2480   -3.8840   26.0210 F   0  0  0  0  0  0  0  0  0  0  0  0
  -22.7540  -13.6430   21.1050 C   0  0  0  0  0  0  0  0  0  0  0  0
  -22.0270  -12.9550   21.9790 N   0  0  0  0  0  0  0  0  0  0  0  0
  -22.3190  -14.6680   20.5820 O   0  0  0  0  0  0  0  0  0  0  0  0
  -22.3940  -12.1300   22.4290 H   0  0  0  0  0  0  0  0  0  0  0  0
  -21.0910  -13.2590   22.2040 H   0  0  0  0  0  0  0  0  0  0  0  0
  -25.3780  -15.2960   20.2630 N   0  0  0  0  0  0  0  0  0  0  0  0
  -24.5980  -15.9400   20.3460 H   0  0  0  0  0  0  0  0  0  0  0  0
  -26.2020  -15.7270   19.8660 H   0  0  0  0  0  0  0  0  0  0  0  0
  1  5  1  0
  1  2  2  0
  2  3  1  0
  4  3  2  0
  5  4  1  0
  6  7  2  0
  6  2  1  0
  8  7  1  0
  9 20  2  0
 10  8  1  0
 10 15  1  0
 11 19  1  0
 11 21  1  0
 12 18  1  0
 12 14  1  0
 13 19  1  0
 14 13  1  0
 15 14  2  0
 16 17  1  0
 16 10  2  0
 17 12  2  0
 18 11  1  0
 19  9  1  0
 21 23  2  0
 22 21  1  0
 24 22  1  0
 25 34  2  0
 25 30  1  0
 26 22  1  0
 26 30  1  0
 27 26  1  0
 28 29  1  0
 28 27  1  0
 29 25  1  0
 30 31  2  0
 31 32  1  0
 33 32  2  0
 34 33  1  0
 35  9  1  0
 35 40  1  0
 35 36  1  0
 36 39  1  1
 36 37  1  0
 38 36  1  0
 40 43  1  0
 41 45  1  0
 41 40  1  0
 42 41  2  0
 45 44  1  0
 47 45  1  0
 47 48  1  0
 47 46  1  0
 49  5  1  0
 49 50  2  0
 51 59  1  0
 52 57  1  0
 53 54  1  0
 53 52  1  0
 55 54  1  0
 55 64  1  0
 55 56  1  0
 57 51  1  0
 57 56  1  0
 58 51  2  0
 59 50  1  0
 59 60  1  0
 61 62  2  0
 62 81  1  0
 63 62  1  0
 63 66  1  0
 64 61  1  0
 64 65  1  0
 65 63  2  0
 66 67  1  0
 67 68  2  0
 69 72  1  0
 69 68  1  0
 70 69  2  0
 71 70  1  0
 71 66  2  0
 72 73  1  0
 73 74  1  0
 74 75  2  0
 76 75  1  0
 76 80  1  0
 77 76  2  0
 78 73  2  0
 78 77  1  0
 79 78  1  0
 81 82  1  0
 82 85  1  0
 82 84  1  0
 83 81  2  0
 86 87  1  0
 86 61  1  0
 88 86  1  0
M  ISO  4   7 101   8 101  51 100  59 100
M  END
>  <TORSDO>  (65) 
F 20

>  <SCORE>  (65) 
-13.583

>  <name>  (65) 
65

>  <ligand_id>  (65) 
65

>  <original_smiles>  (65) 
[H]c1c([H])c([H])c2c(c1[H])C([H])([H])C([H])([H])C([H])([H])C2([H])N([H])C(=O)C1([H])N(C(=O)C([H])(N([H])C(=O)C([H])(N([H])C([H])([H])[H])C([H])([H])[H])C(C([H])([H])[H])(C([H])([H])[H])C([H])([H])[H])C([H])([H])c2c([H])c(OC([H])([H])C([H])([H])c3nnn(C([H])([H])C([H])([H])N([H])C(=O)N4C([H])([H])C([H])([H])C([H])([H])C([H])(n5nc(-c6c([H])c([H])c(Oc7c([H])c([H])c(F)c([H])c7F)c([H])c6[H])c(C(=O)N([H])[H])c5N([H])[H])C4([H])[H])c3[H])c([H])c([H])c2C1([H])[H]

>  <smiles>  (65) 
[H]c1c([H])c([H])c2c(c1[H])C([H])([H])C([H])([H])C([H])([H])C2([H])N([H])C(=O)C1([H])N(C(=O)C([H])(N([H])C(=O)C([H])(N([H])C([H])([H])[H])C([H])([H])[H])C(C([H])([H])[H])(C([H])([H])[H])C([H])([H])[H])C([H])([H])c2c([H])c(OC([H])([H])C([H])([H])c3nnn(C([H])([H])C([H])([H])N([H])C(=O)N4C([H])([H])C([H])([H])C([H])([H])C([H])(n5nc(-c6c([H])c([H])c(Oc7c([H])c([H])c(F)c([H])c7F)c([H])c6[H])c(C(=O)N([H])[H])c5N([H])[H])C4([H])[H])c3[H])c([H])c([H])c2C1([H])[H]

$$$$
66:0:0
     RDKit          3D

 97105  0  0  1  0  0  0  0  0999 V2000
  -29.0480  -20.3910   20.2870 C   0  0  0  0  0  3  0  0  0  0  0  0
  -30.0100  -19.3630   20.0290 C   0  0  0  0  0  0  0  0  0  0  0  0
  -31.2980  -19.8290   19.5940 C   0  0  0  0  0  0  0  0  0  0  0  0
  -29.3310  -21.7610   20.0760 C   0  0  0  0  0  0  0  0  0  0  0  0
  -31.5030  -21.2350   19.4520 C   0  0  0  0  0  0  0  0  0  0  0  0
  -30.5400  -22.1580   19.6550 N   0  0  0  0  0  0  0  0  0  0  0  0
  -29.7540  -17.2030   18.6850 C   0  0  0  0  0  1  0  0  0  0  0  0
  -28.0690  -17.6990   20.3850 C   0  0  0  0  0  1  0  0  0  0  0  0
  -29.5830  -17.8370   20.0840 C   0  0  2  0  0  0  0  0  0  0  0  0
  -30.2900  -16.9540   21.1910 C   0  0  0  0  0  2  0  0  0  0  0  0
  -30.6690  -14.5110   20.5500 C   0  0  0  0  0  0  0  0  0  0  0  0
  -30.3900  -12.3570   19.3600 C   0  0  0  0  0  2  0  0  0  0  0  0
  -29.4660  -12.5760   18.1440 C   0  0  0  0  0  2  0  0  0  0  0  0
  -27.9860  -12.4360   18.5500 C   0  0  0  0  0  2  0  0  0  0  0  0
  -27.6330  -13.2650   19.8130 C   0  0  0  0  0  3  0  0  0  0  0  0
  -28.6680  -13.0210   20.9350 C   0  0  0  0  0  2  0  0  0  0  0  0
  -30.0040  -13.3320   20.3950 N   0  0  0  0  0  0  0  0  0  0  0  0
  -31.7960  -14.7090   20.0860 O   0  0  0  0  0  0  0  0  0  0  0  0
  -29.9560  -15.5060   21.1170 N   0  0  0  0  0  0  0  0  0  0  0  0
  -29.0360  -15.2480   21.4420 H   0  0  0  0  0  0  0  0  0  0  0  0
  -25.2220  -13.8830   20.4610 C   0  0  0  0  0  0  0  0  0  0  0  0
  -24.1450  -13.1180   20.8240 C   0  0  0  0  0  0  0  0  0  0  0  0
  -24.6060  -11.7660   20.8200 C   0  0  0  0  0  0  0  0  0  0  0  0
  -26.2700  -12.9970   20.2660 N   0  0  0  0  0  0  0  0  0  0  0  0
  -25.9020  -11.7190   20.5380 N   0  0  0  0  0  0  0  0  0  0  0  0
  -23.8720  -10.5090   21.0150 C   0  0  0  0  0  0  0  0  0  0  0  0
  -24.2900   -9.5510   21.9640 C   0  0  0  0  0  3  0  0  0  0  0  0
  -23.5620   -8.3560   22.1440 C   0  0  0  0  0  3  0  0  0  0  0  0
  -22.4000   -8.1110   21.3740 C   0  0  0  0  0  0  0  0  0  0  0  0
  -22.0020   -9.0570   20.4130 C   0  0  0  0  0  3  0  0  0  0  0  0
  -22.7320  -10.2430   20.2310 C   0  0  0  0  0  3  0  0  0  0  0  0
  -21.6450   -6.9670   21.4600 O   0  0  0  0  0  0  0  0  0  0  0  0
  -21.5790   -6.2350   22.6190 C   0  0  0  0  0  0  0  0  0  0  0  0
  -21.1420   -6.8020   23.8350 C   0  0  0  0  0  3  0  0  0  0  0  0
  -21.0260   -5.9960   24.9850 C   0  0  0  0  0  3  0  0  0  0  0  0
  -21.3340   -4.6240   24.9180 C   0  0  0  0  0  0  0  0  0  0  0  0
  -21.7660   -4.0560   23.7060 C   0  0  0  0  0  3  0  0  0  0  0  0
  -21.8840   -4.8610   22.5580 C   0  0  0  0  0  0  0  0  0  0  0  0
  -22.2790   -4.3050   21.3870 F   0  0  0  0  0  0  0  0  0  0  0  0
  -21.2160   -3.8470   26.0200 F   0  0  0  0  0  0  0  0  0  0  0  0
  -22.7460  -13.6020   21.0670 C   0  0  0  0  0  0  0  0  0  0  0  0
  -21.9990  -12.9160   21.9260 N   0  0  0  0  0  0  0  0  0  0  0  0
  -22.3200  -14.6220   20.5300 O   0  0  0  0  0  0  0  0  0  0  0  0
  -22.3570  -12.0890   22.3800 H   0  0  0  0  0  0  0  0  0  0  0  0
  -21.0600  -13.2260   22.1320 H   0  0  0  0  0  0  0  0  0  0  0  0
  -25.3830  -15.2490   20.2590 N   0  0  0  0  0  0  0  0  0  0  0  0
  -24.6000  -15.8910   20.3130 H   0  0  0  0  0  0  0  0  0  0  0  0
  -26.2190  -15.6720   19.8790 H   0  0  0  0  0  0  0  0  0  0  0  0
  -32.7110  -18.7150   17.7380 C   0  0  0  0  0  1  0  0  0  0  0  0
  -32.4510  -18.8710   19.2470 C   0  0  0  0  0  2  0  0  0  0  0  0
  -28.2170  -22.8310   20.1220 C   0  0  0  0  0  2  0  0  0  0  0  0
  -28.5480  -24.2580   20.6780 C   0  0  0  0  0  2  0  0  0  0  0  0
  -28.5930  -25.4080   19.6260 C   0  0  0  0  0  2  0  0  0  0  0  0
  -28.4440  -26.7300   20.1990 O   0  0  0  0  0  0  0  0  0  0  0  0
  -24.5790  -31.9140   23.2310 C   0  0  0  0  0  0  0  0  0  0  0  0
  -27.2370  -27.4210   20.1810 C   0  0  0  0  0  0  0  0  0  0  0  0
  -23.3760  -30.5000   21.5970 C   0  0  0  0  0  3  0  0  0  0  0  0
  -24.8300  -28.9420   20.1900 C   0  0  0  0  0  0  0  0  0  0  0  0
  -25.9040  -30.8470   21.4010 C   0  0  0  0  0  2  0  0  0  0  0  0
  -25.9890  -29.4670   20.7750 C   0  0  0  0  0  0  0  0  0  0  0  0
  -27.1880  -28.7120   20.7680 C   0  0  0  0  0  3  0  0  0  0  0  0
  -26.0480  -26.9150   19.6020 C   0  0  0  0  0  3  0  0  0  0  0  0
  -24.8570  -27.6660   19.6050 C   0  0  0  0  0  3  0  0  0  0  0  0
  -23.5850  -29.7990   20.2260 C   0  0  0  0  0  2  0  0  0  0  0  0
  -24.6370  -31.1060   22.1320 N   0  0  0  0  0  0  0  0  0  0  0  0
  -23.4990  -32.1930   23.7670 O   0  0  0  0  0  0  0  0  0  0  0  0
  -22.7180  -29.4910   22.5690 C   0  0  0  0  0  0  0  0  0  0  0  0
  -21.3900  -29.3190   22.4490 N   0  0  0  0  0  0  0  0  0  0  0  0
  -23.3980  -28.8650   23.3850 O   0  0  0  0  0  0  0  0  0  0  0  0
  -20.8980  -29.8820   21.7680 H   0  0  0  0  0  0  0  0  0  0  0  0
  -18.0080  -28.1540   22.9680 C   0  0  0  0  0  0  0  0  0  0  0  0
  -20.5700  -28.3870   23.2260 C   0  0  0  0  0  3  0  0  0  0  0  0
  -20.6530  -26.9550   22.6460 C   0  0  0  0  0  2  0  0  0  0  0  0
  -19.5420  -26.6450   21.6380 C   0  0  0  0  0  2  0  0  0  0  0  0
  -18.1670  -26.8020   22.2920 C   0  0  0  0  0  2  0  0  0  0  0  0
  -19.1360  -28.9050   23.3910 C   0  0  0  0  0  0  0  0  0  0  0  0
  -18.9350  -30.1730   23.9800 C   0  0  0  0  0  3  0  0  0  0  0  0
  -17.6360  -30.6870   24.1550 C   0  0  0  0  0  3  0  0  0  0  0  0
  -16.5220  -29.9330   23.7510 C   0  0  0  0  0  3  0  0  0  0  0  0
  -16.7090  -28.6690   23.1630 C   0  0  0  0  0  3  0  0  0  0  0  0
  -25.8640  -32.5490   23.8460 C   0  0  0  0  0  3  0  0  0  0  0  0
  -25.5560  -33.9500   24.1670 N   0  0  0  0  0  0  0  0  0  0  0  0
  -25.9000  -34.9980   23.4070 C   0  0  0  0  0  0  0  0  0  0  0  0
  -26.5780  -34.8870   22.3810 O   0  0  0  0  0  0  0  0  0  0  0  0
  -24.9520  -34.1090   24.9580 H   0  0  0  0  0  0  0  0  0  0  0  0
  -24.1830  -36.7990   23.0240 C   0  0  0  0  0  1  0  0  0  0  0  0
  -25.4130  -36.3910   23.8520 C   0  0  0  0  0  3  0  0  0  0  0  0
  -27.5430  -37.2700   24.7020 C   0  0  0  0  0  1  0  0  0  0  0  0
  -26.4530  -37.4400   23.7460 N   0  0  0  0  0  0  0  0  0  0  0  0
  -26.0490  -38.3630   23.8830 H   0  0  0  0  0  0  0  0  0  0  0  0
  -26.3780  -31.7870   25.1300 C   0  0  1  0  0  0  0  0  0  0  0  0
  -25.2860  -31.5580   26.2010 C   0  0  0  0  0  1  0  0  0  0  0  0
  -26.9600  -30.4060   24.7490 C   0  0  0  0  0  1  0  0  0  0  0  0
  -27.5280  -32.5850   25.7880 C   0  0  0  0  0  1  0  0  0  0  0  0
  -32.8320  -21.8630   19.0280 C   0  0  0  0  0  2  0  0  0  0  0  0
  -33.0380  -23.8370   17.3830 C   0  0  0  0  0  1  0  0  0  0  0  0
  -32.8680  -22.3210   17.5500 C   0  0  0  0  0  2  0  0  0  0  0  0
  2  9  1  0
  2  1  2  0
  3  2  1  0
  4 51  1  0
  4  1  1  0
  5  3  2  0
  5  6  1  0
  6  4  2  0
  9  7  1  6
  9  8  1  0
  9 10  1  0
 11 19  1  0
 12 17  1  0
 13 14  1  0
 13 12  1  0
 15 14  1  0
 15 24  1  0
 15 16  1  0
 17 11  1  0
 17 16  1  0
 18 11  2  0
 19 10  1  0
 19 20  1  0
 21 22  2  0
 22 41  1  0
 23 22  1  0
 23 26  1  0
 24 21  1  0
 24 25  1  0
 25 23  2  0
 26 27  1  0
 27 28  2  0
 29 32  1  0
 29 28  1  0
 30 29  2  0
 31 30  1  0
 31 26  2  0
 32 33  1  0
 33 34  1  0
 34 35  2  0
 36 35  1  0
 36 40  1  0
 37 36  2  0
 38 33  2  0
 38 37  1  0
 39 38  1  0
 41 42  1  0
 42 45  1  0
 42 44  1  0
 43 41  2  0
 46 47  1  0
 46 21  1  0
 48 46  1  0
 49 50  1  0
 50  3  1  0
 51 52  1  0
 53 54  1  0
 53 52  1  0
 55 66  2  0
 56 54  1  0
 56 61  1  0
 57 65  1  0
 57 67  1  0
 58 64  1  0
 58 60  1  0
 59 65  1  0
 60 59  1  0
 61 60  2  0
 62 63  1  0
 62 56  2  0
 63 58  2  0
 64 57  1  0
 65 55  1  0
 67 69  2  0
 68 67  1  0
 70 68  1  0
 71 80  2  0
 71 76  1  0
 72 68  1  0
 72 76  1  0
 73 72  1  0
 74 75  1  0
 74 73  1  0
 75 71  1  0
 76 77  2  0
 77 78  1  0
 79 78  2  0
 80 79  1  0
 81 55  1  0
 81 82  1  0
 81 91  1  0
 82 85  1  0
 83 87  1  0
 83 82  1  0
 84 83  2  0
 87 86  1  0
 89 87  1  0
 89 90  1  0
 89 88  1  0
 91 94  1  1
 91 92  1  0
 93 91  1  0
 95  5  1  0
 96 97  1  0
 97 95  1  0
M  ISO  4  11 100  19 100  53 101  54 101
M  END
>  <TORSDO>  (66) 
F 24

>  <SCORE>  (66) 
-12.748

>  <name>  (66) 
66

>  <ligand_id>  (66) 
66

>  <original_smiles>  (66) 
[H]c1c([H])c([H])c2c(c1[H])C([H])([H])C([H])([H])C([H])([H])C2([H])N([H])C(=O)C1([H])N(C(=O)C([H])(N([H])C(=O)C([H])(N([H])C([H])([H])[H])C([H])([H])[H])C(C([H])([H])[H])(C([H])([H])[H])C([H])([H])[H])C([H])([H])c2c([H])c(OC([H])([H])C([H])([H])C([H])([H])c3nc(C([H])([H])C([H])([H])C([H])([H])[H])c(C([H])([H])C([H])([H])[H])c(C(C([H])([H])[H])(C([H])([H])[H])C([H])([H])N([H])C(=O)N4C([H])([H])C([H])([H])C([H])([H])C([H])(n5nc(-c6c([H])c([H])c(Oc7c([H])c([H])c(F)c([H])c7F)c([H])c6[H])c(C(=O)N([H])[H])c5N([H])[H])C4([H])[H])c3[H])c([H])c([H])c2C1([H])[H]

>  <smiles>  (66) 
[H]c1c([H])c([H])c2c(c1[H])C([H])([H])C([H])([H])C([H])([H])C2([H])N([H])C(=O)C1([H])N(C(=O)C([H])(N([H])C(=O)C([H])(N([H])C([H])([H])[H])C([H])([H])[H])C(C([H])([H])[H])(C([H])([H])[H])C([H])([H])[H])C([H])([H])c2c([H])c(OC([H])([H])C([H])([H])C([H])([H])c3nc(C([H])([H])C([H])([H])C([H])([H])[H])c(C([H])([H])C([H])([H])[H])c(C(C([H])([H])[H])(C([H])([H])[H])C([H])([H])N([H])C(=O)N4C([H])([H])C([H])([H])C([H])([H])C([H])(n5nc(-c6c([H])c([H])c(Oc7c([H])c([H])c(F)c([H])c7F)c([H])c6[H])c(C(=O)N([H])[H])c5N([H])[H])C4([H])[H])c3[H])c([H])c([H])c2C1([H])[H]

$$$$
67:0:0
     RDKit          3D

 95103  0  0  1  0  0  0  0  0999 V2000
  -29.1230  -23.5050   21.4340 C   0  0  0  0  0  3  0  0  0  0  0  0
  -29.4530  -21.0450   21.6580 C   0  0  0  0  0  3  0  0  0  0  0  0
  -28.7280  -22.0090   19.5690 C   0  0  0  0  0  3  0  0  0  0  0  0
  -29.4510  -22.3530   22.2100 C   0  0  0  0  0  0  0  0  0  0  0  0
  -28.7220  -23.4120   20.0840 C   0  0  0  0  0  0  0  0  0  0  0  0
  -29.1060  -20.7720   20.3210 C   0  0  0  0  0  0  0  0  0  0  0  0
  -29.0040  -19.0740   18.3260 C   0  0  0  0  0  1  0  0  0  0  0  0
  -29.0270  -19.1710   19.8580 C   0  0  0  0  0  3  0  0  0  0  0  0
  -29.9960  -17.9030   20.4640 C   0  0  0  0  0  2  0  0  0  0  0  0
  -30.4930  -15.1730   20.2730 C   0  0  0  0  0  0  0  0  0  0  0  0
  -30.4200  -12.7950   19.3870 C   0  0  0  0  0  2  0  0  0  0  0  0
  -29.5040  -12.6980   18.1450 C   0  0  0  0  0  2  0  0  0  0  0  0
  -28.0390  -12.4820   18.5690 C   0  0  0  0  0  2  0  0  0  0  0  0
  -27.6040  -13.4400   19.7080 C   0  0  0  0  0  3  0  0  0  0  0  0
  -28.6440  -13.4950   20.8460 C   0  0  0  0  0  2  0  0  0  0  0  0
  -29.9130  -13.9070   20.2380 N   0  0  0  0  0  0  0  0  0  0  0  0
  -31.7040  -15.2430   20.0500 O   0  0  0  0  0  0  0  0  0  0  0  0
  -29.6850  -16.3460   20.3600 N   0  0  0  0  0  0  0  0  0  0  0  0
  -28.7050  -16.1270   20.4540 H   0  0  0  0  0  0  0  0  0  0  0  0
  -25.2130  -14.0130   20.4090 C   0  0  0  0  0  0  0  0  0  0  0  0
  -24.1520  -13.2370   20.7820 C   0  0  0  0  0  0  0  0  0  0  0  0
  -24.6290  -11.8900   20.7890 C   0  0  0  0  0  0  0  0  0  0  0  0
  -26.2650  -13.1390   20.1980 N   0  0  0  0  0  0  0  0  0  0  0  0
  -25.9230  -11.8580   20.4960 N   0  0  0  0  0  0  0  0  0  0  0  0
  -23.9120  -10.6250   20.9930 C   0  0  0  0  0  0  0  0  0  0  0  0
  -24.3590   -9.6610   21.9220 C   0  0  0  0  0  3  0  0  0  0  0  0
  -23.6360   -8.4630   22.1130 C   0  0  0  0  0  3  0  0  0  0  0  0
  -22.4540   -8.2210   21.3740 C   0  0  0  0  0  0  0  0  0  0  0  0
  -22.0280   -9.1740   20.4320 C   0  0  0  0  0  3  0  0  0  0  0  0
  -22.7500  -10.3630   20.2390 C   0  0  0  0  0  3  0  0  0  0  0  0
  -21.7000   -7.0780   21.4790 O   0  0  0  0  0  0  0  0  0  0  0  0
  -21.6830   -6.3300   22.6290 C   0  0  0  0  0  0  0  0  0  0  0  0
  -21.2760   -6.8760   23.8650 C   0  0  0  0  0  3  0  0  0  0  0  0
  -21.2060   -6.0520   25.0080 C   0  0  0  0  0  3  0  0  0  0  0  0
  -21.5320   -4.6860   24.9140 C   0  0  0  0  0  0  0  0  0  0  0  0
  -21.9340   -4.1410   23.6820 C   0  0  0  0  0  3  0  0  0  0  0  0
  -22.0050   -4.9610   22.5430 C   0  0  0  0  0  0  0  0  0  0  0  0
  -22.3740   -4.4250   21.3530 F   0  0  0  0  0  0  0  0  0  0  0  0
  -21.4580   -3.8940   26.0090 F   0  0  0  0  0  0  0  0  0  0  0  0
  -22.7470  -13.7090   21.0200 C   0  0  0  0  0  0  0  0  0  0  0  0
  -22.0140  -13.0330   21.8980 N   0  0  0  0  0  0  0  0  0  0  0  0
  -22.3080  -14.7130   20.4620 O   0  0  0  0  0  0  0  0  0  0  0  0
  -22.3830  -12.2200   22.3670 H   0  0  0  0  0  0  0  0  0  0  0  0
  -21.0720  -13.3350   22.1020 H   0  0  0  0  0  0  0  0  0  0  0  0
  -25.3640  -15.3830   20.2080 N   0  0  0  0  0  0  0  0  0  0  0  0
  -24.5760  -16.0170   20.2760 H   0  0  0  0  0  0  0  0  0  0  0  0
  -26.1900  -15.8240   19.8240 H   0  0  0  0  0  0  0  0  0  0  0  0
  -29.7930  -22.4410   23.6950 C   0  0  0  0  0  2  0  0  0  0  0  0
  -29.9320  -23.8410   24.3200 C   0  0  0  0  0  2  0  0  0  0  0  0
  -28.7900  -24.8180   23.9680 C   0  0  0  0  0  2  0  0  0  0  0  0
  -27.9420  -27.2060   23.9620 C   0  0  0  0  0  1  0  0  0  0  0  0
  -30.3300  -26.7570   23.2870 C   0  0  0  0  0  1  0  0  0  0  0  0
  -29.1620  -26.3010   24.1800 C   0  0  0  0  0  3  0  0  0  0  0  0
  -28.1720  -24.7790   19.3150 C   0  0  0  0  0  2  0  0  0  0  0  0
  -28.4000  -26.2830   19.7060 O   0  0  0  0  0  0  0  0  0  0  0  0
  -24.6320  -31.7230   22.9910 C   0  0  0  0  0  0  0  0  0  0  0  0
  -27.3390  -27.2740   19.6620 C   0  0  0  0  0  0  0  0  0  0  0  0
  -23.4700  -30.3920   21.2750 C   0  0  0  0  0  3  0  0  0  0  0  0
  -24.9620  -28.9650   19.7420 C   0  0  0  0  0  0  0  0  0  0  0  0
  -26.0140  -30.7500   21.1160 C   0  0  0  0  0  2  0  0  0  0  0  0
  -26.1290  -29.4000   20.3810 C   0  0  0  0  0  0  0  0  0  0  0  0
  -27.3150  -28.5680   20.3320 C   0  0  0  0  0  3  0  0  0  0  0  0
  -26.1500  -26.9690   18.9590 C   0  0  0  0  0  3  0  0  0  0  0  0
  -24.9880  -27.7670   19.0110 C   0  0  0  0  0  3  0  0  0  0  0  0
  -23.7060  -29.8140   19.8550 C   0  0  0  0  0  2  0  0  0  0  0  0
  -24.7260  -30.9730   21.8510 N   0  0  0  0  0  0  0  0  0  0  0  0
  -23.5400  -31.9370   23.5410 O   0  0  0  0  0  0  0  0  0  0  0  0
  -22.8320  -29.3040   22.1750 C   0  0  0  0  0  0  0  0  0  0  0  0
  -21.4980  -29.1490   22.1000 N   0  0  0  0  0  0  0  0  0  0  0  0
  -23.5380  -28.6070   22.9070 O   0  0  0  0  0  0  0  0  0  0  0  0
  -20.9800  -29.7680   21.4910 H   0  0  0  0  0  0  0  0  0  0  0  0
  -18.1350  -27.9310   22.6850 C   0  0  0  0  0  0  0  0  0  0  0  0
  -20.7100  -28.1500   22.8270 C   0  0  0  0  0  3  0  0  0  0  0  0
  -20.7600  -26.7760   22.1190 C   0  0  0  0  0  2  0  0  0  0  0  0
  -19.5990  -26.5580   21.1430 C   0  0  0  0  0  2  0  0  0  0  0  0
  -18.2580  -26.6510   21.8740 C   0  0  0  0  0  2  0  0  0  0  0  0
  -19.2870  -28.6420   23.1190 C   0  0  0  0  0  0  0  0  0  0  0  0
  -19.1130  -29.8430   23.8430 C   0  0  0  0  0  3  0  0  0  0  0  0
  -17.8260  -30.3310   24.1300 C   0  0  0  0  0  3  0  0  0  0  0  0
  -16.6910  -29.6170   23.7090 C   0  0  0  0  0  3  0  0  0  0  0  0
  -16.8480  -28.4180   22.9920 C   0  0  0  0  0  3  0  0  0  0  0  0
  -25.8900  -32.3650   23.6500 C   0  0  0  0  0  3  0  0  0  0  0  0
  -25.5300  -33.7300   24.0650 N   0  0  0  0  0  0  0  0  0  0  0  0
  -25.8640  -34.8450   23.4010 C   0  0  0  0  0  0  0  0  0  0  0  0
  -26.5650  -34.8320   22.3870 O   0  0  0  0  0  0  0  0  0  0  0  0
  -24.9040  -33.8090   24.8520 H   0  0  0  0  0  0  0  0  0  0  0  0
  -24.0970  -36.6190   23.1390 C   0  0  0  0  0  1  0  0  0  0  0  0
  -25.3320  -36.1870   23.9440 C   0  0  0  0  0  3  0  0  0  0  0  0
  -27.4240  -37.0700   24.8820 C   0  0  0  0  0  1  0  0  0  0  0  0
  -26.3390  -37.2730   23.9250 N   0  0  0  0  0  0  0  0  0  0  0  0
  -25.9030  -38.1710   24.1240 H   0  0  0  0  0  0  0  0  0  0  0  0
  -26.4320  -31.5370   24.8800 C   0  0  1  0  0  0  0  0  0  0  0  0
  -25.3530  -31.2210   25.9410 C   0  0  0  0  0  1  0  0  0  0  0  0
  -27.0360  -30.1940   24.4110 C   0  0  0  0  0  1  0  0  0  0  0  0
  -27.5730  -32.3190   25.5710 C   0  0  0  0  0  1  0  0  0  0  0  0
  1  4  1  0
  2  4  2  0
  3  5  1  0
  3  6  2  0
  4 48  1  0
  5  1  2  0
  6  2  1  0
  8  7  1  0
  8  6  1  0
  8  9  1  0
 10 18  1  0
 11 16  1  0
 12 13  1  0
 12 11  1  0
 14 13  1  0
 14 23  1  0
 14 15  1  0
 16 10  1  0
 16 15  1  0
 17 10  2  0
 18 19  1  0
 18  9  1  0
 20 21  2  0
 21 22  1  0
 21 40  1  0
 22 25  1  0
 23 20  1  0
 23 24  1  0
 24 22  2  0
 25 26  1  0
 26 27  2  0
 28 31  1  0
 28 27  1  0
 29 28  2  0
 30 29  1  0
 30 25  2  0
 31 32  1  0
 32 33  1  0
 33 34  2  0
 35 34  1  0
 35 39  1  0
 36 35  2  0
 37 32  2  0
 37 36  1  0
 38 37  1  0
 40 41  1  0
 41 44  1  0
 41 43  1  0
 42 40  2  0
 45 46  1  0
 45 20  1  0
 47 45  1  0
 48 49  1  0
 50 53  1  0
 50 49  1  0
 51 53  1  0
 52 53  1  0
 54 55  1  0
 54  5  1  0
 56 67  2  0
 57 55  1  0
 57 62  1  0
 58 66  1  0
 58 68  1  0
 59 65  1  0
 59 61  1  0
 60 66  1  0
 61 60  1  0
 62 61  2  0
 63 64  1  0
 63 57  2  0
 64 59  2  0
 65 58  1  0
 66 56  1  0
 68 70  2  0
 69 68  1  0
 71 69  1  0
 72 81  2  0
 72 77  1  0
 73 69  1  0
 73 77  1  0
 74 73  1  0
 75 76  1  0
 75 74  1  0
 76 72  1  0
 77 78  2  0
 78 79  1  0
 80 79  2  0
 81 80  1  0
 82 56  1  0
 82 83  1  0
 82 92  1  0
 83 86  1  0
 84 88  1  0
 84 83  1  0
 85 84  2  0
 88 87  1  0
 90 88  1  0
 90 91  1  0
 90 89  1  0
 92 95  1  1
 92 93  1  0
 94 92  1  0
M  ISO  4  10 100  18 100  54 101  55 101
M  END
>  <TORSDO>  (67) 
F 23

>  <SCORE>  (67) 
-12.168

>  <name>  (67) 
67

>  <ligand_id>  (67) 
67

>  <original_smiles>  (67) 
[H]c1c([H])c([H])c2c(c1[H])C([H])([H])C([H])([H])C([H])([H])C2([H])N([H])C(=O)C1([H])N(C(=O)C([H])(N([H])C(=O)C([H])(N([H])C([H])([H])[H])C([H])([H])[H])C(C([H])([H])[H])(C([H])([H])[H])C([H])([H])[H])C([H])([H])c2c([H])c(OC([H])([H])c3c([H])c(C([H])([H])C([H])([H])C([H])([H])C([H])(C([H])([H])[H])C([H])([H])[H])c([H])c(C([H])(C([H])([H])[H])C([H])([H])N([H])C(=O)N4C([H])([H])C([H])([H])C([H])([H])C([H])(n5nc(-c6c([H])c([H])c(Oc7c([H])c([H])c(F)c([H])c7F)c([H])c6[H])c(C(=O)N([H])[H])c5N([H])[H])C4([H])[H])c3[H])c([H])c([H])c2C1([H])[H]

>  <smiles>  (67) 
[H]c1c([H])c([H])c2c(c1[H])C([H])([H])C([H])([H])C([H])([H])C2([H])N([H])C(=O)C1([H])N(C(=O)C([H])(N([H])C(=O)C([H])(N([H])C([H])([H])[H])C([H])([H])[H])C(C([H])([H])[H])(C([H])([H])[H])C([H])([H])[H])C([H])([H])c2c([H])c(OC([H])([H])c3c([H])c(C([H])([H])C([H])([H])C([H])([H])C([H])(C([H])([H])[H])C([H])([H])[H])c([H])c(C([H])(C([H])([H])[H])C([H])([H])N([H])C(=O)N4C([H])([H])C([H])([H])C([H])([H])C([H])(n5nc(-c6c([H])c([H])c(Oc7c([H])c([H])c(F)c([H])c7F)c([H])c6[H])c(C(=O)N([H])[H])c5N([H])[H])C4([H])[H])c3[H])c([H])c([H])c2C1([H])[H]

$$$$
68:0:0
     RDKit          3D

 95102  0  0  1  0  0  0  0  0999 V2000
  -31.7330  -22.8200   23.9430 C   0  0  0  0  0  1  0  0  0  0  0  0
  -31.0040  -22.0580   22.8160 C   0  0  0  0  0  3  0  0  0  0  0  0
  -29.5430  -21.1610   24.7150 C   0  0  0  0  0  1  0  0  0  0  0  0
  -30.1830  -20.8390   23.3400 C   0  0  0  0  0  3  0  0  0  0  0  0
  -30.5870  -18.5910   24.5320 C   0  0  0  0  0  1  0  0  0  0  0  0
  -30.9530  -19.4740   23.3130 C   0  0  0  0  0  3  0  0  0  0  0  0
  -30.6940  -18.6910   21.9880 C   0  0  0  0  0  2  0  0  0  0  0  0
  -30.9620  -17.2330   22.1120 N   0  0  0  0  0  4  0  0  0  0  0  0
  -30.4280  -16.8950   22.8970 H   0  0  0  0  0  0  0  0  0  0  0  0
  -31.9370  -17.1310   22.3480 H   0  0  0  0  0  0  0  0  0  0  0  0
  -29.2480  -16.5880   20.3750 C   0  0  0  0  0  1  0  0  0  0  0  0
  -30.6790  -16.3730   20.9220 C   0  0  0  0  0  3  0  0  0  0  0  0
  -30.9380  -14.8740   21.2640 C   0  0  0  0  0  2  0  0  0  0  0  0
  -31.0980  -13.9350   20.0420 C   0  0  0  0  0  0  0  0  0  0  0  0
  -30.4730  -11.9370   18.7150 C   0  0  0  0  0  2  0  0  0  0  0  0
  -29.4540  -12.2620   17.6070 C   0  0  0  0  0  2  0  0  0  0  0  0
  -28.0150  -12.1890   18.1500 C   0  0  0  0  0  2  0  0  0  0  0  0
  -27.8440  -12.9880   19.4660 C   0  0  0  0  0  3  0  0  0  0  0  0
  -28.9600  -12.6390   20.4750 C   0  0  0  0  0  2  0  0  0  0  0  0
  -30.2670  -12.8740   19.8340 N   0  0  0  0  0  0  0  0  0  0  0  0
  -32.0500  -14.1680   19.2900 O   0  0  0  0  0  0  0  0  0  0  0  0
  -25.5650  -13.7400   20.3970 C   0  0  0  0  0  0  0  0  0  0  0  0
  -24.4710  -13.0330   20.8230 C   0  0  0  0  0  0  0  0  0  0  0  0
  -24.8180  -11.6550   20.6880 C   0  0  0  0  0  0  0  0  0  0  0  0
  -26.5150  -12.7950   20.0410 N   0  0  0  0  0  0  0  0  0  0  0  0
  -26.0720  -11.5320   20.2690 N   0  0  0  0  0  0  0  0  0  0  0  0
  -24.0110  -10.4430   20.8820 C   0  0  0  0  0  0  0  0  0  0  0  0
  -24.4320   -9.4070   21.7450 C   0  0  0  0  0  3  0  0  0  0  0  0
  -23.6320   -8.2590   21.9280 C   0  0  0  0  0  3  0  0  0  0  0  0
  -22.3970   -8.1390   21.2490 C   0  0  0  0  0  0  0  0  0  0  0  0
  -21.9930   -9.1620   20.3730 C   0  0  0  0  0  3  0  0  0  0  0  0
  -22.7930  -10.3030   20.1870 C   0  0  0  0  0  3  0  0  0  0  0  0
  -21.5660   -7.0490   21.3460 O   0  0  0  0  0  0  0  0  0  0  0  0
  -21.4910   -6.2980   22.4920 C   0  0  0  0  0  0  0  0  0  0  0  0
  -21.1410   -6.8700   23.7340 C   0  0  0  0  0  3  0  0  0  0  0  0
  -21.0080   -6.0500   24.8730 C   0  0  0  0  0  3  0  0  0  0  0  0
  -21.2170   -4.6620   24.7710 C   0  0  0  0  0  0  0  0  0  0  0  0
  -21.5620   -4.0900   23.5320 C   0  0  0  0  0  3  0  0  0  0  0  0
  -21.6970   -4.9070   22.3960 C   0  0  0  0  0  0  0  0  0  0  0  0
  -22.0080   -4.3490   21.2020 F   0  0  0  0  0  0  0  0  0  0  0  0
  -21.0830   -3.8730   25.8620 F   0  0  0  0  0  0  0  0  0  0  0  0
  -23.1440  -13.6000   21.2370 C   0  0  0  0  0  0  0  0  0  0  0  0
  -22.4610  -12.9450   22.1700 N   0  0  0  0  0  0  0  0  0  0  0  0
  -22.7240  -14.6560   20.7670 O   0  0  0  0  0  0  0  0  0  0  0  0
  -22.8130  -12.0900   22.5730 H   0  0  0  0  0  0  0  0  0  0  0  0
  -21.5710  -13.3080   22.4860 H   0  0  0  0  0  0  0  0  0  0  0  0
  -25.8200  -15.1010   20.2680 N   0  0  0  0  0  0  0  0  0  0  0  0
  -25.1130  -15.8000   20.4690 H   0  0  0  0  0  0  0  0  0  0  0  0
  -26.6550  -15.4940   19.8560 H   0  0  0  0  0  0  0  0  0  0  0  0
  -30.0980  -22.9800   21.9650 C   0  0  0  0  0  2  0  0  0  0  0  0
  -30.7310  -24.2970   21.4640 C   0  0  0  0  0  2  0  0  0  0  0  0
  -30.7430  -25.9120   19.5000 C   0  0  0  0  0  1  0  0  0  0  0  0
  -29.8830  -24.9870   20.3750 C   0  0  0  0  0  3  0  0  0  0  0  0
  -28.6540  -25.7510   20.9190 C   0  0  0  0  0  2  0  0  0  0  0  0
  -27.8820  -26.0790   19.7800 O   0  0  0  0  0  0  0  0  0  0  0  0
  -24.5220  -31.4830   23.0770 C   0  0  0  0  0  0  0  0  0  0  0  0
  -26.7830  -26.8760   19.9590 C   0  0  0  0  0  0  0  0  0  0  0  0
  -23.1820  -30.1640   21.4690 C   0  0  0  0  0  3  0  0  0  0  0  0
  -24.4930  -28.5150   20.0340 C   0  0  0  0  0  0  0  0  0  0  0  0
  -25.7190  -30.3440   21.2170 C   0  0  0  0  0  2  0  0  0  0  0  0
  -25.6940  -28.9630   20.6010 C   0  0  0  0  0  0  0  0  0  0  0  0
  -26.8450  -28.1440   20.5760 C   0  0  0  0  0  3  0  0  0  0  0  0
  -25.5700  -26.4350   19.3980 C   0  0  0  0  0  3  0  0  0  0  0  0
  -24.4210  -27.2440   19.4380 C   0  0  0  0  0  3  0  0  0  0  0  0
  -23.3140  -29.4600   20.0920 C   0  0  0  0  0  2  0  0  0  0  0  0
  -24.4940  -30.6780   21.9790 N   0  0  0  0  0  0  0  0  0  0  0  0
  -23.4750  -31.8360   23.6380 O   0  0  0  0  0  0  0  0  0  0  0  0
  -22.4810  -29.1950   22.4490 C   0  0  0  0  0  0  0  0  0  0  0  0
  -21.1450  -29.1000   22.3410 N   0  0  0  0  0  0  0  0  0  0  0  0
  -23.1330  -28.5330   23.2600 O   0  0  0  0  0  0  0  0  0  0  0  0
  -20.6840  -29.6830   21.6560 H   0  0  0  0  0  0  0  0  0  0  0  0
  -17.7090  -28.1260   22.8780 C   0  0  0  0  0  0  0  0  0  0  0  0
  -20.2790  -28.2270   23.1310 C   0  0  0  0  0  3  0  0  0  0  0  0
  -20.2890  -26.7830   22.5760 C   0  0  0  0  0  2  0  0  0  0  0  0
  -19.1620  -26.5150   21.5750 C   0  0  0  0  0  2  0  0  0  0  0  0
  -17.7960  -26.7560   22.2240 C   0  0  0  0  0  2  0  0  0  0  0  0
  -18.8770  -28.8230   23.2880 C   0  0  0  0  0  0  0  0  0  0  0  0
  -18.7420  -30.1070   23.8570 C   0  0  0  0  0  3  0  0  0  0  0  0
  -17.4720  -30.6940   24.0200 C   0  0  0  0  0  3  0  0  0  0  0  0
  -16.3190  -29.9940   23.6250 C   0  0  0  0  0  3  0  0  0  0  0  0
  -16.4390  -28.7100   23.0610 C   0  0  0  0  0  3  0  0  0  0  0  0
  -25.8640  -32.0210   23.6640 C   0  0  0  0  0  3  0  0  0  0  0  0
  -26.4140  -31.1510   24.8610 C   0  0  1  0  0  0  0  0  0  0  0  0
  -25.3710  -30.9030   25.9780 C   0  0  0  0  0  1  0  0  0  0  0  0
  -26.9020  -29.7730   24.3560 C   0  0  0  0  0  1  0  0  0  0  0  0
  -27.6390  -31.8500   25.4980 C   0  0  0  0  0  1  0  0  0  0  0  0
  -25.6350  -33.4090   24.0880 N   0  0  0  0  0  0  0  0  0  0  0  0
  -25.9770  -34.4880   23.3710 C   0  0  0  0  0  0  0  0  0  0  0  0
  -26.5930  -34.4160   22.3040 O   0  0  0  0  0  0  0  0  0  0  0  0
  -25.0860  -33.5410   24.9250 H   0  0  0  0  0  0  0  0  0  0  0  0
  -24.3070  -36.3620   23.2100 C   0  0  0  0  0  1  0  0  0  0  0  0
  -25.5730  -35.8680   23.9270 C   0  0  0  0  0  3  0  0  0  0  0  0
  -27.7850  -36.6270   24.6780 C   0  0  0  0  0  1  0  0  0  0  0  0
  -26.6400  -36.8840   23.8090 N   0  0  0  0  0  0  0  0  0  0  0  0
  -26.2790  -37.8110   24.0230 H   0  0  0  0  0  0  0  0  0  0  0  0
  2  4  1  0
  2  1  1  0
  4  3  1  0
  6  4  1  0
  6  5  1  0
  7  8  1  0
  7  6  1  0
  8 10  1  0
  8  9  1  0
 12 11  1  0
 12 13  1  0
 12  8  1  0
 14 13  1  0
 15 20  1  0
 16 17  1  0
 16 15  1  0
 18 17  1  0
 18 25  1  0
 18 19  1  0
 20 14  1  0
 20 19  1  0
 21 14  2  0
 22 23  2  0
 23 42  1  0
 24 23  1  0
 24 27  1  0
 25 26  1  0
 25 22  1  0
 26 24  2  0
 27 28  1  0
 28 29  2  0
 30 33  1  0
 30 29  1  0
 31 30  2  0
 32 31  1  0
 32 27  2  0
 33 34  1  0
 34 35  1  0
 35 36  2  0
 37 36  1  0
 37 41  1  0
 38 37  2  0
 39 34  2  0
 39 38  1  0
 40 39  1  0
 42 43  1  0
 43 46  1  0
 43 45  1  0
 44 42  2  0
 47 22  1  0
 47 48  1  0
 49 47  1  0
 50  2  1  0
 51 50  1  0
 53 52  1  0
 53 54  1  0
 53 51  1  0
 55 57  1  0
 55 54  1  0
 56 67  2  0
 57 62  1  0
 58 66  1  0
 58 68  1  0
 59 65  1  0
 59 61  1  0
 60 66  1  0
 61 60  1  0
 62 61  2  0
 63 64  1  0
 63 57  2  0
 64 59  2  0
 65 58  1  0
 66 56  1  0
 68 70  2  0
 69 68  1  0
 71 69  1  0
 72 81  2  0
 72 77  1  0
 73 69  1  0
 73 77  1  0
 74 73  1  0
 75 76  1  0
 75 74  1  0
 76 72  1  0
 77 78  2  0
 78 79  1  0
 80 79  2  0
 81 80  1  0
 82 56  1  0
 82 87  1  0
 82 83  1  0
 83 86  1  1
 83 84  1  0
 85 83  1  0
 87 90  1  0
 88 92  1  0
 88 87  1  0
 89 88  2  0
 92 91  1  0
 94 92  1  0
 94 95  1  0
 94 93  1  0
M  ISO  4  13 100  14 100  54 101  55 101
M  END
>  <TORSDO>  (68) 
F 26

>  <SCORE>  (68) 
-7.883

>  <name>  (68) 
68

>  <ligand_id>  (68) 
68

>  <original_smiles>  (68) 
[H]c1c([H])c([H])c2c(c1[H])C([H])([H])C([H])([H])C([H])([H])C2([H])N([H])C(=O)C1([H])N(C(=O)C([H])(N([H])C(=O)C([H])(N([H])C([H])([H])[H])C([H])([H])[H])C(C([H])([H])[H])(C([H])([H])[H])C([H])([H])[H])C([H])([H])c2c([H])c(OC([H])([H])C([H])(C([H])([H])[H])C([H])([H])C([H])([H])C([H])(C([H])([H])[H])C([H])(C([H])([H])[H])C([H])(C([H])([H])[H])C([H])([H])[N+]([H])([H])C([H])(C([H])([H])[H])C([H])([H])C(=O)N3C([H])([H])C([H])([H])C([H])([H])C([H])(n4nc(-c5c([H])c([H])c(Oc6c([H])c([H])c(F)c([H])c6F)c([H])c5[H])c(C(=O)N([H])[H])c4N([H])[H])C3([H])[H])c([H])c([H])c2C1([H])[H]

>  <smiles>  (68) 
[H]c1c([H])c([H])c2c(c1[H])C([H])([H])C([H])([H])C([H])([H])C2([H])N([H])C(=O)C1([H])N(C(=O)C([H])(N([H])C(=O)C([H])(N([H])C([H])([H])[H])C([H])([H])[H])C(C([H])([H])[H])(C([H])([H])[H])C([H])([H])[H])C([H])([H])c2c([H])c(OC([H])([H])C([H])(C([H])([H])[H])C([H])([H])C([H])([H])C([H])(C([H])([H])[H])C([H])(C([H])([H])[H])C([H])(C([H])([H])[H])C([H])([H])[N+]([H])([H])C([H])(C([H])([H])[H])C([H])([H])C(=O)N3C([H])([H])C([H])([H])C([H])([H])C([H])(n4nc(-c5c([H])c([H])c(Oc6c([H])c([H])c(F)c([H])c6F)c([H])c5[H])c(C(=O)N([H])[H])c4N([H])[H])C3([H])[H])c([H])c([H])c2C1([H])[H]

$$$$
69:0:0
     RDKit          3D

 96104  0  0  1  0  0  0  0  0999 V2000
  -29.2310  -20.2810   20.4970 C   0  0  0  0  0  3  0  0  0  0  0  0
  -31.4130  -19.5370   21.2310 C   0  0  0  0  0  3  0  0  0  0  0  0
  -30.1720  -19.2270   20.6460 C   0  0  0  0  0  0  0  0  0  0  0  0
  -29.4800  -21.5920   21.0020 C   0  0  0  0  0  0  0  0  0  0  0  0
  -31.6790  -20.8040   21.7940 C   0  0  0  0  0  0  0  0  0  0  0  0
  -30.6890  -21.8290   21.7200 C   0  0  0  0  0  0  0  0  0  0  0  0
  -34.0520  -21.5900   21.4410 C   0  0  0  0  0  1  0  0  0  0  0  0
  -33.6190  -19.7910   23.1700 C   0  0  0  0  0  1  0  0  0  0  0  0
  -33.0480  -21.0340   22.4590 C   0  0  0  0  0  3  0  0  0  0  0  0
  -30.3730  -17.5690   18.7340 C   0  0  0  0  0  1  0  0  0  0  0  0
  -29.8820  -17.7780   20.1740 C   0  0  0  0  0  3  0  0  0  0  0  0
  -30.4380  -16.6750   21.1460 C   0  0  0  0  0  2  0  0  0  0  0  0
  -30.6400  -14.2800   20.3530 C   0  0  0  0  0  0  0  0  0  0  0  0
  -30.3450  -12.0940   19.2380 C   0  0  0  0  0  2  0  0  0  0  0  0
  -29.3660  -12.2580   18.0600 C   0  0  0  0  0  2  0  0  0  0  0  0
  -27.9080  -12.1030   18.5350 C   0  0  0  0  0  2  0  0  0  0  0  0
  -27.5930  -12.9510   19.7970 C   0  0  0  0  0  3  0  0  0  0  0  0
  -28.6840  -12.7690   20.8740 C   0  0  0  0  0  2  0  0  0  0  0  0
  -29.9820  -13.0920   20.2570 N   0  0  0  0  0  0  0  0  0  0  0  0
  -31.7510  -14.4630   19.8500 O   0  0  0  0  0  0  0  0  0  0  0  0
  -29.9540  -15.2940   20.9230 N   0  0  0  0  0  0  0  0  0  0  0  0
  -29.0420  -15.0650   21.2890 H   0  0  0  0  0  0  0  0  0  0  0  0
  -25.2240  -13.5410   20.6070 C   0  0  0  0  0  0  0  0  0  0  0  0
  -24.1710  -12.7600   21.0000 C   0  0  0  0  0  0  0  0  0  0  0  0
  -24.6310  -11.4100   20.9260 C   0  0  0  0  0  0  0  0  0  0  0  0
  -26.2600  -12.6650   20.3210 N   0  0  0  0  0  0  0  0  0  0  0  0
  -25.9090  -11.3780   20.5690 N   0  0  0  0  0  0  0  0  0  0  0  0
  -23.9120  -10.1430   21.1190 C   0  0  0  0  0  0  0  0  0  0  0  0
  -24.3590   -9.1730   22.0420 C   0  0  0  0  0  3  0  0  0  0  0  0
  -23.6410   -7.9710   22.2240 C   0  0  0  0  0  3  0  0  0  0  0  0
  -22.4610   -7.7310   21.4810 C   0  0  0  0  0  0  0  0  0  0  0  0
  -22.0320   -8.6900   20.5460 C   0  0  0  0  0  3  0  0  0  0  0  0
  -22.7510   -9.8830   20.3650 C   0  0  0  0  0  3  0  0  0  0  0  0
  -21.7140   -6.5810   21.5700 O   0  0  0  0  0  0  0  0  0  0  0  0
  -21.6720   -5.8380   22.7230 C   0  0  0  0  0  0  0  0  0  0  0  0
  -21.2010   -6.3770   23.9400 C   0  0  0  0  0  3  0  0  0  0  0  0
  -21.1110   -5.5590   25.0830 C   0  0  0  0  0  3  0  0  0  0  0  0
  -21.4780   -4.2020   25.0100 C   0  0  0  0  0  0  0  0  0  0  0  0
  -21.9410   -3.6620   23.7970 C   0  0  0  0  0  3  0  0  0  0  0  0
  -22.0350   -4.4790   22.6560 C   0  0  0  0  0  0  0  0  0  0  0  0
  -22.4620   -3.9480   21.4840 F   0  0  0  0  0  0  0  0  0  0  0  0
  -21.3830   -3.4130   26.1060 F   0  0  0  0  0  0  0  0  0  0  0  0
  -22.7850  -13.2310   21.3330 C   0  0  0  0  0  0  0  0  0  0  0  0
  -22.0900  -12.5150   22.2110 N   0  0  0  0  0  0  0  0  0  0  0  0
  -22.3280  -14.2660   20.8530 O   0  0  0  0  0  0  0  0  0  0  0  0
  -22.4740  -11.6770   22.6230 H   0  0  0  0  0  0  0  0  0  0  0  0
  -21.1600  -12.8090   22.4760 H   0  0  0  0  0  0  0  0  0  0  0  0
  -25.3840  -14.9150   20.4490 N   0  0  0  0  0  0  0  0  0  0  0  0
  -24.6230  -15.5700   20.5940 H   0  0  0  0  0  0  0  0  0  0  0  0
  -26.2240  -15.3560   20.0960 H   0  0  0  0  0  0  0  0  0  0  0  0
  -30.2190  -23.1440   23.8400 C   0  0  0  0  0  1  0  0  0  0  0  0
  -30.9070  -23.1470   22.4680 C   0  0  0  0  0  2  0  0  0  0  0  0
  -28.3900  -22.6840   20.8370 C   0  0  0  0  0  2  0  0  0  0  0  0
  -28.6910  -23.8690   19.8540 C   0  0  0  0  0  2  0  0  0  0  0  0
  -27.5250  -24.8870   19.6780 C   0  0  0  0  0  2  0  0  0  0  0  0
  -27.7970  -26.2890   19.9500 O   0  0  0  0  0  0  0  0  0  0  0  0
  -24.5000  -31.7740   23.1870 C   0  0  0  0  0  0  0  0  0  0  0  0
  -26.6950  -27.1430   19.9760 C   0  0  0  0  0  0  0  0  0  0  0  0
  -23.1330  -30.4570   21.6070 C   0  0  0  0  0  3  0  0  0  0  0  0
  -24.4150  -28.8430   20.1090 C   0  0  0  0  0  0  0  0  0  0  0  0
  -25.6720  -30.6440   21.2920 C   0  0  0  0  0  2  0  0  0  0  0  0
  -25.6370  -29.2720   20.6410 C   0  0  0  0  0  0  0  0  0  0  0  0
  -26.7810  -28.4330   20.5660 C   0  0  0  0  0  3  0  0  0  0  0  0
  -25.4440  -26.7520   19.4340 C   0  0  0  0  0  3  0  0  0  0  0  0
  -24.3160  -27.5850   19.5010 C   0  0  0  0  0  3  0  0  0  0  0  0
  -23.2350  -29.7820   20.2170 C   0  0  0  0  0  2  0  0  0  0  0  0
  -24.4580  -30.9720   22.0850 N   0  0  0  0  0  0  0  0  0  0  0  0
  -23.4640  -32.1110   23.7770 O   0  0  0  0  0  0  0  0  0  0  0  0
  -22.4660  -29.4720   22.5950 C   0  0  0  0  0  0  0  0  0  0  0  0
  -21.1340  -29.3250   22.4890 N   0  0  0  0  0  0  0  0  0  0  0  0
  -23.1420  -28.8430   23.4130 O   0  0  0  0  0  0  0  0  0  0  0  0
  -20.6510  -29.8820   21.7990 H   0  0  0  0  0  0  0  0  0  0  0  0
  -17.7400  -28.2030   23.0290 C   0  0  0  0  0  0  0  0  0  0  0  0
  -20.3010  -28.4270   23.2910 C   0  0  0  0  0  3  0  0  0  0  0  0
  -20.3800  -26.9760   22.7620 C   0  0  0  0  0  2  0  0  0  0  0  0
  -19.2710  -26.6390   21.7600 C   0  0  0  0  0  2  0  0  0  0  0  0
  -17.8930  -26.8290   22.3990 C   0  0  0  0  0  2  0  0  0  0  0  0
  -18.8720  -28.9590   23.4330 C   0  0  0  0  0  0  0  0  0  0  0  0
  -18.6740  -30.2460   23.9820 C   0  0  0  0  0  3  0  0  0  0  0  0
  -17.3790  -30.7750   24.1290 C   0  0  0  0  0  3  0  0  0  0  0  0
  -16.2620  -30.0160   23.7410 C   0  0  0  0  0  3  0  0  0  0  0  0
  -16.4430  -28.7310   23.1970 C   0  0  0  0  0  3  0  0  0  0  0  0
  -25.8490  -32.3240   23.7440 C   0  0  0  0  0  3  0  0  0  0  0  0
  -25.6260  -33.7210   24.1410 N   0  0  0  0  0  0  0  0  0  0  0  0
  -25.9640  -34.7850   23.4010 C   0  0  0  0  0  0  0  0  0  0  0  0
  -26.5690  -34.6900   22.3300 O   0  0  0  0  0  0  0  0  0  0  0  0
  -25.0860  -33.8720   24.9800 H   0  0  0  0  0  0  0  0  0  0  0  0
  -24.3070  -36.6680   23.2090 C   0  0  0  0  0  1  0  0  0  0  0  0
  -25.5690  -36.1750   23.9350 C   0  0  0  0  0  3  0  0  0  0  0  0
  -27.7810  -36.9350   24.6840 C   0  0  0  0  0  1  0  0  0  0  0  0
  -26.6440  -37.1840   23.8020 N   0  0  0  0  0  0  0  0  0  0  0  0
  -26.2890  -38.1160   23.9980 H   0  0  0  0  0  0  0  0  0  0  0  0
  -26.4110  -31.4830   24.9570 C   0  0  1  0  0  0  0  0  0  0  0  0
  -25.3750  -31.2420   26.0800 C   0  0  0  0  0  1  0  0  0  0  0  0
  -26.9150  -30.1010   24.4770 C   0  0  0  0  0  1  0  0  0  0  0  0
  -27.6280  -32.2070   25.5770 C   0  0  0  0  0  1  0  0  0  0  0  0
  1  3  2  0
  1  4  1  0
  2  5  2  0
  3  2  1  0
  4  6  2  0
  5  9  1  0
  6  5  1  0
  6 52  1  0
  7  9  1  0
  9  8  1  0
 11 10  1  0
 11  3  1  0
 11 12  1  0
 13 21  1  0
 14 19  1  0
 15 16  1  0
 15 14  1  0
 17 16  1  0
 17 26  1  0
 17 18  1  0
 19 13  1  0
 19 18  1  0
 20 13  2  0
 21 12  1  0
 21 22  1  0
 23 24  2  0
 24 43  1  0
 25 24  1  0
 25 28  1  0
 26 27  1  0
 26 23  1  0
 27 25  2  0
 28 29  1  0
 29 30  2  0
 31 34  1  0
 31 30  1  0
 32 31  2  0
 33 32  1  0
 33 28  2  0
 34 35  1  0
 35 36  1  0
 36 37  2  0
 38 37  1  0
 38 42  1  0
 39 38  2  0
 40 35  2  0
 40 39  1  0
 41 40  1  0
 43 44  1  0
 44 47  1  0
 44 46  1  0
 45 43  2  0
 48 49  1  0
 48 23  1  0
 50 48  1  0
 52 51  1  0
 53  4  1  0
 54 53  1  0
 55 54  1  0
 55 56  1  0
 56 58  1  0
 57 68  2  0
 58 63  1  0
 59 67  1  0
 59 69  1  0
 60 66  1  0
 60 62  1  0
 61 67  1  0
 62 61  1  0
 63 62  2  0
 64 65  1  0
 64 58  2  0
 65 60  2  0
 66 59  1  0
 67 57  1  0
 69 71  2  0
 70 69  1  0
 72 70  1  0
 73 82  2  0
 73 78  1  0
 74 70  1  0
 74 78  1  0
 75 74  1  0
 76 77  1  0
 76 75  1  0
 77 73  1  0
 78 79  2  0
 79 80  1  0
 81 80  2  0
 82 81  1  0
 83 57  1  0
 83 84  1  0
 83 93  1  0
 84 87  1  0
 85 89  1  0
 85 84  1  0
 86 85  2  0
 89 88  1  0
 91 89  1  0
 91 92  1  0
 91 90  1  0
 93 96  1  1
 93 94  1  0
 95 93  1  0
M  ISO  4  13 100  21 100  55 101  56 101
M  END
>  <TORSDO>  (69) 
F 23

>  <SCORE>  (69) 
-11.276

>  <name>  (69) 
69

>  <ligand_id>  (69) 
69

>  <original_smiles>  (69) 
[H]c1c([H])c([H])c2c(c1[H])C([H])([H])C([H])([H])C([H])([H])C2([H])N([H])C(=O)C1([H])N(C(=O)C([H])(N([H])C(=O)C([H])(N([H])C([H])([H])[H])C([H])([H])[H])C(C([H])([H])[H])(C([H])([H])[H])C([H])([H])[H])C([H])([H])c2c([H])c(OC([H])([H])C([H])([H])C([H])([H])c3c([H])c(C([H])(C([H])([H])[H])C([H])([H])N([H])C(=O)N4C([H])([H])C([H])([H])C([H])([H])C([H])(n5nc(-c6c([H])c([H])c(Oc7c([H])c([H])c(F)c([H])c7F)c([H])c6[H])c(C(=O)N([H])[H])c5N([H])[H])C4([H])[H])c([H])c(C([H])(C([H])([H])[H])C([H])([H])[H])c3C([H])([H])C([H])([H])[H])c([H])c([H])c2C1([H])[H]

>  <smiles>  (69) 
[H]c1c([H])c([H])c2c(c1[H])C([H])([H])C([H])([H])C([H])([H])C2([H])N([H])C(=O)C1([H])N(C(=O)C([H])(N([H])C(=O)C([H])(N([H])C([H])([H])[H])C([H])([H])[H])C(C([H])([H])[H])(C([H])([H])[H])C([H])([H])[H])C([H])([H])c2c([H])c(OC([H])([H])C([H])([H])C([H])([H])c3c([H])c(C([H])(C([H])([H])[H])C([H])([H])N([H])C(=O)N4C([H])([H])C([H])([H])C([H])([H])C([H])(n5nc(-c6c([H])c([H])c(Oc7c([H])c([H])c(F)c([H])c7F)c([H])c6[H])c(C(=O)N([H])[H])c5N([H])[H])C4([H])[H])c([H])c(C([H])(C([H])([H])[H])C([H])([H])[H])c3C([H])([H])C([H])([H])[H])c([H])c([H])c2C1([H])[H]

$$$$
70:0:0
     RDKit          3D

 92100  0  0  1  0  0  0  0  0999 V2000
  -28.8940  -19.7040   20.0990 C   0  0  0  0  0  3  0  0  0  0  0  0
  -27.0590  -21.0780   19.3760 C   0  0  0  0  0  3  0  0  0  0  0  0
  -28.1780  -20.9130   20.2210 C   0  0  0  0  0  0  0  0  0  0  0  0
  -28.4460  -18.7490   19.1670 C   0  0  0  0  0  0  0  0  0  0  0  0
  -26.6720  -20.1210   18.4930 N   0  0  0  0  0  0  0  0  0  0  0  0
  -27.3550  -18.9710   18.3880 N   0  0  0  0  0  0  0  0  0  0  0  0
  -30.4800  -17.7650   18.0580 C   0  0  0  0  0  1  0  0  0  0  0  0
  -29.2340  -17.4590   18.9230 C   0  0  0  0  0  3  0  0  0  0  0  0
  -29.5480  -16.6650   20.2270 C   0  0  0  0  0  2  0  0  0  0  0  0
  -31.1070  -14.7490   20.7860 C   0  0  0  0  0  0  0  0  0  0  0  0
  -30.9280  -12.4110   20.1300 C   0  0  0  0  0  2  0  0  0  0  0  0
  -30.1450  -12.3710   18.8010 C   0  0  0  0  0  2  0  0  0  0  0  0
  -28.6300  -12.2900   19.0760 C   0  0  0  0  0  2  0  0  0  0  0  0
  -28.1380  -13.3560   20.0920 C   0  0  0  0  0  3  0  0  0  0  0  0
  -29.0580  -13.4110   21.3340 C   0  0  0  0  0  2  0  0  0  0  0  0
  -30.4390  -13.5770   20.8720 N   0  0  0  0  0  0  0  0  0  0  0  0
  -32.3320  -14.8280   20.7570 O   0  0  0  0  0  0  0  0  0  0  0  0
  -30.5060  -15.5960   19.9450 N   0  0  0  0  0  0  0  0  0  0  0  0
  -31.1900  -15.9240   19.2780 H   0  0  0  0  0  0  0  0  0  0  0  0
  -25.7140  -14.0770   20.5700 C   0  0  0  0  0  0  0  0  0  0  0  0
  -24.5850  -13.3540   20.8480 C   0  0  0  0  0  0  0  0  0  0  0  0
  -24.9930  -11.9850   20.8840 C   0  0  0  0  0  0  0  0  0  0  0  0
  -26.7390  -13.1500   20.4520 N   0  0  0  0  0  0  0  0  0  0  0  0
  -26.3040  -11.8890   20.7050 N   0  0  0  0  0  0  0  0  0  0  0  0
  -24.2020  -10.7560   21.0200 C   0  0  0  0  0  0  0  0  0  0  0  0
  -24.5280   -9.7680   21.9750 C   0  0  0  0  0  3  0  0  0  0  0  0
  -23.7410   -8.6040   22.0980 C   0  0  0  0  0  3  0  0  0  0  0  0
  -22.6130   -8.4190   21.2640 C   0  0  0  0  0  0  0  0  0  0  0  0
  -22.3080   -9.3940   20.2950 C   0  0  0  0  0  3  0  0  0  0  0  0
  -23.0960  -10.5490   20.1710 C   0  0  0  0  0  3  0  0  0  0  0  0
  -21.8050   -7.3070   21.2950 O   0  0  0  0  0  0  0  0  0  0  0  0
  -21.6730   -6.5450   22.4280 C   0  0  0  0  0  0  0  0  0  0  0  0
  -21.1960   -7.0880   23.6400 C   0  0  0  0  0  3  0  0  0  0  0  0
  -21.0100   -6.2550   24.7610 C   0  0  0  0  0  3  0  0  0  0  0  0
  -21.2910   -4.8780   24.6700 C   0  0  0  0  0  0  0  0  0  0  0  0
  -21.7600   -4.3340   23.4620 C   0  0  0  0  0  3  0  0  0  0  0  0
  -21.9480   -5.1660   22.3430 C   0  0  0  0  0  0  0  0  0  0  0  0
  -22.3810   -4.6300   21.1760 F   0  0  0  0  0  0  0  0  0  0  0  0
  -21.1040   -4.0760   25.7440 F   0  0  0  0  0  0  0  0  0  0  0  0
  -23.1870  -13.8890   20.9750 C   0  0  0  0  0  0  0  0  0  0  0  0
  -22.3510  -13.2410   21.7800 N   0  0  0  0  0  0  0  0  0  0  0  0
  -22.8420  -14.9180   20.3940 O   0  0  0  0  0  0  0  0  0  0  0  0
  -22.6410  -12.4120   22.2740 H   0  0  0  0  0  0  0  0  0  0  0  0
  -21.4070  -13.5800   21.9020 H   0  0  0  0  0  0  0  0  0  0  0  0
  -25.9490  -15.4370   20.3840 N   0  0  0  0  0  0  0  0  0  0  0  0
  -25.2070  -16.1300   20.4050 H   0  0  0  0  0  0  0  0  0  0  0  0
  -26.8430  -15.8290   20.1240 H   0  0  0  0  0  0  0  0  0  0  0  0
  -28.6160  -21.9160   21.2840 C   0  0  0  0  0  2  0  0  0  0  0  0
  -27.8890  -23.2790   21.3810 C   0  0  0  0  0  2  0  0  0  0  0  0
  -28.3220  -24.3550   20.3560 C   0  0  0  0  0  2  0  0  0  0  0  0
  -28.4220  -25.7560   21.0080 C   0  0  0  0  0  2  0  0  0  0  0  0
  -28.4990  -26.8370   20.0690 O   0  0  0  0  0  0  0  0  0  0  0  0
  -24.6850  -31.8510   23.3640 C   0  0  0  0  0  0  0  0  0  0  0  0
  -27.3610  -27.6030   20.0660 C   0  0  0  0  0  0  0  0  0  0  0  0
  -23.5010  -30.5380   21.6360 C   0  0  0  0  0  3  0  0  0  0  0  0
  -24.9720  -29.0910   20.1370 C   0  0  0  0  0  0  0  0  0  0  0  0
  -26.0260  -30.9180   21.4830 C   0  0  0  0  0  2  0  0  0  0  0  0
  -26.1220  -29.5870   20.7650 C   0  0  0  0  0  0  0  0  0  0  0  0
  -27.3260  -28.8500   20.7270 C   0  0  0  0  0  3  0  0  0  0  0  0
  -26.2020  -27.1160   19.4330 C   0  0  0  0  0  3  0  0  0  0  0  0
  -25.0050  -27.8540   19.4690 C   0  0  0  0  0  3  0  0  0  0  0  0
  -23.7260  -29.9400   20.2210 C   0  0  0  0  0  2  0  0  0  0  0  0
  -24.7550  -31.1140   22.2210 N   0  0  0  0  0  0  0  0  0  0  0  0
  -23.5960  -32.0880   23.9060 O   0  0  0  0  0  0  0  0  0  0  0  0
  -22.8420  -29.4630   22.5290 C   0  0  0  0  0  0  0  0  0  0  0  0
  -21.5180  -29.2950   22.3830 N   0  0  0  0  0  0  0  0  0  0  0  0
  -23.5200  -28.7870   23.3080 O   0  0  0  0  0  0  0  0  0  0  0  0
  -21.0360  -29.9000   21.7320 H   0  0  0  0  0  0  0  0  0  0  0  0
  -18.1350  -28.0960   22.7970 C   0  0  0  0  0  0  0  0  0  0  0  0
  -20.6970  -28.3100   23.0860 C   0  0  0  0  0  3  0  0  0  0  0  0
  -20.7840  -26.9210   22.4120 C   0  0  0  0  0  2  0  0  0  0  0  0
  -19.6770  -26.6820   21.3780 C   0  0  0  0  0  2  0  0  0  0  0  0
  -18.2970  -26.7930   22.0310 C   0  0  0  0  0  2  0  0  0  0  0  0
  -19.2620  -28.8140   23.2780 C   0  0  0  0  0  0  0  0  0  0  0  0
  -19.0590  -30.0350   23.9550 C   0  0  0  0  0  3  0  0  0  0  0  0
  -17.7590  -30.5410   24.1520 C   0  0  0  0  0  3  0  0  0  0  0  0
  -16.6460  -29.8170   23.6890 C   0  0  0  0  0  3  0  0  0  0  0  0
  -16.8360  -28.5970   23.0180 C   0  0  0  0  0  3  0  0  0  0  0  0
  -25.9610  -32.4490   24.0340 C   0  0  0  0  0  3  0  0  0  0  0  0
  -25.6710  -33.8490   24.3690 N   0  0  0  0  0  0  0  0  0  0  0  0
  -26.0590  -34.9020   23.6360 C   0  0  0  0  0  0  0  0  0  0  0  0
  -26.7690  -34.7940   22.6330 O   0  0  0  0  0  0  0  0  0  0  0  0
  -25.0460  -34.0090   25.1440 H   0  0  0  0  0  0  0  0  0  0  0  0
  -24.3910  -36.7380   23.2240 C   0  0  0  0  0  1  0  0  0  0  0  0
  -25.5820  -36.2950   24.0890 C   0  0  0  0  0  3  0  0  0  0  0  0
  -27.6910  -37.1220   25.0360 C   0  0  0  0  0  1  0  0  0  0  0  0
  -26.6450  -37.3240   24.0380 N   0  0  0  0  0  0  0  0  0  0  0  0
  -26.2540  -38.2510   24.1740 H   0  0  0  0  0  0  0  0  0  0  0  0
  -26.4240  -31.6520   25.3130 C   0  0  1  0  0  0  0  0  0  0  0  0
  -25.2940  -31.4200   26.3440 C   0  0  0  0  0  1  0  0  0  0  0  0
  -26.9940  -30.2690   24.9170 C   0  0  0  0  0  1  0  0  0  0  0  0
  -27.5660  -32.4170   26.0230 C   0  0  0  0  0  1  0  0  0  0  0  0
  1  3  1  0
  2  3  2  0
  3 48  1  0
  4  1  2  0
  5  2  1  0
  6  5  2  0
  6  4  1  0
  8  7  1  0
  8  4  1  0
  8  9  1  0
 10 16  1  0
 11 16  1  0
 12 13  1  0
 12 11  1  0
 14 13  1  0
 14 23  1  0
 14 15  1  0
 16 15  1  0
 17 10  2  0
 18  9  1  0
 18 10  1  0
 19 18  1  0
 20 21  2  0
 21 22  1  0
 21 40  1  0
 22 25  1  0
 23 20  1  0
 23 24  1  0
 24 22  2  0
 25 26  1  0
 26 27  2  0
 28 31  1  0
 28 27  1  0
 29 28  2  0
 30 29  1  0
 30 25  2  0
 31 32  1  0
 32 33  1  0
 33 34  2  0
 35 34  1  0
 35 39  1  0
 36 35  2  0
 37 32  2  0
 37 36  1  0
 38 37  1  0
 40 41  1  0
 41 44  1  0
 41 43  1  0
 42 40  2  0
 45 46  1  0
 45 20  1  0
 47 45  1  0
 48 49  1  0
 50 51  1  0
 50 49  1  0
 52 51  1  0
 53 64  2  0
 54 52  1  0
 54 59  1  0
 55 63  1  0
 55 65  1  0
 56 62  1  0
 56 58  1  0
 57 63  1  0
 58 57  1  0
 59 58  2  0
 60 61  1  0
 60 54  2  0
 61 56  2  0
 62 55  1  0
 63 53  1  0
 65 67  2  0
 66 65  1  0
 68 66  1  0
 69 78  2  0
 69 74  1  0
 70 66  1  0
 70 74  1  0
 71 70  1  0
 72 73  1  0
 72 71  1  0
 73 69  1  0
 74 75  2  0
 75 76  1  0
 77 76  2  0
 78 77  1  0
 79 53  1  0
 79 80  1  0
 79 89  1  0
 80 83  1  0
 81 85  1  0
 81 80  1  0
 82 81  2  0
 85 84  1  0
 87 85  1  0
 87 88  1  0
 87 86  1  0
 89 92  1  1
 89 90  1  0
 91 89  1  0
M  ISO  4  10 100  18 100  51 101  52 101
M  END
>  <TORSDO>  (70) 
F 22

>  <SCORE>  (70) 
-12.590

>  <name>  (70) 
70

>  <ligand_id>  (70) 
70

>  <original_smiles>  (70) 
[H]c1nnc(C([H])(C([H])([H])[H])C([H])([H])N([H])C(=O)N2C([H])([H])C([H])([H])C([H])([H])C([H])(n3nc(-c4c([H])c([H])c(Oc5c([H])c([H])c(F)c([H])c5F)c([H])c4[H])c(C(=O)N([H])[H])c3N([H])[H])C2([H])[H])c([H])c1C([H])([H])C([H])([H])C([H])([H])C([H])([H])Oc1c([H])c([H])c2c(c1[H])C([H])([H])N(C(=O)C([H])(N([H])C(=O)C([H])(N([H])C([H])([H])[H])C([H])([H])[H])C(C([H])([H])[H])(C([H])([H])[H])C([H])([H])[H])C([H])(C(=O)N([H])C1([H])c3c([H])c([H])c([H])c([H])c3C([H])([H])C([H])([H])C1([H])[H])C2([H])[H]

>  <smiles>  (70) 
[H]c1nnc(C([H])(C([H])([H])[H])C([H])([H])N([H])C(=O)N2C([H])([H])C([H])([H])C([H])([H])C([H])(n3nc(-c4c([H])c([H])c(Oc5c([H])c([H])c(F)c([H])c5F)c([H])c4[H])c(C(=O)N([H])[H])c3N([H])[H])C2([H])[H])c([H])c1C([H])([H])C([H])([H])C([H])([H])C([H])([H])Oc1c([H])c([H])c2c(c1[H])C([H])([H])N(C(=O)C([H])(N([H])C(=O)C([H])(N([H])C([H])([H])[H])C([H])([H])[H])C(C([H])([H])[H])(C([H])([H])[H])C([H])([H])[H])C([H])(C(=O)N([H])C1([H])c3c([H])c([H])c([H])c([H])c3C([H])([H])C([H])([H])C1([H])[H])C2([H])[H]

$$$$
71:0:0
     RDKit          3D

 88 95  0  0  1  0  0  0  0  0999 V2000
  -29.2910  -21.1870   20.3960 C   0  0  0  0  0  2  0  0  0  0  0  0
  -28.9560  -22.8280   19.7560 C   0  0  0  0  0  2  0  0  0  0  0  0
  -28.2010  -24.3020   20.4160 C   0  0  0  0  0  2  0  0  0  0  0  0
  -28.3600  -25.9110   20.1860 O   0  0  0  0  0  0  0  0  0  0  0  0
  -24.6200  -31.7450   23.1520 C   0  0  0  0  0  0  0  0  0  0  0  0
  -27.3030  -26.9470   20.1820 C   0  0  0  0  0  0  0  0  0  0  0  0
  -23.4790  -30.3490   21.4740 C   0  0  0  0  0  3  0  0  0  0  0  0
  -24.9770  -28.7670   20.0870 C   0  0  0  0  0  0  0  0  0  0  0  0
  -26.0430  -30.6000   21.3870 C   0  0  0  0  0  2  0  0  0  0  0  0
  -26.1450  -29.1970   20.7320 C   0  0  0  0  0  0  0  0  0  0  0  0
  -27.3080  -28.3090   20.7490 C   0  0  0  0  0  3  0  0  0  0  0  0
  -26.1030  -26.6530   19.5010 C   0  0  0  0  0  3  0  0  0  0  0  0
  -24.9780  -27.5140   19.4540 C   0  0  0  0  0  3  0  0  0  0  0  0
  -23.7490  -29.6730   20.1020 C   0  0  0  0  0  2  0  0  0  0  0  0
  -24.7340  -30.9240   22.0590 N   0  0  0  0  0  0  0  0  0  0  0  0
  -23.5160  -32.0190   23.6490 O   0  0  0  0  0  0  0  0  0  0  0  0
  -22.7750  -29.3380   22.4160 C   0  0  0  0  0  0  0  0  0  0  0  0
  -21.4450  -29.1800   22.2720 N   0  0  0  0  0  0  0  0  0  0  0  0
  -23.4290  -28.6980   23.2430 O   0  0  0  0  0  0  0  0  0  0  0  0
  -20.9720  -29.7480   21.5840 H   0  0  0  0  0  0  0  0  0  0  0  0
  -18.0510  -27.9910   22.7350 C   0  0  0  0  0  0  0  0  0  0  0  0
  -20.6110  -28.2320   23.0180 C   0  0  0  0  0  3  0  0  0  0  0  0
  -20.7050  -26.8120   22.4130 C   0  0  0  0  0  2  0  0  0  0  0  0
  -19.6060  -26.5190   21.3870 C   0  0  0  0  0  2  0  0  0  0  0  0
  -18.2210  -26.6580   22.0270 C   0  0  0  0  0  2  0  0  0  0  0  0
  -19.1730  -28.7390   23.1850 C   0  0  0  0  0  0  0  0  0  0  0  0
  -18.9560  -29.9860   23.8090 C   0  0  0  0  0  3  0  0  0  0  0  0
  -17.6520  -30.4880   23.9840 C   0  0  0  0  0  3  0  0  0  0  0  0
  -16.5450  -29.7390   23.5470 C   0  0  0  0  0  3  0  0  0  0  0  0
  -16.7470  -28.4920   22.9280 C   0  0  0  0  0  3  0  0  0  0  0  0
  -25.8700  -32.3930   23.8200 C   0  0  0  0  0  3  0  0  0  0  0  0
  -25.5340  -33.7900   24.1460 N   0  0  0  0  0  0  0  0  0  0  0  0
  -25.8830  -34.8550   23.4120 C   0  0  0  0  0  0  0  0  0  0  0  0
  -26.5840  -34.7650   22.4000 O   0  0  0  0  0  0  0  0  0  0  0  0
  -24.9160  -33.9330   24.9310 H   0  0  0  0  0  0  0  0  0  0  0  0
  -24.1460  -36.6400   23.0440 C   0  0  0  0  0  1  0  0  0  0  0  0
  -25.3780  -36.2390   23.8710 C   0  0  0  0  0  3  0  0  0  0  0  0
  -27.4910  -37.1420   24.7400 C   0  0  0  0  0  1  0  0  0  0  0  0
  -26.4020  -37.3020   23.7780 N   0  0  0  0  0  0  0  0  0  0  0  0
  -25.9850  -38.2180   23.9220 H   0  0  0  0  0  0  0  0  0  0  0  0
  -26.3440  -31.6300   25.1190 C   0  0  1  0  0  0  0  0  0  0  0  0
  -25.2130  -31.3890   26.1470 C   0  0  0  0  0  1  0  0  0  0  0  0
  -26.9500  -30.2550   24.7590 C   0  0  0  0  0  1  0  0  0  0  0  0
  -27.4630  -32.4350   25.8190 C   0  0  0  0  0  1  0  0  0  0  0  0
  -29.5110  -19.5620   19.6720 C   0  0  0  0  0  3  0  0  0  0  0  0
  -27.2740  -18.3840   20.0250 C   0  0  0  0  0  1  0  0  0  0  0  0
  -28.3940  -18.2390   17.7660 C   0  0  0  0  0  1  0  0  0  0  0  0
  -27.3450  -20.3420   18.4770 C   0  0  0  0  0  1  0  0  0  0  0  0
  -28.1530  -19.1330   19.0040 C   0  0  2  0  0  0  0  0  0  0  0  0
  -30.3100  -18.1090   20.3620 C   0  0  0  0  0  2  0  0  0  0  0  0
  -30.7460  -15.2170   20.1770 C   0  0  0  0  0  0  0  0  0  0  0  0
  -30.6350  -12.7900   19.2960 C   0  0  0  0  0  2  0  0  0  0  0  0
  -29.7070  -12.6380   18.0660 C   0  0  0  0  0  2  0  0  0  0  0  0
  -28.2470  -12.4260   18.5070 C   0  0  0  0  0  2  0  0  0  0  0  0
  -27.8320  -13.3990   19.6400 C   0  0  0  0  0  3  0  0  0  0  0  0
  -28.8880  -13.4960   20.7610 C   0  0  0  0  0  2  0  0  0  0  0  0
  -30.1360  -13.9400   20.1260 N   0  0  0  0  0  0  0  0  0  0  0  0
  -31.9680  -15.1980   19.9720 O   0  0  0  0  0  0  0  0  0  0  0  0
  -30.0040  -16.4820   20.2620 N   0  0  0  0  0  0  0  0  0  0  0  0
  -29.0160  -16.2920   20.3390 H   0  0  0  0  0  0  0  0  0  0  0  0
  -25.4720  -14.0180   20.3840 C   0  0  0  0  0  0  0  0  0  0  0  0
  -24.3930  -13.2690   20.7580 C   0  0  0  0  0  0  0  0  0  0  0  0
  -24.8310  -11.9100   20.7460 C   0  0  0  0  0  0  0  0  0  0  0  0
  -26.4970  -13.1190   20.1520 N   0  0  0  0  0  0  0  0  0  0  0  0
  -26.1240  -11.8450   20.4400 N   0  0  0  0  0  0  0  0  0  0  0  0
  -24.0790  -10.6660   20.9490 C   0  0  0  0  0  0  0  0  0  0  0  0
  -24.4860   -9.7000   21.8960 C   0  0  0  0  0  3  0  0  0  0  0  0
  -23.7300   -8.5240   22.0880 C   0  0  0  0  0  3  0  0  0  0  0  0
  -22.5530   -8.3060   21.3340 C   0  0  0  0  0  0  0  0  0  0  0  0
  -22.1650   -9.2590   20.3760 C   0  0  0  0  0  3  0  0  0  0  0  0
  -22.9200  -10.4270   20.1820 C   0  0  0  0  0  3  0  0  0  0  0  0
  -21.7710   -7.1810   21.4340 O   0  0  0  0  0  0  0  0  0  0  0  0
  -21.7020   -6.4530   22.5940 C   0  0  0  0  0  0  0  0  0  0  0  0
  -21.2890   -7.0330   23.8150 C   0  0  0  0  0  3  0  0  0  0  0  0
  -21.1660   -6.2330   24.9680 C   0  0  0  0  0  3  0  0  0  0  0  0
  -21.4470   -4.8540   24.9040 C   0  0  0  0  0  0  0  0  0  0  0  0
  -21.8530   -4.2750   23.6890 C   0  0  0  0  0  3  0  0  0  0  0  0
  -21.9770   -5.0710   22.5380 C   0  0  0  0  0  0  0  0  0  0  0  0
  -22.3470   -4.5040   21.3640 F   0  0  0  0  0  0  0  0  0  0  0  0
  -21.3220   -4.0850   26.0090 F   0  0  0  0  0  0  0  0  0  0  0  0
  -23.0050  -13.7800   21.0110 C   0  0  0  0  0  0  0  0  0  0  0  0
  -22.2650  -13.1280   21.9000 N   0  0  0  0  0  0  0  0  0  0  0  0
  -22.5870  -14.7950   20.4550 O   0  0  0  0  0  0  0  0  0  0  0  0
  -22.6140  -12.3070   22.3710 H   0  0  0  0  0  0  0  0  0  0  0  0
  -21.3340  -13.4550   22.1120 H   0  0  0  0  0  0  0  0  0  0  0  0
  -25.6580  -15.3830   20.1890 N   0  0  0  0  0  0  0  0  0  0  0  0
  -24.8960  -16.0440   20.3000 H   0  0  0  0  0  0  0  0  0  0  0  0
  -26.4990  -15.8060   19.8230 H   0  0  0  0  0  0  0  0  0  0  0  0
  2  1  1  0
  2  3  1  0
  4  3  1  0
  5 16  2  0
  6  4  1  0
  6 11  1  0
  7 15  1  0
  7 17  1  0
  8 14  1  0
  8 10  1  0
  9 15  1  0
 10 11  2  0
 10  9  1  0
 12  6  2  0
 13 12  1  0
 13  8  2  0
 14  7  1  0
 15  5  1  0
 17 19  2  0
 18 17  1  0
 20 18  1  0
 21 30  2  0
 21 26  1  0
 22 18  1  0
 22 26  1  0
 23 22  1  0
 24 25  1  0
 24 23  1  0
 25 21  1  0
 26 27  2  0
 27 28  1  0
 29 28  2  0
 30 29  1  0
 31  5  1  0
 31 32  1  0
 31 41  1  0
 32 35  1  0
 33 37  1  0
 33 32  1  0
 34 33  2  0
 37 36  1  0
 39 37  1  0
 39 40  1  0
 39 38  1  0
 41 44  1  1
 41 42  1  0
 43 41  1  0
 45 50  1  0
 45  1  1  0
 49 47  1  6
 48 49  1  0
 49 45  1  0
 49 46  1  0
 51 59  1  0
 52 57  1  0
 53 54  1  0
 53 52  1  0
 55 54  1  0
 55 64  1  0
 55 56  1  0
 57 51  1  0
 57 56  1  0
 58 51  2  0
 59 60  1  0
 59 50  1  0
 61 62  2  0
 62 81  1  0
 63 62  1  0
 63 66  1  0
 64 61  1  0
 64 65  1  0
 65 63  2  0
 66 67  1  0
 67 68  2  0
 69 72  1  0
 69 68  1  0
 70 69  2  0
 71 70  1  0
 71 66  2  0
 72 73  1  0
 73 74  1  0
 74 75  2  0
 76 75  1  0
 76 80  1  0
 77 76  2  0
 78 73  2  0
 78 77  1  0
 79 78  1  0
 81 82  1  0
 82 85  1  0
 82 84  1  0
 83 81  2  0
 86 87  1  0
 86 61  1  0
 88 86  1  0
M  ISO  4   3 101   4 101  51 100  59 100
M  END
>  <TORSDO>  (71) 
F 21

>  <SCORE>  (71) 
-15.691

>  <name>  (71) 
71

>  <ligand_id>  (71) 
71

>  <original_smiles>  (71) 
[H]c1c([H])c([H])c2c(c1[H])C([H])([H])C([H])([H])C([H])([H])C2([H])N([H])C(=O)C1([H])N(C(=O)C([H])(N([H])C(=O)C([H])(N([H])C([H])([H])[H])C([H])([H])[H])C(C([H])([H])[H])(C([H])([H])[H])C([H])([H])[H])C([H])([H])c2c([H])c(OC([H])([H])C([H])([H])C([H])([H])C([H])(C([H])([H])N([H])C(=O)N3C([H])([H])C([H])([H])C([H])([H])C([H])(n4nc(-c5c([H])c([H])c(Oc6c([H])c([H])c(F)c([H])c6F)c([H])c5[H])c(C(=O)N([H])[H])c4N([H])[H])C3([H])[H])C(C([H])([H])[H])(C([H])([H])[H])C([H])([H])[H])c([H])c([H])c2C1([H])[H]

>  <smiles>  (71) 
[H]c1c([H])c([H])c2c(c1[H])C([H])([H])C([H])([H])C([H])([H])C2([H])N([H])C(=O)C1([H])N(C(=O)C([H])(N([H])C(=O)C([H])(N([H])C([H])([H])[H])C([H])([H])[H])C(C([H])([H])[H])(C([H])([H])[H])C([H])([H])[H])C([H])([H])c2c([H])c(OC([H])([H])C([H])([H])C([H])([H])C([H])(C([H])([H])N([H])C(=O)N3C([H])([H])C([H])([H])C([H])([H])C([H])(n4nc(-c5c([H])c([H])c(Oc6c([H])c([H])c(F)c([H])c6F)c([H])c5[H])c(C(=O)N([H])[H])c4N([H])[H])C3([H])[H])C(C([H])([H])[H])(C([H])([H])[H])C([H])([H])[H])c([H])c([H])c2C1([H])[H]

$$$$
72:0:0
     RDKit          3D

 94102  0  0  1  0  0  0  0  0999 V2000
  -31.0460  -20.1380   19.6320 C   0  0  0  0  0  3  0  0  0  0  0  0
  -30.8670  -21.1960   18.7250 C   0  0  0  0  0  0  0  0  0  0  0  0
  -30.8920  -18.8320   19.1320 C   0  0  0  0  0  0  0  0  0  0  0  0
  -30.4050  -19.6920   17.0630 C   0  0  0  0  0  0  0  0  0  0  0  0
  -30.0070  -19.4620   15.6200 C   0  0  0  0  0  1  0  0  0  0  0  0
  -30.5620  -20.9510   17.4380 N   0  0  0  0  0  0  0  0  0  0  0  0
  -30.5680  -18.6250   17.8380 N   0  0  0  0  0  0  0  0  0  0  0  0
  -31.1020  -22.6560   19.1170 C   0  0  0  0  0  2  0  0  0  0  0  0
  -30.2760  -24.2200   17.2820 C   0  0  0  0  0  1  0  0  0  0  0  0
  -29.9780  -23.6370   18.6860 C   0  0  0  0  0  3  0  0  0  0  0  0
  -29.7720  -24.7730   19.7230 C   0  0  0  0  0  2  0  0  0  0  0  0
  -28.4340  -25.5020   19.5430 C   0  0  0  0  0  2  0  0  0  0  0  0
  -28.3970  -26.7330   20.2610 O   0  0  0  0  0  0  0  0  0  0  0  0
  -24.5780  -31.9230   23.2570 C   0  0  0  0  0  0  0  0  0  0  0  0
  -27.2100  -27.4420   20.2330 C   0  0  0  0  0  0  0  0  0  0  0  0
  -23.3710  -30.5190   21.6170 C   0  0  0  0  0  3  0  0  0  0  0  0
  -24.8210  -28.9590   20.2200 C   0  0  0  0  0  0  0  0  0  0  0  0
  -25.8990  -30.8550   21.4370 C   0  0  0  0  0  2  0  0  0  0  0  0
  -25.9760  -29.4760   20.8190 C   0  0  0  0  0  0  0  0  0  0  0  0
  -27.1690  -28.7190   20.8350 C   0  0  0  0  0  3  0  0  0  0  0  0
  -26.0320  -26.9440   19.6230 C   0  0  0  0  0  3  0  0  0  0  0  0
  -24.8410  -27.6900   19.6240 C   0  0  0  0  0  3  0  0  0  0  0  0
  -23.5830  -29.8240   20.2470 C   0  0  0  0  0  2  0  0  0  0  0  0
  -24.6330  -31.1150   22.1620 N   0  0  0  0  0  0  0  0  0  0  0  0
  -23.4950  -32.2100   23.7870 O   0  0  0  0  0  0  0  0  0  0  0  0
  -22.7070  -29.5090   22.5810 C   0  0  0  0  0  0  0  0  0  0  0  0
  -21.3840  -29.3280   22.4380 N   0  0  0  0  0  0  0  0  0  0  0  0
  -23.3780  -28.8920   23.4120 O   0  0  0  0  0  0  0  0  0  0  0  0
  -20.9020  -29.8830   21.7450 H   0  0  0  0  0  0  0  0  0  0  0  0
  -18.0040  -28.1400   22.8930 C   0  0  0  0  0  0  0  0  0  0  0  0
  -20.5560  -28.4010   23.2090 C   0  0  0  0  0  3  0  0  0  0  0  0
  -20.6680  -26.9600   22.6590 C   0  0  0  0  0  2  0  0  0  0  0  0
  -19.5850  -26.6210   21.6290 C   0  0  0  0  0  2  0  0  0  0  0  0
  -18.1920  -26.7780   22.2450 C   0  0  0  0  0  2  0  0  0  0  0  0
  -19.1150  -28.9070   23.3320 C   0  0  0  0  0  0  0  0  0  0  0  0
  -18.8880  -30.1810   23.8970 C   0  0  0  0  0  3  0  0  0  0  0  0
  -17.5810  -30.6890   24.0270 C   0  0  0  0  0  3  0  0  0  0  0  0
  -16.4840  -29.9180   23.6060 C   0  0  0  0  0  3  0  0  0  0  0  0
  -16.6970  -28.6460   23.0450 C   0  0  0  0  0  3  0  0  0  0  0  0
  -25.8660  -32.5490   23.8790 C   0  0  0  0  0  3  0  0  0  0  0  0
  -25.5670  -33.9500   24.1960 N   0  0  0  0  0  0  0  0  0  0  0  0
  -25.9110  -34.9940   23.4290 C   0  0  0  0  0  0  0  0  0  0  0  0
  -26.5880  -34.8780   22.4040 O   0  0  0  0  0  0  0  0  0  0  0  0
  -24.9660  -34.1160   24.9890 H   0  0  0  0  0  0  0  0  0  0  0  0
  -24.2000  -36.7950   23.0460 C   0  0  0  0  0  1  0  0  0  0  0  0
  -25.4300  -36.3870   23.8720 C   0  0  0  0  0  3  0  0  0  0  0  0
  -27.5640  -37.2630   24.7160 C   0  0  0  0  0  1  0  0  0  0  0  0
  -26.4710  -37.4330   23.7620 N   0  0  0  0  0  0  0  0  0  0  0  0
  -26.0700  -38.3560   23.9020 H   0  0  0  0  0  0  0  0  0  0  0  0
  -26.3760  -31.7790   25.1580 C   0  0  1  0  0  0  0  0  0  0  0  0
  -25.2790  -31.5540   26.2250 C   0  0  0  0  0  1  0  0  0  0  0  0
  -26.9530  -30.3970   24.7730 C   0  0  0  0  0  1  0  0  0  0  0  0
  -27.5280  -32.5720   25.8230 C   0  0  0  0  0  1  0  0  0  0  0  0
  -31.1460  -17.5890   19.9830 C   0  0  0  0  0  2  0  0  0  0  0  0
  -28.8760  -17.4810   21.1690 C   0  0  0  0  0  1  0  0  0  0  0  0
  -29.8620  -16.7400   20.2440 C   0  0  0  0  0  3  0  0  0  0  0  0
  -30.7310  -14.3700   20.1770 C   0  0  0  0  0  0  0  0  0  0  0  0
  -30.3610  -12.2320   19.0260 C   0  0  0  0  0  2  0  0  0  0  0  0
  -29.3950  -12.5030   17.8540 C   0  0  0  0  0  2  0  0  0  0  0  0
  -27.9300  -12.3800   18.3230 C   0  0  0  0  0  2  0  0  0  0  0  0
  -27.6480  -13.2010   19.6100 C   0  0  0  0  0  3  0  0  0  0  0  0
  -28.7300  -12.9220   20.6830 C   0  0  0  0  0  2  0  0  0  0  0  0
  -30.0530  -13.1960   20.0910 N   0  0  0  0  0  0  0  0  0  0  0  0
  -31.8140  -14.5610   19.6200 O   0  0  0  0  0  0  0  0  0  0  0  0
  -30.0430  -15.3660   20.7570 N   0  0  0  0  0  0  0  0  0  0  0  0
  -29.2580  -15.0310   21.2980 H   0  0  0  0  0  0  0  0  0  0  0  0
  -25.2790  -13.8440   20.3890 C   0  0  0  0  0  0  0  0  0  0  0  0
  -24.2090  -13.0900   20.7850 C   0  0  0  0  0  0  0  0  0  0  0  0
  -24.6490  -11.7320   20.7430 C   0  0  0  0  0  0  0  0  0  0  0  0
  -26.3030  -12.9480   20.1240 N   0  0  0  0  0  0  0  0  0  0  0  0
  -25.9290  -11.6710   20.3940 N   0  0  0  0  0  0  0  0  0  0  0  0
  -23.9130  -10.4810   20.9600 C   0  0  0  0  0  0  0  0  0  0  0  0
  -24.3640   -9.5110   21.8810 C   0  0  0  0  0  3  0  0  0  0  0  0
  -23.6320   -8.3220   22.0860 C   0  0  0  0  0  3  0  0  0  0  0  0
  -22.4340   -8.0920   21.3670 C   0  0  0  0  0  0  0  0  0  0  0  0
  -21.9980   -9.0530   20.4370 C   0  0  0  0  0  3  0  0  0  0  0  0
  -22.7310  -10.2350   20.2330 C   0  0  0  0  0  3  0  0  0  0  0  0
  -21.6700   -6.9560   21.4820 O   0  0  0  0  0  0  0  0  0  0  0  0
  -21.6530   -6.2120   22.6340 C   0  0  0  0  0  0  0  0  0  0  0  0
  -21.2750   -6.7700   23.8740 C   0  0  0  0  0  3  0  0  0  0  0  0
  -21.2050   -5.9540   25.0210 C   0  0  0  0  0  3  0  0  0  0  0  0
  -21.5000   -4.5800   24.9280 C   0  0  0  0  0  0  0  0  0  0  0  0
  -21.8690   -4.0220   23.6930 C   0  0  0  0  0  3  0  0  0  0  0  0
  -21.9430   -4.8360   22.5480 C   0  0  0  0  0  0  0  0  0  0  0  0
  -22.2780   -4.2890   21.3550 F   0  0  0  0  0  0  0  0  0  0  0  0
  -21.4250   -3.7940   26.0280 F   0  0  0  0  0  0  0  0  0  0  0  0
  -22.8280  -13.5890   21.0990 C   0  0  0  0  0  0  0  0  0  0  0  0
  -22.1170  -12.9060   21.9890 N   0  0  0  0  0  0  0  0  0  0  0  0
  -22.3910  -14.6190   20.5900 O   0  0  0  0  0  0  0  0  0  0  0  0
  -22.4830  -12.0700   22.4230 H   0  0  0  0  0  0  0  0  0  0  0  0
  -21.1930  -13.2260   22.2370 H   0  0  0  0  0  0  0  0  0  0  0  0
  -25.4700  -15.2110   20.2150 N   0  0  0  0  0  0  0  0  0  0  0  0
  -24.7390  -15.8910   20.3890 H   0  0  0  0  0  0  0  0  0  0  0  0
  -26.3340  -15.6270   19.8900 H   0  0  0  0  0  0  0  0  0  0  0  0
  2  8  1  0
  2  1  2  0
  3  1  1  0
  3 54  1  0
  4  6  2  0
  4  7  1  0
  5  4  1  0
  6  2  1  0
  7  3  2  0
 10  9  1  0
 10  8  1  0
 10 11  1  0
 12 11  1  0
 12 13  1  0
 14 25  2  0
 15 13  1  0
 15 20  1  0
 16 24  1  0
 16 26  1  0
 17 23  1  0
 17 19  1  0
 18 24  1  0
 19 20  2  0
 19 18  1  0
 21 22  1  0
 21 15  2  0
 22 17  2  0
 23 16  1  0
 24 14  1  0
 26 28  2  0
 27 26  1  0
 29 27  1  0
 30 39  2  0
 30 35  1  0
 31 27  1  0
 31 35  1  0
 32 31  1  0
 33 34  1  0
 33 32  1  0
 34 30  1  0
 35 36  2  0
 36 37  1  0
 38 37  2  0
 39 38  1  0
 40 14  1  0
 40 41  1  0
 40 50  1  0
 41 44  1  0
 42 46  1  0
 42 41  1  0
 43 42  2  0
 46 45  1  0
 48 46  1  0
 48 49  1  0
 48 47  1  0
 50 53  1  1
 50 51  1  0
 52 50  1  0
 54 56  1  0
 56 65  1  0
 56 55  1  0
 57 65  1  0
 58 63  1  0
 59 60  1  0
 59 58  1  0
 61 60  1  0
 61 70  1  0
 61 62  1  0
 63 57  1  0
 63 62  1  0
 64 57  2  0
 65 66  1  0
 67 68  2  0
 68 87  1  0
 69 68  1  0
 69 72  1  0
 70 67  1  0
 70 71  1  0
 71 69  2  0
 72 73  1  0
 73 74  2  0
 75 78  1  0
 75 74  1  0
 76 75  2  0
 77 76  1  0
 77 72  2  0
 78 79  1  0
 79 80  1  0
 80 81  2  0
 82 81  1  0
 82 86  1  0
 83 82  2  0
 84 79  2  0
 84 83  1  0
 85 84  1  0
 87 88  1  0
 88 91  1  0
 88 90  1  0
 89 87  2  0
 92 67  1  0
 92 93  1  0
 94 92  1  0
M  ISO  4  12 101  13 101  57 100  65 100
M  END
>  <TORSDO>  (72) 
F 22

>  <SCORE>  (72) 
-12.882

>  <name>  (72) 
72

>  <ligand_id>  (72) 
72

>  <original_smiles>  (72) 
[H]c1c(C([H])([H])C([H])(N([H])C(=O)N2C([H])([H])C([H])([H])C([H])([H])C([H])(n3nc(-c4c([H])c([H])c(Oc5c([H])c([H])c(F)c([H])c5F)c([H])c4[H])c(C(=O)N([H])[H])c3N([H])[H])C2([H])[H])C([H])([H])[H])nc(C([H])([H])[H])nc1C([H])([H])C([H])(C([H])([H])[H])C([H])([H])C([H])([H])Oc1c([H])c([H])c2c(c1[H])C([H])([H])N(C(=O)C([H])(N([H])C(=O)C([H])(N([H])C([H])([H])[H])C([H])([H])[H])C(C([H])([H])[H])(C([H])([H])[H])C([H])([H])[H])C([H])(C(=O)N([H])C1([H])c3c([H])c([H])c([H])c([H])c3C([H])([H])C([H])([H])C1([H])[H])C2([H])[H]

>  <smiles>  (72) 
[H]c1c(C([H])([H])C([H])(N([H])C(=O)N2C([H])([H])C([H])([H])C([H])([H])C([H])(n3nc(-c4c([H])c([H])c(Oc5c([H])c([H])c(F)c([H])c5F)c([H])c4[H])c(C(=O)N([H])[H])c3N([H])[H])C2([H])[H])C([H])([H])[H])nc(C([H])([H])[H])nc1C([H])([H])C([H])(C([H])([H])[H])C([H])([H])C([H])([H])Oc1c([H])c([H])c2c(c1[H])C([H])([H])N(C(=O)C([H])(N([H])C(=O)C([H])(N([H])C([H])([H])[H])C([H])([H])[H])C(C([H])([H])[H])(C([H])([H])[H])C([H])([H])[H])C([H])(C(=O)N([H])C1([H])c3c([H])c([H])c([H])c([H])c3C([H])([H])C([H])([H])C1([H])[H])C2([H])[H]

$$$$
73:0:0
     RDKit          3D

 98106  0  0  1  0  0  0  0  0999 V2000
  -29.7770  -22.7020   21.0520 C   0  0  0  0  0  3  0  0  0  0  0  0
  -29.3670  -22.0860   19.8510 C   0  0  0  0  0  0  0  0  0  0  0  0
  -30.2430  -21.9600   22.1510 C   0  0  0  0  0  0  0  0  0  0  0  0
  -29.4920  -20.6550   19.8070 C   0  0  0  0  0  0  0  0  0  0  0  0
  -30.3780  -20.5550   22.0070 C   0  0  0  0  0  0  0  0  0  0  0  0
  -29.9990  -19.9640   20.8510 N   0  0  0  0  0  0  0  0  0  0  0  0
  -30.0030  -19.3480   24.2610 C   0  0  0  0  0  1  0  0  0  0  0  0
  -32.3410  -20.1140   23.5650 C   0  0  0  0  0  1  0  0  0  0  0  0
  -31.2460  -18.1820   22.5020 C   0  0  0  0  0  1  0  0  0  0  0  0
  -30.9710  -19.5950   23.0800 C   0  0  2  0  0  0  0  0  0  0  0  0
  -28.7550  -22.9860   18.7310 C   0  0  0  0  0  3  0  0  0  0  0  0
  -28.8290  -24.5600   18.9440 C   0  0  0  0  0  3  0  0  0  0  0  0
  -27.9130  -25.4680   18.0630 C   0  0  0  0  0  2  0  0  0  0  0  0
  -27.9480  -26.8890   18.4220 O   0  0  0  0  0  0  0  0  0  0  0  0
  -24.3830  -31.2670   22.8400 C   0  0  0  0  0  0  0  0  0  0  0  0
  -26.7590  -27.5750   18.6690 C   0  0  0  0  0  0  0  0  0  0  0  0
  -23.0230  -30.0690   21.1610 C   0  0  0  0  0  3  0  0  0  0  0  0
  -24.3230  -28.9150   19.2930 C   0  0  0  0  0  0  0  0  0  0  0  0
  -25.4740  -30.6380   20.6830 C   0  0  0  0  0  2  0  0  0  0  0  0
  -25.5330  -29.4040   19.7980 C   0  0  0  0  0  0  0  0  0  0  0  0
  -26.7510  -28.7430   19.4850 C   0  0  0  0  0  3  0  0  0  0  0  0
  -25.5210  -27.1460   18.1340 C   0  0  0  0  0  3  0  0  0  0  0  0
  -24.3130  -27.7880   18.4580 C   0  0  0  0  0  3  0  0  0  0  0  0
  -23.0580  -29.6550   19.6660 C   0  0  0  0  0  2  0  0  0  0  0  0
  -24.3190  -30.6660   21.6180 N   0  0  0  0  0  0  0  0  0  0  0  0
  -23.3810  -31.3580   23.5650 O   0  0  0  0  0  0  0  0  0  0  0  0
  -22.5790  -28.8510   22.0060 C   0  0  0  0  0  0  0  0  0  0  0  0
  -21.2910  -28.4830   21.9050 N   0  0  0  0  0  0  0  0  0  0  0  0
  -23.3910  -28.2450   22.7100 O   0  0  0  0  0  0  0  0  0  0  0  0
  -20.6850  -29.0400   21.3190 H   0  0  0  0  0  0  0  0  0  0  0  0
  -18.2030  -26.6330   22.2470 C   0  0  0  0  0  0  0  0  0  0  0  0
  -20.6670  -27.3430   22.5770 C   0  0  0  0  0  3  0  0  0  0  0  0
  -21.0350  -26.0110   21.8820 C   0  0  0  0  0  2  0  0  0  0  0  0
  -20.0140  -25.5780   20.8260 C   0  0  0  0  0  2  0  0  0  0  0  0
  -18.6300  -25.4040   21.4570 C   0  0  0  0  0  2  0  0  0  0  0  0
  -19.1590  -27.5510   22.7570 C   0  0  0  0  0  0  0  0  0  0  0  0
  -18.7090  -28.6930   23.4520 C   0  0  0  0  0  3  0  0  0  0  0  0
  -17.3340  -28.9280   23.6370 C   0  0  0  0  0  3  0  0  0  0  0  0
  -16.3930  -28.0090   23.1410 C   0  0  0  0  0  3  0  0  0  0  0  0
  -16.8270  -26.8620   22.4530 C   0  0  0  0  0  3  0  0  0  0  0  0
  -25.7100  -31.8880   23.3760 C   0  0  0  0  0  3  0  0  0  0  0  0
  -26.4250  -30.9920   24.4600 C   0  0  1  0  0  0  0  0  0  0  0  0
  -25.4860  -30.5130   25.5910 C   0  0  0  0  0  1  0  0  0  0  0  0
  -27.0500  -29.7380   23.8060 C   0  0  0  0  0  1  0  0  0  0  0  0
  -27.5880  -31.7800   25.1080 C   0  0  0  0  0  1  0  0  0  0  0  0
  -25.3870  -33.2120   23.9270 N   0  0  0  0  0  0  0  0  0  0  0  0
  -25.6420  -34.3750   23.3150 C   0  0  0  0  0  0  0  0  0  0  0  0
  -26.2470  -34.4490   22.2420 O   0  0  0  0  0  0  0  0  0  0  0  0
  -24.8390  -33.2240   24.7760 H   0  0  0  0  0  0  0  0  0  0  0  0
  -23.8820  -36.1750   23.2960 C   0  0  0  0  0  1  0  0  0  0  0  0
  -25.1470  -35.6640   24.0020 C   0  0  0  0  0  3  0  0  0  0  0  0
  -27.2880  -36.4400   24.9200 C   0  0  0  0  0  1  0  0  0  0  0  0
  -26.1620  -36.7370   24.0390 N   0  0  0  0  0  0  0  0  0  0  0  0
  -25.7470  -37.6150   24.3390 H   0  0  0  0  0  0  0  0  0  0  0  0
  -30.5130  -22.7610   23.4200 C   0  0  0  0  0  2  0  0  0  0  0  0
  -29.8550  -24.9680   24.5380 C   0  0  0  0  0  1  0  0  0  0  0  0
  -29.3960  -23.7890   23.6760 C   0  0  0  0  0  2  0  0  0  0  0  0
  -28.8980  -19.7360   18.7150 C   0  0  0  0  0  2  0  0  0  0  0  0
  -29.4400  -18.2570   18.5500 C   0  0  0  0  0  2  0  0  0  0  0  0
  -29.9500  -17.4770   19.8170 C   0  0  0  0  0  2  0  0  0  0  0  0
  -30.6880  -15.0060   19.7270 C   0  0  0  0  0  0  0  0  0  0  0  0
  -30.7230  -12.5630   19.3050 C   0  0  0  0  0  2  0  0  0  0  0  0
  -29.7460  -12.2570   18.1520 C   0  0  0  0  0  2  0  0  0  0  0  0
  -28.3070  -12.0710   18.6750 C   0  0  0  0  0  2  0  0  0  0  0  0
  -27.8710  -13.2010   19.6470 C   0  0  0  0  0  3  0  0  0  0  0  0
  -28.9600  -13.4580   20.7110 C   0  0  0  0  0  2  0  0  0  0  0  0
  -30.2140  -13.7560   20.0000 N   0  0  0  0  0  0  0  0  0  0  0  0
  -31.8090  -15.2060   19.2540 O   0  0  0  0  0  0  0  0  0  0  0  0
  -29.7780  -16.0010   19.8560 N   0  0  0  0  0  0  0  0  0  0  0  0
  -28.8730  -15.6860   20.1710 H   0  0  0  0  0  0  0  0  0  0  0  0
  -25.6520  -13.8090   20.7950 C   0  0  0  0  0  0  0  0  0  0  0  0
  -24.5720  -13.0510   21.1620 C   0  0  0  0  0  0  0  0  0  0  0  0
  -24.8990  -11.7050   20.8140 C   0  0  0  0  0  0  0  0  0  0  0  0
  -26.5730  -12.9240   20.2570 N   0  0  0  0  0  0  0  0  0  0  0  0
  -26.1310  -11.6430   20.3240 N   0  0  0  0  0  0  0  0  0  0  0  0
  -24.0910  -10.4810   20.8660 C   0  0  0  0  0  0  0  0  0  0  0  0
  -24.3980   -9.4310   21.7600 C   0  0  0  0  0  3  0  0  0  0  0  0
  -23.5950   -8.2710   21.8040 C   0  0  0  0  0  3  0  0  0  0  0  0
  -22.4700   -8.1530   20.9530 C   0  0  0  0  0  0  0  0  0  0  0  0
  -22.1830   -9.1910   20.0500 C   0  0  0  0  0  3  0  0  0  0  0  0
  -22.9870  -10.3430   20.0030 C   0  0  0  0  0  3  0  0  0  0  0  0
  -21.6480   -7.0530   20.9080 O   0  0  0  0  0  0  0  0  0  0  0  0
  -21.2800   -6.3840   22.0470 C   0  0  0  0  0  0  0  0  0  0  0  0
  -20.5670   -7.0210   23.0870 C   0  0  0  0  0  3  0  0  0  0  0  0
  -20.1460   -6.2780   24.2080 C   0  0  0  0  0  3  0  0  0  0  0  0
  -20.4260   -4.9020   24.2880 C   0  0  0  0  0  0  0  0  0  0  0  0
  -21.1310   -4.2660   23.2510 C   0  0  0  0  0  3  0  0  0  0  0  0
  -21.5530   -5.0040   22.1320 C   0  0  0  0  0  0  0  0  0  0  0  0
  -22.2130   -4.3830   21.1270 F   0  0  0  0  0  0  0  0  0  0  0  0
  -20.0150   -4.1860   25.3600 F   0  0  0  0  0  0  0  0  0  0  0  0
  -23.2700  -13.5560   21.7140 C   0  0  0  0  0  0  0  0  0  0  0  0
  -22.6170  -12.7670   22.5600 N   0  0  0  0  0  0  0  0  0  0  0  0
  -22.8490  -14.6760   21.4320 O   0  0  0  0  0  0  0  0  0  0  0  0
  -22.9740  -11.8550   22.8050 H   0  0  0  0  0  0  0  0  0  0  0  0
  -21.7480  -13.0790   22.9680 H   0  0  0  0  0  0  0  0  0  0  0  0
  -25.9180  -15.1740   20.8560 N   0  0  0  0  0  0  0  0  0  0  0  0
  -25.2350  -15.8430   21.1940 H   0  0  0  0  0  0  0  0  0  0  0  0
  -26.7520  -15.6150   20.4900 H   0  0  0  0  0  0  0  0  0  0  0  0
  1  3  1  0
  2  1  2  0
  3 55  1  0
  4  2  1  0
  4  6  2  0
  5  3  2  0
  5 10  1  0
  6  5  1  0
 10  9  1  6
 10  8  1  0
 10  7  1  0
 11 12  2  0
 11  2  1  0
 13 14  1  0
 13 12  1  0
 14 16  1  0
 15 26  2  0
 16 21  1  0
 17 25  1  0
 17 27  1  0
 18 24  1  0
 18 20  1  0
 19 25  1  0
 20 19  1  0
 21 20  2  0
 22 23  1  0
 22 16  2  0
 23 18  2  0
 24 17  1  0
 25 15  1  0
 27 29  2  0
 28 27  1  0
 30 28  1  0
 31 40  2  0
 31 36  1  0
 32 28  1  0
 32 36  1  0
 33 32  1  0
 34 35  1  0
 34 33  1  0
 35 31  1  0
 36 37  2  0
 37 38  1  0
 39 38  2  0
 40 39  1  0
 41 15  1  0
 41 46  1  0
 41 42  1  0
 42 45  1  1
 42 43  1  0
 44 42  1  0
 46 49  1  0
 47 46  1  0
 47 51  1  0
 48 47  2  0
 51 50  1  0
 51 53  1  0
 53 54  1  0
 53 52  1  0
 55 57  1  0
 57 56  1  0
 58  4  1  0
 59 58  1  0
 59 60  1  0
 60 69  1  0
 61 69  1  0
 61 67  1  0
 62 67  1  0
 63 64  1  0
 63 62  1  0
 65 64  1  0
 65 74  1  0
 65 66  1  0
 67 66  1  0
 68 61  2  0
 69 70  1  0
 71 96  1  0
 71 72  2  0
 72 91  1  0
 73 76  1  0
 73 72  1  0
 74 75  1  0
 74 71  1  0
 75 73  2  0
 76 77  1  0
 77 78  2  0
 79 78  1  0
 80 79  2  0
 81 80  1  0
 81 76  2  0
 82 79  1  0
 82 83  1  0
 83 88  2  0
 83 84  1  0
 84 85  2  0
 85 86  1  0
 86 90  1  0
 87 86  2  0
 88 87  1  0
 89 88  1  0
 91 92  1  0
 92 94  1  0
 92 95  1  0
 93 91  2  0
 96 97  1  0
 98 96  1  0
M  ISO  4  13 101  14 101  61 100  69 100
M  END
>  <TORSDO>  (73) 
F 25

>  <SCORE>  (73) 
-6.585

>  <name>  (73) 
73

>  <ligand_id>  (73) 
73

>  <original_smiles>  (73) 
[H]c1c([H])c([H])c2c(c1[H])C([H])([H])C([H])([H])C([H])([H])C2([H])N([H])C(=O)C1([H])N(C(=O)C([H])(N([H])C(=O)C([H])(N([H])C([H])([H])[H])C([H])([H])[H])C(C([H])([H])[H])(C([H])([H])[H])C([H])([H])[H])C([H])([H])c2c([H])c(OC([H])([H])C([H])([H])C([H])([H])c3c(C([H])([H])C([H])([H])C([H])([H])N([H])C(=O)N4C([H])([H])C([H])([H])C([H])([H])C([H])(n5nc(-c6c([H])c([H])c(Oc7c([H])c([H])c(F)c([H])c7F)c([H])c6[H])c(C(=O)N([H])[H])c5N([H])[H])C4([H])[H])nc(C(C([H])([H])[H])(C([H])([H])[H])C([H])([H])[H])c(C([H])([H])C([H])([H])C([H])([H])[H])c3[H])c([H])c([H])c2C1([H])[H]

>  <smiles>  (73) 
[H]c1c([H])c([H])c2c(c1[H])C([H])([H])C([H])([H])C([H])([H])C2([H])N([H])C(=O)C1([H])N(C(=O)C([H])(N([H])C(=O)C([H])(N([H])C([H])([H])[H])C([H])([H])[H])C(C([H])([H])[H])(C([H])([H])[H])C([H])([H])[H])C([H])([H])c2c([H])c(OC([H])([H])C([H])([H])C([H])([H])c3c(C([H])([H])C([H])([H])C([H])([H])N([H])C(=O)N4C([H])([H])C([H])([H])C([H])([H])C([H])(n5nc(-c6c([H])c([H])c(Oc7c([H])c([H])c(F)c([H])c7F)c([H])c6[H])c(C(=O)N([H])[H])c5N([H])[H])C4([H])[H])nc(C(C([H])([H])[H])(C([H])([H])[H])C([H])([H])[H])c(C([H])([H])C([H])([H])C([H])([H])[H])c3[H])c([H])c([H])c2C1([H])[H]

$$$$
74:0:0
     RDKit          3D

 95103  0  0  1  0  0  0  0  0999 V2000
  -30.1880  -21.3730   21.0200 C   0  0  0  0  0  3  0  0  0  0  0  0
  -29.4470  -22.5270   20.9030 C   0  0  0  0  0  0  0  0  0  0  0  0
  -28.2210  -22.0660   20.3360 C   0  0  0  0  0  0  0  0  0  0  0  0
  -28.2040  -20.7460   20.1890 N   0  0  0  0  0  0  0  0  0  0  0  0
  -29.3870  -20.2960   20.6600 N   0  0  0  0  0  0  0  0  0  0  0  0
  -25.8580  -22.5850   21.0200 C   0  0  0  0  0  1  0  0  0  0  0  0
  -26.5200  -22.6330   18.5580 C   0  0  0  0  0  1  0  0  0  0  0  0
  -26.9790  -22.8620   20.0070 C   0  0  0  0  0  3  0  0  0  0  0  0
  -29.7710  -23.9250   21.4170 C   0  0  0  0  0  2  0  0  0  0  0  0
  -29.9680  -25.0840   20.3980 C   0  0  0  0  0  2  0  0  0  0  0  0
  -28.6860  -25.6980   19.7850 C   0  0  0  0  0  2  0  0  0  0  0  0
  -28.7480  -27.1430   19.7310 O   0  0  0  0  0  0  0  0  0  0  0  0
  -24.5330  -31.7840   23.1270 C   0  0  0  0  0  0  0  0  0  0  0  0
  -27.5300  -27.8020   19.7480 C   0  0  0  0  0  0  0  0  0  0  0  0
  -23.4510  -30.4240   21.3660 C   0  0  0  0  0  3  0  0  0  0  0  0
  -25.0280  -29.1260   19.8410 C   0  0  0  0  0  0  0  0  0  0  0  0
  -25.9410  -30.9920   21.2270 C   0  0  0  0  0  2  0  0  0  0  0  0
  -26.1390  -29.6880   20.4810 C   0  0  0  0  0  0  0  0  0  0  0  0
  -27.3940  -29.0340   20.4290 C   0  0  0  0  0  3  0  0  0  0  0  0
  -26.3990  -27.2610   19.0990 C   0  0  0  0  0  3  0  0  0  0  0  0
  -25.1530  -27.9130   19.1440 C   0  0  0  0  0  3  0  0  0  0  0  0
  -23.7210  -29.8780   19.9390 C   0  0  0  0  0  2  0  0  0  0  0  0
  -24.6590  -31.0780   21.9670 N   0  0  0  0  0  0  0  0  0  0  0  0
  -23.4320  -31.9240   23.6760 O   0  0  0  0  0  0  0  0  0  0  0  0
  -22.8760  -29.2820   22.2370 C   0  0  0  0  0  0  0  0  0  0  0  0
  -21.5630  -29.0310   22.1090 N   0  0  0  0  0  0  0  0  0  0  0  0
  -23.6080  -28.6310   22.9870 O   0  0  0  0  0  0  0  0  0  0  0  0
  -21.0240  -29.6120   21.4820 H   0  0  0  0  0  0  0  0  0  0  0  0
  -18.2730  -27.6130   22.5690 C   0  0  0  0  0  0  0  0  0  0  0  0
  -20.8220  -27.9780   22.8030 C   0  0  0  0  0  3  0  0  0  0  0  0
  -20.9800  -26.6180   22.0840 C   0  0  0  0  0  2  0  0  0  0  0  0
  -19.8660  -26.3390   21.0700 C   0  0  0  0  0  2  0  0  0  0  0  0
  -18.4970  -26.3500   21.7550 C   0  0  0  0  0  2  0  0  0  0  0  0
  -19.3650  -28.3860   23.0490 C   0  0  0  0  0  0  0  0  0  0  0  0
  -19.0990  -29.5710   23.7680 C   0  0  0  0  0  3  0  0  0  0  0  0
  -17.7760  -29.9860   24.0120 C   0  0  0  0  0  3  0  0  0  0  0  0
  -16.7000  -29.2100   23.5470 C   0  0  0  0  0  3  0  0  0  0  0  0
  -16.9510  -28.0250   22.8290 C   0  0  0  0  0  3  0  0  0  0  0  0
  -25.7640  -32.4660   23.8020 C   0  0  0  0  0  3  0  0  0  0  0  0
  -25.3780  -33.8450   24.1320 N   0  0  0  0  0  0  0  0  0  0  0  0
  -25.6860  -34.9200   23.3940 C   0  0  0  0  0  0  0  0  0  0  0  0
  -26.3960  -34.8590   22.3860 O   0  0  0  0  0  0  0  0  0  0  0  0
  -24.7570  -33.9600   24.9190 H   0  0  0  0  0  0  0  0  0  0  0  0
  -23.8850  -36.6290   23.0000 C   0  0  0  0  0  1  0  0  0  0  0  0
  -25.1190  -36.2790   23.8470 C   0  0  0  0  0  3  0  0  0  0  0  0
  -27.1810  -37.2590   24.7490 C   0  0  0  0  0  1  0  0  0  0  0  0
  -26.1010  -37.3830   23.7730 N   0  0  0  0  0  0  0  0  0  0  0  0
  -25.6450  -38.2800   23.9170 H   0  0  0  0  0  0  0  0  0  0  0  0
  -26.2660  -31.7040   25.0910 C   0  0  1  0  0  0  0  0  0  0  0  0
  -25.1460  -31.4130   26.1160 C   0  0  0  0  0  1  0  0  0  0  0  0
  -26.9160  -30.3540   24.7050 C   0  0  0  0  0  1  0  0  0  0  0  0
  -27.3570  -32.5380   25.8020 C   0  0  0  0  0  1  0  0  0  0  0  0
  -29.6300  -18.8370   20.6390 C   0  0  0  0  0  2  0  0  0  0  0  0
  -31.0150  -19.0880   22.8190 C   0  0  0  0  0  1  0  0  0  0  0  0
  -32.0900  -18.2260   20.7430 C   0  0  0  0  0  1  0  0  0  0  0  0
  -30.7720  -18.2460   21.5440 C   0  0  2  0  0  0  0  0  0  0  0  0
  -30.4690  -16.8000   22.0700 C   0  0  0  0  0  2  0  0  0  0  0  0
  -30.5610  -14.9070   20.4060 C   0  0  0  0  0  0  0  0  0  0  0  0
  -30.3120  -12.7840   19.1520 C   0  0  0  0  0  2  0  0  0  0  0  0
  -29.3300  -12.9430   17.9760 C   0  0  0  0  0  2  0  0  0  0  0  0
  -27.8720  -12.7400   18.4380 C   0  0  0  0  0  2  0  0  0  0  0  0
  -27.5260  -13.5530   19.7160 C   0  0  0  0  0  3  0  0  0  0  0  0
  -28.6140  -13.3480   20.7930 C   0  0  0  0  0  2  0  0  0  0  0  0
  -29.9070  -13.7320   20.2000 N   0  0  0  0  0  0  0  0  0  0  0  0
  -31.6630  -15.1570   19.9160 O   0  0  0  0  0  0  0  0  0  0  0  0
  -29.8940  -15.8000   21.1580 N   0  0  0  0  0  0  0  0  0  0  0  0
  -28.9460  -15.5270   21.3720 H   0  0  0  0  0  0  0  0  0  0  0  0
  -25.1430  -14.0720   20.5400 C   0  0  0  0  0  0  0  0  0  0  0  0
  -24.1010  -13.2610   20.9000 C   0  0  0  0  0  0  0  0  0  0  0  0
  -24.5840  -11.9220   20.7760 C   0  0  0  0  0  0  0  0  0  0  0  0
  -26.1950  -13.2260   20.2210 N   0  0  0  0  0  0  0  0  0  0  0  0
  -25.8650  -11.9250   20.4230 N   0  0  0  0  0  0  0  0  0  0  0  0
  -23.8850  -10.6380   20.9150 C   0  0  0  0  0  0  0  0  0  0  0  0
  -24.3350   -9.6480   21.8150 C   0  0  0  0  0  3  0  0  0  0  0  0
  -23.6370   -8.4290   21.9460 C   0  0  0  0  0  3  0  0  0  0  0  0
  -22.4740   -8.1920   21.1770 C   0  0  0  0  0  0  0  0  0  0  0  0
  -22.0420   -9.1710   20.2670 C   0  0  0  0  0  3  0  0  0  0  0  0
  -22.7410  -10.3830   20.1330 C   0  0  0  0  0  3  0  0  0  0  0  0
  -21.7450   -7.0270   21.2180 O   0  0  0  0  0  0  0  0  0  0  0  0
  -21.6720   -6.2640   22.3570 C   0  0  0  0  0  0  0  0  0  0  0  0
  -21.1950   -6.7890   23.5760 C   0  0  0  0  0  3  0  0  0  0  0  0
  -21.0720   -5.9520   24.7040 C   0  0  0  0  0  3  0  0  0  0  0  0
  -21.4130   -4.5890   24.6110 C   0  0  0  0  0  0  0  0  0  0  0  0
  -21.8840   -4.0640   23.3960 C   0  0  0  0  0  3  0  0  0  0  0  0
  -22.0100   -4.8970   22.2710 C   0  0  0  0  0  0  0  0  0  0  0  0
  -22.4430   -4.3810   21.0960 F   0  0  0  0  0  0  0  0  0  0  0  0
  -21.2870   -3.7830   25.6910 F   0  0  0  0  0  0  0  0  0  0  0  0
  -22.7030  -13.6950   21.2400 C   0  0  0  0  0  0  0  0  0  0  0  0
  -22.0220  -12.9520   22.1060 N   0  0  0  0  0  0  0  0  0  0  0  0
  -22.2260  -14.7290   20.7760 O   0  0  0  0  0  0  0  0  0  0  0  0
  -22.4210  -12.1160   22.5080 H   0  0  0  0  0  0  0  0  0  0  0  0
  -21.0850  -13.2230   22.3680 H   0  0  0  0  0  0  0  0  0  0  0  0
  -25.2750  -15.4540   20.4400 N   0  0  0  0  0  0  0  0  0  0  0  0
  -24.4980  -16.0790   20.6290 H   0  0  0  0  0  0  0  0  0  0  0  0
  -26.1020  -15.9400   20.1130 H   0  0  0  0  0  0  0  0  0  0  0  0
  2  1  2  0
  2  9  1  0
  3  2  1  0
  4  3  2  0
  4  5  1  0
  5  1  1  0
  7  8  1  0
  8  3  1  0
  8  6  1  0
 10  9  1  0
 11 10  1  0
 12 14  1  0
 12 11  1  0
 13 24  2  0
 14 19  1  0
 15 23  1  0
 15 25  1  0
 16 22  1  0
 16 18  1  0
 17 23  1  0
 18 17  1  0
 19 18  2  0
 20 21  1  0
 20 14  2  0
 21 16  2  0
 22 15  1  0
 23 13  1  0
 25 27  2  0
 26 25  1  0
 28 26  1  0
 29 38  2  0
 29 34  1  0
 30 26  1  0
 30 34  1  0
 31 30  1  0
 32 33  1  0
 32 31  1  0
 33 29  1  0
 34 35  2  0
 35 36  1  0
 37 36  2  0
 38 37  1  0
 39 13  1  0
 39 40  1  0
 39 49  1  0
 40 43  1  0
 41 45  1  0
 41 40  1  0
 42 41  2  0
 45 44  1  0
 47 45  1  0
 47 48  1  0
 47 46  1  0
 49 52  1  1
 49 50  1  0
 51 49  1  0
 53  5  1  0
 53 56  1  0
 56 55  1  6
 56 57  1  0
 56 54  1  0
 58 66  1  0
 59 64  1  0
 60 61  1  0
 60 59  1  0
 62 61  1  0
 62 71  1  0
 62 63  1  0
 64 58  1  0
 64 63  1  0
 65 58  2  0
 66 67  1  0
 66 57  1  0
 68 69  2  0
 69 88  1  0
 70 69  1  0
 70 73  1  0
 71 72  1  0
 71 68  1  0
 72 70  2  0
 73 74  1  0
 74 75  2  0
 76 79  1  0
 76 75  1  0
 77 76  2  0
 78 77  1  0
 78 73  2  0
 79 80  1  0
 80 81  1  0
 81 82  2  0
 83 82  1  0
 83 87  1  0
 84 83  2  0
 85 80  2  0
 85 84  1  0
 86 85  1  0
 88 89  1  0
 89 92  1  0
 89 91  1  0
 90 88  2  0
 93 68  1  0
 93 94  1  0
 95 93  1  0
M  ISO  4  11 101  12 101  58 100  66 100
M  END
>  <TORSDO>  (74) 
F 23

>  <SCORE>  (74) 
-12.021

>  <name>  (74) 
74

>  <ligand_id>  (74) 
74

>  <original_smiles>  (74) 
[H]c1c([H])c([H])c2c(c1[H])C([H])([H])C([H])([H])C([H])([H])C2([H])N([H])C(=O)C1([H])N(C(=O)C([H])(N([H])C(=O)C([H])(N([H])C([H])([H])[H])C([H])([H])[H])C(C([H])([H])[H])(C([H])([H])[H])C([H])([H])[H])C([H])([H])c2c([H])c(OC([H])([H])C([H])([H])C([H])([H])c3c(C([H])(C([H])([H])[H])C([H])([H])[H])nn(C([H])([H])C(C([H])([H])[H])(C([H])([H])[H])C([H])([H])N([H])C(=O)N4C([H])([H])C([H])([H])C([H])([H])C([H])(n5nc(-c6c([H])c([H])c(Oc7c([H])c([H])c(F)c([H])c7F)c([H])c6[H])c(C(=O)N([H])[H])c5N([H])[H])C4([H])[H])c3[H])c([H])c([H])c2C1([H])[H]

>  <smiles>  (74) 
[H]c1c([H])c([H])c2c(c1[H])C([H])([H])C([H])([H])C([H])([H])C2([H])N([H])C(=O)C1([H])N(C(=O)C([H])(N([H])C(=O)C([H])(N([H])C([H])([H])[H])C([H])([H])[H])C(C([H])([H])[H])(C([H])([H])[H])C([H])([H])[H])C([H])([H])c2c([H])c(OC([H])([H])C([H])([H])C([H])([H])c3c(C([H])(C([H])([H])[H])C([H])([H])[H])nn(C([H])([H])C(C([H])([H])[H])(C([H])([H])[H])C([H])([H])N([H])C(=O)N4C([H])([H])C([H])([H])C([H])([H])C([H])(n5nc(-c6c([H])c([H])c(Oc7c([H])c([H])c(F)c([H])c7F)c([H])c6[H])c(C(=O)N([H])[H])c5N([H])[H])C4([H])[H])c3[H])c([H])c([H])c2C1([H])[H]

$$$$
75:0:0
     RDKit          3D

 93101  0  0  1  0  0  0  0  0999 V2000
  -30.2370  -21.8720   21.1140 C   0  0  0  0  0  3  0  0  0  0  0  0
  -30.3200  -23.0530   21.8880 C   0  0  0  0  0  0  0  0  0  0  0  0
  -29.9350  -20.6600   21.7730 C   0  0  0  0  0  0  0  0  0  0  0  0
  -30.1110  -22.9040   23.2850 C   0  0  0  0  0  0  0  0  0  0  0  0
  -30.3040  -24.0340   24.2800 C   0  0  0  0  0  1  0  0  0  0  0  0
  -29.6570  -20.6130   23.0990 N   0  0  0  0  0  0  0  0  0  0  0  0
  -29.7660  -21.7160   23.8430 N   0  0  0  0  0  0  0  0  0  0  0  0
  -30.7020  -24.3840   21.2320 C   0  0  0  0  0  2  0  0  0  0  0  0
  -29.8480  -24.8290   20.0110 C   0  0  0  0  0  2  0  0  0  0  0  0
  -28.0500  -25.5750   21.7470 C   0  0  0  0  0  1  0  0  0  0  0  0
  -28.4610  -25.4930   20.2600 C   0  0  0  0  0  3  0  0  0  0  0  0
  -28.4870  -26.8020   19.6620 O   0  0  0  0  0  0  0  0  0  0  0  0
  -24.6260  -31.6780   23.0500 C   0  0  0  0  0  0  0  0  0  0  0  0
  -27.3000  -27.4990   19.6660 C   0  0  0  0  0  0  0  0  0  0  0  0
  -23.4040  -30.3170   21.3820 C   0  0  0  0  0  3  0  0  0  0  0  0
  -24.8550  -28.9040   19.8320 C   0  0  0  0  0  0  0  0  0  0  0  0
  -25.9060  -30.7760   21.1130 C   0  0  0  0  0  2  0  0  0  0  0  0
  -26.0150  -29.4440   20.4020 C   0  0  0  0  0  0  0  0  0  0  0  0
  -27.2410  -28.7530   20.3110 C   0  0  0  0  0  3  0  0  0  0  0  0
  -26.1260  -26.9710   19.0810 C   0  0  0  0  0  3  0  0  0  0  0  0
  -24.9050  -27.6680   19.1660 C   0  0  0  0  0  3  0  0  0  0  0  0
  -23.5860  -29.7120   19.9660 C   0  0  0  0  0  2  0  0  0  0  0  0
  -24.6660  -30.9370   21.9080 N   0  0  0  0  0  0  0  0  0  0  0  0
  -23.5560  -31.8900   23.6390 O   0  0  0  0  0  0  0  0  0  0  0  0
  -22.8210  -29.2300   22.3140 C   0  0  0  0  0  0  0  0  0  0  0  0
  -21.5020  -28.9990   22.2130 N   0  0  0  0  0  0  0  0  0  0  0  0
  -23.5500  -28.5990   23.0830 O   0  0  0  0  0  0  0  0  0  0  0  0
  -20.9690  -29.5630   21.5650 H   0  0  0  0  0  0  0  0  0  0  0  0
  -18.2000  -27.6200   22.7030 C   0  0  0  0  0  0  0  0  0  0  0  0
  -20.7450  -27.9980   22.9630 C   0  0  0  0  0  3  0  0  0  0  0  0
  -20.9150  -26.5920   22.3410 C   0  0  0  0  0  2  0  0  0  0  0  0
  -19.8210  -26.2430   21.3280 C   0  0  0  0  0  2  0  0  0  0  0  0
  -18.4390  -26.3010   21.9860 C   0  0  0  0  0  2  0  0  0  0  0  0
  -19.2840  -28.4220   23.1490 C   0  0  0  0  0  0  0  0  0  0  0  0
  -19.0090  -29.6560   23.7770 C   0  0  0  0  0  3  0  0  0  0  0  0
  -17.6840  -30.0880   23.9660 C   0  0  0  0  0  3  0  0  0  0  0  0
  -16.6160  -29.2810   23.5420 C   0  0  0  0  0  3  0  0  0  0  0  0
  -16.8740  -28.0490   22.9140 C   0  0  0  0  0  3  0  0  0  0  0  0
  -25.9140  -32.3200   23.6550 C   0  0  0  0  0  3  0  0  0  0  0  0
  -25.5750  -33.6840   24.0800 N   0  0  0  0  0  0  0  0  0  0  0  0
  -25.8570  -34.7910   23.3810 C   0  0  0  0  0  0  0  0  0  0  0  0
  -26.5070  -34.7740   22.3320 O   0  0  0  0  0  0  0  0  0  0  0  0
  -25.0050  -33.7720   24.9090 H   0  0  0  0  0  0  0  0  0  0  0  0
  -24.0710  -36.5470   23.1660 C   0  0  0  0  0  1  0  0  0  0  0  0
  -25.3340  -36.1300   23.9340 C   0  0  0  0  0  3  0  0  0  0  0  0
  -27.4490  -37.0240   24.8000 C   0  0  0  0  0  1  0  0  0  0  0  0
  -26.3320  -37.2200   23.8800 N   0  0  0  0  0  0  0  0  0  0  0  0
  -25.8990  -38.1140   24.0920 H   0  0  0  0  0  0  0  0  0  0  0  0
  -26.5140  -31.4960   24.8580 C   0  0  1  0  0  0  0  0  0  0  0  0
  -25.4790  -31.1630   25.9580 C   0  0  0  0  0  1  0  0  0  0  0  0
  -27.1190  -30.1650   24.3560 C   0  0  0  0  0  1  0  0  0  0  0  0
  -27.6680  -32.2880   25.5150 C   0  0  0  0  0  1  0  0  0  0  0  0
  -29.8650  -19.3420   21.0100 C   0  0  0  0  0  2  0  0  0  0  0  0
  -30.4000  -18.1150   21.7910 C   0  0  0  0  0  2  0  0  0  0  0  0
  -31.0330  -17.0530   20.8740 C   0  0  0  0  0  2  0  0  0  0  0  0
  -31.2910  -14.6200   20.6780 C   0  0  0  0  0  0  0  0  0  0  0  0
  -30.9840  -12.4170   19.6340 C   0  0  0  0  0  2  0  0  0  0  0  0
  -30.1000  -12.5720   18.3790 C   0  0  0  0  0  2  0  0  0  0  0  0
  -28.6120  -12.4620   18.7570 C   0  0  0  0  0  2  0  0  0  0  0  0
  -28.2290  -13.3730   19.9550 C   0  0  0  0  0  3  0  0  0  0  0  0
  -29.2360  -13.2190   21.1190 C   0  0  0  0  0  2  0  0  0  0  0  0
  -30.5910  -13.4590   20.5930 N   0  0  0  0  0  0  0  0  0  0  0  0
  -32.4130  -14.7660   20.1860 O   0  0  0  0  0  0  0  0  0  0  0  0
  -30.6320  -15.6750   21.1780 N   0  0  0  0  0  0  0  0  0  0  0  0
  -29.7140  -15.5110   21.5660 H   0  0  0  0  0  0  0  0  0  0  0  0
  -25.8230  -14.0280   20.5940 C   0  0  0  0  0  0  0  0  0  0  0  0
  -24.7270  -13.2760   20.9240 C   0  0  0  0  0  0  0  0  0  0  0  0
  -25.1580  -11.9140   20.8950 C   0  0  0  0  0  0  0  0  0  0  0  0
  -26.8550  -13.1240   20.3890 N   0  0  0  0  0  0  0  0  0  0  0  0
  -26.4560  -11.8480   20.6250 N   0  0  0  0  0  0  0  0  0  0  0  0
  -24.3980  -10.6670   21.0530 C   0  0  0  0  0  0  0  0  0  0  0  0
  -24.7480   -9.7110   22.0310 C   0  0  0  0  0  3  0  0  0  0  0  0
  -23.9920   -8.5280   22.1760 C   0  0  0  0  0  3  0  0  0  0  0  0
  -22.8740   -8.2940   21.3430 C   0  0  0  0  0  0  0  0  0  0  0  0
  -22.5440   -9.2380   20.3550 C   0  0  0  0  0  3  0  0  0  0  0  0
  -23.2990  -10.4130   20.2080 C   0  0  0  0  0  3  0  0  0  0  0  0
  -22.0980   -7.1610   21.3940 O   0  0  0  0  0  0  0  0  0  0  0  0
  -21.9030   -6.4750   22.5660 C   0  0  0  0  0  0  0  0  0  0  0  0
  -21.3320   -7.0880   23.7030 C   0  0  0  0  0  3  0  0  0  0  0  0
  -21.0860   -6.3280   24.8640 C   0  0  0  0  0  3  0  0  0  0  0  0
  -21.3990   -4.9560   24.8870 C   0  0  0  0  0  0  0  0  0  0  0  0
  -21.9610   -4.3410   23.7540 C   0  0  0  0  0  3  0  0  0  0  0  0
  -22.2080   -5.0990   22.5950 C   0  0  0  0  0  0  0  0  0  0  0  0
  -22.7310   -4.4990   21.5000 F   0  0  0  0  0  0  0  0  0  0  0  0
  -21.1540   -4.2230   25.9980 F   0  0  0  0  0  0  0  0  0  0  0  0
  -23.3340  -13.7840   21.1600 C   0  0  0  0  0  0  0  0  0  0  0  0
  -22.5720  -13.1060   22.0100 N   0  0  0  0  0  0  0  0  0  0  0  0
  -22.9310  -14.8170   20.6270 O   0  0  0  0  0  0  0  0  0  0  0  0
  -22.9090  -12.2710   22.4640 H   0  0  0  0  0  0  0  0  0  0  0  0
  -21.6360  -13.4290   22.2110 H   0  0  0  0  0  0  0  0  0  0  0  0
  -26.0280  -15.3950   20.4350 N   0  0  0  0  0  0  0  0  0  0  0  0
  -25.2780  -16.0710   20.5330 H   0  0  0  0  0  0  0  0  0  0  0  0
  -26.9050  -15.8130   20.1520 H   0  0  0  0  0  0  0  0  0  0  0  0
  1  3  2  0
  1  2  1  0
  2  4  2  0
  3  6  1  0
  4  7  1  0
  4  5  1  0
  6  7  2  0
  8  2  1  0
  9 11  1  0
  9  8  1  0
 11 10  1  0
 12 14  1  0
 12 11  1  0
 13 24  2  0
 14 19  1  0
 15 23  1  0
 15 25  1  0
 16 22  1  0
 16 18  1  0
 17 23  1  0
 18 17  1  0
 19 18  2  0
 20 21  1  0
 20 14  2  0
 21 16  2  0
 22 15  1  0
 23 13  1  0
 25 27  2  0
 26 25  1  0
 28 26  1  0
 29 38  2  0
 29 34  1  0
 30 26  1  0
 30 34  1  0
 31 30  1  0
 32 33  1  0
 32 31  1  0
 33 29  1  0
 34 35  2  0
 35 36  1  0
 37 36  2  0
 38 37  1  0
 39 13  1  0
 39 40  1  0
 39 49  1  0
 40 43  1  0
 41 45  1  0
 41 40  1  0
 42 41  2  0
 45 44  1  0
 47 45  1  0
 47 48  1  0
 47 46  1  0
 49 52  1  1
 49 50  1  0
 51 49  1  0
 53  3  1  0
 53 54  1  0
 55 64  1  0
 55 54  1  0
 56 64  1  0
 57 62  1  0
 58 59  1  0
 58 57  1  0
 60 59  1  0
 60 69  1  0
 60 61  1  0
 62 56  1  0
 62 61  1  0
 63 56  2  0
 64 65  1  0
 66 67  2  0
 67 86  1  0
 68 67  1  0
 68 71  1  0
 69 66  1  0
 69 70  1  0
 70 68  2  0
 71 72  1  0
 72 73  2  0
 74 77  1  0
 74 73  1  0
 75 74  2  0
 76 75  1  0
 76 71  2  0
 77 78  1  0
 78 83  2  0
 78 79  1  0
 79 80  2  0
 80 81  1  0
 81 85  1  0
 82 81  2  0
 83 82  1  0
 84 83  1  0
 86 87  1  0
 87 90  1  0
 87 89  1  0
 88 86  2  0
 91 92  1  0
 91 66  1  0
 93 91  1  0
M  ISO  4  11 101  12 101  56 100  64 100
M  END
>  <TORSDO>  (75) 
F 22

>  <SCORE>  (75) 
-10.587

>  <name>  (75) 
75

>  <ligand_id>  (75) 
75

>  <original_smiles>  (75) 
[H]c1c([H])c([H])c2c(c1[H])C([H])([H])C([H])([H])C([H])([H])C2([H])N([H])C(=O)C1([H])N(C(=O)C([H])(N([H])C(=O)C([H])(N([H])C([H])([H])[H])C([H])([H])[H])C(C([H])([H])[H])(C([H])([H])[H])C([H])([H])[H])C([H])([H])c2c([H])c(OC([H])(C([H])([H])[H])C([H])([H])C([H])([H])c3c(C([H])([H])[H])nnc(C([H])([H])C([H])([H])C([H])([H])N([H])C(=O)N4C([H])([H])C([H])([H])C([H])([H])C([H])(n5nc(-c6c([H])c([H])c(Oc7c([H])c([H])c(F)c([H])c7F)c([H])c6[H])c(C(=O)N([H])[H])c5N([H])[H])C4([H])[H])c3[H])c([H])c([H])c2C1([H])[H]

>  <smiles>  (75) 
[H]c1c([H])c([H])c2c(c1[H])C([H])([H])C([H])([H])C([H])([H])C2([H])N([H])C(=O)C1([H])N(C(=O)C([H])(N([H])C(=O)C([H])(N([H])C([H])([H])[H])C([H])([H])[H])C(C([H])([H])[H])(C([H])([H])[H])C([H])([H])[H])C([H])([H])c2c([H])c(OC([H])(C([H])([H])[H])C([H])([H])C([H])([H])c3c(C([H])([H])[H])nnc(C([H])([H])C([H])([H])C([H])([H])N([H])C(=O)N4C([H])([H])C([H])([H])C([H])([H])C([H])(n5nc(-c6c([H])c([H])c(Oc7c([H])c([H])c(F)c([H])c7F)c([H])c6[H])c(C(=O)N([H])[H])c5N([H])[H])C4([H])[H])c3[H])c([H])c([H])c2C1([H])[H]

$$$$
76:0:0
     RDKit          3D

 97103  0  0  1  0  0  0  0  0999 V2000
  -26.3800  -20.1460   18.8410 C   0  0  0  0  0  2  0  0  0  0  0  0
  -25.6310  -18.9680   19.1390 C   0  0  0  0  0  3  0  0  0  0  0  0
  -27.7260  -19.8550   18.8100 C   0  0  0  0  0  3  0  0  0  0  0  0
  -26.5610  -18.0260   19.4950 C   0  0  0  0  0  3  0  0  0  0  0  0
  -26.2870  -16.7570   20.2430 C   0  0  0  0  0  1  0  0  0  0  0  0
  -27.8010  -18.4210   18.9580 N   0  0  0  0  0  0  0  0  0  0  0  0
  -23.5340  -19.1090   17.6850 C   0  0  0  0  0  1  0  0  0  0  0  0
  -23.3110  -19.3180   20.2240 C   0  0  0  0  0  1  0  0  0  0  0  0
  -24.1210  -18.7320   19.0600 C   0  0  0  0  0  3  0  0  0  0  0  0
  -28.9110  -17.5050   18.4890 C   0  0  0  0  0  2  0  0  0  0  0  0
  -29.9020  -16.6470   19.4410 C   0  0  0  0  0  2  0  0  0  0  0  0
  -28.9330  -14.3200   19.5770 C   0  0  0  0  0  1  0  0  0  0  0  0
  -30.1330  -15.1420   19.2130 N   0  0  2  0  0  4  0  0  0  0  0  0
  -30.2800  -15.0170   18.2120 H   0  0  0  0  0  0  0  0  0  0  0  0
  -31.2920  -14.5270   20.0150 C   0  0  0  0  0  2  0  0  0  0  0  0
  -31.8540  -12.9810   19.9640 C   0  0  0  0  0  1  0  0  0  0  0  0
  -33.7260  -13.4710   20.6200 C   0  0  0  0  0  2  0  0  0  0  0  0
  -35.5190  -12.0210   21.9580 C   0  0  0  0  0  2  0  0  0  0  0  0
  -35.5840  -10.5380   21.3470 C   0  0  0  0  0  2  0  0  0  0  0  0
  -34.2630   -9.8450   20.8820 C   0  0  0  0  0  2  0  0  0  0  0  0
  -33.5660  -10.9870   20.3970 C   0  0  0  0  0  3  0  0  0  0  0  0
  -33.3430  -11.8510   21.7820 C   0  0  0  0  0  2  0  0  0  0  0  0
  -34.2520  -12.7780   21.6730 N   0  0  0  0  0  0  0  0  0  0  0  0
  -34.7730  -14.0650   20.1840 O   0  0  0  0  0  1  0  0  0  0  0  0
  -31.4250  -11.7510   18.3420 C   0  0  0  0  0  2  0  0  0  0  0  0
  -29.8500  -12.0400   18.9350 C   0  0  0  0  0  3  0  0  0  0  0  0
  -29.6860  -11.3970   20.5810 C   0  0  0  0  0  3  0  0  0  0  0  0
  -32.3840  -10.8530   19.7690 N   0  0  0  0  0  2  0  0  0  0  0  0
  -31.1320  -10.7660   21.1150 N   0  0  0  0  0  2  0  0  0  0  0  0
  -28.6390  -10.2930   20.9840 C   0  0  0  0  0  0  0  0  0  0  0  0
  -27.7260  -10.5750   22.0160 C   0  0  0  0  0  3  0  0  0  0  0  0
  -26.7290   -9.6680   22.4570 C   0  0  0  0  0  3  0  0  0  0  0  0
  -26.5920   -8.3820   21.8900 C   0  0  0  0  0  0  0  0  0  0  0  0
  -27.5540   -8.0070   20.9310 C   0  0  0  0  0  3  0  0  0  0  0  0
  -28.5670   -8.9290   20.5000 C   0  0  0  0  0  3  0  0  0  0  0  0
  -25.5800   -7.4980   22.2610 O   0  0  0  0  0  0  0  0  0  0  0  0
  -24.2820   -7.9280   22.4550 C   0  0  0  0  0  0  0  0  0  0  0  0
  -23.6210   -8.7410   21.5020 C   0  0  0  0  0  3  0  0  0  0  0  0
  -22.2830   -9.1420   21.7050 C   0  0  0  0  0  3  0  0  0  0  0  0
  -21.5880   -8.7340   22.8580 C   0  0  0  0  0  0  0  0  0  0  0  0
  -22.2340   -7.9180   23.8070 C   0  0  0  0  0  3  0  0  0  0  0  0
  -23.5620   -7.5130   23.6020 C   0  0  0  0  0  0  0  0  0  0  0  0
  -24.1560   -6.7090   24.5170 F   0  0  0  0  0  0  0  0  0  0  0  0
  -20.3020   -9.1230   23.0540 F   0  0  0  0  0  0  0  0  0  0  0  0
  -28.7130  -11.7370   17.9590 C   0  0  0  0  0  0  0  0  0  0  0  0
  -27.4550  -11.7760   18.3940 N   0  0  0  0  0  0  0  0  0  0  0  0
  -28.9430  -11.4510   16.7880 O   0  0  0  0  0  0  0  0  0  0  0  0
  -27.2100  -11.9550   19.3550 H   0  0  0  0  0  0  0  0  0  0  0  0
  -26.7070  -11.5350   17.7550 H   0  0  0  0  0  0  0  0  0  0  0  0
  -32.0210  -12.3850   17.2850 N   0  0  0  0  0  0  0  0  0  0  0  0
  -31.4990  -12.5130   16.4260 H   0  0  0  0  0  0  0  0  0  0  0  0
  -32.9590  -12.0840   17.0540 H   0  0  0  0  0  0  0  0  0  0  0  0
  -28.8590  -20.8800   18.4750 C   0  0  0  0  0  3  0  0  0  0  0  0
  -28.8720  -22.3130   19.2210 C   0  0  0  0  0  3  0  0  0  0  0  0
  -29.8730  -23.5100   18.8030 C   0  0  0  0  0  2  0  0  0  0  0  0
  -30.3090  -24.5890   19.9080 C   0  0  0  0  0  2  0  0  0  0  0  0
  -30.7940  -25.9560   19.5550 O   0  0  0  0  0  0  0  0  0  0  0  0
  -27.5380  -29.8290   24.6120 C   0  0  0  0  0  0  0  0  0  0  0  0
  -29.8740  -26.9670   19.8400 C   0  0  0  0  0  0  0  0  0  0  0  0
  -26.3150  -29.4690   22.4960 C   0  0  0  0  0  3  0  0  0  0  0  0
  -27.7030  -28.6610   20.5240 C   0  0  0  0  0  0  0  0  0  0  0  0
  -28.8760  -29.6230   22.5070 C   0  0  0  0  0  2  0  0  0  0  0  0
  -28.8850  -28.7020   21.2900 C   0  0  0  0  0  0  0  0  0  0  0  0
  -29.9830  -27.8770   20.9290 C   0  0  0  0  0  3  0  0  0  0  0  0
  -28.7110  -27.0000   19.0530 C   0  0  0  0  0  3  0  0  0  0  0  0
  -27.6310  -27.8280   19.3910 C   0  0  0  0  0  3  0  0  0  0  0  0
  -26.5420  -29.5170   20.9630 C   0  0  0  0  0  2  0  0  0  0  0  0
  -27.5950  -29.6240   23.2620 N   0  0  0  0  0  0  0  0  0  0  0  0
  -26.4470  -29.9270   25.1970 O   0  0  0  0  0  0  0  0  0  0  0  0
  -25.5270  -28.1870   22.8560 C   0  0  0  0  0  0  0  0  0  0  0  0
  -24.2350  -28.1440   22.4800 N   0  0  0  0  0  0  0  0  0  0  0  0
  -26.0790  -27.2530   23.4400 O   0  0  0  0  0  0  0  0  0  0  0  0
  -23.8590  -28.9560   22.0140 H   0  0  0  0  0  0  0  0  0  0  0  0
  -20.8680  -26.9800   21.8330 C   0  0  0  0  0  0  0  0  0  0  0  0
  -23.3130  -27.0230   22.6800 C   0  0  0  0  0  3  0  0  0  0  0  0
  -23.5810  -25.8930   21.6600 C   0  0  0  0  0  2  0  0  0  0  0  0
  -22.7130  -26.0000   20.4030 C   0  0  0  0  0  2  0  0  0  0  0  0
  -21.2250  -25.9570   20.7670 C   0  0  0  0  0  2  0  0  0  0  0  0
  -21.8510  -27.4910   22.7210 C   0  0  0  0  0  0  0  0  0  0  0  0
  -21.4750  -28.4630   23.6720 C   0  0  0  0  0  3  0  0  0  0  0  0
  -20.1460  -28.9210   23.7490 C   0  0  0  0  0  3  0  0  0  0  0  0
  -19.1730  -28.3970   22.8820 C   0  0  0  0  0  3  0  0  0  0  0  0
  -19.5330  -27.4270   21.9290 C   0  0  0  0  0  3  0  0  0  0  0  0
  -28.8230  -29.9750   25.4740 C   0  0  0  0  0  3  0  0  0  0  0  0
  -29.0650  -28.7550   26.4440 C   0  0  1  0  0  0  0  0  0  0  0  0
  -27.8480  -28.4170   27.3350 C   0  0  0  0  0  1  0  0  0  0  0  0
  -29.4280  -27.4850   25.6400 C   0  0  0  0  0  1  0  0  0  0  0  0
  -30.2720  -29.0460   27.3640 C   0  0  0  0  0  1  0  0  0  0  0  0
  -28.7090  -31.2270   26.2400 N   0  0  0  0  0  0  0  0  0  0  0  0
  -29.4030  -32.3440   25.9850 C   0  0  0  0  0  0  0  0  0  0  0  0
  -30.2680  -32.4030   25.1080 O   0  0  0  0  0  0  0  0  0  0  0  0
  -27.9870  -31.2680   26.9420 H   0  0  0  0  0  0  0  0  0  0  0  0
  -28.2540  -34.5800   26.0040 C   0  0  0  0  0  1  0  0  0  0  0  0
  -29.0880  -33.5910   26.8350 C   0  0  0  0  0  3  0  0  0  0  0  0
  -31.0100  -33.4820   28.3580 C   0  0  0  0  0  1  0  0  0  0  0  0
  -30.2980  -34.2690   27.3560 N   0  0  0  0  0  0  0  0  0  0  0  0
  -30.0590  -35.1670   27.7690 H   0  0  0  0  0  0  0  0  0  0  0  0
  1  2  1  0
  2  9  1  0
  2  4  1  0
  3 53  1  0
  3  1  1  0
  3  6  1  0
  4  5  1  0
  6  4  1  0
  7  9  1  0
  9  8  1  0
 10  6  1  0
 10 11  1  0
 13 11  1  0
 13 12  1  0
 13 15  1  0
 13 14  1  6
 16 15  1  0
 17 23  1  0
 19 18  1  0
 20 19  1  0
 21 28  1  0
 21 20  1  0
 21 22  1  0
 23 22  1  0
 23 18  1  0
 24 17  1  0
 26 25  1  0
 26 27  1  0
 27 30  1  0
 27 29  1  0
 28 29  1  0
 30 31  1  0
 31 32  2  0
 33 36  1  0
 33 32  1  0
 34 33  2  0
 35 34  1  0
 35 30  2  0
 36 37  1  0
 37 42  1  0
 38 39  1  0
 38 37  2  0
 39 40  2  0
 40 44  1  0
 40 41  1  0
 42 41  2  0
 42 43  1  0
 45 46  1  0
 45 26  1  0
 46 48  1  0
 47 45  2  0
 49 46  1  0
 50 25  1  0
 51 50  1  0
 52 50  1  0
 53 54  2  0
 55 54  1  0
 55 56  1  0
 57 59  1  0
 57 56  1  0
 58 69  2  0
 59 64  1  0
 60 70  1  0
 60 68  1  0
 61 67  1  0
 61 63  1  0
 62 68  1  0
 63 62  1  0
 64 63  2  0
 65 66  1  0
 65 59  2  0
 66 61  2  0
 67 60  1  0
 68 58  1  0
 70 72  2  0
 71 70  1  0
 73 71  1  0
 74 83  2  0
 74 79  1  0
 75 71  1  0
 75 79  1  0
 76 75  1  0
 77 78  1  0
 77 76  1  0
 78 74  1  0
 79 80  2  0
 80 81  1  0
 82 81  2  0
 83 82  1  0
 84 58  1  0
 84 89  1  0
 84 85  1  0
 85 86  1  1
 85 88  1  0
 87 85  1  0
 89 92  1  0
 90 89  1  0
 90 94  1  0
 91 90  2  0
 94 93  1  0
 94 96  1  0
 96 97  1  0
 96 95  1  0
M  ISO  4  16 100  17 100  56 101  57 101
M  END
>  <TORSDO>  (76) 
F 26

>  <SCORE>  (76) 
4.289

>  <name>  (76) 
76

>  <ligand_id>  (76) 
76

>  <original_smiles>  (76) 
[H]c1c([H])c([H])c2c(c1[H])C([H])([H])C([H])([H])C([H])([H])C2([H])N([H])C(=O)C1([H])N(C(=O)C([H])(N([H])C(=O)C([H])(N([H])C([H])([H])[H])C([H])([H])[H])C(C([H])([H])[H])(C([H])([H])[H])C([H])([H])[H])C([H])([H])c2c([H])c(OC([H])([H])C([H])([H])C([H])([H])C([H])([H])c3c([H])c(C([H])(C([H])([H])[H])C([H])([H])[H])c(C([H])([H])[H])n3C([H])([H])C([H])([H])[N+]([H])(C([H])([H])[H])C([H])([H])C([H])([H])C(=O)N3C([H])([H])C([H])([H])C([H])([H])C([H])(n4nc(-c5c([H])c([H])c(Oc6c([H])c([H])c(F)c([H])c6F)c([H])c5[H])c(C(=O)N([H])[H])c4N([H])[H])C3([H])[H])c([H])c([H])c2C1([H])[H]

>  <smiles>  (76) 
[H]c1c([H])c([H])c2c(c1[H])C([H])([H])C([H])([H])C([H])([H])C2([H])N([H])C(=O)C1([H])N(C(=O)C([H])(N([H])C(=O)C([H])(N([H])C([H])([H])[H])C([H])([H])[H])C(C([H])([H])[H])(C([H])([H])[H])C([H])([H])[H])C([H])([H])c2c([H])c(OC([H])([H])C([H])([H])C([H])([H])C([H])([H])c3c([H])c(C([H])(C([H])([H])[H])C([H])([H])[H])c(C([H])([H])[H])n3C([H])([H])C([H])([H])[N+]([H])(C([H])([H])[H])C([H])([H])C([H])([H])C(=O)N3C([H])([H])C([H])([H])C([H])([H])C([H])(n4nc(-c5c([H])c([H])c(Oc6c([H])c([H])c(F)c([H])c6F)c([H])c5[H])c(C(=O)N([H])[H])c4N([H])[H])C3([H])[H])c([H])c([H])c2C1([H])[H]

$$$$
77:0:0
     RDKit          3D

 91 99  0  0  1  0  0  0  0  0999 V2000
  -30.9180  -21.0540   21.5490 C   0  0  0  0  0  3  0  0  0  0  0  0
  -30.8210  -20.1120   22.5280 C   0  0  0  0  0  0  0  0  0  0  0  0
  -29.7470  -20.4330   23.3580 N   0  0  0  0  0  0  0  0  0  0  0  0
  -29.2240  -21.5530   22.9630 N   0  0  0  0  0  0  0  0  0  0  0  0
  -29.9490  -21.9700   21.8970 N   0  0  0  0  0  0  0  0  0  0  0  0
  -31.7130  -18.9450   22.7980 C   0  0  0  0  0  2  0  0  0  0  0  0
  -31.1320  -17.6190   22.2950 C   0  0  0  0  0  2  0  0  0  0  0  0
  -32.0900  -16.8780   21.3600 C   0  0  0  0  0  2  0  0  0  0  0  0
  -31.9070  -14.7640   20.0670 C   0  0  0  0  0  0  0  0  0  0  0  0
  -31.4340  -12.6100   18.9670 C   0  0  0  0  0  2  0  0  0  0  0  0
  -30.4710  -12.7970   17.7810 C   0  0  0  0  0  2  0  0  0  0  0  0
  -29.0020  -12.7620   18.2480 C   0  0  0  0  0  2  0  0  0  0  0  0
  -28.7410  -13.6970   19.4580 C   0  0  0  0  0  3  0  0  0  0  0  0
  -29.8020  -13.4670   20.5560 C   0  0  0  0  0  2  0  0  0  0  0  0
  -31.1410  -13.6500   19.9590 N   0  0  0  0  0  0  0  0  0  0  0  0
  -32.9020  -14.9940   19.3740 O   0  0  0  0  0  0  0  0  0  0  0  0
  -31.5150  -15.5870   21.0360 N   0  0  0  0  0  0  0  0  0  0  0  0
  -30.7180  -15.2850   21.5750 H   0  0  0  0  0  0  0  0  0  0  0  0
  -26.4200  -14.4870   20.2630 C   0  0  0  0  0  0  0  0  0  0  0  0
  -25.3070  -13.7930   20.6550 C   0  0  0  0  0  0  0  0  0  0  0  0
  -25.6570  -12.4110   20.5780 C   0  0  0  0  0  0  0  0  0  0  0  0
  -27.3830  -13.5290   19.9790 N   0  0  0  0  0  0  0  0  0  0  0  0
  -26.9260  -12.2750   20.2210 N   0  0  0  0  0  0  0  0  0  0  0  0
  -24.8400  -11.2050   20.7740 C   0  0  0  0  0  0  0  0  0  0  0  0
  -25.1690  -10.2400   21.7510 C   0  0  0  0  0  3  0  0  0  0  0  0
  -24.3570   -9.0990   21.9330 C   0  0  0  0  0  3  0  0  0  0  0  0
  -23.2020   -8.9160   21.1360 C   0  0  0  0  0  0  0  0  0  0  0  0
  -22.8920   -9.8690   20.1490 C   0  0  0  0  0  3  0  0  0  0  0  0
  -23.7040  -11.0000   19.9650 C   0  0  0  0  0  3  0  0  0  0  0  0
  -22.3720   -7.8230   21.2190 O   0  0  0  0  0  0  0  0  0  0  0  0
  -22.1160   -7.2050   22.4150 C   0  0  0  0  0  0  0  0  0  0  0  0
  -21.5430   -7.9000   23.5030 C   0  0  0  0  0  3  0  0  0  0  0  0
  -21.2300   -7.2120   24.6920 C   0  0  0  0  0  3  0  0  0  0  0  0
  -21.4780   -5.8310   24.7940 C   0  0  0  0  0  0  0  0  0  0  0  0
  -22.0430   -5.1350   23.7080 C   0  0  0  0  0  3  0  0  0  0  0  0
  -22.3590   -5.8210   22.5220 C   0  0  0  0  0  0  0  0  0  0  0  0
  -22.8820   -5.1420   21.4740 F   0  0  0  0  0  0  0  0  0  0  0  0
  -21.1710   -5.1680   25.9340 F   0  0  0  0  0  0  0  0  0  0  0  0
  -23.9640  -14.3740   20.9950 C   0  0  0  0  0  0  0  0  0  0  0  0
  -23.2300  -13.7310   21.8970 N   0  0  0  0  0  0  0  0  0  0  0  0
  -23.5760  -15.4280   20.4940 O   0  0  0  0  0  0  0  0  0  0  0  0
  -23.5590  -12.8830   22.3310 H   0  0  0  0  0  0  0  0  0  0  0  0
  -22.3300  -14.1020   22.1680 H   0  0  0  0  0  0  0  0  0  0  0  0
  -26.6870  -15.8440   20.1080 N   0  0  0  0  0  0  0  0  0  0  0  0
  -25.9920  -16.5610   20.2810 H   0  0  0  0  0  0  0  0  0  0  0  0
  -27.5750  -16.2180   19.7980 H   0  0  0  0  0  0  0  0  0  0  0  0
  -29.7410  -23.2930   21.3490 C   0  0  0  0  0  2  0  0  0  0  0  0
  -28.8100  -23.3350   20.1240 C   0  0  0  0  0  2  0  0  0  0  0  0
  -28.8130  -24.7090   19.4150 C   0  0  0  0  0  2  0  0  0  0  0  0
  -28.6850  -25.8920   20.3940 C   0  0  0  0  0  2  0  0  0  0  0  0
  -28.7280  -27.1720   19.7580 O   0  0  0  0  0  0  0  0  0  0  0  0
  -24.7150  -31.8250   23.3300 C   0  0  0  0  0  0  0  0  0  0  0  0
  -27.5390  -27.8510   19.8260 C   0  0  0  0  0  0  0  0  0  0  0  0
  -23.5570  -30.4980   21.5970 C   0  0  0  0  0  3  0  0  0  0  0  0
  -25.0670  -29.1850   20.0190 C   0  0  0  0  0  0  0  0  0  0  0  0
  -26.0510  -31.0330   21.3840 C   0  0  0  0  0  2  0  0  0  0  0  0
  -26.2040  -29.7300   20.6260 C   0  0  0  0  0  0  0  0  0  0  0  0
  -27.4490  -29.0680   20.5290 C   0  0  0  0  0  3  0  0  0  0  0  0
  -26.3870  -27.3170   19.2100 C   0  0  0  0  0  3  0  0  0  0  0  0
  -25.1510  -27.9760   19.3090 C   0  0  0  0  0  3  0  0  0  0  0  0
  -23.7770  -29.9560   20.1610 C   0  0  0  0  0  2  0  0  0  0  0  0
  -24.7940  -31.1260   22.1640 N   0  0  0  0  0  0  0  0  0  0  0  0
  -23.6320  -31.9810   23.9100 O   0  0  0  0  0  0  0  0  0  0  0  0
  -22.9940  -29.3580   22.4730 C   0  0  0  0  0  0  0  0  0  0  0  0
  -21.6940  -29.0620   22.3010 N   0  0  0  0  0  0  0  0  0  0  0  0
  -23.7190  -28.7490   23.2650 O   0  0  0  0  0  0  0  0  0  0  0  0
  -21.1670  -29.6150   21.6390 H   0  0  0  0  0  0  0  0  0  0  0  0
  -18.4530  -27.4900   22.5830 C   0  0  0  0  0  0  0  0  0  0  0  0
  -20.9540  -28.0040   22.9870 C   0  0  0  0  0  3  0  0  0  0  0  0
  -21.2360  -26.6240   22.3520 C   0  0  0  0  0  2  0  0  0  0  0  0
  -20.2200  -26.2360   21.2720 C   0  0  0  0  0  2  0  0  0  0  0  0
  -18.8040  -26.2010   21.8580 C   0  0  0  0  0  2  0  0  0  0  0  0
  -19.4640  -28.3430   23.1000 C   0  0  0  0  0  0  0  0  0  0  0  0
  -19.0890  -29.5450   23.7370 C   0  0  0  0  0  3  0  0  0  0  0  0
  -17.7330  -29.9000   23.8620 C   0  0  0  0  0  3  0  0  0  0  0  0
  -16.7350  -29.0440   23.3650 C   0  0  0  0  0  3  0  0  0  0  0  0
  -17.0940  -27.8400   22.7310 C   0  0  0  0  0  3  0  0  0  0  0  0
  -25.9730  -32.4780   23.9800 C   0  0  0  0  0  3  0  0  0  0  0  0
  -25.6200  -33.8580   24.3380 N   0  0  0  0  0  0  0  0  0  0  0  0
  -25.9530  -34.9370   23.6170 C   0  0  0  0  0  0  0  0  0  0  0  0
  -26.6610  -34.8770   22.6070 O   0  0  0  0  0  0  0  0  0  0  0  0
  -24.9960  -33.9750   25.1230 H   0  0  0  0  0  0  0  0  0  0  0  0
  -24.1970  -36.6990   23.2430 C   0  0  0  0  0  1  0  0  0  0  0  0
  -25.4140  -36.3000   24.0920 C   0  0  0  0  0  3  0  0  0  0  0  0
  -27.4910  -37.2140   25.0320 C   0  0  0  0  0  1  0  0  0  0  0  0
  -26.4250  -37.3800   24.0480 N   0  0  0  0  0  0  0  0  0  0  0  0
  -25.9890  -38.2860   24.2030 H   0  0  0  0  0  0  0  0  0  0  0  0
  -26.5030  -31.6880   25.2410 C   0  0  1  0  0  0  0  0  0  0  0  0
  -25.4040  -31.3780   26.2840 C   0  0  0  0  0  1  0  0  0  0  0  0
  -27.1440  -30.3460   24.8150 C   0  0  0  0  0  1  0  0  0  0  0  0
  -27.6120  -32.5060   25.9450 C   0  0  0  0  0  1  0  0  0  0  0  0
  1  5  1  0
  1  2  2  0
  2  6  1  0
  2  3  1  0
  4  3  2  0
  5  4  1  0
  7  6  1  0
  8  7  1  0
  9 17  1  0
 10 15  1  0
 11 12  1  0
 11 10  1  0
 13 12  1  0
 13 22  1  0
 13 14  1  0
 15  9  1  0
 15 14  1  0
 16  9  2  0
 17  8  1  0
 17 18  1  0
 19 20  2  0
 20 39  1  0
 21 20  1  0
 21 24  1  0
 22 23  1  0
 22 19  1  0
 23 21  2  0
 24 25  1  0
 25 26  2  0
 27 30  1  0
 27 26  1  0
 28 27  2  0
 29 28  1  0
 29 24  2  0
 30 31  1  0
 31 36  2  0
 31 32  1  0
 32 33  2  0
 33 34  1  0
 34 38  1  0
 35 34  2  0
 36 35  1  0
 37 36  1  0
 39 40  1  0
 40 43  1  0
 40 42  1  0
 41 39  2  0
 44 19  1  0
 44 45  1  0
 46 44  1  0
 47  5  1  0
 48 47  1  0
 49 48  1  0
 49 50  1  0
 51 53  1  0
 51 50  1  0
 52 63  2  0
 53 58  1  0
 54 62  1  0
 54 64  1  0
 55 61  1  0
 55 57  1  0
 56 62  1  0
 57 56  1  0
 58 57  2  0
 59 60  1  0
 59 53  2  0
 60 55  2  0
 61 54  1  0
 62 52  1  0
 64 66  2  0
 65 64  1  0
 67 65  1  0
 68 77  2  0
 68 73  1  0
 69 65  1  0
 69 73  1  0
 70 69  1  0
 71 72  1  0
 71 70  1  0
 72 68  1  0
 73 74  2  0
 74 75  1  0
 76 75  2  0
 77 76  1  0
 78 52  1  0
 78 79  1  0
 78 88  1  0
 79 82  1  0
 80 84  1  0
 80 79  1  0
 81 80  2  0
 84 83  1  0
 86 84  1  0
 86 87  1  0
 86 85  1  0
 88 91  1  1
 88 89  1  0
 90 88  1  0
M  ISO  4   9 100  17 100  50 101  51 101
M  END
>  <TORSDO>  (77) 
F 23

>  <SCORE>  (77) 
-9.132

>  <name>  (77) 
77

>  <ligand_id>  (77) 
77

>  <original_smiles>  (77) 
[H]c1c([H])c([H])c2c(c1[H])C([H])([H])C([H])([H])C([H])([H])C2([H])N([H])C(=O)C1([H])N(C(=O)C([H])(N([H])C(=O)C([H])(N([H])C([H])([H])[H])C([H])([H])[H])C(C([H])([H])[H])(C([H])([H])[H])C([H])([H])[H])C([H])([H])c2c([H])c(OC([H])([H])C([H])([H])C([H])([H])C([H])([H])n3nnc(C([H])([H])C([H])([H])C([H])([H])N([H])C(=O)N4C([H])([H])C([H])([H])C([H])([H])C([H])(n5nc(-c6c([H])c([H])c(Oc7c([H])c([H])c(F)c([H])c7F)c([H])c6[H])c(C(=O)N([H])[H])c5N([H])[H])C4([H])[H])c3[H])c([H])c([H])c2C1([H])[H]

>  <smiles>  (77) 
[H]c1c([H])c([H])c2c(c1[H])C([H])([H])C([H])([H])C([H])([H])C2([H])N([H])C(=O)C1([H])N(C(=O)C([H])(N([H])C(=O)C([H])(N([H])C([H])([H])[H])C([H])([H])[H])C(C([H])([H])[H])(C([H])([H])[H])C([H])([H])[H])C([H])([H])c2c([H])c(OC([H])([H])C([H])([H])C([H])([H])C([H])([H])n3nnc(C([H])([H])C([H])([H])C([H])([H])N([H])C(=O)N4C([H])([H])C([H])([H])C([H])([H])C([H])(n5nc(-c6c([H])c([H])c(Oc7c([H])c([H])c(F)c([H])c7F)c([H])c6[H])c(C(=O)N([H])[H])c5N([H])[H])C4([H])[H])c3[H])c([H])c([H])c2C1([H])[H]

$$$$
78:0:0
     RDKit          3D

 95102  0  0  1  0  0  0  0  0999 V2000
  -30.8230  -21.9520   18.7970 C   0  0  0  0  0  3  0  0  0  0  0  0
  -31.9580  -22.6090   18.2540 O   0  0  0  0  0  0  0  0  0  0  0  0
  -31.8750  -23.5380   18.4420 H   0  0  0  0  0  0  0  0  0  0  0  0
  -32.0420  -19.7200   19.0580 C   0  0  0  0  0  1  0  0  0  0  0  0
  -30.8410  -20.4390   18.3990 C   0  0  0  0  0  3  0  0  0  0  0  0
  -28.4980  -20.2020   17.6040 C   0  0  0  0  0  1  0  0  0  0  0  0
  -29.5050  -19.7780   18.6190 N   0  0  1  0  0  4  0  0  0  0  0  0
  -29.1500  -20.1060   19.5030 H   0  0  0  0  0  0  0  0  0  0  0  0
  -29.5000  -18.2880   18.7110 C   0  0  0  0  0  2  0  0  0  0  0  0
  -29.8080  -17.7080   20.1140 C   0  0  0  0  0  2  0  0  0  0  0  0
  -29.1960  -16.3060   20.2920 C   0  0  0  0  0  2  0  0  0  0  0  0
  -30.6770  -14.4350   20.5620 C   0  0  0  0  0  0  0  0  0  0  0  0
  -30.3560  -12.3230   19.3420 C   0  0  0  0  0  2  0  0  0  0  0  0
  -29.4100  -12.5380   18.1440 C   0  0  0  0  0  2  0  0  0  0  0  0
  -27.9390  -12.3790   18.5750 C   0  0  0  0  0  2  0  0  0  0  0  0
  -27.5940  -13.2110   19.8380 C   0  0  0  0  0  3  0  0  0  0  0  0
  -28.6480  -12.9910   20.9480 C   0  0  0  0  0  2  0  0  0  0  0  0
  -29.9780  -13.2850   20.3850 N   0  0  0  0  0  0  0  0  0  0  0  0
  -31.7990  -14.6390   20.1000 O   0  0  0  0  0  0  0  0  0  0  0  0
  -30.0090  -15.4360   21.1460 N   0  0  0  0  0  0  0  0  0  0  0  0
  -30.6050  -15.9760   21.7560 H   0  0  0  0  0  0  0  0  0  0  0  0
  -25.1910  -13.8230   20.5270 C   0  0  0  0  0  0  0  0  0  0  0  0
  -24.1240  -13.0480   20.8980 C   0  0  0  0  0  0  0  0  0  0  0  0
  -24.5920  -11.6990   20.8830 C   0  0  0  0  0  0  0  0  0  0  0  0
  -26.2410  -12.9420   20.3130 N   0  0  0  0  0  0  0  0  0  0  0  0
  -25.8840  -11.6620   20.5840 N   0  0  0  0  0  0  0  0  0  0  0  0
  -23.8750  -10.4350   21.0780 C   0  0  0  0  0  0  0  0  0  0  0  0
  -24.3200   -9.4720   22.0110 C   0  0  0  0  0  3  0  0  0  0  0  0
  -23.6030   -8.2710   22.1930 C   0  0  0  0  0  3  0  0  0  0  0  0
  -22.4300   -8.0230   21.4430 C   0  0  0  0  0  0  0  0  0  0  0  0
  -22.0050   -8.9750   20.4980 C   0  0  0  0  0  3  0  0  0  0  0  0
  -22.7220  -10.1680   20.3140 C   0  0  0  0  0  3  0  0  0  0  0  0
  -21.6840   -6.8730   21.5340 O   0  0  0  0  0  0  0  0  0  0  0  0
  -21.6580   -6.1230   22.6820 C   0  0  0  0  0  0  0  0  0  0  0  0
  -21.2520   -6.6680   23.9200 C   0  0  0  0  0  3  0  0  0  0  0  0
  -21.1710   -5.8450   25.0600 C   0  0  0  0  0  3  0  0  0  0  0  0
  -21.4880   -4.4760   24.9640 C   0  0  0  0  0  0  0  0  0  0  0  0
  -21.8870   -3.9300   23.7310 C   0  0  0  0  0  3  0  0  0  0  0  0
  -21.9680   -4.7510   22.5940 C   0  0  0  0  0  0  0  0  0  0  0  0
  -22.3330   -4.2160   21.4040 F   0  0  0  0  0  0  0  0  0  0  0  0
  -21.4040   -3.6830   26.0580 F   0  0  0  0  0  0  0  0  0  0  0  0
  -22.7220  -13.5200   21.1560 C   0  0  0  0  0  0  0  0  0  0  0  0
  -21.9910  -12.8260   22.0210 N   0  0  0  0  0  0  0  0  0  0  0  0
  -22.2810  -14.5380   20.6230 O   0  0  0  0  0  0  0  0  0  0  0  0
  -22.3610  -12.0030   22.4730 H   0  0  0  0  0  0  0  0  0  0  0  0
  -21.0500  -13.1260   22.2360 H   0  0  0  0  0  0  0  0  0  0  0  0
  -25.3490  -15.1920   20.3360 N   0  0  0  0  0  0  0  0  0  0  0  0
  -24.5800  -15.8460   20.4340 H   0  0  0  0  0  0  0  0  0  0  0  0
  -26.2020  -15.6260   20.0110 H   0  0  0  0  0  0  0  0  0  0  0  0
  -31.9780  -22.6920   21.0340 C   0  0  0  0  0  1  0  0  0  0  0  0
  -30.6850  -22.2310   20.3290 C   0  0  0  0  0  3  0  0  0  0  0  0
  -29.4870  -23.1480   20.6540 C   0  0  0  0  0  2  0  0  0  0  0  0
  -29.6570  -24.6450   20.3270 C   0  0  0  0  0  2  0  0  0  0  0  0
  -28.2900  -25.3160   20.1550 C   0  0  0  0  0  2  0  0  0  0  0  0
  -28.3980  -26.7360   20.1410 O   0  0  0  0  0  0  0  0  0  0  0  0
  -24.5740  -31.8640   23.2280 C   0  0  0  0  0  0  0  0  0  0  0  0
  -27.2090  -27.4320   20.1430 C   0  0  0  0  0  0  0  0  0  0  0  0
  -23.3610  -30.4630   21.5910 C   0  0  0  0  0  3  0  0  0  0  0  0
  -24.8070  -28.9250   20.1680 C   0  0  0  0  0  0  0  0  0  0  0  0
  -25.8840  -30.8250   21.3830 C   0  0  0  0  0  2  0  0  0  0  0  0
  -25.9670  -29.4540   20.7460 C   0  0  0  0  0  0  0  0  0  0  0  0
  -27.1710  -28.7160   20.7270 C   0  0  0  0  0  3  0  0  0  0  0  0
  -26.0240  -26.9110   19.5670 C   0  0  0  0  0  3  0  0  0  0  0  0
  -24.8290  -27.6520   19.5790 C   0  0  0  0  0  3  0  0  0  0  0  0
  -23.5640  -29.7830   20.2120 C   0  0  0  0  0  2  0  0  0  0  0  0
  -24.6250  -31.0640   22.1260 N   0  0  0  0  0  0  0  0  0  0  0  0
  -23.4950  -32.1390   23.7710 O   0  0  0  0  0  0  0  0  0  0  0  0
  -22.7110  -29.4430   22.5530 C   0  0  0  0  0  0  0  0  0  0  0  0
  -21.3860  -29.2650   22.4290 N   0  0  0  0  0  0  0  0  0  0  0  0
  -23.3950  -28.8160   23.3650 O   0  0  0  0  0  0  0  0  0  0  0  0
  -20.8950  -29.8250   21.7450 H   0  0  0  0  0  0  0  0  0  0  0  0
  -18.0070  -28.0910   22.9350 C   0  0  0  0  0  0  0  0  0  0  0  0
  -20.5670  -28.3320   23.2020 C   0  0  0  0  0  3  0  0  0  0  0  0
  -20.6590  -26.9010   22.6250 C   0  0  0  0  0  2  0  0  0  0  0  0
  -19.5520  -26.5840   21.6130 C   0  0  0  0  0  2  0  0  0  0  0  0
  -18.1730  -26.7400   22.2610 C   0  0  0  0  0  2  0  0  0  0  0  0
  -19.1310  -28.8450   23.3630 C   0  0  0  0  0  0  0  0  0  0  0  0
  -18.9240  -30.1120   23.9530 C   0  0  0  0  0  3  0  0  0  0  0  0
  -17.6230  -30.6220   24.1190 C   0  0  0  0  0  3  0  0  0  0  0  0
  -16.5120  -29.8640   23.7090 C   0  0  0  0  0  3  0  0  0  0  0  0
  -16.7050  -28.6010   23.1230 C   0  0  0  0  0  3  0  0  0  0  0  0
  -25.8650  -32.4910   23.8440 C   0  0  0  0  0  3  0  0  0  0  0  0
  -26.3870  -31.7170   25.1160 C   0  0  1  0  0  0  0  0  0  0  0  0
  -25.3000  -31.4800   26.1900 C   0  0  0  0  0  1  0  0  0  0  0  0
  -26.9650  -30.3400   24.7160 C   0  0  0  0  0  1  0  0  0  0  0  0
  -27.5430  -32.5070   25.7730 C   0  0  0  0  0  1  0  0  0  0  0  0
  -25.5620  -33.8900   24.1730 N   0  0  0  0  0  0  0  0  0  0  0  0
  -25.8960  -34.9380   23.4100 C   0  0  0  0  0  0  0  0  0  0  0  0
  -26.5640  -34.8300   22.3780 O   0  0  0  0  0  0  0  0  0  0  0  0
  -24.9700  -34.0480   24.9760 H   0  0  0  0  0  0  0  0  0  0  0  0
  -24.1740  -36.7350   23.0490 C   0  0  0  0  0  1  0  0  0  0  0  0
  -25.4110  -36.3290   23.8640 C   0  0  0  0  0  3  0  0  0  0  0  0
  -27.5480  -37.2070   24.6970 C   0  0  0  0  0  1  0  0  0  0  0  0
  -26.4490  -37.3780   23.7520 N   0  0  0  0  0  0  0  0  0  0  0  0
  -26.0450  -38.3010   23.8980 H   0  0  0  0  0  0  0  0  0  0  0  0
  1  2  1  0
  1 51  1  0
  2  3  1  0
  5  7  1  0
  5  1  1  0
  5  4  1  0
  6  7  1  0
  7  9  1  0
  7  8  1  1
  9 10  1  0
 10 11  1  0
 11 20  1  0
 12 20  1  0
 13 18  1  0
 14 15  1  0
 14 13  1  0
 16 15  1  0
 16 25  1  0
 16 17  1  0
 18 12  1  0
 18 17  1  0
 19 12  2  0
 20 21  1  0
 22 23  2  0
 23 42  1  0
 24 23  1  0
 24 27  1  0
 25 22  1  0
 25 26  1  0
 26 24  2  0
 27 28  1  0
 28 29  2  0
 30 33  1  0
 30 29  1  0
 31 30  2  0
 32 31  1  0
 32 27  2  0
 33 34  1  0
 34 35  1  0
 35 36  2  0
 37 36  1  0
 37 41  1  0
 38 37  2  0
 39 34  2  0
 39 38  1  0
 40 39  1  0
 42 43  1  0
 43 46  1  0
 43 45  1  0
 44 42  2  0
 47 48  1  0
 47 22  1  0
 49 47  1  0
 51 52  1  0
 51 50  1  0
 53 52  1  0
 54 53  1  0
 55 57  1  0
 55 54  1  0
 56 67  2  0
 57 62  1  0
 58 66  1  0
 58 68  1  0
 59 65  1  0
 59 61  1  0
 60 66  1  0
 61 60  1  0
 62 61  2  0
 63 64  1  0
 63 57  2  0
 64 59  2  0
 65 58  1  0
 66 56  1  0
 68 70  2  0
 69 68  1  0
 71 69  1  0
 72 81  2  0
 72 77  1  0
 73 69  1  0
 73 77  1  0
 74 73  1  0
 75 76  1  0
 75 74  1  0
 76 72  1  0
 77 78  2  0
 78 79  1  0
 80 79  2  0
 81 80  1  0
 82 56  1  0
 82 87  1  0
 82 83  1  0
 83 86  1  1
 83 84  1  0
 85 83  1  0
 87 90  1  0
 88 92  1  0
 88 87  1  0
 89 88  2  0
 92 91  1  0
 94 92  1  0
 94 95  1  0
 94 93  1  0
M  ISO  4  12 100  20 100  54 101  55 101
M  END
>  <TORSDO>  (78) 
F 26

>  <SCORE>  (78) 
-11.898

>  <name>  (78) 
78

>  <ligand_id>  (78) 
78

>  <original_smiles>  (78) 
[H]OC([H])(C([H])(C([H])([H])[H])C([H])([H])C([H])([H])C([H])([H])Oc1c([H])c([H])c2c(c1[H])C([H])([H])N(C(=O)C([H])(N([H])C(=O)C([H])(N([H])C([H])([H])[H])C([H])([H])[H])C(C([H])([H])[H])(C([H])([H])[H])C([H])([H])[H])C([H])(C(=O)N([H])C1([H])c3c([H])c([H])c([H])c([H])c3C([H])([H])C([H])([H])C1([H])[H])C2([H])[H])C([H])(C([H])([H])[H])[N+]([H])(C([H])([H])[H])C([H])([H])C([H])([H])C([H])([H])N([H])C(=O)N1C([H])([H])C([H])([H])C([H])([H])C([H])(n2nc(-c3c([H])c([H])c(Oc4c([H])c([H])c(F)c([H])c4F)c([H])c3[H])c(C(=O)N([H])[H])c2N([H])[H])C1([H])[H]

>  <smiles>  (78) 
[H]OC([H])(C([H])(C([H])([H])[H])C([H])([H])C([H])([H])C([H])([H])Oc1c([H])c([H])c2c(c1[H])C([H])([H])N(C(=O)C([H])(N([H])C(=O)C([H])(N([H])C([H])([H])[H])C([H])([H])[H])C(C([H])([H])[H])(C([H])([H])[H])C([H])([H])[H])C([H])(C(=O)N([H])C1([H])c3c([H])c([H])c([H])c([H])c3C([H])([H])C([H])([H])C1([H])[H])C2([H])[H])C([H])(C([H])([H])[H])[N+]([H])(C([H])([H])[H])C([H])([H])C([H])([H])C([H])([H])N([H])C(=O)N1C([H])([H])C([H])([H])C([H])([H])C([H])(n2nc(-c3c([H])c([H])c(Oc4c([H])c([H])c(F)c([H])c4F)c([H])c3[H])c(C(=O)N([H])[H])c2N([H])[H])C1([H])[H]

$$$$
79:0:0
     RDKit          3D

 98106  0  0  1  0  0  0  0  0999 V2000
  -28.7880  -23.9350   20.8090 C   0  0  0  0  0  3  0  0  0  0  0  0
  -26.9190  -22.2550   19.7490 C   0  0  0  0  0  3  0  0  0  0  0  0
  -28.0460  -24.3940   19.6920 C   0  0  0  0  0  0  0  0  0  0  0  0
  -27.1350  -23.4770   19.0630 C   0  0  0  0  0  0  0  0  0  0  0  0
  -28.5670  -22.6400   21.3190 C   0  0  0  0  0  0  0  0  0  0  0  0
  -27.6050  -21.8450   20.8300 N   0  0  0  0  0  0  0  0  0  0  0  0
  -25.4290  -24.7980   17.5890 C   0  0  0  0  0  1  0  0  0  0  0  0
  -25.6970  -22.4050   17.1960 C   0  0  0  0  0  1  0  0  0  0  0  0
  -27.5770  -23.8530   16.5940 C   0  0  0  0  0  1  0  0  0  0  0  0
  -26.4750  -23.6620   17.6600 C   0  0  2  0  0  0  0  0  0  0  0  0
  -28.3390  -25.8250   19.2030 C   0  0  0  0  0  2  0  0  0  0  0  0
  -28.1600  -26.8660   20.1840 O   0  0  0  0  0  0  0  0  0  0  0  0
  -24.5850  -32.0650   23.4920 C   0  0  0  0  0  0  0  0  0  0  0  0
  -26.9910  -27.6060   20.2290 C   0  0  0  0  0  0  0  0  0  0  0  0
  -23.2840  -30.7510   21.8480 C   0  0  0  0  0  3  0  0  0  0  0  0
  -24.6440  -29.1980   20.3470 C   0  0  0  0  0  0  0  0  0  0  0  0
  -25.8110  -31.0230   21.5860 C   0  0  0  0  0  2  0  0  0  0  0  0
  -25.8340  -29.6640   20.9180 C   0  0  0  0  0  0  0  0  0  0  0  0
  -27.0060  -28.8750   20.8560 C   0  0  0  0  0  3  0  0  0  0  0  0
  -25.7720  -27.1420   19.6880 C   0  0  0  0  0  3  0  0  0  0  0  0
  -24.6100  -27.9360   19.7260 C   0  0  0  0  0  3  0  0  0  0  0  0
  -23.4310  -30.0970   20.4490 C   0  0  0  0  0  2  0  0  0  0  0  0
  -24.5810  -31.2910   22.3680 N   0  0  0  0  0  0  0  0  0  0  0  0
  -23.5300  -32.3630   24.0710 O   0  0  0  0  0  0  0  0  0  0  0  0
  -22.6220  -29.7320   22.8030 C   0  0  0  0  0  0  0  0  0  0  0  0
  -21.3040  -29.5280   22.6400 N   0  0  0  0  0  0  0  0  0  0  0  0
  -23.2880  -29.1280   23.6460 O   0  0  0  0  0  0  0  0  0  0  0  0
  -20.8260  -30.0720   21.9350 H   0  0  0  0  0  0  0  0  0  0  0  0
  -17.9660  -28.1890   22.9570 C   0  0  0  0  0  0  0  0  0  0  0  0
  -20.4800  -28.5830   23.3930 C   0  0  0  0  0  3  0  0  0  0  0  0
  -20.6900  -27.1370   22.8900 C   0  0  0  0  0  2  0  0  0  0  0  0
  -19.6790  -26.7170   21.8180 C   0  0  0  0  0  2  0  0  0  0  0  0
  -18.2510  -26.8200   22.3600 C   0  0  0  0  0  2  0  0  0  0  0  0
  -19.0130  -29.0220   23.4270 C   0  0  0  0  0  0  0  0  0  0  0  0
  -18.6960  -30.2980   23.9410 C   0  0  0  0  0  3  0  0  0  0  0  0
  -17.3610  -30.7430   23.9900 C   0  0  0  0  0  3  0  0  0  0  0  0
  -16.3260  -29.9060   23.5380 C   0  0  0  0  0  3  0  0  0  0  0  0
  -16.6290  -28.6320   23.0270 C   0  0  0  0  0  3  0  0  0  0  0  0
  -25.9120  -32.6330   24.0880 C   0  0  0  0  0  3  0  0  0  0  0  0
  -25.6740  -34.0390   24.4360 N   0  0  0  0  0  0  0  0  0  0  0  0
  -26.0400  -35.0810   23.6750 C   0  0  0  0  0  0  0  0  0  0  0  0
  -26.6870  -34.9550   22.6320 O   0  0  0  0  0  0  0  0  0  0  0  0
  -25.0990  -34.2110   25.2470 H   0  0  0  0  0  0  0  0  0  0  0  0
  -24.3830  -36.9460   23.3740 C   0  0  0  0  0  1  0  0  0  0  0  0
  -25.6260  -36.4840   24.1520 C   0  0  0  0  0  3  0  0  0  0  0  0
  -27.8190  -37.2710   24.9330 C   0  0  0  0  0  1  0  0  0  0  0  0
  -26.7010  -37.4930   24.0180 N   0  0  0  0  0  0  0  0  0  0  0  0
  -26.3380  -38.4280   24.1780 H   0  0  0  0  0  0  0  0  0  0  0  0
  -26.4200  -31.8260   25.3460 C   0  0  1  0  0  0  0  0  0  0  0  0
  -25.3360  -31.6090   26.4270 C   0  0  0  0  0  1  0  0  0  0  0  0
  -26.9510  -30.4380   24.9210 C   0  0  0  0  0  1  0  0  0  0  0  0
  -27.6090  -32.5690   26.0000 C   0  0  0  0  0  1  0  0  0  0  0  0
  -29.3340  -22.0360   22.5000 C   0  0  0  0  0  2  0  0  0  0  0  0
  -30.3340  -20.8900   22.1540 C   0  0  0  0  0  2  0  0  0  0  0  0
  -29.8200  -19.9710   21.1120 N   0  0  0  0  0  4  0  0  0  0  0  0
  -30.4180  -20.0340   20.3030 H   0  0  0  0  0  0  0  0  0  0  0  0
  -28.9300  -20.3620   20.8280 H   0  0  0  0  0  0  0  0  0  0  0  0
  -29.6120  -18.5510   21.4670 C   0  0  0  0  0  2  0  0  0  0  0  0
  -30.7860  -17.6440   21.0440 C   0  0  0  0  0  2  0  0  0  0  0  0
  -30.3230  -16.2010   20.7550 C   0  0  0  0  0  2  0  0  0  0  0  0
  -31.6610  -14.3320   19.8980 C   0  0  0  0  0  0  0  0  0  0  0  0
  -31.1380  -12.1120   18.9710 C   0  0  0  0  0  2  0  0  0  0  0  0
  -30.1720  -12.2050   17.7750 C   0  0  0  0  0  2  0  0  0  0  0  0
  -28.7080  -12.2110   18.2570 C   0  0  0  0  0  2  0  0  0  0  0  0
  -28.4560  -13.2310   19.3980 C   0  0  0  0  0  3  0  0  0  0  0  0
  -29.5320  -13.0840   20.4980 C   0  0  0  0  0  2  0  0  0  0  0  0
  -30.8610  -13.2330   19.8790 N   0  0  0  0  0  0  0  0  0  0  0  0
  -32.6730  -14.4480   19.2060 O   0  0  0  0  0  0  0  0  0  0  0  0
  -31.4250  -15.2420   20.8450 N   0  0  0  0  0  0  0  0  0  0  0  0
  -32.2860  -15.6830   21.1340 H   0  0  0  0  0  0  0  0  0  0  0  0
  -26.1720  -14.0950   20.2180 C   0  0  0  0  0  0  0  0  0  0  0  0
  -25.0410  -13.4390   20.6310 C   0  0  0  0  0  0  0  0  0  0  0  0
  -25.3510  -12.0460   20.5740 C   0  0  0  0  0  0  0  0  0  0  0  0
  -27.1040  -13.1060   19.9380 N   0  0  0  0  0  0  0  0  0  0  0  0
  -26.6150  -11.8700   20.2070 N   0  0  0  0  0  0  0  0  0  0  0  0
  -24.5010  -10.8670   20.7900 C   0  0  0  0  0  0  0  0  0  0  0  0
  -24.8460   -9.8730   21.7330 C   0  0  0  0  0  3  0  0  0  0  0  0
  -24.0070   -8.7570   21.9380 C   0  0  0  0  0  3  0  0  0  0  0  0
  -22.8050   -8.6300   21.2010 C   0  0  0  0  0  0  0  0  0  0  0  0
  -22.4770   -9.6110   20.2490 C   0  0  0  0  0  3  0  0  0  0  0  0
  -23.3170  -10.7180   20.0420 C   0  0  0  0  0  3  0  0  0  0  0  0
  -21.9410   -7.5680   21.3150 O   0  0  0  0  0  0  0  0  0  0  0  0
  -21.7980   -6.8810   22.4940 C   0  0  0  0  0  0  0  0  0  0  0  0
  -21.4130   -7.5260   23.6900 C   0  0  0  0  0  3  0  0  0  0  0  0
  -21.2060   -6.7720   24.8620 C   0  0  0  0  0  3  0  0  0  0  0  0
  -21.3730   -5.3740   24.8390 C   0  0  0  0  0  0  0  0  0  0  0  0
  -21.7490   -4.7300   23.6460 C   0  0  0  0  0  3  0  0  0  0  0  0
  -21.9550   -5.4820   22.4760 C   0  0  0  0  0  0  0  0  0  0  0  0
  -22.2970   -4.8530   21.3250 F   0  0  0  0  0  0  0  0  0  0  0  0
  -21.1680   -4.6460   25.9610 F   0  0  0  0  0  0  0  0  0  0  0  0
  -23.7180  -14.0630   20.9690 C   0  0  0  0  0  0  0  0  0  0  0  0
  -22.9630  -13.4490   21.8760 N   0  0  0  0  0  0  0  0  0  0  0  0
  -23.3610  -15.1250   20.4610 O   0  0  0  0  0  0  0  0  0  0  0  0
  -23.2680  -12.5900   22.3090 H   0  0  0  0  0  0  0  0  0  0  0  0
  -22.0720  -13.8460   22.1410 H   0  0  0  0  0  0  0  0  0  0  0  0
  -26.4710  -15.4400   20.0370 N   0  0  0  0  0  0  0  0  0  0  0  0
  -25.7690  -16.1630   20.1490 H   0  0  0  0  0  0  0  0  0  0  0  0
  -27.3320  -15.7770   19.6270 H   0  0  0  0  0  0  0  0  0  0  0  0
  1  5  1  0
  2  6  1  0
  3  1  2  0
  4  3  1  0
  4  2  2  0
  5 53  1  0
  6  5  2  0
 10  7  1  1
  8 10  1  0
  9 10  1  0
 10  4  1  0
 11  3  1  0
 11 12  1  0
 12 14  1  0
 13 24  2  0
 14 19  1  0
 15 23  1  0
 15 25  1  0
 16 22  1  0
 16 18  1  0
 17 23  1  0
 18 17  1  0
 19 18  2  0
 20 21  1  0
 20 14  2  0
 21 16  2  0
 22 15  1  0
 23 13  1  0
 25 27  2  0
 26 25  1  0
 28 26  1  0
 29 38  2  0
 29 34  1  0
 30 26  1  0
 30 34  1  0
 31 30  1  0
 32 33  1  0
 32 31  1  0
 33 29  1  0
 34 35  2  0
 35 36  1  0
 37 36  2  0
 38 37  1  0
 39 13  1  0
 39 40  1  0
 39 49  1  0
 40 43  1  0
 41 45  1  0
 41 40  1  0
 42 41  2  0
 45 44  1  0
 47 45  1  0
 47 48  1  0
 47 46  1  0
 49 52  1  1
 49 50  1  0
 51 49  1  0
 54 53  1  0
 55 58  1  0
 55 54  1  0
 56 55  1  0
 57 55  1  0
 59 58  1  0
 60 69  1  0
 60 59  1  0
 61 69  1  0
 62 67  1  0
 63 64  1  0
 63 62  1  0
 65 64  1  0
 65 74  1  0
 65 66  1  0
 67 61  1  0
 67 66  1  0
 68 61  2  0
 69 70  1  0
 71 72  2  0
 72 91  1  0
 73 72  1  0
 73 76  1  0
 74 75  1  0
 74 71  1  0
 75 73  2  0
 76 77  1  0
 77 78  2  0
 79 82  1  0
 79 78  1  0
 80 79  2  0
 81 80  1  0
 81 76  2  0
 82 83  1  0
 83 84  1  0
 84 85  2  0
 86 85  1  0
 86 90  1  0
 87 86  2  0
 88 83  2  0
 88 87  1  0
 89 88  1  0
 91 92  1  0
 92 95  1  0
 92 94  1  0
 93 91  2  0
 96 97  1  0
 96 71  1  0
 98 96  1  0
M  ISO  4  11 101  12 101  61 100  69 100
M  END
>  <TORSDO>  (79) 
F 24

>  <SCORE>  (79) 
-10.785

>  <name>  (79) 
79

>  <ligand_id>  (79) 
79

>  <original_smiles>  (79) 
[H]c1nc(C([H])([H])C([H])([H])[N+]([H])([H])C([H])([H])C([H])([H])C([H])([H])N([H])C(=O)N2C([H])([H])C([H])([H])C([H])([H])C([H])(n3nc(-c4c([H])c([H])c(Oc5c([H])c([H])c(F)c([H])c5F)c([H])c4[H])c(C(=O)N([H])[H])c3N([H])[H])C2([H])[H])c([H])c(C([H])([H])Oc2c([H])c([H])c3c(c2[H])C([H])([H])N(C(=O)C([H])(N([H])C(=O)C([H])(N([H])C([H])([H])[H])C([H])([H])[H])C(C([H])([H])[H])(C([H])([H])[H])C([H])([H])[H])C([H])(C(=O)N([H])C2([H])c4c([H])c([H])c([H])c([H])c4C([H])([H])C([H])([H])C2([H])[H])C3([H])[H])c1C(C([H])([H])[H])(C([H])([H])[H])C([H])([H])[H]

>  <smiles>  (79) 
[H]c1nc(C([H])([H])C([H])([H])[N+]([H])([H])C([H])([H])C([H])([H])C([H])([H])N([H])C(=O)N2C([H])([H])C([H])([H])C([H])([H])C([H])(n3nc(-c4c([H])c([H])c(Oc5c([H])c([H])c(F)c([H])c5F)c([H])c4[H])c(C(=O)N([H])[H])c3N([H])[H])C2([H])[H])c([H])c(C([H])([H])Oc2c([H])c([H])c3c(c2[H])C([H])([H])N(C(=O)C([H])(N([H])C(=O)C([H])(N([H])C([H])([H])[H])C([H])([H])[H])C(C([H])([H])[H])(C([H])([H])[H])C([H])([H])[H])C([H])(C(=O)N([H])C2([H])c4c([H])c([H])c([H])c([H])c4C([H])([H])C([H])([H])C2([H])[H])C3([H])[H])c1C(C([H])([H])[H])(C([H])([H])[H])C([H])([H])[H]

$$$$
80:0:0
     RDKit          3D

 91 98  0  0  1  0  0  0  0  0999 V2000
  -29.4910  -21.5670   22.4050 C   0  0  0  0  0  1  0  0  0  0  0  0
  -29.0750  -21.2900   20.9410 C   0  0  0  0  0  3  0  0  0  0  0  0
  -31.3390  -20.3300   20.4680 C   0  0  0  0  0  1  0  0  0  0  0  0
  -29.8720  -20.1140   20.3570 N   0  0  1  0  0  4  0  0  0  0  0  0
  -29.6600  -20.1190   19.3690 H   0  0  0  0  0  0  0  0  0  0  0  0
  -29.4810  -18.7140   20.8310 C   0  0  0  0  0  2  0  0  0  0  0  0
  -30.1690  -17.4230   20.1500 C   0  0  0  0  0  3  0  0  0  0  0  0
  -30.7400  -18.1320   17.7000 C   0  0  0  0  0  1  0  0  0  0  0  0
  -28.3750  -17.3840   18.2470 C   0  0  0  0  0  1  0  0  0  0  0  0
  -29.8650  -17.2660   18.6210 C   0  0  0  0  0  3  0  0  0  0  0  0
  -29.8770  -16.0440   20.9110 C   0  0  0  0  0  2  0  0  0  0  0  0
  -30.6620  -14.7340   20.4820 C   0  0  0  0  0  0  0  0  0  0  0  0
  -30.4520  -12.5210   19.3800 C   0  0  0  0  0  2  0  0  0  0  0  0
  -29.5320  -12.6700   18.1480 C   0  0  0  0  0  2  0  0  0  0  0  0
  -28.0510  -12.4990   18.5420 C   0  0  0  0  0  2  0  0  0  0  0  0
  -27.6700  -13.3430   19.7880 C   0  0  0  0  0  3  0  0  0  0  0  0
  -28.7070  -13.1970   20.9230 C   0  0  0  0  0  2  0  0  0  0  0  0
  -30.0320  -13.5230   20.3760 N   0  0  0  0  0  0  0  0  0  0  0  0
  -31.8320  -14.8590   20.1090 O   0  0  0  0  0  0  0  0  0  0  0  0
  -25.2660  -13.9440   20.4600 C   0  0  0  0  0  0  0  0  0  0  0  0
  -24.1950  -13.1720   20.8160 C   0  0  0  0  0  0  0  0  0  0  0  0
  -24.6610  -11.8210   20.8080 C   0  0  0  0  0  0  0  0  0  0  0  0
  -26.3150  -13.0620   20.2490 N   0  0  0  0  0  0  0  0  0  0  0  0
  -25.9570  -11.7820   20.5220 N   0  0  0  0  0  0  0  0  0  0  0  0
  -23.9350  -10.5600   20.9970 C   0  0  0  0  0  0  0  0  0  0  0  0
  -24.3480   -9.6070   21.9540 C   0  0  0  0  0  3  0  0  0  0  0  0
  -23.6230   -8.4080   22.1280 C   0  0  0  0  0  3  0  0  0  0  0  0
  -22.4710   -8.1550   21.3450 C   0  0  0  0  0  0  0  0  0  0  0  0
  -22.0790   -9.0950   20.3770 C   0  0  0  0  0  3  0  0  0  0  0  0
  -22.8040  -10.2860   20.2020 C   0  0  0  0  0  3  0  0  0  0  0  0
  -21.7210   -7.0060   21.4250 O   0  0  0  0  0  0  0  0  0  0  0  0
  -21.6380   -6.2810   22.5850 C   0  0  0  0  0  0  0  0  0  0  0  0
  -21.1630   -6.8490   23.7880 C   0  0  0  0  0  3  0  0  0  0  0  0
  -21.0260   -6.0490   24.9390 C   0  0  0  0  0  3  0  0  0  0  0  0
  -21.3590   -4.6810   24.8910 C   0  0  0  0  0  0  0  0  0  0  0  0
  -21.8290   -4.1130   23.6930 C   0  0  0  0  0  3  0  0  0  0  0  0
  -21.9660   -4.9100   22.5450 C   0  0  0  0  0  0  0  0  0  0  0  0
  -22.3970   -4.3530   21.3880 F   0  0  0  0  0  0  0  0  0  0  0  0
  -21.2210   -3.9100   25.9960 F   0  0  0  0  0  0  0  0  0  0  0  0
  -22.7920  -13.6490   21.0570 C   0  0  0  0  0  0  0  0  0  0  0  0
  -22.0460  -12.9580   21.9110 N   0  0  0  0  0  0  0  0  0  0  0  0
  -22.3630  -14.6710   20.5220 O   0  0  0  0  0  0  0  0  0  0  0  0
  -22.4050  -12.1330   22.3670 H   0  0  0  0  0  0  0  0  0  0  0  0
  -21.1030  -13.2590   22.1110 H   0  0  0  0  0  0  0  0  0  0  0  0
  -25.4300  -15.3150   20.2770 N   0  0  0  0  0  0  0  0  0  0  0  0
  -24.6530  -15.9630   20.3600 H   0  0  0  0  0  0  0  0  0  0  0  0
  -26.2860  -15.7580   19.9680 H   0  0  0  0  0  0  0  0  0  0  0  0
  -29.1070  -22.6500   20.0840 C   0  0  0  0  0  3  0  0  0  0  0  0
  -28.4280  -23.9990   20.6210 C   0  0  0  0  0  3  0  0  0  0  0  0
  -28.6150  -25.3030   19.7220 C   0  0  0  0  0  2  0  0  0  0  0  0
  -28.4440  -26.6550   20.2870 O   0  0  0  0  0  0  0  0  0  0  0  0
  -24.5620  -31.9180   23.2200 C   0  0  0  0  0  0  0  0  0  0  0  0
  -27.2710  -27.4150   20.1960 C   0  0  0  0  0  0  0  0  0  0  0  0
  -23.3870  -30.5030   21.5660 C   0  0  0  0  0  3  0  0  0  0  0  0
  -24.8690  -28.9660   20.1560 C   0  0  0  0  0  0  0  0  0  0  0  0
  -25.9160  -30.8660   21.3970 C   0  0  0  0  0  2  0  0  0  0  0  0
  -26.0210  -29.4880   20.7560 C   0  0  0  0  0  0  0  0  0  0  0  0
  -27.2190  -28.7220   20.7670 C   0  0  0  0  0  3  0  0  0  0  0  0
  -26.0950  -26.9300   19.5830 C   0  0  0  0  0  3  0  0  0  0  0  0
  -24.9050  -27.6910   19.5660 C   0  0  0  0  0  3  0  0  0  0  0  0
  -23.6190  -29.8220   20.1890 C   0  0  0  0  0  2  0  0  0  0  0  0
  -24.6380  -31.1140   22.1180 N   0  0  0  0  0  0  0  0  0  0  0  0
  -23.4730  -32.1800   23.7500 O   0  0  0  0  0  0  0  0  0  0  0  0
  -22.7310  -29.4810   22.5250 C   0  0  0  0  0  0  0  0  0  0  0  0
  -21.4090  -29.2850   22.3850 N   0  0  0  0  0  0  0  0  0  0  0  0
  -23.4120  -28.8660   23.3510 O   0  0  0  0  0  0  0  0  0  0  0  0
  -20.9200  -29.8320   21.6900 H   0  0  0  0  0  0  0  0  0  0  0  0
  -18.0440  -28.0530   22.8610 C   0  0  0  0  0  0  0  0  0  0  0  0
  -20.5970  -28.3380   23.1500 C   0  0  0  0  0  3  0  0  0  0  0  0
  -20.7180  -26.9100   22.5720 C   0  0  0  0  0  2  0  0  0  0  0  0
  -19.6270  -26.5760   21.5500 C   0  0  0  0  0  2  0  0  0  0  0  0
  -18.2390  -26.7060   22.1840 C   0  0  0  0  0  2  0  0  0  0  0  0
  -19.1510  -28.8260   23.3010 C   0  0  0  0  0  0  0  0  0  0  0  0
  -18.9150  -30.0860   23.8920 C   0  0  0  0  0  3  0  0  0  0  0  0
  -17.6050  -30.5740   24.0490 C   0  0  0  0  0  3  0  0  0  0  0  0
  -16.5120  -29.7990   23.6240 C   0  0  0  0  0  3  0  0  0  0  0  0
  -16.7310  -28.5400   23.0380 C   0  0  0  0  0  3  0  0  0  0  0  0
  -25.8350  -32.5610   23.8530 C   0  0  0  0  0  3  0  0  0  0  0  0
  -25.5100  -33.9560   24.1810 N   0  0  0  0  0  0  0  0  0  0  0  0
  -25.8480  -35.0140   23.4320 C   0  0  0  0  0  0  0  0  0  0  0  0
  -26.5360  -34.9190   22.4110 O   0  0  0  0  0  0  0  0  0  0  0  0
  -24.9000  -34.1020   24.9710 H   0  0  0  0  0  0  0  0  0  0  0  0
  -24.1190  -36.7990   23.0420 C   0  0  0  0  0  1  0  0  0  0  0  0
  -25.3420  -36.3970   23.8840 C   0  0  0  0  0  3  0  0  0  0  0  0
  -27.4500  -37.2890   24.7730 C   0  0  0  0  0  1  0  0  0  0  0  0
  -26.3720  -37.4550   23.8010 N   0  0  0  0  0  0  0  0  0  0  0  0
  -25.9570  -38.3730   23.9390 H   0  0  0  0  0  0  0  0  0  0  0  0
  -26.3490  -31.7950   25.1330 C   0  0  1  0  0  0  0  0  0  0  0  0
  -25.2490  -31.5460   26.1910 C   0  0  0  0  0  1  0  0  0  0  0  0
  -26.9550  -30.4250   24.7470 C   0  0  0  0  0  1  0  0  0  0  0  0
  -27.4840  -32.6020   25.8070 C   0  0  0  0  0  1  0  0  0  0  0  0
  2  1  1  0
  4  3  1  0
  4  6  1  0
  4  2  1  0
  4  5  1  6
  7  6  1  0
  7 11  1  0
  8 10  1  0
  9 10  1  0
 10  7  1  0
 12 11  1  0
 13 18  1  0
 14 15  1  0
 14 13  1  0
 16 15  1  0
 16 23  1  0
 16 17  1  0
 18 12  1  0
 18 17  1  0
 19 12  2  0
 20 21  2  0
 21 40  1  0
 22 21  1  0
 22 25  1  0
 23 20  1  0
 23 24  1  0
 24 22  2  0
 25 26  1  0
 26 27  2  0
 28 31  1  0
 28 27  1  0
 29 28  2  0
 30 29  1  0
 30 25  2  0
 31 32  1  0
 32 33  1  0
 33 34  2  0
 35 34  1  0
 35 39  1  0
 36 35  2  0
 37 32  2  0
 37 36  1  0
 38 37  1  0
 40 41  1  0
 41 44  1  0
 41 43  1  0
 42 40  2  0
 45 46  1  0
 45 20  1  0
 47 45  1  0
 48 49  2  0
 48  2  1  0
 50 51  1  0
 50 49  1  0
 52 63  2  0
 53 51  1  0
 53 58  1  0
 54 62  1  0
 54 64  1  0
 55 61  1  0
 55 57  1  0
 56 62  1  0
 57 58  2  0
 57 56  1  0
 59 53  2  0
 60 59  1  0
 60 55  2  0
 61 54  1  0
 62 52  1  0
 64 66  2  0
 65 64  1  0
 67 65  1  0
 68 77  2  0
 68 73  1  0
 69 65  1  0
 69 73  1  0
 70 69  1  0
 71 72  1  0
 71 70  1  0
 72 68  1  0
 73 74  2  0
 74 75  1  0
 76 75  2  0
 77 76  1  0
 78 52  1  0
 78 79  1  0
 78 88  1  0
 79 82  1  0
 80 84  1  0
 80 79  1  0
 81 80  2  0
 84 83  1  0
 86 84  1  0
 86 87  1  0
 86 85  1  0
 88 91  1  1
 88 89  1  0
 90 88  1  0
M  ISO  4  11 100  12 100  50 101  51 101
M  END
>  <TORSDO>  (80) 
F 24

>  <SCORE>  (80) 
-12.534

>  <name>  (80) 
80

>  <ligand_id>  (80) 
80

>  <original_smiles>  (80) 
[H]c1c([H])c([H])c2c(c1[H])C([H])([H])C([H])([H])C([H])([H])C2([H])N([H])C(=O)C1([H])N(C(=O)C([H])(N([H])C(=O)C([H])(N([H])C([H])([H])[H])C([H])([H])[H])C(C([H])([H])[H])(C([H])([H])[H])C([H])([H])[H])C([H])([H])c2c([H])c(OC([H])([H])C([H])([H])C([H])([H])C([H])(C([H])([H])[H])[N+]([H])(C([H])([H])[H])C([H])([H])C([H])(C([H])([H])C(=O)N3C([H])([H])C([H])([H])C([H])([H])C([H])(n4nc(-c5c([H])c([H])c(Oc6c([H])c([H])c(F)c([H])c6F)c([H])c5[H])c(C(=O)N([H])[H])c4N([H])[H])C3([H])[H])C([H])(C([H])([H])[H])C([H])([H])[H])c([H])c([H])c2C1([H])[H]

>  <smiles>  (80) 
[H]c1c([H])c([H])c2c(c1[H])C([H])([H])C([H])([H])C([H])([H])C2([H])N([H])C(=O)C1([H])N(C(=O)C([H])(N([H])C(=O)C([H])(N([H])C([H])([H])[H])C([H])([H])[H])C(C([H])([H])[H])(C([H])([H])[H])C([H])([H])[H])C([H])([H])c2c([H])c(OC([H])([H])C([H])([H])C([H])([H])C([H])(C([H])([H])[H])[N+]([H])(C([H])([H])[H])C([H])([H])C([H])(C([H])([H])C(=O)N3C([H])([H])C([H])([H])C([H])([H])C([H])(n4nc(-c5c([H])c([H])c(Oc6c([H])c([H])c(F)c([H])c6F)c([H])c5[H])c(C(=O)N([H])[H])c4N([H])[H])C3([H])[H])C([H])(C([H])([H])[H])C([H])([H])[H])c([H])c([H])c2C1([H])[H]

$$$$
81:0:0
     RDKit          3D

 97105  0  0  1  0  0  0  0  0999 V2000
  -30.4320  -18.0650   21.6580 C   0  0  0  0  0  3  0  0  0  0  0  0
  -30.0120  -20.0450   20.2980 C   0  0  0  0  0  3  0  0  0  0  0  0
  -28.8280  -17.9670   19.8280 C   0  0  0  0  0  3  0  0  0  0  0  0
  -30.6970  -19.4150   21.3580 C   0  0  0  0  0  0  0  0  0  0  0  0
  -29.5160  -17.3240   20.8830 C   0  0  0  0  0  0  0  0  0  0  0  0
  -29.0750  -19.3310   19.5180 C   0  0  0  0  0  0  0  0  0  0  0  0
  -28.0200  -19.0240   17.2120 C   0  0  0  0  0  1  0  0  0  0  0  0
  -28.4230  -20.0250   18.3110 C   0  0  0  0  0  3  0  0  0  0  0  0
  -27.2310  -20.9510   18.6750 C   0  0  0  0  0  2  0  0  0  0  0  0
  -27.5760  -22.2040   19.5230 C   0  0  0  0  0  2  0  0  0  0  0  0
  -27.3800  -23.5440   18.7670 C   0  0  0  0  0  2  0  0  0  0  0  0
  -27.6620  -24.7850   19.6410 C   0  0  0  0  0  2  0  0  0  0  0  0
  -27.6820  -26.0040   18.8850 O   0  0  0  0  0  0  0  0  0  0  0  0
  -25.0530  -30.9620   23.2640 C   0  0  0  0  0  0  0  0  0  0  0  0
  -26.6520  -26.8740   19.1610 C   0  0  0  0  0  0  0  0  0  0  0  0
  -23.4860  -30.0760   21.5670 C   0  0  0  0  0  3  0  0  0  0  0  0
  -24.5340  -28.6540   19.7250 C   0  0  0  0  0  0  0  0  0  0  0  0
  -26.0030  -30.1260   21.1160 C   0  0  0  0  0  2  0  0  0  0  0  0
  -25.8120  -28.9010   20.2450 C   0  0  0  0  0  0  0  0  0  0  0  0
  -26.8790  -28.0200   19.9550 C   0  0  0  0  0  3  0  0  0  0  0  0
  -25.3610  -26.6380   18.6440 C   0  0  0  0  0  3  0  0  0  0  0  0
  -24.3030  -27.5230   18.9210 C   0  0  0  0  0  3  0  0  0  0  0  0
  -23.4480  -29.6470   20.0750 C   0  0  0  0  0  2  0  0  0  0  0  0
  -24.8740  -30.3860   22.0400 N   0  0  0  0  0  0  0  0  0  0  0  0
  -24.0870  -31.2720   23.9730 O   0  0  0  0  0  0  0  0  0  0  0  0
  -22.7780  -28.9890   22.4100 C   0  0  0  0  0  0  0  0  0  0  0  0
  -21.4440  -28.9140   22.2880 N   0  0  0  0  0  0  0  0  0  0  0  0
  -23.4270  -28.2230   23.1270 O   0  0  0  0  0  0  0  0  0  0  0  0
  -20.9850  -29.5830   21.6850 H   0  0  0  0  0  0  0  0  0  0  0  0
  -18.0170  -27.8080   22.5900 C   0  0  0  0  0  0  0  0  0  0  0  0
  -20.5730  -27.9460   22.9550 C   0  0  0  0  0  3  0  0  0  0  0  0
  -20.6430  -26.5660   22.2640 C   0  0  0  0  0  2  0  0  0  0  0  0
  -19.5620  -26.3700   21.1950 C   0  0  0  0  0  2  0  0  0  0  0  0
  -18.1680  -26.5130   21.8100 C   0  0  0  0  0  2  0  0  0  0  0  0
  -19.1480  -28.4890   23.1140 C   0  0  0  0  0  0  0  0  0  0  0  0
  -18.9550  -29.7080   23.8000 C   0  0  0  0  0  3  0  0  0  0  0  0
  -17.6640  -30.2430   23.9700 C   0  0  0  0  0  3  0  0  0  0  0  0
  -16.5470  -29.5560   23.4640 C   0  0  0  0  0  3  0  0  0  0  0  0
  -16.7250  -28.3400   22.7810 C   0  0  0  0  0  3  0  0  0  0  0  0
  -26.4780  -31.2800   23.8170 C   0  0  0  0  0  3  0  0  0  0  0  0
  -26.9610  -30.2540   24.9150 C   0  0  1  0  0  0  0  0  0  0  0  0
  -25.9390  -30.0380   26.0550 C   0  0  0  0  0  1  0  0  0  0  0  0
  -27.2550  -28.8760   24.2780 C   0  0  0  0  0  1  0  0  0  0  0  0
  -28.2880  -30.7420   25.5410 C   0  0  0  0  0  1  0  0  0  0  0  0
  -26.4470  -32.6440   24.3570 N   0  0  0  0  0  0  0  0  0  0  0  0
  -26.9320  -33.7220   23.7240 C   0  0  0  0  0  0  0  0  0  0  0  0
  -27.5230  -33.6550   22.6430 O   0  0  0  0  0  0  0  0  0  0  0  0
  -25.9260  -32.7850   25.2100 H   0  0  0  0  0  0  0  0  0  0  0  0
  -25.5550  -35.8280   23.7330 C   0  0  0  0  0  1  0  0  0  0  0  0
  -26.7300  -35.0910   24.3990 C   0  0  0  0  0  3  0  0  0  0  0  0
  -29.0140  -35.4560   25.2210 C   0  0  0  0  0  1  0  0  0  0  0  0
  -27.9360  -35.9480   24.3680 N   0  0  0  0  0  0  0  0  0  0  0  0
  -27.7110  -36.8960   24.6570 H   0  0  0  0  0  0  0  0  0  0  0  0
  -31.7450  -20.1690   22.1570 C   0  0  0  0  0  2  0  0  0  0  0  0
  -32.8480  -20.7460   21.2490 C   0  0  0  0  0  2  0  0  0  0  0  0
  -35.2100  -19.8760   21.7240 C   0  0  0  0  0  1  0  0  0  0  0  0
  -34.7850  -22.3530   21.5270 C   0  0  0  0  0  1  0  0  0  0  0  0
  -34.1920  -21.0030   21.9620 C   0  0  0  0  0  3  0  0  0  0  0  0
  -29.2680  -15.8470   21.2060 C   0  0  0  0  0  2  0  0  0  0  0  0
  -30.6950  -14.1920   20.0500 C   0  0  0  0  0  0  0  0  0  0  0  0
  -30.2930  -12.0310   18.9090 C   0  0  0  0  0  2  0  0  0  0  0  0
  -29.2660  -12.1680   17.7690 C   0  0  0  0  0  2  0  0  0  0  0  0
  -27.8300  -12.0220   18.3050 C   0  0  0  0  0  2  0  0  0  0  0  0
  -27.5700  -12.9150   19.5450 C   0  0  0  0  0  3  0  0  0  0  0  0
  -28.6940  -12.7340   20.5890 C   0  0  0  0  0  2  0  0  0  0  0  0
  -29.9810  -13.0360   19.9400 N   0  0  0  0  0  0  0  0  0  0  0  0
  -31.6730  -14.4340   19.3300 O   0  0  0  0  0  0  0  0  0  0  0  0
  -31.5630  -15.2630   22.0380 C   0  0  0  0  0  1  0  0  0  0  0  0
  -30.4430  -14.9460   21.1450 N   0  0  0  0  0  0  0  0  0  0  0  0
  -25.2660  -13.5540   20.5000 C   0  0  0  0  0  0  0  0  0  0  0  0
  -24.2070  -12.7950   20.9160 C   0  0  0  0  0  0  0  0  0  0  0  0
  -24.6120  -11.4340   20.7610 C   0  0  0  0  0  0  0  0  0  0  0  0
  -26.2530  -12.6580   20.1230 N   0  0  0  0  0  0  0  0  0  0  0  0
  -25.8660  -11.3730   20.3330 N   0  0  0  0  0  0  0  0  0  0  0  0
  -23.8600  -10.1850   20.9360 C   0  0  0  0  0  0  0  0  0  0  0  0
  -24.2500   -9.2170   21.8870 C   0  0  0  0  0  3  0  0  0  0  0  0
  -23.5000   -8.0310   22.0500 C   0  0  0  0  0  3  0  0  0  0  0  0
  -22.3460   -7.8080   21.2610 C   0  0  0  0  0  0  0  0  0  0  0  0
  -21.9770   -8.7640   20.3000 C   0  0  0  0  0  3  0  0  0  0  0  0
  -22.7270   -9.9410   20.1350 C   0  0  0  0  0  3  0  0  0  0  0  0
  -21.5730   -6.6760   21.3320 O   0  0  0  0  0  0  0  0  0  0  0  0
  -21.3690   -6.0150   22.5180 C   0  0  0  0  0  0  0  0  0  0  0  0
  -20.7410   -6.6380   23.6190 C   0  0  0  0  0  3  0  0  0  0  0  0
  -20.4890   -5.9020   24.7940 C   0  0  0  0  0  3  0  0  0  0  0  0
  -20.8550   -4.5440   24.8680 C   0  0  0  0  0  0  0  0  0  0  0  0
  -21.4750   -3.9210   23.7700 C   0  0  0  0  0  3  0  0  0  0  0  0
  -21.7290   -4.6550   22.5970 C   0  0  0  0  0  0  0  0  0  0  0  0
  -22.3080   -4.0440   21.5350 F   0  0  0  0  0  0  0  0  0  0  0  0
  -20.6060   -3.8350   25.9930 F   0  0  0  0  0  0  0  0  0  0  0  0
  -22.8570  -13.2960   21.3430 C   0  0  0  0  0  0  0  0  0  0  0  0
  -22.1880  -12.5730   22.2340 N   0  0  0  0  0  0  0  0  0  0  0  0
  -22.4090  -14.3620   20.9230 O   0  0  0  0  0  0  0  0  0  0  0  0
  -22.5660  -11.7080   22.5940 H   0  0  0  0  0  0  0  0  0  0  0  0
  -21.2860  -12.8870   22.5620 H   0  0  0  0  0  0  0  0  0  0  0  0
  -25.4660  -14.9280   20.3900 N   0  0  0  0  0  0  0  0  0  0  0  0
  -24.7350  -15.5980   20.6030 H   0  0  0  0  0  0  0  0  0  0  0  0
  -26.2940  -15.3590   20.0000 H   0  0  0  0  0  0  0  0  0  0  0  0
  2  4  2  0
  3  5  1  0
  4  1  1  0
  4 54  1  0
  5 59  1  0
  5  1  2  0
  6  3  2  0
  6  2  1  0
  8  7  1  0
  8  9  1  0
  8  6  1  0
  9 10  1  0
 11 10  1  0
 11 12  1  0
 13 15  1  0
 13 12  1  0
 14 25  2  0
 15 20  1  0
 16 24  1  0
 16 26  1  0
 17 23  1  0
 17 19  1  0
 18 24  1  0
 19 18  1  0
 20 19  2  0
 21 22  1  0
 21 15  2  0
 22 17  2  0
 23 16  1  0
 24 14  1  0
 26 28  2  0
 27 26  1  0
 29 27  1  0
 30 39  2  0
 30 35  1  0
 31 27  1  0
 31 35  1  0
 32 31  1  0
 33 34  1  0
 33 32  1  0
 34 30  1  0
 35 36  2  0
 36 37  1  0
 38 37  2  0
 39 38  1  0
 40 14  1  0
 40 45  1  0
 40 41  1  0
 41 44  1  1
 41 42  1  0
 43 41  1  0
 45 48  1  0
 46 45  1  0
 46 50  1  0
 47 46  2  0
 50 49  1  0
 52 50  1  0
 52 53  1  0
 52 51  1  0
 55 58  1  0
 55 54  1  0
 56 58  1  0
 57 58  1  0
 60 69  1  0
 61 66  1  0
 62 63  1  0
 62 61  1  0
 64 63  1  0
 64 73  1  0
 64 65  1  0
 66 60  1  0
 66 65  1  0
 67 60  2  0
 69 59  1  0
 69 68  1  0
 70 71  2  0
 71 90  1  0
 72 71  1  0
 72 75  1  0
 73 74  1  0
 73 70  1  0
 74 72  2  0
 75 76  1  0
 76 77  2  0
 78 81  1  0
 78 77  1  0
 79 78  2  0
 80 79  1  0
 80 75  2  0
 81 82  1  0
 82 87  2  0
 82 83  1  0
 83 84  2  0
 84 85  1  0
 85 89  1  0
 86 85  2  0
 87 86  1  0
 88 87  1  0
 90 91  1  0
 91 94  1  0
 91 93  1  0
 92 90  2  0
 95 70  1  0
 95 96  1  0
 97 95  1  0
M  ISO  4  12 101  13 101  60 100  69 100
M  END
>  <TORSDO>  (81) 
F 25

>  <SCORE>  (81) 
-9.703

>  <name>  (81) 
81

>  <ligand_id>  (81) 
81

>  <original_smiles>  (81) 
[H]c1c([H])c([H])c2c(c1[H])C([H])([H])C([H])([H])C([H])([H])C2([H])N([H])C(=O)C1([H])N(C(=O)C([H])(N([H])C(=O)C([H])(N([H])C([H])([H])[H])C([H])([H])[H])C(C([H])([H])[H])(C([H])([H])[H])C([H])([H])[H])C([H])([H])c2c([H])c(OC([H])([H])C([H])([H])C([H])([H])C([H])([H])C([H])(c3c([H])c(C([H])([H])N(C(=O)N4C([H])([H])C([H])([H])C([H])([H])C([H])(n5nc(-c6c([H])c([H])c(Oc7c([H])c([H])c(F)c([H])c7F)c([H])c6[H])c(C(=O)N([H])[H])c5N([H])[H])C4([H])[H])C([H])([H])[H])c([H])c(C([H])([H])C([H])([H])C([H])(C([H])([H])[H])C([H])([H])[H])c3[H])C([H])([H])[H])c([H])c([H])c2C1([H])[H]

>  <smiles>  (81) 
[H]c1c([H])c([H])c2c(c1[H])C([H])([H])C([H])([H])C([H])([H])C2([H])N([H])C(=O)C1([H])N(C(=O)C([H])(N([H])C(=O)C([H])(N([H])C([H])([H])[H])C([H])([H])[H])C(C([H])([H])[H])(C([H])([H])[H])C([H])([H])[H])C([H])([H])c2c([H])c(OC([H])([H])C([H])([H])C([H])([H])C([H])([H])C([H])(c3c([H])c(C([H])([H])N(C(=O)N4C([H])([H])C([H])([H])C([H])([H])C([H])(n5nc(-c6c([H])c([H])c(Oc7c([H])c([H])c(F)c([H])c7F)c([H])c6[H])c(C(=O)N([H])[H])c5N([H])[H])C4([H])[H])C([H])([H])[H])c([H])c(C([H])([H])C([H])([H])C([H])(C([H])([H])[H])C([H])([H])[H])c3[H])C([H])([H])[H])c([H])c([H])c2C1([H])[H]

$$$$
83:0:0
     RDKit          3D

 93101  0  0  1  0  0  0  0  0999 V2000
  -28.1190  -23.3400   20.2610 C   0  0  0  0  0  3  0  0  0  0  0  0
  -29.2600  -22.5070   20.2200 C   0  0  0  0  0  0  0  0  0  0  0  0
  -26.8490  -22.8110   19.9880 C   0  0  0  0  0  0  0  0  0  0  0  0
  -28.9880  -21.0870   19.8960 C   0  0  0  0  0  0  0  0  0  0  0  0
  -26.6660  -21.5050   19.7110 N   0  0  0  0  0  0  0  0  0  0  0  0
  -27.7110  -20.6800   19.6660 N   0  0  0  0  0  0  0  0  0  0  0  0
  -24.3050  -22.9530   19.9170 C   0  0  0  0  0  1  0  0  0  0  0  0
  -25.7390  -24.6770   18.6950 C   0  0  0  0  0  1  0  0  0  0  0  0
  -25.6320  -23.7260   19.8980 C   0  0  0  0  0  3  0  0  0  0  0  0
  -30.6100  -23.2960   20.4470 C   0  0  0  0  0  2  0  0  0  0  0  0
  -30.6110  -24.8530   20.9650 C   0  0  0  0  0  3  0  0  0  0  0  0
  -29.9720  -26.0910   20.1390 C   0  0  0  0  0  3  0  0  0  0  0  0
  -29.9190  -27.4840   20.7160 O   0  0  0  0  0  0  0  0  0  0  0  0
  -25.2090  -31.9260   24.0120 C   0  0  0  0  0  0  0  0  0  0  0  0
  -28.7200  -28.2360   20.6440 C   0  0  0  0  0  0  0  0  0  0  0  0
  -24.3820  -30.6780   22.0510 C   0  0  0  0  0  3  0  0  0  0  0  0
  -26.1710  -29.5680   20.5900 C   0  0  0  0  0  0  0  0  0  0  0  0
  -26.8630  -31.3150   22.2270 C   0  0  0  0  0  2  0  0  0  0  0  0
  -27.1970  -30.0770   21.3930 C   0  0  0  0  0  0  0  0  0  0  0  0
  -28.4720  -29.4230   21.4150 C   0  0  0  0  0  3  0  0  0  0  0  0
  -27.6650  -27.8070   19.8060 C   0  0  0  0  0  3  0  0  0  0  0  0
  -26.4100  -28.4440   19.7860 C   0  0  0  0  0  3  0  0  0  0  0  0
  -24.8260  -30.2690   20.6210 C   0  0  0  0  0  2  0  0  0  0  0  0
  -25.4950  -31.3170   22.8240 N   0  0  0  0  0  0  0  0  0  0  0  0
  -24.0490  -31.9790   24.4470 O   0  0  0  0  0  0  0  0  0  0  0  0
  -23.7740  -29.4450   22.7630 C   0  0  0  0  0  0  0  0  0  0  0  0
  -22.5210  -29.1000   22.4150 N   0  0  0  0  0  0  0  0  0  0  0  0
  -24.4300  -28.8090   23.5910 O   0  0  0  0  0  0  0  0  0  0  0  0
  -22.0440  -29.6760   21.7360 H   0  0  0  0  0  0  0  0  0  0  0  0
  -19.3370  -27.3890   22.2690 C   0  0  0  0  0  0  0  0  0  0  0  0
  -21.7730  -27.9510   22.9270 C   0  0  0  0  0  3  0  0  0  0  0  0
  -22.1640  -26.6540   22.1820 C   0  0  0  0  0  2  0  0  0  0  0  0
  -21.2540  -26.3460   20.9880 C   0  0  0  0  0  2  0  0  0  0  0  0
  -19.8000  -26.1990   21.4460 C   0  0  0  0  0  2  0  0  0  0  0  0
  -20.2640  -28.2200   22.9520 C   0  0  0  0  0  0  0  0  0  0  0  0
  -19.7830  -29.3330   23.6770 C   0  0  0  0  0  3  0  0  0  0  0  0
  -18.4060  -29.6200   23.7260 C   0  0  0  0  0  3  0  0  0  0  0  0
  -17.4910  -28.7840   23.0620 C   0  0  0  0  0  3  0  0  0  0  0  0
  -17.9550  -27.6710   22.3400 C   0  0  0  0  0  3  0  0  0  0  0  0
  -26.3210  -32.6030   24.8710 C   0  0  0  0  0  3  0  0  0  0  0  0
  -25.9280  -34.0040   25.0850 N   0  0  0  0  0  0  0  0  0  0  0  0
  -26.3750  -35.0400   24.3630 C   0  0  0  0  0  0  0  0  0  0  0  0
  -27.2270  -34.9200   23.4780 O   0  0  0  0  0  0  0  0  0  0  0  0
  -25.1930  -34.1700   25.7560 H   0  0  0  0  0  0  0  0  0  0  0  0
  -24.6980  -36.7710   23.6410 C   0  0  0  0  0  1  0  0  0  0  0  0
  -25.7860  -36.4300   24.6720 C   0  0  0  0  0  3  0  0  0  0  0  0
  -27.7260  -37.4010   25.8220 C   0  0  0  0  0  1  0  0  0  0  0  0
  -26.7980  -37.5080   24.6980 N   0  0  0  0  0  0  0  0  0  0  0  0
  -26.3530  -38.4200   24.7410 H   0  0  0  0  0  0  0  0  0  0  0  0
  -26.5630  -31.8790   26.2540 C   0  0  1  0  0  0  0  0  0  0  0  0
  -25.2650  -31.6090   27.0500 C   0  0  0  0  0  1  0  0  0  0  0  0
  -27.2750  -30.5230   26.0440 C   0  0  0  0  0  1  0  0  0  0  0  0
  -27.4980  -32.7370   27.1370 C   0  0  0  0  0  1  0  0  0  0  0  0
  -29.9470  -19.8720   19.5610 C   0  0  0  0  0  2  0  0  0  0  0  0
  -30.3710  -18.8040   20.7240 C   0  0  0  0  0  2  0  0  0  0  0  0
  -30.9640  -16.2250   20.6260 C   0  0  0  0  0  0  0  0  0  0  0  0
  -31.0720  -13.8440   19.8660 C   0  0  0  0  0  2  0  0  0  0  0  0
  -30.2450  -13.6760   18.5730 C   0  0  0  0  0  2  0  0  0  0  0  0
  -28.7640  -13.4000   18.9050 C   0  0  0  0  0  2  0  0  0  0  0  0
  -28.1990  -14.3740   19.9740 C   0  0  0  0  0  3  0  0  0  0  0  0
  -29.1560  -14.5250   21.1750 C   0  0  0  0  0  2  0  0  0  0  0  0
  -30.4570  -14.9450   20.6420 N   0  0  0  0  0  0  0  0  0  0  0  0
  -32.1660  -16.4050   20.4140 O   0  0  0  0  0  0  0  0  0  0  0  0
  -30.0820  -17.2970   20.6540 N   0  0  0  0  0  0  0  0  0  0  0  0
  -29.1090  -17.0410   20.7450 H   0  0  0  0  0  0  0  0  0  0  0  0
  -25.7610  -14.8230   20.6300 C   0  0  0  0  0  0  0  0  0  0  0  0
  -24.7140  -13.9850   20.9040 C   0  0  0  0  0  0  0  0  0  0  0  0
  -25.2360  -12.6570   20.8140 C   0  0  0  0  0  0  0  0  0  0  0  0
  -26.8500  -14.0020   20.3890 N   0  0  0  0  0  0  0  0  0  0  0  0
  -26.5400  -12.6910   20.5630 N   0  0  0  0  0  0  0  0  0  0  0  0
  -24.5560  -11.3580   20.8940 C   0  0  0  0  0  0  0  0  0  0  0  0
  -24.9230  -10.3900   21.8540 C   0  0  0  0  0  3  0  0  0  0  0  0
  -24.2420   -9.1560   21.9230 C   0  0  0  0  0  3  0  0  0  0  0  0
  -23.1780   -8.8820   21.0310 C   0  0  0  0  0  0  0  0  0  0  0  0
  -22.8320   -9.8390   20.0620 C   0  0  0  0  0  3  0  0  0  0  0  0
  -23.5150  -11.0650   19.9900 C   0  0  0  0  0  3  0  0  0  0  0  0
  -22.4760   -7.7010   21.0080 O   0  0  0  0  0  0  0  0  0  0  0  0
  -22.2220   -6.9920   22.1540 C   0  0  0  0  0  0  0  0  0  0  0  0
  -21.5030   -7.5510   23.2330 C   0  0  0  0  0  3  0  0  0  0  0  0
  -21.2050   -6.7650   24.3630 C   0  0  0  0  0  3  0  0  0  0  0  0
  -21.6150   -5.4200   24.4140 C   0  0  0  0  0  0  0  0  0  0  0  0
  -22.3280   -4.8600   23.3400 C   0  0  0  0  0  3  0  0  0  0  0  0
  -22.6270   -5.6430   22.2110 C   0  0  0  0  0  0  0  0  0  0  0  0
  -23.2950   -5.0920   21.1690 F   0  0  0  0  0  0  0  0  0  0  0  0
  -21.3230   -4.6620   25.4980 F   0  0  0  0  0  0  0  0  0  0  0  0
  -23.2870  -14.3880   21.1370 C   0  0  0  0  0  0  0  0  0  0  0  0
  -22.5550  -13.6160   21.9330 N   0  0  0  0  0  0  0  0  0  0  0  0
  -22.8270  -15.4210   20.6520 O   0  0  0  0  0  0  0  0  0  0  0  0
  -22.9400  -12.7800   22.3480 H   0  0  0  0  0  0  0  0  0  0  0  0
  -21.5970  -13.8670   22.1330 H   0  0  0  0  0  0  0  0  0  0  0  0
  -25.8720  -16.2070   20.5410 N   0  0  0  0  0  0  0  0  0  0  0  0
  -25.0750  -16.8210   20.6670 H   0  0  0  0  0  0  0  0  0  0  0  0
  -26.7140  -16.7050   20.2830 H   0  0  0  0  0  0  0  0  0  0  0  0
  2  1  1  0
  2 10  1  0
  3  1  2  0
  4  2  2  0
  5  3  1  0
  6  5  2  0
  6  4  1  0
  8  9  1  0
  9  7  1  0
  9  3  1  0
 10 11  1  0
 12 13  1  0
 12 11  2  0
 14 25  2  0
 15 13  1  0
 15 20  1  0
 16 26  1  0
 16 24  1  0
 17 23  1  0
 17 19  1  0
 18 24  1  0
 19 20  2  0
 19 18  1  0
 21 15  2  0
 22 21  1  0
 22 17  2  0
 23 16  1  0
 24 14  1  0
 26 28  2  0
 27 26  1  0
 29 27  1  0
 30 39  2  0
 30 35  1  0
 31 27  1  0
 31 35  1  0
 32 31  1  0
 33 34  1  0
 33 32  1  0
 34 30  1  0
 35 36  2  0
 36 37  1  0
 38 37  2  0
 39 38  1  0
 40 14  1  0
 40 41  1  0
 40 50  1  0
 41 44  1  0
 42 46  1  0
 42 41  1  0
 43 42  2  0
 46 45  1  0
 46 48  1  0
 48 49  1  0
 48 47  1  0
 50 51  1  1
 50 53  1  0
 52 50  1  0
 54  4  1  0
 54 55  1  0
 56 62  1  0
 56 64  1  0
 57 62  1  0
 58 59  1  0
 58 57  1  0
 60 59  1  0
 60 69  1  0
 60 61  1  0
 62 61  1  0
 63 56  2  0
 64 55  1  0
 64 65  1  0
 66 67  2  0
 67 86  1  0
 68 71  1  0
 68 67  1  0
 69 70  1  0
 69 66  1  0
 70 68  2  0
 71 72  1  0
 72 73  2  0
 74 73  1  0
 75 74  2  0
 76 75  1  0
 76 71  2  0
 77 74  1  0
 77 78  1  0
 78 83  2  0
 78 79  1  0
 79 80  2  0
 80 81  1  0
 81 85  1  0
 82 81  2  0
 83 82  1  0
 84 83  1  0
 86 87  1  0
 87 90  1  0
 87 89  1  0
 88 86  2  0
 91 66  1  0
 91 92  1  0
 93 91  1  0
M  ISO  4  12 101  13 101  56 100  64 100
M  END
>  <TORSDO>  (82) 
F 22

>  <SCORE>  (82) 
-8.745

>  <name>  (82) 
83

>  <ligand_id>  (82) 
83

>  <original_smiles>  (82) 
[H]c1c([H])c([H])c2c(c1[H])C([H])([H])C([H])([H])C([H])([H])C2([H])N([H])C(=O)C1([H])N(C(=O)C([H])(N([H])C(=O)C([H])(N([H])C([H])([H])[H])C([H])([H])[H])C(C([H])([H])[H])(C([H])([H])[H])C([H])([H])[H])C([H])([H])c2c([H])c(OC([H])([H])C([H])([H])C([H])([H])c3c(C([H])([H])C([H])([H])N([H])C(=O)N4C([H])([H])C([H])([H])C([H])([H])C([H])(n5nc(-c6c([H])c([H])c(Oc7c([H])c([H])c(F)c([H])c7F)c([H])c6[H])c(C(=O)N([H])[H])c5N([H])[H])C4([H])[H])nnc(C([H])(C([H])([H])[H])C([H])([H])[H])c3[H])c([H])c([H])c2C1([H])[H]

>  <smiles>  (82) 
[H]c1c([H])c([H])c2c(c1[H])C([H])([H])C([H])([H])C([H])([H])C2([H])N([H])C(=O)C1([H])N(C(=O)C([H])(N([H])C(=O)C([H])(N([H])C([H])([H])[H])C([H])([H])[H])C(C([H])([H])[H])(C([H])([H])[H])C([H])([H])[H])C([H])([H])c2c([H])c(OC([H])([H])C([H])([H])C([H])([H])c3c(C([H])([H])C([H])([H])N([H])C(=O)N4C([H])([H])C([H])([H])C([H])([H])C([H])(n5nc(-c6c([H])c([H])c(Oc7c([H])c([H])c(F)c([H])c7F)c([H])c6[H])c(C(=O)N([H])[H])c5N([H])[H])C4([H])[H])nnc(C([H])(C([H])([H])[H])C([H])([H])[H])c3[H])c([H])c([H])c2C1([H])[H]

$$$$
84:0:0
     RDKit          3D

 95103  0  0  1  0  0  0  0  0999 V2000
  -27.4300  -20.7330   19.6710 C   0  0  0  0  0  3  0  0  0  0  0  0
  -28.5140  -20.3580   20.4880 C   0  0  0  0  0  0  0  0  0  0  0  0
  -27.2280  -22.0830   19.3140 C   0  0  0  0  0  0  0  0  0  0  0  0
  -29.4020  -21.3900   20.8840 C   0  0  0  0  0  0  0  0  0  0  0  0
  -28.1600  -23.0490   19.7750 C   0  0  0  0  0  0  0  0  0  0  0  0
  -30.6080  -21.1210   21.7650 C   0  0  0  0  0  1  0  0  0  0  0  0
  -29.2330  -22.6880   20.5220 N   0  0  0  0  0  0  0  0  0  0  0  0
  -25.7920  -21.4130   17.3310 C   0  0  0  0  0  1  0  0  0  0  0  0
  -26.0020  -22.4370   18.4570 C   0  0  0  0  0  3  0  0  0  0  0  0
  -24.7250  -23.8660   20.1940 C   0  0  0  0  0  1  0  0  0  0  0  0
  -24.7200  -22.6160   19.3000 C   0  0  0  0  0  2  0  0  0  0  0  0
  -28.5740  -18.9020   20.9930 C   0  0  0  0  0  2  0  0  0  0  0  0
  -29.7260  -17.9910   20.4810 C   0  0  0  0  0  2  0  0  0  0  0  0
  -29.4790  -16.4760   20.7750 C   0  0  0  0  0  2  0  0  0  0  0  0
  -31.0720  -14.6740   19.9390 C   0  0  0  0  0  0  0  0  0  0  0  0
  -30.6960  -12.4340   18.9650 C   0  0  0  0  0  2  0  0  0  0  0  0
  -29.7140  -12.5180   17.7810 C   0  0  0  0  0  2  0  0  0  0  0  0
  -28.2620  -12.3900   18.2800 C   0  0  0  0  0  2  0  0  0  0  0  0
  -27.9610  -13.3370   19.4700 C   0  0  0  0  0  3  0  0  0  0  0  0
  -29.0610  -13.2500   20.5530 C   0  0  0  0  0  2  0  0  0  0  0  0
  -30.3590  -13.5100   19.9160 N   0  0  0  0  0  0  0  0  0  0  0  0
  -32.1240  -14.8090   19.3140 O   0  0  0  0  0  0  0  0  0  0  0  0
  -30.7090  -15.6620   20.7810 N   0  0  0  0  0  0  0  0  0  0  0  0
  -31.5120  -16.2330   20.9960 H   0  0  0  0  0  0  0  0  0  0  0  0
  -25.6450  -14.0120   20.3580 C   0  0  0  0  0  0  0  0  0  0  0  0
  -24.5750  -13.2660   20.7770 C   0  0  0  0  0  0  0  0  0  0  0  0
  -24.9820  -11.9010   20.6800 C   0  0  0  0  0  0  0  0  0  0  0  0
  -26.6360  -13.0990   20.0300 N   0  0  0  0  0  0  0  0  0  0  0  0
  -26.2460  -11.8230   20.2810 N   0  0  0  0  0  0  0  0  0  0  0  0
  -24.2230  -10.6600   20.8830 C   0  0  0  0  0  0  0  0  0  0  0  0
  -24.6380   -9.6870   21.8190 C   0  0  0  0  0  3  0  0  0  0  0  0
  -23.8830   -8.5090   22.0070 C   0  0  0  0  0  3  0  0  0  0  0  0
  -22.6980   -8.2990   21.2620 C   0  0  0  0  0  0  0  0  0  0  0  0
  -22.3030   -9.2610   20.3150 C   0  0  0  0  0  3  0  0  0  0  0  0
  -23.0580  -10.4300   20.1240 C   0  0  0  0  0  3  0  0  0  0  0  0
  -21.9120   -7.1770   21.3630 O   0  0  0  0  0  0  0  0  0  0  0  0
  -21.7920   -6.4860   22.5410 C   0  0  0  0  0  0  0  0  0  0  0  0
  -21.3080   -7.0960   23.7190 C   0  0  0  0  0  3  0  0  0  0  0  0
  -21.1380   -6.3300   24.8890 C   0  0  0  0  0  3  0  0  0  0  0  0
  -21.4400   -4.9550   24.8830 C   0  0  0  0  0  0  0  0  0  0  0  0
  -21.9180   -4.3450   23.7100 C   0  0  0  0  0  3  0  0  0  0  0  0
  -22.0920   -5.1080   22.5410 C   0  0  0  0  0  0  0  0  0  0  0  0
  -22.5340   -4.5120   21.4080 F   0  0  0  0  0  0  0  0  0  0  0  0
  -21.2680   -4.2170   26.0040 F   0  0  0  0  0  0  0  0  0  0  0  0
  -23.2190  -13.7870   21.1520 C   0  0  0  0  0  0  0  0  0  0  0  0
  -22.5270  -13.1010   22.0550 N   0  0  0  0  0  0  0  0  0  0  0  0
  -22.7830  -14.8340   20.6760 O   0  0  0  0  0  0  0  0  0  0  0  0
  -22.8910  -12.2530   22.4640 H   0  0  0  0  0  0  0  0  0  0  0  0
  -21.6170  -13.4330   22.3450 H   0  0  0  0  0  0  0  0  0  0  0  0
  -25.8490  -15.3800   20.2070 N   0  0  0  0  0  0  0  0  0  0  0  0
  -25.1030  -16.0490   20.3630 H   0  0  0  0  0  0  0  0  0  0  0  0
  -26.6720  -15.7940   19.7890 H   0  0  0  0  0  0  0  0  0  0  0  0
  -27.9950  -24.5380   19.4010 C   0  0  0  0  0  3  0  0  0  0  0  0
  -28.7650  -25.6430   20.1790 C   0  0  0  0  0  3  0  0  0  0  0  0
  -28.6780  -26.9880   19.6400 O   0  0  0  0  0  0  0  0  0  0  0  0
  -24.5440  -31.6830   23.0890 C   0  0  0  0  0  0  0  0  0  0  0  0
  -27.4660  -27.6470   19.7090 C   0  0  0  0  0  0  0  0  0  0  0  0
  -23.4310  -30.3310   21.3440 C   0  0  0  0  0  3  0  0  0  0  0  0
  -24.9830  -29.0060   19.8140 C   0  0  0  0  0  0  0  0  0  0  0  0
  -25.9290  -30.8650   21.1870 C   0  0  0  0  0  2  0  0  0  0  0  0
  -26.1040  -29.5520   20.4520 C   0  0  0  0  0  0  0  0  0  0  0  0
  -27.3480  -28.8780   20.4010 C   0  0  0  0  0  3  0  0  0  0  0  0
  -26.3360  -27.1490   19.0260 C   0  0  0  0  0  3  0  0  0  0  0  0
  -25.0940  -27.8050   19.0970 C   0  0  0  0  0  3  0  0  0  0  0  0
  -23.6840  -29.7740   19.9180 C   0  0  0  0  0  2  0  0  0  0  0  0
  -24.6520  -30.9710   21.9320 N   0  0  0  0  0  0  0  0  0  0  0  0
  -23.4480  -31.8420   23.6450 O   0  0  0  0  0  0  0  0  0  0  0  0
  -22.8560  -29.1970   22.2200 C   0  0  0  0  0  0  0  0  0  0  0  0
  -21.5470  -28.9340   22.0760 N   0  0  0  0  0  0  0  0  0  0  0  0
  -23.5830  -28.5600   22.9870 O   0  0  0  0  0  0  0  0  0  0  0  0
  -21.0130  -29.5110   21.4410 H   0  0  0  0  0  0  0  0  0  0  0  0
  -18.2690  -27.4690   22.4530 C   0  0  0  0  0  0  0  0  0  0  0  0
  -20.8010  -27.8820   22.7680 C   0  0  0  0  0  3  0  0  0  0  0  0
  -21.0070  -26.5110   22.0820 C   0  0  0  0  0  2  0  0  0  0  0  0
  -19.9320  -26.1900   21.0400 C   0  0  0  0  0  2  0  0  0  0  0  0
  -18.5410  -26.1910   21.6790 C   0  0  0  0  0  2  0  0  0  0  0  0
  -19.3300  -28.2710   22.9510 C   0  0  0  0  0  0  0  0  0  0  0  0
  -19.0210  -29.4690   23.6310 C   0  0  0  0  0  3  0  0  0  0  0  0
  -17.6840  -29.8670   23.8210 C   0  0  0  0  0  3  0  0  0  0  0  0
  -16.6380  -29.0610   23.3400 C   0  0  0  0  0  3  0  0  0  0  0  0
  -16.9300  -27.8640   22.6630 C   0  0  0  0  0  3  0  0  0  0  0  0
  -25.7870  -32.3520   23.7540 C   0  0  0  0  0  3  0  0  0  0  0  0
  -25.4040  -33.7210   24.1240 N   0  0  0  0  0  0  0  0  0  0  0  0
  -25.6880  -34.8120   23.4010 C   0  0  0  0  0  0  0  0  0  0  0  0
  -26.3680  -34.7760   22.3710 O   0  0  0  0  0  0  0  0  0  0  0  0
  -24.7980  -33.8180   24.9250 H   0  0  0  0  0  0  0  0  0  0  0  0
  -23.8650  -36.5170   23.0910 C   0  0  0  0  0  1  0  0  0  0  0  0
  -25.1250  -36.1580   23.8940 C   0  0  0  0  0  3  0  0  0  0  0  0
  -27.2020  -37.1390   24.7610 C   0  0  0  0  0  1  0  0  0  0  0  0
  -26.0980  -37.2680   23.8140 N   0  0  0  0  0  0  0  0  0  0  0  0
  -25.6400  -38.1590   23.9800 H   0  0  0  0  0  0  0  0  0  0  0  0
  -26.3180  -31.5600   25.0100 C   0  0  1  0  0  0  0  0  0  0  0  0
  -25.2210  -31.2360   26.0500 C   0  0  0  0  0  1  0  0  0  0  0  0
  -26.9700  -30.2240   24.5800 C   0  0  0  0  0  1  0  0  0  0  0  0
  -27.4180  -32.3840   25.7220 C   0  0  0  0  0  1  0  0  0  0  0  0
  1  2  1  0
  2  4  2  0
  2 12  1  0
  3  1  2  0
  3  5  1  0
  4  6  1  0
  5  7  2  0
  7  4  1  0
  9  8  1  0
  9 11  1  0
  9  3  1  0
 11 10  1  0
 13 14  1  0
 13 12  1  0
 14 23  1  0
 15 23  1  0
 16 21  1  0
 17 18  1  0
 17 16  1  0
 19 18  1  0
 19 28  1  0
 19 20  1  0
 21 15  1  0
 21 20  1  0
 22 15  2  0
 23 24  1  0
 25 26  2  0
 26 45  1  0
 27 26  1  0
 27 30  1  0
 28 29  1  0
 28 25  1  0
 29 27  2  0
 30 31  1  0
 31 32  2  0
 33 36  1  0
 33 32  1  0
 34 33  2  0
 35 34  1  0
 35 30  2  0
 36 37  1  0
 37 42  2  0
 37 38  1  0
 38 39  2  0
 40 39  1  0
 40 44  1  0
 41 40  2  0
 42 41  1  0
 43 42  1  0
 45 46  1  0
 46 49  1  0
 46 48  1  0
 47 45  2  0
 50 25  1  0
 50 51  1  0
 52 50  1  0
 53  5  1  0
 53 54  2  0
 55 57  1  0
 55 54  1  0
 56 67  2  0
 57 62  1  0
 58 66  1  0
 58 68  1  0
 59 65  1  0
 59 61  1  0
 60 66  1  0
 61 60  1  0
 62 61  2  0
 63 64  1  0
 63 57  2  0
 64 59  2  0
 65 58  1  0
 66 56  1  0
 68 70  2  0
 69 68  1  0
 71 69  1  0
 72 81  2  0
 72 77  1  0
 73 69  1  0
 73 77  1  0
 74 73  1  0
 75 76  1  0
 75 74  1  0
 76 72  1  0
 77 78  2  0
 78 79  1  0
 80 79  2  0
 81 80  1  0
 82 56  1  0
 82 83  1  0
 82 92  1  0
 83 86  1  0
 84 88  1  0
 84 83  1  0
 85 84  2  0
 88 87  1  0
 90 88  1  0
 90 91  1  0
 90 89  1  0
 92 95  1  1
 92 93  1  0
 94 92  1  0
M  ISO  4  15 100  23 100  54 101  55 101
M  END
>  <TORSDO>  (83) 
F 23

>  <SCORE>  (83) 
-11.927

>  <name>  (83) 
84

>  <ligand_id>  (83) 
84

>  <original_smiles>  (83) 
[H]c1c([H])c([H])c2c(c1[H])C([H])([H])C([H])([H])C([H])([H])C2([H])N([H])C(=O)C1([H])N(C(=O)C([H])(N([H])C(=O)C([H])(N([H])C([H])([H])[H])C([H])([H])[H])C(C([H])([H])[H])(C([H])([H])[H])C([H])([H])[H])C([H])([H])c2c([H])c(OC([H])([H])C([H])([H])c3nc(C([H])([H])[H])c(C([H])([H])C([H])([H])C([H])([H])N([H])C(=O)N4C([H])([H])C([H])([H])C([H])([H])C([H])(n5nc(-c6c([H])c([H])c(Oc7c([H])c([H])c(F)c([H])c7F)c([H])c6[H])c(C(=O)N([H])[H])c5N([H])[H])C4([H])[H])c([H])c3C([H])(C([H])([H])[H])C([H])([H])C([H])([H])[H])c([H])c([H])c2C1([H])[H]

>  <smiles>  (83) 
[H]c1c([H])c([H])c2c(c1[H])C([H])([H])C([H])([H])C([H])([H])C2([H])N([H])C(=O)C1([H])N(C(=O)C([H])(N([H])C(=O)C([H])(N([H])C([H])([H])[H])C([H])([H])[H])C(C([H])([H])[H])(C([H])([H])[H])C([H])([H])[H])C([H])([H])c2c([H])c(OC([H])([H])C([H])([H])c3nc(C([H])([H])[H])c(C([H])([H])C([H])([H])C([H])([H])N([H])C(=O)N4C([H])([H])C([H])([H])C([H])([H])C([H])(n5nc(-c6c([H])c([H])c(Oc7c([H])c([H])c(F)c([H])c7F)c([H])c6[H])c(C(=O)N([H])[H])c5N([H])[H])C4([H])[H])c([H])c3C([H])(C([H])([H])[H])C([H])([H])C([H])([H])[H])c([H])c([H])c2C1([H])[H]

$$$$
85:0:0
     RDKit          3D

 94102  0  0  1  0  0  0  0  0999 V2000
  -30.1130  -21.6400   22.2750 C   0  0  0  0  0  3  0  0  0  0  0  0
  -30.3170  -20.4290   20.4200 C   0  0  0  0  0  3  0  0  0  0  0  0
  -29.7210  -21.5720   20.9050 C   0  0  0  0  0  0  0  0  0  0  0  0
  -30.8490  -20.5310   22.6020 C   0  0  0  0  0  0  0  0  0  0  0  0
  -30.9790  -19.7570   21.4500 N   0  0  0  0  0  0  0  0  0  0  0  0
  -30.2590  -19.6640   24.8880 C   0  0  0  0  0  1  0  0  0  0  0  0
  -32.3090  -21.1010   24.6180 C   0  0  0  0  0  1  0  0  0  0  0  0
  -31.3910  -20.0750   23.9380 C   0  0  0  0  0  3  0  0  0  0  0  0
  -27.4480  -22.5910   21.0180 C   0  0  0  0  0  1  0  0  0  0  0  0
  -28.7440  -22.5190   20.1860 C   0  0  0  0  0  3  0  0  0  0  0  0
  -29.2910  -23.9540   19.9040 C   0  0  0  0  0  2  0  0  0  0  0  0
  -28.3730  -24.8690   19.0260 C   0  0  0  0  0  2  0  0  0  0  0  0
  -28.5780  -26.3960   19.2270 C   0  0  0  0  0  2  0  0  0  0  0  0
  -27.9100  -27.2040   18.2410 O   0  0  0  0  0  0  0  0  0  0  0  0
  -24.4970  -31.2160   23.0500 C   0  0  0  0  0  0  0  0  0  0  0  0
  -26.7320  -27.8010   18.6400 C   0  0  0  0  0  0  0  0  0  0  0  0
  -23.0680  -30.0870   21.3750 C   0  0  0  0  0  3  0  0  0  0  0  0
  -24.3010  -29.0300   19.4030 C   0  0  0  0  0  0  0  0  0  0  0  0
  -25.4790  -30.7240   20.8160 C   0  0  0  0  0  2  0  0  0  0  0  0
  -25.5180  -29.5320   19.8820 C   0  0  0  0  0  0  0  0  0  0  0  0
  -26.7370  -28.9250   19.4980 C   0  0  0  0  0  3  0  0  0  0  0  0
  -25.5000  -27.3130   18.1570 C   0  0  0  0  0  3  0  0  0  0  0  0
  -24.2860  -27.9220   18.5350 C   0  0  0  0  0  3  0  0  0  0  0  0
  -23.0410  -29.7340   19.8620 C   0  0  0  0  0  2  0  0  0  0  0  0
  -24.3760  -30.6800   21.8030 N   0  0  0  0  0  0  0  0  0  0  0  0
  -23.5330  -31.2580   23.8270 O   0  0  0  0  0  0  0  0  0  0  0  0
  -22.6770  -28.8270   22.1810 C   0  0  0  0  0  0  0  0  0  0  0  0
  -21.4170  -28.3850   22.0270 N   0  0  0  0  0  0  0  0  0  0  0  0
  -23.5010  -28.2550   22.8990 O   0  0  0  0  0  0  0  0  0  0  0  0
  -20.7980  -28.9160   21.4320 H   0  0  0  0  0  0  0  0  0  0  0  0
  -18.5190  -26.2320   22.0690 C   0  0  0  0  0  0  0  0  0  0  0  0
  -20.8430  -27.1960   22.6550 C   0  0  0  0  0  3  0  0  0  0  0  0
  -21.4240  -25.9030   22.0360 C   0  0  0  0  0  2  0  0  0  0  0  0
  -20.5770  -25.3530   20.8840 C   0  0  0  0  0  2  0  0  0  0  0  0
  -19.1540  -25.0440   21.3630 C   0  0  0  0  0  2  0  0  0  0  0  0
  -19.3110  -27.2480   22.6620 C   0  0  0  0  0  0  0  0  0  0  0  0
  -18.6700  -28.3470   23.2750 C   0  0  0  0  0  3  0  0  0  0  0  0
  -17.2660  -28.4370   23.3020 C   0  0  0  0  0  3  0  0  0  0  0  0
  -16.4860  -27.4200   22.7270 C   0  0  0  0  0  3  0  0  0  0  0  0
  -17.1110  -26.3180   22.1150 C   0  0  0  0  0  3  0  0  0  0  0  0
  -25.8440  -31.8220   23.5540 C   0  0  0  0  0  3  0  0  0  0  0  0
  -25.5640  -33.1750   24.0530 N   0  0  0  0  0  0  0  0  0  0  0  0
  -25.8430  -34.3020   23.3860 C   0  0  0  0  0  0  0  0  0  0  0  0
  -26.4340  -34.3120   22.3030 O   0  0  0  0  0  0  0  0  0  0  0  0
  -25.0310  -33.2410   24.9070 H   0  0  0  0  0  0  0  0  0  0  0  0
  -24.1230  -36.1360   23.3150 C   0  0  0  0  0  1  0  0  0  0  0  0
  -25.3930  -35.6300   24.0210 C   0  0  0  0  0  3  0  0  0  0  0  0
  -27.5530  -36.4140   24.8830 C   0  0  0  0  0  1  0  0  0  0  0  0
  -26.4310  -36.6810   23.9880 N   0  0  0  0  0  0  0  0  0  0  0  0
  -26.0390  -37.5860   24.2330 H   0  0  0  0  0  0  0  0  0  0  0  0
  -26.5430  -30.9480   24.6690 C   0  0  1  0  0  0  0  0  0  0  0  0
  -25.6180  -30.6050   25.8600 C   0  0  0  0  0  1  0  0  0  0  0  0
  -27.0640  -29.6190   24.0750 C   0  0  0  0  0  1  0  0  0  0  0  0
  -27.7770  -31.6970   25.2280 C   0  0  0  0  0  1  0  0  0  0  0  0
  -31.7330  -18.4810   21.4210 C   0  0  0  0  0  2  0  0  0  0  0  0
  -32.0640  -17.8210   20.0560 C   0  0  0  0  0  2  0  0  0  0  0  0
  -32.4090  -15.3770   20.2010 C   0  0  0  0  0  0  0  0  0  0  0  0
  -32.4930  -12.9110   20.3980 C   0  0  0  0  0  2  0  0  0  0  0  0
  -31.7400  -12.2670   19.2170 C   0  0  0  0  0  2  0  0  0  0  0  0
  -30.2460  -12.1090   19.5600 C   0  0  0  0  0  2  0  0  0  0  0  0
  -29.6220  -13.4020   20.1360 C   0  0  0  0  0  3  0  0  0  0  0  0
  -30.5180  -14.0470   21.2260 C   0  0  0  0  0  2  0  0  0  0  0  0
  -31.8650  -14.2160   20.6690 N   0  0  0  0  0  0  0  0  0  0  0  0
  -33.5970  -15.4620   19.8880 O   0  0  0  0  0  0  0  0  0  0  0  0
  -30.6690  -16.2950   18.8000 C   0  0  0  0  0  1  0  0  0  0  0  0
  -31.5710  -16.4260   19.9500 N   0  0  0  0  0  0  0  0  0  0  0  0
  -27.2670  -14.1370   20.8490 C   0  0  0  0  0  0  0  0  0  0  0  0
  -26.1510  -13.4170   21.1860 C   0  0  0  0  0  0  0  0  0  0  0  0
  -26.5370  -12.0440   21.1210 C   0  0  0  0  0  0  0  0  0  0  0  0
  -28.2580  -13.1980   20.6010 N   0  0  0  0  0  0  0  0  0  0  0  0
  -27.8230  -11.9350   20.8220 N   0  0  0  0  0  0  0  0  0  0  0  0
  -25.7360  -10.8230   21.2610 C   0  0  0  0  0  0  0  0  0  0  0  0
  -25.9630   -9.9030   22.3090 C   0  0  0  0  0  3  0  0  0  0  0  0
  -25.1630   -8.7490   22.4320 C   0  0  0  0  0  3  0  0  0  0  0  0
  -24.1210   -8.5090   21.5060 C   0  0  0  0  0  0  0  0  0  0  0  0
  -23.9170   -9.4150   20.4500 C   0  0  0  0  0  3  0  0  0  0  0  0
  -24.7220  -10.5590   20.3210 C   0  0  0  0  0  3  0  0  0  0  0  0
  -23.3060   -7.4020   21.5380 O   0  0  0  0  0  0  0  0  0  0  0  0
  -22.4810   -7.1470   22.6040 C   0  0  0  0  0  0  0  0  0  0  0  0
  -21.4740   -8.0550   22.9950 C   0  0  0  0  0  3  0  0  0  0  0  0
  -20.5960   -7.7230   24.0470 C   0  0  0  0  0  3  0  0  0  0  0  0
  -20.7210   -6.4860   24.7050 C   0  0  0  0  0  0  0  0  0  0  0  0
  -21.7220   -5.5790   24.3170 C   0  0  0  0  0  3  0  0  0  0  0  0
  -22.5950   -5.9040   23.2630 C   0  0  0  0  0  0  0  0  0  0  0  0
  -23.5440   -5.0170   22.8800 F   0  0  0  0  0  0  0  0  0  0  0  0
  -19.8710   -6.1680   25.7100 F   0  0  0  0  0  0  0  0  0  0  0  0
  -24.7820  -13.9730   21.4460 C   0  0  0  0  0  0  0  0  0  0  0  0
  -23.9700  -13.2610   22.2190 N   0  0  0  0  0  0  0  0  0  0  0  0
  -24.4360  -15.0670   20.9990 O   0  0  0  0  0  0  0  0  0  0  0  0
  -24.2610  -12.3760   22.6080 H   0  0  0  0  0  0  0  0  0  0  0  0
  -23.0490  -13.6170   22.4320 H   0  0  0  0  0  0  0  0  0  0  0  0
  -27.5040  -15.4990   20.7110 N   0  0  0  0  0  0  0  0  0  0  0  0
  -26.7640  -16.1780   20.8510 H   0  0  0  0  0  0  0  0  0  0  0  0
  -28.3800  -15.9160   20.4170 H   0  0  0  0  0  0  0  0  0  0  0  0
  1  4  2  0
  2  3  2  0
  2  5  1  0
  3  1  1  0
  4  8  1  0
  5  4  1  0
  8  7  1  0
  8  6  1  0
 10  3  1  0
 10  9  1  0
 11 10  1  0
 12 13  1  0
 12 11  1  0
 14 16  1  0
 14 13  1  0
 15 26  2  0
 16 21  1  0
 17 25  1  0
 17 27  1  0
 18 24  1  0
 18 20  1  0
 19 25  1  0
 20 19  1  0
 21 20  2  0
 22 23  1  0
 22 16  2  0
 23 18  2  0
 24 17  1  0
 25 15  1  0
 27 29  2  0
 28 27  1  0
 30 28  1  0
 31 40  2  0
 31 36  1  0
 32 28  1  0
 32 36  1  0
 33 32  1  0
 34 35  1  0
 34 33  1  0
 35 31  1  0
 36 37  2  0
 37 38  1  0
 39 38  2  0
 40 39  1  0
 41 15  1  0
 41 42  1  0
 41 51  1  0
 42 45  1  0
 43 47  1  0
 43 42  1  0
 44 43  2  0
 47 46  1  0
 49 47  1  0
 49 50  1  0
 49 48  1  0
 51 54  1  1
 51 52  1  0
 53 51  1  0
 55  5  1  0
 56 55  1  0
 57 63  1  0
 58 63  1  0
 59 60  1  0
 59 58  1  0
 61 60  1  0
 61 70  1  0
 61 62  1  0
 63 62  1  0
 64 57  2  0
 65 66  1  0
 66 56  1  0
 66 57  1  0
 67 68  2  0
 68 87  1  0
 69 68  1  0
 69 72  1  0
 70 71  1  0
 70 67  1  0
 71 69  2  0
 72 73  1  0
 73 74  2  0
 75 78  1  0
 75 74  1  0
 76 75  2  0
 77 76  1  0
 77 72  2  0
 78 79  1  0
 79 80  2  0
 79 84  1  0
 80 81  1  0
 81 82  2  0
 82 86  1  0
 83 82  1  0
 84 83  2  0
 85 84  1  0
 87 88  1  0
 88 91  1  0
 88 90  1  0
 89 87  2  0
 92 67  1  0
 92 93  1  0
 94 92  1  0
M  ISO  4  13 101  14 101  57 100  66 100
M  END
>  <TORSDO>  (84) 
F 23

>  <SCORE>  (84) 
-7.685

>  <name>  (84) 
85

>  <ligand_id>  (84) 
85

>  <original_smiles>  (84) 
[H]c1c([H])c([H])c2c(c1[H])C([H])([H])C([H])([H])C([H])([H])C2([H])N([H])C(=O)C1([H])N(C(=O)C([H])(N([H])C(=O)C([H])(N([H])C([H])([H])[H])C([H])([H])[H])C(C([H])([H])[H])(C([H])([H])[H])C([H])([H])[H])C([H])([H])c2c([H])c(OC([H])([H])C([H])([H])C([H])([H])C([H])(c3c([H])c(C([H])(C([H])([H])[H])C([H])([H])[H])n(C([H])([H])C([H])([H])N(C(=O)N4C([H])([H])C([H])([H])C([H])([H])C([H])(n5nc(-c6c([H])c([H])c(Oc7c([H])c([H])c(F)c([H])c7F)c([H])c6[H])c(C(=O)N([H])[H])c5N([H])[H])C4([H])[H])C([H])([H])[H])c3[H])C([H])([H])[H])c([H])c([H])c2C1([H])[H]

>  <smiles>  (84) 
[H]c1c([H])c([H])c2c(c1[H])C([H])([H])C([H])([H])C([H])([H])C2([H])N([H])C(=O)C1([H])N(C(=O)C([H])(N([H])C(=O)C([H])(N([H])C([H])([H])[H])C([H])([H])[H])C(C([H])([H])[H])(C([H])([H])[H])C([H])([H])[H])C([H])([H])c2c([H])c(OC([H])([H])C([H])([H])C([H])([H])C([H])(c3c([H])c(C([H])(C([H])([H])[H])C([H])([H])[H])n(C([H])([H])C([H])([H])N(C(=O)N4C([H])([H])C([H])([H])C([H])([H])C([H])(n5nc(-c6c([H])c([H])c(Oc7c([H])c([H])c(F)c([H])c7F)c([H])c6[H])c(C(=O)N([H])[H])c5N([H])[H])C4([H])[H])C([H])([H])[H])c3[H])C([H])([H])[H])c([H])c([H])c2C1([H])[H]

$$$$
86:0:0
     RDKit          3D

 93101  0  0  1  0  0  0  0  0999 V2000
  -29.3040  -21.4190   21.2290 C   0  0  0  0  0  0  0  0  0  0  0  0
  -30.0450  -20.3280   21.7570 C   0  0  0  0  0  0  0  0  0  0  0  0
  -29.0290  -21.0920   19.9180 C   0  0  0  0  0  0  0  0  0  0  0  0
  -28.8700  -22.6300   22.0140 C   0  0  0  0  0  1  0  0  0  0  0  0
  -30.2190  -19.3740   20.8670 N   0  0  0  0  0  0  0  0  0  0  0  0
  -29.5760  -19.7580   19.7400 N   0  0  0  0  0  0  0  0  0  0  0  0
  -30.5690  -20.1250   23.1630 C   0  0  0  0  0  2  0  0  0  0  0  0
  -32.5030  -18.5190   22.5320 C   0  0  0  0  0  1  0  0  0  0  0  0
  -32.0750  -19.8050   23.2550 C   0  0  0  0  0  2  0  0  0  0  0  0
  -28.1540  -21.9950   18.9760 C   0  0  0  0  0  2  0  0  0  0  0  0
  -28.4970  -23.5730   18.7230 C   0  0  0  0  0  3  0  0  0  0  0  0
  -27.3390  -24.6850   18.5340 C   0  0  0  0  0  3  0  0  0  0  0  0
  -27.6220  -26.1620   18.3950 O   0  0  0  0  0  0  0  0  0  0  0  0
  -25.0310  -30.9910   23.1500 C   0  0  0  0  0  0  0  0  0  0  0  0
  -26.6170  -27.1040   18.7240 C   0  0  0  0  0  0  0  0  0  0  0  0
  -23.4230  -30.0250   21.5450 C   0  0  0  0  0  3  0  0  0  0  0  0
  -24.4410  -28.7910   19.5450 C   0  0  0  0  0  0  0  0  0  0  0  0
  -25.8950  -30.2890   20.9030 C   0  0  0  0  0  2  0  0  0  0  0  0
  -25.7400  -29.0820   19.9800 C   0  0  0  0  0  0  0  0  0  0  0  0
  -26.8290  -28.2480   19.5690 C   0  0  0  0  0  3  0  0  0  0  0  0
  -25.2980  -26.9120   18.2540 C   0  0  0  0  0  3  0  0  0  0  0  0
  -24.2240  -27.7160   18.6730 C   0  0  0  0  0  3  0  0  0  0  0  0
  -23.3100  -29.6730   20.0370 C   0  0  0  0  0  2  0  0  0  0  0  0
  -24.8140  -30.4420   21.9190 N   0  0  0  0  0  0  0  0  0  0  0  0
  -24.0990  -31.1750   23.9460 O   0  0  0  0  0  0  0  0  0  0  0  0
  -22.8940  -28.8410   22.3880 C   0  0  0  0  0  0  0  0  0  0  0  0
  -21.5940  -28.5270   22.2500 N   0  0  0  0  0  0  0  0  0  0  0  0
  -23.6530  -28.2090   23.1300 O   0  0  0  0  0  0  0  0  0  0  0  0
  -21.0320  -29.1030   21.6370 H   0  0  0  0  0  0  0  0  0  0  0  0
  -18.4980  -26.6570   22.3430 C   0  0  0  0  0  0  0  0  0  0  0  0
  -20.9000  -27.4240   22.9140 C   0  0  0  0  0  3  0  0  0  0  0  0
  -21.3580  -26.0580   22.3540 C   0  0  0  0  0  2  0  0  0  0  0  0
  -20.4720  -25.5450   21.2150 C   0  0  0  0  0  2  0  0  0  0  0  0
  -19.0240  -25.3900   21.6900 C   0  0  0  0  0  2  0  0  0  0  0  0
  -19.3790  -27.6190   22.9040 C   0  0  0  0  0  0  0  0  0  0  0  0
  -18.8400  -28.7940   23.4700 C   0  0  0  0  0  3  0  0  0  0  0  0
  -17.4500  -29.0160   23.4820 C   0  0  0  0  0  3  0  0  0  0  0  0
  -16.5810  -28.0550   22.9370 C   0  0  0  0  0  3  0  0  0  0  0  0
  -17.1050  -26.8770   22.3740 C   0  0  0  0  0  3  0  0  0  0  0  0
  -26.4550  -31.4380   23.6050 C   0  0  0  0  0  3  0  0  0  0  0  0
  -26.3130  -32.7210   24.3070 N   0  0  0  0  0  0  0  0  0  0  0  0
  -26.6240  -33.9140   23.7850 C   0  0  0  0  0  0  0  0  0  0  0  0
  -27.1330  -34.0440   22.6680 O   0  0  0  0  0  0  0  0  0  0  0  0
  -25.8520  -32.6960   25.2050 H   0  0  0  0  0  0  0  0  0  0  0  0
  -25.0530  -35.8520   24.1200 C   0  0  0  0  0  1  0  0  0  0  0  0
  -26.3270  -35.1660   24.6360 C   0  0  0  0  0  3  0  0  0  0  0  0
  -28.6120  -35.6630   25.3890 C   0  0  0  0  0  1  0  0  0  0  0  0
  -27.4390  -36.1400   24.6620 N   0  0  0  0  0  0  0  0  0  0  0  0
  -27.1390  -37.0160   25.0790 H   0  0  0  0  0  0  0  0  0  0  0  0
  -27.1720  -30.3760   24.5280 C   0  0  1  0  0  0  0  0  0  0  0  0
  -26.2980  -29.8810   25.7040 C   0  0  0  0  0  1  0  0  0  0  0  0
  -27.6040  -29.1350   23.7100 C   0  0  0  0  0  1  0  0  0  0  0  0
  -28.4630  -30.9860   25.1200 C   0  0  0  0  0  1  0  0  0  0  0  0
  -29.4700  -18.6460   18.7150 C   0  0  0  0  0  2  0  0  0  0  0  0
  -30.5820  -17.4490   18.6840 C   0  0  0  0  0  2  0  0  0  0  0  0
  -31.1130  -14.8880   19.0340 C   0  0  0  0  0  0  0  0  0  0  0  0
  -31.0930  -12.3940   18.8370 C   0  0  0  0  0  2  0  0  0  0  0  0
  -30.1150  -11.9640   17.7220 C   0  0  0  0  0  2  0  0  0  0  0  0
  -28.6810  -11.8360   18.2740 C   0  0  0  0  0  2  0  0  0  0  0  0
  -28.2610  -13.0530   19.1370 C   0  0  0  0  0  3  0  0  0  0  0  0
  -29.3530  -13.4450   20.1530 C   0  0  0  0  0  2  0  0  0  0  0  0
  -30.5920  -13.6690   19.3990 N   0  0  0  0  0  0  0  0  0  0  0  0
  -32.2760  -14.9650   18.6280 O   0  0  0  0  0  0  0  0  0  0  0  0
  -30.2600  -15.9770   18.9530 N   0  0  0  0  0  0  0  0  0  0  0  0
  -29.3050  -15.7880   19.2190 H   0  0  0  0  0  0  0  0  0  0  0  0
  -26.0020  -13.7820   20.1060 C   0  0  0  0  0  0  0  0  0  0  0  0
  -24.9460  -13.0700   20.6050 C   0  0  0  0  0  0  0  0  0  0  0  0
  -25.3350  -11.6960   20.5550 C   0  0  0  0  0  0  0  0  0  0  0  0
  -26.9670  -12.8440   19.7780 N   0  0  0  0  0  0  0  0  0  0  0  0
  -26.5810  -11.5850   20.1090 N   0  0  0  0  0  0  0  0  0  0  0  0
  -24.5690  -10.4770   20.8470 C   0  0  0  0  0  0  0  0  0  0  0  0
  -24.8500   -9.6790   21.9780 C   0  0  0  0  0  3  0  0  0  0  0  0
  -24.0850   -8.5240   22.2490 C   0  0  0  0  0  3  0  0  0  0  0  0
  -23.0230   -8.1560   21.3870 C   0  0  0  0  0  0  0  0  0  0  0  0
  -22.7610   -8.9410   20.2500 C   0  0  0  0  0  3  0  0  0  0  0  0
  -23.5280  -10.0880   19.9800 C   0  0  0  0  0  3  0  0  0  0  0  0
  -22.2430   -7.0380   21.5550 O   0  0  0  0  0  0  0  0  0  0  0  0
  -21.7730   -6.6700   22.7890 C   0  0  0  0  0  0  0  0  0  0  0  0
  -20.9170   -7.5070   23.5400 C   0  0  0  0  0  3  0  0  0  0  0  0
  -20.3990   -7.0600   24.7710 C   0  0  0  0  0  3  0  0  0  0  0  0
  -20.7280   -5.7780   25.2520 C   0  0  0  0  0  0  0  0  0  0  0  0
  -21.5740   -4.9410   24.5020 C   0  0  0  0  0  3  0  0  0  0  0  0
  -22.0920   -5.3860   23.2730 C   0  0  0  0  0  0  0  0  0  0  0  0
  -22.8900   -4.5670   22.5460 F   0  0  0  0  0  0  0  0  0  0  0  0
  -20.2220   -5.3450   26.4310 F   0  0  0  0  0  0  0  0  0  0  0  0
  -23.6120  -13.6210   21.0170 C   0  0  0  0  0  0  0  0  0  0  0  0
  -22.9670  -12.9910   21.9930 N   0  0  0  0  0  0  0  0  0  0  0  0
  -23.1590  -14.6450   20.5080 O   0  0  0  0  0  0  0  0  0  0  0  0
  -23.3540  -12.1630   22.4210 H   0  0  0  0  0  0  0  0  0  0  0  0
  -22.0730  -13.3350   22.3150 H   0  0  0  0  0  0  0  0  0  0  0  0
  -26.2130  -15.1390   19.8860 N   0  0  0  0  0  0  0  0  0  0  0  0
  -25.5010  -15.8310   20.0850 H   0  0  0  0  0  0  0  0  0  0  0  0
  -27.0390  -15.5340   19.4520 H   0  0  0  0  0  0  0  0  0  0  0  0
  1  2  1  0
  1  4  1  0
  2  7  1  0
  3  1  2  0
  5  2  2  0
  6  3  1  0
  6  5  1  0
  7  9  1  0
  8  9  1  0
 10  3  1  0
 11 10  1  0
 12 11  2  0
 13 12  1  0
 13 15  1  0
 14 25  2  0
 15 20  1  0
 16 24  1  0
 16 26  1  0
 17 19  1  0
 17 23  1  0
 18 24  1  0
 19 18  1  0
 20 19  2  0
 21 22  1  0
 21 15  2  0
 22 17  2  0
 23 16  1  0
 24 14  1  0
 26 28  2  0
 27 26  1  0
 29 27  1  0
 30 39  2  0
 30 35  1  0
 31 27  1  0
 32 31  1  0
 33 34  1  0
 33 32  1  0
 34 30  1  0
 35 31  1  0
 35 36  2  0
 36 37  1  0
 38 37  2  0
 39 38  1  0
 40 14  1  0
 40 41  1  0
 40 50  1  0
 41 44  1  0
 42 41  1  0
 42 46  1  0
 43 42  2  0
 46 45  1  0
 46 48  1  0
 48 49  1  0
 48 47  1  0
 50 53  1  1
 50 51  1  0
 52 50  1  0
 54  6  1  0
 55 54  1  0
 55 64  1  0
 56 62  1  0
 57 62  1  0
 58 59  1  0
 58 57  1  0
 60 59  1  0
 60 69  1  0
 60 61  1  0
 62 61  1  0
 63 56  2  0
 64 56  1  0
 64 65  1  0
 66 67  2  0
 67 86  1  0
 68 67  1  0
 68 71  1  0
 69 66  1  0
 69 70  1  0
 70 68  2  0
 71 72  1  0
 72 73  2  0
 74 77  1  0
 74 73  1  0
 75 74  2  0
 76 75  1  0
 76 71  2  0
 77 78  1  0
 78 83  2  0
 78 79  1  0
 79 80  2  0
 80 81  1  0
 81 85  1  0
 82 81  2  0
 83 82  1  0
 84 83  1  0
 86 87  1  0
 87 90  1  0
 87 89  1  0
 88 86  2  0
 91 92  1  0
 91 66  1  0
 93 91  1  0
M  ISO  4  12 101  13 101  56 100  64 100
M  END
>  <TORSDO>  (85) 
F 23

>  <SCORE>  (85) 
-8.168

>  <name>  (85) 
86

>  <ligand_id>  (85) 
86

>  <original_smiles>  (85) 
[H]c1c([H])c([H])c2c(c1[H])C([H])([H])C([H])([H])C([H])([H])C2([H])N([H])C(=O)C1([H])N(C(=O)C([H])(N([H])C(=O)C([H])(N([H])C([H])([H])[H])C([H])([H])[H])C(C([H])([H])[H])(C([H])([H])[H])C([H])([H])[H])C([H])([H])c2c([H])c(OC([H])([H])C([H])([H])C([H])([H])c3c(C([H])([H])[H])c(C([H])([H])C([H])([H])C([H])([H])[H])nn3C([H])([H])C([H])([H])N([H])C(=O)N3C([H])([H])C([H])([H])C([H])([H])C([H])(n4nc(-c5c([H])c([H])c(Oc6c([H])c([H])c(F)c([H])c6F)c([H])c5[H])c(C(=O)N([H])[H])c4N([H])[H])C3([H])[H])c([H])c([H])c2C1([H])[H]

>  <smiles>  (85) 
[H]c1c([H])c([H])c2c(c1[H])C([H])([H])C([H])([H])C([H])([H])C2([H])N([H])C(=O)C1([H])N(C(=O)C([H])(N([H])C(=O)C([H])(N([H])C([H])([H])[H])C([H])([H])[H])C(C([H])([H])[H])(C([H])([H])[H])C([H])([H])[H])C([H])([H])c2c([H])c(OC([H])([H])C([H])([H])C([H])([H])c3c(C([H])([H])[H])c(C([H])([H])C([H])([H])C([H])([H])[H])nn3C([H])([H])C([H])([H])N([H])C(=O)N3C([H])([H])C([H])([H])C([H])([H])C([H])(n4nc(-c5c([H])c([H])c(Oc6c([H])c([H])c(F)c([H])c6F)c([H])c5[H])c(C(=O)N([H])[H])c4N([H])[H])C3([H])[H])c([H])c([H])c2C1([H])[H]

$$$$
87:0:0
     RDKit          3D

 94102  0  0  1  0  0  0  0  0999 V2000
  -29.7940  -19.7830   19.2770 C   0  0  0  0  0  3  0  0  0  0  0  0
  -28.1530  -20.2300   17.5620 C   0  0  0  0  0  3  0  0  0  0  0  0
  -29.2670  -20.6530   18.3010 C   0  0  0  0  0  0  0  0  0  0  0  0
  -29.1190  -18.5680   19.5530 C   0  0  0  0  0  0  0  0  0  0  0  0
  -27.9090  -18.3230   18.8440 C   0  0  0  0  0  0  0  0  0  0  0  0
  -27.4720  -19.1160   17.8520 N   0  0  0  0  0  0  0  0  0  0  0  0
  -29.1790  -17.6210   21.9660 C   0  0  0  0  0  1  0  0  0  0  0  0
  -29.7440  -17.5580   20.5330 C   0  0  0  0  0  3  0  0  0  0  0  0
  -29.7560  -16.1660   19.8570 C   0  0  0  0  0  2  0  0  0  0  0  0
  -30.9180  -14.0590   20.0080 C   0  0  0  0  0  0  0  0  0  0  0  0
  -30.5130  -11.8680   18.9770 C   0  0  0  0  0  2  0  0  0  0  0  0
  -29.5030  -12.0320   17.8150 C   0  0  0  0  0  2  0  0  0  0  0  0
  -28.0500  -11.9630   18.3320 C   0  0  0  0  0  2  0  0  0  0  0  0
  -27.8030  -12.8690   19.5630 C   0  0  0  0  0  3  0  0  0  0  0  0
  -28.9120  -12.6660   20.6250 C   0  0  0  0  0  2  0  0  0  0  0  0
  -30.2290  -12.8940   19.9880 N   0  0  0  0  0  0  0  0  0  0  0  0
  -31.9600  -14.2640   19.3750 O   0  0  0  0  0  0  0  0  0  0  0  0
  -30.2640  -15.0400   20.6360 N   0  0  0  0  0  0  0  0  0  0  0  0
  -29.5690  -14.6320   21.2420 H   0  0  0  0  0  0  0  0  0  0  0  0
  -25.4940  -13.5940   20.4500 C   0  0  0  0  0  0  0  0  0  0  0  0
  -24.4170  -12.8740   20.9010 C   0  0  0  0  0  0  0  0  0  0  0  0
  -24.7990  -11.5020   20.8090 C   0  0  0  0  0  0  0  0  0  0  0  0
  -26.4710  -12.6610   20.1270 N   0  0  0  0  0  0  0  0  0  0  0  0
  -26.0590  -11.3980   20.3980 N   0  0  0  0  0  0  0  0  0  0  0  0
  -24.0180  -10.2800   21.0230 C   0  0  0  0  0  0  0  0  0  0  0  0
  -24.4650   -9.2690   21.9000 C   0  0  0  0  0  3  0  0  0  0  0  0
  -23.6880   -8.1090   22.1050 C   0  0  0  0  0  3  0  0  0  0  0  0
  -22.4530   -7.9570   21.4350 C   0  0  0  0  0  0  0  0  0  0  0  0
  -22.0210   -8.9580   20.5460 C   0  0  0  0  0  3  0  0  0  0  0  0
  -22.7970  -10.1100   20.3400 C   0  0  0  0  0  3  0  0  0  0  0  0
  -21.6430   -6.8530   21.5620 O   0  0  0  0  0  0  0  0  0  0  0  0
  -21.6470   -6.0830   22.6960 C   0  0  0  0  0  0  0  0  0  0  0  0
  -21.3480   -6.6240   23.9660 C   0  0  0  0  0  3  0  0  0  0  0  0
  -21.2970   -5.7820   25.0960 C   0  0  0  0  0  3  0  0  0  0  0  0
  -21.5270   -4.4020   24.9570 C   0  0  0  0  0  0  0  0  0  0  0  0
  -21.8220   -3.8600   23.6930 C   0  0  0  0  0  3  0  0  0  0  0  0
  -21.8780   -4.6980   22.5660 C   0  0  0  0  0  0  0  0  0  0  0  0
  -22.1390   -4.1640   21.3490 F   0  0  0  0  0  0  0  0  0  0  0  0
  -21.4670   -3.5940   26.0440 F   0  0  0  0  0  0  0  0  0  0  0  0
  -23.0760  -13.4250   21.2940 C   0  0  0  0  0  0  0  0  0  0  0  0
  -22.3840  -12.7600   22.2160 N   0  0  0  0  0  0  0  0  0  0  0  0
  -22.6530  -14.4760   20.8230 O   0  0  0  0  0  0  0  0  0  0  0  0
  -22.7370  -11.9120   22.6330 H   0  0  0  0  0  0  0  0  0  0  0  0
  -21.4880  -13.1130   22.5130 H   0  0  0  0  0  0  0  0  0  0  0  0
  -25.7120  -14.9480   20.2680 N   0  0  0  0  0  0  0  0  0  0  0  0
  -24.9940  -15.6450   20.4380 H   0  0  0  0  0  0  0  0  0  0  0  0
  -26.5330  -15.3310   19.8200 H   0  0  0  0  0  0  0  0  0  0  0  0
  -25.7590  -17.5930   20.0260 C   0  0  0  0  0  1  0  0  0  0  0  0
  -26.9300  -17.1970   19.1280 C   0  0  0  0  0  2  0  0  0  0  0  0
  -29.7190  -22.0900   18.1520 C   0  0  0  0  0  2  0  0  0  0  0  0
  -28.6980  -22.9420   18.9210 C   0  0  0  0  0  2  0  0  0  0  0  0
  -28.8310  -24.4650   18.8790 C   0  0  0  0  0  2  0  0  0  0  0  0
  -28.1440  -24.9580   20.1570 C   0  0  0  0  0  2  0  0  0  0  0  0
  -28.1950  -26.3600   20.3340 O   0  0  0  0  0  0  0  0  0  0  0  0
  -24.5130  -31.6120   23.3660 C   0  0  0  0  0  0  0  0  0  0  0  0
  -27.0070  -27.0490   20.3550 C   0  0  0  0  0  0  0  0  0  0  0  0
  -23.2740  -30.2650   21.6930 C   0  0  0  0  0  3  0  0  0  0  0  0
  -24.6820  -28.6430   20.3180 C   0  0  0  0  0  0  0  0  0  0  0  0
  -25.8180  -30.4950   21.5570 C   0  0  0  0  0  2  0  0  0  0  0  0
  -25.8460  -29.1190   20.9300 C   0  0  0  0  0  0  0  0  0  0  0  0
  -27.0140  -28.3300   20.9390 C   0  0  0  0  0  3  0  0  0  0  0  0
  -25.8200  -26.5610   19.7620 C   0  0  0  0  0  3  0  0  0  0  0  0
  -24.6620  -27.3660   19.7310 C   0  0  0  0  0  3  0  0  0  0  0  0
  -23.4850  -29.5650   20.3240 C   0  0  0  0  0  2  0  0  0  0  0  0
  -24.5540  -30.8050   22.2640 N   0  0  0  0  0  0  0  0  0  0  0  0
  -23.4330  -31.9480   23.8750 O   0  0  0  0  0  0  0  0  0  0  0  0
  -22.5390  -29.2910   22.6450 C   0  0  0  0  0  0  0  0  0  0  0  0
  -21.2060  -29.2040   22.4960 N   0  0  0  0  0  0  0  0  0  0  0  0
  -23.1640  -28.6230   23.4720 O   0  0  0  0  0  0  0  0  0  0  0  0
  -20.7610  -29.7880   21.8000 H   0  0  0  0  0  0  0  0  0  0  0  0
  -17.7530  -28.2400   22.8950 C   0  0  0  0  0  0  0  0  0  0  0  0
  -20.3100  -28.3220   23.2460 C   0  0  0  0  0  3  0  0  0  0  0  0
  -20.3330  -26.8850   22.6650 C   0  0  0  0  0  2  0  0  0  0  0  0
  -19.2480  -26.6460   21.6150 C   0  0  0  0  0  2  0  0  0  0  0  0
  -17.8510  -26.8900   22.1970 C   0  0  0  0  0  2  0  0  0  0  0  0
  -18.9060  -28.9220   23.3650 C   0  0  0  0  0  0  0  0  0  0  0  0
  -18.7580  -30.1940   23.9560 C   0  0  0  0  0  3  0  0  0  0  0  0
  -17.4870  -30.7800   24.0920 C   0  0  0  0  0  3  0  0  0  0  0  0
  -16.3450  -30.0960   23.6400 C   0  0  0  0  0  3  0  0  0  0  0  0
  -16.4770  -28.8260   23.0480 C   0  0  0  0  0  3  0  0  0  0  0  0
  -25.8160  -32.1730   24.0190 C   0  0  0  0  0  3  0  0  0  0  0  0
  -25.5960  -33.5970   24.3050 N   0  0  0  0  0  0  0  0  0  0  0  0
  -26.0090  -34.6040   23.5190 C   0  0  0  0  0  0  0  0  0  0  0  0
  -26.6890  -34.4300   22.5070 O   0  0  0  0  0  0  0  0  0  0  0  0
  -25.0040  -33.8150   25.0900 H   0  0  0  0  0  0  0  0  0  0  0  0
  -24.3960  -36.4850   23.0920 C   0  0  0  0  0  1  0  0  0  0  0  0
  -25.6020  -36.0330   23.9290 C   0  0  0  0  0  3  0  0  0  0  0  0
  -27.7800  -36.8110   24.7550 C   0  0  0  0  0  1  0  0  0  0  0  0
  -26.7000  -37.0180   23.7940 N   0  0  0  0  0  0  0  0  0  0  0  0
  -26.3480  -37.9640   23.9150 H   0  0  0  0  0  0  0  0  0  0  0  0
  -26.2380  -31.3980   25.3270 C   0  0  1  0  0  0  0  0  0  0  0  0
  -25.0960  -31.2480   26.3600 C   0  0  0  0  0  1  0  0  0  0  0  0
  -26.7510  -29.9810   24.9770 C   0  0  0  0  0  1  0  0  0  0  0  0
  -27.4080  -32.1360   26.0200 C   0  0  0  0  0  1  0  0  0  0  0  0
  1  4  1  0
  2  6  2  0
  2  3  1  0
  3  1  2  0
  4  8  1  0
  5 49  1  0
  5  4  2  0
  6  5  1  0
  8  7  1  0
  9  8  1  0
  9 18  1  0
 10 18  1  0
 11 16  1  0
 12 13  1  0
 12 11  1  0
 14 13  1  0
 14 23  1  0
 14 15  1  0
 16 10  1  0
 16 15  1  0
 17 10  2  0
 18 19  1  0
 20 21  2  0
 21 40  1  0
 22 21  1  0
 22 25  1  0
 23 24  1  0
 23 20  1  0
 24 22  2  0
 25 26  1  0
 26 27  2  0
 28 31  1  0
 28 27  1  0
 29 28  2  0
 30 29  1  0
 30 25  2  0
 31 32  1  0
 32 33  1  0
 33 34  2  0
 35 34  1  0
 35 39  1  0
 36 35  2  0
 37 32  2  0
 37 36  1  0
 38 37  1  0
 40 41  1  0
 41 44  1  0
 41 43  1  0
 42 40  2  0
 45 46  1  0
 45 20  1  0
 47 45  1  0
 49 48  1  0
 50  3  1  0
 50 51  1  0
 52 51  1  0
 52 53  1  0
 53 54  1  0
 54 56  1  0
 55 66  2  0
 56 61  1  0
 57 65  1  0
 57 67  1  0
 58 64  1  0
 58 60  1  0
 59 65  1  0
 60 61  2  0
 60 59  1  0
 62 56  2  0
 63 62  1  0
 63 58  2  0
 64 57  1  0
 65 55  1  0
 67 69  2  0
 68 67  1  0
 70 68  1  0
 71 80  2  0
 71 76  1  0
 72 68  1  0
 72 76  1  0
 73 72  1  0
 74 75  1  0
 74 73  1  0
 75 71  1  0
 76 77  2  0
 77 78  1  0
 79 78  2  0
 80 79  1  0
 81 55  1  0
 81 82  1  0
 81 91  1  0
 82 85  1  0
 83 87  1  0
 83 82  1  0
 84 83  2  0
 87 86  1  0
 89 90  1  0
 89 87  1  0
 89 88  1  0
 91 94  1  1
 91 92  1  0
 93 91  1  0
M  ISO  4  10 100  18 100  53 101  54 101
M  END
>  <TORSDO>  (86) 
F 23

>  <SCORE>  (86) 
-11.104

>  <name>  (86) 
87

>  <ligand_id>  (86) 
87

>  <original_smiles>  (86) 
[H]c1nc(C([H])([H])C([H])([H])[H])c(C([H])(C([H])([H])[H])C([H])([H])N([H])C(=O)N2C([H])([H])C([H])([H])C([H])([H])C([H])(n3nc(-c4c([H])c([H])c(Oc5c([H])c([H])c(F)c([H])c5F)c([H])c4[H])c(C(=O)N([H])[H])c3N([H])[H])C2([H])[H])c([H])c1C([H])([H])C([H])([H])C([H])([H])C([H])([H])Oc1c([H])c([H])c2c(c1[H])C([H])([H])N(C(=O)C([H])(N([H])C(=O)C([H])(N([H])C([H])([H])[H])C([H])([H])[H])C(C([H])([H])[H])(C([H])([H])[H])C([H])([H])[H])C([H])(C(=O)N([H])C1([H])c3c([H])c([H])c([H])c([H])c3C([H])([H])C([H])([H])C1([H])[H])C2([H])[H]

>  <smiles>  (86) 
[H]c1nc(C([H])([H])C([H])([H])[H])c(C([H])(C([H])([H])[H])C([H])([H])N([H])C(=O)N2C([H])([H])C([H])([H])C([H])([H])C([H])(n3nc(-c4c([H])c([H])c(Oc5c([H])c([H])c(F)c([H])c5F)c([H])c4[H])c(C(=O)N([H])[H])c3N([H])[H])C2([H])[H])c([H])c1C([H])([H])C([H])([H])C([H])([H])C([H])([H])Oc1c([H])c([H])c2c(c1[H])C([H])([H])N(C(=O)C([H])(N([H])C(=O)C([H])(N([H])C([H])([H])[H])C([H])([H])[H])C(C([H])([H])[H])(C([H])([H])[H])C([H])([H])[H])C([H])(C(=O)N([H])C1([H])c3c([H])c([H])c([H])c([H])c3C([H])([H])C([H])([H])C1([H])[H])C2([H])[H]

$$$$
88:0:0
     RDKit          3D

 96104  0  0  1  0  0  0  0  0999 V2000
  -31.3490  -19.9440   22.6690 C   0  0  0  0  0  3  0  0  0  0  0  0
  -30.0750  -21.1460   21.0210 C   0  0  0  0  0  3  0  0  0  0  0  0
  -30.5220  -21.0240   22.3440 C   0  0  0  0  0  0  0  0  0  0  0  0
  -31.5680  -18.9020   21.7480 C   0  0  0  0  0  0  0  0  0  0  0  0
  -30.3320  -20.1630   20.0430 C   0  0  0  0  0  0  0  0  0  0  0  0
  -30.9020  -18.8740   20.4810 C   0  0  0  0  0  0  0  0  0  0  0  0
  -32.5510  -17.8290   22.2020 C   0  0  0  0  0  1  0  0  0  0  0  0
  -30.0760  -22.0110   23.4110 C   0  0  0  0  0  2  0  0  0  0  0  0
  -30.2660  -23.5020   23.0580 C   0  0  0  0  0  2  0  0  0  0  0  0
  -29.3880  -25.8740   23.2280 C   0  0  0  0  0  1  0  0  0  0  0  0
  -27.7420  -23.9790   23.0660 C   0  0  0  0  0  1  0  0  0  0  0  0
  -29.1300  -24.4040   23.5870 C   0  0  0  0  0  3  0  0  0  0  0  0
  -29.9220  -20.6770   18.6210 C   0  0  0  0  0  2  0  0  0  0  0  0
  -30.0480  -22.2670   18.2840 C   0  0  0  0  0  3  0  0  0  0  0  0
  -29.1290  -23.4640   18.8820 C   0  0  0  0  0  3  0  0  0  0  0  0
  -29.2650  -24.9290   18.2050 C   0  0  0  0  0  2  0  0  0  0  0  0
  -29.1660  -26.2280   18.9490 O   0  0  0  0  0  0  0  0  0  0  0  0
  -25.2940  -30.8080   22.9950 C   0  0  0  0  0  0  0  0  0  0  0  0
  -28.0070  -27.0230   19.0490 C   0  0  0  0  0  0  0  0  0  0  0  0
  -24.1130  -29.7290   21.1120 C   0  0  0  0  0  3  0  0  0  0  0  0
  -25.5900  -28.5370   19.3900 C   0  0  0  0  0  0  0  0  0  0  0  0
  -26.6410  -30.1500   20.9810 C   0  0  0  0  0  2  0  0  0  0  0  0
  -26.7520  -28.9310   20.0660 C   0  0  0  0  0  0  0  0  0  0  0  0
  -27.9580  -28.1850   19.8880 C   0  0  0  0  0  3  0  0  0  0  0  0
  -26.8170  -26.6840   18.3670 C   0  0  0  0  0  3  0  0  0  0  0  0
  -25.6270  -27.4220   18.5360 C   0  0  0  0  0  3  0  0  0  0  0  0
  -24.3290  -29.3460   19.6230 C   0  0  0  0  0  2  0  0  0  0  0  0
  -25.3690  -30.2360   21.7550 N   0  0  0  0  0  0  0  0  0  0  0  0
  -24.2090  -30.9410   23.5800 O   0  0  0  0  0  0  0  0  0  0  0  0
  -23.4900  -28.5240   21.8560 C   0  0  0  0  0  0  0  0  0  0  0  0
  -22.1630  -28.3510   21.7230 N   0  0  0  0  0  0  0  0  0  0  0  0
  -24.1980  -27.7550   22.5110 O   0  0  0  0  0  0  0  0  0  0  0  0
  -21.6480  -29.0330   21.1850 H   0  0  0  0  0  0  0  0  0  0  0  0
  -18.8190  -27.0020   22.0400 C   0  0  0  0  0  0  0  0  0  0  0  0
  -21.3790  -27.2530   22.2950 C   0  0  0  0  0  3  0  0  0  0  0  0
  -21.4850  -25.9770   21.4280 C   0  0  0  0  0  2  0  0  0  0  0  0
  -20.3610  -25.8560   20.3940 C   0  0  0  0  0  2  0  0  0  0  0  0
  -18.9950  -25.8310   21.0870 C   0  0  0  0  0  2  0  0  0  0  0  0
  -19.9370  -27.6800   22.5930 C   0  0  0  0  0  0  0  0  0  0  0  0
  -19.7180  -28.7820   23.4470 C   0  0  0  0  0  3  0  0  0  0  0  0
  -18.4130  -29.2110   23.7500 C   0  0  0  0  0  3  0  0  0  0  0  0
  -17.3070  -28.5280   23.2100 C   0  0  0  0  0  3  0  0  0  0  0  0
  -17.5110  -27.4240   22.3620 C   0  0  0  0  0  3  0  0  0  0  0  0
  -26.5670  -31.3410   23.7250 C   0  0  0  0  0  3  0  0  0  0  0  0
  -27.1150  -30.3460   24.8220 C   0  0  1  0  0  0  0  0  0  0  0  0
  -26.0420  -29.8800   25.8370 C   0  0  0  0  0  1  0  0  0  0  0  0
  -27.7190  -29.0830   24.1650 C   0  0  0  0  0  1  0  0  0  0  0  0
  -28.2620  -31.0210   25.6090 C   0  0  0  0  0  1  0  0  0  0  0  0
  -26.2200  -32.6350   24.3310 N   0  0  0  0  0  0  0  0  0  0  0  0
  -26.5760  -33.8280   23.8360 C   0  0  0  0  0  0  0  0  0  0  0  0
  -27.2970  -33.9490   22.8420 O   0  0  0  0  0  0  0  0  0  0  0  0
  -25.5870  -32.6130   25.1170 H   0  0  0  0  0  0  0  0  0  0  0  0
  -24.8660  -35.6740   23.7700 C   0  0  0  0  0  1  0  0  0  0  0  0
  -26.0510  -35.0860   24.5550 C   0  0  0  0  0  3  0  0  0  0  0  0
  -28.1160  -35.7460   25.7070 C   0  0  0  0  0  1  0  0  0  0  0  0
  -27.0810  -36.1300   24.7510 N   0  0  0  0  0  0  0  0  0  0  0  0
  -26.6570  -36.9960   25.0730 H   0  0  0  0  0  0  0  0  0  0  0  0
  -30.8620  -17.4610   19.7390 C   0  0  0  0  0  2  0  0  0  0  0  0
  -30.1970  -16.3590   22.0570 C   0  0  0  0  0  1  0  0  0  0  0  0
  -30.4310  -16.0900   20.5480 C   0  0  0  0  0  3  0  0  0  0  0  0
  -31.2020  -14.6810   20.3100 C   0  0  0  0  0  0  0  0  0  0  0  0
  -31.0020  -12.2990   19.5390 C   0  0  0  0  0  2  0  0  0  0  0  0
  -30.0970  -12.2430   18.2850 C   0  0  0  0  0  2  0  0  0  0  0  0
  -28.6080  -12.1490   18.6760 C   0  0  0  0  0  2  0  0  0  0  0  0
  -28.2230  -13.1890   19.7580 C   0  0  0  0  0  3  0  0  0  0  0  0
  -29.2360  -13.1730   20.9150 C   0  0  0  0  0  2  0  0  0  0  0  0
  -30.5670  -13.4550   20.3590 N   0  0  0  0  0  0  0  0  0  0  0  0
  -32.3800  -14.7130   19.9380 O   0  0  0  0  0  0  0  0  0  0  0  0
  -25.8910  -13.9760   20.4900 C   0  0  0  0  0  0  0  0  0  0  0  0
  -24.7620  -13.2910   20.8460 C   0  0  0  0  0  0  0  0  0  0  0  0
  -25.1120  -11.9060   20.8010 C   0  0  0  0  0  0  0  0  0  0  0  0
  -26.8560  -13.0140   20.2390 N   0  0  0  0  0  0  0  0  0  0  0  0
  -26.3940  -11.7640   20.4920 N   0  0  0  0  0  0  0  0  0  0  0  0
  -24.2830  -10.7060   20.9710 C   0  0  0  0  0  0  0  0  0  0  0  0
  -24.6440   -9.6810   21.8730 C   0  0  0  0  0  3  0  0  0  0  0  0
  -23.8210   -8.5450   22.0310 C   0  0  0  0  0  3  0  0  0  0  0  0
  -22.6240   -8.4270   21.2860 C   0  0  0  0  0  0  0  0  0  0  0  0
  -22.2830   -9.4400   20.3720 C   0  0  0  0  0  3  0  0  0  0  0  0
  -23.1040  -10.5660   20.2120 C   0  0  0  0  0  3  0  0  0  0  0  0
  -21.7750   -7.3490   21.3570 O   0  0  0  0  0  0  0  0  0  0  0  0
  -21.6930   -6.5690   22.4820 C   0  0  0  0  0  0  0  0  0  0  0  0
  -21.3450   -7.1080   23.7390 C   0  0  0  0  0  3  0  0  0  0  0  0
  -21.2060   -6.2590   24.8560 C   0  0  0  0  0  3  0  0  0  0  0  0
  -21.4040   -4.8720   24.7160 C   0  0  0  0  0  0  0  0  0  0  0  0
  -21.7460   -4.3330   23.4620 C   0  0  0  0  0  3  0  0  0  0  0  0
  -21.8870   -5.1800   22.3490 C   0  0  0  0  0  0  0  0  0  0  0  0
  -22.1970   -4.6520   21.1390 F   0  0  0  0  0  0  0  0  0  0  0  0
  -21.2630   -4.0540   25.7840 F   0  0  0  0  0  0  0  0  0  0  0  0
  -23.4070  -13.8780   21.1170 C   0  0  0  0  0  0  0  0  0  0  0  0
  -22.6210  -13.2410   21.9790 N   0  0  0  0  0  0  0  0  0  0  0  0
  -23.0530  -14.9360   20.5960 O   0  0  0  0  0  0  0  0  0  0  0  0
  -22.9190  -12.3880   22.4260 H   0  0  0  0  0  0  0  0  0  0  0  0
  -21.7080  -13.6150   22.1940 H   0  0  0  0  0  0  0  0  0  0  0  0
  -26.1690  -15.3320   20.3360 N   0  0  0  0  0  0  0  0  0  0  0  0
  -25.4600  -16.0450   20.4620 H   0  0  0  0  0  0  0  0  0  0  0  0
  -27.0600  -15.7070   20.0360 H   0  0  0  0  0  0  0  0  0  0  0  0
  2  3  2  0
  3  1  1  0
  3  8  1  0
  4  7  1  0
  4  1  2  0
  5  6  2  0
  5  2  1  0
  6  4  1  0
  9  8  1  0
  9 12  1  0
 10 12  1  0
 11 12  1  0
 13  5  1  0
 14 13  1  0
 14 15  2  0
 16 15  1  0
 16 17  1  0
 17 19  1  0
 18 29  2  0
 19 24  1  0
 20 28  1  0
 20 30  1  0
 21 27  1  0
 21 23  1  0
 22 28  1  0
 23 22  1  0
 24 23  2  0
 25 26  1  0
 25 19  2  0
 26 21  2  0
 27 20  1  0
 28 18  1  0
 30 32  2  0
 31 30  1  0
 33 31  1  0
 34 43  2  0
 34 39  1  0
 35 31  1  0
 35 39  1  0
 36 35  1  0
 37 38  1  0
 37 36  1  0
 38 34  1  0
 39 40  2  0
 40 41  1  0
 42 41  2  0
 43 42  1  0
 44 18  1  0
 44 49  1  0
 44 45  1  0
 45 48  1  1
 45 46  1  0
 47 45  1  0
 49 52  1  0
 50 49  1  0
 50 54  1  0
 51 50  2  0
 54 53  1  0
 54 56  1  0
 56 57  1  0
 56 55  1  0
 58  6  1  0
 58 60  1  0
 60 59  1  0
 61 67  1  0
 61 60  1  0
 62 67  1  0
 63 64  1  0
 63 62  1  0
 65 64  1  0
 65 72  1  0
 65 66  1  0
 67 66  1  0
 68 61  2  0
 69 70  2  0
 70 89  1  0
 71 70  1  0
 71 74  1  0
 72 69  1  0
 72 73  1  0
 73 71  2  0
 74 75  1  0
 75 76  2  0
 77 80  1  0
 77 76  1  0
 78 77  2  0
 79 78  1  0
 79 74  2  0
 80 81  1  0
 81 82  1  0
 82 83  2  0
 84 83  1  0
 84 88  1  0
 85 84  2  0
 86 81  2  0
 86 85  1  0
 87 86  1  0
 89 90  1  0
 90 93  1  0
 90 92  1  0
 91 89  2  0
 94 95  1  0
 94 69  1  0
 96 94  1  0
M  ISO  4  16 101  17 101  60 100  61 100
M  END
>  <TORSDO>  (87) 
F 25

>  <SCORE>  (87) 
-7.169

>  <name>  (87) 
88

>  <ligand_id>  (87) 
88

>  <original_smiles>  (87) 
[H]c1c([H])c([H])c2c(c1[H])C([H])([H])C([H])([H])C([H])([H])C2([H])N([H])C(=O)C1([H])N(C(=O)C([H])(N([H])C(=O)C([H])(N([H])C([H])([H])[H])C([H])([H])[H])C(C([H])([H])[H])(C([H])([H])[H])C([H])([H])[H])C([H])([H])c2c([H])c(OC([H])([H])C([H])([H])C([H])([H])C([H])([H])c3c([H])c(C([H])([H])C([H])([H])C([H])(C([H])([H])[H])C([H])([H])[H])c([H])c(C([H])([H])[H])c3C([H])([H])C([H])(C(=O)N3C([H])([H])C([H])([H])C([H])([H])C([H])(n4nc(-c5c([H])c([H])c(Oc6c([H])c([H])c(F)c([H])c6F)c([H])c5[H])c(C(=O)N([H])[H])c4N([H])[H])C3([H])[H])C([H])([H])[H])c([H])c([H])c2C1([H])[H]

>  <smiles>  (87) 
[H]c1c([H])c([H])c2c(c1[H])C([H])([H])C([H])([H])C([H])([H])C2([H])N([H])C(=O)C1([H])N(C(=O)C([H])(N([H])C(=O)C([H])(N([H])C([H])([H])[H])C([H])([H])[H])C(C([H])([H])[H])(C([H])([H])[H])C([H])([H])[H])C([H])([H])c2c([H])c(OC([H])([H])C([H])([H])C([H])([H])C([H])([H])c3c([H])c(C([H])([H])C([H])([H])C([H])(C([H])([H])[H])C([H])([H])[H])c([H])c(C([H])([H])[H])c3C([H])([H])C([H])(C(=O)N3C([H])([H])C([H])([H])C([H])([H])C([H])(n4nc(-c5c([H])c([H])c(Oc6c([H])c([H])c(F)c([H])c6F)c([H])c5[H])c(C(=O)N([H])[H])c4N([H])[H])C3([H])[H])C([H])([H])[H])c([H])c([H])c2C1([H])[H]

$$$$
89:0:0
     RDKit          3D

 96104  0  0  1  0  0  0  0  0999 V2000
  -29.2030  -19.4240   19.8070 C   0  0  0  0  0  3  0  0  0  0  0  0
  -28.3620  -20.4910   19.4080 C   0  0  0  0  0  0  0  0  0  0  0  0
  -28.4520  -18.2910   19.8970 C   0  0  0  0  0  0  0  0  0  0  0  0
  -27.0780  -20.0110   19.4060 C   0  0  0  0  0  0  0  0  0  0  0  0
  -25.8010  -20.7160   19.0570 C   0  0  0  0  0  1  0  0  0  0  0  0
  -27.1160  -18.6520   19.7090 N   0  0  0  0  0  0  0  0  0  0  0  0
  -29.5920  -16.4320   18.7290 C   0  0  0  0  0  1  0  0  0  0  0  0
  -28.9420  -16.8860   20.0520 C   0  0  0  0  0  3  0  0  0  0  0  0
  -29.8850  -16.6960   21.2670 C   0  0  0  0  0  2  0  0  0  0  0  0
  -30.7880  -14.4050   20.9340 C   0  0  0  0  0  0  0  0  0  0  0  0
  -30.8340  -12.1880   19.8530 C   0  0  0  0  0  2  0  0  0  0  0  0
  -30.1200  -12.2640   18.4870 C   0  0  0  0  0  2  0  0  0  0  0  0
  -28.6020  -12.0480   18.6470 C   0  0  0  0  0  2  0  0  0  0  0  0
  -27.9870  -12.9300   19.7630 C   0  0  0  0  0  3  0  0  0  0  0  0
  -28.8240  -12.8290   21.0590 C   0  0  0  0  0  2  0  0  0  0  0  0
  -30.2250  -13.1830   20.7470 N   0  0  0  0  0  0  0  0  0  0  0  0
  -31.8870  -14.7370   20.4790 O   0  0  0  0  0  0  0  0  0  0  0  0
  -29.9930  -15.2730   21.5690 N   0  0  0  0  0  0  0  0  0  0  0  0
  -29.1870  -14.8630   22.0150 H   0  0  0  0  0  0  0  0  0  0  0  0
  -25.4500  -13.3770   19.8080 C   0  0  0  0  0  0  0  0  0  0  0  0
  -24.3860  -12.5770   20.1240 C   0  0  0  0  0  0  0  0  0  0  0  0
  -24.9390  -11.3090   20.4710 C   0  0  0  0  0  0  0  0  0  0  0  0
  -26.5830  -12.6000   19.9980 N   0  0  0  0  0  0  0  0  0  0  0  0
  -26.2650  -11.3590   20.4410 N   0  0  0  0  0  0  0  0  0  0  0  0
  -24.2820  -10.0330   20.7750 C   0  0  0  0  0  0  0  0  0  0  0  0
  -24.6040   -9.3020   21.9380 C   0  0  0  0  0  3  0  0  0  0  0  0
  -23.9490   -8.0850   22.2200 C   0  0  0  0  0  3  0  0  0  0  0  0
  -22.9620   -7.5890   21.3340 C   0  0  0  0  0  0  0  0  0  0  0  0
  -22.6610   -8.3100   20.1660 C   0  0  0  0  0  3  0  0  0  0  0  0
  -23.3170   -9.5200   19.8850 C   0  0  0  0  0  3  0  0  0  0  0  0
  -22.2940   -6.4030   21.5120 O   0  0  0  0  0  0  0  0  0  0  0  0
  -22.0820   -5.8760   22.7620 C   0  0  0  0  0  0  0  0  0  0  0  0
  -21.3990   -6.5950   23.7670 C   0  0  0  0  0  3  0  0  0  0  0  0
  -21.1440   -5.9920   25.0150 C   0  0  0  0  0  3  0  0  0  0  0  0
  -21.5580   -4.6680   25.2540 C   0  0  0  0  0  0  0  0  0  0  0  0
  -22.2310   -3.9480   24.2500 C   0  0  0  0  0  3  0  0  0  0  0  0
  -22.4880   -4.5490   23.0070 C   0  0  0  0  0  0  0  0  0  0  0  0
  -23.1190   -3.8440   22.0360 F   0  0  0  0  0  0  0  0  0  0  0  0
  -21.3060   -4.0830   26.4480 F   0  0  0  0  0  0  0  0  0  0  0  0
  -22.9340  -12.9370   20.0130 C   0  0  0  0  0  0  0  0  0  0  0  0
  -22.0950  -12.3730   20.8760 N   0  0  0  0  0  0  0  0  0  0  0  0
  -22.5400  -13.7580   19.1870 O   0  0  0  0  0  0  0  0  0  0  0  0
  -22.4240  -11.7200   21.5710 H   0  0  0  0  0  0  0  0  0  0  0  0
  -21.1110  -12.5970   20.8380 H   0  0  0  0  0  0  0  0  0  0  0  0
  -25.5420  -14.6840   19.3530 N   0  0  0  0  0  0  0  0  0  0  0  0
  -24.7160  -15.1530   18.9990 H   0  0  0  0  0  0  0  0  0  0  0  0
  -26.4030  -15.1140   19.0460 H   0  0  0  0  0  0  0  0  0  0  0  0
  -28.8450  -21.8500   18.9870 C   0  0  0  0  0  2  0  0  0  0  0  0
  -28.7440  -22.9120   20.0820 C   0  0  0  0  0  2  0  0  0  0  0  0
  -28.8400  -24.3080   19.4620 C   0  0  0  0  0  2  0  0  0  0  0  0
  -28.6090  -25.4290   20.4740 C   0  0  0  0  0  2  0  0  0  0  0  0
  -28.4730  -26.6380   19.7480 O   0  0  0  0  0  0  0  0  0  0  0  0
  -24.6750  -31.6420   23.0230 C   0  0  0  0  0  0  0  0  0  0  0  0
  -27.2630  -27.2770   19.8440 C   0  0  0  0  0  0  0  0  0  0  0  0
  -23.4290  -30.2700   21.3770 C   0  0  0  0  0  3  0  0  0  0  0  0
  -24.8550  -28.7390   19.9210 C   0  0  0  0  0  0  0  0  0  0  0  0
  -25.9470  -30.6320   21.1380 C   0  0  0  0  0  2  0  0  0  0  0  0
  -26.0190  -29.2690   20.4920 C   0  0  0  0  0  0  0  0  0  0  0  0
  -27.2240  -28.5450   20.4520 C   0  0  0  0  0  3  0  0  0  0  0  0
  -26.0880  -26.7370   19.2800 C   0  0  0  0  0  3  0  0  0  0  0  0
  -24.8820  -27.4680   19.3130 C   0  0  0  0  0  3  0  0  0  0  0  0
  -23.6150  -29.6000   19.9880 C   0  0  0  0  0  2  0  0  0  0  0  0
  -24.7010  -30.8620   21.9050 N   0  0  0  0  0  0  0  0  0  0  0  0
  -23.6060  -31.9140   23.5850 O   0  0  0  0  0  0  0  0  0  0  0  0
  -22.7890  -29.2410   22.3360 C   0  0  0  0  0  0  0  0  0  0  0  0
  -21.4610  -29.0770   22.2320 N   0  0  0  0  0  0  0  0  0  0  0  0
  -23.4830  -28.5950   23.1260 O   0  0  0  0  0  0  0  0  0  0  0  0
  -20.9640  -29.6490   21.5640 H   0  0  0  0  0  0  0  0  0  0  0  0
  -18.0790  -27.9470   22.8000 C   0  0  0  0  0  0  0  0  0  0  0  0
  -20.6490  -28.1380   23.0030 C   0  0  0  0  0  3  0  0  0  0  0  0
  -20.7010  -26.7210   22.3860 C   0  0  0  0  0  2  0  0  0  0  0  0
  -19.5630  -26.4540   21.3960 C   0  0  0  0  0  2  0  0  0  0  0  0
  -18.2040  -26.6120   22.0840 C   0  0  0  0  0  2  0  0  0  0  0  0
  -19.2270  -28.6710   23.2170 C   0  0  0  0  0  0  0  0  0  0  0  0
  -19.0550  -29.9240   23.8450 C   0  0  0  0  0  3  0  0  0  0  0  0
  -17.7690  -30.4510   24.0610 C   0  0  0  0  0  3  0  0  0  0  0  0
  -16.6350  -29.7230   23.6610 C   0  0  0  0  0  3  0  0  0  0  0  0
  -16.7910  -28.4730   23.0360 C   0  0  0  0  0  3  0  0  0  0  0  0
  -25.9800  -32.2510   23.6280 C   0  0  0  0  0  3  0  0  0  0  0  0
  -26.5500  -31.4200   24.8430 C   0  0  1  0  0  0  0  0  0  0  0  0
  -25.4970  -31.1080   25.9300 C   0  0  0  0  0  1  0  0  0  0  0  0
  -27.1350  -30.0730   24.3540 C   0  0  0  0  0  1  0  0  0  0  0  0
  -27.7140  -32.1910   25.5100 C   0  0  0  0  0  1  0  0  0  0  0  0
  -25.6800  -33.6280   24.0380 N   0  0  0  0  0  0  0  0  0  0  0  0
  -25.9800  -34.7160   23.3160 C   0  0  0  0  0  0  0  0  0  0  0  0
  -26.6160  -34.6660   22.2600 O   0  0  0  0  0  0  0  0  0  0  0  0
  -25.1170  -33.7430   24.8680 H   0  0  0  0  0  0  0  0  0  0  0  0
  -24.2240  -36.5020   23.1040 C   0  0  0  0  0  1  0  0  0  0  0  0
  -25.4980  -36.0780   23.8510 C   0  0  0  0  0  3  0  0  0  0  0  0
  -27.6580  -36.9420   24.6350 C   0  0  0  0  0  1  0  0  0  0  0  0
  -26.5160  -37.1470   23.7470 N   0  0  0  0  0  0  0  0  0  0  0  0
  -26.1080  -38.0540   23.9600 H   0  0  0  0  0  0  0  0  0  0  0  0
  -25.9580  -17.7530   19.6750 C   0  0  0  0  0  2  0  0  0  0  0  0
  -25.7230  -16.9210   20.9510 C   0  0  0  0  0  2  0  0  0  0  0  0
  -24.2840  -15.0680   21.9860 C   0  0  0  0  0  1  0  0  0  0  0  0
  -24.5360  -15.9610   20.7670 C   0  0  0  0  0  2  0  0  0  0  0  0
  1  3  2  0
  2  1  1  0
  3  8  1  0
  4  2  2  0
  4  6  1  0
  5  4  1  0
  6  3  1  0
  8  7  1  0
  8  9  1  0
  9 18  1  0
 10 18  1  0
 11 16  1  0
 12 13  1  0
 12 11  1  0
 14 13  1  0
 14 23  1  0
 14 15  1  0
 16 10  1  0
 16 15  1  0
 17 10  2  0
 18 19  1  0
 20 23  1  0
 20 21  2  0
 21 22  1  0
 22 25  1  0
 23 24  1  0
 24 22  2  0
 25 26  1  0
 26 27  2  0
 28 31  1  0
 28 27  1  0
 29 28  2  0
 30 29  1  0
 30 25  2  0
 31 32  1  0
 32 37  2  0
 32 33  1  0
 33 34  2  0
 34 35  1  0
 35 39  1  0
 36 35  2  0
 37 36  1  0
 38 37  1  0
 40 21  1  0
 40 41  1  0
 41 43  1  0
 42 40  2  0
 44 41  1  0
 45 20  1  0
 46 45  1  0
 47 45  1  0
 48  2  1  0
 48 49  1  0
 50 49  1  0
 50 51  1  0
 52 54  1  0
 52 51  1  0
 53 64  2  0
 54 59  1  0
 55 63  1  0
 55 65  1  0
 56 62  1  0
 56 58  1  0
 57 63  1  0
 58 57  1  0
 59 58  2  0
 60 61  1  0
 60 54  2  0
 61 56  2  0
 62 55  1  0
 63 53  1  0
 65 67  2  0
 66 65  1  0
 68 66  1  0
 69 78  2  0
 69 74  1  0
 70 66  1  0
 70 74  1  0
 71 70  1  0
 72 73  1  0
 72 71  1  0
 73 69  1  0
 74 75  2  0
 75 76  1  0
 77 76  2  0
 78 77  1  0
 79 53  1  0
 79 84  1  0
 79 80  1  0
 80 83  1  1
 80 81  1  0
 82 80  1  0
 84 87  1  0
 85 89  1  0
 85 84  1  0
 86 85  2  0
 89 88  1  0
 91 89  1  0
 91 92  1  0
 91 90  1  0
 93  6  1  0
 93 94  1  0
 96 94  1  0
 96 95  1  0
M  ISO  4  10 100  18 100  51 101  52 101
M  END
>  <TORSDO>  (88) 
F 25

>  <SCORE>  (88) 
-5.863

>  <name>  (88) 
89

>  <ligand_id>  (88) 
89

>  <original_smiles>  (88) 
[H]c1c([H])c([H])c2c(c1[H])C([H])([H])C([H])([H])C([H])([H])C2([H])N([H])C(=O)C1([H])N(C(=O)C([H])(N([H])C(=O)C([H])(N([H])C([H])([H])[H])C([H])([H])[H])C(C([H])([H])[H])(C([H])([H])[H])C([H])([H])[H])C([H])([H])c2c([H])c(OC([H])([H])C([H])([H])C([H])([H])C([H])([H])c3c([H])c(C([H])(C([H])([H])[H])C([H])([H])N([H])C(=O)N4C([H])([H])C([H])([H])C([H])([H])C([H])(n5nc(-c6c([H])c([H])c(Oc7c([H])c([H])c(F)c([H])c7F)c([H])c6[H])c(C(=O)N([H])[H])c5N([H])[H])C4([H])[H])n(C([H])([H])C([H])([H])C([H])([H])C([H])([H])[H])c3C([H])([H])[H])c([H])c([H])c2C1([H])[H]

>  <smiles>  (88) 
[H]c1c([H])c([H])c2c(c1[H])C([H])([H])C([H])([H])C([H])([H])C2([H])N([H])C(=O)C1([H])N(C(=O)C([H])(N([H])C(=O)C([H])(N([H])C([H])([H])[H])C([H])([H])[H])C(C([H])([H])[H])(C([H])([H])[H])C([H])([H])[H])C([H])([H])c2c([H])c(OC([H])([H])C([H])([H])C([H])([H])C([H])([H])c3c([H])c(C([H])(C([H])([H])[H])C([H])([H])N([H])C(=O)N4C([H])([H])C([H])([H])C([H])([H])C([H])(n5nc(-c6c([H])c([H])c(Oc7c([H])c([H])c(F)c([H])c7F)c([H])c6[H])c(C(=O)N([H])[H])c5N([H])[H])C4([H])[H])n(C([H])([H])C([H])([H])C([H])([H])C([H])([H])[H])c3C([H])([H])[H])c([H])c([H])c2C1([H])[H]

$$$$
90:0:0
     RDKit          3D

 93101  0  0  1  0  0  0  0  0999 V2000
  -29.9510  -19.2640   19.8170 C   0  0  0  0  0  3  0  0  0  0  0  0
  -27.6660  -19.8350   19.3230 C   0  0  0  0  0  3  0  0  0  0  0  0
  -28.9960  -20.2560   19.4640 C   0  0  0  0  0  0  0  0  0  0  0  0
  -29.5440  -17.9200   20.0980 C   0  0  0  0  0  0  0  0  0  0  0  0
  -28.1510  -17.6510   19.9910 C   0  0  0  0  0  0  0  0  0  0  0  0
  -27.2600  -18.5740   19.5610 N   0  0  0  0  0  0  0  0  0  0  0  0
  -26.0650  -16.3030   20.7200 C   0  0  0  0  0  1  0  0  0  0  0  0
  -27.5450  -16.2800   20.3040 C   0  0  0  0  0  2  0  0  0  0  0  0
  -32.0170  -17.1320   20.2150 C   0  0  0  0  0  1  0  0  0  0  0  0
  -30.5480  -16.8220   20.5910 C   0  0  0  0  0  3  0  0  0  0  0  0
  -30.7840  -14.3080   19.9320 C   0  0  0  0  0  0  0  0  0  0  0  0
  -30.4440  -12.0380   19.0140 C   0  0  0  0  0  2  0  0  0  0  0  0
  -29.4570  -12.1000   17.8310 C   0  0  0  0  0  2  0  0  0  0  0  0
  -28.0050  -11.9820   18.3360 C   0  0  0  0  0  2  0  0  0  0  0  0
  -27.6990  -12.9420   19.5190 C   0  0  0  0  0  3  0  0  0  0  0  0
  -28.8040  -12.8690   20.5960 C   0  0  0  0  0  2  0  0  0  0  0  0
  -30.0940  -13.1310   19.9380 N   0  0  0  0  0  0  0  0  0  0  0  0
  -31.9030  -14.3850   19.4270 O   0  0  0  0  0  0  0  0  0  0  0  0
  -30.1160  -15.4010   20.3840 N   0  0  0  0  0  0  0  0  0  0  0  0
  -29.1850  -15.1830   20.6970 H   0  0  0  0  0  0  0  0  0  0  0  0
  -25.3540  -13.5890   20.3500 C   0  0  0  0  0  0  0  0  0  0  0  0
  -24.2950  -12.8360   20.7880 C   0  0  0  0  0  0  0  0  0  0  0  0
  -24.7340  -11.4790   20.7540 C   0  0  0  0  0  0  0  0  0  0  0  0
  -26.3710  -12.6880   20.0790 N   0  0  0  0  0  0  0  0  0  0  0  0
  -26.0070  -11.4160   20.3820 N   0  0  0  0  0  0  0  0  0  0  0  0
  -23.9990  -10.2300   21.0020 C   0  0  0  0  0  0  0  0  0  0  0  0
  -24.4500   -9.2870   21.9510 C   0  0  0  0  0  3  0  0  0  0  0  0
  -23.7200   -8.1020   22.1850 C   0  0  0  0  0  3  0  0  0  0  0  0
  -22.5240   -7.8520   21.4720 C   0  0  0  0  0  0  0  0  0  0  0  0
  -22.0900   -8.7830   20.5130 C   0  0  0  0  0  3  0  0  0  0  0  0
  -22.8200   -9.9610   20.2770 C   0  0  0  0  0  3  0  0  0  0  0  0
  -21.7620   -6.7170   21.6150 O   0  0  0  0  0  0  0  0  0  0  0  0
  -21.7290   -6.0170   22.7940 C   0  0  0  0  0  0  0  0  0  0  0  0
  -21.3210   -6.6170   24.0060 C   0  0  0  0  0  3  0  0  0  0  0  0
  -21.2340   -5.8410   25.1800 C   0  0  0  0  0  3  0  0  0  0  0  0
  -21.5480   -4.4700   25.1440 C   0  0  0  0  0  0  0  0  0  0  0  0
  -21.9480   -3.8700   23.9360 C   0  0  0  0  0  3  0  0  0  0  0  0
  -22.0370   -4.6420   22.7660 C   0  0  0  0  0  0  0  0  0  0  0  0
  -22.4040   -4.0550   21.6000 F   0  0  0  0  0  0  0  0  0  0  0  0
  -21.4570   -3.7220   26.2690 F   0  0  0  0  0  0  0  0  0  0  0  0
  -22.9210  -13.3390   21.1250 C   0  0  0  0  0  0  0  0  0  0  0  0
  -22.2370  -12.6770   22.0530 N   0  0  0  0  0  0  0  0  0  0  0  0
  -22.4620  -14.3520   20.5970 O   0  0  0  0  0  0  0  0  0  0  0  0
  -22.6170  -11.8540   22.4970 H   0  0  0  0  0  0  0  0  0  0  0  0
  -21.3190  -12.9990   22.3270 H   0  0  0  0  0  0  0  0  0  0  0  0
  -25.5330  -14.9500   20.1390 N   0  0  0  0  0  0  0  0  0  0  0  0
  -24.7940  -15.6280   20.3000 H   0  0  0  0  0  0  0  0  0  0  0  0
  -26.3660  -15.3620   19.7370 H   0  0  0  0  0  0  0  0  0  0  0  0
  -29.3540  -21.7300   19.1650 C   0  0  0  0  0  2  0  0  0  0  0  0
  -29.2020  -22.7390   20.3530 C   0  0  0  0  0  2  0  0  0  0  0  0
  -28.2710  -23.9990   20.1710 C   0  0  0  0  0  2  0  0  0  0  0  0
  -28.9010  -25.2850   19.5410 C   0  0  0  0  0  2  0  0  0  0  0  0
  -28.6580  -26.5240   20.2540 O   0  0  0  0  0  0  0  0  0  0  0  0
  -24.6280  -31.6540   23.1580 C   0  0  0  0  0  0  0  0  0  0  0  0
  -27.4610  -27.2240   20.1680 C   0  0  0  0  0  0  0  0  0  0  0  0
  -23.5180  -30.2450   21.4590 C   0  0  0  0  0  3  0  0  0  0  0  0
  -25.0480  -28.7270   20.0900 C   0  0  0  0  0  0  0  0  0  0  0  0
  -26.0470  -30.6230   21.3770 C   0  0  0  0  0  2  0  0  0  0  0  0
  -26.1730  -29.2530   20.7340 C   0  0  0  0  0  0  0  0  0  0  0  0
  -27.3770  -28.5070   20.7710 C   0  0  0  0  0  3  0  0  0  0  0  0
  -26.3130  -26.7180   19.5170 C   0  0  0  0  0  3  0  0  0  0  0  0
  -25.1140  -27.4590   19.4800 C   0  0  0  0  0  3  0  0  0  0  0  0
  -23.7970  -29.5790   20.0840 C   0  0  0  0  0  2  0  0  0  0  0  0
  -24.7480  -30.8560   22.0570 N   0  0  0  0  0  0  0  0  0  0  0  0
  -23.5180  -31.9090   23.6470 O   0  0  0  0  0  0  0  0  0  0  0  0
  -22.8330  -29.2140   22.3820 C   0  0  0  0  0  0  0  0  0  0  0  0
  -21.5100  -29.0550   22.2220 N   0  0  0  0  0  0  0  0  0  0  0  0
  -23.4910  -28.5600   23.1960 O   0  0  0  0  0  0  0  0  0  0  0  0
  -21.0440  -29.6320   21.5350 H   0  0  0  0  0  0  0  0  0  0  0  0
  -18.0970  -27.9650   22.6980 C   0  0  0  0  0  0  0  0  0  0  0  0
  -20.6650  -28.1100   22.9500 C   0  0  0  0  0  3  0  0  0  0  0  0
  -20.7020  -26.7090   22.2980 C   0  0  0  0  0  2  0  0  0  0  0  0
  -19.5800  -26.4850   21.2790 C   0  0  0  0  0  2  0  0  0  0  0  0
  -18.2120  -26.6500   21.9430 C   0  0  0  0  0  2  0  0  0  0  0  0
  -19.2490  -28.6600   23.1540 C   0  0  0  0  0  0  0  0  0  0  0  0
  -19.0850  -29.8990   23.8120 C   0  0  0  0  0  3  0  0  0  0  0  0
  -17.8030  -30.4400   24.0210 C   0  0  0  0  0  3  0  0  0  0  0  0
  -16.6650  -29.7390   23.5800 C   0  0  0  0  0  3  0  0  0  0  0  0
  -16.8150  -28.5060   22.9250 C   0  0  0  0  0  3  0  0  0  0  0  0
  -25.8730  -32.2960   23.8430 C   0  0  0  0  0  3  0  0  0  0  0  0
  -25.5270  -33.6840   24.1790 N   0  0  0  0  0  0  0  0  0  0  0  0
  -25.8690  -34.7520   23.4440 C   0  0  0  0  0  0  0  0  0  0  0  0
  -26.5770  -34.6700   22.4370 O   0  0  0  0  0  0  0  0  0  0  0  0
  -24.9000  -33.8210   24.9590 H   0  0  0  0  0  0  0  0  0  0  0  0
  -24.1050  -36.5030   23.0700 C   0  0  0  0  0  1  0  0  0  0  0  0
  -25.3430  -36.1270   23.8980 C   0  0  0  0  0  3  0  0  0  0  0  0
  -27.4460  -37.0550   24.7650 C   0  0  0  0  0  1  0  0  0  0  0  0
  -26.3560  -37.2030   23.8040 N   0  0  0  0  0  0  0  0  0  0  0  0
  -25.9280  -38.1140   23.9460 H   0  0  0  0  0  0  0  0  0  0  0  0
  -26.3490  -31.5120   25.1280 C   0  0  1  0  0  0  0  0  0  0  0  0
  -25.2170  -31.2230   26.1430 C   0  0  0  0  0  1  0  0  0  0  0  0
  -26.9810  -30.1570   24.7330 C   0  0  0  0  0  1  0  0  0  0  0  0
  -27.4520  -32.3210   25.8540 C   0  0  0  0  0  1  0  0  0  0  0  0
  1  4  1  0
  2  3  1  0
  2  6  2  0
  3  1  2  0
  4 10  1  0
  5  4  2  0
  5  8  1  0
  6  5  1  0
  8  7  1  0
 10  9  1  0
 11 17  1  0
 11 19  1  0
 12 17  1  0
 13 14  1  0
 13 12  1  0
 15 14  1  0
 15 24  1  0
 15 16  1  0
 17 16  1  0
 18 11  2  0
 19 10  1  0
 19 20  1  0
 21 22  2  0
 22 41  1  0
 23 22  1  0
 23 26  1  0
 24 21  1  0
 24 25  1  0
 25 23  2  0
 26 27  1  0
 27 28  2  0
 29 32  1  0
 29 28  1  0
 30 29  2  0
 31 30  1  0
 31 26  2  0
 32 33  1  0
 33 34  1  0
 34 35  2  0
 36 35  1  0
 36 40  1  0
 37 36  2  0
 38 33  2  0
 38 37  1  0
 39 38  1  0
 41 42  1  0
 42 45  1  0
 42 44  1  0
 43 41  2  0
 46 47  1  0
 46 21  1  0
 48 46  1  0
 49  3  1  0
 49 50  1  0
 51 50  1  0
 52 51  1  0
 52 53  1  0
 54 65  2  0
 55 53  1  0
 55 60  1  0
 56 64  1  0
 56 66  1  0
 57 59  1  0
 58 64  1  0
 59 60  2  0
 59 58  1  0
 61 55  2  0
 62 61  1  0
 62 57  2  0
 63 57  1  0
 63 56  1  0
 64 54  1  0
 66 68  2  0
 67 66  1  0
 69 67  1  0
 70 79  2  0
 70 75  1  0
 71 67  1  0
 71 75  1  0
 72 71  1  0
 73 74  1  0
 73 72  1  0
 74 70  1  0
 75 76  2  0
 76 77  1  0
 78 77  2  0
 79 78  1  0
 80 54  1  0
 80 81  1  0
 80 90  1  0
 81 84  1  0
 82 86  1  0
 82 81  1  0
 83 82  2  0
 86 85  1  0
 88 86  1  0
 88 89  1  0
 88 87  1  0
 90 93  1  1
 90 91  1  0
 92 90  1  0
M  ISO  4  11 100  19 100  52 101  53 101
M  END
>  <TORSDO>  (89) 
F 22

>  <SCORE>  (89) 
-12.508

>  <name>  (89) 
90

>  <ligand_id>  (89) 
90

>  <original_smiles>  (89) 
[H]c1nc(C([H])([H])C([H])([H])[H])c(C([H])(N([H])C(=O)N2C([H])([H])C([H])([H])C([H])([H])C([H])(n3nc(-c4c([H])c([H])c(Oc5c([H])c([H])c(F)c([H])c5F)c([H])c4[H])c(C(=O)N([H])[H])c3N([H])[H])C2([H])[H])C([H])([H])[H])c([H])c1C([H])([H])C([H])([H])C([H])([H])C([H])([H])Oc1c([H])c([H])c2c(c1[H])C([H])([H])N(C(=O)C([H])(N([H])C(=O)C([H])(N([H])C([H])([H])[H])C([H])([H])[H])C(C([H])([H])[H])(C([H])([H])[H])C([H])([H])[H])C([H])(C(=O)N([H])C1([H])c3c([H])c([H])c([H])c([H])c3C([H])([H])C([H])([H])C1([H])[H])C2([H])[H]

>  <smiles>  (89) 
[H]c1nc(C([H])([H])C([H])([H])[H])c(C([H])(N([H])C(=O)N2C([H])([H])C([H])([H])C([H])([H])C([H])(n3nc(-c4c([H])c([H])c(Oc5c([H])c([H])c(F)c([H])c5F)c([H])c4[H])c(C(=O)N([H])[H])c3N([H])[H])C2([H])[H])C([H])([H])[H])c([H])c1C([H])([H])C([H])([H])C([H])([H])C([H])([H])Oc1c([H])c([H])c2c(c1[H])C([H])([H])N(C(=O)C([H])(N([H])C(=O)C([H])(N([H])C([H])([H])[H])C([H])([H])[H])C(C([H])([H])[H])(C([H])([H])[H])C([H])([H])[H])C([H])(C(=O)N([H])C1([H])c3c([H])c([H])c([H])c([H])c3C([H])([H])C([H])([H])C1([H])[H])C2([H])[H]

$$$$
91:0:0
     RDKit          3D

 94102  0  0  1  0  0  0  0  0999 V2000
  -29.7840  -19.9700   20.7660 C   0  0  0  0  0  3  0  0  0  0  0  0
  -28.9420  -21.0740   20.3500 C   0  0  0  0  0  0  0  0  0  0  0  0
  -27.9080  -20.7120   19.4380 C   0  0  0  0  0  0  0  0  0  0  0  0
  -29.6240  -18.6100   20.2840 C   0  0  0  0  0  0  0  0  0  0  0  0
  -27.7700  -19.3500   19.0430 C   0  0  0  0  0  0  0  0  0  0  0  0
  -26.9390  -21.7660   18.9200 C   0  0  0  0  0  1  0  0  0  0  0  0
  -28.6030  -18.3660   19.4390 N   0  0  0  0  0  0  0  0  0  0  0  0
  -30.5300  -17.3630   20.5610 C   0  0  0  0  0  0  0  0  0  0  0  0
  -31.9970  -17.7440   20.7780 C   0  0  0  0  0  1  0  0  0  0  0  0
  -30.1260  -16.0960   20.5180 N   0  0  0  0  0  0  0  0  0  0  0  0
  -30.9910  -14.9450   20.4360 C   0  0  0  0  0  0  0  0  0  0  0  0
  -30.8290  -12.6260   19.5360 C   0  0  0  0  0  2  0  0  0  0  0  0
  -29.9300  -12.6690   18.2800 C   0  0  0  0  0  2  0  0  0  0  0  0
  -28.4470  -12.5160   18.6680 C   0  0  0  0  0  2  0  0  0  0  0  0
  -28.0340  -13.4480   19.8360 C   0  0  0  0  0  3  0  0  0  0  0  0
  -29.0540  -13.3950   20.9900 C   0  0  0  0  0  2  0  0  0  0  0  0
  -30.3810  -13.7100   20.4410 N   0  0  0  0  0  0  0  0  0  0  0  0
  -32.1950  -14.9770   20.1740 O   0  0  0  0  0  0  0  0  0  0  0  0
  -25.6440  -14.0630   20.5360 C   0  0  0  0  0  0  0  0  0  0  0  0
  -24.5570  -13.2980   20.8660 C   0  0  0  0  0  0  0  0  0  0  0  0
  -25.0000  -11.9420   20.8210 C   0  0  0  0  0  0  0  0  0  0  0  0
  -26.6770  -13.1710   20.2980 N   0  0  0  0  0  0  0  0  0  0  0  0
  -26.2950  -11.8890   20.5340 N   0  0  0  0  0  0  0  0  0  0  0  0
  -24.2520  -10.6870   20.9740 C   0  0  0  0  0  0  0  0  0  0  0  0
  -24.6400   -9.7030   21.9100 C   0  0  0  0  0  3  0  0  0  0  0  0
  -23.8930   -8.5140   22.0520 C   0  0  0  0  0  3  0  0  0  0  0  0
  -22.7430   -8.2990   21.2540 C   0  0  0  0  0  0  0  0  0  0  0  0
  -22.3750   -9.2720   20.3070 C   0  0  0  0  0  3  0  0  0  0  0  0
  -23.1210  -10.4520   20.1650 C   0  0  0  0  0  3  0  0  0  0  0  0
  -21.9720   -7.1640   21.3050 O   0  0  0  0  0  0  0  0  0  0  0  0
  -21.8710   -6.4130   22.4470 C   0  0  0  0  0  0  0  0  0  0  0  0
  -21.3880   -6.9580   23.6570 C   0  0  0  0  0  3  0  0  0  0  0  0
  -21.2340   -6.1330   24.7890 C   0  0  0  0  0  3  0  0  0  0  0  0
  -21.5510   -4.7630   24.7120 C   0  0  0  0  0  0  0  0  0  0  0  0
  -22.0280   -4.2180   23.5070 C   0  0  0  0  0  3  0  0  0  0  0  0
  -22.1830   -5.0400   22.3770 C   0  0  0  0  0  0  0  0  0  0  0  0
  -22.6210   -4.5040   21.2140 F   0  0  0  0  0  0  0  0  0  0  0  0
  -21.3970   -3.9690   25.7980 F   0  0  0  0  0  0  0  0  0  0  0  0
  -23.1620  -13.7920   21.1180 C   0  0  0  0  0  0  0  0  0  0  0  0
  -22.4150  -13.1070   21.9770 N   0  0  0  0  0  0  0  0  0  0  0  0
  -22.7410  -14.8200   20.5900 O   0  0  0  0  0  0  0  0  0  0  0  0
  -22.7680  -12.2750   22.4270 H   0  0  0  0  0  0  0  0  0  0  0  0
  -21.4780  -13.4190   22.1920 H   0  0  0  0  0  0  0  0  0  0  0  0
  -25.8390  -15.4320   20.4020 N   0  0  0  0  0  0  0  0  0  0  0  0
  -25.1020  -16.1100   20.5520 H   0  0  0  0  0  0  0  0  0  0  0  0
  -26.7350  -15.8530   20.1780 H   0  0  0  0  0  0  0  0  0  0  0  0
  -29.0730  -22.5340   21.0010 C   0  0  0  0  0  3  0  0  0  0  0  0
  -28.8330  -23.9720   20.2630 C   0  0  0  0  0  3  0  0  0  0  0  0
  -28.0590  -25.2590   22.3970 C   0  0  0  0  0  1  0  0  0  0  0  0
  -28.9450  -25.3250   21.1400 C   0  0  0  0  0  3  0  0  0  0  0  0
  -28.9090  -26.7030   20.5480 O   0  0  0  0  0  0  0  0  0  0  0  0
  -24.7810  -31.9780   23.3520 C   0  0  0  0  0  0  0  0  0  0  0  0
  -27.7460  -27.4920   20.5000 C   0  0  0  0  0  0  0  0  0  0  0  0
  -23.7360  -30.5280   21.6430 C   0  0  0  0  0  3  0  0  0  0  0  0
  -25.3300  -29.0190   20.3240 C   0  0  0  0  0  0  0  0  0  0  0  0
  -26.2670  -30.9400   21.6190 C   0  0  0  0  0  2  0  0  0  0  0  0
  -26.4410  -29.5580   20.9860 C   0  0  0  0  0  0  0  0  0  0  0  0
  -27.6560  -28.8100   21.0560 C   0  0  0  0  0  3  0  0  0  0  0  0
  -26.6130  -27.0010   19.8220 C   0  0  0  0  0  3  0  0  0  0  0  0
  -25.4190  -27.7460   19.7330 C   0  0  0  0  0  3  0  0  0  0  0  0
  -24.0630  -29.8500   20.2850 C   0  0  0  0  0  2  0  0  0  0  0  0
  -24.9420  -31.1690   22.2610 N   0  0  0  0  0  0  0  0  0  0  0  0
  -23.6580  -32.2180   23.8180 O   0  0  0  0  0  0  0  0  0  0  0  0
  -23.0490  -29.4940   22.5680 C   0  0  0  0  0  0  0  0  0  0  0  0
  -21.7330  -29.2970   22.3830 N   0  0  0  0  0  0  0  0  0  0  0  0
  -23.7040  -28.8740   23.4100 O   0  0  0  0  0  0  0  0  0  0  0  0
  -21.2680  -29.8600   21.6850 H   0  0  0  0  0  0  0  0  0  0  0  0
  -18.3370  -28.1180   22.8000 C   0  0  0  0  0  0  0  0  0  0  0  0
  -20.8950  -28.3370   23.1040 C   0  0  0  0  0  3  0  0  0  0  0  0
  -20.9870  -26.9290   22.4700 C   0  0  0  0  0  2  0  0  0  0  0  0
  -19.8910  -26.6620   21.4330 C   0  0  0  0  0  2  0  0  0  0  0  0
  -18.5050  -26.7940   22.0720 C   0  0  0  0  0  2  0  0  0  0  0  0
  -19.4600  -28.8490   23.2710 C   0  0  0  0  0  0  0  0  0  0  0  0
  -19.2520  -30.0880   23.9140 C   0  0  0  0  0  3  0  0  0  0  0  0
  -17.9520  -30.5960   24.0930 C   0  0  0  0  0  3  0  0  0  0  0  0
  -16.8420  -29.8600   23.6430 C   0  0  0  0  0  3  0  0  0  0  0  0
  -17.0350  -28.6240   23.0010 C   0  0  0  0  0  3  0  0  0  0  0  0
  -26.0000  -32.6560   24.0510 C   0  0  0  0  0  3  0  0  0  0  0  0
  -25.6270  -34.0470   24.3460 N   0  0  0  0  0  0  0  0  0  0  0  0
  -25.9700  -35.1040   23.5980 C   0  0  0  0  0  0  0  0  0  0  0  0
  -26.7050  -35.0160   22.6100 O   0  0  0  0  0  0  0  0  0  0  0  0
  -24.9740  -34.1830   25.1050 H   0  0  0  0  0  0  0  0  0  0  0  0
  -24.2050  -36.8390   23.1300 C   0  0  0  0  0  1  0  0  0  0  0  0
  -25.4110  -36.4790   24.0120 C   0  0  0  0  0  3  0  0  0  0  0  0
  -27.4580  -37.4530   24.9570 C   0  0  0  0  0  1  0  0  0  0  0  0
  -26.4100  -37.5670   23.9470 N   0  0  0  0  0  0  0  0  0  0  0  0
  -25.9630  -38.4720   24.0590 H   0  0  0  0  0  0  0  0  0  0  0  0
  -26.4550  -31.9150   25.3680 C   0  0  1  0  0  0  0  0  0  0  0  0
  -25.2910  -31.5940   26.3350 C   0  0  0  0  0  1  0  0  0  0  0  0
  -27.1680  -30.5860   25.0300 C   0  0  0  0  0  1  0  0  0  0  0  0
  -27.4810  -32.7850   26.1310 C   0  0  0  0  0  1  0  0  0  0  0  0
  -26.6430  -18.8290   18.1480 C   0  0  0  0  0  2  0  0  0  0  0  0
  -26.2200  -20.3230   16.1000 C   0  0  0  0  0  1  0  0  0  0  0  0
  -26.8800  -19.0510   16.6440 C   0  0  0  0  0  2  0  0  0  0  0  0
  2  1  1  0
  2 47  1  0
  3  2  2  0
  4  8  1  0
  4  1  2  0
  5  3  1  0
  5  7  2  0
  6  3  1  0
  7  4  1  0
  8  9  1  0
 10  8  2  0
 11 17  1  0
 11 10  1  0
 12 17  1  0
 13 14  1  0
 13 12  1  0
 15 14  1  0
 15 22  1  0
 15 16  1  0
 17 16  1  0
 18 11  2  0
 19 20  2  0
 20 39  1  0
 21 20  1  0
 21 24  1  0
 22 23  1  0
 22 19  1  0
 23 21  2  0
 24 25  1  0
 25 26  2  0
 27 30  1  0
 27 26  1  0
 28 27  2  0
 29 28  1  0
 29 24  2  0
 30 31  1  0
 31 32  1  0
 32 33  2  0
 34 33  1  0
 34 38  1  0
 35 34  2  0
 36 31  2  0
 36 35  1  0
 37 36  1  0
 39 40  1  0
 40 43  1  0
 40 42  1  0
 41 39  2  0
 44 19  1  0
 44 45  1  0
 46 44  1  0
 48 47  2  0
 48 50  1  0
 50 49  1  0
 51 50  1  0
 52 63  2  0
 53 51  1  0
 53 58  1  0
 54 62  1  0
 54 64  1  0
 55 57  1  0
 56 62  1  0
 57 58  2  0
 57 56  1  0
 59 53  2  0
 60 59  1  0
 60 55  2  0
 61 55  1  0
 61 54  1  0
 62 52  1  0
 64 66  2  0
 65 64  1  0
 67 65  1  0
 68 77  2  0
 68 73  1  0
 69 65  1  0
 69 73  1  0
 70 69  1  0
 71 72  1  0
 71 70  1  0
 72 68  1  0
 73 74  2  0
 74 75  1  0
 76 75  2  0
 77 76  1  0
 78 52  1  0
 78 79  1  0
 78 88  1  0
 79 82  1  0
 80 84  1  0
 80 79  1  0
 81 80  2  0
 84 83  1  0
 86 84  1  0
 86 87  1  0
 86 85  1  0
 88 91  1  1
 88 89  1  0
 90 88  1  0
 92  5  1  0
 93 94  1  0
 94 92  1  0
M  ISO  4  10 100  11 100  50 101  51 101
M  END
>  <TORSDO>  (90) 
F 22

>  <SCORE>  (90) 
-11.079

>  <name>  (90) 
91

>  <ligand_id>  (90) 
91

>  <original_smiles>  (90) 
[H]c1c([H])c([H])c2c(c1[H])C([H])([H])C([H])([H])C([H])([H])C2([H])N([H])C(=O)C1([H])N(C(=O)C([H])(N([H])C(=O)C([H])(N([H])C([H])([H])[H])C([H])([H])[H])C(C([H])([H])[H])(C([H])([H])[H])C([H])([H])[H])C([H])([H])c2c([H])c(OC([H])(C([H])([H])[H])C([H])([H])C([H])([H])c3c([H])c(C(=NC(=O)N4C([H])([H])C([H])([H])C([H])([H])C([H])(n5nc(-c6c([H])c([H])c(Oc7c([H])c([H])c(F)c([H])c7F)c([H])c6[H])c(C(=O)N([H])[H])c5N([H])[H])C4([H])[H])C([H])([H])[H])nc(C([H])([H])C([H])([H])C([H])([H])[H])c3C([H])([H])[H])c([H])c([H])c2C1([H])[H]

>  <smiles>  (90) 
[H]c1c([H])c([H])c2c(c1[H])C([H])([H])C([H])([H])C([H])([H])C2([H])N([H])C(=O)C1([H])N(C(=O)C([H])(N([H])C(=O)C([H])(N([H])C([H])([H])[H])C([H])([H])[H])C(C([H])([H])[H])(C([H])([H])[H])C([H])([H])[H])C([H])([H])c2c([H])c(OC([H])(C([H])([H])[H])C([H])([H])C([H])([H])c3c([H])c(C(=NC(=O)N4C([H])([H])C([H])([H])C([H])([H])C([H])(n5nc(-c6c([H])c([H])c(Oc7c([H])c([H])c(F)c([H])c7F)c([H])c6[H])c(C(=O)N([H])[H])c5N([H])[H])C4([H])[H])C([H])([H])[H])nc(C([H])([H])C([H])([H])C([H])([H])[H])c3C([H])([H])[H])c([H])c([H])c2C1([H])[H]

$$$$
92:0:0
     RDKit          3D

 91 98  0  0  1  0  0  0  0  0999 V2000
  -27.4460  -22.4030   22.2070 C   0  0  0  0  0  1  0  0  0  0  0  0
  -26.4730  -23.0250   20.0000 C   0  0  0  0  0  1  0  0  0  0  0  0
  -27.7920  -22.9510   20.8000 C   0  0  1  0  0  0  0  0  0  0  0  0
  -28.3010  -24.4250   21.0240 C   0  0  0  0  0  2  0  0  0  0  0  0
  -28.5830  -25.3810   19.8220 C   0  0  0  0  0  2  0  0  0  0  0  0
  -28.5240  -26.7870   20.1950 O   0  0  0  0  0  0  0  0  0  0  0  0
  -24.6250  -31.9410   23.2700 C   0  0  0  0  0  0  0  0  0  0  0  0
  -27.3250  -27.4920   20.1890 C   0  0  0  0  0  0  0  0  0  0  0  0
  -23.4380  -30.5230   21.6290 C   0  0  0  0  0  3  0  0  0  0  0  0
  -24.9070  -28.9970   20.2040 C   0  0  0  0  0  0  0  0  0  0  0  0
  -25.9600  -30.9030   21.4320 C   0  0  0  0  0  2  0  0  0  0  0  0
  -26.0630  -29.5290   20.7900 C   0  0  0  0  0  0  0  0  0  0  0  0
  -27.2710  -28.7840   20.7760 C   0  0  0  0  0  3  0  0  0  0  0  0
  -26.1410  -26.9830   19.6060 C   0  0  0  0  0  3  0  0  0  0  0  0
  -24.9450  -27.7240   19.6120 C   0  0  0  0  0  3  0  0  0  0  0  0
  -23.6520  -29.8430   20.2500 C   0  0  0  0  0  2  0  0  0  0  0  0
  -24.6920  -31.1420   22.1670 N   0  0  0  0  0  0  0  0  0  0  0  0
  -23.5380  -32.2020   23.8050 O   0  0  0  0  0  0  0  0  0  0  0  0
  -22.7970  -29.4960   22.5900 C   0  0  0  0  0  0  0  0  0  0  0  0
  -21.4770  -29.2930   22.4530 N   0  0  0  0  0  0  0  0  0  0  0  0
  -23.4860  -28.8870   23.4150 O   0  0  0  0  0  0  0  0  0  0  0  0
  -20.9870  -29.8270   21.7510 H   0  0  0  0  0  0  0  0  0  0  0  0
  -18.1170  -28.0630   22.9310 C   0  0  0  0  0  0  0  0  0  0  0  0
  -20.6680  -28.3440   23.2190 C   0  0  0  0  0  3  0  0  0  0  0  0
  -20.7890  -26.9140   22.6390 C   0  0  0  0  0  2  0  0  0  0  0  0
  -19.6950  -26.5720   21.6210 C   0  0  0  0  0  2  0  0  0  0  0  0
  -18.3070  -26.7140   22.2550 C   0  0  0  0  0  2  0  0  0  0  0  0
  -19.2260  -28.8340   23.3690 C   0  0  0  0  0  0  0  0  0  0  0  0
  -18.9900  -30.0950   23.9610 C   0  0  0  0  0  3  0  0  0  0  0  0
  -17.6780  -30.5820   24.1190 C   0  0  0  0  0  3  0  0  0  0  0  0
  -16.5840  -29.8050   23.7040 C   0  0  0  0  0  3  0  0  0  0  0  0
  -16.8050  -28.5460   23.1160 C   0  0  0  0  0  3  0  0  0  0  0  0
  -25.9020  -32.5820   23.9020 C   0  0  0  0  0  3  0  0  0  0  0  0
  -25.5860  -33.9810   24.2160 N   0  0  0  0  0  0  0  0  0  0  0  0
  -25.9220  -35.0270   23.4510 C   0  0  0  0  0  0  0  0  0  0  0  0
  -26.6000  -34.9150   22.4260 O   0  0  0  0  0  0  0  0  0  0  0  0
  -24.9750  -34.1410   25.0040 H   0  0  0  0  0  0  0  0  0  0  0  0
  -24.1860  -36.8020   23.0610 C   0  0  0  0  0  1  0  0  0  0  0  0
  -25.4210  -36.4150   23.8880 C   0  0  0  0  0  3  0  0  0  0  0  0
  -27.5460  -37.3140   24.7270 C   0  0  0  0  0  1  0  0  0  0  0  0
  -26.4500  -37.4720   23.7740 N   0  0  0  0  0  0  0  0  0  0  0  0
  -26.0380  -38.3940   23.9030 H   0  0  0  0  0  0  0  0  0  0  0  0
  -26.4140  -31.8240   25.1890 C   0  0  1  0  0  0  0  0  0  0  0  0
  -25.3140  -31.5880   26.2520 C   0  0  0  0  0  1  0  0  0  0  0  0
  -27.0060  -30.4480   24.8080 C   0  0  0  0  0  1  0  0  0  0  0  0
  -27.5610  -32.6270   25.8450 C   0  0  0  0  0  1  0  0  0  0  0  0
  -28.8640  -22.0000   20.1300 C   0  0  0  0  0  2  0  0  0  0  0  0
  -27.9730  -20.1330   18.7890 C   0  0  0  0  0  1  0  0  0  0  0  0
  -28.5210  -20.5230   20.1110 N   0  0  1  0  0  4  0  0  0  0  0  0
  -27.7820  -20.4100   20.7920 H   0  0  0  0  0  0  0  0  0  0  0  0
  -29.6290  -19.5860   20.5430 C   0  0  0  0  0  3  0  0  0  0  0  0
  -29.2410  -18.0570   20.6440 C   0  0  0  0  0  3  0  0  0  0  0  0
  -30.3330  -17.0710   21.1760 C   0  0  0  0  0  2  0  0  0  0  0  0
  -30.6810  -14.6340   20.4840 C   0  0  0  0  0  0  0  0  0  0  0  0
  -30.4180  -12.4650   19.3050 C   0  0  0  0  0  2  0  0  0  0  0  0
  -29.5000  -12.6360   18.0750 C   0  0  0  0  0  2  0  0  0  0  0  0
  -28.0260  -12.4700   18.4870 C   0  0  0  0  0  2  0  0  0  0  0  0
  -27.6620  -13.3340   19.7230 C   0  0  0  0  0  3  0  0  0  0  0  0
  -28.6920  -13.1350   20.8580 C   0  0  0  0  0  2  0  0  0  0  0  0
  -30.0210  -13.4520   20.3210 N   0  0  0  0  0  0  0  0  0  0  0  0
  -31.8170  -14.8230   20.0410 O   0  0  0  0  0  0  0  0  0  0  0  0
  -29.9530  -15.6400   21.0310 N   0  0  0  0  0  0  0  0  0  0  0  0
  -29.0270  -15.3840   21.3460 H   0  0  0  0  0  0  0  0  0  0  0  0
  -25.2700  -13.9590   20.4070 C   0  0  0  0  0  0  0  0  0  0  0  0
  -24.1980  -13.1930   20.7850 C   0  0  0  0  0  0  0  0  0  0  0  0
  -24.6580  -11.8420   20.7800 C   0  0  0  0  0  0  0  0  0  0  0  0
  -26.3100  -13.0700   20.1960 N   0  0  0  0  0  0  0  0  0  0  0  0
  -25.9480  -11.7930   20.4800 N   0  0  0  0  0  0  0  0  0  0  0  0
  -23.9280  -10.5830   20.9810 C   0  0  0  0  0  0  0  0  0  0  0  0
  -24.3510   -9.6290   21.9320 C   0  0  0  0  0  3  0  0  0  0  0  0
  -23.6250   -8.4340   22.1170 C   0  0  0  0  0  3  0  0  0  0  0  0
  -22.4590   -8.1880   21.3500 C   0  0  0  0  0  0  0  0  0  0  0  0
  -22.0570   -9.1320   20.3890 C   0  0  0  0  0  3  0  0  0  0  0  0
  -22.7860  -10.3180   20.2030 C   0  0  0  0  0  3  0  0  0  0  0  0
  -21.7000   -7.0470   21.4460 O   0  0  0  0  0  0  0  0  0  0  0  0
  -21.6390   -6.3180   22.6080 C   0  0  0  0  0  0  0  0  0  0  0  0
  -21.2010   -6.8880   23.8240 C   0  0  0  0  0  3  0  0  0  0  0  0
  -21.0890   -6.0830   24.9770 C   0  0  0  0  0  3  0  0  0  0  0  0
  -21.4040   -4.7120   24.9120 C   0  0  0  0  0  0  0  0  0  0  0  0
  -21.8350   -4.1440   23.7000 C   0  0  0  0  0  3  0  0  0  0  0  0
  -21.9480   -4.9450   22.5510 C   0  0  0  0  0  0  0  0  0  0  0  0
  -22.3430   -4.3880   21.3800 F   0  0  0  0  0  0  0  0  0  0  0  0
  -21.2880   -3.9370   26.0160 F   0  0  0  0  0  0  0  0  0  0  0  0
  -22.7990  -13.6800   21.0340 C   0  0  0  0  0  0  0  0  0  0  0  0
  -22.0640  -12.9940   21.9040 N   0  0  0  0  0  0  0  0  0  0  0  0
  -22.3690  -14.6960   20.4970 O   0  0  0  0  0  0  0  0  0  0  0  0
  -22.4240  -12.1710   22.3610 H   0  0  0  0  0  0  0  0  0  0  0  0
  -21.1250  -13.3020   22.1110 H   0  0  0  0  0  0  0  0  0  0  0  0
  -25.4450  -15.3240   20.1970 N   0  0  0  0  0  0  0  0  0  0  0  0
  -24.6610  -15.9670   20.1960 H   0  0  0  0  0  0  0  0  0  0  0  0
  -26.2880  -15.7190   19.8060 H   0  0  0  0  0  0  0  0  0  0  0  0
  3  2  1  6
  3  4  1  0
  3  1  1  0
  5  6  1  0
  5  4  1  0
  7 18  2  0
  8  6  1  0
  8 13  1  0
  9 17  1  0
  9 19  1  0
 10 16  1  0
 10 12  1  0
 11 17  1  0
 12 11  1  0
 13 12  2  0
 14 15  1  0
 14  8  2  0
 15 10  2  0
 16  9  1  0
 17  7  1  0
 19 21  2  0
 20 19  1  0
 22 20  1  0
 23 32  2  0
 23 28  1  0
 24 20  1  0
 24 28  1  0
 25 24  1  0
 26 27  1  0
 26 25  1  0
 27 23  1  0
 28 29  2  0
 29 30  1  0
 31 30  2  0
 32 31  1  0
 33  7  1  0
 33 34  1  0
 33 43  1  0
 34 37  1  0
 35 39  1  0
 35 34  1  0
 36 35  2  0
 39 38  1  0
 41 39  1  0
 41 42  1  0
 41 40  1  0
 43 46  1  1
 43 44  1  0
 45 43  1  0
 47  3  1  0
 48 49  1  0
 49 47  1  0
 49 51  1  0
 49 50  1  1
 51 52  2  0
 52 53  1  0
 54 62  1  0
 55 60  1  0
 56 57  1  0
 56 55  1  0
 58 57  1  0
 58 67  1  0
 58 59  1  0
 60 54  1  0
 60 59  1  0
 61 54  2  0
 62 53  1  0
 62 63  1  0
 64 65  2  0
 65 84  1  0
 66 65  1  0
 66 69  1  0
 67 64  1  0
 67 68  1  0
 68 66  2  0
 69 70  1  0
 70 71  2  0
 72 75  1  0
 72 71  1  0
 73 72  2  0
 74 73  1  0
 74 69  2  0
 75 76  1  0
 76 77  1  0
 77 78  2  0
 79 78  1  0
 79 83  1  0
 80 79  2  0
 81 76  2  0
 81 80  1  0
 82 81  1  0
 84 85  1  0
 85 88  1  0
 85 87  1  0
 86 84  2  0
 89 64  1  0
 90 89  1  0
 91 89  1  0
M  ISO  4   5 101   6 101  54 100  62 100
M  END
>  <TORSDO>  (91) 
F 23

>  <SCORE>  (91) 
-12.388

>  <name>  (91) 
92

>  <ligand_id>  (91) 
92

>  <original_smiles>  (91) 
[H]c1c([H])c([H])c2c(c1[H])C([H])([H])C([H])([H])C([H])([H])C2([H])N([H])C(=O)C1([H])N(C(=O)C([H])(N([H])C(=O)C([H])(N([H])C([H])([H])[H])C([H])([H])[H])C(C([H])([H])[H])(C([H])([H])[H])C([H])([H])[H])C([H])([H])c2c([H])c(OC([H])([H])C([H])([H])C(C([H])([H])[H])(C([H])([H])[H])C([H])([H])[N+]([H])(C([H])([H])[H])C([H])([H])C([H])([H])C([H])([H])N([H])C(=O)N3C([H])([H])C([H])([H])C([H])([H])C([H])(n4nc(-c5c([H])c([H])c(Oc6c([H])c([H])c(F)c([H])c6F)c([H])c5[H])c(C(=O)N([H])[H])c4N([H])[H])C3([H])[H])c([H])c([H])c2C1([H])[H]

>  <smiles>  (91) 
[H]c1c([H])c([H])c2c(c1[H])C([H])([H])C([H])([H])C([H])([H])C2([H])N([H])C(=O)C1([H])N(C(=O)C([H])(N([H])C(=O)C([H])(N([H])C([H])([H])[H])C([H])([H])[H])C(C([H])([H])[H])(C([H])([H])[H])C([H])([H])[H])C([H])([H])c2c([H])c(OC([H])([H])C([H])([H])C(C([H])([H])[H])(C([H])([H])[H])C([H])([H])[N+]([H])(C([H])([H])[H])C([H])([H])C([H])([H])C([H])([H])N([H])C(=O)N3C([H])([H])C([H])([H])C([H])([H])C([H])(n4nc(-c5c([H])c([H])c(Oc6c([H])c([H])c(F)c([H])c6F)c([H])c5[H])c(C(=O)N([H])[H])c4N([H])[H])C3([H])[H])c([H])c([H])c2C1([H])[H]

$$$$
93:0:0
     RDKit          3D

 94102  0  0  1  0  0  0  0  0999 V2000
  -29.9290  -24.1370   21.7080 C   0  0  0  0  0  3  0  0  0  0  0  0
  -30.6560  -23.5340   22.7430 C   0  0  0  0  0  3  0  0  0  0  0  0
  -29.2280  -23.3400   20.7690 C   0  0  0  0  0  0  0  0  0  0  0  0
  -30.6360  -22.1390   22.8460 C   0  0  0  0  0  0  0  0  0  0  0  0
  -29.2830  -21.9080   20.9470 C   0  0  0  0  0  0  0  0  0  0  0  0
  -31.4490  -21.4220   23.9030 C   0  0  0  0  0  1  0  0  0  0  0  0
  -29.9300  -21.3650   22.0020 N   0  0  0  0  0  0  0  0  0  0  0  0
  -28.4560  -24.0960   19.6590 C   0  0  0  0  0  2  0  0  0  0  0  0
  -29.0280  -25.4910   19.2050 C   0  0  0  0  0  2  0  0  0  0  0  0
  -28.7640  -26.6620   20.0250 O   0  0  0  0  0  0  0  0  0  0  0  0
  -24.5860  -31.5450   23.1470 C   0  0  0  0  0  0  0  0  0  0  0  0
  -27.5510  -27.3460   19.9660 C   0  0  0  0  0  0  0  0  0  0  0  0
  -23.5190  -30.1990   21.3690 C   0  0  0  0  0  3  0  0  0  0  0  0
  -25.1010  -28.7960   19.9380 C   0  0  0  0  0  0  0  0  0  0  0  0
  -26.0400  -30.6530   21.3210 C   0  0  0  0  0  2  0  0  0  0  0  0
  -26.2100  -29.3190   20.6120 C   0  0  0  0  0  0  0  0  0  0  0  0
  -27.4340  -28.6020   20.6220 C   0  0  0  0  0  3  0  0  0  0  0  0
  -26.4110  -26.8410   19.3000 C   0  0  0  0  0  3  0  0  0  0  0  0
  -25.1970  -27.5560   19.2830 C   0  0  0  0  0  3  0  0  0  0  0  0
  -23.8250  -29.6080   19.9650 C   0  0  0  0  0  2  0  0  0  0  0  0
  -24.7300  -30.8100   22.0070 N   0  0  0  0  0  0  0  0  0  0  0  0
  -23.4680  -31.7430   23.6470 O   0  0  0  0  0  0  0  0  0  0  0  0
  -22.8630  -29.1000   22.2380 C   0  0  0  0  0  0  0  0  0  0  0  0
  -21.5500  -28.8860   22.0480 N   0  0  0  0  0  0  0  0  0  0  0  0
  -23.5340  -28.4450   23.0400 O   0  0  0  0  0  0  0  0  0  0  0  0
  -21.0680  -29.4680   21.3760 H   0  0  0  0  0  0  0  0  0  0  0  0
  -18.1960  -27.5860   22.3760 C   0  0  0  0  0  0  0  0  0  0  0  0
  -20.7390  -27.8760   22.7270 C   0  0  0  0  0  3  0  0  0  0  0  0
  -20.8890  -26.4960   22.0470 C   0  0  0  0  0  2  0  0  0  0  0  0
  -19.8170  -26.2280   20.9860 C   0  0  0  0  0  2  0  0  0  0  0  0
  -18.4200  -26.2960   21.6060 C   0  0  0  0  0  2  0  0  0  0  0  0
  -19.2870  -28.3360   22.8910 C   0  0  0  0  0  0  0  0  0  0  0  0
  -19.0260  -29.5450   23.5720 C   0  0  0  0  0  3  0  0  0  0  0  0
  -17.7080  -30.0050   23.7440 C   0  0  0  0  0  3  0  0  0  0  0  0
  -16.6310  -29.2510   23.2460 C   0  0  0  0  0  3  0  0  0  0  0  0
  -16.8760  -28.0430   22.5680 C   0  0  0  0  0  3  0  0  0  0  0  0
  -25.8110  -32.1920   23.8640 C   0  0  0  0  0  3  0  0  0  0  0  0
  -25.4480  -33.5760   24.2000 N   0  0  0  0  0  0  0  0  0  0  0  0
  -25.8000  -34.6500   23.4810 C   0  0  0  0  0  0  0  0  0  0  0  0
  -26.5330  -34.5830   22.4910 O   0  0  0  0  0  0  0  0  0  0  0  0
  -24.8050  -33.7010   24.9670 H   0  0  0  0  0  0  0  0  0  0  0  0
  -24.0540  -36.4100   23.0530 C   0  0  0  0  0  1  0  0  0  0  0  0
  -25.2520  -36.0170   23.9320 C   0  0  0  0  0  3  0  0  0  0  0  0
  -27.3070  -36.9380   24.9140 C   0  0  0  0  0  1  0  0  0  0  0  0
  -26.2630  -37.0960   23.9040 N   0  0  0  0  0  0  0  0  0  0  0  0
  -25.8260  -38.0020   24.0410 H   0  0  0  0  0  0  0  0  0  0  0  0
  -26.2630  -31.4070   25.1560 C   0  0  1  0  0  0  0  0  0  0  0  0
  -25.1070  -31.1240   26.1430 C   0  0  0  0  0  1  0  0  0  0  0  0
  -26.9050  -30.0520   24.7770 C   0  0  0  0  0  1  0  0  0  0  0  0
  -27.3490  -32.2100   25.9080 C   0  0  0  0  0  1  0  0  0  0  0  0
  -28.5810  -20.8160   20.0850 C   0  0  0  0  0  2  0  0  0  0  0  0
  -30.8940  -19.8980   19.1860 C   0  0  0  0  0  1  0  0  0  0  0  0
  -29.4270  -19.5660   19.5530 C   0  0  0  0  0  3  0  0  0  0  0  0
  -29.8710  -18.2820   21.7830 C   0  0  0  0  0  1  0  0  0  0  0  0
  -29.3160  -18.1870   20.3460 C   0  0  0  0  0  3  0  0  0  0  0  0
  -29.9770  -16.9680   19.5860 C   0  0  0  0  0  2  0  0  0  0  0  0
  -30.5520  -14.5170   19.8520 C   0  0  0  0  0  0  0  0  0  0  0  0
  -30.3770  -12.1920   19.0300 C   0  0  0  0  0  2  0  0  0  0  0  0
  -29.3830  -12.1670   17.8470 C   0  0  0  0  0  2  0  0  0  0  0  0
  -27.9370  -11.9860   18.3580 C   0  0  0  0  0  2  0  0  0  0  0  0
  -27.5870  -12.9600   19.5130 C   0  0  0  0  0  3  0  0  0  0  0  0
  -28.6930  -12.9710   20.5930 C   0  0  0  0  0  2  0  0  0  0  0  0
  -29.9650  -13.2870   19.9290 N   0  0  0  0  0  0  0  0  0  0  0  0
  -31.6720  -14.6720   19.3620 O   0  0  0  0  0  0  0  0  0  0  0  0
  -29.7600  -15.5930   20.1260 N   0  0  0  0  0  0  0  0  0  0  0  0
  -28.8520  -15.4000   20.5180 H   0  0  0  0  0  0  0  0  0  0  0  0
  -25.2380  -13.5440   20.3850 C   0  0  0  0  0  0  0  0  0  0  0  0
  -24.2070  -12.7610   20.8340 C   0  0  0  0  0  0  0  0  0  0  0  0
  -24.6820  -11.4140   20.7830 C   0  0  0  0  0  0  0  0  0  0  0  0
  -26.2740  -12.6710   20.0840 N   0  0  0  0  0  0  0  0  0  0  0  0
  -25.9480  -11.3880   20.3840 N   0  0  0  0  0  0  0  0  0  0  0  0
  -23.9870  -10.1460   21.0290 C   0  0  0  0  0  0  0  0  0  0  0  0
  -24.4260   -9.2410   22.0210 C   0  0  0  0  0  3  0  0  0  0  0  0
  -23.7250   -8.0370   22.2490 C   0  0  0  0  0  3  0  0  0  0  0  0
  -22.5720   -7.7310   21.4880 C   0  0  0  0  0  0  0  0  0  0  0  0
  -22.1540   -8.6230   20.4870 C   0  0  0  0  0  3  0  0  0  0  0  0
  -22.8550   -9.8180   20.2560 C   0  0  0  0  0  3  0  0  0  0  0  0
  -21.8480   -6.5700   21.6240 O   0  0  0  0  0  0  0  0  0  0  0  0
  -21.7310   -5.9320   22.8310 C   0  0  0  0  0  0  0  0  0  0  0  0
  -21.1760   -6.5700   23.9620 C   0  0  0  0  0  3  0  0  0  0  0  0
  -21.0080   -5.8540   25.1630 C   0  0  0  0  0  3  0  0  0  0  0  0
  -21.3900   -4.5010   25.2370 C   0  0  0  0  0  0  0  0  0  0  0  0
  -21.9380   -3.8620   24.1100 C   0  0  0  0  0  3  0  0  0  0  0  0
  -22.1050   -4.5740   22.9100 C   0  0  0  0  0  0  0  0  0  0  0  0
  -22.6160   -3.9490   21.8230 F   0  0  0  0  0  0  0  0  0  0  0  0
  -21.2200   -3.8110   26.3870 F   0  0  0  0  0  0  0  0  0  0  0  0
  -22.8260  -13.2270   21.1950 C   0  0  0  0  0  0  0  0  0  0  0  0
  -22.1680  -12.5390   22.1230 N   0  0  0  0  0  0  0  0  0  0  0  0
  -22.3420  -14.2400   20.6940 O   0  0  0  0  0  0  0  0  0  0  0  0
  -22.5690  -11.7240   22.5600 H   0  0  0  0  0  0  0  0  0  0  0  0
  -21.2450  -12.8390   22.4030 H   0  0  0  0  0  0  0  0  0  0  0  0
  -25.3770  -14.9150   20.1900 N   0  0  0  0  0  0  0  0  0  0  0  0
  -24.6120  -15.5600   20.3540 H   0  0  0  0  0  0  0  0  0  0  0  0
  -26.1810  -15.3630   19.7700 H   0  0  0  0  0  0  0  0  0  0  0  0
  1  2  1  0
  2  4  2  0
  3  5  1  0
  3  1  2  0
  4  6  1  0
  5  7  2  0
  7  4  1  0
  8  3  1  0
  9  8  1  0
  9 10  1  0
 11 22  2  0
 12 10  1  0
 12 17  1  0
 13 21  1  0
 13 23  1  0
 14 20  1  0
 14 16  1  0
 15 21  1  0
 16 17  2  0
 16 15  1  0
 18 12  2  0
 19 18  1  0
 19 14  2  0
 20 13  1  0
 21 11  1  0
 23 25  2  0
 24 23  1  0
 26 24  1  0
 27 36  2  0
 27 32  1  0
 28 24  1  0
 28 32  1  0
 29 28  1  0
 30 31  1  0
 30 29  1  0
 31 27  1  0
 32 33  2  0
 33 34  1  0
 35 34  2  0
 36 35  1  0
 37 11  1  0
 37 38  1  0
 37 47  1  0
 38 41  1  0
 39 43  1  0
 39 38  1  0
 40 39  2  0
 43 42  1  0
 45 43  1  0
 45 46  1  0
 45 44  1  0
 47 50  1  1
 47 48  1  0
 49 47  1  0
 51  5  1  0
 53 52  1  0
 53 51  1  0
 53 55  1  0
 55 54  1  0
 56 65  1  0
 56 55  1  0
 57 63  1  0
 57 65  1  0
 58 63  1  0
 59 60  1  0
 59 58  1  0
 61 60  1  0
 61 70  1  0
 61 62  1  0
 63 62  1  0
 64 57  2  0
 65 66  1  0
 67 68  2  0
 68 87  1  0
 69 68  1  0
 69 72  1  0
 70 71  1  0
 70 67  1  0
 71 69  2  0
 72 73  1  0
 73 74  2  0
 75 78  1  0
 75 74  1  0
 76 75  2  0
 77 76  1  0
 77 72  2  0
 78 79  1  0
 79 84  2  0
 79 80  1  0
 80 81  2  0
 81 82  1  0
 82 86  1  0
 83 82  2  0
 84 83  1  0
 85 84  1  0
 87 88  1  0
 88 91  1  0
 88 90  1  0
 89 87  2  0
 92 93  1  0
 92 67  1  0
 94 92  1  0
M  ISO  4   9 101  10 101  57 100  65 100
M  END
>  <TORSDO>  (92) 
F 22

>  <SCORE>  (92) 
-11.713

>  <name>  (92) 
93

>  <ligand_id>  (92) 
93

>  <original_smiles>  (92) 
[H]c1c(C([H])([H])[H])nc(C([H])([H])C([H])(C([H])([H])[H])C([H])(C([H])([H])[H])C([H])([H])N([H])C(=O)N2C([H])([H])C([H])([H])C([H])([H])C([H])(n3nc(-c4c([H])c([H])c(Oc5c([H])c([H])c(F)c([H])c5F)c([H])c4[H])c(C(=O)N([H])[H])c3N([H])[H])C2([H])[H])c(C([H])([H])C([H])([H])Oc2c([H])c([H])c3c(c2[H])C([H])([H])N(C(=O)C([H])(N([H])C(=O)C([H])(N([H])C([H])([H])[H])C([H])([H])[H])C(C([H])([H])[H])(C([H])([H])[H])C([H])([H])[H])C([H])(C(=O)N([H])C2([H])c4c([H])c([H])c([H])c([H])c4C([H])([H])C([H])([H])C2([H])[H])C3([H])[H])c1[H]

>  <smiles>  (92) 
[H]c1c(C([H])([H])[H])nc(C([H])([H])C([H])(C([H])([H])[H])C([H])(C([H])([H])[H])C([H])([H])N([H])C(=O)N2C([H])([H])C([H])([H])C([H])([H])C([H])(n3nc(-c4c([H])c([H])c(Oc5c([H])c([H])c(F)c([H])c5F)c([H])c4[H])c(C(=O)N([H])[H])c3N([H])[H])C2([H])[H])c(C([H])([H])C([H])([H])Oc2c([H])c([H])c3c(c2[H])C([H])([H])N(C(=O)C([H])(N([H])C(=O)C([H])(N([H])C([H])([H])[H])C([H])([H])[H])C(C([H])([H])[H])(C([H])([H])[H])C([H])([H])[H])C([H])(C(=O)N([H])C2([H])c4c([H])c([H])c([H])c([H])c4C([H])([H])C([H])([H])C2([H])[H])C3([H])[H])c1[H]

$$$$
94:0:0
     RDKit          3D

 96104  0  0  1  0  0  0  0  0999 V2000
  -30.7230  -25.0940   19.8820 C   0  0  0  0  0  3  0  0  0  0  0  0
  -32.0540  -24.7100   20.0010 C   0  0  0  0  0  3  0  0  0  0  0  0
  -29.6650  -24.1790   20.0850 C   0  0  0  0  0  0  0  0  0  0  0  0
  -30.0430  -22.7640   20.3140 C   0  0  0  0  0  0  0  0  0  0  0  0
  -31.4430  -22.5430   20.5380 C   0  0  0  0  0  0  0  0  0  0  0  0
  -32.4000  -23.4760   20.3700 N   0  0  0  0  0  0  0  0  0  0  0  0
  -31.8640  -21.1790   22.6430 C   0  0  0  0  0  1  0  0  0  0  0  0
  -32.0460  -21.2660   21.1200 C   0  0  0  0  0  2  0  0  0  0  0  0
  -29.0820  -21.4970   20.4480 C   0  0  0  0  0  2  0  0  0  0  0  0
  -29.4400  -20.1730   19.7360 N   0  0  0  0  0  4  0  0  0  0  0  0
  -30.3170  -20.2960   19.2600 H   0  0  0  0  0  0  0  0  0  0  0  0
  -28.7530  -20.0530   19.0080 H   0  0  0  0  0  0  0  0  0  0  0  0
  -29.4990  -18.8520   20.5250 C   0  0  0  0  0  2  0  0  0  0  0  0
  -31.2150  -17.7880   18.8980 C   0  0  0  0  0  1  0  0  0  0  0  0
  -29.9920  -17.4720   19.7910 C   0  0  0  0  0  3  0  0  0  0  0  0
  -31.3580  -16.3930   21.6960 C   0  0  0  0  0  1  0  0  0  0  0  0
  -28.9530  -15.9630   21.5920 C   0  0  0  0  0  1  0  0  0  0  0  0
  -30.2010  -16.1040   20.6980 C   0  0  1  0  0  0  0  0  0  0  0  0
  -30.6430  -14.6990   19.9650 C   0  0  0  0  0  0  0  0  0  0  0  0
  -30.3060  -12.4620   18.8640 C   0  0  0  0  0  2  0  0  0  0  0  0
  -29.2890  -12.5890   17.7070 C   0  0  0  0  0  2  0  0  0  0  0  0
  -27.8470  -12.4210   18.2220 C   0  0  0  0  0  2  0  0  0  0  0  0
  -27.5790  -13.2660   19.4940 C   0  0  0  0  0  3  0  0  0  0  0  0
  -28.7060  -13.0520   20.5230 C   0  0  0  0  0  2  0  0  0  0  0  0
  -29.9650  -13.4850   19.8940 N   0  0  0  0  0  0  0  0  0  0  0  0
  -31.7380  -14.7380   19.3970 O   0  0  0  0  0  0  0  0  0  0  0  0
  -25.2540  -13.8960   20.3760 C   0  0  0  0  0  0  0  0  0  0  0  0
  -24.2000  -13.1380   20.8070 C   0  0  0  0  0  0  0  0  0  0  0  0
  -24.6310  -11.7780   20.7210 C   0  0  0  0  0  0  0  0  0  0  0  0
  -26.2620  -13.0000   20.0590 N   0  0  0  0  0  0  0  0  0  0  0  0
  -25.8960  -11.7190   20.3220 N   0  0  0  0  0  0  0  0  0  0  0  0
  -23.8900  -10.5290   20.9360 C   0  0  0  0  0  0  0  0  0  0  0  0
  -24.3480   -9.5450   21.8410 C   0  0  0  0  0  3  0  0  0  0  0  0
  -23.6080   -8.3600   22.0450 C   0  0  0  0  0  3  0  0  0  0  0  0
  -22.3970   -8.1520   21.3430 C   0  0  0  0  0  0  0  0  0  0  0  0
  -21.9580   -9.1240   20.4260 C   0  0  0  0  0  3  0  0  0  0  0  0
  -22.6980  -10.2990   20.2210 C   0  0  0  0  0  3  0  0  0  0  0  0
  -21.6260   -7.0210   21.4570 O   0  0  0  0  0  0  0  0  0  0  0  0
  -21.6050   -6.2770   22.6100 C   0  0  0  0  0  0  0  0  0  0  0  0
  -21.2530   -6.8440   23.8540 C   0  0  0  0  0  3  0  0  0  0  0  0
  -21.1760   -6.0290   25.0020 C   0  0  0  0  0  3  0  0  0  0  0  0
  -21.4430   -4.6500   24.9060 C   0  0  0  0  0  0  0  0  0  0  0  0
  -21.7880   -4.0830   23.6650 C   0  0  0  0  0  3  0  0  0  0  0  0
  -21.8660   -4.8950   22.5200 C   0  0  0  0  0  0  0  0  0  0  0  0
  -22.1790   -4.3410   21.3240 F   0  0  0  0  0  0  0  0  0  0  0  0
  -21.3610   -3.8650   26.0040 F   0  0  0  0  0  0  0  0  0  0  0  0
  -22.8360  -13.6410   21.1840 C   0  0  0  0  0  0  0  0  0  0  0  0
  -22.1570  -12.9490   22.0910 N   0  0  0  0  0  0  0  0  0  0  0  0
  -22.3840  -14.6830   20.7100 O   0  0  0  0  0  0  0  0  0  0  0  0
  -22.5340  -12.1040   22.4950 H   0  0  0  0  0  0  0  0  0  0  0  0
  -21.2480  -13.2720   22.3890 H   0  0  0  0  0  0  0  0  0  0  0  0
  -25.4280  -15.2660   20.2040 N   0  0  0  0  0  0  0  0  0  0  0  0
  -24.6810  -15.9280   20.3820 H   0  0  0  0  0  0  0  0  0  0  0  0
  -26.2520  -15.6930   19.8010 H   0  0  0  0  0  0  0  0  0  0  0  0
  -28.2650  -24.9130   20.0550 C   0  0  0  0  0  2  0  0  0  0  0  0
  -28.3380  -26.4150   20.1200 O   0  0  0  0  0  0  0  0  0  0  0  0
  -24.6240  -31.8120   23.1720 C   0  0  0  0  0  0  0  0  0  0  0  0
  -27.2020  -27.2440   20.0870 C   0  0  0  0  0  0  0  0  0  0  0  0
  -23.4060  -30.4230   21.5340 C   0  0  0  0  0  3  0  0  0  0  0  0
  -24.8410  -28.8720   20.0880 C   0  0  0  0  0  0  0  0  0  0  0  0
  -25.9420  -30.7370   21.3290 C   0  0  0  0  0  2  0  0  0  0  0  0
  -26.0150  -29.3590   20.6750 C   0  0  0  0  0  0  0  0  0  0  0  0
  -27.1980  -28.5600   20.6560 C   0  0  0  0  0  3  0  0  0  0  0  0
  -26.0020  -26.8090   19.4830 C   0  0  0  0  0  3  0  0  0  0  0  0
  -24.8390  -27.6060   19.4790 C   0  0  0  0  0  3  0  0  0  0  0  0
  -23.6070  -29.7510   20.1490 C   0  0  0  0  0  2  0  0  0  0  0  0
  -24.6770  -31.0090   22.0690 N   0  0  0  0  0  0  0  0  0  0  0  0
  -23.5450  -32.0880   23.7170 O   0  0  0  0  0  0  0  0  0  0  0  0
  -22.7480  -29.4040   22.4960 C   0  0  0  0  0  0  0  0  0  0  0  0
  -21.4180  -29.2390   22.3870 N   0  0  0  0  0  0  0  0  0  0  0  0
  -23.4320  -28.7670   23.3010 O   0  0  0  0  0  0  0  0  0  0  0  0
  -20.9240  -29.8060   21.7110 H   0  0  0  0  0  0  0  0  0  0  0  0
  -18.0390  -28.0630   22.9210 C   0  0  0  0  0  0  0  0  0  0  0  0
  -20.6020  -28.3000   23.1590 C   0  0  0  0  0  3  0  0  0  0  0  0
  -20.6860  -26.8730   22.5680 C   0  0  0  0  0  2  0  0  0  0  0  0
  -19.5680  -26.5700   21.5660 C   0  0  0  0  0  2  0  0  0  0  0  0
  -18.1950  -26.7190   22.2300 C   0  0  0  0  0  2  0  0  0  0  0  0
  -19.1690  -28.8120   23.3430 C   0  0  0  0  0  0  0  0  0  0  0  0
  -18.9670  -30.0710   23.9510 C   0  0  0  0  0  3  0  0  0  0  0  0
  -17.6680  -30.5800   24.1390 C   0  0  0  0  0  3  0  0  0  0  0  0
  -16.5530  -29.8260   23.7330 C   0  0  0  0  0  3  0  0  0  0  0  0
  -16.7380  -28.5700   23.1290 C   0  0  0  0  0  3  0  0  0  0  0  0
  -25.9120  -32.4400   23.7900 C   0  0  0  0  0  3  0  0  0  0  0  0
  -25.5990  -33.8310   24.1530 N   0  0  0  0  0  0  0  0  0  0  0  0
  -25.9110  -34.9000   23.4090 C   0  0  0  0  0  0  0  0  0  0  0  0
  -26.5580  -34.8200   22.3620 O   0  0  0  0  0  0  0  0  0  0  0  0
  -25.0220  -33.9650   24.9700 H   0  0  0  0  0  0  0  0  0  0  0  0
  -24.1600  -36.6850   23.1380 C   0  0  0  0  0  1  0  0  0  0  0  0
  -25.4270  -36.2770   23.9050 C   0  0  0  0  0  3  0  0  0  0  0  0
  -27.5780  -37.1640   24.6860 C   0  0  0  0  0  1  0  0  0  0  0  0
  -26.4480  -37.3400   23.7800 N   0  0  0  0  0  0  0  0  0  0  0  0
  -26.0410  -38.2540   23.9550 H   0  0  0  0  0  0  0  0  0  0  0  0
  -26.4490  -31.6460   25.0440 C   0  0  1  0  0  0  0  0  0  0  0  0
  -25.3740  -31.3850   26.1240 C   0  0  0  0  0  1  0  0  0  0  0  0
  -27.0290  -30.2800   24.6170 C   0  0  0  0  0  1  0  0  0  0  0  0
  -27.6090  -32.4310   25.7020 C   0  0  0  0  0  1  0  0  0  0  0  0
  1  2  2  0
  1  3  1  0
  2  6  1  0
  3  4  2  0
  4  9  1  0
  4  5  1  0
  5  8  1  0
  6  5  2  0
  8  7  1  0
 10  9  1  0
 10 13  1  0
 11 10  1  0
 12 10  1  0
 15 14  1  0
 15 13  1  0
 15 18  1  0
 18 17  1  1
 18 16  1  0
 19 18  1  0
 20 25  1  0
 21 22  1  0
 21 20  1  0
 23 22  1  0
 23 30  1  0
 23 24  1  0
 25 19  1  0
 25 24  1  0
 26 19  2  0
 27 28  2  0
 28 47  1  0
 29 28  1  0
 29 32  1  0
 30 31  1  0
 30 27  1  0
 31 29  2  0
 32 33  1  0
 33 34  2  0
 35 38  1  0
 35 34  1  0
 36 35  2  0
 37 36  1  0
 37 32  2  0
 38 39  1  0
 39 40  1  0
 40 41  2  0
 42 41  1  0
 42 46  1  0
 43 42  2  0
 44 39  2  0
 44 43  1  0
 45 44  1  0
 47 48  1  0
 48 51  1  0
 48 50  1  0
 49 47  2  0
 52 27  1  0
 52 53  1  0
 54 52  1  0
 55  3  1  0
 55 56  1  0
 57 68  2  0
 58 56  1  0
 58 63  1  0
 59 67  1  0
 59 69  1  0
 60 66  1  0
 60 62  1  0
 61 67  1  0
 62 61  1  0
 63 62  2  0
 64 58  2  0
 65 64  1  0
 65 60  2  0
 66 59  1  0
 67 57  1  0
 69 71  2  0
 70 69  1  0
 72 70  1  0
 73 82  2  0
 73 78  1  0
 74 70  1  0
 74 78  1  0
 75 74  1  0
 76 77  1  0
 76 75  1  0
 77 73  1  0
 78 79  2  0
 79 80  1  0
 81 80  2  0
 82 81  1  0
 83 57  1  0
 83 84  1  0
 83 93  1  0
 84 87  1  0
 85 89  1  0
 85 84  1  0
 86 85  2  0
 89 88  1  0
 91 89  1  0
 91 92  1  0
 91 90  1  0
 93 96  1  1
 93 94  1  0
 95 93  1  0
M  ISO  4  18 100  19 100  55 101  56 101
M  END
>  <TORSDO>  (93) 
F 23

>  <SCORE>  (93) 
-12.120

>  <name>  (93) 
94

>  <ligand_id>  (93) 
94

>  <original_smiles>  (93) 
[H]c1nc(C([H])([H])C([H])([H])[H])c(C([H])([H])[N+]([H])([H])C([H])([H])C([H])(C([H])([H])[H])C(C(=O)N2C([H])([H])C([H])([H])C([H])([H])C([H])(n3nc(-c4c([H])c([H])c(Oc5c([H])c([H])c(F)c([H])c5F)c([H])c4[H])c(C(=O)N([H])[H])c3N([H])[H])C2([H])[H])(C([H])([H])[H])C([H])([H])[H])c(C([H])([H])Oc2c([H])c([H])c3c(c2[H])C([H])([H])N(C(=O)C([H])(N([H])C(=O)C([H])(N([H])C([H])([H])[H])C([H])([H])[H])C(C([H])([H])[H])(C([H])([H])[H])C([H])([H])[H])C([H])(C(=O)N([H])C2([H])c4c([H])c([H])c([H])c([H])c4C([H])([H])C([H])([H])C2([H])[H])C3([H])[H])c1[H]

>  <smiles>  (93) 
[H]c1nc(C([H])([H])C([H])([H])[H])c(C([H])([H])[N+]([H])([H])C([H])([H])C([H])(C([H])([H])[H])C(C(=O)N2C([H])([H])C([H])([H])C([H])([H])C([H])(n3nc(-c4c([H])c([H])c(Oc5c([H])c([H])c(F)c([H])c5F)c([H])c4[H])c(C(=O)N([H])[H])c3N([H])[H])C2([H])[H])(C([H])([H])[H])C([H])([H])[H])c(C([H])([H])Oc2c([H])c([H])c3c(c2[H])C([H])([H])N(C(=O)C([H])(N([H])C(=O)C([H])(N([H])C([H])([H])[H])C([H])([H])[H])C(C([H])([H])[H])(C([H])([H])[H])C([H])([H])[H])C([H])(C(=O)N([H])C2([H])c4c([H])c([H])c([H])c([H])c4C([H])([H])C([H])([H])C2([H])[H])C3([H])[H])c1[H]

$$$$
95:0:0
     RDKit          3D

 91 99  0  0  1  0  0  0  0  0999 V2000
  -28.8350  -22.7790   19.8430 C   0  0  0  0  0  0  0  0  0  0  0  0
  -29.3050  -21.9740   18.7620 C   0  0  0  0  0  0  0  0  0  0  0  0
  -29.0610  -21.9610   20.9360 C   0  0  0  0  0  0  0  0  0  0  0  0
  -29.3130  -22.3210   17.3010 C   0  0  0  0  0  1  0  0  0  0  0  0
  -28.8200  -22.2080   22.3900 C   0  0  0  0  0  1  0  0  0  0  0  0
  -29.7600  -20.7890   19.1420 N   0  0  0  0  0  0  0  0  0  0  0  0
  -29.5850  -20.7400   20.4780 N   0  0  0  0  0  0  0  0  0  0  0  0
  -28.1980  -24.1790   19.6440 C   0  0  0  0  0  2  0  0  0  0  0  0
  -28.4320  -25.3090   20.6930 C   0  0  0  0  0  2  0  0  0  0  0  0
  -28.4320  -26.6640   20.1590 O   0  0  0  0  0  0  0  0  0  0  0  0
  -24.6220  -31.8750   23.2380 C   0  0  0  0  0  0  0  0  0  0  0  0
  -27.2580  -27.3990   20.1740 C   0  0  0  0  0  0  0  0  0  0  0  0
  -23.4150  -30.4790   21.5900 C   0  0  0  0  0  3  0  0  0  0  0  0
  -24.8680  -28.9350   20.1690 C   0  0  0  0  0  0  0  0  0  0  0  0
  -25.9430  -30.8280   21.3970 C   0  0  0  0  0  2  0  0  0  0  0  0
  -26.0290  -29.4540   20.7560 C   0  0  0  0  0  0  0  0  0  0  0  0
  -27.2250  -28.6950   20.7480 C   0  0  0  0  0  3  0  0  0  0  0  0
  -26.0780  -26.9020   19.5790 C   0  0  0  0  0  3  0  0  0  0  0  0
  -24.8920  -27.6610   19.5700 C   0  0  0  0  0  3  0  0  0  0  0  0
  -23.6270  -29.8000   20.2100 C   0  0  0  0  0  2  0  0  0  0  0  0
  -24.6790  -31.0770   22.1330 N   0  0  0  0  0  0  0  0  0  0  0  0
  -23.5410  -32.1490   23.7780 O   0  0  0  0  0  0  0  0  0  0  0  0
  -22.7590  -29.4590   22.5490 C   0  0  0  0  0  0  0  0  0  0  0  0
  -21.4340  -29.2750   22.4180 N   0  0  0  0  0  0  0  0  0  0  0  0
  -23.4380  -28.8350   23.3680 O   0  0  0  0  0  0  0  0  0  0  0  0
  -20.9460  -29.8310   21.7290 H   0  0  0  0  0  0  0  0  0  0  0  0
  -18.0610  -28.0670   22.8920 C   0  0  0  0  0  0  0  0  0  0  0  0
  -20.6160  -28.3360   23.1830 C   0  0  0  0  0  3  0  0  0  0  0  0
  -20.7290  -26.9040   22.6100 C   0  0  0  0  0  2  0  0  0  0  0  0
  -19.6370  -26.5760   21.5880 C   0  0  0  0  0  2  0  0  0  0  0  0
  -18.2500  -26.7160   22.2210 C   0  0  0  0  0  2  0  0  0  0  0  0
  -19.1740  -28.8350   23.3300 C   0  0  0  0  0  0  0  0  0  0  0  0
  -18.9470  -30.0980   23.9170 C   0  0  0  0  0  3  0  0  0  0  0  0
  -17.6390  -30.5940   24.0710 C   0  0  0  0  0  3  0  0  0  0  0  0
  -16.5400  -29.8250   23.6490 C   0  0  0  0  0  3  0  0  0  0  0  0
  -16.7530  -28.5630   23.0670 C   0  0  0  0  0  3  0  0  0  0  0  0
  -25.9090  -32.5030   23.8610 C   0  0  0  0  0  3  0  0  0  0  0  0
  -25.6030  -33.9020   24.1880 N   0  0  0  0  0  0  0  0  0  0  0  0
  -25.9380  -34.9530   23.4270 C   0  0  0  0  0  0  0  0  0  0  0  0
  -26.6050  -34.8470   22.3950 O   0  0  0  0  0  0  0  0  0  0  0  0
  -25.0100  -34.0600   24.9900 H   0  0  0  0  0  0  0  0  0  0  0  0
  -24.2120  -36.7490   23.0730 C   0  0  0  0  0  1  0  0  0  0  0  0
  -25.4540  -36.3440   23.8830 C   0  0  0  0  0  3  0  0  0  0  0  0
  -27.5910  -37.2260   24.7080 C   0  0  0  0  0  1  0  0  0  0  0  0
  -26.4890  -37.3950   23.7640 N   0  0  0  0  0  0  0  0  0  0  0  0
  -26.0840  -38.3150   23.9110 H   0  0  0  0  0  0  0  0  0  0  0  0
  -26.4230  -31.7300   25.1370 C   0  0  1  0  0  0  0  0  0  0  0  0
  -25.3280  -31.4960   26.2040 C   0  0  0  0  0  1  0  0  0  0  0  0
  -26.9990  -30.3520   24.7430 C   0  0  0  0  0  1  0  0  0  0  0  0
  -27.5770  -32.5200   25.7980 C   0  0  0  0  0  1  0  0  0  0  0  0
  -30.0340  -19.5390   21.2290 C   0  0  0  0  0  2  0  0  0  0  0  0
  -29.9720  -18.1480   20.4900 C   0  0  0  0  0  2  0  0  0  0  0  0
  -30.4760  -16.9330   21.3530 C   0  0  0  0  0  2  0  0  0  0  0  0
  -30.7170  -14.5660   20.3680 C   0  0  0  0  0  0  0  0  0  0  0  0
  -30.4260  -12.3990   19.1940 C   0  0  0  0  0  2  0  0  0  0  0  0
  -29.4630  -12.5610   17.9980 C   0  0  0  0  0  2  0  0  0  0  0  0
  -27.9940  -12.4280   18.4450 C   0  0  0  0  0  2  0  0  0  0  0  0
  -27.6680  -13.2730   19.7040 C   0  0  0  0  0  3  0  0  0  0  0  0
  -28.7350  -13.0540   20.8010 C   0  0  0  0  0  2  0  0  0  0  0  0
  -30.0440  -13.3850   20.2170 N   0  0  0  0  0  0  0  0  0  0  0  0
  -31.8510  -14.7420   19.9200 O   0  0  0  0  0  0  0  0  0  0  0  0
  -30.0150  -15.5770   20.9430 N   0  0  0  0  0  0  0  0  0  0  0  0
  -29.0800  -15.3340   21.2310 H   0  0  0  0  0  0  0  0  0  0  0  0
  -25.2800  -13.8950   20.4240 C   0  0  0  0  0  0  0  0  0  0  0  0
  -24.2100  -13.1320   20.8060 C   0  0  0  0  0  0  0  0  0  0  0  0
  -24.6640  -11.7780   20.7860 C   0  0  0  0  0  0  0  0  0  0  0  0
  -26.3190  -13.0060   20.1970 N   0  0  0  0  0  0  0  0  0  0  0  0
  -25.9520  -11.7290   20.4710 N   0  0  0  0  0  0  0  0  0  0  0  0
  -23.9330  -10.5200   20.9890 C   0  0  0  0  0  0  0  0  0  0  0  0
  -24.3700   -9.5550   21.9230 C   0  0  0  0  0  3  0  0  0  0  0  0
  -23.6390   -8.3630   22.1150 C   0  0  0  0  0  3  0  0  0  0  0  0
  -22.4560   -8.1270   21.3720 C   0  0  0  0  0  0  0  0  0  0  0  0
  -22.0380   -9.0820   20.4300 C   0  0  0  0  0  3  0  0  0  0  0  0
  -22.7700  -10.2670   20.2360 C   0  0  0  0  0  3  0  0  0  0  0  0
  -21.6970   -6.9880   21.4730 O   0  0  0  0  0  0  0  0  0  0  0  0
  -21.6620   -6.2480   22.6290 C   0  0  0  0  0  0  0  0  0  0  0  0
  -21.2590   -6.8080   23.8610 C   0  0  0  0  0  3  0  0  0  0  0  0
  -21.1680   -5.9920   25.0070 C   0  0  0  0  0  3  0  0  0  0  0  0
  -21.4720   -4.6190   24.9220 C   0  0  0  0  0  0  0  0  0  0  0  0
  -21.8710   -4.0630   23.6950 C   0  0  0  0  0  3  0  0  0  0  0  0
  -21.9620   -4.8740   22.5520 C   0  0  0  0  0  0  0  0  0  0  0  0
  -22.3240   -4.3250   21.3670 F   0  0  0  0  0  0  0  0  0  0  0  0
  -21.3790   -3.8370   26.0230 F   0  0  0  0  0  0  0  0  0  0  0  0
  -22.8160  -13.6200   21.0810 C   0  0  0  0  0  0  0  0  0  0  0  0
  -22.0900  -12.9350   21.9570 N   0  0  0  0  0  0  0  0  0  0  0  0
  -22.3820  -14.6420   20.5530 O   0  0  0  0  0  0  0  0  0  0  0  0
  -22.4560  -12.1090   22.4080 H   0  0  0  0  0  0  0  0  0  0  0  0
  -21.1530  -13.2430   22.1820 H   0  0  0  0  0  0  0  0  0  0  0  0
  -25.4470  -15.2640   20.2340 N   0  0  0  0  0  0  0  0  0  0  0  0
  -24.6840  -15.9210   20.3570 H   0  0  0  0  0  0  0  0  0  0  0  0
  -26.2880  -15.6970   19.8760 H   0  0  0  0  0  0  0  0  0  0  0  0
  1  3  2  0
  2  6  2  0
  2  1  1  0
  3  5  1  0
  4  2  1  0
  6  7  1  0
  7  3  1  0
  7 51  1  0
  8  1  1  0
  8  9  1  0
 10 12  1  0
 10  9  1  0
 11 22  2  0
 12 17  1  0
 13 21  1  0
 13 23  1  0
 14 20  1  0
 14 16  1  0
 15 21  1  0
 16 15  1  0
 17 16  2  0
 18 12  2  0
 19 18  1  0
 19 14  2  0
 20 13  1  0
 21 11  1  0
 23 25  2  0
 24 23  1  0
 26 24  1  0
 27 36  2  0
 27 32  1  0
 28 24  1  0
 28 32  1  0
 29 28  1  0
 30 31  1  0
 30 29  1  0
 31 27  1  0
 32 33  2  0
 33 34  1  0
 35 34  2  0
 36 35  1  0
 37 11  1  0
 37 38  1  0
 37 47  1  0
 38 41  1  0
 39 43  1  0
 39 38  1  0
 40 39  2  0
 43 42  1  0
 45 43  1  0
 45 46  1  0
 45 44  1  0
 47 50  1  1
 47 48  1  0
 49 47  1  0
 52 51  1  0
 52 53  1  0
 54 62  1  0
 55 60  1  0
 56 57  1  0
 56 55  1  0
 58 57  1  0
 58 67  1  0
 58 59  1  0
 60 54  1  0
 60 59  1  0
 61 54  2  0
 62 63  1  0
 62 53  1  0
 64 65  2  0
 65 84  1  0
 66 65  1  0
 66 69  1  0
 67 64  1  0
 67 68  1  0
 68 66  2  0
 69 70  1  0
 70 71  2  0
 72 75  1  0
 72 71  1  0
 73 72  2  0
 74 73  1  0
 74 69  2  0
 75 76  1  0
 76 77  1  0
 77 78  2  0
 79 78  1  0
 79 83  1  0
 80 79  2  0
 81 76  2  0
 81 80  1  0
 82 81  1  0
 84 85  1  0
 85 88  1  0
 85 87  1  0
 86 84  2  0
 89 90  1  0
 89 64  1  0
 91 89  1  0
M  ISO  4   9 101  10 101  54 100  62 100
M  END
>  <TORSDO>  (94) 
F 21

>  <SCORE>  (94) 
-13.503

>  <name>  (94) 
95

>  <ligand_id>  (94) 
95

>  <original_smiles>  (94) 
[H]c1c([H])c([H])c2c(c1[H])C([H])([H])C([H])([H])C([H])([H])C2([H])N([H])C(=O)C1([H])N(C(=O)C([H])(N([H])C(=O)C([H])(N([H])C([H])([H])[H])C([H])([H])[H])C(C([H])([H])[H])(C([H])([H])[H])C([H])([H])[H])C([H])([H])c2c([H])c(OC([H])([H])C([H])([H])c3c(C([H])([H])[H])nn(C([H])([H])C([H])([H])C([H])([H])N([H])C(=O)N4C([H])([H])C([H])([H])C([H])([H])C([H])(n5nc(-c6c([H])c([H])c(Oc7c([H])c([H])c(F)c([H])c7F)c([H])c6[H])c(C(=O)N([H])[H])c5N([H])[H])C4([H])[H])c3C([H])([H])[H])c([H])c([H])c2C1([H])[H]

>  <smiles>  (94) 
[H]c1c([H])c([H])c2c(c1[H])C([H])([H])C([H])([H])C([H])([H])C2([H])N([H])C(=O)C1([H])N(C(=O)C([H])(N([H])C(=O)C([H])(N([H])C([H])([H])[H])C([H])([H])[H])C(C([H])([H])[H])(C([H])([H])[H])C([H])([H])[H])C([H])([H])c2c([H])c(OC([H])([H])C([H])([H])c3c(C([H])([H])[H])nn(C([H])([H])C([H])([H])C([H])([H])N([H])C(=O)N4C([H])([H])C([H])([H])C([H])([H])C([H])(n5nc(-c6c([H])c([H])c(Oc7c([H])c([H])c(F)c([H])c7F)c([H])c6[H])c(C(=O)N([H])[H])c5N([H])[H])C4([H])[H])c3C([H])([H])[H])c([H])c([H])c2C1([H])[H]

$$$$
96:0:0
     RDKit          3D

 95103  0  0  1  0  0  0  0  0999 V2000
  -29.8900  -18.6410   20.7540 C   0  0  0  0  0  3  0  0  0  0  0  0
  -30.7820  -17.9230   21.5250 C   0  0  0  0  0  0  0  0  0  0  0  0
  -30.8900  -20.0950   22.1170 C   0  0  0  0  0  3  0  0  0  0  0  0
  -30.0300  -19.9840   21.0900 N   0  0  0  0  0  0  0  0  0  0  0  0
  -31.3320  -18.8540   22.3630 N   0  0  0  0  0  0  0  0  0  0  0  0
  -32.0470  -18.6570   23.0440 H   0  0  0  0  0  0  0  0  0  0  0  0
  -32.7860  -21.7520   22.2010 C   0  0  0  0  0  1  0  0  0  0  0  0
  -31.5910  -21.0820   24.3400 C   0  0  0  0  0  1  0  0  0  0  0  0
  -31.4530  -21.3080   22.8200 C   0  0  0  0  0  3  0  0  0  0  0  0
  -31.3330  -16.5040   21.5250 C   0  0  0  0  0  2  0  0  0  0  0  0
  -30.8490  -14.5380   20.0890 C   0  0  0  0  0  0  0  0  0  0  0  0
  -30.3810  -12.4210   18.8990 C   0  0  0  0  0  2  0  0  0  0  0  0
  -29.3710  -12.6490   17.7590 C   0  0  0  0  0  2  0  0  0  0  0  0
  -27.9350  -12.4890   18.2910 C   0  0  0  0  0  2  0  0  0  0  0  0
  -27.6820  -13.3280   19.5730 C   0  0  0  0  0  3  0  0  0  0  0  0
  -28.8130  -13.1240   20.6090 C   0  0  0  0  0  2  0  0  0  0  0  0
  -30.1030  -13.4000   19.9590 N   0  0  0  0  0  0  0  0  0  0  0  0
  -31.8480  -14.7420   19.3960 O   0  0  0  0  0  0  0  0  0  0  0  0
  -30.4730  -15.4160   21.0310 N   0  0  0  0  0  0  0  0  0  0  0  0
  -29.6640  -15.1890   21.5920 H   0  0  0  0  0  0  0  0  0  0  0  0
  -25.3510  -13.9420   20.4660 C   0  0  0  0  0  0  0  0  0  0  0  0
  -24.2980  -13.1760   20.8820 C   0  0  0  0  0  0  0  0  0  0  0  0
  -24.7310  -11.8190   20.7730 C   0  0  0  0  0  0  0  0  0  0  0  0
  -26.3610  -13.0570   20.1370 N   0  0  0  0  0  0  0  0  0  0  0  0
  -25.9950  -11.7710   20.3760 N   0  0  0  0  0  0  0  0  0  0  0  0
  -24.0020  -10.5610   20.9760 C   0  0  0  0  0  0  0  0  0  0  0  0
  -24.4530   -9.5790   21.8850 C   0  0  0  0  0  3  0  0  0  0  0  0
  -23.7210   -8.3870   22.0720 C   0  0  0  0  0  3  0  0  0  0  0  0
  -22.5240   -8.1670   21.3530 C   0  0  0  0  0  0  0  0  0  0  0  0
  -22.0930   -9.1360   20.4300 C   0  0  0  0  0  3  0  0  0  0  0  0
  -22.8250  -10.3220   20.2410 C   0  0  0  0  0  3  0  0  0  0  0  0
  -21.7610   -7.0290   21.4520 O   0  0  0  0  0  0  0  0  0  0  0  0
  -21.7020   -6.3000   22.6100 C   0  0  0  0  0  0  0  0  0  0  0  0
  -21.2280   -6.8580   23.8170 C   0  0  0  0  0  3  0  0  0  0  0  0
  -21.1190   -6.0560   24.9680 C   0  0  0  0  0  3  0  0  0  0  0  0
  -21.4720   -4.6950   24.9150 C   0  0  0  0  0  0  0  0  0  0  0  0
  -21.9360   -4.1330   23.7130 C   0  0  0  0  0  3  0  0  0  0  0  0
  -22.0470   -4.9330   22.5620 C   0  0  0  0  0  0  0  0  0  0  0  0
  -22.4770   -4.3830   21.4010 F   0  0  0  0  0  0  0  0  0  0  0  0
  -21.3580   -3.9180   26.0200 F   0  0  0  0  0  0  0  0  0  0  0  0
  -22.9330  -13.6640   21.2680 C   0  0  0  0  0  0  0  0  0  0  0  0
  -22.2550  -12.9500   22.1630 N   0  0  0  0  0  0  0  0  0  0  0  0
  -22.4770  -14.7140   20.8160 O   0  0  0  0  0  0  0  0  0  0  0  0
  -22.6400  -12.1010   22.5530 H   0  0  0  0  0  0  0  0  0  0  0  0
  -21.3410  -13.2590   22.4630 H   0  0  0  0  0  0  0  0  0  0  0  0
  -25.5230  -15.3150   20.3240 N   0  0  0  0  0  0  0  0  0  0  0  0
  -24.7730  -15.9740   20.5060 H   0  0  0  0  0  0  0  0  0  0  0  0
  -26.3630  -15.7560   19.9720 H   0  0  0  0  0  0  0  0  0  0  0  0
  -29.4890  -21.1570   20.3530 C   0  0  0  0  0  2  0  0  0  0  0  0
  -28.5100  -22.0900   21.1190 C   0  0  0  0  0  2  0  0  0  0  0  0
  -28.6530  -23.5990   20.7420 C   0  0  0  0  0  2  0  0  0  0  0  0
  -26.2360  -24.1600   20.3520 C   0  0  0  0  0  1  0  0  0  0  0  0
  -27.6380  -24.1050   19.6990 C   0  0  0  0  0  3  0  0  0  0  0  0
  -28.0990  -25.3950   18.9200 C   0  0  0  0  0  2  0  0  0  0  0  0
  -28.1230  -26.6680   19.6110 O   0  0  0  0  0  0  0  0  0  0  0  0
  -24.4920  -31.7350   23.1050 C   0  0  0  0  0  0  0  0  0  0  0  0
  -26.9860  -27.4610   19.6410 C   0  0  0  0  0  0  0  0  0  0  0  0
  -23.2290  -30.4630   21.4080 C   0  0  0  0  0  3  0  0  0  0  0  0
  -24.6280  -29.0170   19.8470 C   0  0  0  0  0  0  0  0  0  0  0  0
  -25.7640  -30.7790   21.1920 C   0  0  0  0  0  2  0  0  0  0  0  0
  -25.8070  -29.4570   20.4580 C   0  0  0  0  0  0  0  0  0  0  0  0
  -26.9800  -28.6700   20.3870 C   0  0  0  0  0  3  0  0  0  0  0  0
  -25.8040  -27.1010   18.9560 C   0  0  0  0  0  3  0  0  0  0  0  0
  -24.6190  -27.8340   19.0990 C   0  0  0  0  0  3  0  0  0  0  0  0
  -23.4040  -29.8920   19.9790 C   0  0  0  0  0  2  0  0  0  0  0  0
  -24.5120  -31.0140   21.9550 N   0  0  0  0  0  0  0  0  0  0  0  0
  -23.4290  -31.9760   23.6920 O   0  0  0  0  0  0  0  0  0  0  0  0
  -22.5920  -29.3780   22.3110 C   0  0  0  0  0  0  0  0  0  0  0  0
  -21.2590  -29.2310   22.2230 N   0  0  0  0  0  0  0  0  0  0  0  0
  -23.2950  -28.6780   23.0480 O   0  0  0  0  0  0  0  0  0  0  0  0
  -20.7540  -29.8570   21.6140 H   0  0  0  0  0  0  0  0  0  0  0  0
  -17.8800  -28.0710   22.7540 C   0  0  0  0  0  0  0  0  0  0  0  0
  -20.4490  -28.2510   22.9480 C   0  0  0  0  0  3  0  0  0  0  0  0
  -20.4970  -26.8620   22.2680 C   0  0  0  0  0  2  0  0  0  0  0  0
  -19.3570  -26.6490   21.2680 C   0  0  0  0  0  2  0  0  0  0  0  0
  -17.9990  -26.7760   21.9670 C   0  0  0  0  0  2  0  0  0  0  0  0
  -19.0300  -28.7710   23.1990 C   0  0  0  0  0  0  0  0  0  0  0  0
  -18.8750  -29.9860   23.8960 C   0  0  0  0  0  3  0  0  0  0  0  0
  -17.5940  -30.5120   24.1450 C   0  0  0  0  0  3  0  0  0  0  0  0
  -16.4520  -29.8060   23.7210 C   0  0  0  0  0  3  0  0  0  0  0  0
  -16.5940  -28.5820   23.0370 C   0  0  0  0  0  3  0  0  0  0  0  0
  -25.8000  -32.3120   23.7240 C   0  0  0  0  0  3  0  0  0  0  0  0
  -25.5260  -33.7070   24.0920 N   0  0  0  0  0  0  0  0  0  0  0  0
  -25.8760  -34.7740   23.3580 C   0  0  0  0  0  0  0  0  0  0  0  0
  -26.5270  -34.6860   22.3120 O   0  0  0  0  0  0  0  0  0  0  0  0
  -24.9650  -33.8560   24.9210 H   0  0  0  0  0  0  0  0  0  0  0  0
  -24.1960  -36.6190   23.0930 C   0  0  0  0  0  1  0  0  0  0  0  0
  -25.4370  -36.1590   23.8680 C   0  0  0  0  0  3  0  0  0  0  0  0
  -27.5990  -36.9760   24.6990 C   0  0  0  0  0  1  0  0  0  0  0  0
  -26.4930  -37.1890   23.7680 N   0  0  0  0  0  0  0  0  0  0  0  0
  -26.1060  -38.1120   23.9470 H   0  0  0  0  0  0  0  0  0  0  0  0
  -26.3220  -31.4890   24.9670 C   0  0  1  0  0  0  0  0  0  0  0  0
  -25.2480  -31.2430   26.0490 C   0  0  0  0  0  1  0  0  0  0  0  0
  -26.8720  -30.1140   24.5190 C   0  0  0  0  0  1  0  0  0  0  0  0
  -27.4890  -32.2470   25.6380 C   0  0  0  0  0  1  0  0  0  0  0  0
  1  4  1  0
  1  2  2  0
  2 10  1  0
  2  5  1  0
  3  5  1  0
  3  9  1  0
  4  3  1  0
  5  6  1  0
  7  9  1  0
  9  8  1  0
 11 19  1  0
 12 17  1  0
 13 14  1  0
 13 12  1  0
 15 14  1  0
 15 24  1  0
 15 16  1  0
 17 11  1  0
 17 16  1  0
 18 11  2  0
 19 10  1  0
 19 20  1  0
 21 22  2  0
 22 41  1  0
 23 22  1  0
 23 26  1  0
 24 25  1  0
 24 21  1  0
 25 23  2  0
 26 27  1  0
 27 28  2  0
 29 32  1  0
 29 28  1  0
 30 29  2  0
 31 30  1  0
 31 26  2  0
 32 33  1  0
 33 34  1  0
 34 35  2  0
 36 35  1  0
 36 40  1  0
 37 36  2  0
 38 33  2  0
 38 37  1  0
 39 38  1  0
 41 42  1  0
 42 45  1  0
 42 44  1  0
 43 41  2  0
 46 21  1  0
 46 47  1  0
 48 46  1  0
 49  4  1  0
 49 50  1  0
 51 50  1  0
 53 52  1  0
 53 51  1  0
 54 55  1  0
 54 53  1  0
 55 57  1  0
 56 67  2  0
 57 62  1  0
 58 66  1  0
 58 68  1  0
 59 65  1  0
 59 61  1  0
 60 66  1  0
 61 60  1  0
 62 61  2  0
 63 64  1  0
 63 57  2  0
 64 59  2  0
 65 58  1  0
 66 56  1  0
 68 70  2  0
 69 68  1  0
 71 69  1  0
 72 81  2  0
 72 77  1  0
 73 69  1  0
 73 77  1  0
 74 73  1  0
 75 76  1  0
 75 74  1  0
 76 72  1  0
 77 78  2  0
 78 79  1  0
 80 79  2  0
 81 80  1  0
 82 56  1  0
 82 83  1  0
 82 92  1  0
 83 86  1  0
 84 88  1  0
 84 83  1  0
 85 84  2  0
 88 87  1  0
 90 88  1  0
 90 91  1  0
 90 89  1  0
 92 95  1  1
 92 93  1  0
 94 92  1  0
M  ISO  4  11 100  19 100  54 101  55 101
M  END
>  <TORSDO>  (95) 
F 23

>  <SCORE>  (95) 
-12.523

>  <name>  (95) 
96

>  <ligand_id>  (95) 
96

>  <original_smiles>  (95) 
[H]c1c([H])c([H])c2c(c1[H])C([H])([H])C([H])([H])C([H])([H])C2([H])N([H])C(=O)C1([H])N(C(=O)C([H])(N([H])C(=O)C([H])(N([H])C([H])([H])[H])C([H])([H])[H])C(C([H])([H])[H])(C([H])([H])[H])C([H])([H])[H])C([H])([H])c2c([H])c(OC([H])([H])C([H])(C([H])([H])[H])C([H])([H])C([H])([H])C([H])([H])n3c([H])c(C([H])([H])N([H])C(=O)N4C([H])([H])C([H])([H])C([H])([H])C([H])(n5nc(-c6c([H])c([H])c(Oc7c([H])c([H])c(F)c([H])c7F)c([H])c6[H])c(C(=O)N([H])[H])c5N([H])[H])C4([H])[H])[n+]([H])c3C([H])(C([H])([H])[H])C([H])([H])[H])c([H])c([H])c2C1([H])[H]

>  <smiles>  (95) 
[H]c1c([H])c([H])c2c(c1[H])C([H])([H])C([H])([H])C([H])([H])C2([H])N([H])C(=O)C1([H])N(C(=O)C([H])(N([H])C(=O)C([H])(N([H])C([H])([H])[H])C([H])([H])[H])C(C([H])([H])[H])(C([H])([H])[H])C([H])([H])[H])C([H])([H])c2c([H])c(OC([H])([H])C([H])(C([H])([H])[H])C([H])([H])C([H])([H])C([H])([H])n3c([H])c(C([H])([H])N([H])C(=O)N4C([H])([H])C([H])([H])C([H])([H])C([H])(n5nc(-c6c([H])c([H])c(Oc7c([H])c([H])c(F)c([H])c7F)c([H])c6[H])c(C(=O)N([H])[H])c5N([H])[H])C4([H])[H])[n+]([H])c3C([H])(C([H])([H])[H])C([H])([H])[H])c([H])c([H])c2C1([H])[H]

$$$$
97:0:0
     RDKit          3D

 89 97  0  0  1  0  0  0  0  0999 V2000
  -28.9820  -23.0030   20.2130 C   0  0  0  0  0  3  0  0  0  0  0  0
  -30.3930  -24.3440   21.9470 C   0  0  0  0  0  1  0  0  0  0  0  0
  -30.3840  -23.3930   20.7380 C   0  0  0  0  0  2  0  0  0  0  0  0
  -29.2300  -21.4690   19.3750 C   0  0  0  0  0  2  0  0  0  0  0  0
  -27.7320  -18.0540   21.2110 C   0  0  0  0  0  2  0  0  0  0  0  0
  -28.4430  -19.4510   21.1320 C   0  0  0  0  0  2  0  0  0  0  0  0
  -28.1870  -16.8690   20.2800 C   0  0  0  0  0  2  0  0  0  0  0  0
  -29.9810  -18.3210   19.3590 C   0  0  0  0  0  2  0  0  0  0  0  0
  -29.0710  -19.7470   19.7700 C   0  0  0  0  0  3  0  0  0  0  0  0
  -29.7070  -16.7330   20.0170 C   0  0  1  0  0  0  0  0  0  0  0  0
  -30.4540  -16.7450   21.3760 C   0  0  0  0  0  1  0  0  0  0  0  0
  -30.2410  -15.1770   19.4190 C   0  0  0  0  0  0  0  0  0  0  0  0
  -30.0580  -12.7790   18.4780 C   0  0  0  0  0  2  0  0  0  0  0  0
  -28.9610  -12.6710   17.3880 C   0  0  0  0  0  2  0  0  0  0  0  0
  -27.5750  -12.4220   18.0100 C   0  0  0  0  0  2  0  0  0  0  0  0
  -27.3260  -13.3180   19.2510 C   0  0  0  0  0  3  0  0  0  0  0  0
  -28.5360  -13.3270   20.2110 C   0  0  0  0  0  2  0  0  0  0  0  0
  -29.6760  -13.8710   19.4480 N   0  0  0  0  0  0  0  0  0  0  0  0
  -31.3530  -15.1770   18.8720 O   0  0  0  0  0  0  0  0  0  0  0  0
  -25.0890  -13.8620   20.3530 C   0  0  0  0  0  0  0  0  0  0  0  0
  -24.0760  -13.0760   20.8290 C   0  0  0  0  0  0  0  0  0  0  0  0
  -24.5060  -11.7240   20.6510 C   0  0  0  0  0  0  0  0  0  0  0  0
  -26.0710  -12.9900   19.9190 N   0  0  0  0  0  0  0  0  0  0  0  0
  -25.7390  -11.6950   20.1560 N   0  0  0  0  0  0  0  0  0  0  0  0
  -23.7870  -10.4620   20.8690 C   0  0  0  0  0  0  0  0  0  0  0  0
  -24.2910   -9.4620   21.7280 C   0  0  0  0  0  3  0  0  0  0  0  0
  -23.5680   -8.2670   21.9380 C   0  0  0  0  0  3  0  0  0  0  0  0
  -22.3270   -8.0640   21.2900 C   0  0  0  0  0  0  0  0  0  0  0  0
  -21.8440   -9.0530   20.4160 C   0  0  0  0  0  3  0  0  0  0  0  0
  -22.5650  -10.2390   20.2050 C   0  0  0  0  0  3  0  0  0  0  0  0
  -21.5680   -6.9250   21.4130 O   0  0  0  0  0  0  0  0  0  0  0  0
  -21.5670   -6.1840   22.5680 C   0  0  0  0  0  0  0  0  0  0  0  0
  -21.2070   -6.7460   23.8130 C   0  0  0  0  0  3  0  0  0  0  0  0
  -21.1520   -5.9310   24.9620 C   0  0  0  0  0  3  0  0  0  0  0  0
  -21.4470   -4.5580   24.8690 C   0  0  0  0  0  0  0  0  0  0  0  0
  -21.8020   -3.9970   23.6290 C   0  0  0  0  0  3  0  0  0  0  0  0
  -21.8600   -4.8080   22.4820 C   0  0  0  0  0  0  0  0  0  0  0  0
  -22.1810   -4.2580   21.2860 F   0  0  0  0  0  0  0  0  0  0  0  0
  -21.3870   -3.7740   25.9720 F   0  0  0  0  0  0  0  0  0  0  0  0
  -22.7420  -13.5520   21.3240 C   0  0  0  0  0  0  0  0  0  0  0  0
  -22.1400  -12.8230   22.2560 N   0  0  0  0  0  0  0  0  0  0  0  0
  -22.2480  -14.6060   20.9220 O   0  0  0  0  0  0  0  0  0  0  0  0
  -22.5590  -11.9710   22.6000 H   0  0  0  0  0  0  0  0  0  0  0  0
  -21.2500  -13.1170   22.6290 H   0  0  0  0  0  0  0  0  0  0  0  0
  -25.2450  -15.2370   20.2260 N   0  0  0  0  0  0  0  0  0  0  0  0
  -24.5190  -15.8950   20.4850 H   0  0  0  0  0  0  0  0  0  0  0  0
  -26.0520  -15.6780   19.8060 H   0  0  0  0  0  0  0  0  0  0  0  0
  -28.1960  -24.4780   19.6390 C   0  0  0  0  0  2  0  0  0  0  0  0
  -28.2370  -26.0220   20.1160 O   0  0  0  0  0  0  0  0  0  0  0  0
  -24.4500  -31.7460   23.0790 C   0  0  0  0  0  0  0  0  0  0  0  0
  -27.1660  -27.0300   20.0280 C   0  0  0  0  0  0  0  0  0  0  0  0
  -23.2970  -30.3190   21.4340 C   0  0  0  0  0  3  0  0  0  0  0  0
  -24.7940  -28.7750   20.0040 C   0  0  0  0  0  0  0  0  0  0  0  0
  -25.8490  -30.6300   21.2830 C   0  0  0  0  0  2  0  0  0  0  0  0
  -25.9630  -29.2330   20.6220 C   0  0  0  0  0  0  0  0  0  0  0  0
  -27.1420  -28.3770   20.6150 C   0  0  0  0  0  3  0  0  0  0  0  0
  -25.9650  -26.7040   19.3600 C   0  0  0  0  0  3  0  0  0  0  0  0
  -24.8120  -27.5280   19.3580 C   0  0  0  0  0  3  0  0  0  0  0  0
  -23.5430  -29.6470   20.0560 C   0  0  0  0  0  2  0  0  0  0  0  0
  -24.5520  -30.9230   21.9870 N   0  0  0  0  0  0  0  0  0  0  0  0
  -23.3540  -31.9980   23.6050 O   0  0  0  0  0  0  0  0  0  0  0  0
  -22.6370  -29.2980   22.3960 C   0  0  0  0  0  0  0  0  0  0  0  0
  -21.3150  -29.0870   22.2650 N   0  0  0  0  0  0  0  0  0  0  0  0
  -23.3210  -28.6940   23.2260 O   0  0  0  0  0  0  0  0  0  0  0  0
  -20.8180  -29.6240   21.5710 H   0  0  0  0  0  0  0  0  0  0  0  0
  -17.9700  -27.7710   22.7590 C   0  0  0  0  0  0  0  0  0  0  0  0
  -20.5210  -28.1230   23.0310 C   0  0  0  0  0  3  0  0  0  0  0  0
  -20.6710  -26.6950   22.4570 C   0  0  0  0  0  2  0  0  0  0  0  0
  -19.5850  -26.3370   21.4390 C   0  0  0  0  0  2  0  0  0  0  0  0
  -18.1970  -26.4320   22.0780 C   0  0  0  0  0  2  0  0  0  0  0  0
  -19.0620  -28.5730   23.1910 C   0  0  0  0  0  0  0  0  0  0  0  0
  -18.7950  -29.8230   23.7900 C   0  0  0  0  0  3  0  0  0  0  0  0
  -17.4710  -30.2750   23.9570 C   0  0  0  0  0  3  0  0  0  0  0  0
  -16.3970  -29.4710   23.5370 C   0  0  0  0  0  3  0  0  0  0  0  0
  -16.6470  -28.2210   22.9460 C   0  0  0  0  0  3  0  0  0  0  0  0
  -25.7030  -32.4210   23.7120 C   0  0  0  0  0  3  0  0  0  0  0  0
  -26.2160  -31.6810   25.0100 C   0  0  1  0  0  0  0  0  0  0  0  0
  -25.1140  -31.4340   26.0660 C   0  0  0  0  0  1  0  0  0  0  0  0
  -26.8350  -30.3110   24.6560 C   0  0  0  0  0  1  0  0  0  0  0  0
  -27.3380  -32.5110   25.6770 C   0  0  0  0  0  1  0  0  0  0  0  0
  -25.3540  -33.8170   24.0290 N   0  0  0  0  0  0  0  0  0  0  0  0
  -25.6600  -34.8760   23.2650 C   0  0  0  0  0  0  0  0  0  0  0  0
  -26.3290  -34.7790   22.2340 O   0  0  0  0  0  0  0  0  0  0  0  0
  -24.7590  -33.9610   24.8310 H   0  0  0  0  0  0  0  0  0  0  0  0
  -23.8920  -36.6300   22.9070 C   0  0  0  0  0  1  0  0  0  0  0  0
  -25.1440  -36.2580   23.7160 C   0  0  0  0  0  3  0  0  0  0  0  0
  -27.2620  -37.1990   24.5330 C   0  0  0  0  0  1  0  0  0  0  0  0
  -26.1540  -37.3330   23.5910 N   0  0  0  0  0  0  0  0  0  0  0  0
  -25.7280  -38.2460   23.7310 H   0  0  0  0  0  0  0  0  0  0  0  0
  1  4  1  0
  1  3  1  0
  3  2  1  0
  6  5  1  0
  7  5  1  0
  8  9  1  0
  8 10  1  0
  9  4  1  0
  9  6  1  0
 10  7  1  0
 10 11  1  1
 12 18  1  0
 12 10  1  0
 13 18  1  0
 14 15  1  0
 14 13  1  0
 16 15  1  0
 16 23  1  0
 16 17  1  0
 18 17  1  0
 19 12  2  0
 20 21  2  0
 21 40  1  0
 22 21  1  0
 22 25  1  0
 23 24  1  0
 23 20  1  0
 24 22  2  0
 25 26  1  0
 26 27  2  0
 28 31  1  0
 28 27  1  0
 29 28  2  0
 30 29  1  0
 30 25  2  0
 31 32  1  0
 32 33  1  0
 33 34  2  0
 35 34  1  0
 35 39  1  0
 36 35  2  0
 37 32  2  0
 37 36  1  0
 38 37  1  0
 40 41  1  0
 41 43  1  0
 41 44  1  0
 42 40  2  0
 45 20  1  0
 45 46  1  0
 47 45  1  0
 48 49  1  0
 48  1  1  0
 50 61  2  0
 51 49  1  0
 51 56  1  0
 52 60  1  0
 52 62  1  0
 53 59  1  0
 53 55  1  0
 54 60  1  0
 55 54  1  0
 56 55  2  0
 57 51  2  0
 58 57  1  0
 58 53  2  0
 59 52  1  0
 60 50  1  0
 62 64  2  0
 63 62  1  0
 65 63  1  0
 66 75  2  0
 66 71  1  0
 67 63  1  0
 67 71  1  0
 68 67  1  0
 69 70  1  0
 69 68  1  0
 70 66  1  0
 71 72  2  0
 72 73  1  0
 74 73  2  0
 75 74  1  0
 76 50  1  0
 76 81  1  0
 76 77  1  0
 77 80  1  1
 77 78  1  0
 79 77  1  0
 81 84  1  0
 82 86  1  0
 82 81  1  0
 83 82  2  0
 86 85  1  0
 88 86  1  0
 88 89  1  0
 88 87  1  0
M  ISO  4  10 100  12 100  48 101  49 101
M  END
>  <TORSDO>  (96) 
F 20

>  <SCORE>  (96) 
-12.712

>  <name>  (96) 
97

>  <ligand_id>  (96) 
97

>  <original_smiles>  (96) 
[H]c1c([H])c([H])c2c(c1[H])C([H])([H])C([H])([H])C([H])([H])C2([H])N([H])C(=O)C1([H])N(C(=O)C([H])(N([H])C(=O)C([H])(N([H])C([H])([H])[H])C([H])([H])[H])C(C([H])([H])[H])(C([H])([H])[H])C([H])([H])[H])C([H])([H])c2c([H])c(OC([H])([H])C([H])(C([H])([H])C([H])([H])[H])C([H])([H])C3([H])C([H])([H])C([H])([H])C([H])([H])C(C(=O)N4C([H])([H])C([H])([H])C([H])([H])C([H])(n5nc(-c6c([H])c([H])c(Oc7c([H])c([H])c(F)c([H])c7F)c([H])c6[H])c(C(=O)N([H])[H])c5N([H])[H])C4([H])[H])(C([H])([H])[H])C3([H])[H])c([H])c([H])c2C1([H])[H]

>  <smiles>  (96) 
[H]c1c([H])c([H])c2c(c1[H])C([H])([H])C([H])([H])C([H])([H])C2([H])N([H])C(=O)C1([H])N(C(=O)C([H])(N([H])C(=O)C([H])(N([H])C([H])([H])[H])C([H])([H])[H])C(C([H])([H])[H])(C([H])([H])[H])C([H])([H])[H])C([H])([H])c2c([H])c(OC([H])([H])C([H])(C([H])([H])C([H])([H])[H])C([H])([H])C3([H])C([H])([H])C([H])([H])C([H])([H])C(C(=O)N4C([H])([H])C([H])([H])C([H])([H])C([H])(n5nc(-c6c([H])c([H])c(Oc7c([H])c([H])c(F)c([H])c7F)c([H])c6[H])c(C(=O)N([H])[H])c5N([H])[H])C4([H])[H])(C([H])([H])[H])C3([H])[H])c([H])c([H])c2C1([H])[H]

$$$$
