0:0:0
     RDKit          3D

 93101  0  0  1  0  0  0  0  0999 V2000
  -29.4070  -21.1370   20.4540 C   0  0  0  0  0  2  0  0  0  0  0  0
  -27.4680  -20.1500   19.2110 C   0  0  0  0  0  3  0  0  0  0  0  0
  -28.4010  -17.6690   18.6730 C   0  0  0  0  0  3  0  0  0  0  0  0
  -28.7580  -19.8690   19.7260 C   0  0  0  0  0  0  0  0  0  0  0  0
  -29.2090  -18.4690   19.5130 C   0  0  0  0  0  0  0  0  0  0  0  0
  -26.7680  -19.2450   18.4080 C   0  0  0  0  0  0  0  0  0  0  0  0
  -25.4390  -19.6240   17.7920 C   0  0  0  0  0  1  0  0  0  0  0  0
  -27.2330  -18.0260   18.1190 N   0  0  0  0  0  0  0  0  0  0  0  0
  -30.4540  -17.6290   20.0380 C   0  0  0  0  0  2  0  0  0  0  0  0
  -30.9230  -14.9930   20.0670 C   0  0  0  0  0  0  0  0  0  0  0  0
  -30.7180  -12.7340   18.9710 C   0  0  0  0  0  2  0  0  0  0  0  0
  -29.7290  -12.8000   17.7820 C   0  0  0  0  0  2  0  0  0  0  0  0
  -28.2690  -12.6200   18.2490 C   0  0  0  0  0  2  0  0  0  0  0  0
  -27.9390  -13.4660   19.5060 C   0  0  0  0  0  3  0  0  0  0  0  0
  -29.0380  -13.2780   20.5720 C   0  0  0  0  0  2  0  0  0  0  0  0
  -30.3010  -13.7520   19.9730 N   0  0  0  0  0  0  0  0  0  0  0  0
  -32.0550  -15.1080   19.5790 O   0  0  0  0  0  0  0  0  0  0  0  0
  -29.3240  -16.1640   21.6180 C   0  0  0  0  0  1  0  0  0  0  0  0
  -30.2030  -16.1520   20.4410 N   0  0  0  0  0  0  0  0  0  0  0  0
  -25.5710  -14.0590   20.3090 C   0  0  0  0  0  0  0  0  0  0  0  0
  -24.5170  -13.2810   20.7060 C   0  0  0  0  0  0  0  0  0  0  0  0
  -24.9780  -11.9310   20.6410 C   0  0  0  0  0  0  0  0  0  0  0  0
  -26.6060  -13.1790   20.0290 N   0  0  0  0  0  0  0  0  0  0  0  0
  -26.2560  -11.8930   20.2890 N   0  0  0  0  0  0  0  0  0  0  0  0
  -24.2550  -10.6670   20.8360 C   0  0  0  0  0  0  0  0  0  0  0  0
  -24.6440   -9.7400   21.8280 C   0  0  0  0  0  3  0  0  0  0  0  0
  -23.9220   -8.5400   22.0070 C   0  0  0  0  0  3  0  0  0  0  0  0
  -22.7960   -8.2610   21.1970 C   0  0  0  0  0  0  0  0  0  0  0  0
  -22.4290   -9.1760   20.1950 C   0  0  0  0  0  3  0  0  0  0  0  0
  -23.1510  -10.3670   20.0140 C   0  0  0  0  0  3  0  0  0  0  0  0
  -22.0470   -7.1120   21.2870 O   0  0  0  0  0  0  0  0  0  0  0  0
  -21.8420   -6.4780   22.4860 C   0  0  0  0  0  0  0  0  0  0  0  0
  -21.2120   -7.1230   23.5740 C   0  0  0  0  0  3  0  0  0  0  0  0
  -20.9620   -6.4110   24.7640 C   0  0  0  0  0  3  0  0  0  0  0  0
  -21.3300   -5.0560   24.8660 C   0  0  0  0  0  0  0  0  0  0  0  0
  -21.9510   -4.4120   23.7820 C   0  0  0  0  0  3  0  0  0  0  0  0
  -22.2060   -5.1210   22.5950 C   0  0  0  0  0  0  0  0  0  0  0  0
  -22.7840   -4.4880   21.5460 F   0  0  0  0  0  0  0  0  0  0  0  0
  -21.0810   -4.3700   26.0060 F   0  0  0  0  0  0  0  0  0  0  0  0
  -23.1290  -13.7550   21.0280 C   0  0  0  0  0  0  0  0  0  0  0  0
  -22.4290  -13.0520   21.9090 N   0  0  0  0  0  0  0  0  0  0  0  0
  -22.6770  -14.7870   20.5340 O   0  0  0  0  0  0  0  0  0  0  0  0
  -22.8040  -12.2120   22.3270 H   0  0  0  0  0  0  0  0  0  0  0  0
  -21.5010  -13.3550   22.1700 H   0  0  0  0  0  0  0  0  0  0  0  0
  -25.7230  -15.4320   20.1420 N   0  0  0  0  0  0  0  0  0  0  0  0
  -24.9510  -16.0720   20.2890 H   0  0  0  0  0  0  0  0  0  0  0  0
  -26.5220  -15.8820   19.7120 H   0  0  0  0  0  0  0  0  0  0  0  0
  -30.4370  -22.7810   18.7590 C   0  0  0  0  0  1  0  0  0  0  0  0
  -29.2700  -22.6250   19.7470 C   0  0  0  0  0  3  0  0  0  0  0  0
  -29.0820  -24.0250   20.5690 C   0  0  0  0  0  2  0  0  0  0  0  0
  -28.4180  -25.1540   19.8010 N   0  0  0  0  0  0  0  0  0  0  0  0
  -27.4200  -24.9730   19.7440 H   0  0  0  0  0  0  0  0  0  0  0  0
  -28.5510  -26.5450   20.4390 O   0  0  0  0  0  0  0  0  0  0  0  0
  -24.6780  -31.9860   23.3120 C   0  0  0  0  0  0  0  0  0  0  0  0
  -27.4210  -27.4000   20.3390 C   0  0  0  0  0  0  0  0  0  0  0  0
  -23.5320  -30.5610   21.6530 C   0  0  0  0  0  3  0  0  0  0  0  0
  -25.0360  -29.0160   20.2660 C   0  0  0  0  0  0  0  0  0  0  0  0
  -26.0740  -30.8960   21.5310 C   0  0  0  0  0  2  0  0  0  0  0  0
  -26.1840  -29.5100   20.8950 C   0  0  0  0  0  0  0  0  0  0  0  0
  -27.3740  -28.7100   20.9280 C   0  0  0  0  0  3  0  0  0  0  0  0
  -26.2450  -26.9770   19.6730 C   0  0  0  0  0  3  0  0  0  0  0  0
  -25.0710  -27.7580   19.6470 C   0  0  0  0  0  3  0  0  0  0  0  0
  -23.7880  -29.8780   20.2820 C   0  0  0  0  0  2  0  0  0  0  0  0
  -24.7790  -31.1700   22.2200 N   0  0  0  0  0  0  0  0  0  0  0  0
  -23.5790  -32.2530   23.8170 O   0  0  0  0  0  0  0  0  0  0  0  0
  -22.8590  -29.5460   22.6060 C   0  0  0  0  0  0  0  0  0  0  0  0
  -21.5360  -29.3560   22.4560 N   0  0  0  0  0  0  0  0  0  0  0  0
  -23.5260  -28.9300   23.4420 O   0  0  0  0  0  0  0  0  0  0  0  0
  -21.0580  -29.9030   21.7550 H   0  0  0  0  0  0  0  0  0  0  0  0
  -18.1530  -28.1550   22.9310 C   0  0  0  0  0  0  0  0  0  0  0  0
  -20.7110  -28.4140   23.2150 C   0  0  0  0  0  3  0  0  0  0  0  0
  -20.8150  -26.9860   22.6280 C   0  0  0  0  0  2  0  0  0  0  0  0
  -19.7170  -26.6720   21.6070 C   0  0  0  0  0  2  0  0  0  0  0  0
  -18.3320  -26.8130   22.2450 C   0  0  0  0  0  2  0  0  0  0  0  0
  -19.2700  -28.9140   23.3730 C   0  0  0  0  0  0  0  0  0  0  0  0
  -19.0480  -30.1720   23.9750 C   0  0  0  0  0  3  0  0  0  0  0  0
  -17.7420  -30.6700   24.1400 C   0  0  0  0  0  3  0  0  0  0  0  0
  -16.6400  -29.9090   23.7140 C   0  0  0  0  0  3  0  0  0  0  0  0
  -16.8470  -28.6530   23.1150 C   0  0  0  0  0  3  0  0  0  0  0  0
  -25.9370  -32.6410   23.9590 C   0  0  0  0  0  3  0  0  0  0  0  0
  -25.6000  -34.0370   24.2740 N   0  0  0  0  0  0  0  0  0  0  0  0
  -25.9270  -35.0900   23.5130 C   0  0  0  0  0  0  0  0  0  0  0  0
  -26.6140  -34.9910   22.4920 O   0  0  0  0  0  0  0  0  0  0  0  0
  -24.9930  -34.1850   25.0660 H   0  0  0  0  0  0  0  0  0  0  0  0
  -24.1890  -36.8670   23.1120 C   0  0  0  0  0  1  0  0  0  0  0  0
  -25.4140  -36.4760   23.9550 C   0  0  0  0  0  3  0  0  0  0  0  0
  -27.5110  -37.3940   24.8440 C   0  0  0  0  0  1  0  0  0  0  0  0
  -26.4370  -37.5400   23.8640 N   0  0  0  0  0  0  0  0  0  0  0  0
  -26.0150  -38.4570   23.9890 H   0  0  0  0  0  0  0  0  0  0  0  0
  -26.4300  -31.8870   25.2550 C   0  0  1  0  0  0  0  0  0  0  0  0
  -25.3100  -31.6180   26.2870 C   0  0  0  0  0  1  0  0  0  0  0  0
  -27.0670  -30.5260   24.8890 C   0  0  0  0  0  1  0  0  0  0  0  0
  -27.5320  -32.7170   25.9560 C   0  0  0  0  0  1  0  0  0  0  0  0
  2  4  1  0
  3  5  1  0
  4  1  1  0
  5  4  2  0
  5  9  1  0
  6  2  2  0
  7  6  1  0
  8  6  1  0
  8  3  2  0
  9 19  1  0
 10 19  1  0
 11 16  1  0
 12 13  1  0
 12 11  1  0
 14 13  1  0
 14 23  1  0
 14 15  1  0
 16 10  1  0
 16 15  1  0
 17 10  2  0
 19 18  1  0
 20 21  2  0
 21 40  1  0
 22 21  1  0
 22 25  1  0
 23 24  1  0
 23 20  1  0
 24 22  2  0
 25 26  1  0
 26 27  2  0
 28 31  1  0
 28 27  1  0
 29 28  2  0
 30 29  1  0
 30 25  2  0
 31 32  1  0
 32 37  2  0
 32 33  1  0
 33 34  2  0
 34 35  1  0
 35 39  1  0
 36 35  2  0
 37 36  1  0
 38 37  1  0
 40 41  1  0
 41 44  1  0
 41 43  1  0
 42 40  2  0
 45 46  1  0
 45 20  1  0
 47 45  1  0
 49 48  1  0
 49  1  1  0
 49 50  1  0
 51 53  1  0
 51 50  1  0
 52 51  1  0
 54 65  2  0
 55 53  1  0
 55 60  1  0
 56 64  1  0
 56 66  1  0
 57 63  1  0
 57 59  1  0
 58 64  1  0
 59 60  2  0
 59 58  1  0
 61 55  2  0
 62 61  1  0
 62 57  2  0
 63 56  1  0
 64 54  1  0
 66 68  2  0
 67 66  1  0
 69 67  1  0
 70 79  2  0
 70 75  1  0
 71 67  1  0
 71 75  1  0
 72 71  1  0
 73 74  1  0
 73 72  1  0
 74 70  1  0
 75 76  2  0
 76 77  1  0
 78 77  2  0
 79 78  1  0
 80 54  1  0
 80 81  1  0
 80 90  1  0
 81 84  1  0
 82 86  1  0
 82 81  1  0
 83 82  2  0
 86 85  1  0
 88 86  1  0
 88 89  1  0
 88 87  1  0
 90 93  1  1
 90 91  1  0
 92 90  1  0
M  ISO  4  10 100  19 100  51 101  53 101
M  END
>  <TORSDO>  (1) 
F 21

>  <SCORE>  (1) 
-11.957

>  <name>  (1) 
0

>  <ligand_id>  (1) 
0

>  <original_smiles>  (1) 
[H]c1nc(C([H])([H])[H])c([H])c(C([H])([H])C([H])(C([H])([H])[H])C([H])([H])N([H])Oc2c([H])c([H])c3c(c2[H])C([H])([H])N(C(=O)C([H])(N([H])C(=O)C([H])(N([H])C([H])([H])[H])C([H])([H])[H])C(C([H])([H])[H])(C([H])([H])[H])C([H])([H])[H])C([H])(C(=O)N([H])C2([H])c4c([H])c([H])c([H])c([H])c4C([H])([H])C([H])([H])C2([H])[H])C3([H])[H])c1C([H])([H])N(C(=O)N1C([H])([H])C([H])([H])C([H])([H])C([H])(n2nc(-c3c([H])c([H])c(Oc4c([H])c([H])c(F)c([H])c4F)c([H])c3[H])c(C(=O)N([H])[H])c2N([H])[H])C1([H])[H])C([H])([H])[H]

>  <smiles>  (1) 
[H]c1nc(C([H])([H])[H])c([H])c(C([H])([H])C([H])(C([H])([H])[H])C([H])([H])N([H])Oc2c([H])c([H])c3c(c2[H])C([H])([H])N(C(=O)C([H])(N([H])C(=O)C([H])(N([H])C([H])([H])[H])C([H])([H])[H])C(C([H])([H])[H])(C([H])([H])[H])C([H])([H])[H])C([H])(C(=O)N([H])C2([H])c4c([H])c([H])c([H])c([H])c4C([H])([H])C([H])([H])C2([H])[H])C3([H])[H])c1C([H])([H])N(C(=O)N1C([H])([H])C([H])([H])C([H])([H])C([H])(n2nc(-c3c([H])c([H])c(Oc4c([H])c([H])c(F)c([H])c4F)c([H])c3[H])c(C(=O)N([H])[H])c2N([H])[H])C1([H])[H])C([H])([H])[H]

$$$$
1:0:0
     RDKit          3D

 96104  0  0  1  0  0  0  0  0999 V2000
  -29.6050  -20.7310   20.8050 C   0  0  0  0  0  3  0  0  0  0  0  0
  -28.7030  -21.7860   20.4910 C   0  0  0  0  0  0  0  0  0  0  0  0
  -27.6860  -21.5140   19.5370 C   0  0  0  0  0  0  0  0  0  0  0  0
  -29.4910  -19.4760   20.1560 C   0  0  0  0  0  0  0  0  0  0  0  0
  -27.7250  -20.2790   18.8500 C   0  0  0  0  0  0  0  0  0  0  0  0
  -26.5220  -22.4790   19.2850 C   0  0  0  0  0  1  0  0  0  0  0  0
  -26.7230  -19.9270   17.7600 C   0  0  0  0  0  1  0  0  0  0  0  0
  -28.6150  -19.3080   19.1380 N   0  0  0  0  0  0  0  0  0  0  0  0
  -28.7880  -23.1320   21.2360 C   0  0  0  0  0  2  0  0  0  0  0  0
  -28.9180  -24.3930   20.3260 C   0  0  0  0  0  2  0  0  0  0  0  0
  -28.6880  -25.7300   21.0770 C   0  0  0  0  0  2  0  0  0  0  0  0
  -28.6080  -26.8600   20.1960 O   0  0  0  0  0  0  0  0  0  0  0  0
  -24.6150  -31.9380   23.2400 C   0  0  0  0  0  0  0  0  0  0  0  0
  -27.4200  -27.5540   20.2160 C   0  0  0  0  0  0  0  0  0  0  0  0
  -23.4700  -30.5250   21.5550 C   0  0  0  0  0  3  0  0  0  0  0  0
  -24.9930  -29.0050   20.1730 C   0  0  0  0  0  0  0  0  0  0  0  0
  -25.9940  -30.9210   21.4300 C   0  0  0  0  0  2  0  0  0  0  0  0
  -26.1230  -29.5490   20.7980 C   0  0  0  0  0  0  0  0  0  0  0  0
  -27.3410  -28.8310   20.8190 C   0  0  0  0  0  3  0  0  0  0  0  0
  -26.2770  -27.0180   19.5870 C   0  0  0  0  0  3  0  0  0  0  0  0
  -25.0630  -27.7380   19.5660 C   0  0  0  0  0  3  0  0  0  0  0  0
  -23.7340  -29.8490   20.1810 C   0  0  0  0  0  2  0  0  0  0  0  0
  -24.7090  -31.1450   22.1330 N   0  0  0  0  0  0  0  0  0  0  0  0
  -23.5200  -32.1930   23.7570 O   0  0  0  0  0  0  0  0  0  0  0  0
  -22.8140  -29.4910   22.4990 C   0  0  0  0  0  0  0  0  0  0  0  0
  -21.4910  -29.3080   22.3600 N   0  0  0  0  0  0  0  0  0  0  0  0
  -23.4920  -28.8530   23.3110 O   0  0  0  0  0  0  0  0  0  0  0  0
  -21.0110  -29.8760   21.6760 H   0  0  0  0  0  0  0  0  0  0  0  0
  -18.1030  -28.1660   22.8760 C   0  0  0  0  0  0  0  0  0  0  0  0
  -20.6690  -28.3640   23.1140 C   0  0  0  0  0  3  0  0  0  0  0  0
  -20.7310  -26.9510   22.4880 C   0  0  0  0  0  2  0  0  0  0  0  0
  -19.6070  -26.6900   21.4790 C   0  0  0  0  0  2  0  0  0  0  0  0
  -18.2390  -26.8400   22.1500 C   0  0  0  0  0  2  0  0  0  0  0  0
  -19.2440  -28.8910   23.3140 C   0  0  0  0  0  0  0  0  0  0  0  0
  -19.0590  -30.1400   23.9480 C   0  0  0  0  0  3  0  0  0  0  0  0
  -17.7690  -30.6630   24.1470 C   0  0  0  0  0  3  0  0  0  0  0  0
  -16.6420  -29.9360   23.7220 C   0  0  0  0  0  3  0  0  0  0  0  0
  -16.8120  -28.6890   23.0960 C   0  0  0  0  0  3  0  0  0  0  0  0
  -25.8780  -32.5840   23.8930 C   0  0  0  0  0  3  0  0  0  0  0  0
  -25.5510  -33.9830   24.1990 N   0  0  0  0  0  0  0  0  0  0  0  0
  -25.8980  -35.0310   23.4380 C   0  0  0  0  0  0  0  0  0  0  0  0
  -26.6070  -34.9240   22.4330 O   0  0  0  0  0  0  0  0  0  0  0  0
  -24.9280  -34.1370   24.9780 H   0  0  0  0  0  0  0  0  0  0  0  0
  -24.1790  -36.8090   22.9930 C   0  0  0  0  0  1  0  0  0  0  0  0
  -25.3830  -36.4190   23.8630 C   0  0  0  0  0  3  0  0  0  0  0  0
  -27.4710  -37.3220   24.7850 C   0  0  0  0  0  1  0  0  0  0  0  0
  -26.4160  -37.4730   23.7890 N   0  0  0  0  0  0  0  0  0  0  0  0
  -26.0000  -38.3910   23.9080 H   0  0  0  0  0  0  0  0  0  0  0  0
  -26.3710  -31.8240   25.1860 C   0  0  1  0  0  0  0  0  0  0  0  0
  -25.2590  -31.5690   26.2310 C   0  0  0  0  0  1  0  0  0  0  0  0
  -26.9850  -30.4530   24.8110 C   0  0  0  0  0  1  0  0  0  0  0  0
  -27.4960  -32.6350   25.8750 C   0  0  0  0  0  1  0  0  0  0  0  0
  -30.2790  -18.2110   20.6240 C   0  0  0  0  0  3  0  0  0  0  0  0
  -31.8040  -18.2850   20.3420 C   0  0  0  0  0  2  0  0  0  0  0  0
  -33.1910  -17.4890   18.3150 C   0  0  0  0  0  1  0  0  0  0  0  0
  -32.8860  -19.9430   18.7260 C   0  0  0  0  0  1  0  0  0  0  0  0
  -32.2340  -18.5590   18.8740 C   0  0  0  0  0  3  0  0  0  0  0  0
  -29.6480  -16.8590   20.1270 C   0  0  0  0  0  2  0  0  0  0  0  0
  -30.7420  -14.6030   20.2690 C   0  0  0  0  0  0  0  0  0  0  0  0
  -30.4230  -12.4670   19.0870 C   0  0  0  0  0  2  0  0  0  0  0  0
  -29.4560  -12.7550   17.9190 C   0  0  0  0  0  2  0  0  0  0  0  0
  -27.9910  -12.6080   18.3720 C   0  0  0  0  0  2  0  0  0  0  0  0
  -27.6960  -13.3770   19.6860 C   0  0  0  0  0  3  0  0  0  0  0  0
  -28.7800  -13.0970   20.7570 C   0  0  0  0  0  2  0  0  0  0  0  0
  -30.1000  -13.4040   20.1760 N   0  0  0  0  0  0  0  0  0  0  0  0
  -31.8290  -14.8250   19.7290 O   0  0  0  0  0  0  0  0  0  0  0  0
  -30.0060  -15.5920   20.8070 N   0  0  0  0  0  0  0  0  0  0  0  0
  -29.2540  -15.2410   21.3830 H   0  0  0  0  0  0  0  0  0  0  0  0
  -25.3150  -13.9740   20.4690 C   0  0  0  0  0  0  0  0  0  0  0  0
  -24.2580  -13.1930   20.8560 C   0  0  0  0  0  0  0  0  0  0  0  0
  -24.7180  -11.8440   20.7910 C   0  0  0  0  0  0  0  0  0  0  0  0
  -26.3530  -13.0960   20.1920 N   0  0  0  0  0  0  0  0  0  0  0  0
  -25.9980  -11.8100   20.4420 N   0  0  0  0  0  0  0  0  0  0  0  0
  -23.9950  -10.5800   20.9830 C   0  0  0  0  0  0  0  0  0  0  0  0
  -24.4360   -9.6120   21.9110 C   0  0  0  0  0  3  0  0  0  0  0  0
  -23.7160   -8.4110   22.0880 C   0  0  0  0  0  3  0  0  0  0  0  0
  -22.5400   -8.1700   21.3380 C   0  0  0  0  0  0  0  0  0  0  0  0
  -22.1210   -9.1260   20.3970 C   0  0  0  0  0  3  0  0  0  0  0  0
  -22.8390  -10.3190   20.2190 C   0  0  0  0  0  3  0  0  0  0  0  0
  -21.7870   -7.0240   21.4270 O   0  0  0  0  0  0  0  0  0  0  0  0
  -21.7340   -6.2860   22.5810 C   0  0  0  0  0  0  0  0  0  0  0  0
  -21.2710   -6.8340   23.7980 C   0  0  0  0  0  3  0  0  0  0  0  0
  -21.1730   -6.0200   24.9440 C   0  0  0  0  0  3  0  0  0  0  0  0
  -21.5170   -4.6560   24.8730 C   0  0  0  0  0  0  0  0  0  0  0  0
  -21.9700   -4.1070   23.6600 C   0  0  0  0  0  3  0  0  0  0  0  0
  -22.0750   -4.9190   22.5170 C   0  0  0  0  0  0  0  0  0  0  0  0
  -22.4920   -4.3800   21.3470 F   0  0  0  0  0  0  0  0  0  0  0  0
  -21.4130   -3.8730   25.9720 F   0  0  0  0  0  0  0  0  0  0  0  0
  -22.8680  -13.6690   21.1750 C   0  0  0  0  0  0  0  0  0  0  0  0
  -22.1570  -12.9550   22.0420 N   0  0  0  0  0  0  0  0  0  0  0  0
  -22.4200  -14.7050   20.6890 O   0  0  0  0  0  0  0  0  0  0  0  0
  -22.5290  -12.1160   22.4620 H   0  0  0  0  0  0  0  0  0  0  0  0
  -21.2260  -13.2570   22.2920 H   0  0  0  0  0  0  0  0  0  0  0  0
  -25.4660  -15.3470   20.3140 N   0  0  0  0  0  0  0  0  0  0  0  0
  -24.6910  -15.9830   20.4620 H   0  0  0  0  0  0  0  0  0  0  0  0
  -26.3010  -15.8130   19.9830 H   0  0  0  0  0  0  0  0  0  0  0  0
  2  1  1  0
  2  9  1  0
  3  2  2  0
  4 53  1  0
  4  1  2  0
  5  8  2  0
  5  3  1  0
  6  3  1  0
  7  5  1  0
  8  4  1  0
 10 11  1  0
 10  9  1  0
 12 14  1  0
 12 11  1  0
 13 24  2  0
 14 19  1  0
 15 23  1  0
 15 25  1  0
 16 22  1  0
 16 18  1  0
 17 23  1  0
 18 19  2  0
 18 17  1  0
 20 14  2  0
 21 20  1  0
 21 16  2  0
 22 15  1  0
 23 13  1  0
 25 27  2  0
 26 25  1  0
 28 26  1  0
 29 38  2  0
 29 34  1  0
 30 26  1  0
 30 34  1  0
 31 30  1  0
 32 33  1  0
 32 31  1  0
 33 29  1  0
 34 35  2  0
 35 36  1  0
 37 36  2  0
 38 37  1  0
 39 13  1  0
 39 40  1  0
 39 49  1  0
 40 43  1  0
 41 45  1  0
 41 40  1  0
 42 41  2  0
 45 44  1  0
 47 45  1  0
 47 48  1  0
 47 46  1  0
 49 52  1  1
 49 50  1  0
 51 49  1  0
 53 58  1  0
 54 53  1  0
 55 57  1  0
 56 57  1  0
 57 54  1  0
 58 67  1  0
 59 67  1  0
 60 65  1  0
 61 62  1  0
 61 60  1  0
 63 62  1  0
 63 72  1  0
 63 64  1  0
 65 59  1  0
 65 64  1  0
 66 59  2  0
 67 68  1  0
 69 70  2  0
 70 89  1  0
 71 70  1  0
 71 74  1  0
 72 73  1  0
 72 69  1  0
 73 71  2  0
 74 75  1  0
 75 76  2  0
 77 80  1  0
 77 76  1  0
 78 77  2  0
 79 78  1  0
 79 74  2  0
 80 81  1  0
 81 82  1  0
 82 83  2  0
 84 83  1  0
 84 88  1  0
 85 84  2  0
 86 81  2  0
 86 85  1  0
 87 86  1  0
 89 90  1  0
 90 93  1  0
 90 92  1  0
 91 89  2  0
 94 95  1  0
 94 69  1  0
 96 94  1  0
M  ISO  4  11 101  12 101  59 100  67 100
M  END
>  <TORSDO>  (2) 
F 23

>  <SCORE>  (2) 
-13.216

>  <name>  (2) 
1

>  <ligand_id>  (2) 
1

>  <original_smiles>  (2) 
[H]c1c([H])c([H])c2c(c1[H])C([H])([H])C([H])([H])C([H])([H])C2([H])N([H])C(=O)C1([H])N(C(=O)C([H])(N([H])C(=O)C([H])(N([H])C([H])([H])[H])C([H])([H])[H])C(C([H])([H])[H])(C([H])([H])[H])C([H])([H])[H])C([H])([H])c2c([H])c(OC([H])([H])C([H])([H])C([H])([H])c3c([H])c(C([H])(C([H])([H])N([H])C(=O)N4C([H])([H])C([H])([H])C([H])([H])C([H])(n5nc(-c6c([H])c([H])c(Oc7c([H])c([H])c(F)c([H])c7F)c([H])c6[H])c(C(=O)N([H])[H])c5N([H])[H])C4([H])[H])C([H])([H])C([H])(C([H])([H])[H])C([H])([H])[H])nc(C([H])([H])[H])c3C([H])([H])[H])c([H])c([H])c2C1([H])[H]

>  <smiles>  (2) 
[H]c1c([H])c([H])c2c(c1[H])C([H])([H])C([H])([H])C([H])([H])C2([H])N([H])C(=O)C1([H])N(C(=O)C([H])(N([H])C(=O)C([H])(N([H])C([H])([H])[H])C([H])([H])[H])C(C([H])([H])[H])(C([H])([H])[H])C([H])([H])[H])C([H])([H])c2c([H])c(OC([H])([H])C([H])([H])C([H])([H])c3c([H])c(C([H])(C([H])([H])N([H])C(=O)N4C([H])([H])C([H])([H])C([H])([H])C([H])(n5nc(-c6c([H])c([H])c(Oc7c([H])c([H])c(F)c([H])c7F)c([H])c6[H])c(C(=O)N([H])[H])c5N([H])[H])C4([H])[H])C([H])([H])C([H])(C([H])([H])[H])C([H])([H])[H])nc(C([H])([H])[H])c3C([H])([H])[H])c([H])c([H])c2C1([H])[H]

$$$$
2:0:0
     RDKit          3D

 90 98  0  0  1  0  0  0  0  0999 V2000
  -30.9540  -21.8120   18.8910 C   0  0  0  0  0  3  0  0  0  0  0  0
  -31.7300  -20.7110   18.4750 C   0  0  0  0  0  0  0  0  0  0  0  0
  -29.9750  -21.3130   19.7150 C   0  0  0  0  0  0  0  0  0  0  0  0
  -32.9220  -20.6940   17.5650 C   0  0  0  0  0  1  0  0  0  0  0  0
  -31.2850  -19.5920   18.9930 N   0  0  0  0  0  0  0  0  0  0  0  0
  -30.2060  -19.8790   19.7670 N   0  0  0  0  0  0  0  0  0  0  0  0
  -28.9250  -22.2750   20.3560 C   0  0  0  0  0  2  0  0  0  0  0  0
  -29.0980  -23.8570   20.0150 C   0  0  0  0  0  3  0  0  0  0  0  0
  -28.0990  -24.9810   20.5680 C   0  0  0  0  0  3  0  0  0  0  0  0
  -28.3260  -26.4200   20.2120 O   0  0  0  0  0  0  0  0  0  0  0  0
  -24.6400  -31.8810   23.2410 C   0  0  0  0  0  0  0  0  0  0  0  0
  -27.2200  -27.2910   20.1880 C   0  0  0  0  0  0  0  0  0  0  0  0
  -23.4250  -30.4780   21.6130 C   0  0  0  0  0  3  0  0  0  0  0  0
  -24.8640  -28.9230   20.1800 C   0  0  0  0  0  0  0  0  0  0  0  0
  -25.9650  -30.7890   21.4140 C   0  0  0  0  0  2  0  0  0  0  0  0
  -26.0390  -29.4070   20.7700 C   0  0  0  0  0  0  0  0  0  0  0  0
  -27.2220  -28.6040   20.7600 C   0  0  0  0  0  3  0  0  0  0  0  0
  -26.0280  -26.8740   19.5570 C   0  0  0  0  0  3  0  0  0  0  0  0
  -24.8620  -27.6630   19.5630 C   0  0  0  0  0  3  0  0  0  0  0  0
  -23.6280  -29.7990   20.2340 C   0  0  0  0  0  2  0  0  0  0  0  0
  -24.6960  -31.0670   22.1450 N   0  0  0  0  0  0  0  0  0  0  0  0
  -23.5610  -32.1600   23.7810 O   0  0  0  0  0  0  0  0  0  0  0  0
  -22.7680  -29.4640   22.5810 C   0  0  0  0  0  0  0  0  0  0  0  0
  -21.4420  -29.2840   22.4610 N   0  0  0  0  0  0  0  0  0  0  0  0
  -23.4510  -28.8430   23.3990 O   0  0  0  0  0  0  0  0  0  0  0  0
  -20.9490  -29.8370   21.7740 H   0  0  0  0  0  0  0  0  0  0  0  0
  -18.0710  -28.0750   22.9740 C   0  0  0  0  0  0  0  0  0  0  0  0
  -20.6280  -28.3490   23.2390 C   0  0  0  0  0  3  0  0  0  0  0  0
  -20.7360  -26.9130   22.6760 C   0  0  0  0  0  2  0  0  0  0  0  0
  -19.6350  -26.5770   21.6650 C   0  0  0  0  0  2  0  0  0  0  0  0
  -18.2530  -26.7210   22.3090 C   0  0  0  0  0  2  0  0  0  0  0  0
  -19.1860  -28.8460   23.3960 C   0  0  0  0  0  0  0  0  0  0  0  0
  -18.9610  -30.1130   23.9780 C   0  0  0  0  0  3  0  0  0  0  0  0
  -17.6540  -30.6080   24.1410 C   0  0  0  0  0  3  0  0  0  0  0  0
  -16.5530  -29.8350   23.7340 C   0  0  0  0  0  3  0  0  0  0  0  0
  -16.7630  -28.5700   23.1560 C   0  0  0  0  0  3  0  0  0  0  0  0
  -25.9270  -32.5150   23.8510 C   0  0  0  0  0  3  0  0  0  0  0  0
  -25.6170  -33.9120   24.1890 N   0  0  0  0  0  0  0  0  0  0  0  0
  -25.9360  -34.9680   23.4290 C   0  0  0  0  0  0  0  0  0  0  0  0
  -26.5930  -34.8690   22.3890 O   0  0  0  0  0  0  0  0  0  0  0  0
  -25.0330  -34.0610   24.9970 H   0  0  0  0  0  0  0  0  0  0  0  0
  -24.1960  -36.7560   23.1070 C   0  0  0  0  0  1  0  0  0  0  0  0
  -25.4520  -36.3540   23.8970 C   0  0  0  0  0  3  0  0  0  0  0  0
  -27.5970  -37.2430   24.6920 C   0  0  0  0  0  1  0  0  0  0  0  0
  -26.4780  -37.4110   23.7690 N   0  0  0  0  0  0  0  0  0  0  0  0
  -26.0710  -38.3290   23.9280 H   0  0  0  0  0  0  0  0  0  0  0  0
  -26.4560  -31.7420   25.1220 C   0  0  1  0  0  0  0  0  0  0  0  0
  -25.3740  -31.5040   26.2010 C   0  0  0  0  0  1  0  0  0  0  0  0
  -27.0360  -30.3650   24.7260 C   0  0  0  0  0  1  0  0  0  0  0  0
  -27.6140  -32.5370   25.7740 C   0  0  0  0  0  1  0  0  0  0  0  0
  -29.5810  -18.6400   20.3960 C   0  0  0  0  0  3  0  0  0  0  0  0
  -30.4110  -17.2500   20.1880 C   0  0  0  0  0  3  0  0  0  0  0  0
  -30.6070  -14.6960   20.3510 C   0  0  0  0  0  0  0  0  0  0  0  0
  -30.3430  -12.4440   19.3270 C   0  0  0  0  0  2  0  0  0  0  0  0
  -29.4060  -12.5560   18.1060 C   0  0  0  0  0  2  0  0  0  0  0  0
  -27.9350  -12.4010   18.5380 C   0  0  0  0  0  2  0  0  0  0  0  0
  -27.5790  -13.2740   19.7710 C   0  0  0  0  0  3  0  0  0  0  0  0
  -28.6410  -13.1680   20.8880 C   0  0  0  0  0  2  0  0  0  0  0  0
  -29.9410  -13.4940   20.2880 N   0  0  0  0  0  0  0  0  0  0  0  0
  -31.7910  -14.7600   20.0080 O   0  0  0  0  0  0  0  0  0  0  0  0
  -29.8940  -15.8620   20.5500 N   0  0  0  0  0  0  0  0  0  0  0  0
  -28.9200  -15.7720   20.8000 H   0  0  0  0  0  0  0  0  0  0  0  0
  -25.1910  -13.8680   20.4960 C   0  0  0  0  0  0  0  0  0  0  0  0
  -24.1250  -13.0960   20.8700 C   0  0  0  0  0  0  0  0  0  0  0  0
  -24.5880  -11.7440   20.8450 C   0  0  0  0  0  0  0  0  0  0  0  0
  -26.2350  -12.9880   20.2650 N   0  0  0  0  0  0  0  0  0  0  0  0
  -25.8790  -11.7050   20.5350 N   0  0  0  0  0  0  0  0  0  0  0  0
  -23.8600  -10.4830   21.0400 C   0  0  0  0  0  0  0  0  0  0  0  0
  -24.3010   -9.5110   21.9650 C   0  0  0  0  0  3  0  0  0  0  0  0
  -23.5750   -8.3160   22.1500 C   0  0  0  0  0  3  0  0  0  0  0  0
  -22.3920   -8.0830   21.4090 C   0  0  0  0  0  0  0  0  0  0  0  0
  -21.9700   -9.0420   20.4710 C   0  0  0  0  0  3  0  0  0  0  0  0
  -22.6970  -10.2290   20.2860 C   0  0  0  0  0  3  0  0  0  0  0  0
  -21.6350   -6.9390   21.5020 O   0  0  0  0  0  0  0  0  0  0  0  0
  -21.6110   -6.1840   22.6480 C   0  0  0  0  0  0  0  0  0  0  0  0
  -21.2260   -6.7300   23.8910 C   0  0  0  0  0  3  0  0  0  0  0  0
  -21.1470   -5.9020   25.0300 C   0  0  0  0  0  3  0  0  0  0  0  0
  -21.4440   -4.5310   24.9240 C   0  0  0  0  0  0  0  0  0  0  0  0
  -21.8230   -3.9840   23.6850 C   0  0  0  0  0  3  0  0  0  0  0  0
  -21.9040   -4.8090   22.5500 C   0  0  0  0  0  0  0  0  0  0  0  0
  -22.2480   -4.2740   21.3540 F   0  0  0  0  0  0  0  0  0  0  0  0
  -21.3620   -3.7330   26.0150 F   0  0  0  0  0  0  0  0  0  0  0  0
  -22.7280  -13.5730   21.1380 C   0  0  0  0  0  0  0  0  0  0  0  0
  -22.0010  -12.8820   22.0080 N   0  0  0  0  0  0  0  0  0  0  0  0
  -22.2890  -14.5960   20.6110 O   0  0  0  0  0  0  0  0  0  0  0  0
  -22.3690  -12.0550   22.4550 H   0  0  0  0  0  0  0  0  0  0  0  0
  -21.0620  -13.1850   22.2310 H   0  0  0  0  0  0  0  0  0  0  0  0
  -25.3540  -15.2380   20.3110 N   0  0  0  0  0  0  0  0  0  0  0  0
  -24.5840  -15.8910   20.4180 H   0  0  0  0  0  0  0  0  0  0  0  0
  -26.1960  -15.6740   19.9610 H   0  0  0  0  0  0  0  0  0  0  0  0
  1  3  2  0
  2  1  1  0
  2  5  2  0
  3  6  1  0
  3  7  1  0
  4  2  1  0
  5  6  1  0
  6 51  1  0
  8  7  1  0
  8  9  2  0
 10  9  1  0
 11 22  2  0
 12 10  1  0
 12 17  1  0
 13 21  1  0
 13 23  1  0
 14 20  1  0
 14 16  1  0
 15 21  1  0
 16 15  1  0
 17 16  2  0
 18 19  1  0
 18 12  2  0
 19 14  2  0
 20 13  1  0
 21 11  1  0
 23 25  2  0
 24 23  1  0
 26 24  1  0
 27 36  2  0
 27 32  1  0
 28 24  1  0
 28 32  1  0
 29 28  1  0
 30 31  1  0
 30 29  1  0
 31 27  1  0
 32 33  2  0
 33 34  1  0
 35 34  2  0
 36 35  1  0
 37 11  1  0
 37 38  1  0
 37 47  1  0
 38 41  1  0
 39 43  1  0
 39 38  1  0
 40 39  2  0
 43 42  1  0
 45 43  1  0
 45 46  1  0
 45 44  1  0
 47 50  1  1
 47 48  1  0
 49 47  1  0
 52 51  2  0
 52 61  1  0
 53 61  1  0
 54 59  1  0
 55 56  1  0
 55 54  1  0
 57 56  1  0
 57 66  1  0
 57 58  1  0
 59 53  1  0
 59 58  1  0
 60 53  2  0
 61 62  1  0
 63 64  2  0
 64 83  1  0
 65 64  1  0
 65 68  1  0
 66 63  1  0
 66 67  1  0
 67 65  2  0
 68 69  1  0
 69 70  2  0
 71 74  1  0
 71 70  1  0
 72 71  2  0
 73 72  1  0
 73 68  2  0
 74 75  1  0
 75 76  1  0
 76 77  2  0
 78 77  1  0
 78 82  1  0
 79 78  2  0
 80 75  2  0
 80 79  1  0
 81 80  1  0
 83 84  1  0
 84 87  1  0
 84 86  1  0
 85 83  2  0
 88 89  1  0
 88 63  1  0
 90 88  1  0
M  ISO  4   9 101  10 101  53 100  61 100
M  END
>  <TORSDO>  (3) 
F 21

>  <SCORE>  (3) 
-13.293

>  <name>  (3) 
2

>  <ligand_id>  (3) 
2

>  <original_smiles>  (3) 
[H]c1c([H])c([H])c2c(c1[H])C([H])([H])C([H])([H])C([H])([H])C2([H])N([H])C(=O)C1([H])N(C(=O)C([H])(N([H])C(=O)C([H])(N([H])C([H])([H])[H])C([H])([H])[H])C(C([H])([H])[H])(C([H])([H])[H])C([H])([H])[H])C([H])([H])c2c([H])c(OC([H])([H])C([H])([H])C([H])([H])c3c([H])c(C([H])([H])[H])nn3C([H])([H])C([H])([H])N([H])C(=O)N3C([H])([H])C([H])([H])C([H])([H])C([H])(n4nc(-c5c([H])c([H])c(Oc6c([H])c([H])c(F)c([H])c6F)c([H])c5[H])c(C(=O)N([H])[H])c4N([H])[H])C3([H])[H])c([H])c([H])c2C1([H])[H]

>  <smiles>  (3) 
[H]c1c([H])c([H])c2c(c1[H])C([H])([H])C([H])([H])C([H])([H])C2([H])N([H])C(=O)C1([H])N(C(=O)C([H])(N([H])C(=O)C([H])(N([H])C([H])([H])[H])C([H])([H])[H])C(C([H])([H])[H])(C([H])([H])[H])C([H])([H])[H])C([H])([H])c2c([H])c(OC([H])([H])C([H])([H])C([H])([H])c3c([H])c(C([H])([H])[H])nn3C([H])([H])C([H])([H])N([H])C(=O)N3C([H])([H])C([H])([H])C([H])([H])C([H])(n4nc(-c5c([H])c([H])c(Oc6c([H])c([H])c(F)c([H])c6F)c([H])c5[H])c(C(=O)N([H])[H])c4N([H])[H])C3([H])[H])c([H])c([H])c2C1([H])[H]

$$$$
3:0:0
     RDKit          3D

 99107  0  0  1  0  0  0  0  0999 V2000
  -31.7800  -19.6930   19.9580 C   0  0  0  0  0  1  0  0  0  0  0  0
  -30.9340  -20.2560   18.8710 N   0  0  1  0  0  4  0  0  0  0  0  0
  -30.1250  -20.6360   19.3370 H   0  0  0  0  0  0  0  0  0  0  0  0
  -31.5950  -21.4020   18.1840 C   0  0  0  0  0  2  0  0  0  0  0  0
  -32.8190  -23.5810   18.5920 C   0  0  0  0  0  1  0  0  0  0  0  0
  -31.6200  -22.7140   19.0230 C   0  0  0  0  0  3  0  0  0  0  0  0
  -30.2890  -23.4970   18.8950 C   0  0  0  0  0  2  0  0  0  0  0  0
  -30.1950  -24.7960   19.7290 C   0  0  0  0  0  2  0  0  0  0  0  0
  -28.8230  -25.4660   19.5680 C   0  0  0  0  0  2  0  0  0  0  0  0
  -28.7510  -26.7320   20.2310 O   0  0  0  0  0  0  0  0  0  0  0  0
  -24.6350  -31.7460   23.1870 C   0  0  0  0  0  0  0  0  0  0  0  0
  -27.5390  -27.4000   20.1920 C   0  0  0  0  0  0  0  0  0  0  0  0
  -23.5440  -30.3280   21.4810 C   0  0  0  0  0  3  0  0  0  0  0  0
  -25.1010  -28.8430   20.1200 C   0  0  0  0  0  0  0  0  0  0  0  0
  -26.0680  -30.7510   21.4090 C   0  0  0  0  0  2  0  0  0  0  0  0
  -26.2180  -29.3880   20.7650 C   0  0  0  0  0  0  0  0  0  0  0  0
  -27.4370  -28.6720   20.8010 C   0  0  0  0  0  3  0  0  0  0  0  0
  -26.3910  -26.8650   19.5570 C   0  0  0  0  0  3  0  0  0  0  0  0
  -25.1820  -27.5770   19.5200 C   0  0  0  0  0  3  0  0  0  0  0  0
  -23.8360  -29.6680   20.1090 C   0  0  0  0  0  2  0  0  0  0  0  0
  -24.7640  -30.9550   22.0850 N   0  0  0  0  0  0  0  0  0  0  0  0
  -23.5210  -31.9860   23.6760 O   0  0  0  0  0  0  0  0  0  0  0  0
  -22.8750  -29.2810   22.3990 C   0  0  0  0  0  0  0  0  0  0  0  0
  -21.5530  -29.1020   22.2400 N   0  0  0  0  0  0  0  0  0  0  0  0
  -23.5420  -28.6320   23.2110 O   0  0  0  0  0  0  0  0  0  0  0  0
  -21.0770  -29.6790   21.5620 H   0  0  0  0  0  0  0  0  0  0  0  0
  -18.1610  -27.9440   22.6810 C   0  0  0  0  0  0  0  0  0  0  0  0
  -20.7210  -28.1450   22.9680 C   0  0  0  0  0  3  0  0  0  0  0  0
  -20.8020  -26.7390   22.3310 C   0  0  0  0  0  2  0  0  0  0  0  0
  -19.6970  -26.4790   21.3030 C   0  0  0  0  0  2  0  0  0  0  0  0
  -18.3150  -26.6210   21.9490 C   0  0  0  0  0  2  0  0  0  0  0  0
  -19.2900  -28.6660   23.1460 C   0  0  0  0  0  0  0  0  0  0  0  0
  -19.0930  -29.9080   23.7870 C   0  0  0  0  0  3  0  0  0  0  0  0
  -17.7970  -30.4260   23.9710 C   0  0  0  0  0  3  0  0  0  0  0  0
  -16.6810  -29.6980   23.5240 C   0  0  0  0  0  3  0  0  0  0  0  0
  -16.8640  -28.4590   22.8850 C   0  0  0  0  0  3  0  0  0  0  0  0
  -25.8730  -32.4040   23.8720 C   0  0  0  0  0  3  0  0  0  0  0  0
  -26.3470  -31.6370   25.1680 C   0  0  1  0  0  0  0  0  0  0  0  0
  -25.2090  -31.3600   26.1770 C   0  0  0  0  0  1  0  0  0  0  0  0
  -26.9880  -30.2800   24.7960 C   0  0  0  0  0  1  0  0  0  0  0  0
  -27.4390  -32.4570   25.8930 C   0  0  0  0  0  1  0  0  0  0  0  0
  -25.5140  -33.7910   24.1920 N   0  0  0  0  0  0  0  0  0  0  0  0
  -25.8620  -34.8540   23.4540 C   0  0  0  0  0  0  0  0  0  0  0  0
  -26.5870  -34.7710   22.4580 O   0  0  0  0  0  0  0  0  0  0  0  0
  -24.8760  -33.9280   24.9610 H   0  0  0  0  0  0  0  0  0  0  0  0
  -24.1060  -36.6020   23.0180 C   0  0  0  0  0  1  0  0  0  0  0  0
  -25.3160  -36.2280   23.8890 C   0  0  0  0  0  3  0  0  0  0  0  0
  -27.3860  -37.1610   24.8220 C   0  0  0  0  0  1  0  0  0  0  0  0
  -26.3250  -37.3070   23.8290 N   0  0  0  0  0  0  0  0  0  0  0  0
  -25.8890  -38.2160   23.9630 H   0  0  0  0  0  0  0  0  0  0  0  0
  -30.3540  -19.2420   17.9330 C   0  0  0  0  0  3  0  0  0  0  0  0
  -27.4030  -17.3600   19.5600 C   0  0  0  0  0  3  0  0  0  0  0  0
  -28.1220  -16.3330   20.1990 C   0  0  0  0  0  0  0  0  0  0  0  0
  -28.0830  -18.3100   18.7800 C   0  0  0  0  0  0  0  0  0  0  0  0
  -29.5240  -16.2660   20.0050 C   0  0  0  0  0  0  0  0  0  0  0  0
  -29.4900  -18.2050   18.6740 C   0  0  0  0  0  0  0  0  0  0  0  0
  -27.3540  -15.3630   21.0840 C   0  0  0  0  0  1  0  0  0  0  0  0
  -27.2840  -19.4100   18.0960 C   0  0  0  0  0  1  0  0  0  0  0  0
  -30.1690  -17.2110   19.2860 N   0  0  0  0  0  0  0  0  0  0  0  0
  -31.6690  -15.8820   21.2820 C   0  0  0  0  0  1  0  0  0  0  0  0
  -30.4200  -15.2080   20.6750 C   0  0  0  0  0  3  0  0  0  0  0  0
  -30.7990  -14.0370   19.7210 C   0  0  0  0  0  0  0  0  0  0  0  0
  -30.4500  -11.7410   18.8530 C   0  0  0  0  0  2  0  0  0  0  0  0
  -29.4430  -11.7100   17.6900 C   0  0  0  0  0  2  0  0  0  0  0  0
  -27.9990  -11.6110   18.2170 C   0  0  0  0  0  2  0  0  0  0  0  0
  -27.7010  -12.6530   19.3270 C   0  0  0  0  0  3  0  0  0  0  0  0
  -28.8100  -12.6340   20.4000 C   0  0  0  0  0  2  0  0  0  0  0  0
  -30.1020  -12.8680   19.7350 N   0  0  0  0  0  0  0  0  0  0  0  0
  -31.7850  -14.1820   18.9830 O   0  0  0  0  0  0  0  0  0  0  0  0
  -25.3800  -13.3660   20.1880 C   0  0  0  0  0  0  0  0  0  0  0  0
  -24.3200  -12.6430   20.6630 C   0  0  0  0  0  0  0  0  0  0  0  0
  -24.7320  -11.2760   20.6420 C   0  0  0  0  0  0  0  0  0  0  0  0
  -26.3790  -12.4430   19.9140 N   0  0  0  0  0  0  0  0  0  0  0  0
  -25.9930  -11.1820   20.2410 N   0  0  0  0  0  0  0  0  0  0  0  0
  -23.9820  -10.0470   20.9290 C   0  0  0  0  0  0  0  0  0  0  0  0
  -24.4270   -9.1170   21.8940 C   0  0  0  0  0  3  0  0  0  0  0  0
  -23.6780   -7.9520   22.1650 C   0  0  0  0  0  3  0  0  0  0  0  0
  -22.4690   -7.7080   21.4710 C   0  0  0  0  0  0  0  0  0  0  0  0
  -22.0420   -8.6250   20.4940 C   0  0  0  0  0  3  0  0  0  0  0  0
  -22.7910   -9.7820   20.2230 C   0  0  0  0  0  3  0  0  0  0  0  0
  -21.6890   -6.5910   21.6480 O   0  0  0  0  0  0  0  0  0  0  0  0
  -21.6480   -5.9250   22.8470 C   0  0  0  0  0  0  0  0  0  0  0  0
  -21.2610   -6.5670   24.0450 C   0  0  0  0  0  3  0  0  0  0  0  0
  -21.1660   -5.8290   25.2410 C   0  0  0  0  0  3  0  0  0  0  0  0
  -21.4470   -4.4500   25.2420 C   0  0  0  0  0  0  0  0  0  0  0  0
  -21.8280   -3.8080   24.0510 C   0  0  0  0  0  3  0  0  0  0  0  0
  -21.9250   -4.5430   22.8570 C   0  0  0  0  0  0  0  0  0  0  0  0
  -22.2710   -3.9140   21.7070 F   0  0  0  0  0  0  0  0  0  0  0  0
  -21.3490   -3.7380   26.3890 F   0  0  0  0  0  0  0  0  0  0  0  0
  -22.9640  -13.1780   21.0280 C   0  0  0  0  0  0  0  0  0  0  0  0
  -22.2840  -12.5340   21.9700 N   0  0  0  0  0  0  0  0  0  0  0  0
  -22.5200  -14.2020   20.5120 O   0  0  0  0  0  0  0  0  0  0  0  0
  -22.6550  -11.7040   22.4080 H   0  0  0  0  0  0  0  0  0  0  0  0
  -21.3780  -12.8750   22.2570 H   0  0  0  0  0  0  0  0  0  0  0  0
  -25.5730  -14.7220   19.9520 N   0  0  0  0  0  0  0  0  0  0  0  0
  -24.8440  -15.4090   20.1140 H   0  0  0  0  0  0  0  0  0  0  0  0
  -26.4470  -15.1340   19.6510 H   0  0  0  0  0  0  0  0  0  0  0  0
  -30.7580  -17.7460   15.8460 C   0  0  0  0  0  1  0  0  0  0  0  0
  -31.3870  -18.5990   16.9630 C   0  0  0  0  0  2  0  0  0  0  0  0
  2  3  1  1
  2  1  1  0
  4  2  1  0
  4  6  1  0
  6  5  1  0
  7  6  1  0
  7  8  1  0
  9  8  1  0
  9 10  1  0
 11 22  2  0
 12 10  1  0
 12 17  1  0
 13 21  1  0
 13 23  1  0
 14 16  1  0
 15 21  1  0
 16 17  2  0
 16 15  1  0
 18 12  2  0
 19 18  1  0
 19 14  2  0
 20 14  1  0
 20 13  1  0
 21 11  1  0
 23 25  2  0
 24 23  1  0
 26 24  1  0
 27 36  2  0
 27 32  1  0
 28 24  1  0
 28 32  1  0
 29 28  1  0
 30 31  1  0
 30 29  1  0
 31 27  1  0
 32 33  2  0
 33 34  1  0
 35 34  2  0
 36 35  1  0
 37 11  1  0
 37 42  1  0
 37 38  1  0
 38 41  1  1
 38 39  1  0
 40 38  1  0
 42 45  1  0
 43 47  1  0
 43 42  1  0
 44 43  2  0
 47 46  1  0
 49 47  1  0
 49 50  1  0
 49 48  1  0
 51 99  1  0
 51 56  1  0
 51  2  1  0
 52 53  1  0
 53 57  1  0
 54 52  2  0
 55 53  2  0
 55 61  1  0
 56 54  1  0
 56 59  2  0
 58 54  1  0
 59 55  1  0
 61 60  1  0
 62 68  1  0
 62 61  1  0
 63 68  1  0
 64 65  1  0
 64 63  1  0
 66 65  1  0
 66 73  1  0
 66 67  1  0
 68 67  1  0
 69 62  2  0
 70 71  2  0
 71 90  1  0
 72 71  1  0
 72 75  1  0
 73 70  1  0
 73 74  1  0
 74 72  2  0
 75 76  1  0
 76 77  2  0
 78 81  1  0
 78 77  1  0
 79 78  2  0
 80 79  1  0
 80 75  2  0
 81 82  1  0
 82 87  2  0
 82 83  1  0
 83 84  2  0
 84 85  1  0
 85 89  1  0
 86 85  2  0
 87 86  1  0
 88 87  1  0
 90 91  1  0
 91 94  1  0
 91 93  1  0
 92 90  2  0
 95 96  1  0
 95 70  1  0
 97 95  1  0
 98 99  1  0
M  ISO  4   9 101  10 101  61 100  62 100
M  END
>  <TORSDO>  (4) 
F 25

>  <SCORE>  (4) 
-11.152

>  <name>  (4) 
3

>  <ligand_id>  (4) 
3

>  <original_smiles>  (4) 
[H]c1c([H])c([H])c2c(c1[H])C([H])([H])C([H])([H])C([H])([H])C2([H])N([H])C(=O)C1([H])N(C(=O)C([H])(N([H])C(=O)C([H])(N([H])C([H])([H])[H])C([H])([H])[H])C(C([H])([H])[H])(C([H])([H])[H])C([H])([H])[H])C([H])([H])c2c([H])c(OC([H])([H])C([H])([H])C([H])([H])C([H])(C([H])([H])[H])C([H])([H])[N+]([H])(C([H])([H])[H])C([H])(c3nc(C([H])(C(=O)N4C([H])([H])C([H])([H])C([H])([H])C([H])(n5nc(-c6c([H])c([H])c(Oc7c([H])c([H])c(F)c([H])c7F)c([H])c6[H])c(C(=O)N([H])[H])c5N([H])[H])C4([H])[H])C([H])([H])[H])c(C([H])([H])[H])c([H])c3C([H])([H])[H])C([H])([H])C([H])([H])[H])c([H])c([H])c2C1([H])[H]

>  <smiles>  (4) 
[H]c1c([H])c([H])c2c(c1[H])C([H])([H])C([H])([H])C([H])([H])C2([H])N([H])C(=O)C1([H])N(C(=O)C([H])(N([H])C(=O)C([H])(N([H])C([H])([H])[H])C([H])([H])[H])C(C([H])([H])[H])(C([H])([H])[H])C([H])([H])[H])C([H])([H])c2c([H])c(OC([H])([H])C([H])([H])C([H])([H])C([H])(C([H])([H])[H])C([H])([H])[N+]([H])(C([H])([H])[H])C([H])(c3nc(C([H])(C(=O)N4C([H])([H])C([H])([H])C([H])([H])C([H])(n5nc(-c6c([H])c([H])c(Oc7c([H])c([H])c(F)c([H])c7F)c([H])c6[H])c(C(=O)N([H])[H])c5N([H])[H])C4([H])[H])C([H])([H])[H])c(C([H])([H])[H])c([H])c3C([H])([H])[H])C([H])([H])C([H])([H])[H])c([H])c([H])c2C1([H])[H]

$$$$
4:0:0
     RDKit          3D

 97105  0  0  1  0  0  0  0  0999 V2000
  -28.9840  -21.8430   21.7320 C   0  0  0  0  0  3  0  0  0  0  0  0
  -29.7900  -19.2480   21.5250 C   0  0  0  0  0  3  0  0  0  0  0  0
  -28.8080  -21.2410   20.4660 C   0  0  0  0  0  0  0  0  0  0  0  0
  -29.2340  -19.8210   20.3560 C   0  0  0  0  0  0  0  0  0  0  0  0
  -29.5520  -21.1480   22.8040 C   0  0  0  0  0  0  0  0  0  0  0  0
  -29.9630  -19.8750   22.7040 N   0  0  0  0  0  0  0  0  0  0  0  0
  -28.1140  -22.2210   19.4260 C   0  0  0  0  0  2  0  0  0  0  0  0
  -28.4500  -23.8220   19.4020 C   0  0  0  0  0  3  0  0  0  0  0  0
  -27.2910  -24.9400   19.3040 C   0  0  0  0  0  3  0  0  0  0  0  0
  -27.5920  -26.4140   19.2470 O   0  0  0  0  0  0  0  0  0  0  0  0
  -24.5240  -31.7430   23.0920 C   0  0  0  0  0  0  0  0  0  0  0  0
  -26.5330  -27.3430   19.3780 C   0  0  0  0  0  0  0  0  0  0  0  0
  -23.0680  -30.5280   21.5130 C   0  0  0  0  0  3  0  0  0  0  0  0
  -24.2640  -29.0610   19.7870 C   0  0  0  0  0  0  0  0  0  0  0  0
  -25.5780  -30.7720   21.0330 C   0  0  0  0  0  2  0  0  0  0  0  0
  -25.5190  -29.4480   20.2730 C   0  0  0  0  0  0  0  0  0  0  0  0
  -26.6540  -28.6020   20.0600 C   0  0  0  0  0  3  0  0  0  0  0  0
  -25.2540  -27.0330   18.8610 C   0  0  0  0  0  3  0  0  0  0  0  0
  -24.1360  -27.8630   19.0690 C   0  0  0  0  0  3  0  0  0  0  0  0
  -23.0810  -29.9670   20.0650 C   0  0  0  0  0  2  0  0  0  0  0  0
  -24.4170  -31.0270   21.9340 N   0  0  0  0  0  0  0  0  0  0  0  0
  -23.5280  -32.0080   23.7810 O   0  0  0  0  0  0  0  0  0  0  0  0
  -22.4890  -29.4530   22.4660 C   0  0  0  0  0  0  0  0  0  0  0  0
  -21.1690  -29.2120   22.3770 N   0  0  0  0  0  0  0  0  0  0  0  0
  -23.2250  -28.8430   23.2450 O   0  0  0  0  0  0  0  0  0  0  0  0
  -20.6310  -29.7620   21.7210 H   0  0  0  0  0  0  0  0  0  0  0  0
  -17.9190  -27.6790   22.7990 C   0  0  0  0  0  0  0  0  0  0  0  0
  -20.4250  -28.2150   23.1480 C   0  0  0  0  0  3  0  0  0  0  0  0
  -20.6970  -26.7880   22.6180 C   0  0  0  0  0  2  0  0  0  0  0  0
  -19.6720  -26.3230   21.5780 C   0  0  0  0  0  2  0  0  0  0  0  0
  -18.2600  -26.3390   22.1700 C   0  0  0  0  0  2  0  0  0  0  0  0
  -18.9350  -28.5670   23.2440 C   0  0  0  0  0  0  0  0  0  0  0  0
  -18.5630  -29.8150   23.7910 C   0  0  0  0  0  3  0  0  0  0  0  0
  -17.2080  -30.1790   23.8980 C   0  0  0  0  0  3  0  0  0  0  0  0
  -16.2060  -29.2910   23.4690 C   0  0  0  0  0  3  0  0  0  0  0  0
  -16.5610  -28.0430   22.9260 C   0  0  0  0  0  3  0  0  0  0  0  0
  -25.8990  -32.2820   23.5940 C   0  0  0  0  0  3  0  0  0  0  0  0
  -26.5470  -31.3800   24.7160 C   0  0  1  0  0  0  0  0  0  0  0  0
  -25.5900  -31.0660   25.8900 C   0  0  0  0  0  1  0  0  0  0  0  0
  -27.0290  -30.0340   24.1290 C   0  0  0  0  0  1  0  0  0  0  0  0
  -27.7960  -32.0820   25.2970 C   0  0  0  0  0  1  0  0  0  0  0  0
  -25.6860  -33.6490   24.0900 N   0  0  0  0  0  0  0  0  0  0  0  0
  -26.0070  -34.7620   23.4170 C   0  0  0  0  0  0  0  0  0  0  0  0
  -26.5840  -34.7420   22.3260 O   0  0  0  0  0  0  0  0  0  0  0  0
  -25.1650  -33.7430   24.9490 H   0  0  0  0  0  0  0  0  0  0  0  0
  -24.3610  -36.6670   23.3840 C   0  0  0  0  0  1  0  0  0  0  0  0
  -25.6280  -36.1140   24.0550 C   0  0  0  0  0  3  0  0  0  0  0  0
  -27.8620  -36.7970   24.8160 C   0  0  0  0  0  1  0  0  0  0  0  0
  -26.7080  -37.1220   23.9820 N   0  0  0  0  0  0  0  0  0  0  0  0
  -26.3640  -38.0380   24.2590 H   0  0  0  0  0  0  0  0  0  0  0  0
  -29.7330  -21.8300   24.1490 C   0  0  0  0  0  2  0  0  0  0  0  0
  -31.2060  -23.3680   25.5700 C   0  0  0  0  0  1  0  0  0  0  0  0
  -31.0650  -22.5930   24.2520 C   0  0  0  0  0  2  0  0  0  0  0  0
  -29.1270  -18.7850   19.1500 C   0  0  0  0  0  3  0  0  0  0  0  0
  -29.4600  -19.5150   17.9130 N   0  0  0  0  0  4  0  0  0  0  0  0
  -30.3920  -19.8900   17.9480 H   0  0  0  0  0  0  0  0  0  0  0  0
  -28.8070  -20.2600   17.7540 H   0  0  0  0  0  0  0  0  0  0  0  0
  -29.3990  -18.8920   17.1260 H   0  0  0  0  0  0  0  0  0  0  0  0
  -30.0330  -17.4140   19.1400 C   0  0  0  0  0  2  0  0  0  0  0  0
  -30.3160  -14.8420   19.3080 C   0  0  0  0  0  0  0  0  0  0  0  0
  -30.1490  -12.4460   18.6360 C   0  0  0  0  0  2  0  0  0  0  0  0
  -29.0820  -12.2890   17.5340 C   0  0  0  0  0  2  0  0  0  0  0  0
  -27.6930  -12.0740   18.1610 C   0  0  0  0  0  2  0  0  0  0  0  0
  -27.3850  -13.0980   19.2870 C   0  0  0  0  0  3  0  0  0  0  0  0
  -28.5660  -13.2580   20.2670 C   0  0  0  0  0  2  0  0  0  0  0  0
  -29.7500  -13.6000   19.4740 N   0  0  0  0  0  0  0  0  0  0  0  0
  -31.4540  -14.9290   18.8370 O   0  0  0  0  0  0  0  0  0  0  0  0
  -29.5510  -15.9910   19.4540 N   0  0  0  0  0  0  0  0  0  0  0  0
  -28.6050  -15.8730   19.7830 H   0  0  0  0  0  0  0  0  0  0  0  0
  -25.1700  -13.6600   20.4500 C   0  0  0  0  0  0  0  0  0  0  0  0
  -24.1660  -12.8740   20.9440 C   0  0  0  0  0  0  0  0  0  0  0  0
  -24.5880  -11.5230   20.7490 C   0  0  0  0  0  0  0  0  0  0  0  0
  -26.1380  -12.7880   19.9820 N   0  0  0  0  0  0  0  0  0  0  0  0
  -25.8080  -11.4930   20.2260 N   0  0  0  0  0  0  0  0  0  0  0  0
  -23.8770  -10.2580   20.9790 C   0  0  0  0  0  0  0  0  0  0  0  0
  -24.3830   -9.2770   21.8590 C   0  0  0  0  0  3  0  0  0  0  0  0
  -23.6740   -8.0770   22.0780 C   0  0  0  0  0  3  0  0  0  0  0  0
  -22.4420   -7.8510   21.4210 C   0  0  0  0  0  0  0  0  0  0  0  0
  -21.9530   -8.8200   20.5280 C   0  0  0  0  0  3  0  0  0  0  0  0
  -22.6630  -10.0120   20.3070 C   0  0  0  0  0  3  0  0  0  0  0  0
  -21.6970   -6.7040   21.5530 O   0  0  0  0  0  0  0  0  0  0  0  0
  -21.6690   -5.9940   22.7260 C   0  0  0  0  0  0  0  0  0  0  0  0
  -21.2440   -6.5770   23.9420 C   0  0  0  0  0  3  0  0  0  0  0  0
  -21.1660   -5.7930   25.1090 C   0  0  0  0  0  3  0  0  0  0  0  0
  -21.5000   -4.4260   25.0640 C   0  0  0  0  0  0  0  0  0  0  0  0
  -21.9150   -3.8420   23.8530 C   0  0  0  0  0  3  0  0  0  0  0  0
  -21.9970   -4.6240   22.6880 C   0  0  0  0  0  0  0  0  0  0  0  0
  -22.3780   -4.0520   21.5210 F   0  0  0  0  0  0  0  0  0  0  0  0
  -21.4150   -3.6690   26.1830 F   0  0  0  0  0  0  0  0  0  0  0  0
  -22.8420  -13.3460   21.4720 C   0  0  0  0  0  0  0  0  0  0  0  0
  -22.2620  -12.6090   22.4120 N   0  0  0  0  0  0  0  0  0  0  0  0
  -22.3400  -14.4020   21.0890 O   0  0  0  0  0  0  0  0  0  0  0  0
  -22.6860  -11.7550   22.7390 H   0  0  0  0  0  0  0  0  0  0  0  0
  -21.3790  -12.9010   22.8040 H   0  0  0  0  0  0  0  0  0  0  0  0
  -25.3320  -15.0370   20.3300 N   0  0  0  0  0  0  0  0  0  0  0  0
  -24.5970  -15.6870   20.5870 H   0  0  0  0  0  0  0  0  0  0  0  0
  -26.1020  -15.4790   19.8450 H   0  0  0  0  0  0  0  0  0  0  0  0
  1  5  1  0
  2  6  1  0
  3  1  2  0
  4  3  1  0
  4  2  2  0
  5 51  1  0
  6  5  2  0
  7  3  1  0
  8  7  1  0
  9  8  2  0
 10  9  1  0
 10 12  1  0
 11 22  2  0
 12 17  1  0
 13 21  1  0
 13 23  1  0
 14 20  1  0
 14 16  1  0
 15 21  1  0
 16 15  1  0
 17 16  2  0
 18 19  1  0
 18 12  2  0
 19 14  2  0
 20 13  1  0
 21 11  1  0
 23 25  2  0
 24 23  1  0
 26 24  1  0
 27 36  2  0
 27 32  1  0
 28 24  1  0
 28 32  1  0
 29 28  1  0
 30 31  1  0
 30 29  1  0
 31 27  1  0
 32 33  2  0
 33 34  1  0
 35 34  2  0
 36 35  1  0
 37 11  1  0
 37 42  1  0
 37 38  1  0
 38 41  1  1
 38 39  1  0
 40 38  1  0
 42 45  1  0
 43 47  1  0
 43 42  1  0
 44 43  2  0
 47 46  1  0
 49 47  1  0
 49 50  1  0
 49 48  1  0
 51 53  1  0
 53 52  1  0
 54 59  1  0
 54  4  1  0
 55 56  1  0
 55 54  1  0
 57 55  1  0
 58 55  1  0
 59 68  1  0
 60 68  1  0
 60 66  1  0
 61 66  1  0
 62 63  1  0
 62 61  1  0
 64 63  1  0
 64 73  1  0
 64 65  1  0
 66 65  1  0
 67 60  2  0
 68 69  1  0
 70 71  2  0
 71 90  1  0
 72 71  1  0
 72 75  1  0
 73 74  1  0
 73 70  1  0
 74 72  2  0
 75 76  1  0
 76 77  2  0
 78 81  1  0
 78 77  1  0
 79 78  2  0
 80 79  1  0
 80 75  2  0
 81 82  1  0
 82 83  1  0
 83 84  2  0
 85 84  1  0
 85 89  1  0
 86 85  2  0
 87 82  2  0
 87 86  1  0
 88 87  1  0
 90 91  1  0
 91 93  1  0
 91 94  1  0
 92 90  2  0
 95 70  1  0
 95 96  1  0
 97 95  1  0
M  ISO  4   9 101  10 101  60 100  68 100
M  END
>  <TORSDO>  (5) 
F 24

>  <SCORE>  (5) 
-7.479

>  <name>  (5) 
4

>  <ligand_id>  (5) 
4

>  <original_smiles>  (5) 
[H]c1nc(C([H])([H])C([H])([H])C([H])([H])[H])c([H])c(C([H])([H])C([H])([H])C([H])([H])Oc2c([H])c([H])c3c(c2[H])C([H])([H])N(C(=O)C([H])(N([H])C(=O)C([H])(N([H])C([H])([H])[H])C([H])([H])[H])C(C([H])([H])[H])(C([H])([H])[H])C([H])([H])[H])C([H])(C(=O)N([H])C2([H])c4c([H])c([H])c([H])c([H])c4C([H])([H])C([H])([H])C2([H])[H])C3([H])[H])c1C([H])(C([H])([H])N([H])C(=O)N1C([H])([H])C([H])([H])C([H])([H])C([H])(n2nc(-c3c([H])c([H])c(Oc4c([H])c([H])c(F)c([H])c4F)c([H])c3[H])c(C(=O)N([H])[H])c2N([H])[H])C1([H])[H])[N+]([H])([H])[H]

>  <smiles>  (5) 
[H]c1nc(C([H])([H])C([H])([H])C([H])([H])[H])c([H])c(C([H])([H])C([H])([H])C([H])([H])Oc2c([H])c([H])c3c(c2[H])C([H])([H])N(C(=O)C([H])(N([H])C(=O)C([H])(N([H])C([H])([H])[H])C([H])([H])[H])C(C([H])([H])[H])(C([H])([H])[H])C([H])([H])[H])C([H])(C(=O)N([H])C2([H])c4c([H])c([H])c([H])c([H])c4C([H])([H])C([H])([H])C2([H])[H])C3([H])[H])c1C([H])(C([H])([H])N([H])C(=O)N1C([H])([H])C([H])([H])C([H])([H])C([H])(n2nc(-c3c([H])c([H])c(Oc4c([H])c([H])c(F)c([H])c4F)c([H])c3[H])c(C(=O)N([H])[H])c2N([H])[H])C1([H])[H])[N+]([H])([H])[H]

$$$$
5:0:0
     RDKit          3D

 89 97  0  0  1  0  0  0  0  0999 V2000
  -28.6160  -22.5540   19.1370 C   0  0  0  0  0  3  0  0  0  0  0  0
  -28.8870  -21.1360   19.1330 C   0  0  0  0  0  3  0  0  0  0  0  0
  -28.6370  -23.3490   20.3240 C   0  0  0  0  0  0  0  0  0  0  0  0
  -29.2060  -20.4090   20.3160 C   0  0  0  0  0  0  0  0  0  0  0  0
  -29.0520  -22.5580   21.4510 C   0  0  0  0  0  0  0  0  0  0  0  0
  -29.1310  -23.1950   22.8230 C   0  0  0  0  0  1  0  0  0  0  0  0
  -29.3180  -21.1890   21.4410 N   0  0  0  0  0  0  0  0  0  0  0  0
  -27.8340  -24.7720   20.4280 C   0  0  0  0  0  2  0  0  0  0  0  0
  -28.2940  -26.2310   20.2250 O   0  0  0  0  0  0  0  0  0  0  0  0
  -24.6680  -31.8790   23.2480 C   0  0  0  0  0  0  0  0  0  0  0  0
  -27.2590  -27.2310   20.1650 C   0  0  0  0  0  0  0  0  0  0  0  0
  -23.4750  -30.5060   21.5870 C   0  0  0  0  0  3  0  0  0  0  0  0
  -24.9300  -28.9650   20.1480 C   0  0  0  0  0  0  0  0  0  0  0  0
  -26.0300  -30.7790   21.4400 C   0  0  0  0  0  2  0  0  0  0  0  0
  -26.1070  -29.3990   20.7720 C   0  0  0  0  0  0  0  0  0  0  0  0
  -27.2730  -28.5470   20.7730 C   0  0  0  0  0  3  0  0  0  0  0  0
  -26.0630  -26.9160   19.4760 C   0  0  0  0  0  3  0  0  0  0  0  0
  -24.9200  -27.7340   19.4860 C   0  0  0  0  0  3  0  0  0  0  0  0
  -23.7020  -29.8550   20.2000 C   0  0  0  0  0  2  0  0  0  0  0  0
  -24.7440  -31.0740   22.1460 N   0  0  0  0  0  0  0  0  0  0  0  0
  -23.5780  -32.1560   23.7740 O   0  0  0  0  0  0  0  0  0  0  0  0
  -22.7960  -29.4800   22.5300 C   0  0  0  0  0  0  0  0  0  0  0  0
  -21.4680  -29.3140   22.3970 N   0  0  0  0  0  0  0  0  0  0  0  0
  -23.4650  -28.8390   23.3430 O   0  0  0  0  0  0  0  0  0  0  0  0
  -20.9850  -29.8820   21.7160 H   0  0  0  0  0  0  0  0  0  0  0  0
  -18.0770  -28.1460   22.9010 C   0  0  0  0  0  0  0  0  0  0  0  0
  -20.6410  -28.3700   23.1540 C   0  0  0  0  0  3  0  0  0  0  0  0
  -20.7200  -26.9490   22.5480 C   0  0  0  0  0  2  0  0  0  0  0  0
  -19.6060  -26.6620   21.5360 C   0  0  0  0  0  2  0  0  0  0  0  0
  -18.2310  -26.8100   22.1950 C   0  0  0  0  0  2  0  0  0  0  0  0
  -19.2080  -28.8850   23.3380 C   0  0  0  0  0  0  0  0  0  0  0  0
  -19.0080  -30.1360   23.9610 C   0  0  0  0  0  3  0  0  0  0  0  0
  -17.7110  -30.6480   24.1510 C   0  0  0  0  0  3  0  0  0  0  0  0
  -16.5940  -29.9050   23.7290 C   0  0  0  0  0  3  0  0  0  0  0  0
  -16.7780  -28.6560   23.1110 C   0  0  0  0  0  3  0  0  0  0  0  0
  -25.9440  -32.5060   23.8870 C   0  0  0  0  0  3  0  0  0  0  0  0
  -26.4450  -31.7230   25.1630 C   0  0  1  0  0  0  0  0  0  0  0  0
  -25.3400  -31.4800   26.2180 C   0  0  0  0  0  1  0  0  0  0  0  0
  -27.0310  -30.3470   24.7710 C   0  0  0  0  0  1  0  0  0  0  0  0
  -27.5890  -32.5120   25.8440 C   0  0  0  0  0  1  0  0  0  0  0  0
  -25.6300  -33.9010   24.2290 N   0  0  0  0  0  0  0  0  0  0  0  0
  -25.9260  -34.9610   23.4630 C   0  0  0  0  0  0  0  0  0  0  0  0
  -26.5600  -34.8650   22.4090 O   0  0  0  0  0  0  0  0  0  0  0  0
  -25.0650  -34.0480   25.0530 H   0  0  0  0  0  0  0  0  0  0  0  0
  -24.1540  -36.7280   23.2030 C   0  0  0  0  0  1  0  0  0  0  0  0
  -25.4450  -36.3440   23.9430 C   0  0  0  0  0  3  0  0  0  0  0  0
  -27.6050  -37.2720   24.6540 C   0  0  0  0  0  1  0  0  0  0  0  0
  -26.4530  -37.4120   23.7670 N   0  0  0  0  0  0  0  0  0  0  0  0
  -26.0400  -38.3270   23.9270 H   0  0  0  0  0  0  0  0  0  0  0  0
  -29.0680  -18.7780   20.4370 C   0  0  0  0  0  3  0  0  0  0  0  0
  -30.2300  -17.6020   20.3240 C   0  0  0  0  0  3  0  0  0  0  0  0
  -30.6250  -14.9160   20.2030 C   0  0  0  0  0  0  0  0  0  0  0  0
  -30.4370  -12.6030   19.2210 C   0  0  0  0  0  2  0  0  0  0  0  0
  -29.4640  -12.6140   18.0190 C   0  0  0  0  0  2  0  0  0  0  0  0
  -28.0130  -12.4140   18.4920 C   0  0  0  0  0  2  0  0  0  0  0  0
  -27.6540  -13.3150   19.7040 C   0  0  0  0  0  3  0  0  0  0  0  0
  -28.7440  -13.2850   20.7950 C   0  0  0  0  0  2  0  0  0  0  0  0
  -30.0080  -13.6750   20.1580 N   0  0  0  0  0  0  0  0  0  0  0  0
  -31.8070  -14.9970   19.8530 O   0  0  0  0  0  0  0  0  0  0  0  0
  -29.8700  -16.0800   20.4330 N   0  0  0  0  0  0  0  0  0  0  0  0
  -28.9090  -15.8920   20.6800 H   0  0  0  0  0  0  0  0  0  0  0  0
  -25.2970  -13.8850   20.5320 C   0  0  0  0  0  0  0  0  0  0  0  0
  -24.2430  -13.1040   20.9190 C   0  0  0  0  0  0  0  0  0  0  0  0
  -24.7010  -11.7530   20.8390 C   0  0  0  0  0  0  0  0  0  0  0  0
  -26.3290  -13.0100   20.2360 N   0  0  0  0  0  0  0  0  0  0  0  0
  -25.9810  -11.7220   20.4850 N   0  0  0  0  0  0  0  0  0  0  0  0
  -23.9760  -10.4880   21.0210 C   0  0  0  0  0  0  0  0  0  0  0  0
  -24.4010   -9.5210   21.9580 C   0  0  0  0  0  3  0  0  0  0  0  0
  -23.6750   -8.3230   22.1290 C   0  0  0  0  0  3  0  0  0  0  0  0
  -22.5110   -8.0820   21.3610 C   0  0  0  0  0  0  0  0  0  0  0  0
  -22.1050   -9.0370   20.4130 C   0  0  0  0  0  3  0  0  0  0  0  0
  -22.8320  -10.2280   20.2410 C   0  0  0  0  0  3  0  0  0  0  0  0
  -21.7570   -6.9360   21.4420 O   0  0  0  0  0  0  0  0  0  0  0  0
  -21.6510   -6.2240   22.6100 C   0  0  0  0  0  0  0  0  0  0  0  0
  -21.1240   -6.7980   23.7870 C   0  0  0  0  0  3  0  0  0  0  0  0
  -20.9680   -6.0110   24.9450 C   0  0  0  0  0  3  0  0  0  0  0  0
  -21.3300   -4.6510   24.9270 C   0  0  0  0  0  0  0  0  0  0  0  0
  -21.8500   -4.0760   23.7540 C   0  0  0  0  0  3  0  0  0  0  0  0
  -22.0070   -4.8600   22.5980 C   0  0  0  0  0  0  0  0  0  0  0  0
  -22.4890   -4.2960   21.4650 F   0  0  0  0  0  0  0  0  0  0  0  0
  -21.1720   -3.8920   26.0370 F   0  0  0  0  0  0  0  0  0  0  0  0
  -22.8570  -13.5780   21.2460 C   0  0  0  0  0  0  0  0  0  0  0  0
  -22.1570  -12.8670   22.1240 N   0  0  0  0  0  0  0  0  0  0  0  0
  -22.4040  -14.6140   20.7610 O   0  0  0  0  0  0  0  0  0  0  0  0
  -22.5380  -12.0290   22.5380 H   0  0  0  0  0  0  0  0  0  0  0  0
  -21.2290  -13.1660   22.3850 H   0  0  0  0  0  0  0  0  0  0  0  0
  -25.4590  -15.2600   20.3820 N   0  0  0  0  0  0  0  0  0  0  0  0
  -24.6930  -15.9090   20.5260 H   0  0  0  0  0  0  0  0  0  0  0  0
  -26.2840  -15.7010   19.9960 H   0  0  0  0  0  0  0  0  0  0  0  0
  1  3  1  0
  2  1  2  0
  2  4  1  0
  3  8  1  0
  3  5  2  0
  4 50  1  0
  4  7  2  0
  5  6  1  0
  7  5  1  0
  9  8  1  0
 10 21  2  0
 11  9  1  0
 11 16  1  0
 12 20  1  0
 12 22  1  0
 13 19  1  0
 13 15  1  0
 14 20  1  0
 15 16  2  0
 15 14  1  0
 17 18  1  0
 17 11  2  0
 18 13  2  0
 19 12  1  0
 20 10  1  0
 22 24  2  0
 23 22  1  0
 25 23  1  0
 26 35  2  0
 26 31  1  0
 27 23  1  0
 27 31  1  0
 28 27  1  0
 29 30  1  0
 29 28  1  0
 30 26  1  0
 31 32  2  0
 32 33  1  0
 34 33  2  0
 35 34  1  0
 36 10  1  0
 36 41  1  0
 36 37  1  0
 37 40  1  1
 37 38  1  0
 39 37  1  0
 41 44  1  0
 42 46  1  0
 42 41  1  0
 43 42  2  0
 46 45  1  0
 48 49  1  0
 48 46  1  0
 48 47  1  0
 51 60  1  0
 51 50  2  0
 52 60  1  0
 53 58  1  0
 54 55  1  0
 54 53  1  0
 56 55  1  0
 56 65  1  0
 56 57  1  0
 58 52  1  0
 58 57  1  0
 59 52  2  0
 60 61  1  0
 62 63  2  0
 63 82  1  0
 64 63  1  0
 64 67  1  0
 65 66  1  0
 65 62  1  0
 66 64  2  0
 67 68  1  0
 68 69  2  0
 70 73  1  0
 70 69  1  0
 71 70  2  0
 72 71  1  0
 72 67  2  0
 73 74  1  0
 74 75  1  0
 75 76  2  0
 77 76  1  0
 77 81  1  0
 78 77  2  0
 79 74  2  0
 79 78  1  0
 80 79  1  0
 82 83  1  0
 83 86  1  0
 83 85  1  0
 84 82  2  0
 87 88  1  0
 87 62  1  0
 89 87  1  0
M  ISO  4   8 101   9 101  52 100  60 100
M  END
>  <TORSDO>  (6) 
F 19

>  <SCORE>  (6) 
-14.093

>  <name>  (6) 
5

>  <ligand_id>  (6) 
5

>  <original_smiles>  (6) 
[H]c1c(C([H])([H])C([H])([H])N([H])C(=O)N2C([H])([H])C([H])([H])C([H])([H])C([H])(n3nc(-c4c([H])c([H])c(Oc5c([H])c([H])c(F)c([H])c5F)c([H])c4[H])c(C(=O)N([H])[H])c3N([H])[H])C2([H])[H])nc(C([H])([H])[H])c(C([H])([H])Oc2c([H])c([H])c3c(c2[H])C([H])([H])N(C(=O)C([H])(N([H])C(=O)C([H])(N([H])C([H])([H])[H])C([H])([H])[H])C(C([H])([H])[H])(C([H])([H])[H])C([H])([H])[H])C([H])(C(=O)N([H])C2([H])c4c([H])c([H])c([H])c([H])c4C([H])([H])C([H])([H])C2([H])[H])C3([H])[H])c1[H]

>  <smiles>  (6) 
[H]c1c(C([H])([H])C([H])([H])N([H])C(=O)N2C([H])([H])C([H])([H])C([H])([H])C([H])(n3nc(-c4c([H])c([H])c(Oc5c([H])c([H])c(F)c([H])c5F)c([H])c4[H])c(C(=O)N([H])[H])c3N([H])[H])C2([H])[H])nc(C([H])([H])[H])c(C([H])([H])Oc2c([H])c([H])c3c(c2[H])C([H])([H])N(C(=O)C([H])(N([H])C(=O)C([H])(N([H])C([H])([H])[H])C([H])([H])[H])C(C([H])([H])[H])(C([H])([H])[H])C([H])([H])[H])C([H])(C(=O)N([H])C2([H])c4c([H])c([H])c([H])c([H])c4C([H])([H])C([H])([H])C2([H])[H])C3([H])[H])c1[H]

$$$$
6:0:0
     RDKit          3D

 92100  0  0  1  0  0  0  0  0999 V2000
  -29.2240  -21.3400   20.3240 C   0  0  0  0  0  3  0  0  0  0  0  0
  -28.8940  -19.9570   19.9280 C   0  0  0  0  0  0  0  0  0  0  0  0
  -28.1290  -22.1910   20.0560 C   0  0  0  0  0  0  0  0  0  0  0  0
  -27.6480  -19.9920   19.4900 N   0  0  0  0  0  0  0  0  0  0  0  0
  -27.2110  -21.2820   19.5190 N   0  0  0  0  0  0  0  0  0  0  0  0
  -25.9800  -21.5560   17.3860 C   0  0  0  0  0  1  0  0  0  0  0  0
  -25.8970  -21.5220   18.9240 C   0  0  0  0  0  2  0  0  0  0  0  0
  -31.0270  -18.8210   18.9810 C   0  0  0  0  0  1  0  0  0  0  0  0
  -29.6750  -18.5620   19.6800 C   0  0  0  0  0  3  0  0  0  0  0  0
  -29.8330  -17.3910   20.8030 C   0  0  0  0  0  2  0  0  0  0  0  0
  -30.5520  -14.8080   20.2810 C   0  0  0  0  0  0  0  0  0  0  0  0
  -30.3980  -12.5320   19.2330 C   0  0  0  0  0  2  0  0  0  0  0  0
  -29.4380  -12.5880   18.0230 C   0  0  0  0  0  2  0  0  0  0  0  0
  -27.9730  -12.4160   18.4740 C   0  0  0  0  0  2  0  0  0  0  0  0
  -27.6130  -13.3010   19.6950 C   0  0  0  0  0  3  0  0  0  0  0  0
  -28.6780  -13.1920   20.8030 C   0  0  0  0  0  2  0  0  0  0  0  0
  -29.9600  -13.5670   20.1960 N   0  0  0  0  0  0  0  0  0  0  0  0
  -31.7540  -14.9410   20.0300 O   0  0  0  0  0  0  0  0  0  0  0  0
  -29.6980  -15.8940   20.4510 N   0  0  0  0  0  0  0  0  0  0  0  0
  -28.7400  -15.5880   20.4850 H   0  0  0  0  0  0  0  0  0  0  0  0
  -25.2300  -13.9070   20.4170 C   0  0  0  0  0  0  0  0  0  0  0  0
  -24.1620  -13.1390   20.7920 C   0  0  0  0  0  0  0  0  0  0  0  0
  -24.6240  -11.7860   20.7800 C   0  0  0  0  0  0  0  0  0  0  0  0
  -26.2700  -13.0230   20.1900 N   0  0  0  0  0  0  0  0  0  0  0  0
  -25.9140  -11.7440   20.4720 N   0  0  0  0  0  0  0  0  0  0  0  0
  -23.8990  -10.5280   20.9810 C   0  0  0  0  0  0  0  0  0  0  0  0
  -24.3300   -9.5700   21.9240 C   0  0  0  0  0  3  0  0  0  0  0  0
  -23.6050   -8.3750   22.1140 C   0  0  0  0  0  3  0  0  0  0  0  0
  -22.4330   -8.1310   21.3600 C   0  0  0  0  0  0  0  0  0  0  0  0
  -22.0200   -9.0780   20.4060 C   0  0  0  0  0  3  0  0  0  0  0  0
  -22.7460  -10.2640   20.2160 C   0  0  0  0  0  3  0  0  0  0  0  0
  -21.6790   -6.9860   21.4570 O   0  0  0  0  0  0  0  0  0  0  0  0
  -21.6300   -6.2520   22.6140 C   0  0  0  0  0  0  0  0  0  0  0  0
  -21.2030   -6.8160   23.8360 C   0  0  0  0  0  3  0  0  0  0  0  0
  -21.1040   -6.0090   24.9870 C   0  0  0  0  0  3  0  0  0  0  0  0
  -21.4210   -4.6390   24.9170 C   0  0  0  0  0  0  0  0  0  0  0  0
  -21.8410   -4.0750   23.6990 C   0  0  0  0  0  3  0  0  0  0  0  0
  -21.9420   -4.8800   22.5510 C   0  0  0  0  0  0  0  0  0  0  0  0
  -22.3280   -4.3260   21.3750 F   0  0  0  0  0  0  0  0  0  0  0  0
  -21.3180   -3.8610   26.0200 F   0  0  0  0  0  0  0  0  0  0  0  0
  -22.7650  -13.6210   21.0550 C   0  0  0  0  0  0  0  0  0  0  0  0
  -22.0360  -12.9340   21.9250 N   0  0  0  0  0  0  0  0  0  0  0  0
  -22.3320  -14.6420   20.5220 O   0  0  0  0  0  0  0  0  0  0  0  0
  -22.4030  -12.1080   22.3740 H   0  0  0  0  0  0  0  0  0  0  0  0
  -21.1010  -13.2410   22.1480 H   0  0  0  0  0  0  0  0  0  0  0  0
  -25.3940  -15.2770   20.2240 N   0  0  0  0  0  0  0  0  0  0  0  0
  -24.6150  -15.9190   20.3250 H   0  0  0  0  0  0  0  0  0  0  0  0
  -26.2140  -15.7150   19.8320 H   0  0  0  0  0  0  0  0  0  0  0  0
  -26.7580  -23.8620   21.4440 C   0  0  0  0  0  1  0  0  0  0  0  0
  -27.6830  -23.7380   20.2120 C   0  0  0  0  0  3  0  0  0  0  0  0
  -28.6940  -25.0060   20.2560 C   0  0  0  0  0  2  0  0  0  0  0  0
  -28.4270  -26.5070   20.1680 O   0  0  0  0  0  0  0  0  0  0  0  0
  -24.6080  -31.8820   23.2320 C   0  0  0  0  0  0  0  0  0  0  0  0
  -27.2390  -27.2750   20.1950 C   0  0  0  0  0  0  0  0  0  0  0  0
  -23.4150  -30.4860   21.5820 C   0  0  0  0  0  3  0  0  0  0  0  0
  -24.8680  -28.9150   20.1710 C   0  0  0  0  0  0  0  0  0  0  0  0
  -25.9560  -30.7880   21.4190 C   0  0  0  0  0  2  0  0  0  0  0  0
  -26.0360  -29.4010   20.7700 C   0  0  0  0  0  0  0  0  0  0  0  0
  -27.2190  -28.5990   20.7580 C   0  0  0  0  0  3  0  0  0  0  0  0
  -26.0430  -26.8400   19.5840 C   0  0  0  0  0  3  0  0  0  0  0  0
  -24.8750  -27.6420   19.5720 C   0  0  0  0  0  3  0  0  0  0  0  0
  -23.6380  -29.8040   20.2070 C   0  0  0  0  0  2  0  0  0  0  0  0
  -24.6800  -31.0710   22.1350 N   0  0  0  0  0  0  0  0  0  0  0  0
  -23.5220  -32.1630   23.7590 O   0  0  0  0  0  0  0  0  0  0  0  0
  -22.7410  -29.4760   22.5410 C   0  0  0  0  0  0  0  0  0  0  0  0
  -21.4150  -29.3050   22.4070 N   0  0  0  0  0  0  0  0  0  0  0  0
  -23.4150  -28.8470   23.3630 O   0  0  0  0  0  0  0  0  0  0  0  0
  -20.9330  -29.8650   21.7180 H   0  0  0  0  0  0  0  0  0  0  0  0
  -18.0330  -28.1130   22.9100 C   0  0  0  0  0  0  0  0  0  0  0  0
  -20.5930  -28.3640   23.1730 C   0  0  0  0  0  3  0  0  0  0  0  0
  -20.6870  -26.9360   22.5890 C   0  0  0  0  0  2  0  0  0  0  0  0
  -19.5820  -26.6230   21.5720 C   0  0  0  0  0  2  0  0  0  0  0  0
  -18.2030  -26.7690   22.2200 C   0  0  0  0  0  2  0  0  0  0  0  0
  -19.1550  -28.8680   23.3410 C   0  0  0  0  0  0  0  0  0  0  0  0
  -18.9450  -30.1260   23.9470 C   0  0  0  0  0  3  0  0  0  0  0  0
  -17.6420  -30.6330   24.1160 C   0  0  0  0  0  3  0  0  0  0  0  0
  -16.5340  -29.8770   23.6960 C   0  0  0  0  0  3  0  0  0  0  0  0
  -16.7300  -28.6170   23.1040 C   0  0  0  0  0  3  0  0  0  0  0  0
  -25.8880  -32.5110   23.8640 C   0  0  0  0  0  3  0  0  0  0  0  0
  -25.5770  -33.9110   24.1890 N   0  0  0  0  0  0  0  0  0  0  0  0
  -25.9180  -34.9630   23.4330 C   0  0  0  0  0  0  0  0  0  0  0  0
  -26.5960  -34.8580   22.4080 O   0  0  0  0  0  0  0  0  0  0  0  0
  -24.9590  -34.0630   24.9750 H   0  0  0  0  0  0  0  0  0  0  0  0
  -24.1950  -36.7660   23.0770 C   0  0  0  0  0  1  0  0  0  0  0  0
  -25.4330  -36.3550   23.8870 C   0  0  0  0  0  3  0  0  0  0  0  0
  -27.5690  -37.2330   24.7280 C   0  0  0  0  0  1  0  0  0  0  0  0
  -26.4730  -37.4020   23.7780 N   0  0  0  0  0  0  0  0  0  0  0  0
  -26.0690  -38.3230   23.9270 H   0  0  0  0  0  0  0  0  0  0  0  0
  -26.3920  -31.7450   25.1500 C   0  0  1  0  0  0  0  0  0  0  0  0
  -25.2850  -31.5100   26.2070 C   0  0  0  0  0  1  0  0  0  0  0  0
  -26.9780  -30.3640   24.7730 C   0  0  0  0  0  1  0  0  0  0  0  0
  -27.5390  -32.5420   25.8130 C   0  0  0  0  0  1  0  0  0  0  0  0
  2  1  1  0
  3 50  1  0
  3  1  2  0
  4  5  1  0
  4  2  2  0
  5  3  1  0
  6  7  1  0
  7  5  1  0
  9  8  1  0
  9  2  1  0
  9 10  1  0
 11 19  1  0
 12 17  1  0
 13 14  1  0
 13 12  1  0
 15 14  1  0
 15 24  1  0
 15 16  1  0
 17 11  1  0
 17 16  1  0
 18 11  2  0
 19 20  1  0
 19 10  1  0
 21 22  2  0
 22 41  1  0
 23 22  1  0
 23 26  1  0
 24 21  1  0
 24 25  1  0
 25 23  2  0
 26 27  1  0
 27 28  2  0
 29 32  1  0
 29 28  1  0
 30 29  2  0
 31 30  1  0
 31 26  2  0
 32 33  1  0
 33 34  1  0
 34 35  2  0
 36 35  1  0
 36 40  1  0
 37 36  2  0
 38 33  2  0
 38 37  1  0
 39 38  1  0
 41 42  1  0
 42 45  1  0
 42 44  1  0
 43 41  2  0
 46 47  1  0
 46 21  1  0
 48 46  1  0
 50 51  1  0
 50 49  1  0
 52 54  1  0
 52 51  1  0
 53 64  2  0
 54 59  1  0
 55 63  1  0
 55 65  1  0
 56 62  1  0
 56 58  1  0
 57 63  1  0
 58 57  1  0
 59 58  2  0
 60 54  2  0
 61 60  1  0
 61 56  2  0
 62 55  1  0
 63 53  1  0
 65 67  2  0
 66 65  1  0
 68 66  1  0
 69 78  2  0
 69 74  1  0
 70 66  1  0
 70 74  1  0
 71 70  1  0
 72 73  1  0
 72 71  1  0
 73 69  1  0
 74 75  2  0
 75 76  1  0
 77 76  2  0
 78 77  1  0
 79 53  1  0
 79 80  1  0
 79 89  1  0
 80 83  1  0
 81 85  1  0
 81 80  1  0
 82 81  2  0
 85 84  1  0
 87 85  1  0
 87 88  1  0
 87 86  1  0
 89 92  1  1
 89 90  1  0
 91 89  1  0
M  ISO  4  11 100  19 100  51 101  52 101
M  END
>  <TORSDO>  (7) 
F 21

>  <SCORE>  (7) 
-13.249

>  <name>  (7) 
6

>  <ligand_id>  (7) 
6

>  <original_smiles>  (7) 
[H]c1c([H])c([H])c2c(c1[H])C([H])([H])C([H])([H])C([H])([H])C2([H])N([H])C(=O)C1([H])N(C(=O)C([H])(N([H])C(=O)C([H])(N([H])C([H])([H])[H])C([H])([H])[H])C(C([H])([H])[H])(C([H])([H])[H])C([H])([H])[H])C([H])([H])c2c([H])c(OC([H])([H])C([H])(c3c([H])c(C([H])(C([H])([H])[H])C([H])([H])N([H])C(=O)N4C([H])([H])C([H])([H])C([H])([H])C([H])(n5nc(-c6c([H])c([H])c(Oc7c([H])c([H])c(F)c([H])c7F)c([H])c6[H])c(C(=O)N([H])[H])c5N([H])[H])C4([H])[H])nn3C([H])([H])C([H])([H])[H])C([H])([H])[H])c([H])c([H])c2C1([H])[H]

>  <smiles>  (7) 
[H]c1c([H])c([H])c2c(c1[H])C([H])([H])C([H])([H])C([H])([H])C2([H])N([H])C(=O)C1([H])N(C(=O)C([H])(N([H])C(=O)C([H])(N([H])C([H])([H])[H])C([H])([H])[H])C(C([H])([H])[H])(C([H])([H])[H])C([H])([H])[H])C([H])([H])c2c([H])c(OC([H])([H])C([H])(c3c([H])c(C([H])(C([H])([H])[H])C([H])([H])N([H])C(=O)N4C([H])([H])C([H])([H])C([H])([H])C([H])(n5nc(-c6c([H])c([H])c(Oc7c([H])c([H])c(F)c([H])c7F)c([H])c6[H])c(C(=O)N([H])[H])c5N([H])[H])C4([H])[H])nn3C([H])([H])C([H])([H])[H])C([H])([H])[H])c([H])c([H])c2C1([H])[H]

$$$$
7:0:0
     RDKit          3D

 91 99  0  0  1  0  0  0  0  0999 V2000
  -30.0650  -20.0710   19.6730 C   0  0  0  0  0  3  0  0  0  0  0  0
  -29.0670  -21.1000   19.4870 C   0  0  0  0  0  0  0  0  0  0  0  0
  -29.7070  -18.6780   19.8260 C   0  0  0  0  0  0  0  0  0  0  0  0
  -27.7430  -20.5790   19.4480 C   0  0  0  0  0  0  0  0  0  0  0  0
  -26.5350  -21.4130   19.0680 C   0  0  0  0  0  1  0  0  0  0  0  0
  -28.3990  -18.3330   19.8460 N   0  0  0  0  0  0  0  0  0  0  0  0
  -27.4520  -19.2630   19.6590 N   0  0  0  0  0  0  0  0  0  0  0  0
  -29.4220  -22.5970   19.0810 C   0  0  0  0  0  2  0  0  0  0  0  0
  -28.3070  -23.8140   21.1840 C   0  0  0  0  0  1  0  0  0  0  0  0
  -29.2760  -23.9330   19.9950 C   0  0  0  0  0  3  0  0  0  0  0  0
  -28.9920  -25.2780   19.1550 C   0  0  0  0  0  2  0  0  0  0  0  0
  -28.8580  -26.6410   19.7650 O   0  0  0  0  0  0  0  0  0  0  0  0
  -24.6190  -31.5060   23.0120 C   0  0  0  0  0  0  0  0  0  0  0  0
  -27.6720  -27.4110   19.7000 C   0  0  0  0  0  0  0  0  0  0  0  0
  -23.5810  -30.1600   21.2250 C   0  0  0  0  0  3  0  0  0  0  0  0
  -25.1900  -28.8600   19.7240 C   0  0  0  0  0  0  0  0  0  0  0  0
  -26.0950  -30.6860   21.1610 C   0  0  0  0  0  2  0  0  0  0  0  0
  -26.2990  -29.3800   20.4000 C   0  0  0  0  0  0  0  0  0  0  0  0
  -27.5420  -28.6690   20.3750 C   0  0  0  0  0  3  0  0  0  0  0  0
  -26.5270  -26.9620   18.9950 C   0  0  0  0  0  3  0  0  0  0  0  0
  -25.3070  -27.6610   19.0110 C   0  0  0  0  0  3  0  0  0  0  0  0
  -23.8850  -29.6250   19.8020 C   0  0  0  0  0  2  0  0  0  0  0  0
  -24.7790  -30.8000   21.8550 N   0  0  0  0  0  0  0  0  0  0  0  0
  -23.5040  -31.6450   23.5350 O   0  0  0  0  0  0  0  0  0  0  0  0
  -22.9800  -29.0140   22.0750 C   0  0  0  0  0  0  0  0  0  0  0  0
  -21.6740  -28.7500   21.9020 N   0  0  0  0  0  0  0  0  0  0  0  0
  -23.6900  -28.3720   22.8540 O   0  0  0  0  0  0  0  0  0  0  0  0
  -21.1630  -29.2870   21.2170 H   0  0  0  0  0  0  0  0  0  0  0  0
  -18.3790  -27.3300   22.3160 C   0  0  0  0  0  0  0  0  0  0  0  0
  -20.9200  -27.7020   22.5880 C   0  0  0  0  0  3  0  0  0  0  0  0
  -21.0950  -26.3430   21.8680 C   0  0  0  0  0  2  0  0  0  0  0  0
  -19.9980  -26.0780   20.8350 C   0  0  0  0  0  2  0  0  0  0  0  0
  -18.6160  -26.0750   21.4930 C   0  0  0  0  0  2  0  0  0  0  0  0
  -19.4600  -28.1050   22.8130 C   0  0  0  0  0  0  0  0  0  0  0  0
  -19.1800  -29.2830   23.5360 C   0  0  0  0  0  3  0  0  0  0  0  0
  -17.8520  -29.6870   23.7710 C   0  0  0  0  0  3  0  0  0  0  0  0
  -16.7850  -28.9050   23.2900 C   0  0  0  0  0  3  0  0  0  0  0  0
  -17.0510  -27.7320   22.5640 C   0  0  0  0  0  3  0  0  0  0  0  0
  -25.8290  -32.1900   23.7230 C   0  0  0  0  0  3  0  0  0  0  0  0
  -26.3260  -31.4040   24.9980 C   0  0  1  0  0  0  0  0  0  0  0  0
  -25.2010  -31.0640   26.0040 C   0  0  0  0  0  1  0  0  0  0  0  0
  -27.0100  -30.0750   24.5970 C   0  0  0  0  0  1  0  0  0  0  0  0
  -27.3940  -32.2400   25.7450 C   0  0  0  0  0  1  0  0  0  0  0  0
  -25.4130  -33.5520   24.0890 N   0  0  0  0  0  0  0  0  0  0  0  0
  -25.7260  -34.6550   23.3970 C   0  0  0  0  0  0  0  0  0  0  0  0
  -26.4610  -34.6370   22.4070 O   0  0  0  0  0  0  0  0  0  0  0  0
  -24.7650  -33.6350   24.8580 H   0  0  0  0  0  0  0  0  0  0  0  0
  -23.9100  -36.3540   23.0160 C   0  0  0  0  0  1  0  0  0  0  0  0
  -25.1280  -35.9900   23.8810 C   0  0  0  0  0  3  0  0  0  0  0  0
  -27.1490  -36.9680   24.8720 C   0  0  0  0  0  1  0  0  0  0  0  0
  -26.0950  -37.1080   23.8690 N   0  0  0  0  0  0  0  0  0  0  0  0
  -25.6230  -37.9930   24.0290 H   0  0  0  0  0  0  0  0  0  0  0  0
  -30.7500  -17.5010   19.9870 C   0  0  0  0  0  2  0  0  0  0  0  0
  -31.0780  -14.9410   20.1120 C   0  0  0  0  0  0  0  0  0  0  0  0
  -30.8720  -12.6180   19.2360 C   0  0  0  0  0  2  0  0  0  0  0  0
  -29.9610  -12.6370   17.9890 C   0  0  0  0  0  2  0  0  0  0  0  0
  -28.4760  -12.5330   18.3910 C   0  0  0  0  0  2  0  0  0  0  0  0
  -28.0970  -13.4890   19.5550 C   0  0  0  0  0  3  0  0  0  0  0  0
  -29.1260  -13.4240   20.7010 C   0  0  0  0  0  2  0  0  0  0  0  0
  -30.4410  -13.7230   20.1200 N   0  0  0  0  0  0  0  0  0  0  0  0
  -32.2570  -15.0270   19.7680 O   0  0  0  0  0  0  0  0  0  0  0  0
  -30.3150  -16.0760   20.2770 N   0  0  0  0  0  0  0  0  0  0  0  0
  -29.3430  -15.9560   20.5160 H   0  0  0  0  0  0  0  0  0  0  0  0
  -25.7270  -14.1690   20.2650 C   0  0  0  0  0  0  0  0  0  0  0  0
  -24.6310  -13.4340   20.6210 C   0  0  0  0  0  0  0  0  0  0  0  0
  -25.0420  -12.0660   20.5860 C   0  0  0  0  0  0  0  0  0  0  0  0
  -26.7380  -13.2510   20.0300 N   0  0  0  0  0  0  0  0  0  0  0  0
  -26.3310  -11.9790   20.2800 N   0  0  0  0  0  0  0  0  0  0  0  0
  -24.2680  -10.8310   20.7630 C   0  0  0  0  0  0  0  0  0  0  0  0
  -24.6690   -9.8340   21.6790 C   0  0  0  0  0  3  0  0  0  0  0  0
  -23.8980   -8.6650   21.8460 C   0  0  0  0  0  3  0  0  0  0  0  0
  -22.7110   -8.4840   21.0960 C   0  0  0  0  0  0  0  0  0  0  0  0
  -22.3300   -9.4680   20.1670 C   0  0  0  0  0  3  0  0  0  0  0  0
  -23.1020  -10.6310   19.9990 C   0  0  0  0  0  3  0  0  0  0  0  0
  -21.9130   -7.3680   21.1720 O   0  0  0  0  0  0  0  0  0  0  0  0
  -21.8660   -6.5920   22.3000 C   0  0  0  0  0  0  0  0  0  0  0  0
  -21.5050   -7.1240   23.5580 C   0  0  0  0  0  3  0  0  0  0  0  0
  -21.4030   -6.2760   24.6790 C   0  0  0  0  0  3  0  0  0  0  0  0
  -21.6530   -4.8970   24.5460 C   0  0  0  0  0  0  0  0  0  0  0  0
  -22.0090   -4.3640   23.2940 C   0  0  0  0  0  3  0  0  0  0  0  0
  -22.1140   -5.2100   22.1760 C   0  0  0  0  0  0  0  0  0  0  0  0
  -22.4350   -4.6860   20.9680 F   0  0  0  0  0  0  0  0  0  0  0  0
  -21.5490   -4.0820   25.6210 F   0  0  0  0  0  0  0  0  0  0  0  0
  -23.2510  -13.9620   20.8920 C   0  0  0  0  0  0  0  0  0  0  0  0
  -22.4970  -13.2960   21.7590 N   0  0  0  0  0  0  0  0  0  0  0  0
  -22.8500  -15.0010   20.3670 O   0  0  0  0  0  0  0  0  0  0  0  0
  -22.8320  -12.4540   22.2040 H   0  0  0  0  0  0  0  0  0  0  0  0
  -21.5720  -13.6320   21.9840 H   0  0  0  0  0  0  0  0  0  0  0  0
  -25.9460  -15.5350   20.1030 N   0  0  0  0  0  0  0  0  0  0  0  0
  -25.2190  -16.2220   20.2640 H   0  0  0  0  0  0  0  0  0  0  0  0
  -26.8220  -15.9500   19.8090 H   0  0  0  0  0  0  0  0  0  0  0  0
  1  3  1  0
  2  1  2  0
  3  6  2  0
  3 53  1  0
  4  2  1  0
  4  7  2  0
  5  4  1  0
  7  6  1  0
  8  2  1  0
  8 10  1  0
 10  9  1  0
 11 12  1  0
 11 10  1  0
 13 24  2  0
 14 12  1  0
 14 19  1  0
 15 23  1  0
 15 25  1  0
 16 22  1  0
 16 18  1  0
 17 23  1  0
 18 17  1  0
 19 18  2  0
 20 21  1  0
 20 14  2  0
 21 16  2  0
 22 15  1  0
 23 13  1  0
 25 27  2  0
 26 25  1  0
 28 26  1  0
 29 38  2  0
 29 34  1  0
 30 26  1  0
 30 34  1  0
 31 30  1  0
 32 33  1  0
 32 31  1  0
 33 29  1  0
 34 35  2  0
 35 36  1  0
 37 36  2  0
 38 37  1  0
 39 13  1  0
 39 44  1  0
 39 40  1  0
 40 43  1  1
 40 41  1  0
 42 40  1  0
 44 47  1  0
 45 49  1  0
 45 44  1  0
 46 45  2  0
 49 48  1  0
 51 49  1  0
 51 52  1  0
 51 50  1  0
 53 62  1  0
 54 60  1  0
 54 62  1  0
 55 60  1  0
 56 57  1  0
 56 55  1  0
 58 57  1  0
 58 67  1  0
 58 59  1  0
 60 59  1  0
 61 54  2  0
 62 63  1  0
 64 65  2  0
 65 84  1  0
 66 65  1  0
 66 69  1  0
 67 64  1  0
 67 68  1  0
 68 66  2  0
 69 70  1  0
 70 71  2  0
 72 75  1  0
 72 71  1  0
 73 72  2  0
 74 73  1  0
 74 69  2  0
 75 76  1  0
 76 77  1  0
 77 78  2  0
 79 78  1  0
 79 83  1  0
 80 79  2  0
 81 76  2  0
 81 80  1  0
 82 81  1  0
 84 85  1  0
 85 88  1  0
 85 87  1  0
 86 84  2  0
 89 90  1  0
 89 64  1  0
 91 89  1  0
M  ISO  4  11 101  12 101  54 100  62 100
M  END
>  <TORSDO>  (8) 
F 20

>  <SCORE>  (8) 
-12.202

>  <name>  (8) 
7

>  <ligand_id>  (8) 
7

>  <original_smiles>  (8) 
[H]c1c([H])c([H])c2c(c1[H])C([H])([H])C([H])([H])C([H])([H])C2([H])N([H])C(=O)C1([H])N(C(=O)C([H])(N([H])C(=O)C([H])(N([H])C([H])([H])[H])C([H])([H])[H])C(C([H])([H])[H])(C([H])([H])[H])C([H])([H])[H])C([H])([H])c2c([H])c(OC([H])([H])C([H])(C([H])([H])[H])C([H])([H])c3c(C([H])([H])[H])nnc(C([H])([H])N([H])C(=O)N4C([H])([H])C([H])([H])C([H])([H])C([H])(n5nc(-c6c([H])c([H])c(Oc7c([H])c([H])c(F)c([H])c7F)c([H])c6[H])c(C(=O)N([H])[H])c5N([H])[H])C4([H])[H])c3[H])c([H])c([H])c2C1([H])[H]

>  <smiles>  (8) 
[H]c1c([H])c([H])c2c(c1[H])C([H])([H])C([H])([H])C([H])([H])C2([H])N([H])C(=O)C1([H])N(C(=O)C([H])(N([H])C(=O)C([H])(N([H])C([H])([H])[H])C([H])([H])[H])C(C([H])([H])[H])(C([H])([H])[H])C([H])([H])[H])C([H])([H])c2c([H])c(OC([H])([H])C([H])(C([H])([H])[H])C([H])([H])c3c(C([H])([H])[H])nnc(C([H])([H])N([H])C(=O)N4C([H])([H])C([H])([H])C([H])([H])C([H])(n5nc(-c6c([H])c([H])c(Oc7c([H])c([H])c(F)c([H])c7F)c([H])c6[H])c(C(=O)N([H])[H])c5N([H])[H])C4([H])[H])c3[H])c([H])c([H])c2C1([H])[H]

$$$$
8:0:0
     RDKit          3D

 92100  0  0  1  0  0  0  0  0999 V2000
  -29.0840  -19.7150   19.9180 C   0  0  0  0  0  3  0  0  0  0  0  0
  -31.3800  -20.4430   19.9940 C   0  0  0  0  0  3  0  0  0  0  0  0
  -30.4470  -19.3650   19.9250 C   0  0  0  0  0  0  0  0  0  0  0  0
  -28.7040  -21.0660   19.9870 C   0  0  0  0  0  0  0  0  0  0  0  0
  -30.9110  -21.7860   20.0500 C   0  0  0  0  0  0  0  0  0  0  0  0
  -27.2410  -21.4550   19.9890 C   0  0  0  0  0  1  0  0  0  0  0  0
  -29.5920  -22.0770   20.0510 N   0  0  0  0  0  0  0  0  0  0  0  0
  -32.1500  -17.6370   19.0690 C   0  0  0  0  0  1  0  0  0  0  0  0
  -30.8130  -17.8630   19.7950 C   0  0  0  0  0  3  0  0  0  0  0  0
  -30.7530  -17.0580   21.1410 C   0  0  0  0  0  2  0  0  0  0  0  0
  -31.1410  -14.5620   20.6880 C   0  0  0  0  0  0  0  0  0  0  0  0
  -30.9230  -12.2710   19.7790 C   0  0  0  0  0  2  0  0  0  0  0  0
  -30.0760  -12.3170   18.4880 C   0  0  0  0  0  2  0  0  0  0  0  0
  -28.5690  -12.2390   18.8140 C   0  0  0  0  0  2  0  0  0  0  0  0
  -28.1450  -13.2230   19.9370 C   0  0  0  0  0  3  0  0  0  0  0  0
  -29.1090  -13.1310   21.1420 C   0  0  0  0  0  2  0  0  0  0  0  0
  -30.4750  -13.3720   20.6450 N   0  0  0  0  0  0  0  0  0  0  0  0
  -32.3120  -14.6890   20.3260 O   0  0  0  0  0  0  0  0  0  0  0  0
  -30.3800  -15.6270   21.0180 N   0  0  0  0  0  0  0  0  0  0  0  0
  -29.4280  -15.4020   21.2560 H   0  0  0  0  0  0  0  0  0  0  0  0
  -25.7460  -13.9510   20.5170 C   0  0  0  0  0  0  0  0  0  0  0  0
  -24.6190  -13.2330   20.8150 C   0  0  0  0  0  0  0  0  0  0  0  0
  -25.0090  -11.8590   20.7930 C   0  0  0  0  0  0  0  0  0  0  0  0
  -26.7550  -13.0160   20.3350 N   0  0  0  0  0  0  0  0  0  0  0  0
  -26.3120  -11.7520   20.5600 N   0  0  0  0  0  0  0  0  0  0  0  0
  -24.2070  -10.6360   20.9260 C   0  0  0  0  0  0  0  0  0  0  0  0
  -24.5020   -9.6620   21.9060 C   0  0  0  0  0  3  0  0  0  0  0  0
  -23.7050   -8.5020   22.0270 C   0  0  0  0  0  3  0  0  0  0  0  0
  -22.5990   -8.3100   21.1650 C   0  0  0  0  0  0  0  0  0  0  0  0
  -22.3240   -9.2710   20.1760 C   0  0  0  0  0  3  0  0  0  0  0  0
  -23.1210  -10.4220   20.0550 C   0  0  0  0  0  3  0  0  0  0  0  0
  -21.7870   -7.2020   21.1910 O   0  0  0  0  0  0  0  0  0  0  0  0
  -21.5640   -6.4990   22.3470 C   0  0  0  0  0  0  0  0  0  0  0  0
  -20.9660   -7.0950   23.4780 C   0  0  0  0  0  3  0  0  0  0  0  0
  -20.6910   -6.3190   24.6210 C   0  0  0  0  0  3  0  0  0  0  0  0
  -21.0050   -4.9470   24.6330 C   0  0  0  0  0  0  0  0  0  0  0  0
  -21.5970   -4.3500   23.5060 C   0  0  0  0  0  3  0  0  0  0  0  0
  -21.8720   -5.1240   22.3650 C   0  0  0  0  0  0  0  0  0  0  0  0
  -22.4220   -4.5390   21.2740 F   0  0  0  0  0  0  0  0  0  0  0  0
  -20.7340   -4.1980   25.7280 F   0  0  0  0  0  0  0  0  0  0  0  0
  -23.2360  -13.7820   21.0100 C   0  0  0  0  0  0  0  0  0  0  0  0
  -22.4240  -13.1220   21.8290 N   0  0  0  0  0  0  0  0  0  0  0  0
  -22.8800  -14.8300   20.4720 O   0  0  0  0  0  0  0  0  0  0  0  0
  -22.7240  -12.2730   22.2850 H   0  0  0  0  0  0  0  0  0  0  0  0
  -21.4930  -13.4690   22.0010 H   0  0  0  0  0  0  0  0  0  0  0  0
  -25.9960  -15.3120   20.3640 N   0  0  0  0  0  0  0  0  0  0  0  0
  -25.2600  -16.0060   20.4250 H   0  0  0  0  0  0  0  0  0  0  0  0
  -26.8790  -15.6990   20.0550 H   0  0  0  0  0  0  0  0  0  0  0  0
  -31.8310  -23.0030   20.2560 C   0  0  0  0  0  2  0  0  0  0  0  0
  -31.3870  -24.3490   19.5990 C   0  0  0  0  0  2  0  0  0  0  0  0
  -31.4260  -25.5660   20.5770 C   0  0  0  0  0  2  0  0  0  0  0  0
  -31.1930  -26.8550   19.9730 O   0  0  0  0  0  0  0  0  0  0  0  0
  -26.5980  -30.1830   24.3550 C   0  0  0  0  0  0  0  0  0  0  0  0
  -29.9610  -27.4480   20.1710 C   0  0  0  0  0  0  0  0  0  0  0  0
  -25.7170  -29.5350   22.1370 C   0  0  0  0  0  3  0  0  0  0  0  0
  -27.4560  -28.7470   20.4400 C   0  0  0  0  0  0  0  0  0  0  0  0
  -28.2070  -30.0210   22.4550 C   0  0  0  0  0  2  0  0  0  0  0  0
  -28.4880  -29.0250   21.3450 C   0  0  0  0  0  0  0  0  0  0  0  0
  -29.7440  -28.3840   21.2110 C   0  0  0  0  0  3  0  0  0  0  0  0
  -28.9140  -27.1840   19.2660 C   0  0  0  0  0  3  0  0  0  0  0  0
  -27.6630  -27.8260   19.3960 C   0  0  0  0  0  3  0  0  0  0  0  0
  -26.1450  -29.4760   20.6460 C   0  0  0  0  0  2  0  0  0  0  0  0
  -26.8510  -29.9020   23.0450 N   0  0  0  0  0  0  0  0  0  0  0  0
  -25.4430  -30.1790   24.8010 O   0  0  0  0  0  0  0  0  0  0  0  0
  -25.0450  -28.1920   22.5090 C   0  0  0  0  0  0  0  0  0  0  0  0
  -23.7840  -28.0140   22.0830 N   0  0  0  0  0  0  0  0  0  0  0  0
  -25.6620  -27.3280   23.1390 O   0  0  0  0  0  0  0  0  0  0  0  0
  -23.3460  -28.7690   21.5730 H   0  0  0  0  0  0  0  0  0  0  0  0
  -20.5360  -26.5590   21.4590 C   0  0  0  0  0  0  0  0  0  0  0  0
  -22.9740  -26.8120   22.2820 C   0  0  0  0  0  3  0  0  0  0  0  0
  -23.3290  -25.7240   21.2430 C   0  0  0  0  0  2  0  0  0  0  0  0
  -22.4420  -25.7690   19.9960 C   0  0  0  0  0  2  0  0  0  0  0  0
  -20.9680  -25.5870   20.3750 C   0  0  0  0  0  2  0  0  0  0  0  0
  -21.4770  -27.1460   22.3430 C   0  0  0  0  0  0  0  0  0  0  0  0
  -21.0270  -28.0690   23.3110 C   0  0  0  0  0  3  0  0  0  0  0  0
  -19.6640  -28.4040   23.4060 C   0  0  0  0  0  3  0  0  0  0  0  0
  -18.7330  -27.8080   22.5380 C   0  0  0  0  0  3  0  0  0  0  0  0
  -19.1680  -26.8840   21.5710 C   0  0  0  0  0  3  0  0  0  0  0  0
  -27.7420  -30.5470   25.3510 C   0  0  0  0  0  3  0  0  0  0  0  0
  -27.3510  -31.7810   26.0440 N   0  0  0  0  0  0  0  0  0  0  0  0
  -27.8210  -33.0010   25.7500 C   0  0  0  0  0  0  0  0  0  0  0  0
  -28.6940  -33.1930   24.8990 O   0  0  0  0  0  0  0  0  0  0  0  0
  -26.5960  -31.7080   26.7100 H   0  0  0  0  0  0  0  0  0  0  0  0
  -26.1810  -34.9060   25.6450 C   0  0  0  0  0  1  0  0  0  0  0  0
  -27.2270  -34.1970   26.5200 C   0  0  0  0  0  3  0  0  0  0  0  0
  -29.1090  -34.6580   28.0230 C   0  0  0  0  0  1  0  0  0  0  0  0
  -28.2460  -35.1740   26.9640 N   0  0  0  0  0  0  0  0  0  0  0  0
  -27.8090  -36.0270   27.3020 H   0  0  0  0  0  0  0  0  0  0  0  0
  -28.0520  -29.3980   26.3880 C   0  0  1  0  0  0  0  0  0  0  0  0
  -26.7970  -28.8760   27.1260 C   0  0  0  0  0  1  0  0  0  0  0  0
  -28.7220  -28.1950   25.6850 C   0  0  0  0  0  1  0  0  0  0  0  0
  -29.0630  -29.9060   27.4430 C   0  0  0  0  0  1  0  0  0  0  0  0
  1  3  2  0
  1  4  1  0
  2  5  2  0
  3  2  1  0
  4  6  1  0
  4  7  2  0
  5  7  1  0
  5 49  1  0
  9  8  1  0
  9  3  1  0
  9 10  1  0
 11 19  1  0
 12 17  1  0
 13 14  1  0
 13 12  1  0
 15 14  1  0
 15 24  1  0
 15 16  1  0
 17 11  1  0
 17 16  1  0
 18 11  2  0
 19 10  1  0
 19 20  1  0
 21 22  2  0
 22 41  1  0
 23 22  1  0
 23 26  1  0
 24 21  1  0
 24 25  1  0
 25 23  2  0
 26 27  1  0
 27 28  2  0
 29 32  1  0
 29 28  1  0
 30 29  2  0
 31 30  1  0
 31 26  2  0
 32 33  1  0
 33 38  2  0
 33 34  1  0
 34 35  2  0
 35 36  1  0
 36 40  1  0
 37 36  2  0
 38 37  1  0
 39 38  1  0
 41 42  1  0
 42 45  1  0
 42 44  1  0
 43 41  2  0
 46 47  1  0
 46 21  1  0
 48 46  1  0
 50 49  1  0
 50 51  1  0
 52 54  1  0
 52 51  1  0
 53 64  2  0
 54 59  1  0
 55 65  1  0
 55 63  1  0
 56 62  1  0
 56 58  1  0
 57 63  1  0
 58 57  1  0
 59 58  2  0
 60 61  1  0
 60 54  2  0
 61 56  2  0
 62 55  1  0
 63 53  1  0
 65 67  2  0
 66 65  1  0
 68 66  1  0
 69 78  2  0
 69 74  1  0
 70 66  1  0
 70 74  1  0
 71 70  1  0
 72 73  1  0
 72 71  1  0
 73 69  1  0
 74 75  2  0
 75 76  1  0
 77 76  2  0
 78 77  1  0
 79 53  1  0
 79 80  1  0
 79 89  1  0
 80 83  1  0
 81 80  1  0
 81 85  1  0
 82 81  2  0
 85 84  1  0
 85 87  1  0
 87 88  1  0
 87 86  1  0
 89 90  1  1
 89 92  1  0
 91 89  1  0
M  ISO  4  11 100  19 100  51 101  52 101
M  END
>  <TORSDO>  (9) 
F 21

>  <SCORE>  (9) 
-9.458

>  <name>  (9) 
8

>  <ligand_id>  (9) 
8

>  <original_smiles>  (9) 
[H]c1c([H])c([H])c2c(c1[H])C([H])([H])C([H])([H])C([H])([H])C2([H])N([H])C(=O)C1([H])N(C(=O)C([H])(N([H])C(=O)C([H])(N([H])C([H])([H])[H])C([H])([H])[H])C(C([H])([H])[H])(C([H])([H])[H])C([H])([H])[H])C([H])([H])c2c([H])c(OC([H])([H])C([H])([H])C([H])([H])c3nc(C([H])([H])[H])c([H])c(C([H])(C([H])([H])[H])C([H])([H])N([H])C(=O)N4C([H])([H])C([H])([H])C([H])([H])C([H])(n5nc(-c6c([H])c([H])c(Oc7c([H])c([H])c(F)c([H])c7F)c([H])c6[H])c(C(=O)N([H])[H])c5N([H])[H])C4([H])[H])c3[H])c([H])c([H])c2C1([H])[H]

>  <smiles>  (9) 
[H]c1c([H])c([H])c2c(c1[H])C([H])([H])C([H])([H])C([H])([H])C2([H])N([H])C(=O)C1([H])N(C(=O)C([H])(N([H])C(=O)C([H])(N([H])C([H])([H])[H])C([H])([H])[H])C(C([H])([H])[H])(C([H])([H])[H])C([H])([H])[H])C([H])([H])c2c([H])c(OC([H])([H])C([H])([H])C([H])([H])c3nc(C([H])([H])[H])c([H])c(C([H])(C([H])([H])[H])C([H])([H])N([H])C(=O)N4C([H])([H])C([H])([H])C([H])([H])C([H])(n5nc(-c6c([H])c([H])c(Oc7c([H])c([H])c(F)c([H])c7F)c([H])c6[H])c(C(=O)N([H])[H])c5N([H])[H])C4([H])[H])c3[H])c([H])c([H])c2C1([H])[H]

$$$$
9:0:0
     RDKit          3D

 89 97  0  0  1  0  0  0  0  0999 V2000
  -30.3700  -20.4070   20.6670 C   0  0  0  0  0  2  0  0  0  0  0  0
  -28.2570  -20.3510   19.3660 C   0  0  0  0  0  2  0  0  0  0  0  0
  -30.0470  -21.8680   21.1060 C   0  0  0  0  0  2  0  0  0  0  0  0
  -27.9410  -21.8300   19.7550 C   0  0  0  0  0  2  0  0  0  0  0  0
  -29.0990  -19.5650   20.4120 C   0  0  0  0  0  3  0  0  0  0  0  0
  -29.1920  -22.6860   20.0960 C   0  0  0  0  0  3  0  0  0  0  0  0
  -29.3300  -18.0570   19.9860 C   0  0  0  0  0  2  0  0  0  0  0  0
  -30.1450  -17.1080   20.9400 C   0  0  0  0  0  2  0  0  0  0  0  0
  -30.6050  -14.6100   20.4360 C   0  0  0  0  0  0  0  0  0  0  0  0
  -30.3700  -12.4020   19.3390 C   0  0  0  0  0  2  0  0  0  0  0  0
  -29.4190  -12.5670   18.1340 C   0  0  0  0  0  2  0  0  0  0  0  0
  -27.9480  -12.4130   18.5700 C   0  0  0  0  0  2  0  0  0  0  0  0
  -27.6020  -13.2590   19.8250 C   0  0  0  0  0  3  0  0  0  0  0  0
  -28.6660  -13.0720   20.9310 C   0  0  0  0  0  2  0  0  0  0  0  0
  -29.9760  -13.4020   20.3460 N   0  0  0  0  0  0  0  0  0  0  0  0
  -31.7570  -14.7830   20.0280 O   0  0  0  0  0  0  0  0  0  0  0  0
  -29.8260  -15.6530   20.8300 N   0  0  0  0  0  0  0  0  0  0  0  0
  -28.8990  -15.3890   21.1270 H   0  0  0  0  0  0  0  0  0  0  0  0
  -25.2110  -13.8620   20.5530 C   0  0  0  0  0  0  0  0  0  0  0  0
  -24.1430  -13.0890   20.9240 C   0  0  0  0  0  0  0  0  0  0  0  0
  -24.6040  -11.7370   20.8830 C   0  0  0  0  0  0  0  0  0  0  0  0
  -26.2530  -12.9810   20.3130 N   0  0  0  0  0  0  0  0  0  0  0  0
  -25.8930  -11.6970   20.5690 N   0  0  0  0  0  0  0  0  0  0  0  0
  -23.8750  -10.4750   21.0690 C   0  0  0  0  0  0  0  0  0  0  0  0
  -24.3170   -9.4990   21.9900 C   0  0  0  0  0  3  0  0  0  0  0  0
  -23.5930   -8.3000   22.1670 C   0  0  0  0  0  3  0  0  0  0  0  0
  -22.4110   -8.0700   21.4230 C   0  0  0  0  0  0  0  0  0  0  0  0
  -21.9870   -9.0340   20.4920 C   0  0  0  0  0  3  0  0  0  0  0  0
  -22.7110  -10.2250   20.3150 C   0  0  0  0  0  3  0  0  0  0  0  0
  -21.6570   -6.9240   21.5090 O   0  0  0  0  0  0  0  0  0  0  0  0
  -21.6250   -6.1680   22.6530 C   0  0  0  0  0  0  0  0  0  0  0  0
  -21.2190   -6.7080   23.8920 C   0  0  0  0  0  3  0  0  0  0  0  0
  -21.1340   -5.8790   25.0280 C   0  0  0  0  0  3  0  0  0  0  0  0
  -21.4450   -4.5110   24.9260 C   0  0  0  0  0  0  0  0  0  0  0  0
  -21.8430   -3.9680   23.6920 C   0  0  0  0  0  3  0  0  0  0  0  0
  -21.9300   -4.7950   22.5570 C   0  0  0  0  0  0  0  0  0  0  0  0
  -22.2950   -4.2650   21.3660 F   0  0  0  0  0  0  0  0  0  0  0  0
  -21.3570   -3.7110   26.0150 F   0  0  0  0  0  0  0  0  0  0  0  0
  -22.7480  -13.5670   21.2070 C   0  0  0  0  0  0  0  0  0  0  0  0
  -22.0240  -12.8620   22.0700 N   0  0  0  0  0  0  0  0  0  0  0  0
  -22.3100  -14.5980   20.6990 O   0  0  0  0  0  0  0  0  0  0  0  0
  -22.3930  -12.0270   22.5020 H   0  0  0  0  0  0  0  0  0  0  0  0
  -21.0870  -13.1590   22.3020 H   0  0  0  0  0  0  0  0  0  0  0  0
  -25.3770  -15.2320   20.3780 N   0  0  0  0  0  0  0  0  0  0  0  0
  -24.6080  -15.8860   20.4740 H   0  0  0  0  0  0  0  0  0  0  0  0
  -26.2190  -15.6650   20.0210 H   0  0  0  0  0  0  0  0  0  0  0  0
  -28.8590  -24.1420   20.6340 C   0  0  0  0  0  3  0  0  0  0  0  0
  -28.5800  -25.2980   19.6040 C   0  0  0  0  0  3  0  0  0  0  0  0
  -28.4420  -26.6390   20.1870 O   0  0  0  0  0  0  0  0  0  0  0  0
  -24.6020  -31.8860   23.2230 C   0  0  0  0  0  0  0  0  0  0  0  0
  -27.2570  -27.3790   20.1540 C   0  0  0  0  0  0  0  0  0  0  0  0
  -23.4060  -30.4820   21.5820 C   0  0  0  0  0  3  0  0  0  0  0  0
  -24.8640  -28.9400   20.1630 C   0  0  0  0  0  0  0  0  0  0  0  0
  -25.9380  -30.8250   21.3950 C   0  0  0  0  0  2  0  0  0  0  0  0
  -26.0270  -29.4480   20.7550 C   0  0  0  0  0  0  0  0  0  0  0  0
  -27.2210  -28.6760   20.7410 C   0  0  0  0  0  3  0  0  0  0  0  0
  -26.0600  -26.9000   19.5690 C   0  0  0  0  0  3  0  0  0  0  0  0
  -24.8800  -27.6690   19.5700 C   0  0  0  0  0  3  0  0  0  0  0  0
  -23.6210  -29.8050   20.2030 C   0  0  0  0  0  2  0  0  0  0  0  0
  -24.6670  -31.0810   22.1250 N   0  0  0  0  0  0  0  0  0  0  0  0
  -23.5170  -32.1580   23.7590 O   0  0  0  0  0  0  0  0  0  0  0  0
  -22.7510  -29.4600   22.5420 C   0  0  0  0  0  0  0  0  0  0  0  0
  -21.4250  -29.2860   22.4230 N   0  0  0  0  0  0  0  0  0  0  0  0
  -23.4340  -28.8310   23.3550 O   0  0  0  0  0  0  0  0  0  0  0  0
  -20.9340  -29.8470   21.7400 H   0  0  0  0  0  0  0  0  0  0  0  0
  -18.0460  -28.1060   22.9400 C   0  0  0  0  0  0  0  0  0  0  0  0
  -20.6080  -28.3480   23.1940 C   0  0  0  0  0  3  0  0  0  0  0  0
  -20.6970  -26.9200   22.6100 C   0  0  0  0  0  2  0  0  0  0  0  0
  -19.5860  -26.6090   21.6030 C   0  0  0  0  0  2  0  0  0  0  0  0
  -18.2090  -26.7590   22.2550 C   0  0  0  0  0  2  0  0  0  0  0  0
  -19.1720  -28.8590   23.3660 C   0  0  0  0  0  0  0  0  0  0  0  0
  -18.9660  -30.1200   23.9680 C   0  0  0  0  0  3  0  0  0  0  0  0
  -17.6650  -30.6280   24.1450 C   0  0  0  0  0  3  0  0  0  0  0  0
  -16.5540  -29.8720   23.7340 C   0  0  0  0  0  3  0  0  0  0  0  0
  -16.7450  -28.6140   23.1360 C   0  0  0  0  0  3  0  0  0  0  0  0
  -25.8800  -32.5220   23.8470 C   0  0  0  0  0  3  0  0  0  0  0  0
  -26.3970  -31.7540   25.1250 C   0  0  1  0  0  0  0  0  0  0  0  0
  -25.3010  -31.5130   26.1910 C   0  0  0  0  0  1  0  0  0  0  0  0
  -26.9840  -30.3770   24.7350 C   0  0  0  0  0  1  0  0  0  0  0  0
  -27.5440  -32.5530   25.7840 C   0  0  0  0  0  1  0  0  0  0  0  0
  -25.5620  -33.9210   24.1740 N   0  0  0  0  0  0  0  0  0  0  0  0
  -25.9040  -34.9750   23.4220 C   0  0  0  0  0  0  0  0  0  0  0  0
  -26.5870  -34.8740   22.4000 O   0  0  0  0  0  0  0  0  0  0  0  0
  -24.9460  -34.0710   24.9590 H   0  0  0  0  0  0  0  0  0  0  0  0
  -24.1810  -36.7710   23.0470 C   0  0  0  0  0  1  0  0  0  0  0  0
  -25.4090  -36.3630   23.8760 C   0  0  0  0  0  3  0  0  0  0  0  0
  -27.5320  -37.2450   24.7420 C   0  0  0  0  0  1  0  0  0  0  0  0
  -26.4440  -37.4160   23.7810 N   0  0  0  0  0  0  0  0  0  0  0  0
  -26.0380  -38.3370   23.9240 H   0  0  0  0  0  0  0  0  0  0  0  0
  1  3  1  0
  2  4  1  0
  2  5  1  0
  4  6  1  0
  5  7  1  0
  5  1  1  0
  6 47  1  0
  6  3  1  0
  7  8  1  0
  9 17  1  0
 10 15  1  0
 11 12  1  0
 11 10  1  0
 13 12  1  0
 13 22  1  0
 13 14  1  0
 15  9  1  0
 15 14  1  0
 16  9  2  0
 17  8  1  0
 17 18  1  0
 19 20  2  0
 20 39  1  0
 21 20  1  0
 21 24  1  0
 22 19  1  0
 22 23  1  0
 23 21  2  0
 24 25  1  0
 25 26  2  0
 27 30  1  0
 27 26  1  0
 28 27  2  0
 29 28  1  0
 29 24  2  0
 30 31  1  0
 31 32  1  0
 32 33  2  0
 34 33  1  0
 34 38  1  0
 35 34  2  0
 36 31  2  0
 36 35  1  0
 37 36  1  0
 39 40  1  0
 40 43  1  0
 40 42  1  0
 41 39  2  0
 44 45  1  0
 44 19  1  0
 46 44  1  0
 48 49  1  0
 48 47  2  0
 50 61  2  0
 51 49  1  0
 51 56  1  0
 52 60  1  0
 52 62  1  0
 53 59  1  0
 53 55  1  0
 54 60  1  0
 55 54  1  0
 56 55  2  0
 57 58  1  0
 57 51  2  0
 58 53  2  0
 59 52  1  0
 60 50  1  0
 62 64  2  0
 63 62  1  0
 65 63  1  0
 66 75  2  0
 66 71  1  0
 67 63  1  0
 67 71  1  0
 68 67  1  0
 69 70  1  0
 69 68  1  0
 70 66  1  0
 71 72  2  0
 72 73  1  0
 74 73  2  0
 75 74  1  0
 76 50  1  0
 76 81  1  0
 76 77  1  0
 77 80  1  1
 77 78  1  0
 79 77  1  0
 81 84  1  0
 82 86  1  0
 82 81  1  0
 83 82  2  0
 86 85  1  0
 88 86  1  0
 88 89  1  0
 88 87  1  0
M  ISO  4   9 100  17 100  48 101  49 101
M  END
>  <TORSDO>  (10) 
F 20

>  <SCORE>  (10) 
-13.900

>  <name>  (10) 
9

>  <ligand_id>  (10) 
9

>  <original_smiles>  (10) 
[H]c1c([H])c([H])c2c(c1[H])C([H])([H])C([H])([H])C([H])([H])C2([H])N([H])C(=O)C1([H])N(C(=O)C([H])(N([H])C(=O)C([H])(N([H])C([H])([H])[H])C([H])([H])[H])C(C([H])([H])[H])(C([H])([H])[H])C([H])([H])[H])C([H])([H])c2c([H])c(OC([H])([H])C([H])([H])C3([H])C([H])([H])C([H])([H])C([H])(C([H])([H])C([H])([H])N([H])C(=O)N4C([H])([H])C([H])([H])C([H])([H])C([H])(n5nc(-c6c([H])c([H])c(Oc7c([H])c([H])c(F)c([H])c7F)c([H])c6[H])c(C(=O)N([H])[H])c5N([H])[H])C4([H])[H])C([H])([H])C3([H])[H])c([H])c([H])c2C1([H])[H]

>  <smiles>  (10) 
[H]c1c([H])c([H])c2c(c1[H])C([H])([H])C([H])([H])C([H])([H])C2([H])N([H])C(=O)C1([H])N(C(=O)C([H])(N([H])C(=O)C([H])(N([H])C([H])([H])[H])C([H])([H])[H])C(C([H])([H])[H])(C([H])([H])[H])C([H])([H])[H])C([H])([H])c2c([H])c(OC([H])([H])C([H])([H])C3([H])C([H])([H])C([H])([H])C([H])(C([H])([H])C([H])([H])N([H])C(=O)N4C([H])([H])C([H])([H])C([H])([H])C([H])(n5nc(-c6c([H])c([H])c(Oc7c([H])c([H])c(F)c([H])c7F)c([H])c6[H])c(C(=O)N([H])[H])c5N([H])[H])C4([H])[H])C([H])([H])C3([H])[H])c([H])c([H])c2C1([H])[H]

$$$$
10:0:0
     RDKit          3D

 87 95  0  0  1  0  0  0  0  0999 V2000
  -28.9420  -21.0340   19.6990 C   0  0  0  0  0  2  0  0  0  0  0  0
  -29.9060  -18.1540   19.6020 C   0  0  0  0  0  3  0  0  0  0  0  0
  -30.0640  -18.3530   22.2440 C   0  0  0  0  0  3  0  0  0  0  0  0
  -30.3000  -16.8290   20.2840 C   0  0  0  0  0  0  0  0  0  0  0  0
  -30.4020  -17.0900   21.6860 C   0  0  0  0  0  0  0  0  0  0  0  0
  -29.5970  -19.5150   20.2520 C   0  0  0  0  0  0  0  0  0  0  0  0
  -30.9530  -16.0700   22.6790 C   0  0  0  0  0  1  0  0  0  0  0  0
  -29.6740  -19.4780   21.5940 N   0  0  0  0  0  0  0  0  0  0  0  0
  -30.8070  -15.3340   19.6840 C   0  0  0  0  0  0  0  0  0  0  0  0
  -30.5240  -12.9370   18.7200 C   0  0  0  0  0  2  0  0  0  0  0  0
  -29.4770  -12.8800   17.5780 C   0  0  0  0  0  2  0  0  0  0  0  0
  -28.0620  -12.6720   18.1430 C   0  0  0  0  0  2  0  0  0  0  0  0
  -27.7980  -13.5800   19.3670 C   0  0  0  0  0  3  0  0  0  0  0  0
  -28.9600  -13.5940   20.3810 C   0  0  0  0  0  2  0  0  0  0  0  0
  -30.1680  -14.0550   19.6760 N   0  0  0  0  0  0  0  0  0  0  0  0
  -31.9290  -15.2860   19.1590 O   0  0  0  0  0  0  0  0  0  0  0  0
  -25.5720  -14.2170   20.4340 C   0  0  0  0  0  0  0  0  0  0  0  0
  -24.5090  -13.4790   20.8730 C   0  0  0  0  0  0  0  0  0  0  0  0
  -24.8780  -12.1100   20.6950 C   0  0  0  0  0  0  0  0  0  0  0  0
  -26.5170  -13.3030   20.0050 N   0  0  0  0  0  0  0  0  0  0  0  0
  -26.1200  -12.0240   20.2300 N   0  0  0  0  0  0  0  0  0  0  0  0
  -24.0930  -10.8820   20.8870 C   0  0  0  0  0  0  0  0  0  0  0  0
  -24.5420   -9.8390   21.7270 C   0  0  0  0  0  3  0  0  0  0  0  0
  -23.7580   -8.6790   21.9100 C   0  0  0  0  0  3  0  0  0  0  0  0
  -22.5100   -8.5540   21.2520 C   0  0  0  0  0  0  0  0  0  0  0  0
  -22.0790   -9.5860   20.3990 C   0  0  0  0  0  3  0  0  0  0  0  0
  -22.8640  -10.7360   20.2140 C   0  0  0  0  0  3  0  0  0  0  0  0
  -21.6930   -7.4540   21.3510 O   0  0  0  0  0  0  0  0  0  0  0  0
  -21.6730   -6.6700   22.4760 C   0  0  0  0  0  0  0  0  0  0  0  0
  -21.3880   -7.2040   23.7520 C   0  0  0  0  0  3  0  0  0  0  0  0
  -21.3090   -6.3510   24.8710 C   0  0  0  0  0  3  0  0  0  0  0  0
  -21.5050   -4.9660   24.7160 C   0  0  0  0  0  0  0  0  0  0  0  0
  -21.7830   -4.4310   23.4460 C   0  0  0  0  0  3  0  0  0  0  0  0
  -21.8640   -5.2800   22.3290 C   0  0  0  0  0  0  0  0  0  0  0  0
  -22.1100   -4.7580   21.1040 F   0  0  0  0  0  0  0  0  0  0  0  0
  -21.4210   -4.1440   25.7890 F   0  0  0  0  0  0  0  0  0  0  0  0
  -23.1860  -14.0160   21.3370 C   0  0  0  0  0  0  0  0  0  0  0  0
  -22.5280  -13.3150   22.2520 N   0  0  0  0  0  0  0  0  0  0  0  0
  -22.7540  -15.0910   20.9230 O   0  0  0  0  0  0  0  0  0  0  0  0
  -22.8950  -12.4450   22.6070 H   0  0  0  0  0  0  0  0  0  0  0  0
  -21.6450  -13.6550   22.6040 H   0  0  0  0  0  0  0  0  0  0  0  0
  -25.8070  -15.5860   20.3370 N   0  0  0  0  0  0  0  0  0  0  0  0
  -25.1110  -16.2750   20.5990 H   0  0  0  0  0  0  0  0  0  0  0  0
  -26.6540  -16.0010   19.9670 H   0  0  0  0  0  0  0  0  0  0  0  0
  -28.9430  -22.7230   20.3310 C   0  0  0  0  0  3  0  0  0  0  0  0
  -28.0440  -24.2240   19.8890 C   0  0  0  0  0  3  0  0  0  0  0  0
  -28.1840  -25.8360   20.2100 O   0  0  0  0  0  0  0  0  0  0  0  0
  -24.5180  -31.7880   23.0250 C   0  0  0  0  0  0  0  0  0  0  0  0
  -27.1590  -26.9130   20.0910 C   0  0  0  0  0  0  0  0  0  0  0  0
  -23.3520  -30.3500   21.4010 C   0  0  0  0  0  3  0  0  0  0  0  0
  -24.8310  -28.7490   20.0050 C   0  0  0  0  0  0  0  0  0  0  0  0
  -25.9140  -30.5990   21.2620 C   0  0  0  0  0  2  0  0  0  0  0  0
  -26.0070  -29.1830   20.6280 C   0  0  0  0  0  0  0  0  0  0  0  0
  -27.1640  -28.2840   20.6500 C   0  0  0  0  0  3  0  0  0  0  0  0
  -25.9550  -26.6300   19.4080 C   0  0  0  0  0  3  0  0  0  0  0  0
  -24.8290  -27.4930   19.3740 C   0  0  0  0  0  3  0  0  0  0  0  0
  -23.5970  -29.6500   20.0340 C   0  0  0  0  0  2  0  0  0  0  0  0
  -24.6160  -30.9410   21.9490 N   0  0  0  0  0  0  0  0  0  0  0  0
  -23.4230  -32.0690   23.5360 O   0  0  0  0  0  0  0  0  0  0  0  0
  -22.6690  -29.3580   22.3790 C   0  0  0  0  0  0  0  0  0  0  0  0
  -21.3430  -29.1690   22.2510 N   0  0  0  0  0  0  0  0  0  0  0  0
  -23.3410  -28.7580   23.2230 O   0  0  0  0  0  0  0  0  0  0  0  0
  -20.8530  -29.7050   21.5490 H   0  0  0  0  0  0  0  0  0  0  0  0
  -17.9830  -27.8910   22.7430 C   0  0  0  0  0  0  0  0  0  0  0  0
  -20.5310  -28.2300   23.0330 C   0  0  0  0  0  3  0  0  0  0  0  0
  -20.6770  -26.7860   22.4960 C   0  0  0  0  0  2  0  0  0  0  0  0
  -19.5980  -26.4120   21.4740 C   0  0  0  0  0  2  0  0  0  0  0  0
  -18.2040  -26.5330   22.0970 C   0  0  0  0  0  2  0  0  0  0  0  0
  -19.0750  -28.6930   23.1680 C   0  0  0  0  0  0  0  0  0  0  0  0
  -18.8130  -29.9600   23.7340 C   0  0  0  0  0  3  0  0  0  0  0  0
  -17.4920  -30.4250   23.8770 C   0  0  0  0  0  3  0  0  0  0  0  0
  -16.4150  -29.6210   23.4670 C   0  0  0  0  0  3  0  0  0  0  0  0
  -16.6610  -28.3550   22.9070 C   0  0  0  0  0  3  0  0  0  0  0  0
  -25.7770  -32.4600   23.6520 C   0  0  0  0  0  3  0  0  0  0  0  0
  -26.3130  -31.6990   24.9290 C   0  0  1  0  0  0  0  0  0  0  0  0
  -25.2260  -31.4300   25.9970 C   0  0  0  0  0  1  0  0  0  0  0  0
  -26.9330  -30.3380   24.5410 C   0  0  0  0  0  1  0  0  0  0  0  0
  -27.4420  -32.5220   25.5930 C   0  0  0  0  0  1  0  0  0  0  0  0
  -25.4240  -33.8480   24.0020 N   0  0  0  0  0  0  0  0  0  0  0  0
  -25.7190  -34.9240   23.2610 C   0  0  0  0  0  0  0  0  0  0  0  0
  -26.3780  -34.8560   22.2210 O   0  0  0  0  0  0  0  0  0  0  0  0
  -24.8360  -33.9720   24.8120 H   0  0  0  0  0  0  0  0  0  0  0  0
  -23.9400  -36.6830   22.9640 C   0  0  0  0  0  1  0  0  0  0  0  0
  -25.2040  -36.2950   23.7480 C   0  0  0  0  0  3  0  0  0  0  0  0
  -27.3290  -37.2250   24.5600 C   0  0  0  0  0  1  0  0  0  0  0  0
  -26.2070  -37.3770   23.6360 N   0  0  0  0  0  0  0  0  0  0  0  0
  -25.7790  -38.2840   23.8050 H   0  0  0  0  0  0  0  0  0  0  0  0
  1  6  1  0
  1 45  1  0
  2  6  2  0
  2  4  1  0
  4  5  2  0
  5  3  1  0
  5  7  1  0
  6  8  1  0
  8  3  2  0
  9  4  1  0
 10 15  1  0
 11 12  1  0
 11 10  1  0
 13 12  1  0
 13 20  1  0
 13 14  1  0
 15  9  1  0
 15 14  1  0
 16  9  2  0
 17 18  2  0
 18 37  1  0
 19 18  1  0
 19 22  1  0
 20 21  1  0
 20 17  1  0
 21 19  2  0
 22 23  1  0
 23 24  2  0
 25 28  1  0
 25 24  1  0
 26 25  2  0
 27 26  1  0
 27 22  2  0
 28 29  1  0
 29 30  1  0
 30 31  2  0
 32 31  1  0
 32 36  1  0
 33 32  2  0
 34 29  2  0
 34 33  1  0
 35 34  1  0
 37 38  1  0
 38 41  1  0
 38 40  1  0
 39 37  2  0
 42 17  1  0
 42 43  1  0
 44 42  1  0
 46 47  1  0
 46 45  2  0
 48 59  2  0
 49 47  1  0
 49 54  1  0
 50 58  1  0
 50 60  1  0
 51 57  1  0
 51 53  1  0
 52 58  1  0
 53 54  2  0
 53 52  1  0
 55 49  2  0
 56 55  1  0
 56 51  2  0
 57 50  1  0
 58 48  1  0
 60 62  2  0
 61 60  1  0
 63 61  1  0
 64 73  2  0
 64 69  1  0
 65 61  1  0
 65 69  1  0
 66 65  1  0
 67 68  1  0
 67 66  1  0
 68 64  1  0
 69 70  2  0
 70 71  1  0
 72 71  2  0
 73 72  1  0
 74 48  1  0
 74 79  1  0
 74 75  1  0
 75 78  1  1
 75 76  1  0
 77 75  1  0
 79 82  1  0
 80 84  1  0
 80 79  1  0
 81 80  2  0
 84 83  1  0
 86 84  1  0
 86 87  1  0
 86 85  1  0
M  ISO  4   4 100   9 100  46 101  47 101
M  END
>  <TORSDO>  (11) 
F 19

>  <SCORE>  (11) 
-12.934

>  <name>  (11) 
10

>  <ligand_id>  (11) 
10

>  <original_smiles>  (11) 
[H]c1nc(C([H])([H])C([H])([H])C([H])([H])Oc2c([H])c([H])c3c(c2[H])C([H])([H])N(C(=O)C([H])(N([H])C(=O)C([H])(N([H])C([H])([H])[H])C([H])([H])[H])C(C([H])([H])[H])(C([H])([H])[H])C([H])([H])[H])C([H])(C(=O)N([H])C2([H])c4c([H])c([H])c([H])c([H])c4C([H])([H])C([H])([H])C2([H])[H])C3([H])[H])c([H])c(C(=O)N2C([H])([H])C([H])([H])C([H])([H])C([H])(n3nc(-c4c([H])c([H])c(Oc5c([H])c([H])c(F)c([H])c5F)c([H])c4[H])c(C(=O)N([H])[H])c3N([H])[H])C2([H])[H])c1C([H])([H])[H]

>  <smiles>  (11) 
[H]c1nc(C([H])([H])C([H])([H])C([H])([H])Oc2c([H])c([H])c3c(c2[H])C([H])([H])N(C(=O)C([H])(N([H])C(=O)C([H])(N([H])C([H])([H])[H])C([H])([H])[H])C(C([H])([H])[H])(C([H])([H])[H])C([H])([H])[H])C([H])(C(=O)N([H])C2([H])c4c([H])c([H])c([H])c([H])c4C([H])([H])C([H])([H])C2([H])[H])C3([H])[H])c([H])c(C(=O)N2C([H])([H])C([H])([H])C([H])([H])C([H])(n3nc(-c4c([H])c([H])c(Oc5c([H])c([H])c(F)c([H])c5F)c([H])c4[H])c(C(=O)N([H])[H])c3N([H])[H])C2([H])[H])c1C([H])([H])[H]

$$$$
11:0:0
     RDKit          3D

 89 97  0  0  1  0  0  0  0  0999 V2000
  -29.6960  -21.9400   20.6740 C   0  0  0  0  0  2  0  0  0  0  0  0
  -30.0200  -20.8260   19.6480 C   0  0  0  0  0  2  0  0  0  0  0  0
  -31.2190  -18.8870   20.8420 C   0  0  0  0  0  3  0  0  0  0  0  0
  -31.2150  -17.5290   21.2330 C   0  0  0  0  0  3  0  0  0  0  0  0
  -30.0670  -19.3980   20.2060 C   0  0  0  0  0  0  0  0  0  0  0  0
  -30.0630  -16.7620   20.9410 C   0  0  0  0  0  0  0  0  0  0  0  0
  -28.9700  -18.6220   20.0030 N   0  0  0  0  0  0  0  0  0  0  0  0
  -28.9710  -17.3290   20.3600 N   0  0  0  0  0  0  0  0  0  0  0  0
  -29.9300  -15.4200   21.2380 O   0  0  0  0  0  0  0  0  0  0  0  0
  -30.6900  -14.4830   20.6010 C   0  0  0  0  0  0  0  0  0  0  0  0
  -30.3920  -12.3090   19.4250 C   0  0  0  0  0  2  0  0  0  0  0  0
  -29.4820  -12.5520   18.2030 C   0  0  0  0  0  2  0  0  0  0  0  0
  -27.9950  -12.4280   18.5940 C   0  0  0  0  0  2  0  0  0  0  0  0
  -27.6350  -13.2560   19.8580 C   0  0  0  0  0  3  0  0  0  0  0  0
  -28.6540  -13.0090   20.9930 C   0  0  0  0  0  2  0  0  0  0  0  0
  -30.0000  -13.2660   20.4660 N   0  0  0  0  0  0  0  0  0  0  0  0
  -31.7960  -14.7170   20.1000 O   0  0  0  0  0  0  0  0  0  0  0  0
  -25.2160  -13.8780   20.4810 C   0  0  0  0  0  0  0  0  0  0  0  0
  -24.1360  -13.1130   20.8300 C   0  0  0  0  0  0  0  0  0  0  0  0
  -24.5950  -11.7600   20.8360 C   0  0  0  0  0  0  0  0  0  0  0  0
  -26.2660  -12.9920   20.2960 N   0  0  0  0  0  0  0  0  0  0  0  0
  -25.8940  -11.7140   20.5650 N   0  0  0  0  0  0  0  0  0  0  0  0
  -23.8620  -10.5020   21.0270 C   0  0  0  0  0  0  0  0  0  0  0  0
  -24.2730   -9.5450   21.9800 C   0  0  0  0  0  3  0  0  0  0  0  0
  -23.5410   -8.3500   22.1570 C   0  0  0  0  0  3  0  0  0  0  0  0
  -22.3840   -8.1050   21.3800 C   0  0  0  0  0  0  0  0  0  0  0  0
  -21.9920   -9.0510   20.4170 C   0  0  0  0  0  3  0  0  0  0  0  0
  -22.7250  -10.2370   20.2380 C   0  0  0  0  0  3  0  0  0  0  0  0
  -21.6260   -6.9630   21.4650 O   0  0  0  0  0  0  0  0  0  0  0  0
  -21.5600   -6.2270   22.6220 C   0  0  0  0  0  0  0  0  0  0  0  0
  -21.1290   -6.7930   23.8410 C   0  0  0  0  0  3  0  0  0  0  0  0
  -21.0080   -5.9840   24.9890 C   0  0  0  0  0  3  0  0  0  0  0  0
  -21.3090   -4.6100   24.9190 C   0  0  0  0  0  0  0  0  0  0  0  0
  -21.7350   -4.0450   23.7040 C   0  0  0  0  0  3  0  0  0  0  0  0
  -21.8560   -4.8500   22.5580 C   0  0  0  0  0  0  0  0  0  0  0  0
  -22.2450   -4.2960   21.3850 F   0  0  0  0  0  0  0  0  0  0  0  0
  -21.1880   -3.8320   26.0190 F   0  0  0  0  0  0  0  0  0  0  0  0
  -22.7320  -13.5950   21.0570 C   0  0  0  0  0  0  0  0  0  0  0  0
  -21.9800  -12.9140   21.9130 N   0  0  0  0  0  0  0  0  0  0  0  0
  -22.3110  -14.6130   20.5100 O   0  0  0  0  0  0  0  0  0  0  0  0
  -22.3340  -12.0920   22.3800 H   0  0  0  0  0  0  0  0  0  0  0  0
  -21.0370  -13.2190   22.1070 H   0  0  0  0  0  0  0  0  0  0  0  0
  -25.3900  -15.2460   20.2890 N   0  0  0  0  0  0  0  0  0  0  0  0
  -24.6270  -15.9080   20.3770 H   0  0  0  0  0  0  0  0  0  0  0  0
  -26.2640  -15.6830   20.0210 H   0  0  0  0  0  0  0  0  0  0  0  0
  -29.4820  -23.3420   20.0300 C   0  0  0  0  0  2  0  0  0  0  0  0
  -29.3910  -24.5090   21.0540 C   0  0  0  0  0  2  0  0  0  0  0  0
  -28.1580  -25.4400   20.9300 C   0  0  0  0  0  2  0  0  0  0  0  0
  -28.3560  -26.6520   20.1750 O   0  0  0  0  0  0  0  0  0  0  0  0
  -24.5960  -31.8760   23.2350 C   0  0  0  0  0  0  0  0  0  0  0  0
  -27.2200  -27.4330   20.1390 C   0  0  0  0  0  0  0  0  0  0  0  0
  -23.3800  -30.4740   21.6000 C   0  0  0  0  0  3  0  0  0  0  0  0
  -24.8260  -28.9430   20.1600 C   0  0  0  0  0  0  0  0  0  0  0  0
  -25.9050  -30.8360   21.3860 C   0  0  0  0  0  2  0  0  0  0  0  0
  -25.9900  -29.4670   20.7410 C   0  0  0  0  0  0  0  0  0  0  0  0
  -27.1920  -28.7200   20.7240 C   0  0  0  0  0  3  0  0  0  0  0  0
  -26.0430  -26.9310   19.5410 C   0  0  0  0  0  3  0  0  0  0  0  0
  -24.8490  -27.6750   19.5550 C   0  0  0  0  0  3  0  0  0  0  0  0
  -23.5810  -29.7980   20.2190 C   0  0  0  0  0  2  0  0  0  0  0  0
  -24.6460  -31.0770   22.1320 N   0  0  0  0  0  0  0  0  0  0  0  0
  -23.5190  -32.1470   23.7840 O   0  0  0  0  0  0  0  0  0  0  0  0
  -22.7360  -29.4520   22.5640 C   0  0  0  0  0  0  0  0  0  0  0  0
  -21.4110  -29.2690   22.4460 N   0  0  0  0  0  0  0  0  0  0  0  0
  -23.4250  -28.8260   23.3740 O   0  0  0  0  0  0  0  0  0  0  0  0
  -20.9160  -29.8260   21.7630 H   0  0  0  0  0  0  0  0  0  0  0  0
  -18.0400  -28.0710   22.9590 C   0  0  0  0  0  0  0  0  0  0  0  0
  -20.5990  -28.3320   23.2210 C   0  0  0  0  0  3  0  0  0  0  0  0
  -20.7010  -26.9000   22.6450 C   0  0  0  0  0  2  0  0  0  0  0  0
  -19.5950  -26.5750   21.6360 C   0  0  0  0  0  2  0  0  0  0  0  0
  -18.2150  -26.7220   22.2850 C   0  0  0  0  0  2  0  0  0  0  0  0
  -19.1590  -28.8340   23.3840 C   0  0  0  0  0  0  0  0  0  0  0  0
  -18.9430  -30.0990   23.9740 C   0  0  0  0  0  3  0  0  0  0  0  0
  -17.6380  -30.5990   24.1450 C   0  0  0  0  0  3  0  0  0  0  0  0
  -16.5340  -29.8340   23.7360 C   0  0  0  0  0  3  0  0  0  0  0  0
  -16.7340  -28.5720   23.1490 C   0  0  0  0  0  3  0  0  0  0  0  0
  -25.8850  -32.5070   23.8470 C   0  0  0  0  0  3  0  0  0  0  0  0
  -25.5790  -33.9050   24.1810 N   0  0  0  0  0  0  0  0  0  0  0  0
  -25.9100  -34.9580   23.4210 C   0  0  0  0  0  0  0  0  0  0  0  0
  -26.5780  -34.8560   22.3880 O   0  0  0  0  0  0  0  0  0  0  0  0
  -24.9860  -34.0580   24.9830 H   0  0  0  0  0  0  0  0  0  0  0  0
  -24.1840  -36.7520   23.0690 C   0  0  0  0  0  1  0  0  0  0  0  0
  -25.4240  -36.3450   23.8810 C   0  0  0  0  0  3  0  0  0  0  0  0
  -27.5600  -37.2230   24.7130 C   0  0  0  0  0  1  0  0  0  0  0  0
  -26.4580  -37.3980   23.7720 N   0  0  0  0  0  0  0  0  0  0  0  0
  -26.0520  -38.3180   23.9240 H   0  0  0  0  0  0  0  0  0  0  0  0
  -26.4160  -31.7330   25.1150 C   0  0  1  0  0  0  0  0  0  0  0  0
  -25.3340  -31.4940   26.1930 C   0  0  0  0  0  1  0  0  0  0  0  0
  -26.9950  -30.3580   24.7120 C   0  0  0  0  0  1  0  0  0  0  0  0
  -27.5720  -32.5280   25.7680 C   0  0  0  0  0  1  0  0  0  0  0  0
  2  5  1  0
  2  1  1  0
  3  4  2  0
  5  3  1  0
  6  4  1  0
  6  9  1  0
  7  5  2  0
  7  8  1  0
  8  6  2  0
 10  9  1  0
 11 16  1  0
 12 13  1  0
 12 11  1  0
 14 13  1  0
 14 21  1  0
 14 15  1  0
 16 10  1  0
 16 15  1  0
 17 10  2  0
 18 19  2  0
 19 20  1  0
 19 38  1  0
 20 23  1  0
 21 18  1  0
 21 22  1  0
 22 20  2  0
 23 24  1  0
 24 25  2  0
 26 29  1  0
 26 25  1  0
 27 26  2  0
 28 27  1  0
 28 23  2  0
 29 30  1  0
 30 31  1  0
 31 32  2  0
 33 32  1  0
 33 37  1  0
 34 33  2  0
 35 30  2  0
 35 34  1  0
 36 35  1  0
 38 39  1  0
 39 42  1  0
 39 41  1  0
 40 38  2  0
 43 44  1  0
 43 18  1  0
 45 43  1  0
 46  1  1  0
 46 47  1  0
 48 47  1  0
 49 48  1  0
 50 61  2  0
 51 49  1  0
 51 56  1  0
 52 60  1  0
 52 62  1  0
 53 59  1  0
 53 55  1  0
 54 60  1  0
 55 54  1  0
 56 55  2  0
 57 58  1  0
 57 51  2  0
 58 53  2  0
 59 52  1  0
 60 50  1  0
 62 64  2  0
 63 62  1  0
 65 63  1  0
 66 75  2  0
 66 71  1  0
 67 63  1  0
 67 71  1  0
 68 67  1  0
 69 70  1  0
 69 68  1  0
 70 66  1  0
 71 72  2  0
 72 73  1  0
 74 73  2  0
 75 74  1  0
 76 50  1  0
 76 77  1  0
 76 86  1  0
 77 80  1  0
 78 82  1  0
 78 77  1  0
 79 78  2  0
 82 81  1  0
 84 82  1  0
 84 85  1  0
 84 83  1  0
 86 89  1  1
 86 87  1  0
 88 86  1  0
M  ISO  4   9 100  10 100  48 101  49 101
M  END
>  <TORSDO>  (12) 
F 22

>  <SCORE>  (12) 
-13.245

>  <name>  (12) 
11

>  <ligand_id>  (12) 
11

>  <original_smiles>  (12) 
[H]c1c(OC(=O)N2C([H])([H])C([H])([H])C([H])([H])C([H])(n3nc(-c4c([H])c([H])c(Oc5c([H])c([H])c(F)c([H])c5F)c([H])c4[H])c(C(=O)N([H])[H])c3N([H])[H])C2([H])[H])nnc(C([H])([H])C([H])([H])C([H])([H])C([H])([H])C([H])([H])Oc2c([H])c([H])c3c(c2[H])C([H])([H])N(C(=O)C([H])(N([H])C(=O)C([H])(N([H])C([H])([H])[H])C([H])([H])[H])C(C([H])([H])[H])(C([H])([H])[H])C([H])([H])[H])C([H])(C(=O)N([H])C2([H])c4c([H])c([H])c([H])c([H])c4C([H])([H])C([H])([H])C2([H])[H])C3([H])[H])c1[H]

>  <smiles>  (12) 
[H]c1c(OC(=O)N2C([H])([H])C([H])([H])C([H])([H])C([H])(n3nc(-c4c([H])c([H])c(Oc5c([H])c([H])c(F)c([H])c5F)c([H])c4[H])c(C(=O)N([H])[H])c3N([H])[H])C2([H])[H])nnc(C([H])([H])C([H])([H])C([H])([H])C([H])([H])C([H])([H])Oc2c([H])c([H])c3c(c2[H])C([H])([H])N(C(=O)C([H])(N([H])C(=O)C([H])(N([H])C([H])([H])[H])C([H])([H])[H])C(C([H])([H])[H])(C([H])([H])[H])C([H])([H])[H])C([H])(C(=O)N([H])C2([H])c4c([H])c([H])c([H])c([H])c4C([H])([H])C([H])([H])C2([H])[H])C3([H])[H])c1[H]

$$$$
12:0:0
     RDKit          3D

 91 98  0  0  1  0  0  0  0  0999 V2000
  -28.8010  -20.5600   19.9260 C   0  0  0  0  0  3  0  0  0  0  0  0
  -27.0090  -19.1450   18.6110 C   0  0  0  0  0  1  0  0  0  0  0  0
  -27.3140  -20.1630   19.7160 C   0  0  0  0  0  2  0  0  0  0  0  0
  -29.7540  -19.2930   20.5010 C   0  0  0  0  0  3  0  0  0  0  0  0
  -31.2250  -19.7720   20.3570 C   0  0  0  0  0  2  0  0  0  0  0  0
  -33.6470  -19.3280   20.9620 C   0  0  0  0  0  1  0  0  0  0  0  0
  -32.1810  -20.4440   22.6610 C   0  0  0  0  0  1  0  0  0  0  0  0
  -32.2170  -19.4490   21.5060 C   0  0  0  0  0  3  0  0  0  0  0  0
  -29.7380  -17.6980   19.9440 C   0  0  0  0  0  2  0  0  0  0  0  0
  -29.7880  -16.2630   22.1170 C   0  0  0  0  0  1  0  0  0  0  0  0
  -30.4420  -16.4100   20.7260 C   0  0  0  0  0  3  0  0  0  0  0  0
  -31.0050  -15.0210   20.0400 C   0  0  0  0  0  0  0  0  0  0  0  0
  -30.7900  -12.7590   18.9580 C   0  0  0  0  0  2  0  0  0  0  0  0
  -29.8060  -12.8530   17.7690 C   0  0  0  0  0  2  0  0  0  0  0  0
  -28.3400  -12.7120   18.2230 C   0  0  0  0  0  2  0  0  0  0  0  0
  -28.0330  -13.5460   19.4950 C   0  0  0  0  0  3  0  0  0  0  0  0
  -29.1170  -13.3500   20.5660 C   0  0  0  0  0  2  0  0  0  0  0  0
  -30.3890  -13.7790   19.9710 N   0  0  0  0  0  0  0  0  0  0  0  0
  -32.1250  -15.0970   19.5200 O   0  0  0  0  0  0  0  0  0  0  0  0
  -25.6940  -14.1870   20.3050 C   0  0  0  0  0  0  0  0  0  0  0  0
  -24.6160  -13.4400   20.7060 C   0  0  0  0  0  0  0  0  0  0  0  0
  -25.0330  -12.0760   20.6300 C   0  0  0  0  0  0  0  0  0  0  0  0
  -26.6970  -13.2810   20.0160 N   0  0  0  0  0  0  0  0  0  0  0  0
  -26.3090  -12.0030   20.2660 N   0  0  0  0  0  0  0  0  0  0  0  0
  -24.2710  -10.8340   20.8180 C   0  0  0  0  0  0  0  0  0  0  0  0
  -24.6650   -9.8650   21.7650 C   0  0  0  0  0  3  0  0  0  0  0  0
  -23.9090   -8.6860   21.9400 C   0  0  0  0  0  3  0  0  0  0  0  0
  -22.7450   -8.4690   21.1680 C   0  0  0  0  0  0  0  0  0  0  0  0
  -22.3670   -9.4280   20.2120 C   0  0  0  0  0  3  0  0  0  0  0  0
  -23.1230  -10.5990   20.0360 C   0  0  0  0  0  3  0  0  0  0  0  0
  -21.9640   -7.3420   21.2530 O   0  0  0  0  0  0  0  0  0  0  0  0
  -21.8120   -6.6580   22.4320 C   0  0  0  0  0  0  0  0  0  0  0  0
  -21.3130   -7.2810   23.5970 C   0  0  0  0  0  3  0  0  0  0  0  0
  -21.1110   -6.5250   24.7700 C   0  0  0  0  0  3  0  0  0  0  0  0
  -21.3940   -5.1460   24.7750 C   0  0  0  0  0  0  0  0  0  0  0  0
  -21.8830   -4.5220   23.6150 C   0  0  0  0  0  3  0  0  0  0  0  0
  -22.0890   -5.2760   22.4450 C   0  0  0  0  0  0  0  0  0  0  0  0
  -22.5420   -4.6650   21.3240 F   0  0  0  0  0  0  0  0  0  0  0  0
  -21.1920   -4.4170   25.8980 F   0  0  0  0  0  0  0  0  0  0  0  0
  -23.2500  -13.9600   21.0400 C   0  0  0  0  0  0  0  0  0  0  0  0
  -22.5280  -13.2770   21.9270 N   0  0  0  0  0  0  0  0  0  0  0  0
  -22.8270  -15.0070   20.5560 O   0  0  0  0  0  0  0  0  0  0  0  0
  -22.8770  -12.4310   22.3530 H   0  0  0  0  0  0  0  0  0  0  0  0
  -21.6090  -13.6110   22.1820 H   0  0  0  0  0  0  0  0  0  0  0  0
  -25.9080  -15.5500   20.1330 N   0  0  0  0  0  0  0  0  0  0  0  0
  -25.1750  -16.2440   20.2140 H   0  0  0  0  0  0  0  0  0  0  0  0
  -26.7640  -15.9180   19.7370 H   0  0  0  0  0  0  0  0  0  0  0  0
  -28.7220  -22.0350   20.7060 C   0  0  0  0  0  3  0  0  0  0  0  0
  -28.4090  -23.4850   19.9460 C   0  0  0  0  0  3  0  0  0  0  0  0
  -28.0830  -24.9110   20.7330 C   0  0  0  0  0  2  0  0  0  0  0  0
  -28.2170  -26.3320   20.1730 O   0  0  0  0  0  0  0  0  0  0  0  0
  -24.5450  -31.9040   23.1960 C   0  0  0  0  0  0  0  0  0  0  0  0
  -27.1250  -27.2450   20.1700 C   0  0  0  0  0  0  0  0  0  0  0  0
  -23.3340  -30.4890   21.5790 C   0  0  0  0  0  3  0  0  0  0  0  0
  -24.7780  -28.9220   20.1430 C   0  0  0  0  0  0  0  0  0  0  0  0
  -25.8730  -30.7950   21.3690 C   0  0  0  0  0  2  0  0  0  0  0  0
  -25.9560  -29.4020   20.7300 C   0  0  0  0  0  0  0  0  0  0  0  0
  -27.1330  -28.5780   20.7210 C   0  0  0  0  0  3  0  0  0  0  0  0
  -25.9230  -26.8380   19.5550 C   0  0  0  0  0  3  0  0  0  0  0  0
  -24.7710  -27.6510   19.5400 C   0  0  0  0  0  3  0  0  0  0  0  0
  -23.5430  -29.8040   20.2010 C   0  0  0  0  0  2  0  0  0  0  0  0
  -24.6060  -31.0810   22.1050 N   0  0  0  0  0  0  0  0  0  0  0  0
  -23.4670  -32.1810   23.7410 O   0  0  0  0  0  0  0  0  0  0  0  0
  -22.6810  -29.4780   22.5550 C   0  0  0  0  0  0  0  0  0  0  0  0
  -21.3550  -29.2910   22.4440 N   0  0  0  0  0  0  0  0  0  0  0  0
  -23.3700  -28.8620   23.3710 O   0  0  0  0  0  0  0  0  0  0  0  0
  -20.8560  -29.8530   21.7690 H   0  0  0  0  0  0  0  0  0  0  0  0
  -17.9940  -28.0430   22.9610 C   0  0  0  0  0  0  0  0  0  0  0  0
  -20.5480  -28.3460   23.2220 C   0  0  0  0  0  3  0  0  0  0  0  0
  -20.6680  -26.9080   22.6680 C   0  0  0  0  0  2  0  0  0  0  0  0
  -19.5690  -26.5540   21.6580 C   0  0  0  0  0  2  0  0  0  0  0  0
  -18.1860  -26.6860   22.3040 C   0  0  0  0  0  2  0  0  0  0  0  0
  -19.1020  -28.8290   23.3740 C   0  0  0  0  0  0  0  0  0  0  0  0
  -18.8650  -30.0970   23.9500 C   0  0  0  0  0  3  0  0  0  0  0  0
  -17.5530  -30.5780   24.1150 C   0  0  0  0  0  3  0  0  0  0  0  0
  -16.4590  -29.7890   23.7180 C   0  0  0  0  0  3  0  0  0  0  0  0
  -16.6810  -28.5250   23.1440 C   0  0  0  0  0  3  0  0  0  0  0  0
  -25.8300  -32.5530   23.7940 C   0  0  0  0  0  3  0  0  0  0  0  0
  -26.3830  -31.7790   25.0540 C   0  0  1  0  0  0  0  0  0  0  0  0
  -25.3160  -31.5100   26.1420 C   0  0  0  0  0  1  0  0  0  0  0  0
  -26.9840  -30.4170   24.6330 C   0  0  0  0  0  1  0  0  0  0  0  0
  -27.5240  -32.5960   25.7050 C   0  0  0  0  0  1  0  0  0  0  0  0
  -25.5020  -33.9440   24.1450 N   0  0  0  0  0  0  0  0  0  0  0  0
  -25.8070  -35.0120   23.3970 C   0  0  0  0  0  0  0  0  0  0  0  0
  -26.4600  -34.9320   22.3540 O   0  0  0  0  0  0  0  0  0  0  0  0
  -24.9150  -34.0740   24.9560 H   0  0  0  0  0  0  0  0  0  0  0  0
  -24.0510  -36.7910   23.1130 C   0  0  0  0  0  1  0  0  0  0  0  0
  -25.3130  -36.3850   23.8910 C   0  0  0  0  0  3  0  0  0  0  0  0
  -27.4520  -37.2890   24.6920 C   0  0  0  0  0  1  0  0  0  0  0  0
  -26.3270  -37.4560   23.7750 N   0  0  0  0  0  0  0  0  0  0  0  0
  -25.9080  -38.3640   23.9540 H   0  0  0  0  0  0  0  0  0  0  0  0
  1  3  1  0
  1  4  1  0
  1 48  1  0
  2  3  1  0
  4  9  1  0
  5  4  1  0
  5  8  1  0
  6  8  1  0
  8  7  1  0
  9 11  1  0
 11 10  1  0
 12 11  1  0
 13 18  1  0
 14 15  1  0
 14 13  1  0
 16 15  1  0
 16 23  1  0
 16 17  1  0
 18 12  1  0
 18 17  1  0
 19 12  2  0
 20 21  2  0
 21 40  1  0
 22 21  1  0
 22 25  1  0
 23 24  1  0
 23 20  1  0
 24 22  2  0
 25 26  1  0
 26 27  2  0
 28 31  1  0
 28 27  1  0
 29 28  2  0
 30 29  1  0
 30 25  2  0
 31 32  1  0
 32 37  2  0
 32 33  1  0
 33 34  2  0
 34 35  1  0
 35 39  1  0
 36 35  2  0
 37 36  1  0
 38 37  1  0
 40 41  1  0
 41 44  1  0
 41 43  1  0
 42 40  2  0
 45 46  1  0
 45 20  1  0
 47 45  1  0
 49 48  2  0
 49 50  1  0
 51 50  1  0
 52 63  2  0
 53 51  1  0
 53 58  1  0
 54 62  1  0
 54 64  1  0
 55 61  1  0
 55 57  1  0
 56 62  1  0
 57 56  1  0
 58 57  2  0
 59 53  2  0
 60 59  1  0
 60 55  2  0
 61 54  1  0
 62 52  1  0
 64 66  2  0
 65 64  1  0
 67 65  1  0
 68 77  2  0
 68 73  1  0
 69 65  1  0
 69 73  1  0
 70 69  1  0
 71 72  1  0
 71 70  1  0
 72 68  1  0
 73 74  2  0
 74 75  1  0
 76 75  2  0
 77 76  1  0
 78 52  1  0
 78 83  1  0
 78 79  1  0
 79 82  1  1
 79 80  1  0
 81 79  1  0
 83 86  1  0
 84 88  1  0
 84 83  1  0
 85 84  2  0
 88 87  1  0
 90 88  1  0
 90 91  1  0
 90 89  1  0
M  ISO  4  11 100  12 100  50 101  51 101
M  END
>  <TORSDO>  (13) 
F 25

>  <SCORE>  (13) 
-11.529

>  <name>  (13) 
12

>  <ligand_id>  (13) 
12

>  <original_smiles>  (13) 
[H]c1c([H])c([H])c2c(c1[H])C([H])([H])C([H])([H])C([H])([H])C2([H])N([H])C(=O)C1([H])N(C(=O)C([H])(N([H])C(=O)C([H])(N([H])C([H])([H])[H])C([H])([H])[H])C(C([H])([H])[H])(C([H])([H])[H])C([H])([H])[H])C([H])([H])c2c([H])c(OC([H])([H])C([H])([H])C([H])([H])C([H])(C([H])([H])C([H])([H])[H])C([H])(C([H])([H])C([H])(C(=O)N3C([H])([H])C([H])([H])C([H])([H])C([H])(n4nc(-c5c([H])c([H])c(Oc6c([H])c([H])c(F)c([H])c6F)c([H])c5[H])c(C(=O)N([H])[H])c4N([H])[H])C3([H])[H])C([H])([H])[H])C([H])([H])C([H])(C([H])([H])[H])C([H])([H])[H])c([H])c([H])c2C1([H])[H]

>  <smiles>  (13) 
[H]c1c([H])c([H])c2c(c1[H])C([H])([H])C([H])([H])C([H])([H])C2([H])N([H])C(=O)C1([H])N(C(=O)C([H])(N([H])C(=O)C([H])(N([H])C([H])([H])[H])C([H])([H])[H])C(C([H])([H])[H])(C([H])([H])[H])C([H])([H])[H])C([H])([H])c2c([H])c(OC([H])([H])C([H])([H])C([H])([H])C([H])(C([H])([H])C([H])([H])[H])C([H])(C([H])([H])C([H])(C(=O)N3C([H])([H])C([H])([H])C([H])([H])C([H])(n4nc(-c5c([H])c([H])c(Oc6c([H])c([H])c(F)c([H])c6F)c([H])c5[H])c(C(=O)N([H])[H])c4N([H])[H])C3([H])[H])C([H])([H])[H])C([H])([H])C([H])(C([H])([H])[H])C([H])([H])[H])c([H])c([H])c2C1([H])[H]

$$$$
13:0:0
     RDKit          3D

 96104  0  0  1  0  0  0  0  0999 V2000
  -29.6910  -21.8830   21.2520 C   0  0  0  0  0  3  0  0  0  0  0  0
  -29.2640  -20.5200   19.3120 C   0  0  0  0  0  3  0  0  0  0  0  0
  -29.0820  -21.7610   19.9830 C   0  0  0  0  0  0  0  0  0  0  0  0
  -30.2970  -20.7690   21.8490 C   0  0  0  0  0  0  0  0  0  0  0  0
  -29.9760  -19.4670   19.9490 C   0  0  0  0  0  0  0  0  0  0  0  0
  -30.4230  -19.5900   21.2160 N   0  0  0  0  0  0  0  0  0  0  0  0
  -32.2190  -21.3380   23.4360 C   0  0  0  0  0  1  0  0  0  0  0  0
  -30.5550  -19.4920   24.0140 C   0  0  0  0  0  1  0  0  0  0  0  0
  -30.7750  -20.8320   23.2970 C   0  0  0  0  0  3  0  0  0  0  0  0
  -30.5180  -18.0700   17.8370 C   0  0  0  0  0  1  0  0  0  0  0  0
  -30.2160  -18.0640   19.3500 C   0  0  0  0  0  3  0  0  0  0  0  0
  -31.3010  -17.2540   20.1300 C   0  0  0  0  0  2  0  0  0  0  0  0
  -31.6020  -14.7650   19.9690 C   0  0  0  0  0  0  0  0  0  0  0  0
  -31.2590  -12.4590   19.1840 C   0  0  0  0  0  2  0  0  0  0  0  0
  -30.2950  -12.4920   17.9810 C   0  0  0  0  0  2  0  0  0  0  0  0
  -28.8300  -12.4300   18.4550 C   0  0  0  0  0  2  0  0  0  0  0  0
  -28.5170  -13.4490   19.5830 C   0  0  0  0  0  3  0  0  0  0  0  0
  -29.5990  -13.4040   20.6880 C   0  0  0  0  0  2  0  0  0  0  0  0
  -30.9150  -13.5930   20.0500 N   0  0  0  0  0  0  0  0  0  0  0  0
  -32.7110  -14.8680   19.4470 O   0  0  0  0  0  0  0  0  0  0  0  0
  -30.9120  -15.8490   20.3340 N   0  0  0  0  0  0  0  0  0  0  0  0
  -29.9980  -15.6840   20.7290 H   0  0  0  0  0  0  0  0  0  0  0  0
  -26.2210  -14.1850   20.4820 C   0  0  0  0  0  0  0  0  0  0  0  0
  -25.1140  -13.4720   20.8620 C   0  0  0  0  0  0  0  0  0  0  0  0
  -25.4620  -12.0960   20.7140 C   0  0  0  0  0  0  0  0  0  0  0  0
  -27.1750  -13.2450   20.1280 N   0  0  0  0  0  0  0  0  0  0  0  0
  -26.7250  -11.9800   20.3260 N   0  0  0  0  0  0  0  0  0  0  0  0
  -24.6460  -10.8830   20.8630 C   0  0  0  0  0  0  0  0  0  0  0  0
  -24.9810   -9.8790   21.7980 C   0  0  0  0  0  3  0  0  0  0  0  0
  -24.1730   -8.7300   21.9360 C   0  0  0  0  0  3  0  0  0  0  0  0
  -23.0150   -8.5780   21.1380 C   0  0  0  0  0  0  0  0  0  0  0  0
  -22.6990   -9.5670   20.1910 C   0  0  0  0  0  3  0  0  0  0  0  0
  -23.5070  -10.7080   20.0500 C   0  0  0  0  0  3  0  0  0  0  0  0
  -22.1840   -7.4850   21.1880 O   0  0  0  0  0  0  0  0  0  0  0  0
  -21.9270   -6.8260   22.3630 C   0  0  0  0  0  0  0  0  0  0  0  0
  -21.3310   -7.4750   23.4660 C   0  0  0  0  0  3  0  0  0  0  0  0
  -21.0220   -6.7430   24.6300 C   0  0  0  0  0  3  0  0  0  0  0  0
  -21.3000   -5.3640   24.6900 C   0  0  0  0  0  0  0  0  0  0  0  0
  -21.8880   -4.7160   23.5900 C   0  0  0  0  0  3  0  0  0  0  0  0
  -22.1990   -5.4440   22.4280 C   0  0  0  0  0  0  0  0  0  0  0  0
  -22.7470   -4.8110   21.3640 F   0  0  0  0  0  0  0  0  0  0  0  0
  -20.9950   -4.6580   25.8040 F   0  0  0  0  0  0  0  0  0  0  0  0
  -23.7780  -14.0350   21.2490 C   0  0  0  0  0  0  0  0  0  0  0  0
  -23.0490  -13.3390   22.1170 N   0  0  0  0  0  0  0  0  0  0  0  0
  -23.3910  -15.1210   20.8220 O   0  0  0  0  0  0  0  0  0  0  0  0
  -23.3770  -12.4580   22.4860 H   0  0  0  0  0  0  0  0  0  0  0  0
  -22.1500  -13.6920   22.4170 H   0  0  0  0  0  0  0  0  0  0  0  0
  -26.4830  -15.5480   20.3890 N   0  0  0  0  0  0  0  0  0  0  0  0
  -25.7760  -16.2450   20.5890 H   0  0  0  0  0  0  0  0  0  0  0  0
  -27.3470  -15.9450   20.0440 H   0  0  0  0  0  0  0  0  0  0  0  0
  -28.2400  -22.8870   19.3270 C   0  0  0  0  0  2  0  0  0  0  0  0
  -26.6990  -24.0250   21.1050 C   0  0  0  0  0  1  0  0  0  0  0  0
  -29.1320  -24.7860   20.7730 C   0  0  0  0  0  1  0  0  0  0  0  0
  -27.8630  -24.2170   20.0990 C   0  0  1  0  0  0  0  0  0  0  0  0
  -27.3780  -25.2870   19.0660 C   0  0  0  0  0  2  0  0  0  0  0  0
  -27.4750  -26.6520   19.5250 O   0  0  0  0  0  0  0  0  0  0  0  0
  -24.6550  -31.9020   23.4410 C   0  0  0  0  0  0  0  0  0  0  0  0
  -26.3670  -27.4590   19.7190 C   0  0  0  0  0  0  0  0  0  0  0  0
  -23.1060  -30.7880   21.8710 C   0  0  0  0  0  3  0  0  0  0  0  0
  -24.1840  -29.2200   20.1670 C   0  0  0  0  0  0  0  0  0  0  0  0
  -25.6200  -30.8620   21.3910 C   0  0  0  0  0  2  0  0  0  0  0  0
  -25.4580  -29.5500   20.6480 C   0  0  0  0  0  0  0  0  0  0  0  0
  -26.5450  -28.6720   20.4290 C   0  0  0  0  0  3  0  0  0  0  0  0
  -25.0700  -27.1490   19.2440 C   0  0  0  0  0  3  0  0  0  0  0  0
  -23.9840  -28.0160   19.4710 C   0  0  0  0  0  3  0  0  0  0  0  0
  -23.0720  -30.2080   20.4330 C   0  0  0  0  0  2  0  0  0  0  0  0
  -24.4880  -31.1920   22.2890 N   0  0  0  0  0  0  0  0  0  0  0  0
  -23.6850  -32.2500   24.1270 O   0  0  0  0  0  0  0  0  0  0  0  0
  -22.4460  -29.7710   22.8280 C   0  0  0  0  0  0  0  0  0  0  0  0
  -21.1330  -29.5500   22.6550 N   0  0  0  0  0  0  0  0  0  0  0  0
  -23.1130  -29.1870   23.6860 O   0  0  0  0  0  0  0  0  0  0  0  0
  -20.6570  -30.0720   21.9330 H   0  0  0  0  0  0  0  0  0  0  0  0
  -17.8330  -28.1030   22.8970 C   0  0  0  0  0  0  0  0  0  0  0  0
  -20.3150  -28.6060   23.4160 C   0  0  0  0  0  3  0  0  0  0  0  0
  -20.5990  -27.1500   22.9840 C   0  0  0  0  0  2  0  0  0  0  0  0
  -19.6500  -26.6510   21.8920 C   0  0  0  0  0  2  0  0  0  0  0  0
  -18.1940  -26.7240   22.3670 C   0  0  0  0  0  2  0  0  0  0  0  0
  -18.8320  -28.9910   23.3760 C   0  0  0  0  0  0  0  0  0  0  0  0
  -18.4490  -30.2730   23.8260 C   0  0  0  0  0  3  0  0  0  0  0  0
  -17.0980  -30.6710   23.8060 C   0  0  0  0  0  3  0  0  0  0  0  0
  -16.1100  -29.7810   23.3500 C   0  0  0  0  0  3  0  0  0  0  0  0
  -16.4780  -28.4990   22.8990 C   0  0  0  0  0  3  0  0  0  0  0  0
  -26.0700  -32.3280   23.9410 C   0  0  0  0  0  3  0  0  0  0  0  0
  -25.9960  -33.7460   24.3180 N   0  0  0  0  0  0  0  0  0  0  0  0
  -26.4470  -34.7560   23.5630 C   0  0  0  0  0  0  0  0  0  0  0  0
  -27.0360  -34.5810   22.4930 O   0  0  0  0  0  0  0  0  0  0  0  0
  -25.4630  -33.9660   25.1470 H   0  0  0  0  0  0  0  0  0  0  0  0
  -24.9910  -36.7940   23.3580 C   0  0  0  0  0  1  0  0  0  0  0  0
  -26.2070  -36.1880   24.0750 C   0  0  0  0  0  3  0  0  0  0  0  0
  -28.4960  -36.7280   24.7760 C   0  0  0  0  0  1  0  0  0  0  0  0
  -27.3780  -37.0750   23.9050 N   0  0  0  0  0  0  0  0  0  0  0  0
  -27.1280  -38.0440   24.0840 H   0  0  0  0  0  0  0  0  0  0  0  0
  -26.5880  -31.4560   25.1500 C   0  0  1  0  0  0  0  0  0  0  0  0
  -25.5640  -31.3300   26.3030 C   0  0  0  0  0  1  0  0  0  0  0  0
  -26.9520  -30.0300   24.6800 C   0  0  0  0  0  1  0  0  0  0  0  0
  -27.8840  -32.0760   25.7220 C   0  0  0  0  0  1  0  0  0  0  0  0
  1  4  1  0
  2  5  2  0
  2  3  1  0
  3  1  2  0
  4  9  1  0
  5  6  1  0
  6  4  2  0
  9  7  1  0
  9  8  1  0
 11 10  1  0
 11  5  1  0
 11 12  1  0
 12 21  1  0
 13 19  1  0
 13 21  1  0
 14 19  1  0
 15 16  1  0
 15 14  1  0
 17 16  1  0
 17 26  1  0
 17 18  1  0
 19 18  1  0
 20 13  2  0
 21 22  1  0
 23 24  2  0
 24 43  1  0
 25 24  1  0
 25 28  1  0
 26 27  1  0
 26 23  1  0
 27 25  2  0
 28 29  1  0
 29 30  2  0
 31 34  1  0
 31 30  1  0
 32 31  2  0
 33 32  1  0
 33 28  2  0
 34 35  1  0
 35 40  2  0
 35 36  1  0
 36 37  2  0
 37 38  1  0
 38 42  1  0
 39 38  2  0
 40 39  1  0
 41 40  1  0
 43 44  1  0
 44 47  1  0
 44 46  1  0
 45 43  2  0
 48 23  1  0
 48 49  1  0
 50 48  1  0
 51  3  1  0
 51 54  1  0
 54 53  1  1
 54 52  1  0
 55 56  1  0
 55 54  1  0
 56 58  1  0
 57 68  2  0
 58 63  1  0
 59 67  1  0
 59 69  1  0
 60 66  1  0
 60 62  1  0
 61 67  1  0
 62 61  1  0
 63 62  2  0
 64 65  1  0
 64 58  2  0
 65 60  2  0
 66 59  1  0
 67 57  1  0
 69 71  2  0
 70 69  1  0
 72 70  1  0
 73 82  2  0
 73 78  1  0
 74 70  1  0
 75 74  1  0
 76 77  1  0
 76 75  1  0
 77 73  1  0
 78 74  1  0
 78 79  2  0
 80 79  1  0
 81 80  2  0
 82 81  1  0
 83 57  1  0
 83 84  1  0
 83 93  1  0
 84 87  1  0
 85 89  1  0
 85 84  1  0
 86 85  2  0
 89 88  1  0
 91 89  1  0
 91 92  1  0
 91 90  1  0
 93 96  1  1
 93 94  1  0
 95 93  1  0
M  ISO  4  13 100  21 100  55 101  56 101
M  END
>  <TORSDO>  (14) 
F 22

>  <SCORE>  (14) 
-11.237

>  <name>  (14) 
13

>  <ligand_id>  (14) 
13

>  <original_smiles>  (14) 
[H]c1c([H])c([H])c2c(c1[H])C([H])([H])C([H])([H])C([H])([H])C2([H])N([H])C(=O)C1([H])N(C(=O)C([H])(N([H])C(=O)C([H])(N([H])C([H])([H])[H])C([H])([H])[H])C(C([H])([H])[H])(C([H])([H])[H])C([H])([H])[H])C([H])([H])c2c([H])c(OC([H])([H])C(C([H])([H])[H])(C([H])([H])[H])C([H])([H])c3c([H])c(C([H])(C([H])([H])[H])C([H])([H])[H])nc(C([H])(C([H])([H])[H])C([H])([H])N([H])C(=O)N4C([H])([H])C([H])([H])C([H])([H])C([H])(n5nc(-c6c([H])c([H])c(Oc7c([H])c([H])c(F)c([H])c7F)c([H])c6[H])c(C(=O)N([H])[H])c5N([H])[H])C4([H])[H])c3[H])c([H])c([H])c2C1([H])[H]

>  <smiles>  (14) 
[H]c1c([H])c([H])c2c(c1[H])C([H])([H])C([H])([H])C([H])([H])C2([H])N([H])C(=O)C1([H])N(C(=O)C([H])(N([H])C(=O)C([H])(N([H])C([H])([H])[H])C([H])([H])[H])C(C([H])([H])[H])(C([H])([H])[H])C([H])([H])[H])C([H])([H])c2c([H])c(OC([H])([H])C(C([H])([H])[H])(C([H])([H])[H])C([H])([H])c3c([H])c(C([H])(C([H])([H])[H])C([H])([H])[H])nc(C([H])(C([H])([H])[H])C([H])([H])N([H])C(=O)N4C([H])([H])C([H])([H])C([H])([H])C([H])(n5nc(-c6c([H])c([H])c(Oc7c([H])c([H])c(F)c([H])c7F)c([H])c6[H])c(C(=O)N([H])[H])c5N([H])[H])C4([H])[H])c3[H])c([H])c([H])c2C1([H])[H]

$$$$
14:0:0
     RDKit          3D

 92100  0  0  1  0  0  0  0  0999 V2000
  -31.3070  -21.1660   19.3400 C   0  0  0  0  0  3  0  0  0  0  0  0
  -32.4180  -20.5570   18.7480 C   0  0  0  0  0  0  0  0  0  0  0  0
  -30.2800  -20.4470   20.0010 C   0  0  0  0  0  0  0  0  0  0  0  0
  -32.5200  -19.1660   18.8010 C   0  0  0  0  0  0  0  0  0  0  0  0
  -30.5100  -18.9310   20.0150 C   0  0  0  0  0  0  0  0  0  0  0  0
  -33.4890  -21.4090   18.0800 C   0  0  0  0  0  1  0  0  0  0  0  0
  -33.6920  -18.4270   18.1870 C   0  0  0  0  0  1  0  0  0  0  0  0
  -31.5990  -18.4120   19.4100 N   0  0  0  0  0  0  0  0  0  0  0  0
  -30.1890  -17.6800   22.2450 C   0  0  0  0  0  1  0  0  0  0  0  0
  -29.8490  -17.6300   20.7450 C   0  0  0  0  0  3  0  0  0  0  0  0
  -30.7600  -14.9500   20.0860 C   0  0  0  0  0  0  0  0  0  0  0  0
  -30.5740  -12.6540   18.9810 C   0  0  0  0  0  2  0  0  0  0  0  0
  -29.5520  -12.6720   17.8180 C   0  0  0  0  0  2  0  0  0  0  0  0
  -28.1160  -12.4540   18.3370 C   0  0  0  0  0  2  0  0  0  0  0  0
  -27.8010  -13.3220   19.5830 C   0  0  0  0  0  3  0  0  0  0  0  0
  -28.9280  -13.2470   20.6310 C   0  0  0  0  0  2  0  0  0  0  0  0
  -30.1580  -13.6950   19.9630 N   0  0  0  0  0  0  0  0  0  0  0  0
  -31.9670  -15.0160   19.8340 O   0  0  0  0  0  0  0  0  0  0  0  0
  -29.9220  -16.0890   20.2910 N   0  0  0  0  0  0  0  0  0  0  0  0
  -28.9750  -15.7580   20.2210 H   0  0  0  0  0  0  0  0  0  0  0  0
  -25.4740  -13.9070   20.4780 C   0  0  0  0  0  0  0  0  0  0  0  0
  -24.4250  -13.1340   20.8850 C   0  0  0  0  0  0  0  0  0  0  0  0
  -24.8690  -11.7790   20.7860 C   0  0  0  0  0  0  0  0  0  0  0  0
  -26.4920  -13.0240   20.1500 N   0  0  0  0  0  0  0  0  0  0  0  0
  -26.1400  -11.7370   20.4030 N   0  0  0  0  0  0  0  0  0  0  0  0
  -24.1370  -10.5200   20.9750 C   0  0  0  0  0  0  0  0  0  0  0  0
  -24.5610   -9.5520   21.9130 C   0  0  0  0  0  3  0  0  0  0  0  0
  -23.8290   -8.3600   22.0910 C   0  0  0  0  0  3  0  0  0  0  0  0
  -22.6570   -8.1260   21.3340 C   0  0  0  0  0  0  0  0  0  0  0  0
  -22.2520   -9.0810   20.3850 C   0  0  0  0  0  3  0  0  0  0  0  0
  -22.9850  -10.2670   20.2040 C   0  0  0  0  0  3  0  0  0  0  0  0
  -21.8950   -6.9860   21.4220 O   0  0  0  0  0  0  0  0  0  0  0  0
  -21.7950   -6.2760   22.5910 C   0  0  0  0  0  0  0  0  0  0  0  0
  -21.2660   -6.8520   23.7670 C   0  0  0  0  0  3  0  0  0  0  0  0
  -21.1160   -6.0680   24.9290 C   0  0  0  0  0  3  0  0  0  0  0  0
  -21.4820   -4.7080   24.9130 C   0  0  0  0  0  0  0  0  0  0  0  0
  -22.0010   -4.1320   23.7410 C   0  0  0  0  0  3  0  0  0  0  0  0
  -22.1530   -4.9130   22.5820 C   0  0  0  0  0  0  0  0  0  0  0  0
  -22.6340   -4.3470   21.4480 F   0  0  0  0  0  0  0  0  0  0  0  0
  -21.3300   -3.9530   26.0250 F   0  0  0  0  0  0  0  0  0  0  0  0
  -23.0500  -13.6160   21.2450 C   0  0  0  0  0  0  0  0  0  0  0  0
  -22.3590  -12.9020   22.1280 N   0  0  0  0  0  0  0  0  0  0  0  0
  -22.5970  -14.6610   20.7780 O   0  0  0  0  0  0  0  0  0  0  0  0
  -22.7400  -12.0570   22.5270 H   0  0  0  0  0  0  0  0  0  0  0  0
  -21.4380  -13.2040   22.4100 H   0  0  0  0  0  0  0  0  0  0  0  0
  -25.6390  -15.2820   20.3310 N   0  0  0  0  0  0  0  0  0  0  0  0
  -24.8750  -15.9280   20.5010 H   0  0  0  0  0  0  0  0  0  0  0  0
  -26.4390  -15.7270   19.9030 H   0  0  0  0  0  0  0  0  0  0  0  0
  -29.1400  -21.5320   20.5360 C   0  0  0  0  0  2  0  0  0  0  0  0
  -29.3450  -23.2420   20.4470 C   0  0  0  0  0  3  0  0  0  0  0  0
  -28.2210  -24.4940   20.6510 C   0  0  0  0  0  3  0  0  0  0  0  0
  -28.4710  -26.0450   20.5690 O   0  0  0  0  0  0  0  0  0  0  0  0
  -24.6210  -31.7860   23.1800 C   0  0  0  0  0  0  0  0  0  0  0  0
  -27.4010  -27.0110   20.4380 C   0  0  0  0  0  0  0  0  0  0  0  0
  -23.5180  -30.3250   21.5290 C   0  0  0  0  0  3  0  0  0  0  0  0
  -25.0550  -28.7300   20.2260 C   0  0  0  0  0  0  0  0  0  0  0  0
  -26.0740  -30.6240   21.4760 C   0  0  0  0  0  2  0  0  0  0  0  0
  -26.1980  -29.2110   20.8750 C   0  0  0  0  0  0  0  0  0  0  0  0
  -27.3740  -28.3710   20.9600 C   0  0  0  0  0  3  0  0  0  0  0  0
  -26.2320  -26.6370   19.7390 C   0  0  0  0  0  3  0  0  0  0  0  0
  -25.0890  -27.4570   19.6390 C   0  0  0  0  0  3  0  0  0  0  0  0
  -23.8130  -29.6070   20.1850 C   0  0  0  0  0  2  0  0  0  0  0  0
  -24.7540  -30.9360   22.1160 N   0  0  0  0  0  0  0  0  0  0  0  0
  -23.5090  -32.0700   23.6480 O   0  0  0  0  0  0  0  0  0  0  0  0
  -22.8110  -29.3370   22.4910 C   0  0  0  0  0  0  0  0  0  0  0  0
  -21.4840  -29.1770   22.3430 N   0  0  0  0  0  0  0  0  0  0  0  0
  -23.4580  -28.7170   23.3400 O   0  0  0  0  0  0  0  0  0  0  0  0
  -21.0180  -29.7300   21.6360 H   0  0  0  0  0  0  0  0  0  0  0  0
  -18.0730  -28.0450   22.8190 C   0  0  0  0  0  0  0  0  0  0  0  0
  -20.6350  -28.2590   23.1090 C   0  0  0  0  0  3  0  0  0  0  0  0
  -20.7120  -26.8220   22.5390 C   0  0  0  0  0  2  0  0  0  0  0  0
  -19.6130  -26.5190   21.5170 C   0  0  0  0  0  2  0  0  0  0  0  0
  -18.2280  -26.6930   22.1470 C   0  0  0  0  0  2  0  0  0  0  0  0
  -19.2030  -28.7890   23.2570 C   0  0  0  0  0  0  0  0  0  0  0  0
  -19.0010  -30.0520   23.8500 C   0  0  0  0  0  3  0  0  0  0  0  0
  -17.7030  -30.5760   24.0090 C   0  0  0  0  0  3  0  0  0  0  0  0
  -16.5890  -29.8310   23.5860 C   0  0  0  0  0  3  0  0  0  0  0  0
  -16.7740  -28.5680   22.9970 C   0  0  0  0  0  3  0  0  0  0  0  0
  -25.8590  -32.4580   23.8470 C   0  0  0  0  0  3  0  0  0  0  0  0
  -26.3370  -31.7200   25.1580 C   0  0  1  0  0  0  0  0  0  0  0  0
  -25.2010  -31.4670   26.1790 C   0  0  0  0  0  1  0  0  0  0  0  0
  -26.9760  -30.3540   24.8190 C   0  0  0  0  0  1  0  0  0  0  0  0
  -27.4380  -32.5560   25.8570 C   0  0  0  0  0  1  0  0  0  0  0  0
  -25.4980  -33.8540   24.1480 N   0  0  0  0  0  0  0  0  0  0  0  0
  -25.8420  -34.9130   23.4030 C   0  0  0  0  0  0  0  0  0  0  0  0
  -26.5610  -34.8200   22.4040 O   0  0  0  0  0  0  0  0  0  0  0  0
  -24.8550  -33.9960   24.9120 H   0  0  0  0  0  0  0  0  0  0  0  0
  -24.1030  -36.6820   22.9610 C   0  0  0  0  0  1  0  0  0  0  0  0
  -25.3080  -36.2950   23.8330 C   0  0  0  0  0  3  0  0  0  0  0  0
  -27.3750  -37.2280   24.7750 C   0  0  0  0  0  1  0  0  0  0  0  0
  -26.3270  -37.3660   23.7680 N   0  0  0  0  0  0  0  0  0  0  0  0
  -25.8980  -38.2810   23.8790 H   0  0  0  0  0  0  0  0  0  0  0  0
  1  3  1  0
  2  4  1  0
  2  1  2  0
  3  5  2  0
  3 49  1  0
  4  8  2  0
  5 10  1  0
  6  2  1  0
  7  4  1  0
  8  5  1  0
 10  9  1  0
 11 19  1  0
 12 17  1  0
 13 14  1  0
 13 12  1  0
 15 14  1  0
 15 24  1  0
 15 16  1  0
 17 11  1  0
 17 16  1  0
 18 11  2  0
 19 10  1  0
 20 19  1  0
 21 22  2  0
 22 41  1  0
 23 22  1  0
 23 26  1  0
 24 25  1  0
 24 21  1  0
 25 23  2  0
 26 27  1  0
 27 28  2  0
 29 32  1  0
 29 28  1  0
 30 29  2  0
 31 30  1  0
 31 26  2  0
 32 33  1  0
 33 34  1  0
 34 35  2  0
 36 35  1  0
 36 40  1  0
 37 36  2  0
 38 33  2  0
 38 37  1  0
 39 38  1  0
 41 42  1  0
 42 45  1  0
 42 44  1  0
 43 41  2  0
 46 21  1  0
 46 47  1  0
 48 46  1  0
 50 49  1  0
 50 51  2  0
 52 51  1  0
 53 64  2  0
 54 52  1  0
 54 59  1  0
 55 63  1  0
 55 65  1  0
 56 58  1  0
 57 63  1  0
 58 59  2  0
 58 57  1  0
 60 54  2  0
 61 60  1  0
 61 56  2  0
 62 56  1  0
 62 55  1  0
 63 53  1  0
 65 67  2  0
 66 65  1  0
 68 66  1  0
 69 78  2  0
 69 74  1  0
 70 66  1  0
 70 74  1  0
 71 70  1  0
 72 73  1  0
 72 71  1  0
 73 69  1  0
 74 75  2  0
 75 76  1  0
 77 76  2  0
 78 77  1  0
 79 53  1  0
 79 84  1  0
 79 80  1  0
 80 83  1  1
 80 81  1  0
 82 80  1  0
 84 87  1  0
 85 89  1  0
 85 84  1  0
 86 85  2  0
 89 88  1  0
 91 89  1  0
 91 92  1  0
 91 90  1  0
M  ISO  4  11 100  19 100  51 101  52 101
M  END
>  <TORSDO>  (15) 
F 20

>  <SCORE>  (15) 
-14.632

>  <name>  (15) 
14

>  <ligand_id>  (15) 
14

>  <original_smiles>  (15) 
[H]c1c([H])c([H])c2c(c1[H])C([H])([H])C([H])([H])C([H])([H])C2([H])N([H])C(=O)C1([H])N(C(=O)C([H])(N([H])C(=O)C([H])(N([H])C([H])([H])[H])C([H])([H])[H])C(C([H])([H])[H])(C([H])([H])[H])C([H])([H])[H])C([H])([H])c2c([H])c(OC([H])([H])C([H])([H])C([H])([H])c3c(C([H])(N([H])C(=O)N4C([H])([H])C([H])([H])C([H])([H])C([H])(n5nc(-c6c([H])c([H])c(Oc7c([H])c([H])c(F)c([H])c7F)c([H])c6[H])c(C(=O)N([H])[H])c5N([H])[H])C4([H])[H])C([H])([H])[H])nc(C([H])([H])[H])c(C([H])([H])[H])c3[H])c([H])c([H])c2C1([H])[H]

>  <smiles>  (15) 
[H]c1c([H])c([H])c2c(c1[H])C([H])([H])C([H])([H])C([H])([H])C2([H])N([H])C(=O)C1([H])N(C(=O)C([H])(N([H])C(=O)C([H])(N([H])C([H])([H])[H])C([H])([H])[H])C(C([H])([H])[H])(C([H])([H])[H])C([H])([H])[H])C([H])([H])c2c([H])c(OC([H])([H])C([H])([H])C([H])([H])c3c(C([H])(N([H])C(=O)N4C([H])([H])C([H])([H])C([H])([H])C([H])(n5nc(-c6c([H])c([H])c(Oc7c([H])c([H])c(F)c([H])c7F)c([H])c6[H])c(C(=O)N([H])[H])c5N([H])[H])C4([H])[H])C([H])([H])[H])nc(C([H])([H])[H])c(C([H])([H])[H])c3[H])c([H])c([H])c2C1([H])[H]

$$$$
15:0:0
     RDKit          3D

 90 97  0  0  1  0  0  0  0  0999 V2000
  -31.1590  -21.4370   20.3770 C   0  0  0  0  0  1  0  0  0  0  0  0
  -29.5390  -21.1110   22.2510 C   0  0  0  0  0  1  0  0  0  0  0  0
  -29.6790  -21.1200   20.7090 C   0  0  2  0  0  0  0  0  0  0  0  0
  -29.5190  -19.6020   18.6780 C   0  0  0  0  0  1  0  0  0  0  0  0
  -29.3110  -19.7200   20.1500 N   0  0  1  0  0  4  0  0  0  0  0  0
  -28.3070  -19.6730   20.2530 H   0  0  0  0  0  0  0  0  0  0  0  0
  -29.7850  -18.4560   20.9020 C   0  0  0  0  0  3  0  0  0  0  0  0
  -29.7310  -17.0520   20.1160 C   0  0  0  0  0  3  0  0  0  0  0  0
  -30.6170  -14.6580   20.4360 C   0  0  0  0  0  0  0  0  0  0  0  0
  -30.3940  -12.4300   19.3590 C   0  0  0  0  0  2  0  0  0  0  0  0
  -29.4540  -12.5620   18.1390 C   0  0  0  0  0  2  0  0  0  0  0  0
  -27.9770  -12.4320   18.5610 C   0  0  0  0  0  2  0  0  0  0  0  0
  -27.6250  -13.2900   19.8060 C   0  0  0  0  0  3  0  0  0  0  0  0
  -28.6740  -13.1070   20.9260 C   0  0  0  0  0  2  0  0  0  0  0  0
  -29.9920  -13.4390   20.3650 N   0  0  0  0  0  0  0  0  0  0  0  0
  -31.7460  -14.8250   19.9680 O   0  0  0  0  0  0  0  0  0  0  0  0
  -29.8590  -15.7260   20.8340 N   0  0  0  0  0  0  0  0  0  0  0  0
  -29.0440  -15.4570   21.3650 H   0  0  0  0  0  0  0  0  0  0  0  0
  -25.2210  -13.9050   20.4740 C   0  0  0  0  0  0  0  0  0  0  0  0
  -24.1450  -13.1430   20.8450 C   0  0  0  0  0  0  0  0  0  0  0  0
  -24.6020  -11.7890   20.8360 C   0  0  0  0  0  0  0  0  0  0  0  0
  -26.2670  -13.0200   20.2730 N   0  0  0  0  0  0  0  0  0  0  0  0
  -25.8970  -11.7420   20.5450 N   0  0  0  0  0  0  0  0  0  0  0  0
  -23.8670  -10.5310   21.0350 C   0  0  0  0  0  0  0  0  0  0  0  0
  -24.3000   -9.5600   21.9650 C   0  0  0  0  0  3  0  0  0  0  0  0
  -23.5650   -8.3680   22.1500 C   0  0  0  0  0  3  0  0  0  0  0  0
  -22.3830   -8.1380   21.4050 C   0  0  0  0  0  0  0  0  0  0  0  0
  -21.9730   -9.0950   20.4600 C   0  0  0  0  0  3  0  0  0  0  0  0
  -22.7090  -10.2780   20.2720 C   0  0  0  0  0  3  0  0  0  0  0  0
  -21.6240   -6.9950   21.4980 O   0  0  0  0  0  0  0  0  0  0  0  0
  -21.5930   -6.2450   22.6460 C   0  0  0  0  0  0  0  0  0  0  0  0
  -21.2050   -6.7960   23.8860 C   0  0  0  0  0  3  0  0  0  0  0  0
  -21.1190   -5.9740   25.0270 C   0  0  0  0  0  3  0  0  0  0  0  0
  -21.4120   -4.6000   24.9300 C   0  0  0  0  0  0  0  0  0  0  0  0
  -21.7920   -4.0480   23.6950 C   0  0  0  0  0  3  0  0  0  0  0  0
  -21.8780   -4.8680   22.5550 C   0  0  0  0  0  0  0  0  0  0  0  0
  -22.2260   -4.3260   21.3630 F   0  0  0  0  0  0  0  0  0  0  0  0
  -21.3230   -3.8060   26.0240 F   0  0  0  0  0  0  0  0  0  0  0  0
  -22.7470  -13.6280   21.0980 C   0  0  0  0  0  0  0  0  0  0  0  0
  -22.0090  -12.9390   21.9650 N   0  0  0  0  0  0  0  0  0  0  0  0
  -22.3130  -14.6440   20.5600 O   0  0  0  0  0  0  0  0  0  0  0  0
  -22.3670  -12.1120   22.4170 H   0  0  0  0  0  0  0  0  0  0  0  0
  -21.0690  -13.2420   22.1770 H   0  0  0  0  0  0  0  0  0  0  0  0
  -25.3970  -15.2730   20.2710 N   0  0  0  0  0  0  0  0  0  0  0  0
  -24.6340  -15.9400   20.3190 H   0  0  0  0  0  0  0  0  0  0  0  0
  -26.2480  -15.6700   19.9000 H   0  0  0  0  0  0  0  0  0  0  0  0
  -28.7660  -22.3400   20.1420 C   0  0  0  0  0  2  0  0  0  0  0  0
  -29.0530  -23.8780   20.5310 C   0  0  0  0  0  3  0  0  0  0  0  0
  -28.0890  -25.0060   19.9300 C   0  0  0  0  0  3  0  0  0  0  0  0
  -28.2970  -26.4530   20.2350 O   0  0  0  0  0  0  0  0  0  0  0  0
  -24.6190  -31.9010   23.2420 C   0  0  0  0  0  0  0  0  0  0  0  0
  -27.1970  -27.3310   20.1600 C   0  0  0  0  0  0  0  0  0  0  0  0
  -23.4000  -30.5100   21.6020 C   0  0  0  0  0  3  0  0  0  0  0  0
  -24.8420  -28.9650   20.1580 C   0  0  0  0  0  0  0  0  0  0  0  0
  -25.9400  -30.8200   21.4100 C   0  0  0  0  0  2  0  0  0  0  0  0
  -26.0120  -29.4420   20.7570 C   0  0  0  0  0  0  0  0  0  0  0  0
  -27.1940  -28.6360   20.7520 C   0  0  0  0  0  3  0  0  0  0  0  0
  -26.0020  -26.9230   19.5160 C   0  0  0  0  0  3  0  0  0  0  0  0
  -24.8400  -27.7150   19.5220 C   0  0  0  0  0  3  0  0  0  0  0  0
  -23.6060  -29.8400   20.2160 C   0  0  0  0  0  2  0  0  0  0  0  0
  -24.6700  -31.0980   22.1390 N   0  0  0  0  0  0  0  0  0  0  0  0
  -23.5400  -32.1770   23.7890 O   0  0  0  0  0  0  0  0  0  0  0  0
  -22.7470  -29.4890   22.5660 C   0  0  0  0  0  0  0  0  0  0  0  0
  -21.4220  -29.3050   22.4460 N   0  0  0  0  0  0  0  0  0  0  0  0
  -23.4310  -28.8660   23.3830 O   0  0  0  0  0  0  0  0  0  0  0  0
  -20.9340  -29.8610   21.7590 H   0  0  0  0  0  0  0  0  0  0  0  0
  -18.0500  -28.0920   22.9430 C   0  0  0  0  0  0  0  0  0  0  0  0
  -20.6050  -28.3680   23.2200 C   0  0  0  0  0  3  0  0  0  0  0  0
  -20.7150  -26.9350   22.6510 C   0  0  0  0  0  2  0  0  0  0  0  0
  -19.6180  -26.6030   21.6340 C   0  0  0  0  0  2  0  0  0  0  0  0
  -18.2340  -26.7410   22.2730 C   0  0  0  0  0  2  0  0  0  0  0  0
  -19.1630  -28.8640   23.3710 C   0  0  0  0  0  0  0  0  0  0  0  0
  -18.9330  -30.1280   23.9550 C   0  0  0  0  0  3  0  0  0  0  0  0
  -17.6250  -30.6210   24.1180 C   0  0  0  0  0  3  0  0  0  0  0  0
  -16.5270  -29.8460   23.7030 C   0  0  0  0  0  3  0  0  0  0  0  0
  -16.7390  -28.5830   23.1210 C   0  0  0  0  0  3  0  0  0  0  0  0
  -25.9090  -32.5300   23.8550 C   0  0  0  0  0  3  0  0  0  0  0  0
  -25.6020  -33.9260   24.2000 N   0  0  0  0  0  0  0  0  0  0  0  0
  -25.9070  -34.9820   23.4380 C   0  0  0  0  0  0  0  0  0  0  0  0
  -26.5540  -34.8870   22.3910 O   0  0  0  0  0  0  0  0  0  0  0  0
  -25.0320  -34.0740   25.0210 H   0  0  0  0  0  0  0  0  0  0  0  0
  -24.1570  -36.7610   23.1340 C   0  0  0  0  0  1  0  0  0  0  0  0
  -25.4230  -36.3670   23.9110 C   0  0  0  0  0  3  0  0  0  0  0  0
  -27.5750  -37.2640   24.6790 C   0  0  0  0  0  1  0  0  0  0  0  0
  -26.4410  -37.4300   23.7720 N   0  0  0  0  0  0  0  0  0  0  0  0
  -26.0310  -38.3460   23.9390 H   0  0  0  0  0  0  0  0  0  0  0  0
  -26.4330  -31.7510   25.1240 C   0  0  1  0  0  0  0  0  0  0  0  0
  -25.3540  -31.5100   26.2040 C   0  0  0  0  0  1  0  0  0  0  0  0
  -27.0120  -30.3750   24.7200 C   0  0  0  0  0  1  0  0  0  0  0  0
  -27.5890  -32.5400   25.7790 C   0  0  0  0  0  1  0  0  0  0  0  0
  3  1  1  1
  3  2  1  0
  4  5  1  0
  5  6  1  6
  5  3  1  0
  5  7  1  0
  8 17  1  0
  8  7  2  0
  9 17  1  0
 10 15  1  0
 11 12  1  0
 11 10  1  0
 13 12  1  0
 13 22  1  0
 13 14  1  0
 15  9  1  0
 15 14  1  0
 16  9  2  0
 17 18  1  0
 19 20  2  0
 20 39  1  0
 21 20  1  0
 21 24  1  0
 22 19  1  0
 22 23  1  0
 23 21  2  0
 24 25  1  0
 25 26  2  0
 27 30  1  0
 27 26  1  0
 28 27  2  0
 29 28  1  0
 29 24  2  0
 30 31  1  0
 31 32  1  0
 32 33  2  0
 34 33  1  0
 34 38  1  0
 35 34  2  0
 36 31  2  0
 36 35  1  0
 37 36  1  0
 39 40  1  0
 40 43  1  0
 40 42  1  0
 41 39  2  0
 44 45  1  0
 44 19  1  0
 46 44  1  0
 47 48  1  0
 47  3  1  0
 49 50  1  0
 49 48  2  0
 51 62  2  0
 52 50  1  0
 52 57  1  0
 53 61  1  0
 53 63  1  0
 54 60  1  0
 54 56  1  0
 55 61  1  0
 56 55  1  0
 57 56  2  0
 58 59  1  0
 58 52  2  0
 59 54  2  0
 60 53  1  0
 61 51  1  0
 63 65  2  0
 64 63  1  0
 66 64  1  0
 67 76  2  0
 67 72  1  0
 68 64  1  0
 68 72  1  0
 69 68  1  0
 70 71  1  0
 70 69  1  0
 71 67  1  0
 72 73  2  0
 73 74  1  0
 75 74  2  0
 76 75  1  0
 77 51  1  0
 77 78  1  0
 77 87  1  0
 78 81  1  0
 79 83  1  0
 79 78  1  0
 80 79  2  0
 83 82  1  0
 85 83  1  0
 85 86  1  0
 85 84  1  0
 87 90  1  1
 87 88  1  0
 89 87  1  0
M  ISO  4   9 100  17 100  49 101  50 101
M  END
>  <TORSDO>  (16) 
F 22

>  <SCORE>  (16) 
-12.971

>  <name>  (16) 
15

>  <ligand_id>  (16) 
15

>  <original_smiles>  (16) 
[H]c1c([H])c([H])c2c(c1[H])C([H])([H])C([H])([H])C([H])([H])C2([H])N([H])C(=O)C1([H])N(C(=O)C([H])(N([H])C(=O)C([H])(N([H])C([H])([H])[H])C([H])([H])[H])C(C([H])([H])[H])(C([H])([H])[H])C([H])([H])[H])C([H])([H])c2c([H])c(OC([H])([H])C([H])([H])C([H])([H])C(C([H])([H])[H])(C([H])([H])[H])[N+]([H])(C([H])([H])[H])C([H])([H])C([H])([H])N([H])C(=O)N3C([H])([H])C([H])([H])C([H])([H])C([H])(n4nc(-c5c([H])c([H])c(Oc6c([H])c([H])c(F)c([H])c6F)c([H])c5[H])c(C(=O)N([H])[H])c4N([H])[H])C3([H])[H])c([H])c([H])c2C1([H])[H]

>  <smiles>  (16) 
[H]c1c([H])c([H])c2c(c1[H])C([H])([H])C([H])([H])C([H])([H])C2([H])N([H])C(=O)C1([H])N(C(=O)C([H])(N([H])C(=O)C([H])(N([H])C([H])([H])[H])C([H])([H])[H])C(C([H])([H])[H])(C([H])([H])[H])C([H])([H])[H])C([H])([H])c2c([H])c(OC([H])([H])C([H])([H])C([H])([H])C(C([H])([H])[H])(C([H])([H])[H])[N+]([H])(C([H])([H])[H])C([H])([H])C([H])([H])N([H])C(=O)N3C([H])([H])C([H])([H])C([H])([H])C([H])(n4nc(-c5c([H])c([H])c(Oc6c([H])c([H])c(F)c([H])c6F)c([H])c5[H])c(C(=O)N([H])[H])c4N([H])[H])C3([H])[H])c([H])c([H])c2C1([H])[H]

$$$$
16:0:0
     RDKit          3D

 92100  0  0  1  0  0  0  0  0999 V2000
  -29.5840  -22.0720   22.4940 C   0  0  0  0  0  3  0  0  0  0  0  0
  -30.2800  -21.4700   23.5500 C   0  0  0  0  0  0  0  0  0  0  0  0
  -29.2880  -21.3730   21.3000 C   0  0  0  0  0  0  0  0  0  0  0  0
  -30.6630  -20.1300   23.4110 C   0  0  0  0  0  0  0  0  0  0  0  0
  -29.7740  -19.9780   21.2330 C   0  0  0  0  0  0  0  0  0  0  0  0
  -30.5540  -22.2730   24.8120 C   0  0  0  0  0  1  0  0  0  0  0  0
  -31.3510  -19.3620   24.5230 C   0  0  0  0  0  1  0  0  0  0  0  0
  -30.4090  -19.4320   22.2950 N   0  0  0  0  0  0  0  0  0  0  0  0
  -28.3940  -22.2080   20.2930 C   0  0  0  0  0  2  0  0  0  0  0  0
  -28.7040  -23.7920   19.9890 C   0  0  0  0  0  3  0  0  0  0  0  0
  -27.5620  -24.9300   20.0880 C   0  0  0  0  0  3  0  0  0  0  0  0
  -27.8420  -26.3970   19.8850 O   0  0  0  0  0  0  0  0  0  0  0  0
  -24.4660  -31.9320   23.1560 C   0  0  0  0  0  0  0  0  0  0  0  0
  -26.7570  -27.3080   19.9080 C   0  0  0  0  0  0  0  0  0  0  0  0
  -23.1240  -30.5770   21.5930 C   0  0  0  0  0  3  0  0  0  0  0  0
  -24.4400  -29.0060   20.0600 C   0  0  0  0  0  0  0  0  0  0  0  0
  -25.6570  -30.8320   21.2400 C   0  0  0  0  0  2  0  0  0  0  0  0
  -25.6620  -29.4560   20.5760 C   0  0  0  0  0  0  0  0  0  0  0  0
  -26.8230  -28.6230   20.4820 C   0  0  0  0  0  3  0  0  0  0  0  0
  -25.5050  -26.9240   19.3760 C   0  0  0  0  0  3  0  0  0  0  0  0
  -24.3670  -27.7490   19.4480 C   0  0  0  0  0  3  0  0  0  0  0  0
  -23.2320  -29.9140   20.1960 C   0  0  0  0  0  2  0  0  0  0  0  0
  -24.4390  -31.1310   22.0510 N   0  0  0  0  0  0  0  0  0  0  0  0
  -23.4270  -32.2290   23.7650 O   0  0  0  0  0  0  0  0  0  0  0  0
  -22.5050  -29.5640   22.5860 C   0  0  0  0  0  0  0  0  0  0  0  0
  -21.1820  -29.3460   22.4840 N   0  0  0  0  0  0  0  0  0  0  0  0
  -23.2130  -28.9780   23.4100 O   0  0  0  0  0  0  0  0  0  0  0  0
  -20.6670  -29.8760   21.7940 H   0  0  0  0  0  0  0  0  0  0  0  0
  -17.8720  -27.9690   22.9660 C   0  0  0  0  0  0  0  0  0  0  0  0
  -20.3990  -28.4030   23.2870 C   0  0  0  0  0  3  0  0  0  0  0  0
  -20.6050  -26.9490   22.8000 C   0  0  0  0  0  2  0  0  0  0  0  0
  -19.5570  -26.5030   21.7770 C   0  0  0  0  0  2  0  0  0  0  0  0
  -18.1500  -26.5970   22.3740 C   0  0  0  0  0  2  0  0  0  0  0  0
  -18.9280  -28.8240   23.3780 C   0  0  0  0  0  0  0  0  0  0  0  0
  -18.6140  -30.1020   23.8880 C   0  0  0  0  0  3  0  0  0  0  0  0
  -17.2770  -30.5280   23.9920 C   0  0  0  0  0  3  0  0  0  0  0  0
  -16.2350  -29.6720   23.5970 C   0  0  0  0  0  3  0  0  0  0  0  0
  -16.5330  -28.3940   23.0910 C   0  0  0  0  0  3  0  0  0  0  0  0
  -25.8020  -32.5340   23.6930 C   0  0  0  0  0  3  0  0  0  0  0  0
  -25.5380  -33.9260   24.0820 N   0  0  0  0  0  0  0  0  0  0  0  0
  -25.8690  -34.9980   23.3510 C   0  0  0  0  0  0  0  0  0  0  0  0
  -26.5010  -34.9160   22.2940 O   0  0  0  0  0  0  0  0  0  0  0  0
  -24.9780  -34.0630   24.9100 H   0  0  0  0  0  0  0  0  0  0  0  0
  -24.1830  -36.8500   23.1110 C   0  0  0  0  0  1  0  0  0  0  0  0
  -25.4320  -36.3800   23.8730 C   0  0  0  0  0  3  0  0  0  0  0  0
  -27.6130  -37.1730   24.6810 C   0  0  0  0  0  1  0  0  0  0  0  0
  -26.4910  -37.4090   23.7760 N   0  0  0  0  0  0  0  0  0  0  0  0
  -26.1150  -38.3330   23.9700 H   0  0  0  0  0  0  0  0  0  0  0  0
  -26.3970  -31.7250   24.9110 C   0  0  1  0  0  0  0  0  0  0  0  0
  -25.3800  -31.4770   26.0500 C   0  0  0  0  0  1  0  0  0  0  0  0
  -26.9310  -30.3490   24.4480 C   0  0  0  0  0  1  0  0  0  0  0  0
  -27.6030  -32.4880   25.5060 C   0  0  0  0  0  1  0  0  0  0  0  0
  -29.5690  -18.8110   20.1810 C   0  0  0  0  0  2  0  0  0  0  0  0
  -30.6030  -17.5400   20.1820 C   0  0  0  0  0  2  0  0  0  0  0  0
  -30.8860  -14.9330   19.9690 C   0  0  0  0  0  0  0  0  0  0  0  0
  -30.6520  -12.6350   19.0170 C   0  0  0  0  0  2  0  0  0  0  0  0
  -29.6770  -12.6730   17.8210 C   0  0  0  0  0  2  0  0  0  0  0  0
  -28.2220  -12.5080   18.3010 C   0  0  0  0  0  2  0  0  0  0  0  0
  -27.8800  -13.4420   19.4910 C   0  0  0  0  0  3  0  0  0  0  0  0
  -28.9690  -13.3880   20.5830 C   0  0  0  0  0  2  0  0  0  0  0  0
  -30.2460  -13.7160   19.9440 N   0  0  0  0  0  0  0  0  0  0  0  0
  -32.0690  -15.0130   19.6320 O   0  0  0  0  0  0  0  0  0  0  0  0
  -30.1330  -16.0800   20.1730 N   0  0  0  0  0  0  0  0  0  0  0  0
  -29.1590  -15.9260   20.3820 H   0  0  0  0  0  0  0  0  0  0  0  0
  -25.5260  -14.0670   20.3080 C   0  0  0  0  0  0  0  0  0  0  0  0
  -24.4620  -13.3070   20.7090 C   0  0  0  0  0  0  0  0  0  0  0  0
  -24.9080  -11.9500   20.6610 C   0  0  0  0  0  0  0  0  0  0  0  0
  -26.5500  -13.1770   20.0310 N   0  0  0  0  0  0  0  0  0  0  0  0
  -26.1870  -11.8980   20.3090 N   0  0  0  0  0  0  0  0  0  0  0  0
  -24.1740  -10.6960   20.8700 C   0  0  0  0  0  0  0  0  0  0  0  0
  -24.5920   -9.7440   21.8260 C   0  0  0  0  0  3  0  0  0  0  0  0
  -23.8560   -8.5550   22.0230 C   0  0  0  0  0  3  0  0  0  0  0  0
  -22.6880   -8.3100   21.2620 C   0  0  0  0  0  0  0  0  0  0  0  0
  -22.2880   -9.2510   20.2950 C   0  0  0  0  0  3  0  0  0  0  0  0
  -23.0250  -10.4300   20.0980 C   0  0  0  0  0  3  0  0  0  0  0  0
  -21.9250   -7.1720   21.3680 O   0  0  0  0  0  0  0  0  0  0  0  0
  -21.8160   -6.4840   22.5490 C   0  0  0  0  0  0  0  0  0  0  0  0
  -21.3410   -7.0990   23.7280 C   0  0  0  0  0  3  0  0  0  0  0  0
  -21.1780   -6.3370   24.9030 C   0  0  0  0  0  3  0  0  0  0  0  0
  -21.4820   -4.9630   24.9010 C   0  0  0  0  0  0  0  0  0  0  0  0
  -21.9500   -4.3490   23.7260 C   0  0  0  0  0  3  0  0  0  0  0  0
  -22.1150   -5.1070   22.5530 C   0  0  0  0  0  0  0  0  0  0  0  0
  -22.5470   -4.5050   21.4190 F   0  0  0  0  0  0  0  0  0  0  0  0
  -21.3200   -4.2310   26.0260 F   0  0  0  0  0  0  0  0  0  0  0  0
  -23.0800  -13.8010   21.0230 C   0  0  0  0  0  0  0  0  0  0  0  0
  -22.3710  -13.1200   21.9160 N   0  0  0  0  0  0  0  0  0  0  0  0
  -22.6370  -14.8290   20.5110 O   0  0  0  0  0  0  0  0  0  0  0  0
  -22.7400  -12.2880   22.3550 H   0  0  0  0  0  0  0  0  0  0  0  0
  -21.4490  -13.4420   22.1720 H   0  0  0  0  0  0  0  0  0  0  0  0
  -25.7020  -15.4390   20.1350 N   0  0  0  0  0  0  0  0  0  0  0  0
  -24.9460  -16.0980   20.2870 H   0  0  0  0  0  0  0  0  0  0  0  0
  -26.5410  -15.8800   19.7830 H   0  0  0  0  0  0  0  0  0  0  0  0
  1  2  1  0
  2  6  1  0
  3  1  2  0
  4  2  2  0
  4  7  1  0
  5  3  1  0
  5  8  2  0
  8  4  1  0
  9  3  1  0
 10 11  2  0
 10  9  1  0
 12 14  1  0
 12 11  1  0
 13 24  2  0
 14 19  1  0
 15 23  1  0
 15 25  1  0
 16 22  1  0
 16 18  1  0
 17 23  1  0
 18 17  1  0
 19 18  2  0
 20 21  1  0
 20 14  2  0
 21 16  2  0
 22 15  1  0
 23 13  1  0
 25 27  2  0
 26 25  1  0
 28 26  1  0
 29 38  2  0
 29 34  1  0
 30 26  1  0
 30 34  1  0
 31 30  1  0
 32 33  1  0
 32 31  1  0
 33 29  1  0
 34 35  2  0
 35 36  1  0
 37 36  2  0
 38 37  1  0
 39 13  1  0
 39 40  1  0
 39 49  1  0
 40 43  1  0
 41 45  1  0
 41 40  1  0
 42 41  2  0
 45 44  1  0
 47 45  1  0
 47 48  1  0
 47 46  1  0
 49 52  1  1
 49 50  1  0
 51 49  1  0
 53 54  1  0
 53  5  1  0
 55 63  1  0
 56 61  1  0
 57 58  1  0
 57 56  1  0
 59 58  1  0
 59 68  1  0
 59 60  1  0
 61 55  1  0
 61 60  1  0
 62 55  2  0
 63 54  1  0
 63 64  1  0
 65 66  2  0
 66 85  1  0
 67 66  1  0
 67 70  1  0
 68 65  1  0
 68 69  1  0
 69 67  2  0
 70 71  1  0
 71 72  2  0
 73 76  1  0
 73 72  1  0
 74 73  2  0
 75 74  1  0
 75 70  2  0
 76 77  1  0
 77 82  2  0
 77 78  1  0
 78 79  2  0
 80 79  1  0
 80 84  1  0
 81 80  2  0
 82 81  1  0
 83 82  1  0
 85 86  1  0
 86 89  1  0
 86 88  1  0
 87 85  2  0
 90 91  1  0
 90 65  1  0
 92 90  1  0
M  ISO  4  11 101  12 101  55 100  63 100
M  END
>  <TORSDO>  (17) 
F 21

>  <SCORE>  (17) 
-12.070

>  <name>  (17) 
16

>  <ligand_id>  (17) 
16

>  <original_smiles>  (17) 
[H]c1c([H])c([H])c2c(c1[H])C([H])([H])C([H])([H])C([H])([H])C2([H])N([H])C(=O)C1([H])N(C(=O)C([H])(N([H])C(=O)C([H])(N([H])C([H])([H])[H])C([H])([H])[H])C(C([H])([H])[H])(C([H])([H])[H])C([H])([H])[H])C([H])([H])c2c([H])c(OC([H])([H])C([H])([H])C([H])([H])c3c(C([H])([H])C([H])([H])N([H])C(=O)N4C([H])([H])C([H])([H])C([H])([H])C([H])(n5nc(-c6c([H])c([H])c(Oc7c([H])c([H])c(F)c([H])c7F)c([H])c6[H])c(C(=O)N([H])[H])c5N([H])[H])C4([H])[H])nc(C([H])([H])[H])c(C([H])([H])[H])c3[H])c([H])c([H])c2C1([H])[H]

>  <smiles>  (17) 
[H]c1c([H])c([H])c2c(c1[H])C([H])([H])C([H])([H])C([H])([H])C2([H])N([H])C(=O)C1([H])N(C(=O)C([H])(N([H])C(=O)C([H])(N([H])C([H])([H])[H])C([H])([H])[H])C(C([H])([H])[H])(C([H])([H])[H])C([H])([H])[H])C([H])([H])c2c([H])c(OC([H])([H])C([H])([H])C([H])([H])c3c(C([H])([H])C([H])([H])N([H])C(=O)N4C([H])([H])C([H])([H])C([H])([H])C([H])(n5nc(-c6c([H])c([H])c(Oc7c([H])c([H])c(F)c([H])c7F)c([H])c6[H])c(C(=O)N([H])[H])c5N([H])[H])C4([H])[H])nc(C([H])([H])[H])c(C([H])([H])[H])c3[H])c([H])c([H])c2C1([H])[H]

$$$$
17:0:0
     RDKit          3D

 96104  0  0  1  0  0  0  0  0999 V2000
  -30.1490  -19.2550   21.2610 C   0  0  0  0  0  3  0  0  0  0  0  0
  -28.5980  -19.8260   19.5100 C   0  0  0  0  0  3  0  0  0  0  0  0
  -29.4070  -20.2400   20.5780 C   0  0  0  0  0  0  0  0  0  0  0  0
  -30.0640  -17.8880   20.8870 C   0  0  0  0  0  0  0  0  0  0  0  0
  -29.1710  -17.5880   19.8080 C   0  0  0  0  0  0  0  0  0  0  0  0
  -28.7920  -16.1970   19.3030 C   0  0  0  0  0  1  0  0  0  0  0  0
  -28.4820  -18.5410   19.1450 N   0  0  0  0  0  0  0  0  0  0  0  0
  -30.5850  -16.9100   23.1860 C   0  0  0  0  0  1  0  0  0  0  0  0
  -32.4170  -17.0260   21.5770 C   0  0  0  0  0  1  0  0  0  0  0  0
  -30.8830  -16.8170   21.6720 C   0  0  2  0  0  0  0  0  0  0  0  0
  -30.5660  -15.3870   21.1520 C   0  0  0  0  0  2  0  0  0  0  0  0
  -31.6400  -13.8910   19.4230 C   0  0  0  0  0  0  0  0  0  0  0  0
  -31.2380  -11.4990   18.9400 C   0  0  0  0  0  2  0  0  0  0  0  0
  -30.2200  -11.3810   17.7820 C   0  0  0  0  0  2  0  0  0  0  0  0
  -28.7590  -11.4480   18.2860 C   0  0  0  0  0  2  0  0  0  0  0  0
  -28.5320  -12.6120   19.2870 C   0  0  0  0  0  3  0  0  0  0  0  0
  -29.6410  -12.5750   20.3540 C   0  0  0  0  0  2  0  0  0  0  0  0
  -30.9400  -12.7420   19.6730 N   0  0  0  0  0  0  0  0  0  0  0  0
  -32.6380  -13.9080   18.6940 O   0  0  0  0  0  0  0  0  0  0  0  0
  -31.1410  -15.0670   19.8450 N   0  0  0  0  0  0  0  0  0  0  0  0
  -31.5770  -15.8630   19.4060 H   0  0  0  0  0  0  0  0  0  0  0  0
  -26.3750  -13.6020   20.2910 C   0  0  0  0  0  0  0  0  0  0  0  0
  -25.2280  -13.0160   20.7530 C   0  0  0  0  0  0  0  0  0  0  0  0
  -25.4120  -11.6100   20.5910 C   0  0  0  0  0  0  0  0  0  0  0  0
  -27.2020  -12.5620   19.8940 N   0  0  0  0  0  0  0  0  0  0  0  0
  -26.6270  -11.3540   20.1210 N   0  0  0  0  0  0  0  0  0  0  0  0
  -24.4800  -10.4940   20.8000 C   0  0  0  0  0  0  0  0  0  0  0  0
  -24.7760   -9.4500   21.7000 C   0  0  0  0  0  3  0  0  0  0  0  0
  -23.8600   -8.3950   21.9020 C   0  0  0  0  0  3  0  0  0  0  0  0
  -22.6280   -8.3810   21.2050 C   0  0  0  0  0  0  0  0  0  0  0  0
  -22.3480   -9.4130   20.2910 C   0  0  0  0  0  3  0  0  0  0  0  0
  -23.2650  -10.4570   20.0860 C   0  0  0  0  0  3  0  0  0  0  0  0
  -21.6870   -7.3900   21.3190 O   0  0  0  0  0  0  0  0  0  0  0  0
  -21.4900   -6.7130   22.4960 C   0  0  0  0  0  0  0  0  0  0  0  0
  -21.1240   -7.3790   23.6870 C   0  0  0  0  0  3  0  0  0  0  0  0
  -20.8680   -6.6390   24.8580 C   0  0  0  0  0  3  0  0  0  0  0  0
  -20.9670   -5.2340   24.8370 C   0  0  0  0  0  0  0  0  0  0  0  0
  -21.3260   -4.5670   23.6510 C   0  0  0  0  0  3  0  0  0  0  0  0
  -21.5840   -5.3050   22.4840 C   0  0  0  0  0  0  0  0  0  0  0  0
  -21.9080   -4.6580   21.3380 F   0  0  0  0  0  0  0  0  0  0  0  0
  -20.7130   -4.5230   25.9590 F   0  0  0  0  0  0  0  0  0  0  0  0
  -23.9830  -13.7180   21.2150 C   0  0  0  0  0  0  0  0  0  0  0  0
  -23.2670  -13.1280   22.1670 N   0  0  0  0  0  0  0  0  0  0  0  0
  -23.6620  -14.8150   20.7630 O   0  0  0  0  0  0  0  0  0  0  0  0
  -22.4340  -13.5730   22.5230 H   0  0  0  0  0  0  0  0  0  0  0  0
  -23.5500  -12.2420   22.5580 H   0  0  0  0  0  0  0  0  0  0  0  0
  -26.7730  -14.9270   20.1570 N   0  0  0  0  0  0  0  0  0  0  0  0
  -26.1480  -15.6970   20.3710 H   0  0  0  0  0  0  0  0  0  0  0  0
  -27.6340  -15.2240   19.7190 H   0  0  0  0  0  0  0  0  0  0  0  0
  -29.4860  -21.6950   21.0380 C   0  0  0  0  0  2  0  0  0  0  0  0
  -28.6640  -22.6990   20.2040 C   0  0  0  0  0  2  0  0  0  0  0  0
  -28.8030  -24.6460   21.8540 C   0  0  0  0  0  1  0  0  0  0  0  0
  -29.0590  -24.1800   20.4050 C   0  0  0  0  0  3  0  0  0  0  0  0
  -28.3160  -25.0540   19.3660 C   0  0  0  0  0  2  0  0  0  0  0  0
  -28.9680  -26.4100   19.0060 C   0  0  0  0  0  2  0  0  0  0  0  0
  -28.6860  -27.4350   19.9560 O   0  0  0  0  0  0  0  0  0  0  0  0
  -24.5300  -31.9930   23.4350 C   0  0  0  0  0  0  0  0  0  0  0  0
  -27.4370  -28.0250   19.9840 C   0  0  0  0  0  0  0  0  0  0  0  0
  -23.4000  -30.6680   21.6780 C   0  0  0  0  0  3  0  0  0  0  0  0
  -24.9390  -29.3520   20.1270 C   0  0  0  0  0  0  0  0  0  0  0  0
  -25.8930  -31.2070   21.5050 C   0  0  0  0  0  2  0  0  0  0  0  0
  -26.0610  -29.9020   20.7570 C   0  0  0  0  0  0  0  0  0  0  0  0
  -27.3090  -29.2450   20.6850 C   0  0  0  0  0  3  0  0  0  0  0  0
  -26.2900  -27.4800   19.3570 C   0  0  0  0  0  3  0  0  0  0  0  0
  -25.0470  -28.1390   19.4260 C   0  0  0  0  0  3  0  0  0  0  0  0
  -23.6420  -30.1190   20.2460 C   0  0  0  0  0  2  0  0  0  0  0  0
  -24.6270  -31.2970   22.2670 N   0  0  0  0  0  0  0  0  0  0  0  0
  -23.4380  -32.1510   23.9970 O   0  0  0  0  0  0  0  0  0  0  0  0
  -22.8160  -29.5310   22.5450 C   0  0  0  0  0  0  0  0  0  0  0  0
  -21.5070  -29.2740   22.3930 N   0  0  0  0  0  0  0  0  0  0  0  0
  -23.5390  -28.8840   23.3080 O   0  0  0  0  0  0  0  0  0  0  0  0
  -20.9830  -29.8510   21.7500 H   0  0  0  0  0  0  0  0  0  0  0  0
  -18.2220  -27.8210   22.7510 C   0  0  0  0  0  0  0  0  0  0  0  0
  -20.7520  -28.2270   23.0800 C   0  0  0  0  0  3  0  0  0  0  0  0
  -20.9570  -26.8540   22.3990 C   0  0  0  0  0  2  0  0  0  0  0  0
  -19.8920  -26.5390   21.3460 C   0  0  0  0  0  2  0  0  0  0  0  0
  -18.4960  -26.5430   21.9770 C   0  0  0  0  0  2  0  0  0  0  0  0
  -19.2810  -28.6200   23.2560 C   0  0  0  0  0  0  0  0  0  0  0  0
  -18.9720  -29.8170   23.9370 C   0  0  0  0  0  3  0  0  0  0  0  0
  -17.6360  -30.2170   24.1190 C   0  0  0  0  0  3  0  0  0  0  0  0
  -16.5900  -29.4140   23.6340 C   0  0  0  0  0  3  0  0  0  0  0  0
  -16.8840  -28.2170   22.9560 C   0  0  0  0  0  3  0  0  0  0  0  0
  -25.7800  -32.6460   24.1030 C   0  0  0  0  0  3  0  0  0  0  0  0
  -25.4670  -34.0610   24.3380 N   0  0  0  0  0  0  0  0  0  0  0  0
  -25.8750  -35.0690   23.5540 C   0  0  0  0  0  0  0  0  0  0  0  0
  -26.6250  -34.9030   22.5870 O   0  0  0  0  0  0  0  0  0  0  0  0
  -24.8160  -34.2620   25.0810 H   0  0  0  0  0  0  0  0  0  0  0  0
  -24.2080  -36.8580   22.9730 C   0  0  0  0  0  1  0  0  0  0  0  0
  -25.3750  -36.4840   23.8990 C   0  0  0  0  0  3  0  0  0  0  0  0
  -27.4590  -37.3790   24.8380 C   0  0  0  0  0  1  0  0  0  0  0  0
  -26.4280  -37.5180   23.8130 N   0  0  0  0  0  0  0  0  0  0  0  0
  -26.0270  -38.4480   23.8980 H   0  0  0  0  0  0  0  0  0  0  0  0
  -26.2070  -31.9360   25.4460 C   0  0  1  0  0  0  0  0  0  0  0  0
  -25.0420  -31.7400   26.4440 C   0  0  0  0  0  1  0  0  0  0  0  0
  -26.8190  -30.5460   25.1570 C   0  0  0  0  0  1  0  0  0  0  0  0
  -27.3070  -32.7640   26.1530 C   0  0  0  0  0  1  0  0  0  0  0  0
  2  3  1  0
  3 50  1  0
  3  1  2  0
  4  1  1  0
  4 10  1  0
  5  4  2  0
  6  5  1  0
  7  2  2  0
  7  5  1  0
 10  9  1  1
 10  8  1  0
 11 10  1  0
 12 18  1  0
 12 20  1  0
 13 18  1  0
 14 15  1  0
 14 13  1  0
 16 15  1  0
 16 25  1  0
 16 17  1  0
 18 17  1  0
 19 12  2  0
 20 11  1  0
 21 20  1  0
 22 23  2  0
 23 42  1  0
 24 23  1  0
 24 27  1  0
 25 26  1  0
 25 22  1  0
 26 24  2  0
 27 28  1  0
 28 29  2  0
 30 33  1  0
 30 29  1  0
 31 30  2  0
 32 31  1  0
 32 27  2  0
 33 34  1  0
 34 35  1  0
 35 36  2  0
 37 36  1  0
 37 41  1  0
 38 37  2  0
 39 34  2  0
 39 38  1  0
 40 39  1  0
 42 43  1  0
 43 45  1  0
 43 46  1  0
 44 42  2  0
 47 22  1  0
 47 48  1  0
 49 47  1  0
 51 53  1  0
 51 50  1  0
 53 52  1  0
 54 53  1  0
 55 54  1  0
 55 56  1  0
 56 58  1  0
 57 68  2  0
 58 63  1  0
 59 67  1  0
 59 69  1  0
 60 66  1  0
 60 62  1  0
 61 67  1  0
 62 61  1  0
 63 62  2  0
 64 65  1  0
 64 58  2  0
 65 60  2  0
 66 59  1  0
 67 57  1  0
 69 71  2  0
 70 69  1  0
 72 70  1  0
 73 82  2  0
 73 78  1  0
 74 70  1  0
 74 78  1  0
 75 74  1  0
 76 77  1  0
 76 75  1  0
 77 73  1  0
 78 79  2  0
 79 80  1  0
 81 80  2  0
 82 81  1  0
 83 57  1  0
 83 84  1  0
 83 93  1  0
 84 87  1  0
 85 89  1  0
 85 84  1  0
 86 85  2  0
 89 88  1  0
 91 92  1  0
 91 89  1  0
 91 90  1  0
 93 96  1  1
 93 94  1  0
 95 93  1  0
M  ISO  4  12 100  20 100  55 101  56 101
M  END
>  <TORSDO>  (18) 
F 23

>  <SCORE>  (18) 
-9.980

>  <name>  (18) 
17

>  <ligand_id>  (18) 
17

>  <original_smiles>  (18) 
[H]c1nc(C([H])([H])[H])c(C(C([H])([H])[H])(C([H])([H])[H])C([H])([H])N([H])C(=O)N2C([H])([H])C([H])([H])C([H])([H])C([H])(n3nc(-c4c([H])c([H])c(Oc5c([H])c([H])c(F)c([H])c5F)c([H])c4[H])c(C(=O)N([H])[H])c3N([H])[H])C2([H])[H])c([H])c1C([H])([H])C([H])([H])C([H])(C([H])([H])[H])C([H])([H])C([H])([H])Oc1c([H])c([H])c2c(c1[H])C([H])([H])N(C(=O)C([H])(N([H])C(=O)C([H])(N([H])C([H])([H])[H])C([H])([H])[H])C(C([H])([H])[H])(C([H])([H])[H])C([H])([H])[H])C([H])(C(=O)N([H])C1([H])c3c([H])c([H])c([H])c([H])c3C([H])([H])C([H])([H])C1([H])[H])C2([H])[H]

>  <smiles>  (18) 
[H]c1nc(C([H])([H])[H])c(C(C([H])([H])[H])(C([H])([H])[H])C([H])([H])N([H])C(=O)N2C([H])([H])C([H])([H])C([H])([H])C([H])(n3nc(-c4c([H])c([H])c(Oc5c([H])c([H])c(F)c([H])c5F)c([H])c4[H])c(C(=O)N([H])[H])c3N([H])[H])C2([H])[H])c([H])c1C([H])([H])C([H])([H])C([H])(C([H])([H])[H])C([H])([H])C([H])([H])Oc1c([H])c([H])c2c(c1[H])C([H])([H])N(C(=O)C([H])(N([H])C(=O)C([H])(N([H])C([H])([H])[H])C([H])([H])[H])C(C([H])([H])[H])(C([H])([H])[H])C([H])([H])[H])C([H])(C(=O)N([H])C1([H])c3c([H])c([H])c([H])c([H])c3C([H])([H])C([H])([H])C1([H])[H])C2([H])[H]

$$$$
18:0:0
     RDKit          3D

 96104  0  0  1  0  0  0  0  0999 V2000
  -30.2250  -22.7250   19.0490 C   0  0  0  0  0  3  0  0  0  0  0  0
  -31.1870  -21.7870   18.5910 C   0  0  0  0  0  0  0  0  0  0  0  0
  -29.4930  -22.0890   20.0170 C   0  0  0  0  0  0  0  0  0  0  0  0
  -31.0360  -20.6240   19.2000 N   0  0  0  0  0  0  0  0  0  0  0  0
  -30.0210  -20.7670   20.0860 N   0  0  0  0  0  0  0  0  0  0  0  0
  -33.6390  -21.5170   18.0970 C   0  0  0  0  0  1  0  0  0  0  0  0
  -32.3960  -23.4510   17.1410 C   0  0  0  0  0  1  0  0  0  0  0  0
  -31.9290  -21.1440   16.2830 C   0  0  0  0  0  1  0  0  0  0  0  0
  -32.2740  -21.9660   17.5390 C   0  0  2  0  0  0  0  0  0  0  0  0
  -27.0780  -21.8800   20.7000 C   0  0  0  0  0  1  0  0  0  0  0  0
  -28.7420  -22.8150   22.3250 C   0  0  0  0  0  1  0  0  0  0  0  0
  -28.3580  -22.7370   20.8340 C   0  0  1  0  0  0  0  0  0  0  0  0
  -27.9410  -24.1930   20.3210 C   0  0  0  0  0  3  0  0  0  0  0  0
  -28.6870  -25.4700   20.8450 C   0  0  0  0  0  3  0  0  0  0  0  0
  -28.5410  -26.7170   20.1100 O   0  0  0  0  0  0  0  0  0  0  0  0
  -24.6230  -31.8620   23.2390 C   0  0  0  0  0  0  0  0  0  0  0  0
  -27.3580  -27.4350   20.1800 C   0  0  0  0  0  0  0  0  0  0  0  0
  -23.4590  -30.4680   21.5610 C   0  0  0  0  0  3  0  0  0  0  0  0
  -24.9540  -28.9480   20.1520 C   0  0  0  0  0  0  0  0  0  0  0  0
  -25.9870  -30.8410   21.4120 C   0  0  0  0  0  2  0  0  0  0  0  0
  -26.0990  -29.4710   20.7660 C   0  0  0  0  0  0  0  0  0  0  0  0
  -27.3060  -28.7250   20.7700 C   0  0  0  0  0  3  0  0  0  0  0  0
  -26.1970  -26.9380   19.5530 C   0  0  0  0  0  3  0  0  0  0  0  0
  -24.9990  -27.6820   19.5420 C   0  0  0  0  0  3  0  0  0  0  0  0
  -23.7020  -29.8000   20.1810 C   0  0  0  0  0  2  0  0  0  0  0  0
  -24.7060  -31.0730   22.1310 N   0  0  0  0  0  0  0  0  0  0  0  0
  -23.5300  -32.1200   23.7630 O   0  0  0  0  0  0  0  0  0  0  0  0
  -22.7990  -29.4330   22.5010 C   0  0  0  0  0  0  0  0  0  0  0  0
  -21.4810  -29.2310   22.3420 N   0  0  0  0  0  0  0  0  0  0  0  0
  -23.4730  -28.8140   23.3280 O   0  0  0  0  0  0  0  0  0  0  0  0
  -20.9980  -29.7830   21.6470 H   0  0  0  0  0  0  0  0  0  0  0  0
  -18.1220  -27.9550   22.7350 C   0  0  0  0  0  0  0  0  0  0  0  0
  -20.6630  -28.2740   23.0870 C   0  0  0  0  0  3  0  0  0  0  0  0
  -20.8170  -26.8460   22.5150 C   0  0  0  0  0  2  0  0  0  0  0  0
  -19.7560  -26.4980   21.4660 C   0  0  0  0  0  2  0  0  0  0  0  0
  -18.3520  -26.6110   22.0660 C   0  0  0  0  0  2  0  0  0  0  0  0
  -19.2080  -28.7430   23.2000 C   0  0  0  0  0  0  0  0  0  0  0  0
  -18.9430  -30.0000   23.7850 C   0  0  0  0  0  3  0  0  0  0  0  0
  -17.6230  -30.4730   23.9090 C   0  0  0  0  0  3  0  0  0  0  0  0
  -16.5500  -29.6830   23.4600 C   0  0  0  0  0  3  0  0  0  0  0  0
  -16.7990  -28.4270   22.8780 C   0  0  0  0  0  3  0  0  0  0  0  0
  -25.8920  -32.5000   23.8860 C   0  0  0  0  0  3  0  0  0  0  0  0
  -25.5720  -33.9000   24.2050 N   0  0  0  0  0  0  0  0  0  0  0  0
  -25.9160  -34.9500   23.4460 C   0  0  0  0  0  0  0  0  0  0  0  0
  -26.6060  -34.8410   22.4280 O   0  0  0  0  0  0  0  0  0  0  0  0
  -24.9590  -34.0560   24.9920 H   0  0  0  0  0  0  0  0  0  0  0  0
  -24.1870  -36.7320   23.0500 C   0  0  0  0  0  1  0  0  0  0  0  0
  -25.4150  -36.3390   23.8870 C   0  0  0  0  0  3  0  0  0  0  0  0
  -27.5300  -37.2370   24.7490 C   0  0  0  0  0  1  0  0  0  0  0  0
  -26.4460  -37.3950   23.7850 N   0  0  0  0  0  0  0  0  0  0  0  0
  -26.0340  -38.3140   23.9170 H   0  0  0  0  0  0  0  0  0  0  0  0
  -26.3820  -31.7350   25.1760 C   0  0  1  0  0  0  0  0  0  0  0  0
  -25.2660  -31.4980   26.2200 C   0  0  0  0  0  1  0  0  0  0  0  0
  -26.9770  -30.3580   24.8010 C   0  0  0  0  0  1  0  0  0  0  0  0
  -27.5150  -32.5330   25.8610 C   0  0  0  0  0  1  0  0  0  0  0  0
  -29.8220  -19.6030   20.9960 C   0  0  0  0  0  2  0  0  0  0  0  0
  -29.8310  -18.1610   20.3380 C   0  0  0  0  0  3  0  0  0  0  0  0
  -30.2610  -16.9870   21.2910 C   0  0  0  0  0  3  0  0  0  0  0  0
  -30.6340  -14.5900   20.3950 C   0  0  0  0  0  0  0  0  0  0  0  0
  -30.3670  -12.4140   19.2270 C   0  0  0  0  0  2  0  0  0  0  0  0
  -29.4170  -12.6020   18.0260 C   0  0  0  0  0  2  0  0  0  0  0  0
  -27.9450  -12.4560   18.4620 C   0  0  0  0  0  2  0  0  0  0  0  0
  -27.6090  -13.2960   19.7230 C   0  0  0  0  0  3  0  0  0  0  0  0
  -28.6670  -13.0710   20.8260 C   0  0  0  0  0  2  0  0  0  0  0  0
  -29.9810  -13.3990   20.2520 N   0  0  0  0  0  0  0  0  0  0  0  0
  -31.7830  -14.7700   19.9840 O   0  0  0  0  0  0  0  0  0  0  0  0
  -29.8790  -15.6060   20.8850 N   0  0  0  0  0  0  0  0  0  0  0  0
  -28.9320  -15.3370   21.1120 H   0  0  0  0  0  0  0  0  0  0  0  0
  -25.2160  -13.9190   20.4270 C   0  0  0  0  0  0  0  0  0  0  0  0
  -24.1430  -13.1540   20.7990 C   0  0  0  0  0  0  0  0  0  0  0  0
  -24.5990  -11.8010   20.7820 C   0  0  0  0  0  0  0  0  0  0  0  0
  -26.2570  -13.0310   20.2040 N   0  0  0  0  0  0  0  0  0  0  0  0
  -25.8900  -11.7520   20.4770 N   0  0  0  0  0  0  0  0  0  0  0  0
  -23.8680  -10.5440   20.9830 C   0  0  0  0  0  0  0  0  0  0  0  0
  -24.2950   -9.5840   21.9260 C   0  0  0  0  0  3  0  0  0  0  0  0
  -23.5660   -8.3890   22.1130 C   0  0  0  0  0  3  0  0  0  0  0  0
  -22.3920   -8.1500   21.3590 C   0  0  0  0  0  0  0  0  0  0  0  0
  -21.9840   -9.0990   20.4040 C   0  0  0  0  0  3  0  0  0  0  0  0
  -22.7150  -10.2840   20.2150 C   0  0  0  0  0  3  0  0  0  0  0  0
  -21.6340   -7.0090   21.4550 O   0  0  0  0  0  0  0  0  0  0  0  0
  -21.5850   -6.2750   22.6140 C   0  0  0  0  0  0  0  0  0  0  0  0
  -21.1600   -6.8390   23.8370 C   0  0  0  0  0  3  0  0  0  0  0  0
  -21.0560   -6.0320   24.9870 C   0  0  0  0  0  3  0  0  0  0  0  0
  -21.3680   -4.6600   24.9150 C   0  0  0  0  0  0  0  0  0  0  0  0
  -21.7840   -4.0950   23.6970 C   0  0  0  0  0  3  0  0  0  0  0  0
  -21.8920   -4.9020   22.5510 C   0  0  0  0  0  0  0  0  0  0  0  0
  -22.2720   -4.3490   21.3740 F   0  0  0  0  0  0  0  0  0  0  0  0
  -21.2620   -3.8810   26.0170 F   0  0  0  0  0  0  0  0  0  0  0  0
  -22.7480  -13.6390   21.0630 C   0  0  0  0  0  0  0  0  0  0  0  0
  -22.0170  -12.9520   21.9350 N   0  0  0  0  0  0  0  0  0  0  0  0
  -22.3140  -14.6610   20.5330 O   0  0  0  0  0  0  0  0  0  0  0  0
  -22.3830  -12.1270   22.3860 H   0  0  0  0  0  0  0  0  0  0  0  0
  -21.0760  -13.2530   22.1510 H   0  0  0  0  0  0  0  0  0  0  0  0
  -25.3850  -15.2860   20.2360 N   0  0  0  0  0  0  0  0  0  0  0  0
  -24.6180  -15.9410   20.3360 H   0  0  0  0  0  0  0  0  0  0  0  0
  -26.2320  -15.7210   19.8910 H   0  0  0  0  0  0  0  0  0  0  0  0
  1  3  2  0
  2  1  1  0
  2  4  2  0
  3  5  1  0
  3 12  1  0
  4  5  1  0
  5 56  1  0
  9  7  1  6
  8  9  1  0
  9  6  1  0
  9  2  1  0
 12 10  1  1
 12 11  1  0
 13 12  1  0
 13 14  2  0
 15 17  1  0
 15 14  1  0
 16 27  2  0
 17 22  1  0
 18 26  1  0
 18 28  1  0
 19 25  1  0
 19 21  1  0
 20 26  1  0
 21 22  2  0
 21 20  1  0
 23 17  2  0
 24 23  1  0
 24 19  2  0
 25 18  1  0
 26 16  1  0
 28 30  2  0
 29 28  1  0
 31 29  1  0
 32 41  2  0
 32 37  1  0
 33 29  1  0
 33 37  1  0
 34 33  1  0
 35 36  1  0
 35 34  1  0
 36 32  1  0
 37 38  2  0
 38 39  1  0
 40 39  2  0
 41 40  1  0
 42 16  1  0
 42 43  1  0
 42 52  1  0
 43 46  1  0
 44 48  1  0
 44 43  1  0
 45 44  2  0
 48 47  1  0
 50 48  1  0
 50 51  1  0
 50 49  1  0
 52 55  1  1
 52 53  1  0
 54 52  1  0
 57 56  1  0
 57 58  2  0
 59 67  1  0
 60 65  1  0
 61 62  1  0
 61 60  1  0
 63 62  1  0
 63 72  1  0
 63 64  1  0
 65 59  1  0
 65 64  1  0
 66 59  2  0
 67 68  1  0
 67 58  1  0
 69 70  2  0
 70 89  1  0
 71 70  1  0
 71 74  1  0
 72 69  1  0
 72 73  1  0
 73 71  2  0
 74 75  1  0
 75 76  2  0
 77 80  1  0
 77 76  1  0
 78 77  2  0
 79 78  1  0
 79 74  2  0
 80 81  1  0
 81 82  1  0
 82 83  2  0
 84 83  1  0
 84 88  1  0
 85 84  2  0
 86 81  2  0
 86 85  1  0
 87 86  1  0
 89 90  1  0
 90 93  1  0
 90 92  1  0
 91 89  2  0
 94 95  1  0
 94 69  1  0
 96 94  1  0
M  ISO  4  14 101  15 101  59 100  67 100
M  END
>  <TORSDO>  (19) 
F 23

>  <SCORE>  (19) 
-12.570

>  <name>  (19) 
18

>  <ligand_id>  (19) 
18

>  <original_smiles>  (19) 
[H]c1c([H])c([H])c2c(c1[H])C([H])([H])C([H])([H])C([H])([H])C2([H])N([H])C(=O)C1([H])N(C(=O)C([H])(N([H])C(=O)C([H])(N([H])C([H])([H])[H])C([H])([H])[H])C(C([H])([H])[H])(C([H])([H])[H])C([H])([H])[H])C([H])([H])c2c([H])c(OC([H])([H])C([H])([H])C(c3c([H])c(C(C([H])([H])[H])(C([H])([H])[H])C([H])([H])[H])nn3C([H])([H])C([H])([H])C([H])([H])N([H])C(=O)N3C([H])([H])C([H])([H])C([H])([H])C([H])(n4nc(-c5c([H])c([H])c(Oc6c([H])c([H])c(F)c([H])c6F)c([H])c5[H])c(C(=O)N([H])[H])c4N([H])[H])C3([H])[H])(C([H])([H])[H])C([H])([H])[H])c([H])c([H])c2C1([H])[H]

>  <smiles>  (19) 
[H]c1c([H])c([H])c2c(c1[H])C([H])([H])C([H])([H])C([H])([H])C2([H])N([H])C(=O)C1([H])N(C(=O)C([H])(N([H])C(=O)C([H])(N([H])C([H])([H])[H])C([H])([H])[H])C(C([H])([H])[H])(C([H])([H])[H])C([H])([H])[H])C([H])([H])c2c([H])c(OC([H])([H])C([H])([H])C(c3c([H])c(C(C([H])([H])[H])(C([H])([H])[H])C([H])([H])[H])nn3C([H])([H])C([H])([H])C([H])([H])N([H])C(=O)N3C([H])([H])C([H])([H])C([H])([H])C([H])(n4nc(-c5c([H])c([H])c(Oc6c([H])c([H])c(F)c([H])c6F)c([H])c5[H])c(C(=O)N([H])[H])c4N([H])[H])C3([H])[H])(C([H])([H])[H])C([H])([H])[H])c([H])c([H])c2C1([H])[H]

$$$$
19:0:0
     RDKit          3D

 87 96  0  0  1  0  0  0  0  0999 V2000
  -26.5370  -19.8430   20.0970 C   0  0  0  0  0  2  0  0  0  0  0  0
  -25.4510  -18.2840   19.7590 C   0  0  0  0  0  2  0  0  0  0  0  0
  -27.5900  -14.8830   21.7460 C   0  0  1  0  0  0  0  0  0  0  0  0
  -28.0210  -15.1010   18.5520 C   0  0  0  0  0  3  0  0  0  0  0  0
  -28.7620  -14.5910   20.2570 C   0  0  0  0  0  0  0  0  0  0  0  0
  -25.4760  -16.4220   19.8630 C   0  0  0  0  0  0  0  0  0  0  0  0
  -25.9670  -15.7740   21.4760 N   0  0  0  0  0  0  0  0  0  0  0  0
  -26.4050  -15.9250   18.4480 N   0  0  0  0  0  2  0  0  0  0  0  0
  -30.3390  -14.0900   20.3160 C   0  0  0  0  0  0  0  0  0  0  0  0
  -31.1050  -11.7720   19.7500 C   0  0  0  0  0  2  0  0  0  0  0  0
  -30.1790  -11.3030   18.5670 C   0  0  0  0  0  2  0  0  0  0  0  0
  -28.6750  -11.0360   18.9890 C   0  0  0  0  0  2  0  0  0  0  0  0
  -28.2920  -12.1260   19.9630 C   0  0  0  0  0  3  0  0  0  0  0  0
  -29.2460  -12.2110   21.1730 C   0  0  0  0  0  2  0  0  0  0  0  0
  -30.4260  -12.7790   20.6020 N   0  0  0  0  0  0  0  0  0  0  0  0
  -31.3910  -14.6330   19.8800 O   0  0  0  0  0  0  0  0  0  0  0  0
  -26.4530  -14.1110   20.5110 C   0  0  0  0  0  3  0  0  0  0  0  0
  -25.1210  -13.3400   20.7460 C   0  0  0  0  0  0  0  0  0  0  0  0
  -25.1730  -11.8330   20.8210 C   0  0  0  0  0  0  0  0  0  0  0  0
  -26.9810  -12.6880   20.2570 N   0  0  0  0  0  0  0  0  0  0  0  0
  -26.3570  -11.5370   20.5530 N   0  0  0  0  0  2  0  0  0  0  0  0
  -24.2920  -10.5460   21.0280 C   0  0  0  0  0  0  0  0  0  0  0  0
  -24.6950   -9.4340   21.8470 C   0  0  0  0  0  3  0  0  0  0  0  0
  -23.9140   -8.2450   22.0150 C   0  0  0  0  0  3  0  0  0  0  0  0
  -22.6750   -8.0910   21.3490 C   0  0  0  0  0  0  0  0  0  0  0  0
  -22.2880   -9.1430   20.4910 C   0  0  0  0  0  3  0  0  0  0  0  0
  -23.0700  -10.3220   20.3330 C   0  0  0  0  0  3  0  0  0  0  0  0
  -21.8510   -6.9710   21.4240 O   0  0  0  0  0  0  0  0  0  0  0  0
  -21.7930   -6.1320   22.5220 C   0  0  0  0  0  0  0  0  0  0  0  0
  -21.5070   -6.6140   23.8190 C   0  0  0  0  0  3  0  0  0  0  0  0
  -21.3970   -5.7220   24.9060 C   0  0  0  0  0  3  0  0  0  0  0  0
  -21.5620   -4.3380   24.7070 C   0  0  0  0  0  0  0  0  0  0  0  0
  -21.8250   -3.8460   23.4180 C   0  0  0  0  0  3  0  0  0  0  0  0
  -21.9310   -4.7360   22.3310 C   0  0  0  0  0  0  0  0  0  0  0  0
  -22.1580   -4.2380   21.0910 F   0  0  0  0  0  0  0  0  0  0  0  0
  -21.4670   -3.4800   25.7530 F   0  0  0  0  0  0  0  0  0  0  0  0
  -23.6550  -13.7810   20.8580 C   0  0  0  0  0  0  0  0  0  0  0  0
  -22.8460  -13.1970   21.7630 N   0  0  0  0  0  0  0  0  0  0  0  0
  -23.1700  -14.5870   20.0780 O   0  0  0  0  0  0  0  0  0  0  0  0
  -23.1910  -12.5090   22.4150 H   0  0  0  0  0  0  0  0  0  0  0  0
  -21.8700  -13.4600   21.8030 H   0  0  0  0  0  0  0  0  0  0  0  0
  -27.8370  -16.4380   20.6620 N   0  0  0  0  0  0  0  0  0  0  0  0
  -27.1720  -16.7220   21.4020 H   0  0  0  0  0  0  0  0  0  0  0  0
  -27.4750  -16.7480   19.7500 H   0  0  0  0  0  0  0  0  0  0  0  0
  -26.7370  -21.6980   19.5790 C   0  0  0  0  0  2  0  0  0  0  0  0
  -27.3000  -23.4200   20.2450 C   0  0  0  0  0  2  0  0  0  0  0  0
  -27.9490  -25.0160   19.9000 O   0  0  0  0  0  0  0  0  0  0  0  0
  -24.7610  -31.3520   22.6740 C   0  0  0  0  0  0  0  0  0  0  0  0
  -27.2740  -26.3570   19.7900 C   0  0  0  0  0  0  0  0  0  0  0  0
  -23.7030  -29.9590   20.9630 C   0  0  0  0  0  3  0  0  0  0  0  0
  -25.2270  -28.4410   19.5510 C   0  0  0  0  0  0  0  0  0  0  0  0
  -26.2760  -30.1670   20.9820 C   0  0  0  0  0  2  0  0  0  0  0  0
  -26.3670  -28.7580   20.2990 C   0  0  0  0  0  0  0  0  0  0  0  0
  -27.4220  -27.7250   20.3950 C   0  0  0  0  0  3  0  0  0  0  0  0
  -26.2040  -26.2880   18.9090 C   0  0  0  0  0  3  0  0  0  0  0  0
  -25.1930  -27.2540   18.8180 C   0  0  0  0  0  3  0  0  0  0  0  0
  -24.0200  -29.3670   19.5670 C   0  0  0  0  0  2  0  0  0  0  0  0
  -24.9370  -30.5290   21.5890 N   0  0  0  0  0  0  0  0  0  0  0  0
  -23.6330  -31.5950   23.1350 O   0  0  0  0  0  0  0  0  0  0  0  0
  -23.0120  -28.8960   21.8580 C   0  0  0  0  0  0  0  0  0  0  0  0
  -21.6820  -28.7380   21.7270 N   0  0  0  0  0  0  0  0  0  0  0  0
  -23.6780  -28.2230   22.6500 O   0  0  0  0  0  0  0  0  0  0  0  0
  -21.1960  -29.3340   21.0710 H   0  0  0  0  0  0  0  0  0  0  0  0
  -18.2810  -27.6080   22.2960 C   0  0  0  0  0  0  0  0  0  0  0  0
  -20.8600  -27.7640   22.4540 C   0  0  0  0  0  3  0  0  0  0  0  0
  -20.8800  -26.3860   21.7510 C   0  0  0  0  0  2  0  0  0  0  0  0
  -19.7200  -26.1930   20.7690 C   0  0  0  0  0  2  0  0  0  0  0  0
  -18.3750  -26.3230   21.4910 C   0  0  0  0  0  2  0  0  0  0  0  0
  -19.4460  -28.2930   22.7340 C   0  0  0  0  0  0  0  0  0  0  0  0
  -19.2990  -29.4990   23.4540 C   0  0  0  0  0  3  0  0  0  0  0  0
  -18.0200  -30.0200   23.7350 C   0  0  0  0  0  3  0  0  0  0  0  0
  -16.8720  -29.3310   23.3080 C   0  0  0  0  0  3  0  0  0  0  0  0
  -17.0040  -28.1270   22.5940 C   0  0  0  0  0  3  0  0  0  0  0  0
  -25.9640  -32.0430   23.3780 C   0  0  0  0  0  3  0  0  0  0  0  0
  -26.5820  -31.1700   24.5400 C   0  0  1  0  0  0  0  0  0  0  0  0
  -25.5350  -30.6510   25.5540 C   0  0  0  0  0  1  0  0  0  0  0  0
  -27.3320  -29.9430   23.9780 C   0  0  0  0  0  1  0  0  0  0  0  0
  -27.6300  -32.0010   25.3160 C   0  0  0  0  0  1  0  0  0  0  0  0
  -25.4920  -33.3330   23.9180 N   0  0  0  0  0  0  0  0  0  0  0  0
  -25.6550  -34.5230   23.3260 C   0  0  0  0  0  0  0  0  0  0  0  0
  -26.2800  -34.6600   22.2710 O   0  0  0  0  0  0  0  0  0  0  0  0
  -24.9250  -33.2890   24.7510 H   0  0  0  0  0  0  0  0  0  0  0  0
  -23.6950  -36.1090   23.3260 C   0  0  0  0  0  1  0  0  0  0  0  0
  -25.0270  -35.7580   24.0090 C   0  0  0  0  0  3  0  0  0  0  0  0
  -27.0740  -36.8020   24.8790 C   0  0  0  0  0  1  0  0  0  0  0  0
  -25.9090  -36.9460   24.0100 N   0  0  0  0  0  0  0  0  0  0  0  0
  -25.3960  -37.7730   24.3060 H   0  0  0  0  0  0  0  0  0  0  0  0
  2  6  1  0
  2  1  1  0
  3 42  1  1
  4  5  2  0
  5  9  1  0
  5  3  1  0
  6  7  2  0
  7  3  1  0
  8  4  1  0
  8  6  1  0
  9 15  1  0
 10 15  1  0
 11 12  1  0
 11 10  1  0
 13 12  1  0
 13 20  1  0
 13 14  1  0
 15 14  1  0
 16  9  2  0
 17 18  1  0
 17  3  1  0
 18 19  2  0
 18 37  1  0
 19 22  1  0
 20 17  1  0
 20 21  1  0
 21 19  1  0
 22 23  1  0
 23 24  2  0
 25 28  1  0
 25 24  1  0
 26 25  2  0
 27 26  1  0
 27 22  2  0
 28 29  1  0
 29 30  1  0
 30 31  2  0
 32 31  1  0
 32 36  1  0
 33 32  2  0
 34 29  2  0
 34 33  1  0
 35 34  1  0
 37 38  1  0
 38 41  1  0
 38 40  1  0
 39 37  2  0
 42 43  1  0
 44 42  1  0
 45  1  1  0
 45 46  1  0
 47 46  1  0
 48 59  2  0
 49 47  1  0
 49 54  1  0
 50 58  1  0
 50 60  1  0
 51 57  1  0
 51 53  1  0
 52 58  1  0
 53 54  2  0
 53 52  1  0
 55 49  2  0
 56 55  1  0
 56 51  2  0
 57 50  1  0
 58 48  1  0
 60 62  2  0
 61 60  1  0
 63 61  1  0
 64 73  2  0
 64 69  1  0
 65 61  1  0
 65 69  1  0
 66 65  1  0
 67 68  1  0
 67 66  1  0
 68 64  1  0
 69 70  2  0
 70 71  1  0
 72 71  2  0
 73 72  1  0
 74 48  1  0
 74 79  1  0
 74 75  1  0
 75 78  1  1
 75 76  1  0
 77 75  1  0
 79 82  1  0
 80 79  1  0
 80 84  1  0
 81 80  2  0
 84 83  1  0
 84 86  1  0
 86 87  1  0
 86 85  1  0
M  ISO  4   5 100   9 100  46 101  47 101
M  END
>  <TORSDO>  (20) 
F 20

>  <SCORE>  (20) 
-5.922

>  <name>  (20) 
19

>  <ligand_id>  (20) 
19

>  <original_smiles>  (20) 
[H]c1nc(C([H])([H])C([H])([H])C([H])([H])C([H])([H])Oc2c([H])c([H])c3c(c2[H])C([H])([H])N(C(=O)C([H])(N([H])C(=O)C([H])(N([H])C([H])([H])[H])C([H])([H])[H])C(C([H])([H])[H])(C([H])([H])[H])C([H])([H])[H])C([H])(C(=O)N([H])C2([H])c4c([H])c([H])c([H])c([H])c4C([H])([H])C([H])([H])C2([H])[H])C3([H])[H])nc([H])c1C(=O)N1C([H])([H])C([H])([H])C([H])([H])C([H])(n2nc(-c3c([H])c([H])c(Oc4c([H])c([H])c(F)c([H])c4F)c([H])c3[H])c(C(=O)N([H])[H])c2N([H])[H])C1([H])[H]

>  <smiles>  (20) 
[H]c1nc(C([H])([H])C([H])([H])C([H])([H])C([H])([H])Oc2c([H])c([H])c3c(c2[H])C([H])([H])N(C(=O)C([H])(N([H])C(=O)C([H])(N([H])C([H])([H])[H])C([H])([H])[H])C(C([H])([H])[H])(C([H])([H])[H])C([H])([H])[H])C([H])(C(=O)N([H])C2([H])c4c([H])c([H])c([H])c([H])c4C([H])([H])C([H])([H])C2([H])[H])C3([H])[H])nc([H])c1C(=O)N1C([H])([H])C([H])([H])C([H])([H])C([H])(n2nc(-c3c([H])c([H])c(Oc4c([H])c([H])c(F)c([H])c4F)c([H])c3[H])c(C(=O)N([H])[H])c2N([H])[H])C1([H])[H]

$$$$
20:0:0
     RDKit          3D

 90 98  0  0  1  0  0  0  0  0999 V2000
  -28.6930  -23.2310   19.9900 C   0  0  0  0  0  2  0  0  0  0  0  0
  -29.0760  -20.6930   19.5490 C   0  0  0  0  0  3  0  0  0  0  0  0
  -29.3410  -19.6460   20.4050 C   0  0  0  0  0  0  0  0  0  0  0  0
  -29.5960  -20.2120   21.6560 N   0  0  0  0  0  0  0  0  0  0  0  0
  -29.4550  -21.5090   21.6030 N   0  0  0  0  0  0  0  0  0  0  0  0
  -29.1300  -21.8490   20.3300 N   0  0  0  0  0  0  0  0  0  0  0  0
  -29.1700  -18.1290   20.2140 C   0  0  0  0  0  2  0  0  0  0  0  0
  -30.3920  -17.1860   20.4880 C   0  0  0  0  0  2  0  0  0  0  0  0
  -30.7960  -14.6800   20.1290 C   0  0  0  0  0  0  0  0  0  0  0  0
  -30.5020  -12.4740   19.0580 C   0  0  0  0  0  2  0  0  0  0  0  0
  -29.5090  -12.6360   17.8860 C   0  0  0  0  0  2  0  0  0  0  0  0
  -28.0530  -12.4960   18.3770 C   0  0  0  0  0  2  0  0  0  0  0  0
  -27.7580  -13.3490   19.6400 C   0  0  0  0  0  3  0  0  0  0  0  0
  -28.8600  -13.1640   20.7070 C   0  0  0  0  0  2  0  0  0  0  0  0
  -30.1510  -13.4800   20.0750 N   0  0  0  0  0  0  0  0  0  0  0  0
  -31.9300  -14.8440   19.6730 O   0  0  0  0  0  0  0  0  0  0  0  0
  -30.0410  -15.7360   20.5240 N   0  0  0  0  0  0  0  0  0  0  0  0
  -29.1140  -15.5060   20.8480 H   0  0  0  0  0  0  0  0  0  0  0  0
  -25.4120  -13.9660   20.4930 C   0  0  0  0  0  0  0  0  0  0  0  0
  -24.3520  -13.1970   20.8910 C   0  0  0  0  0  0  0  0  0  0  0  0
  -24.7920  -11.8400   20.7990 C   0  0  0  0  0  0  0  0  0  0  0  0
  -26.4300  -13.0780   20.1800 N   0  0  0  0  0  0  0  0  0  0  0  0
  -26.0640  -11.7930   20.4240 N   0  0  0  0  0  0  0  0  0  0  0  0
  -24.0600  -10.5810   20.9910 C   0  0  0  0  0  0  0  0  0  0  0  0
  -24.4970   -9.6050   21.9130 C   0  0  0  0  0  3  0  0  0  0  0  0
  -23.7650   -8.4110   22.0920 C   0  0  0  0  0  3  0  0  0  0  0  0
  -22.5830   -8.1870   21.3470 C   0  0  0  0  0  0  0  0  0  0  0  0
  -22.1640   -9.1530   20.4150 C   0  0  0  0  0  3  0  0  0  0  0  0
  -22.8960  -10.3370   20.2340 C   0  0  0  0  0  3  0  0  0  0  0  0
  -21.8220   -7.0450   21.4350 O   0  0  0  0  0  0  0  0  0  0  0  0
  -21.7680   -6.3050   22.5890 C   0  0  0  0  0  0  0  0  0  0  0  0
  -21.2790   -6.8440   23.7990 C   0  0  0  0  0  3  0  0  0  0  0  0
  -21.1720   -6.0270   24.9430 C   0  0  0  0  0  3  0  0  0  0  0  0
  -21.5460   -4.6710   24.8760 C   0  0  0  0  0  0  0  0  0  0  0  0
  -22.0300   -4.1320   23.6720 C   0  0  0  0  0  3  0  0  0  0  0  0
  -22.1370   -4.9460   22.5300 C   0  0  0  0  0  0  0  0  0  0  0  0
  -22.5820   -4.4160   21.3650 F   0  0  0  0  0  0  0  0  0  0  0  0
  -21.4390   -3.8820   25.9710 F   0  0  0  0  0  0  0  0  0  0  0  0
  -22.9770  -13.6840   21.2460 C   0  0  0  0  0  0  0  0  0  0  0  0
  -22.2830  -12.9720   22.1270 N   0  0  0  0  0  0  0  0  0  0  0  0
  -22.5280  -14.7290   20.7790 O   0  0  0  0  0  0  0  0  0  0  0  0
  -22.6630  -12.1300   22.5300 H   0  0  0  0  0  0  0  0  0  0  0  0
  -21.3620  -13.2790   22.4070 H   0  0  0  0  0  0  0  0  0  0  0  0
  -25.5890  -15.3380   20.3460 N   0  0  0  0  0  0  0  0  0  0  0  0
  -24.8340  -15.9960   20.5090 H   0  0  0  0  0  0  0  0  0  0  0  0
  -26.4140  -15.7710   19.9510 H   0  0  0  0  0  0  0  0  0  0  0  0
  -29.3750  -24.4260   20.7520 C   0  0  0  0  0  2  0  0  0  0  0  0
  -27.2060  -25.3180   21.8090 C   0  0  0  0  0  1  0  0  0  0  0  0
  -28.5260  -25.7080   21.1040 C   0  0  0  0  0  3  0  0  0  0  0  0
  -28.4180  -26.7080   20.0480 O   0  0  0  0  0  0  0  0  0  0  0  0
  -24.5780  -31.8930   23.2110 C   0  0  0  0  0  0  0  0  0  0  0  0
  -27.2940  -27.5220   20.0550 C   0  0  0  0  0  0  0  0  0  0  0  0
  -23.4120  -30.5250   21.5160 C   0  0  0  0  0  3  0  0  0  0  0  0
  -24.9010  -29.0400   20.0650 C   0  0  0  0  0  0  0  0  0  0  0  0
  -25.9410  -30.8990   21.3710 C   0  0  0  0  0  2  0  0  0  0  0  0
  -26.0490  -29.5440   20.6930 C   0  0  0  0  0  0  0  0  0  0  0  0
  -27.2520  -28.7900   20.6900 C   0  0  0  0  0  3  0  0  0  0  0  0
  -26.1390  -27.0520   19.4010 C   0  0  0  0  0  3  0  0  0  0  0  0
  -24.9430  -27.7950   19.4160 C   0  0  0  0  0  3  0  0  0  0  0  0
  -23.6490  -29.8890   20.1210 C   0  0  0  0  0  2  0  0  0  0  0  0
  -24.6610  -31.1200   22.0910 N   0  0  0  0  0  0  0  0  0  0  0  0
  -23.4870  -32.1420   23.7410 O   0  0  0  0  0  0  0  0  0  0  0  0
  -22.7540  -29.4720   22.4370 C   0  0  0  0  0  0  0  0  0  0  0  0
  -21.4270  -29.3050   22.3080 N   0  0  0  0  0  0  0  0  0  0  0  0
  -23.4330  -28.8110   23.2270 O   0  0  0  0  0  0  0  0  0  0  0  0
  -20.9390  -29.8890   21.6430 H   0  0  0  0  0  0  0  0  0  0  0  0
  -18.0380  -28.1540   22.8170 C   0  0  0  0  0  0  0  0  0  0  0  0
  -20.6060  -28.3450   23.0460 C   0  0  0  0  0  3  0  0  0  0  0  0
  -20.6660  -26.9440   22.3930 C   0  0  0  0  0  2  0  0  0  0  0  0
  -19.5370  -26.7000   21.3860 C   0  0  0  0  0  2  0  0  0  0  0  0
  -18.1720  -26.8380   22.0670 C   0  0  0  0  0  2  0  0  0  0  0  0
  -19.1810  -28.8690   23.2620 C   0  0  0  0  0  0  0  0  0  0  0  0
  -19.0010  -30.1030   23.9230 C   0  0  0  0  0  3  0  0  0  0  0  0
  -17.7110  -30.6220   24.1430 C   0  0  0  0  0  3  0  0  0  0  0  0
  -16.5830  -29.9020   23.7110 C   0  0  0  0  0  3  0  0  0  0  0  0
  -16.7470  -28.6700   23.0550 C   0  0  0  0  0  3  0  0  0  0  0  0
  -25.8490  -32.5190   23.8660 C   0  0  0  0  0  3  0  0  0  0  0  0
  -25.5340  -33.9150   24.2000 N   0  0  0  0  0  0  0  0  0  0  0  0
  -25.8800  -34.9720   23.4520 C   0  0  0  0  0  0  0  0  0  0  0  0
  -26.5680  -34.8740   22.4320 O   0  0  0  0  0  0  0  0  0  0  0  0
  -24.9220  -34.0650   24.9880 H   0  0  0  0  0  0  0  0  0  0  0  0
  -24.1690  -36.7730   23.0610 C   0  0  0  0  0  1  0  0  0  0  0  0
  -25.3830  -36.3580   23.9070 C   0  0  0  0  0  3  0  0  0  0  0  0
  -27.4860  -37.2330   24.8240 C   0  0  0  0  0  1  0  0  0  0  0  0
  -26.4230  -37.4070   23.8380 N   0  0  0  0  0  0  0  0  0  0  0  0
  -26.0150  -38.3290   23.9710 H   0  0  0  0  0  0  0  0  0  0  0  0
  -26.3390  -31.7370   25.1470 C   0  0  1  0  0  0  0  0  0  0  0  0
  -25.2220  -31.4840   26.1870 C   0  0  0  0  0  1  0  0  0  0  0  0
  -26.9370  -30.3660   24.7560 C   0  0  0  0  0  1  0  0  0  0  0  0
  -27.4710  -32.5300   25.8430 C   0  0  0  0  0  1  0  0  0  0  0  0
  1  6  1  0
  1 47  1  0
  2  6  1  0
  2  3  2  0
  3  4  1  0
  5  4  2  0
  6  5  1  0
  7  3  1  0
  7  8  1  0
  8 17  1  0
  9 17  1  0
 10 15  1  0
 11 12  1  0
 11 10  1  0
 13 12  1  0
 13 22  1  0
 13 14  1  0
 15  9  1  0
 15 14  1  0
 16  9  2  0
 17 18  1  0
 19 20  2  0
 20 39  1  0
 21 20  1  0
 21 24  1  0
 22 23  1  0
 22 19  1  0
 23 21  2  0
 24 25  1  0
 25 26  2  0
 27 30  1  0
 27 26  1  0
 28 27  2  0
 29 28  1  0
 29 24  2  0
 30 31  1  0
 31 32  1  0
 32 33  2  0
 34 33  1  0
 34 38  1  0
 35 34  2  0
 36 31  2  0
 36 35  1  0
 37 36  1  0
 39 40  1  0
 40 43  1  0
 40 42  1  0
 41 39  2  0
 44 19  1  0
 44 45  1  0
 46 44  1  0
 47 49  1  0
 49 48  1  0
 50 52  1  0
 50 49  1  0
 51 62  2  0
 52 57  1  0
 53 61  1  0
 53 63  1  0
 54 60  1  0
 54 56  1  0
 55 61  1  0
 56 55  1  0
 57 56  2  0
 58 59  1  0
 58 52  2  0
 59 54  2  0
 60 53  1  0
 61 51  1  0
 63 65  2  0
 64 63  1  0
 66 64  1  0
 67 76  2  0
 67 72  1  0
 68 64  1  0
 68 72  1  0
 69 68  1  0
 70 71  1  0
 70 69  1  0
 71 67  1  0
 72 73  2  0
 73 74  1  0
 75 74  2  0
 76 75  1  0
 77 51  1  0
 77 78  1  0
 77 87  1  0
 78 81  1  0
 79 83  1  0
 79 78  1  0
 80 79  2  0
 83 82  1  0
 85 83  1  0
 85 86  1  0
 85 84  1  0
 87 90  1  1
 87 88  1  0
 89 87  1  0
M  ISO  4   9 100  17 100  49 101  50 101
M  END
>  <TORSDO>  (21) 
F 21

>  <SCORE>  (21) 
-13.324

>  <name>  (21) 
20

>  <ligand_id>  (21) 
20

>  <original_smiles>  (21) 
[H]c1c([H])c([H])c2c(c1[H])C([H])([H])C([H])([H])C([H])([H])C2([H])N([H])C(=O)C1([H])N(C(=O)C([H])(N([H])C(=O)C([H])(N([H])C([H])([H])[H])C([H])([H])[H])C(C([H])([H])[H])(C([H])([H])[H])C([H])([H])[H])C([H])([H])c2c([H])c(OC([H])(C([H])([H])[H])C([H])([H])C([H])([H])n3nnc(C([H])([H])C([H])([H])N([H])C(=O)N4C([H])([H])C([H])([H])C([H])([H])C([H])(n5nc(-c6c([H])c([H])c(Oc7c([H])c([H])c(F)c([H])c7F)c([H])c6[H])c(C(=O)N([H])[H])c5N([H])[H])C4([H])[H])c3[H])c([H])c([H])c2C1([H])[H]

>  <smiles>  (21) 
[H]c1c([H])c([H])c2c(c1[H])C([H])([H])C([H])([H])C([H])([H])C2([H])N([H])C(=O)C1([H])N(C(=O)C([H])(N([H])C(=O)C([H])(N([H])C([H])([H])[H])C([H])([H])[H])C(C([H])([H])[H])(C([H])([H])[H])C([H])([H])[H])C([H])([H])c2c([H])c(OC([H])(C([H])([H])[H])C([H])([H])C([H])([H])n3nnc(C([H])([H])C([H])([H])N([H])C(=O)N4C([H])([H])C([H])([H])C([H])([H])C([H])(n5nc(-c6c([H])c([H])c(Oc7c([H])c([H])c(F)c([H])c7F)c([H])c6[H])c(C(=O)N([H])[H])c5N([H])[H])C4([H])[H])c3[H])c([H])c([H])c2C1([H])[H]

$$$$
21:0:0
     RDKit          3D

 95103  0  0  1  0  0  0  0  0999 V2000
  -30.4420  -22.1620   20.6070 C   0  0  0  0  0  2  0  0  0  0  0  0
  -30.9200  -19.6610   20.4890 C   0  0  0  0  0  3  0  0  0  0  0  0
  -30.3280  -20.4550   22.4820 C   0  0  0  0  0  3  0  0  0  0  0  0
  -30.9780  -18.6080   21.3690 C   0  0  0  0  0  0  0  0  0  0  0  0
  -30.5820  -19.1190   22.6460 C   0  0  0  0  0  0  0  0  0  0  0  0
  -30.5370  -20.8060   21.1640 N   0  0  0  0  0  0  0  0  0  0  0  0
  -29.4350  -18.9770   24.8780 C   0  0  0  0  0  1  0  0  0  0  0  0
  -31.8600  -18.2620   24.6340 C   0  0  0  0  0  1  0  0  0  0  0  0
  -30.4870  -18.3540   23.9500 C   0  0  0  0  0  3  0  0  0  0  0  0
  -31.4280  -17.1870   21.0380 C   0  0  0  0  0  2  0  0  0  0  0  0
  -30.9350  -15.0600   19.9570 C   0  0  0  0  0  0  0  0  0  0  0  0
  -30.5460  -12.9020   18.8110 C   0  0  0  0  0  2  0  0  0  0  0  0
  -29.5420  -13.0750   17.6560 C   0  0  0  0  0  2  0  0  0  0  0  0
  -28.1050  -12.8730   18.1680 C   0  0  0  0  0  2  0  0  0  0  0  0
  -27.8090  -13.6970   19.4460 C   0  0  0  0  0  3  0  0  0  0  0  0
  -28.9400  -13.5390   20.4970 C   0  0  0  0  0  2  0  0  0  0  0  0
  -30.2090  -13.9010   19.8480 N   0  0  0  0  0  0  0  0  0  0  0  0
  -32.0540  -15.1280   19.4430 O   0  0  0  0  0  0  0  0  0  0  0  0
  -29.0650  -16.6540   20.3470 C   0  0  0  0  0  1  0  0  0  0  0  0
  -30.4310  -16.1610   20.6060 N   0  0  0  0  0  0  0  0  0  0  0  0
  -25.4430  -14.2520   20.2820 C   0  0  0  0  0  0  0  0  0  0  0  0
  -24.4130  -13.4520   20.6960 C   0  0  0  0  0  0  0  0  0  0  0  0
  -24.9030  -12.1130   20.6330 C   0  0  0  0  0  0  0  0  0  0  0  0
  -26.4940  -13.3940   19.9960 N   0  0  0  0  0  0  0  0  0  0  0  0
  -26.1780  -12.1030   20.2670 N   0  0  0  0  0  0  0  0  0  0  0  0
  -24.2170  -10.8330   20.8430 C   0  0  0  0  0  0  0  0  0  0  0  0
  -24.6520   -9.9180   21.8270 C   0  0  0  0  0  3  0  0  0  0  0  0
  -23.9660   -8.7020   22.0240 C   0  0  0  0  0  3  0  0  0  0  0  0
  -22.8310   -8.3930   21.2370 C   0  0  0  0  0  0  0  0  0  0  0  0
  -22.4170   -9.2950   20.2410 C   0  0  0  0  0  3  0  0  0  0  0  0
  -23.1050  -10.5040   20.0440 C   0  0  0  0  0  3  0  0  0  0  0  0
  -22.1170   -7.2240   21.3430 O   0  0  0  0  0  0  0  0  0  0  0  0
  -21.9590   -6.5850   22.5460 C   0  0  0  0  0  0  0  0  0  0  0  0
  -21.3300   -7.2100   23.6450 C   0  0  0  0  0  3  0  0  0  0  0  0
  -21.1260   -6.4940   24.8410 C   0  0  0  0  0  3  0  0  0  0  0  0
  -21.5370   -5.1510   24.9360 C   0  0  0  0  0  0  0  0  0  0  0  0
  -22.1580   -4.5240   23.8410 C   0  0  0  0  0  3  0  0  0  0  0  0
  -22.3660   -5.2400   22.6480 C   0  0  0  0  0  0  0  0  0  0  0  0
  -22.9450   -4.6250   21.5880 F   0  0  0  0  0  0  0  0  0  0  0  0
  -21.3330   -4.4570   26.0800 F   0  0  0  0  0  0  0  0  0  0  0  0
  -23.0190  -13.8950   21.0400 C   0  0  0  0  0  0  0  0  0  0  0  0
  -22.3590  -13.1910   21.9510 N   0  0  0  0  0  0  0  0  0  0  0  0
  -22.5260  -14.9020   20.5320 O   0  0  0  0  0  0  0  0  0  0  0  0
  -22.7710  -12.3810   22.3880 H   0  0  0  0  0  0  0  0  0  0  0  0
  -21.4260  -13.4730   22.2200 H   0  0  0  0  0  0  0  0  0  0  0  0
  -25.5600  -15.6270   20.1040 N   0  0  0  0  0  0  0  0  0  0  0  0
  -24.7760  -16.2540   20.2460 H   0  0  0  0  0  0  0  0  0  0  0  0
  -26.3830  -16.0960   19.7490 H   0  0  0  0  0  0  0  0  0  0  0  0
  -28.5450  -21.7110   18.9850 C   0  0  0  0  0  1  0  0  0  0  0  0
  -27.9870  -22.5050   21.2780 C   0  0  0  0  0  1  0  0  0  0  0  0
  -29.0230  -22.6190   20.1390 C   0  0  1  0  0  0  0  0  0  0  0  0
  -29.0490  -24.0830   19.5950 C   0  0  0  0  0  2  0  0  0  0  0  0
  -29.5990  -25.1920   20.5290 C   0  0  0  0  0  2  0  0  0  0  0  0
  -28.6140  -26.3540   20.7780 C   0  0  0  0  0  2  0  0  0  0  0  0
  -28.3860  -27.1510   19.6120 O   0  0  0  0  0  0  0  0  0  0  0  0
  -24.4750  -31.9160   23.1730 C   0  0  0  0  0  0  0  0  0  0  0  0
  -27.2110  -27.8580   19.6900 C   0  0  0  0  0  0  0  0  0  0  0  0
  -23.2740  -30.5710   21.4770 C   0  0  0  0  0  3  0  0  0  0  0  0
  -24.7440  -29.2160   19.8900 C   0  0  0  0  0  0  0  0  0  0  0  0
  -25.7650  -31.0770   21.2140 C   0  0  0  0  0  2  0  0  0  0  0  0
  -25.8950  -29.7610   20.4770 C   0  0  0  0  0  0  0  0  0  0  0  0
  -27.1320  -29.0880   20.3800 C   0  0  0  0  0  3  0  0  0  0  0  0
  -26.0530  -27.3230   19.0930 C   0  0  0  0  0  3  0  0  0  0  0  0
  -24.8170  -27.9930   19.1970 C   0  0  0  0  0  3  0  0  0  0  0  0
  -23.4600  -29.9980   20.0460 C   0  0  0  0  0  2  0  0  0  0  0  0
  -24.5240  -31.2000   22.0140 N   0  0  0  0  0  0  0  0  0  0  0  0
  -23.4050  -32.0930   23.7720 O   0  0  0  0  0  0  0  0  0  0  0  0
  -22.7140  -29.4530   22.3880 C   0  0  0  0  0  0  0  0  0  0  0  0
  -21.4080  -29.1710   22.2530 N   0  0  0  0  0  0  0  0  0  0  0  0
  -23.4510  -28.8450   23.1680 O   0  0  0  0  0  0  0  0  0  0  0  0
  -20.8700  -29.7180   21.5960 H   0  0  0  0  0  0  0  0  0  0  0  0
  -18.1520  -27.6640   22.6700 C   0  0  0  0  0  0  0  0  0  0  0  0
  -20.6750  -28.1320   22.9760 C   0  0  0  0  0  3  0  0  0  0  0  0
  -20.9070  -26.7430   22.3400 C   0  0  0  0  0  2  0  0  0  0  0  0
  -19.8430  -26.3690   21.3030 C   0  0  0  0  0  2  0  0  0  0  0  0
  -18.4510  -26.3650   21.9390 C   0  0  0  0  0  2  0  0  0  0  0  0
  -19.1960  -28.5010   23.1440 C   0  0  0  0  0  0  0  0  0  0  0  0
  -18.8640  -29.7150   23.7830 C   0  0  0  0  0  3  0  0  0  0  0  0
  -17.5200  -30.0920   23.9590 C   0  0  0  0  0  3  0  0  0  0  0  0
  -16.4900  -29.2510   23.5030 C   0  0  0  0  0  3  0  0  0  0  0  0
  -16.8070  -28.0400   22.8630 C   0  0  0  0  0  3  0  0  0  0  0  0
  -25.7530  -32.5670   23.7860 C   0  0  0  0  0  3  0  0  0  0  0  0
  -25.4240  -33.9580   24.1240 N   0  0  0  0  0  0  0  0  0  0  0  0
  -25.7560  -35.0200   23.3780 C   0  0  0  0  0  0  0  0  0  0  0  0
  -26.4440  -34.9330   22.3580 O   0  0  0  0  0  0  0  0  0  0  0  0
  -24.8130  -34.0980   24.9160 H   0  0  0  0  0  0  0  0  0  0  0  0
  -24.0260  -36.8030   22.9920 C   0  0  0  0  0  1  0  0  0  0  0  0
  -25.2430  -36.3980   23.8380 C   0  0  0  0  0  3  0  0  0  0  0  0
  -27.3380  -37.2910   24.7550 C   0  0  0  0  0  1  0  0  0  0  0  0
  -26.2700  -37.4610   23.7730 N   0  0  0  0  0  0  0  0  0  0  0  0
  -25.8510  -38.3770   23.9150 H   0  0  0  0  0  0  0  0  0  0  0  0
  -26.2970  -31.7970   25.0510 C   0  0  1  0  0  0  0  0  0  0  0  0
  -25.2180  -31.5260   26.1250 C   0  0  0  0  0  1  0  0  0  0  0  0
  -26.9110  -30.4380   24.6450 C   0  0  0  0  0  1  0  0  0  0  0  0
  -27.4320  -32.6140   25.7130 C   0  0  0  0  0  1  0  0  0  0  0  0
  1  6  1  0
  2  6  1  0
  2  4  2  0
  3  5  2  0
  4  5  1  0
  5  9  1  0
  6  3  1  0
  9  8  1  0
  9  7  1  0
 10  4  1  0
 11 20  1  0
 12 17  1  0
 13 14  1  0
 13 12  1  0
 15 14  1  0
 15 24  1  0
 15 16  1  0
 17 11  1  0
 17 16  1  0
 18 11  2  0
 19 20  1  0
 20 10  1  0
 21 22  2  0
 22 41  1  0
 23 22  1  0
 23 26  1  0
 24 25  1  0
 24 21  1  0
 25 23  2  0
 26 27  1  0
 27 28  2  0
 29 32  1  0
 29 28  1  0
 30 29  2  0
 31 30  1  0
 31 26  2  0
 32 33  1  0
 33 38  2  0
 33 34  1  0
 34 35  2  0
 35 36  1  0
 36 40  1  0
 37 36  2  0
 38 37  1  0
 39 38  1  0
 41 42  1  0
 42 45  1  0
 42 44  1  0
 43 41  2  0
 46 47  1  0
 46 21  1  0
 48 46  1  0
 51 49  1  6
 51  1  1  0
 51 50  1  0
 52 51  1  0
 52 53  1  0
 53 54  1  0
 55 57  1  0
 55 54  1  0
 56 67  2  0
 57 62  1  0
 58 66  1  0
 58 68  1  0
 59 65  1  0
 59 61  1  0
 60 66  1  0
 61 60  1  0
 62 61  2  0
 63 64  1  0
 63 57  2  0
 64 59  2  0
 65 58  1  0
 66 56  1  0
 68 70  2  0
 69 68  1  0
 71 69  1  0
 72 81  2  0
 72 77  1  0
 73 69  1  0
 73 77  1  0
 74 73  1  0
 75 76  1  0
 75 74  1  0
 76 72  1  0
 77 78  2  0
 78 79  1  0
 80 79  2  0
 81 80  1  0
 82 56  1  0
 82 83  1  0
 82 92  1  0
 83 86  1  0
 84 88  1  0
 84 83  1  0
 85 84  2  0
 88 87  1  0
 90 88  1  0
 90 91  1  0
 90 89  1  0
 92 95  1  1
 92 93  1  0
 94 92  1  0
M  ISO  4  11 100  20 100  54 101  55 101
M  END
>  <TORSDO>  (22) 
F 23

>  <SCORE>  (22) 
-6.135

>  <name>  (22) 
21

>  <ligand_id>  (22) 
21

>  <original_smiles>  (22) 
[H]c1c([H])c([H])c2c(c1[H])C([H])([H])C([H])([H])C([H])([H])C2([H])N([H])C(=O)C1([H])N(C(=O)C([H])(N([H])C(=O)C([H])(N([H])C([H])([H])[H])C([H])([H])[H])C(C([H])([H])[H])(C([H])([H])[H])C([H])([H])[H])C([H])([H])c2c([H])c(OC([H])([H])C([H])([H])C([H])([H])C(C([H])([H])[H])(C([H])([H])[H])C([H])([H])n3c([H])c(C([H])([H])N(C(=O)N4C([H])([H])C([H])([H])C([H])([H])C([H])(n5nc(-c6c([H])c([H])c(Oc7c([H])c([H])c(F)c([H])c7F)c([H])c6[H])c(C(=O)N([H])[H])c5N([H])[H])C4([H])[H])C([H])([H])[H])c(C([H])(C([H])([H])[H])C([H])([H])[H])c3[H])c([H])c([H])c2C1([H])[H]

>  <smiles>  (22) 
[H]c1c([H])c([H])c2c(c1[H])C([H])([H])C([H])([H])C([H])([H])C2([H])N([H])C(=O)C1([H])N(C(=O)C([H])(N([H])C(=O)C([H])(N([H])C([H])([H])[H])C([H])([H])[H])C(C([H])([H])[H])(C([H])([H])[H])C([H])([H])[H])C([H])([H])c2c([H])c(OC([H])([H])C([H])([H])C([H])([H])C(C([H])([H])[H])(C([H])([H])[H])C([H])([H])n3c([H])c(C([H])([H])N(C(=O)N4C([H])([H])C([H])([H])C([H])([H])C([H])(n5nc(-c6c([H])c([H])c(Oc7c([H])c([H])c(F)c([H])c7F)c([H])c6[H])c(C(=O)N([H])[H])c5N([H])[H])C4([H])[H])C([H])([H])[H])c(C([H])(C([H])([H])[H])C([H])([H])[H])c3[H])c([H])c([H])c2C1([H])[H]

$$$$
22:0:0
     RDKit          3D

 89 97  0  0  1  0  0  0  0  0999 V2000
  -28.8830  -21.3310   19.4350 C   0  0  0  0  0  3  0  0  0  0  0  0
  -29.3240  -20.1190   20.1700 C   0  0  0  0  0  0  0  0  0  0  0  0
  -28.9720  -22.1200   21.4300 C   0  0  0  0  0  3  0  0  0  0  0  0
  -28.9140  -22.9250   22.6860 C   0  0  0  0  0  1  0  0  0  0  0  0
  -28.6500  -22.5980   20.1950 N   0  0  0  0  0  0  0  0  0  0  0  0
  -29.3440  -20.7730   21.4050 N   0  0  0  0  0  0  0  0  0  0  0  0
  -29.6300  -20.2900   22.2480 H   0  0  0  0  0  0  0  0  0  0  0  0
  -29.9180  -18.4260   18.2590 C   0  0  0  0  0  1  0  0  0  0  0  0
  -29.9440  -18.4620   19.7940 C   0  0  0  0  0  0  0  0  0  0  0  0
  -30.4680  -15.5030   20.1190 C   0  0  0  0  0  0  0  0  0  0  0  0
  -30.4660  -13.0090   19.2980 C   0  0  0  0  0  2  0  0  0  0  0  0
  -29.5360  -12.7380   18.0850 C   0  0  0  0  0  2  0  0  0  0  0  0
  -28.1010  -12.4480   18.5510 C   0  0  0  0  0  2  0  0  0  0  0  0
  -27.6540  -13.4260   19.6650 C   0  0  0  0  0  3  0  0  0  0  0  0
  -28.7160  -13.6290   20.7690 C   0  0  0  0  0  2  0  0  0  0  0  0
  -29.9150  -14.1730   20.1070 N   0  0  0  0  0  0  0  0  0  0  0  0
  -31.6790  -15.4670   19.8430 O   0  0  0  0  0  0  0  0  0  0  0  0
  -29.7260  -16.8210   20.2340 N   0  0  0  0  0  4  0  0  0  0  0  0
  -28.7720  -16.6590   20.5240 H   0  0  0  0  0  0  0  0  0  0  0  0
  -25.3120  -13.9820   20.4870 C   0  0  0  0  0  0  0  0  0  0  0  0
  -24.2520  -13.2080   20.8650 C   0  0  0  0  0  0  0  0  0  0  0  0
  -24.7060  -11.8540   20.7990 C   0  0  0  0  0  0  0  0  0  0  0  0
  -26.3390  -13.1030   20.2020 N   0  0  0  0  0  0  0  0  0  0  0  0
  -25.9910  -11.8150   20.4580 N   0  0  0  0  0  0  0  0  0  0  0  0
  -23.9690  -10.5950   20.9800 C   0  0  0  0  0  0  0  0  0  0  0  0
  -24.4070   -9.6070   21.8890 C   0  0  0  0  0  3  0  0  0  0  0  0
  -23.6680   -8.4160   22.0620 C   0  0  0  0  0  3  0  0  0  0  0  0
  -22.4790   -8.2050   21.3270 C   0  0  0  0  0  0  0  0  0  0  0  0
  -22.0590   -9.1810   20.4060 C   0  0  0  0  0  3  0  0  0  0  0  0
  -22.7980  -10.3630   20.2310 C   0  0  0  0  0  3  0  0  0  0  0  0
  -21.7100   -7.0680   21.4120 O   0  0  0  0  0  0  0  0  0  0  0  0
  -21.6710   -6.3100   22.5540 C   0  0  0  0  0  0  0  0  0  0  0  0
  -21.2580   -6.8480   23.7920 C   0  0  0  0  0  3  0  0  0  0  0  0
  -21.1660   -6.0160   24.9260 C   0  0  0  0  0  3  0  0  0  0  0  0
  -21.4750   -4.6460   24.8220 C   0  0  0  0  0  0  0  0  0  0  0  0
  -21.8800   -4.1070   23.5880 C   0  0  0  0  0  3  0  0  0  0  0  0
  -21.9740   -4.9360   22.4570 C   0  0  0  0  0  0  0  0  0  0  0  0
  -22.3440   -4.4080   21.2650 F   0  0  0  0  0  0  0  0  0  0  0  0
  -21.3790   -3.8450   25.9090 F   0  0  0  0  0  0  0  0  0  0  0  0
  -22.8670  -13.6930   21.1700 C   0  0  0  0  0  0  0  0  0  0  0  0
  -22.1480  -12.9910   22.0400 N   0  0  0  0  0  0  0  0  0  0  0  0
  -22.4300  -14.7310   20.6740 O   0  0  0  0  0  0  0  0  0  0  0  0
  -22.5150  -12.1520   22.4630 H   0  0  0  0  0  0  0  0  0  0  0  0
  -21.2180  -13.2980   22.2860 H   0  0  0  0  0  0  0  0  0  0  0  0
  -25.4810  -15.3540   20.3280 N   0  0  0  0  0  0  0  0  0  0  0  0
  -24.7170  -16.0090   20.4600 H   0  0  0  0  0  0  0  0  0  0  0  0
  -26.3070  -15.7860   19.9340 H   0  0  0  0  0  0  0  0  0  0  0  0
  -27.8990  -24.1570   19.8310 C   0  0  0  0  0  2  0  0  0  0  0  0
  -28.2220  -25.7390   20.2180 O   0  0  0  0  0  0  0  0  0  0  0  0
  -24.6720  -31.8520   23.1440 C   0  0  0  0  0  0  0  0  0  0  0  0
  -27.2460  -26.9040   20.1270 C   0  0  0  0  0  0  0  0  0  0  0  0
  -23.4920  -30.4470   21.5090 C   0  0  0  0  0  3  0  0  0  0  0  0
  -24.9510  -28.8400   20.0830 C   0  0  0  0  0  0  0  0  0  0  0  0
  -26.0620  -30.6440   21.3720 C   0  0  0  0  0  2  0  0  0  0  0  0
  -26.1380  -29.2260   20.7130 C   0  0  0  0  0  0  0  0  0  0  0  0
  -27.2740  -28.2790   20.7140 C   0  0  0  0  0  3  0  0  0  0  0  0
  -26.0280  -26.7040   19.4320 C   0  0  0  0  0  3  0  0  0  0  0  0
  -24.9270  -27.6020   19.4210 C   0  0  0  0  0  3  0  0  0  0  0  0
  -23.7290  -29.7640   20.1330 C   0  0  0  0  0  2  0  0  0  0  0  0
  -24.7650  -31.0110   22.0610 N   0  0  0  0  0  0  0  0  0  0  0  0
  -23.5800  -32.1380   23.6620 O   0  0  0  0  0  0  0  0  0  0  0  0
  -22.7990  -29.4510   22.4760 C   0  0  0  0  0  0  0  0  0  0  0  0
  -21.4680  -29.2840   22.3580 N   0  0  0  0  0  0  0  0  0  0  0  0
  -23.4680  -28.8270   23.3040 O   0  0  0  0  0  0  0  0  0  0  0  0
  -20.9790  -29.8370   21.6680 H   0  0  0  0  0  0  0  0  0  0  0  0
  -18.0930  -28.0530   22.8800 C   0  0  0  0  0  0  0  0  0  0  0  0
  -20.6520  -28.3420   23.1330 C   0  0  0  0  0  3  0  0  0  0  0  0
  -20.7630  -26.9100   22.5570 C   0  0  0  0  0  2  0  0  0  0  0  0
  -19.6600  -26.5800   21.5460 C   0  0  0  0  0  2  0  0  0  0  0  0
  -18.2800  -26.7100   22.1960 C   0  0  0  0  0  2  0  0  0  0  0  0
  -19.2060  -28.8270   23.3050 C   0  0  0  0  0  0  0  0  0  0  0  0
  -18.9740  -30.0820   23.9080 C   0  0  0  0  0  3  0  0  0  0  0  0
  -17.6640  -30.5650   24.0880 C   0  0  0  0  0  3  0  0  0  0  0  0
  -16.5660  -29.7890   23.6750 C   0  0  0  0  0  3  0  0  0  0  0  0
  -16.7820  -28.5360   23.0780 C   0  0  0  0  0  3  0  0  0  0  0  0
  -25.9350  -32.5080   23.7800 C   0  0  0  0  0  3  0  0  0  0  0  0
  -25.6040  -33.9040   24.1210 N   0  0  0  0  0  0  0  0  0  0  0  0
  -25.9260  -34.9740   23.3820 C   0  0  0  0  0  0  0  0  0  0  0  0
  -26.5930  -34.8910   22.3480 O   0  0  0  0  0  0  0  0  0  0  0  0
  -25.0090  -34.0430   24.9250 H   0  0  0  0  0  0  0  0  0  0  0  0
  -24.1830  -36.7660   23.0650 C   0  0  0  0  0  1  0  0  0  0  0  0
  -25.4310  -36.3560   23.8630 C   0  0  0  0  0  3  0  0  0  0  0  0
  -27.5590  -37.2510   24.7030 C   0  0  0  0  0  1  0  0  0  0  0  0
  -26.4550  -37.4180   23.7610 N   0  0  0  0  0  0  0  0  0  0  0  0
  -26.0420  -38.3340   23.9140 H   0  0  0  0  0  0  0  0  0  0  0  0
  -26.4480  -31.7470   25.0660 C   0  0  1  0  0  0  0  0  0  0  0  0
  -25.3480  -31.5080   26.1280 C   0  0  0  0  0  1  0  0  0  0  0  0
  -27.0420  -30.3700   24.6950 C   0  0  0  0  0  1  0  0  0  0  0  0
  -27.5900  -32.5500   25.7320 C   0  0  0  0  0  1  0  0  0  0  0  0
  1  2  2  0
  1  5  1  0
  2  6  1  0
  3  4  1  0
  5  3  1  0
  6  3  1  0
  6  7  1  0
  8  9  1  0
  9  2  1  0
  9 18  2  0
 10 18  1  0
 11 16  1  0
 12 13  1  0
 12 11  1  0
 14 13  1  0
 14 23  1  0
 14 15  1  0
 16 10  1  0
 16 15  1  0
 17 10  2  0
 18 19  1  0
 20 21  2  0
 21 40  1  0
 22 21  1  0
 22 25  1  0
 23 24  1  0
 23 20  1  0
 24 22  2  0
 25 26  1  0
 26 27  2  0
 28 31  1  0
 28 27  1  0
 29 28  2  0
 30 29  1  0
 30 25  2  0
 31 32  1  0
 32 33  1  0
 33 34  2  0
 35 34  1  0
 35 39  1  0
 36 35  2  0
 37 32  2  0
 37 36  1  0
 38 37  1  0
 40 41  1  0
 41 44  1  0
 41 43  1  0
 42 40  2  0
 45 46  1  0
 45 20  1  0
 47 45  1  0
 48  5  1  0
 48 49  1  0
 50 61  2  0
 51 49  1  0
 51 56  1  0
 52 60  1  0
 52 62  1  0
 53 59  1  0
 53 55  1  0
 54 60  1  0
 55 56  2  0
 55 54  1  0
 57 51  2  0
 58 57  1  0
 58 53  2  0
 59 52  1  0
 60 50  1  0
 62 64  2  0
 63 62  1  0
 65 63  1  0
 66 75  2  0
 66 71  1  0
 67 63  1  0
 67 71  1  0
 68 67  1  0
 69 70  1  0
 69 68  1  0
 70 66  1  0
 71 72  2  0
 72 73  1  0
 74 73  2  0
 75 74  1  0
 76 50  1  0
 76 77  1  0
 76 86  1  0
 77 80  1  0
 78 82  1  0
 78 77  1  0
 79 78  2  0
 82 81  1  0
 84 82  1  0
 84 85  1  0
 84 83  1  0
 86 89  1  1
 86 87  1  0
 88 86  1  0
M  ISO  4  10 100  18 100  48 101  49 101
M  END
>  <TORSDO>  (23) 
F 18

>  <SCORE>  (23) 
-16.692

>  <name>  (23) 
22

>  <ligand_id>  (23) 
22

>  <original_smiles>  (23) 
[H]c1c([H])c([H])c2c(c1[H])C([H])([H])C([H])([H])C([H])([H])C2([H])N([H])C(=O)C1([H])N(C(=O)C([H])(N([H])C(=O)C([H])(N([H])C([H])([H])[H])C([H])([H])[H])C(C([H])([H])[H])(C([H])([H])[H])C([H])([H])[H])C([H])([H])c2c([H])c(OC([H])([H])n3c([H])c(C([H])(N([H])C(=O)N4C([H])([H])C([H])([H])C([H])([H])C([H])(n5nc(-c6c([H])c([H])c(Oc7c([H])c([H])c(F)c([H])c7F)c([H])c6[H])c(C(=O)N([H])[H])c5N([H])[H])C4([H])[H])C([H])([H])[H])[n+]([H])c3C([H])([H])[H])c([H])c([H])c2C1([H])[H]

>  <smiles>  (23) 
[H]c1c([H])c([H])c2c(c1[H])C([H])([H])C([H])([H])C([H])([H])C2([H])N([H])C(=O)C1([H])N(C(=O)C([H])(N([H])C(=O)C([H])(N([H])C([H])([H])[H])C([H])([H])[H])C(C([H])([H])[H])(C([H])([H])[H])C([H])([H])[H])C([H])([H])c2c([H])c(OC([H])([H])n3c([H])c(C([H])(N([H])C(=O)N4C([H])([H])C([H])([H])C([H])([H])C([H])(n5nc(-c6c([H])c([H])c(Oc7c([H])c([H])c(F)c([H])c7F)c([H])c6[H])c(C(=O)N([H])[H])c5N([H])[H])C4([H])[H])C([H])([H])[H])[n+]([H])c3C([H])([H])[H])c([H])c([H])c2C1([H])[H]

$$$$
23:0:0
     RDKit          3D

 92100  0  0  1  0  0  0  0  0999 V2000
  -30.9680  -19.8210   19.2270 C   0  0  0  0  0  3  0  0  0  0  0  0
  -30.2900  -21.0650   19.1140 C   0  0  0  0  0  3  0  0  0  0  0  0
  -28.9380  -18.6260   18.7480 C   0  0  0  0  0  3  0  0  0  0  0  0
  -30.3180  -18.5720   19.0370 C   0  0  0  0  0  0  0  0  0  0  0  0
  -28.9100  -21.1270   18.8070 C   0  0  0  0  0  0  0  0  0  0  0  0
  -28.2400  -19.8680   18.6410 C   0  0  0  0  0  0  0  0  0  0  0  0
  -25.9240  -19.5480   19.6190 C   0  0  0  0  0  1  0  0  0  0  0  0
  -26.7460  -19.7810   18.3470 C   0  0  0  0  0  2  0  0  0  0  0  0
  -31.4890  -16.8870   17.5890 C   0  0  0  0  0  1  0  0  0  0  0  0
  -31.1770  -17.2650   19.0520 C   0  0  0  0  0  3  0  0  0  0  0  0
  -31.4220  -14.8410   19.7130 C   0  0  0  0  0  0  0  0  0  0  0  0
  -30.9940  -12.5910   18.7960 C   0  0  0  0  0  2  0  0  0  0  0  0
  -29.9930  -12.7250   17.6290 C   0  0  0  0  0  2  0  0  0  0  0  0
  -28.5460  -12.6490   18.1520 C   0  0  0  0  0  2  0  0  0  0  0  0
  -28.2980  -13.5800   19.3690 C   0  0  0  0  0  3  0  0  0  0  0  0
  -29.4180  -13.4600   20.4260 C   0  0  0  0  0  2  0  0  0  0  0  0
  -30.7000  -13.6810   19.7470 N   0  0  0  0  0  0  0  0  0  0  0  0
  -32.5970  -14.8430   19.3410 O   0  0  0  0  0  0  0  0  0  0  0  0
  -30.7320  -16.0220   19.7750 N   0  0  0  0  0  0  0  0  0  0  0  0
  -29.7690  -15.9770   20.0690 H   0  0  0  0  0  0  0  0  0  0  0  0
  -26.0240  -14.3010   20.3190 C   0  0  0  0  0  0  0  0  0  0  0  0
  -24.9320  -13.5860   20.7300 C   0  0  0  0  0  0  0  0  0  0  0  0
  -25.2850  -12.2080   20.5840 C   0  0  0  0  0  0  0  0  0  0  0  0
  -26.9750  -13.3650   19.9490 N   0  0  0  0  0  0  0  0  0  0  0  0
  -26.5420  -12.0970   20.1700 N   0  0  0  0  0  0  0  0  0  0  0  0
  -24.4800  -10.9930   20.7570 C   0  0  0  0  0  0  0  0  0  0  0  0
  -24.8810   -9.9580   21.6320 C   0  0  0  0  0  3  0  0  0  0  0  0
  -24.0800   -8.8090   21.7960 C   0  0  0  0  0  3  0  0  0  0  0  0
  -22.8630   -8.6840   21.0850 C   0  0  0  0  0  0  0  0  0  0  0  0
  -22.4780   -9.7050   20.2000 C   0  0  0  0  0  3  0  0  0  0  0  0
  -23.2790  -10.8480   20.0320 C   0  0  0  0  0  3  0  0  0  0  0  0
  -22.0320   -7.5920   21.1630 O   0  0  0  0  0  0  0  0  0  0  0  0
  -21.9370   -6.8390   22.3070 C   0  0  0  0  0  0  0  0  0  0  0  0
  -21.5390   -7.4040   23.5380 C   0  0  0  0  0  3  0  0  0  0  0  0
  -21.3870   -6.5810   24.6720 C   0  0  0  0  0  3  0  0  0  0  0  0
  -21.6220   -5.1970   24.5760 C   0  0  0  0  0  0  0  0  0  0  0  0
  -22.0140   -4.6320   23.3500 C   0  0  0  0  0  3  0  0  0  0  0  0
  -22.1680   -5.4520   22.2170 C   0  0  0  0  0  0  0  0  0  0  0  0
  -22.5240   -4.8990   21.0320 F   0  0  0  0  0  0  0  0  0  0  0  0
  -21.4690   -4.4050   25.6630 F   0  0  0  0  0  0  0  0  0  0  0  0
  -23.6000  -14.1440   21.1380 C   0  0  0  0  0  0  0  0  0  0  0  0
  -22.8940  -13.4550   22.0270 N   0  0  0  0  0  0  0  0  0  0  0  0
  -23.2000  -15.2240   20.7050 O   0  0  0  0  0  0  0  0  0  0  0  0
  -23.2320  -12.5800   22.3990 H   0  0  0  0  0  0  0  0  0  0  0  0
  -22.0010  -13.8090   22.3420 H   0  0  0  0  0  0  0  0  0  0  0  0
  -26.2800  -15.6650   20.2050 N   0  0  0  0  0  0  0  0  0  0  0  0
  -25.5720  -16.3640   20.4050 H   0  0  0  0  0  0  0  0  0  0  0  0
  -27.1170  -16.0590   19.7950 H   0  0  0  0  0  0  0  0  0  0  0  0
  -28.1450  -22.4910   18.6830 C   0  0  0  0  0  2  0  0  0  0  0  0
  -28.8720  -23.8730   18.4120 C   0  0  0  0  0  2  0  0  0  0  0  0
  -28.0660  -25.1110   18.9820 C   0  0  0  0  0  2  0  0  0  0  0  0
  -28.1660  -26.4430   18.3580 O   0  0  0  0  0  0  0  0  0  0  0  0
  -24.5560  -31.0140   22.5790 C   0  0  0  0  0  0  0  0  0  0  0  0
  -27.0490  -27.2590   18.5410 C   0  0  0  0  0  0  0  0  0  0  0  0
  -23.2750  -29.9280   20.7690 C   0  0  0  0  0  3  0  0  0  0  0  0
  -24.6600  -28.7420   18.9790 C   0  0  0  0  0  0  0  0  0  0  0  0
  -25.7870  -30.3670   20.5020 C   0  0  0  0  0  2  0  0  0  0  0  0
  -25.8520  -29.1500   19.5930 C   0  0  0  0  0  0  0  0  0  0  0  0
  -27.0540  -28.4190   19.3680 C   0  0  0  0  0  3  0  0  0  0  0  0
  -25.8410  -26.9090   17.9010 C   0  0  0  0  0  3  0  0  0  0  0  0
  -24.6530  -27.6280   18.1250 C   0  0  0  0  0  3  0  0  0  0  0  0
  -23.4100  -29.5460   19.2710 C   0  0  0  0  0  2  0  0  0  0  0  0
  -24.5620  -30.4420   21.3410 N   0  0  0  0  0  0  0  0  0  0  0  0
  -23.5050  -31.1470   23.2220 O   0  0  0  0  0  0  0  0  0  0  0  0
  -22.6970  -28.7200   21.5440 C   0  0  0  0  0  0  0  0  0  0  0  0
  -21.3670  -28.5410   21.4750 N   0  0  0  0  0  0  0  0  0  0  0  0
  -23.4400  -27.9580   22.1680 O   0  0  0  0  0  0  0  0  0  0  0  0
  -20.8260  -29.2140   20.9500 H   0  0  0  0  0  0  0  0  0  0  0  0
  -18.0360  -27.2450   22.0320 C   0  0  0  0  0  0  0  0  0  0  0  0
  -20.6120  -27.4500   22.0940 C   0  0  0  0  0  3  0  0  0  0  0  0
  -20.6320  -26.1860   21.2040 C   0  0  0  0  0  2  0  0  0  0  0  0
  -19.4300  -26.0930   20.2600 C   0  0  0  0  0  2  0  0  0  0  0  0
  -18.1220  -26.0820   21.0560 C   0  0  0  0  0  2  0  0  0  0  0  0
  -19.2050  -27.8970   22.5060 C   0  0  0  0  0  0  0  0  0  0  0  0
  -19.0700  -28.9940   23.3850 C   0  0  0  0  0  3  0  0  0  0  0  0
  -17.7980  -29.4380   23.7890 C   0  0  0  0  0  3  0  0  0  0  0  0
  -16.6440  -28.7800   23.3300 C   0  0  0  0  0  3  0  0  0  0  0  0
  -16.7640  -27.6830   22.4570 C   0  0  0  0  0  3  0  0  0  0  0  0
  -25.8670  -31.5490   23.2370 C   0  0  0  0  0  3  0  0  0  0  0  0
  -25.5480  -32.8370   23.8690 N   0  0  0  0  0  0  0  0  0  0  0  0
  -25.8080  -34.0350   23.3280 C   0  0  0  0  0  0  0  0  0  0  0  0
  -26.4130  -34.1700   22.2600 O   0  0  0  0  0  0  0  0  0  0  0  0
  -25.0030  -32.8010   24.7180 H   0  0  0  0  0  0  0  0  0  0  0  0
  -24.0240  -35.8040   23.4590 C   0  0  0  0  0  1  0  0  0  0  0  0
  -25.3230  -35.2810   24.0940 C   0  0  0  0  0  3  0  0  0  0  0  0
  -27.4830  -36.0470   24.9760 C   0  0  0  0  0  1  0  0  0  0  0  0
  -26.3250  -36.3680   24.1460 N   0  0  0  0  0  0  0  0  0  0  0  0
  -25.9080  -37.2240   24.4990 H   0  0  0  0  0  0  0  0  0  0  0  0
  -26.4860  -30.5510   24.2900 C   0  0  1  0  0  0  0  0  0  0  0  0
  -25.4740  -30.0600   25.3530 C   0  0  0  0  0  1  0  0  0  0  0  0
  -27.0680  -29.3030   23.5840 C   0  0  0  0  0  1  0  0  0  0  0  0
  -27.6630  -31.2320   25.0270 C   0  0  0  0  0  1  0  0  0  0  0  0
  2  1  1  0
  3  4  1  0
  4 10  1  0
  4  1  2  0
  5  2  2  0
  6  3  2  0
  6  5  1  0
  8  6  1  0
  8  7  1  0
 10  9  1  0
 10 19  1  0
 11 17  1  0
 11 19  1  0
 12 17  1  0
 13 14  1  0
 13 12  1  0
 15 14  1  0
 15 24  1  0
 15 16  1  0
 17 16  1  0
 18 11  2  0
 19 20  1  0
 21 22  2  0
 22 41  1  0
 23 22  1  0
 23 26  1  0
 24 25  1  0
 24 21  1  0
 25 23  2  0
 26 27  1  0
 27 28  2  0
 29 32  1  0
 29 28  1  0
 30 29  2  0
 31 30  1  0
 31 26  2  0
 32 33  1  0
 33 34  1  0
 34 35  2  0
 36 35  1  0
 36 40  1  0
 37 36  2  0
 38 33  2  0
 38 37  1  0
 39 38  1  0
 41 42  1  0
 42 45  1  0
 42 44  1  0
 43 41  2  0
 46 21  1  0
 46 47  1  0
 48 46  1  0
 49  5  1  0
 50 49  1  0
 50 51  1  0
 52 54  1  0
 52 51  1  0
 53 64  2  0
 54 59  1  0
 55 63  1  0
 55 65  1  0
 56 62  1  0
 56 58  1  0
 57 63  1  0
 58 57  1  0
 59 58  2  0
 60 61  1  0
 60 54  2  0
 61 56  2  0
 62 55  1  0
 63 53  1  0
 65 67  2  0
 66 65  1  0
 68 66  1  0
 69 78  2  0
 69 74  1  0
 70 66  1  0
 70 74  1  0
 71 70  1  0
 72 73  1  0
 72 71  1  0
 73 69  1  0
 74 75  2  0
 75 76  1  0
 77 76  2  0
 78 77  1  0
 79 53  1  0
 79 80  1  0
 79 89  1  0
 80 83  1  0
 81 80  1  0
 81 85  1  0
 82 81  2  0
 85 84  1  0
 85 87  1  0
 87 88  1  0
 87 86  1  0
 89 92  1  1
 89 90  1  0
 91 89  1  0
M  ISO  4  11 100  19 100  51 101  52 101
M  END
>  <TORSDO>  (24) 
F 21

>  <SCORE>  (24) 
-9.122

>  <name>  (24) 
23

>  <ligand_id>  (24) 
23

>  <original_smiles>  (24) 
[H]c1c([H])c([H])c2c(c1[H])C([H])([H])C([H])([H])C([H])([H])C2([H])N([H])C(=O)C1([H])N(C(=O)C([H])(N([H])C(=O)C([H])(N([H])C([H])([H])[H])C([H])([H])[H])C(C([H])([H])[H])(C([H])([H])[H])C([H])([H])[H])C([H])([H])c2c([H])c(OC([H])([H])C([H])([H])C([H])([H])c3c([H])c([H])c(C([H])(N([H])C(=O)N4C([H])([H])C([H])([H])C([H])([H])C([H])(n5nc(-c6c([H])c([H])c(Oc7c([H])c([H])c(F)c([H])c7F)c([H])c6[H])c(C(=O)N([H])[H])c5N([H])[H])C4([H])[H])C([H])([H])[H])c([H])c3C([H])([H])C([H])([H])[H])c([H])c([H])c2C1([H])[H]

>  <smiles>  (24) 
[H]c1c([H])c([H])c2c(c1[H])C([H])([H])C([H])([H])C([H])([H])C2([H])N([H])C(=O)C1([H])N(C(=O)C([H])(N([H])C(=O)C([H])(N([H])C([H])([H])[H])C([H])([H])[H])C(C([H])([H])[H])(C([H])([H])[H])C([H])([H])[H])C([H])([H])c2c([H])c(OC([H])([H])C([H])([H])C([H])([H])c3c([H])c([H])c(C([H])(N([H])C(=O)N4C([H])([H])C([H])([H])C([H])([H])C([H])(n5nc(-c6c([H])c([H])c(Oc7c([H])c([H])c(F)c([H])c7F)c([H])c6[H])c(C(=O)N([H])[H])c5N([H])[H])C4([H])[H])C([H])([H])[H])c([H])c3C([H])([H])C([H])([H])[H])c([H])c([H])c2C1([H])[H]

$$$$
24:0:0
     RDKit          3D

 93101  0  0  1  0  0  0  0  0999 V2000
  -29.7830  -21.8630   20.5690 C   0  0  0  0  0  3  0  0  0  0  0  0
  -29.9830  -20.7280   19.8200 C   0  0  0  0  0  0  0  0  0  0  0  0
  -29.7390  -21.1120   18.4610 C   0  0  0  0  0  0  0  0  0  0  0  0
  -29.4480  -22.4560   18.4410 C   0  0  0  0  0  0  0  0  0  0  0  0
  -29.1810  -23.3340   17.2560 C   0  0  0  0  0  1  0  0  0  0  0  0
  -29.5180  -22.9510   19.7420 N   0  0  0  0  0  0  0  0  0  0  0  0
  -31.2570  -20.3490   16.5830 C   0  0  0  0  0  1  0  0  0  0  0  0
  -29.8730  -20.2370   17.2340 C   0  0  0  0  0  2  0  0  0  0  0  0
  -30.5630  -19.3890   20.3150 C   0  0  0  0  0  2  0  0  0  0  0  0
  -28.6140  -17.7950   19.6240 C   0  0  0  0  0  1  0  0  0  0  0  0
  -29.6550  -18.1640   20.6900 C   0  0  0  0  0  3  0  0  0  0  0  0
  -30.5720  -16.9490   21.0770 C   0  0  0  0  0  2  0  0  0  0  0  0
  -30.6640  -14.5110   20.4900 C   0  0  0  0  0  0  0  0  0  0  0  0
  -30.3370  -12.3540   19.3400 C   0  0  0  0  0  2  0  0  0  0  0  0
  -29.4060  -12.5620   18.1290 C   0  0  0  0  0  2  0  0  0  0  0  0
  -27.9300  -12.4340   18.5510 C   0  0  0  0  0  2  0  0  0  0  0  0
  -27.5920  -13.2730   19.8150 C   0  0  0  0  0  3  0  0  0  0  0  0
  -28.6410  -13.0610   20.9280 C   0  0  0  0  0  2  0  0  0  0  0  0
  -29.9650  -13.3510   20.3590 N   0  0  0  0  0  0  0  0  0  0  0  0
  -31.8100  -14.6350   20.0500 O   0  0  0  0  0  0  0  0  0  0  0  0
  -29.9990  -15.5830   20.9820 N   0  0  0  0  0  0  0  0  0  0  0  0
  -29.0530  -15.4390   21.3000 H   0  0  0  0  0  0  0  0  0  0  0  0
  -25.1900  -13.8820   20.5030 C   0  0  0  0  0  0  0  0  0  0  0  0
  -24.1190  -13.1120   20.8680 C   0  0  0  0  0  0  0  0  0  0  0  0
  -24.5810  -11.7600   20.8510 C   0  0  0  0  0  0  0  0  0  0  0  0
  -26.2370  -13.0000   20.2870 N   0  0  0  0  0  0  0  0  0  0  0  0
  -25.8740  -11.7190   20.5550 N   0  0  0  0  0  0  0  0  0  0  0  0
  -23.8530  -10.4990   21.0420 C   0  0  0  0  0  0  0  0  0  0  0  0
  -24.2850   -9.5300   21.9750 C   0  0  0  0  0  3  0  0  0  0  0  0
  -23.5560   -8.3340   22.1550 C   0  0  0  0  0  3  0  0  0  0  0  0
  -22.3810   -8.1000   21.4020 C   0  0  0  0  0  0  0  0  0  0  0  0
  -21.9690   -9.0560   20.4580 C   0  0  0  0  0  3  0  0  0  0  0  0
  -22.6970  -10.2440   20.2770 C   0  0  0  0  0  3  0  0  0  0  0  0
  -21.6250   -6.9560   21.4920 O   0  0  0  0  0  0  0  0  0  0  0  0
  -21.5850   -6.2060   22.6400 C   0  0  0  0  0  0  0  0  0  0  0  0
  -21.1730   -6.7560   23.8740 C   0  0  0  0  0  3  0  0  0  0  0  0
  -21.0810   -5.9330   25.0140 C   0  0  0  0  0  3  0  0  0  0  0  0
  -21.3900   -4.5620   24.9210 C   0  0  0  0  0  0  0  0  0  0  0  0
  -21.7950   -4.0140   23.6930 C   0  0  0  0  0  3  0  0  0  0  0  0
  -21.8890   -4.8330   22.5540 C   0  0  0  0  0  0  0  0  0  0  0  0
  -22.2600   -4.2950   21.3680 F   0  0  0  0  0  0  0  0  0  0  0  0
  -21.2940   -3.7700   26.0150 F   0  0  0  0  0  0  0  0  0  0  0  0
  -22.7200  -13.5920   21.1260 C   0  0  0  0  0  0  0  0  0  0  0  0
  -21.9860  -12.9020   21.9910 N   0  0  0  0  0  0  0  0  0  0  0  0
  -22.2860  -14.6120   20.5930 O   0  0  0  0  0  0  0  0  0  0  0  0
  -22.3500  -12.0760   22.4430 H   0  0  0  0  0  0  0  0  0  0  0  0
  -21.0460  -13.2040   22.2080 H   0  0  0  0  0  0  0  0  0  0  0  0
  -25.3550  -15.2500   20.3160 N   0  0  0  0  0  0  0  0  0  0  0  0
  -24.5850  -15.9020   20.4110 H   0  0  0  0  0  0  0  0  0  0  0  0
  -26.2000  -15.6870   19.9740 H   0  0  0  0  0  0  0  0  0  0  0  0
  -29.4950  -24.3730   20.1790 C   0  0  0  0  0  2  0  0  0  0  0  0
  -28.2210  -25.2070   19.8570 C   0  0  0  0  0  2  0  0  0  0  0  0
  -28.3470  -26.6180   20.1780 O   0  0  0  0  0  0  0  0  0  0  0  0
  -24.5820  -31.8810   23.2380 C   0  0  0  0  0  0  0  0  0  0  0  0
  -27.1910  -27.3900   20.1510 C   0  0  0  0  0  0  0  0  0  0  0  0
  -23.3680  -30.4820   21.6040 C   0  0  0  0  0  3  0  0  0  0  0  0
  -24.8110  -28.9460   20.1720 C   0  0  0  0  0  0  0  0  0  0  0  0
  -25.9010  -30.8230   21.4030 C   0  0  0  0  0  2  0  0  0  0  0  0
  -25.9800  -29.4500   20.7560 C   0  0  0  0  0  0  0  0  0  0  0  0
  -27.1730  -28.6820   20.7400 C   0  0  0  0  0  3  0  0  0  0  0  0
  -25.9970  -26.9160   19.5570 C   0  0  0  0  0  3  0  0  0  0  0  0
  -24.8180  -27.6790   19.5690 C   0  0  0  0  0  3  0  0  0  0  0  0
  -23.5730  -29.8100   20.2230 C   0  0  0  0  0  2  0  0  0  0  0  0
  -24.6360  -31.0760   22.1380 N   0  0  0  0  0  0  0  0  0  0  0  0
  -23.5020  -32.1570   23.7770 O   0  0  0  0  0  0  0  0  0  0  0  0
  -22.7190  -29.4600   22.5650 C   0  0  0  0  0  0  0  0  0  0  0  0
  -21.3950  -29.2780   22.4410 N   0  0  0  0  0  0  0  0  0  0  0  0
  -23.4040  -28.8350   23.3790 O   0  0  0  0  0  0  0  0  0  0  0  0
  -20.9030  -29.8330   21.7550 H   0  0  0  0  0  0  0  0  0  0  0  0
  -18.0210  -28.0850   22.9430 C   0  0  0  0  0  0  0  0  0  0  0  0
  -20.5780  -28.3410   23.2120 C   0  0  0  0  0  3  0  0  0  0  0  0
  -20.6810  -26.9090   22.6380 C   0  0  0  0  0  2  0  0  0  0  0  0
  -19.5770  -26.5850   21.6270 C   0  0  0  0  0  2  0  0  0  0  0  0
  -18.1950  -26.7330   22.2710 C   0  0  0  0  0  2  0  0  0  0  0  0
  -19.1390  -28.8460   23.3700 C   0  0  0  0  0  0  0  0  0  0  0  0
  -18.9230  -30.1120   23.9580 C   0  0  0  0  0  3  0  0  0  0  0  0
  -17.6190  -30.6140   24.1250 C   0  0  0  0  0  3  0  0  0  0  0  0
  -16.5140  -29.8490   23.7150 C   0  0  0  0  0  3  0  0  0  0  0  0
  -16.7150  -28.5860   23.1290 C   0  0  0  0  0  3  0  0  0  0  0  0
  -25.8710  -32.5110   23.8520 C   0  0  0  0  0  3  0  0  0  0  0  0
  -25.5610  -33.9080   24.1870 N   0  0  0  0  0  0  0  0  0  0  0  0
  -25.8800  -34.9610   23.4240 C   0  0  0  0  0  0  0  0  0  0  0  0
  -26.5340  -34.8610   22.3830 O   0  0  0  0  0  0  0  0  0  0  0  0
  -24.9820  -34.0620   24.9990 H   0  0  0  0  0  0  0  0  0  0  0  0
  -24.1360  -36.7440   23.1010 C   0  0  0  0  0  1  0  0  0  0  0  0
  -25.3940  -36.3470   23.8900 C   0  0  0  0  0  3  0  0  0  0  0  0
  -27.5380  -37.2430   24.6820 C   0  0  0  0  0  1  0  0  0  0  0  0
  -26.4190  -37.4040   23.7580 N   0  0  0  0  0  0  0  0  0  0  0  0
  -26.0110  -38.3220   23.9150 H   0  0  0  0  0  0  0  0  0  0  0  0
  -26.3980  -31.7350   25.1220 C   0  0  1  0  0  0  0  0  0  0  0  0
  -25.3110  -31.4910   26.1950 C   0  0  0  0  0  1  0  0  0  0  0  0
  -26.9810  -30.3600   24.7200 C   0  0  0  0  0  1  0  0  0  0  0  0
  -27.5520  -32.5290   25.7790 C   0  0  0  0  0  1  0  0  0  0  0  0
  2  9  1  0
  2  1  2  0
  3  2  1  0
  4  3  2  0
  4  6  1  0
  5  4  1  0
  6 51  1  0
  6  1  1  0
  7  8  1  0
  8  3  1  0
  9 11  1  0
 11 10  1  0
 11 12  1  0
 13 21  1  0
 14 19  1  0
 15 16  1  0
 15 14  1  0
 17 16  1  0
 17 26  1  0
 17 18  1  0
 19 13  1  0
 19 18  1  0
 20 13  2  0
 21 12  1  0
 21 22  1  0
 23 24  2  0
 24 43  1  0
 25 24  1  0
 25 28  1  0
 26 23  1  0
 26 27  1  0
 27 25  2  0
 28 29  1  0
 29 30  2  0
 31 34  1  0
 31 30  1  0
 32 31  2  0
 33 32  1  0
 33 28  2  0
 34 35  1  0
 35 36  1  0
 36 37  2  0
 38 37  1  0
 38 42  1  0
 39 38  2  0
 40 35  2  0
 40 39  1  0
 41 40  1  0
 43 44  1  0
 44 47  1  0
 44 46  1  0
 45 43  2  0
 48 49  1  0
 48 23  1  0
 50 48  1  0
 52 53  1  0
 52 51  1  0
 54 65  2  0
 55 53  1  0
 55 60  1  0
 56 64  1  0
 56 66  1  0
 57 63  1  0
 57 59  1  0
 58 64  1  0
 59 58  1  0
 60 59  2  0
 61 62  1  0
 61 55  2  0
 62 57  2  0
 63 56  1  0
 64 54  1  0
 66 68  2  0
 67 66  1  0
 69 67  1  0
 70 79  2  0
 70 75  1  0
 71 67  1  0
 71 75  1  0
 72 71  1  0
 73 74  1  0
 73 72  1  0
 74 70  1  0
 75 76  2  0
 76 77  1  0
 78 77  2  0
 79 78  1  0
 80 54  1  0
 80 81  1  0
 80 90  1  0
 81 84  1  0
 82 86  1  0
 82 81  1  0
 83 82  2  0
 86 85  1  0
 88 86  1  0
 88 89  1  0
 88 87  1  0
 90 93  1  1
 90 91  1  0
 92 90  1  0
M  ISO  4  13 100  21 100  52 101  53 101
M  END
>  <TORSDO>  (25) 
F 22

>  <SCORE>  (25) 
-13.268

>  <name>  (25) 
24

>  <ligand_id>  (25) 
24

>  <original_smiles>  (25) 
[H]c1c([H])c([H])c2c(c1[H])C([H])([H])C([H])([H])C([H])([H])C2([H])N([H])C(=O)C1([H])N(C(=O)C([H])(N([H])C(=O)C([H])(N([H])C([H])([H])[H])C([H])([H])[H])C(C([H])([H])[H])(C([H])([H])[H])C([H])([H])[H])C([H])([H])c2c([H])c(OC([H])([H])C([H])([H])n3c([H])c(C([H])([H])C([H])(C([H])([H])[H])C([H])([H])N([H])C(=O)N4C([H])([H])C([H])([H])C([H])([H])C([H])(n5nc(-c6c([H])c([H])c(Oc7c([H])c([H])c(F)c([H])c7F)c([H])c6[H])c(C(=O)N([H])[H])c5N([H])[H])C4([H])[H])c(C([H])([H])C([H])([H])[H])c3C([H])([H])[H])c([H])c([H])c2C1([H])[H]

>  <smiles>  (25) 
[H]c1c([H])c([H])c2c(c1[H])C([H])([H])C([H])([H])C([H])([H])C2([H])N([H])C(=O)C1([H])N(C(=O)C([H])(N([H])C(=O)C([H])(N([H])C([H])([H])[H])C([H])([H])[H])C(C([H])([H])[H])(C([H])([H])[H])C([H])([H])[H])C([H])([H])c2c([H])c(OC([H])([H])C([H])([H])n3c([H])c(C([H])([H])C([H])(C([H])([H])[H])C([H])([H])N([H])C(=O)N4C([H])([H])C([H])([H])C([H])([H])C([H])(n5nc(-c6c([H])c([H])c(Oc7c([H])c([H])c(F)c([H])c7F)c([H])c6[H])c(C(=O)N([H])[H])c5N([H])[H])C4([H])[H])c(C([H])([H])C([H])([H])[H])c3C([H])([H])[H])c([H])c([H])c2C1([H])[H]

$$$$
25:0:0
     RDKit          3D

 97105  0  0  1  0  0  0  0  0999 V2000
  -31.4000  -21.4810   19.0700 C   0  0  0  0  0  2  0  0  0  0  0  0
  -33.2720  -22.5160   20.5300 C   0  0  0  0  0  1  0  0  0  0  0  0
  -31.8060  -22.6500   20.0550 C   0  0  0  0  0  3  0  0  0  0  0  0
  -31.6210  -24.1280   19.5520 C   0  0  0  0  0  2  0  0  0  0  0  0
  -29.0460  -24.0810   19.6050 C   0  0  0  0  0  1  0  0  0  0  0  0
  -30.2900  -24.1150   17.4270 C   0  0  0  0  0  1  0  0  0  0  0  0
  -30.2960  -24.6170   18.8840 C   0  0  2  0  0  0  0  0  0  0  0  0
  -30.2640  -26.1910   18.8310 C   0  0  0  0  0  2  0  0  0  0  0  0
  -29.8470  -26.8860   20.0290 O   0  0  0  0  0  0  0  0  0  0  0  0
  -25.5820  -31.3450   23.6470 C   0  0  0  0  0  0  0  0  0  0  0  0
  -28.6140  -27.5210   20.0770 C   0  0  0  0  0  0  0  0  0  0  0  0
  -24.5190  -30.0920   21.8010 C   0  0  0  0  0  3  0  0  0  0  0  0
  -26.1090  -28.8510   20.2410 C   0  0  0  0  0  0  0  0  0  0  0  0
  -27.0240  -30.6220   21.7470 C   0  0  0  0  0  2  0  0  0  0  0  0
  -27.2150  -29.3570   20.9360 C   0  0  0  0  0  0  0  0  0  0  0  0
  -28.4620  -28.6940   20.8610 C   0  0  0  0  0  3  0  0  0  0  0  0
  -27.4800  -27.0360   19.3860 C   0  0  0  0  0  3  0  0  0  0  0  0
  -26.2380  -27.6880   19.4670 C   0  0  0  0  0  3  0  0  0  0  0  0
  -24.8110  -29.6160   20.3540 C   0  0  0  0  0  2  0  0  0  0  0  0
  -25.7230  -30.6990   22.4550 N   0  0  0  0  0  0  0  0  0  0  0  0
  -24.4700  -31.4710   24.1780 O   0  0  0  0  0  0  0  0  0  0  0  0
  -23.9220  -28.9130   22.6020 C   0  0  0  0  0  0  0  0  0  0  0  0
  -22.6470  -28.5860   22.3290 N   0  0  0  0  0  0  0  0  0  0  0  0
  -24.6050  -28.2990   23.4270 O   0  0  0  0  0  0  0  0  0  0  0  0
  -22.1530  -29.1430   21.6470 H   0  0  0  0  0  0  0  0  0  0  0  0
  -19.4460  -26.9130   22.3330 C   0  0  0  0  0  0  0  0  0  0  0  0
  -21.8930  -27.4890   22.9340 C   0  0  0  0  0  3  0  0  0  0  0  0
  -22.2610  -26.1330   22.2870 C   0  0  0  0  0  2  0  0  0  0  0  0
  -21.3400  -25.7470   21.1290 C   0  0  0  0  0  2  0  0  0  0  0  0
  -19.8880  -25.6550   21.6040 C   0  0  0  0  0  2  0  0  0  0  0  0
  -20.3870  -27.7810   22.9450 C   0  0  0  0  0  0  0  0  0  0  0  0
  -19.9240  -28.9560   23.5770 C   0  0  0  0  0  3  0  0  0  0  0  0
  -18.5500  -29.2600   23.6150 C   0  0  0  0  0  3  0  0  0  0  0  0
  -17.6220  -28.3890   23.0210 C   0  0  0  0  0  3  0  0  0  0  0  0
  -18.0690  -27.2190   22.3800 C   0  0  0  0  0  3  0  0  0  0  0  0
  -26.8050  -31.9770   24.3820 C   0  0  0  0  0  3  0  0  0  0  0  0
  -26.4370  -33.3480   24.7580 N   0  0  0  0  0  0  0  0  0  0  0  0
  -26.8000  -34.4470   24.0850 C   0  0  0  0  0  0  0  0  0  0  0  0
  -27.5500  -34.4180   23.1070 O   0  0  0  0  0  0  0  0  0  0  0  0
  -25.7870  -33.4440   25.5240 H   0  0  0  0  0  0  0  0  0  0  0  0
  -25.0600  -36.2130   23.6850 C   0  0  0  0  0  1  0  0  0  0  0  0
  -26.2390  -35.7960   24.5760 C   0  0  0  0  0  3  0  0  0  0  0  0
  -28.2690  -36.6750   25.6410 C   0  0  0  0  0  1  0  0  0  0  0  0
  -27.2500  -36.8750   24.6150 N   0  0  0  0  0  0  0  0  0  0  0  0
  -26.8070  -37.7770   24.7760 H   0  0  0  0  0  0  0  0  0  0  0  0
  -27.2620  -31.1580   25.6510 C   0  0  1  0  0  0  0  0  0  0  0  0
  -26.1070  -30.8190   26.6240 C   0  0  0  0  0  1  0  0  0  0  0  0
  -27.9320  -29.8310   25.2300 C   0  0  0  0  0  1  0  0  0  0  0  0
  -28.3230  -31.9640   26.4350 C   0  0  0  0  0  1  0  0  0  0  0  0
  -32.0920  -20.0710   19.2200 C   0  0  0  0  0  2  0  0  0  0  0  0
  -32.2450  -14.5100   19.2360 C   0  0  0  0  0  0  0  0  0  0  0  0
  -31.7660  -12.2710   18.2760 C   0  0  0  0  0  2  0  0  0  0  0  0
  -30.5440  -12.3280   17.3350 C   0  0  0  0  0  2  0  0  0  0  0  0
  -29.2200  -12.2060   18.1190 C   0  0  0  0  0  2  0  0  0  0  0  0
  -29.1660  -13.1690   19.3330 C   0  0  0  0  0  3  0  0  0  0  0  0
  -30.4510  -13.0160   20.1740 C   0  0  0  0  0  2  0  0  0  0  0  0
  -31.6140  -13.3070   19.3080 N   0  0  0  0  0  0  0  0  0  0  0  0
  -33.0520  -14.7960   18.3400 O   0  0  0  0  0  0  0  0  0  0  0  0
  -30.6100  -16.7400   21.4910 C   0  0  0  0  0  3  0  0  0  0  0  0
  -30.0900  -17.9940   21.8350 C   0  0  0  0  0  0  0  0  0  0  0  0
  -30.5110  -19.1230   21.0920 C   0  0  0  0  0  0  0  0  0  0  0  0
  -31.4130  -18.9230   20.0060 C   0  0  0  0  0  0  0  0  0  0  0  0
  -31.5150  -16.6010   20.4260 C   0  0  0  0  0  0  0  0  0  0  0  0
  -29.1210  -18.0760   23.0100 C   0  0  0  0  0  1  0  0  0  0  0  0
  -31.8840  -17.6810   19.6900 N   0  0  0  0  0  0  0  0  0  0  0  0
  -32.0180  -15.2780   20.3150 N   0  0  0  0  0  0  0  0  0  0  0  0
  -31.6600  -14.7040   21.0600 H   0  0  0  0  0  0  0  0  0  0  0  0
  -27.2500  -13.8450   20.9190 C   0  0  0  0  0  0  0  0  0  0  0  0
  -26.1790  -13.1450   21.4090 C   0  0  0  0  0  0  0  0  0  0  0  0
  -26.3000  -11.8220   20.8850 C   0  0  0  0  0  0  0  0  0  0  0  0
  -27.9660  -12.9470   20.1410 N   0  0  0  0  0  0  0  0  0  0  0  0
  -27.4100  -11.7100   20.1680 N   0  0  0  0  0  0  0  0  0  0  0  0
  -25.3910  -10.6710   20.9780 C   0  0  0  0  0  0  0  0  0  0  0  0
  -25.7360   -9.5150   21.7130 C   0  0  0  0  0  3  0  0  0  0  0  0
  -24.8390   -8.4290   21.8010 C   0  0  0  0  0  3  0  0  0  0  0  0
  -23.5820   -8.4930   21.1560 C   0  0  0  0  0  0  0  0  0  0  0  0
  -23.2540   -9.6350   20.4030 C   0  0  0  0  0  3  0  0  0  0  0  0
  -24.1500  -10.7130   20.3100 C   0  0  0  0  0  3  0  0  0  0  0  0
  -22.6550   -7.4780   21.1660 O   0  0  0  0  0  0  0  0  0  0  0  0
  -22.3600   -6.7850   22.3130 C   0  0  0  0  0  0  0  0  0  0  0  0
  -21.9210   -7.4370   23.4850 C   0  0  0  0  0  3  0  0  0  0  0  0
  -21.5660   -6.6800   24.6190 C   0  0  0  0  0  3  0  0  0  0  0  0
  -21.6370   -5.2750   24.5790 C   0  0  0  0  0  0  0  0  0  0  0  0
  -22.0660   -4.6240   23.4100 C   0  0  0  0  0  3  0  0  0  0  0  0
  -22.4270   -5.3780   22.2790 C   0  0  0  0  0  0  0  0  0  0  0  0
  -22.8230   -4.7450   21.1490 F   0  0  0  0  0  0  0  0  0  0  0  0
  -21.2850   -4.5470   25.6650 F   0  0  0  0  0  0  0  0  0  0  0  0
  -25.0560  -13.6950   22.2390 C   0  0  0  0  0  0  0  0  0  0  0  0
  -24.4430  -12.8600   23.0720 N   0  0  0  0  0  0  0  0  0  0  0  0
  -24.7450  -14.8850   22.1860 O   0  0  0  0  0  0  0  0  0  0  0  0
  -24.7120  -11.8880   23.1280 H   0  0  0  0  0  0  0  0  0  0  0  0
  -23.6950  -13.1980   23.6600 H   0  0  0  0  0  0  0  0  0  0  0  0
  -27.6700  -15.1640   21.0510 N   0  0  0  0  0  0  0  0  0  0  0  0
  -27.1640  -15.8500   21.5990 H   0  0  0  0  0  0  0  0  0  0  0  0
  -28.4960  -15.5410   20.6080 H   0  0  0  0  0  0  0  0  0  0  0  0
  -29.2440  -21.2420   20.4330 C   0  0  0  0  0  1  0  0  0  0  0  0
  -30.0380  -20.5050   21.5230 C   0  0  0  0  0  2  0  0  0  0  0  0
  1 50  1  0
  1  3  1  0
  3  2  1  0
  4  3  1  0
  7  6  1  6
  7  4  1  0
  7  5  1  0
  8  7  1  0
  8  9  1  0
  9 11  1  0
 10 21  2  0
 11 16  1  0
 12 20  1  0
 12 22  1  0
 13 19  1  0
 13 15  1  0
 14 20  1  0
 15 14  1  0
 16 15  2  0
 17 18  1  0
 17 11  2  0
 18 13  2  0
 19 12  1  0
 20 10  1  0
 22 24  2  0
 23 22  1  0
 25 23  1  0
 26 35  2  0
 26 31  1  0
 27 23  1  0
 27 31  1  0
 28 27  1  0
 29 30  1  0
 29 28  1  0
 30 26  1  0
 31 32  2  0
 32 33  1  0
 34 33  2  0
 35 34  1  0
 36 10  1  0
 36 37  1  0
 36 46  1  0
 37 40  1  0
 38 42  1  0
 38 37  1  0
 39 38  2  0
 42 41  1  0
 42 44  1  0
 44 45  1  0
 44 43  1  0
 46 49  1  1
 46 47  1  0
 48 46  1  0
 50 62  1  0
 51 57  1  0
 51 66  1  0
 52 57  1  0
 53 54  1  0
 53 52  1  0
 55 54  1  0
 55 71  1  0
 55 56  1  0
 57 56  1  0
 58 51  2  0
 59 60  1  0
 60 64  1  0
 61 97  1  0
 61 60  2  0
 62 61  1  0
 63 59  2  0
 65 62  2  0
 65 63  1  0
 66 63  1  0
 66 67  1  0
 68 93  1  0
 68 69  2  0
 69 88  1  0
 70 73  1  0
 70 69  1  0
 71 72  1  0
 71 68  1  0
 72 70  2  0
 73 74  1  0
 74 75  2  0
 76 79  1  0
 76 75  1  0
 77 76  2  0
 78 77  1  0
 78 73  2  0
 79 80  1  0
 80 81  1  0
 81 82  2  0
 83 82  1  0
 83 87  1  0
 84 83  2  0
 85 80  2  0
 85 84  1  0
 86 85  1  0
 88 89  1  0
 89 91  1  0
 89 92  1  0
 90 88  2  0
 93 94  1  0
 95 93  1  0
 96 97  1  0
M  ISO  4   8 101   9 101  51 100  66 100
M  END
>  <TORSDO>  (26) 
F 22

>  <SCORE>  (26) 
-2.709

>  <name>  (26) 
25

>  <ligand_id>  (26) 
25

>  <original_smiles>  (26) 
[H]c1c([H])c([H])c2c(c1[H])C([H])([H])C([H])([H])C([H])([H])C2([H])N([H])C(=O)C1([H])N(C(=O)C([H])(N([H])C(=O)C([H])(N([H])C([H])([H])[H])C([H])([H])[H])C(C([H])([H])[H])(C([H])([H])[H])C([H])([H])[H])C([H])([H])c2c([H])c(OC([H])([H])C(C([H])([H])[H])(C([H])([H])[H])C([H])([H])C([H])(C([H])([H])[H])C([H])([H])C([H])([H])c3nc(N([H])C(=O)N4C([H])([H])C([H])([H])C([H])([H])C([H])(n5nc(-c6c([H])c([H])c(Oc7c([H])c([H])c(F)c([H])c7F)c([H])c6[H])c(C(=O)N([H])[H])c5N([H])[H])C4([H])[H])c([H])c(C([H])([H])[H])c3C([H])([H])C([H])([H])[H])c([H])c([H])c2C1([H])[H]

>  <smiles>  (26) 
[H]c1c([H])c([H])c2c(c1[H])C([H])([H])C([H])([H])C([H])([H])C2([H])N([H])C(=O)C1([H])N(C(=O)C([H])(N([H])C(=O)C([H])(N([H])C([H])([H])[H])C([H])([H])[H])C(C([H])([H])[H])(C([H])([H])[H])C([H])([H])[H])C([H])([H])c2c([H])c(OC([H])([H])C(C([H])([H])[H])(C([H])([H])[H])C([H])([H])C([H])(C([H])([H])[H])C([H])([H])C([H])([H])c3nc(N([H])C(=O)N4C([H])([H])C([H])([H])C([H])([H])C([H])(n5nc(-c6c([H])c([H])c(Oc7c([H])c([H])c(F)c([H])c7F)c([H])c6[H])c(C(=O)N([H])[H])c5N([H])[H])C4([H])[H])c([H])c(C([H])([H])[H])c3C([H])([H])C([H])([H])[H])c([H])c([H])c2C1([H])[H]

$$$$
26:0:0
     RDKit          3D

 93101  0  0  1  0  0  0  0  0999 V2000
  -28.4620  -18.2180   19.7610 C   0  0  0  0  0  3  0  0  0  0  0  0
  -28.3590  -20.4120   20.0360 C   0  0  0  0  0  3  0  0  0  0  0  0
  -27.7480  -19.3900   19.3790 C   0  0  0  0  0  0  0  0  0  0  0  0
  -29.4580  -18.5110   20.6610 C   0  0  0  0  0  0  0  0  0  0  0  0
  -29.3660  -19.9520   20.8670 N   0  0  0  0  0  0  0  0  0  0  0  0
  -25.4150  -18.6120   18.9700 C   0  0  0  0  0  1  0  0  0  0  0  0
  -26.9320  -19.1030   17.0140 C   0  0  0  0  0  1  0  0  0  0  0  0
  -26.0250  -20.9610   18.4040 C   0  0  0  0  0  1  0  0  0  0  0  0
  -26.5480  -19.5110   18.4460 C   0  0  2  0  0  0  0  0  0  0  0  0
  -30.4190  -17.4060   21.2370 C   0  0  0  0  0  2  0  0  0  0  0  0
  -30.7450  -14.8610   20.5100 C   0  0  0  0  0  0  0  0  0  0  0  0
  -30.4070  -12.8410   19.0720 C   0  0  0  0  0  2  0  0  0  0  0  0
  -29.4340  -13.1980   17.9280 C   0  0  0  0  0  2  0  0  0  0  0  0
  -27.9700  -13.0190   18.3750 C   0  0  0  0  0  2  0  0  0  0  0  0
  -27.6810  -13.6550   19.7610 C   0  0  0  0  0  3  0  0  0  0  0  0
  -28.7680  -13.2890   20.7930 C   0  0  0  0  0  2  0  0  0  0  0  0
  -30.0630  -13.6970   20.2310 N   0  0  0  0  0  0  0  0  0  0  0  0
  -31.9190  -14.9870   20.1470 O   0  0  0  0  0  0  0  0  0  0  0  0
  -30.0310  -15.9360   21.0150 N   0  0  0  0  0  0  0  0  0  0  0  0
  -29.0830  -15.7130   21.2720 H   0  0  0  0  0  0  0  0  0  0  0  0
  -25.2680  -14.1810   20.4500 C   0  0  0  0  0  0  0  0  0  0  0  0
  -24.2150  -13.3860   20.8030 C   0  0  0  0  0  0  0  0  0  0  0  0
  -24.7180  -12.0510   20.8040 C   0  0  0  0  0  0  0  0  0  0  0  0
  -26.3400  -13.3320   20.2390 N   0  0  0  0  0  0  0  0  0  0  0  0
  -26.0170  -12.0440   20.5190 N   0  0  0  0  0  0  0  0  0  0  0  0
  -24.0240  -10.7740   21.0040 C   0  0  0  0  0  0  0  0  0  0  0  0
  -24.4010   -9.8840   22.0320 C   0  0  0  0  0  3  0  0  0  0  0  0
  -23.7040   -8.6720   22.2190 C   0  0  0  0  0  3  0  0  0  0  0  0
  -22.6160   -8.3420   21.3770 C   0  0  0  0  0  0  0  0  0  0  0  0
  -22.2570   -9.2220   20.3400 C   0  0  0  0  0  3  0  0  0  0  0  0
  -22.9560  -10.4260   20.1510 C   0  0  0  0  0  3  0  0  0  0  0  0
  -21.8980   -7.1750   21.4710 O   0  0  0  0  0  0  0  0  0  0  0  0
  -21.7210   -6.5330   22.6700 C   0  0  0  0  0  0  0  0  0  0  0  0
  -21.0250   -7.1330   23.7410 C   0  0  0  0  0  3  0  0  0  0  0  0
  -20.8010   -6.4080   24.9290 C   0  0  0  0  0  3  0  0  0  0  0  0
  -21.2670   -5.0830   25.0440 C   0  0  0  0  0  0  0  0  0  0  0  0
  -21.9570   -4.4850   23.9750 C   0  0  0  0  0  3  0  0  0  0  0  0
  -22.1790   -5.2070   22.7900 C   0  0  0  0  0  0  0  0  0  0  0  0
  -22.8260   -4.6180   21.7550 F   0  0  0  0  0  0  0  0  0  0  0  0
  -21.0490   -4.3810   26.1800 F   0  0  0  0  0  0  0  0  0  0  0  0
  -22.8010  -13.8340   21.0360 C   0  0  0  0  0  0  0  0  0  0  0  0
  -22.0760  -13.1430   21.9070 N   0  0  0  0  0  0  0  0  0  0  0  0
  -22.3480  -14.8360   20.4810 O   0  0  0  0  0  0  0  0  0  0  0  0
  -22.4580  -12.3340   22.3740 H   0  0  0  0  0  0  0  0  0  0  0  0
  -21.1260  -13.4230   22.1040 H   0  0  0  0  0  0  0  0  0  0  0  0
  -25.3930  -15.5480   20.2760 N   0  0  0  0  0  0  0  0  0  0  0  0
  -24.6050  -16.1750   20.3870 H   0  0  0  0  0  0  0  0  0  0  0  0
  -26.2390  -16.0220   20.0010 H   0  0  0  0  0  0  0  0  0  0  0  0
  -30.1190  -20.9960   21.6620 C   0  0  0  0  0  2  0  0  0  0  0  0
  -29.3380  -22.3750   22.0650 C   0  0  0  0  0  2  0  0  0  0  0  0
  -29.6050  -23.8190   21.3800 C   0  0  0  0  0  3  0  0  0  0  0  0
  -28.6230  -25.0490   21.7580 C   0  0  0  0  0  3  0  0  0  0  0  0
  -28.8080  -26.4390   21.2280 O   0  0  0  0  0  0  0  0  0  0  0  0
  -24.5800  -31.9590   23.3290 C   0  0  0  0  0  0  0  0  0  0  0  0
  -27.6680  -27.2450   21.0230 C   0  0  0  0  0  0  0  0  0  0  0  0
  -23.6080  -30.3610   21.7180 C   0  0  0  0  0  3  0  0  0  0  0  0
  -25.2570  -28.7480   20.6050 C   0  0  0  0  0  0  0  0  0  0  0  0
  -26.1410  -30.7730   21.7620 C   0  0  0  0  0  2  0  0  0  0  0  0
  -26.3410  -29.3440   21.2650 C   0  0  0  0  0  0  0  0  0  0  0  0
  -27.5500  -28.6060   21.4580 C   0  0  0  0  0  3  0  0  0  0  0  0
  -26.5640  -26.7040   20.3290 C   0  0  0  0  0  3  0  0  0  0  0  0
  -25.3750  -27.4330   20.1250 C   0  0  0  0  0  3  0  0  0  0  0  0
  -23.9910  -29.5660   20.4410 C   0  0  0  0  0  2  0  0  0  0  0  0
  -24.7900  -31.0550   22.3250 N   0  0  0  0  0  0  0  0  0  0  0  0
  -23.4370  -32.2330   23.7210 O   0  0  0  0  0  0  0  0  0  0  0  0
  -22.8810  -29.4100   22.7000 C   0  0  0  0  0  0  0  0  0  0  0  0
  -21.5760  -29.1850   22.4720 N   0  0  0  0  0  0  0  0  0  0  0  0
  -23.4960  -28.8750   23.6250 O   0  0  0  0  0  0  0  0  0  0  0  0
  -21.1390  -29.6660   21.6980 H   0  0  0  0  0  0  0  0  0  0  0  0
  -18.1660  -28.0480   22.8720 C   0  0  0  0  0  0  0  0  0  0  0  0
  -20.7130  -28.2910   23.2450 C   0  0  0  0  0  3  0  0  0  0  0  0
  -20.8230  -26.8340   22.7350 C   0  0  0  0  0  2  0  0  0  0  0  0
  -19.7620  -26.4810   21.6880 C   0  0  0  0  0  2  0  0  0  0  0  0
  -18.3550  -26.6690   22.2620 C   0  0  0  0  0  2  0  0  0  0  0  0
  -19.2730  -28.8160   23.3180 C   0  0  0  0  0  0  0  0  0  0  0  0
  -19.0450  -30.1050   23.8470 C   0  0  0  0  0  3  0  0  0  0  0  0
  -17.7390  -30.6250   23.9350 C   0  0  0  0  0  3  0  0  0  0  0  0
  -16.6450  -29.8550   23.5050 C   0  0  0  0  0  3  0  0  0  0  0  0
  -16.8590  -28.5690   22.9790 C   0  0  0  0  0  3  0  0  0  0  0  0
  -25.7660  -32.7040   24.0150 C   0  0  0  0  0  3  0  0  0  0  0  0
  -25.3420  -34.0920   24.2480 N   0  0  0  0  0  0  0  0  0  0  0  0
  -25.6500  -35.1270   23.4540 C   0  0  0  0  0  0  0  0  0  0  0  0
  -26.3850  -35.0180   22.4700 O   0  0  0  0  0  0  0  0  0  0  0  0
  -24.6930  -34.2470   25.0050 H   0  0  0  0  0  0  0  0  0  0  0  0
  -23.8340  -36.7790   22.9040 C   0  0  0  0  0  1  0  0  0  0  0  0
  -25.0450  -36.5010   23.8070 C   0  0  0  0  0  3  0  0  0  0  0  0
  -27.0490  -37.5810   24.7270 C   0  0  0  0  0  1  0  0  0  0  0  0
  -26.0130  -37.6140   23.6990 N   0  0  0  0  0  0  0  0  0  0  0  0
  -25.5370  -38.5110   23.7580 H   0  0  0  0  0  0  0  0  0  0  0  0
  -26.2220  -32.0300   25.3660 C   0  0  1  0  0  0  0  0  0  0  0  0
  -25.0550  -31.7170   26.3340 C   0  0  0  0  0  1  0  0  0  0  0  0
  -26.9740  -30.7070   25.0930 C   0  0  0  0  0  1  0  0  0  0  0  0
  -27.2180  -32.9580   26.1030 C   0  0  0  0  0  1  0  0  0  0  0  0
  1  4  2  0
  2  5  1  0
  3  1  1  0
  3  2  2  0
  4  5  1  0
  4 10  1  0
  5 49  1  0
  9  7  1  6
  8  9  1  0
  9  6  1  0
  9  3  1  0
 11 19  1  0
 12 17  1  0
 13 14  1  0
 13 12  1  0
 15 14  1  0
 15 24  1  0
 15 16  1  0
 17 11  1  0
 17 16  1  0
 18 11  2  0
 19 10  1  0
 19 20  1  0
 21 22  2  0
 22 23  1  0
 22 41  1  0
 23 26  1  0
 24 21  1  0
 24 25  1  0
 25 23  2  0
 26 27  1  0
 27 28  2  0
 29 32  1  0
 29 28  1  0
 30 29  2  0
 31 30  1  0
 31 26  2  0
 32 33  1  0
 33 38  2  0
 33 34  1  0
 34 35  2  0
 35 36  1  0
 36 40  1  0
 37 36  2  0
 38 37  1  0
 39 38  1  0
 41 42  1  0
 42 45  1  0
 42 44  1  0
 43 41  2  0
 46 47  1  0
 46 21  1  0
 48 46  1  0
 49 50  1  0
 51 52  2  0
 51 50  1  0
 53 52  1  0
 54 65  2  0
 55 53  1  0
 55 60  1  0
 56 64  1  0
 56 66  1  0
 57 59  1  0
 58 64  1  0
 59 60  2  0
 59 58  1  0
 61 55  2  0
 62 61  1  0
 62 57  2  0
 63 57  1  0
 63 56  1  0
 64 54  1  0
 66 68  2  0
 67 66  1  0
 69 67  1  0
 70 79  2  0
 70 75  1  0
 71 67  1  0
 71 75  1  0
 72 71  1  0
 73 74  1  0
 73 72  1  0
 74 70  1  0
 75 76  2  0
 76 77  1  0
 78 77  2  0
 79 78  1  0
 80 54  1  0
 80 81  1  0
 80 90  1  0
 81 84  1  0
 82 86  1  0
 82 81  1  0
 83 82  2  0
 86 85  1  0
 88 89  1  0
 88 86  1  0
 88 87  1  0
 90 93  1  1
 90 91  1  0
 92 90  1  0
M  ISO  4  11 100  19 100  52 101  53 101
M  END
>  <TORSDO>  (27) 
F 22

>  <SCORE>  (27) 
-11.632

>  <name>  (27) 
26

>  <ligand_id>  (27) 
26

>  <original_smiles>  (27) 
[H]c1c([H])c([H])c2c(c1[H])C([H])([H])C([H])([H])C([H])([H])C2([H])N([H])C(=O)C1([H])N(C(=O)C([H])(N([H])C(=O)C([H])(N([H])C([H])([H])[H])C([H])([H])[H])C(C([H])([H])[H])(C([H])([H])[H])C([H])([H])[H])C([H])([H])c2c([H])c(OC([H])([H])C([H])([H])C([H])([H])C([H])([H])n3c([H])c(C(C([H])([H])[H])(C([H])([H])[H])C([H])([H])[H])c([H])c3C([H])([H])N([H])C(=O)N3C([H])([H])C([H])([H])C([H])([H])C([H])(n4nc(-c5c([H])c([H])c(Oc6c([H])c([H])c(F)c([H])c6F)c([H])c5[H])c(C(=O)N([H])[H])c4N([H])[H])C3([H])[H])c([H])c([H])c2C1([H])[H]

>  <smiles>  (27) 
[H]c1c([H])c([H])c2c(c1[H])C([H])([H])C([H])([H])C([H])([H])C2([H])N([H])C(=O)C1([H])N(C(=O)C([H])(N([H])C(=O)C([H])(N([H])C([H])([H])[H])C([H])([H])[H])C(C([H])([H])[H])(C([H])([H])[H])C([H])([H])[H])C([H])([H])c2c([H])c(OC([H])([H])C([H])([H])C([H])([H])C([H])([H])n3c([H])c(C(C([H])([H])[H])(C([H])([H])[H])C([H])([H])[H])c([H])c3C([H])([H])N([H])C(=O)N3C([H])([H])C([H])([H])C([H])([H])C([H])(n4nc(-c5c([H])c([H])c(Oc6c([H])c([H])c(F)c([H])c6F)c([H])c5[H])c(C(=O)N([H])[H])c4N([H])[H])C3([H])[H])c([H])c([H])c2C1([H])[H]

$$$$
27:0:0
     RDKit          3D

 94102  0  0  1  0  0  0  0  0999 V2000
  -29.7490  -19.1760   20.0030 C   0  0  0  0  0  3  0  0  0  0  0  0
  -28.6960  -19.9970   19.4950 C   0  0  0  0  0  0  0  0  0  0  0  0
  -29.4640  -17.8250   19.8960 C   0  0  0  0  0  0  0  0  0  0  0  0
  -27.7630  -19.0980   19.0160 C   0  0  0  0  0  0  0  0  0  0  0  0
  -26.4980  -19.4500   18.2500 C   0  0  0  0  0  1  0  0  0  0  0  0
  -28.1450  -17.7640   19.3360 N   0  0  0  0  0  0  0  0  0  0  0  0
  -25.8480  -16.6100   19.6370 C   0  0  0  0  0  1  0  0  0  0  0  0
  -27.8130  -15.1530   19.2330 C   0  0  0  0  0  1  0  0  0  0  0  0
  -27.2660  -16.5800   18.9830 C   0  0  0  0  0  3  0  0  0  0  0  0
  -31.9350  -17.0470   20.2160 C   0  0  0  0  0  1  0  0  0  0  0  0
  -30.4140  -16.6600   20.3660 C   0  0  0  0  0  3  0  0  0  0  0  0
  -30.8740  -14.1510   19.5710 C   0  0  0  0  0  0  0  0  0  0  0  0
  -30.6790  -11.6980   19.0230 C   0  0  0  0  0  2  0  0  0  0  0  0
  -29.6660  -11.4790   17.8810 C   0  0  0  0  0  2  0  0  0  0  0  0
  -28.2270  -11.3810   18.4280 C   0  0  0  0  0  2  0  0  0  0  0  0
  -27.9100  -12.5210   19.4380 C   0  0  0  0  0  3  0  0  0  0  0  0
  -29.0310  -12.6980   20.4740 C   0  0  0  0  0  2  0  0  0  0  0  0
  -30.2690  -12.9320   19.7270 N   0  0  0  0  0  0  0  0  0  0  0  0
  -32.0250  -14.2160   19.1280 O   0  0  0  0  0  0  0  0  0  0  0  0
  -30.0990  -15.2860   19.7950 N   0  0  0  0  0  0  0  0  0  0  0  0
  -29.0990  -15.1510   19.6110 H   0  0  0  0  0  0  0  0  0  0  0  0
  -25.7240  -13.3020   20.5210 C   0  0  0  0  0  0  0  0  0  0  0  0
  -24.6440  -12.6190   21.0070 C   0  0  0  0  0  0  0  0  0  0  0  0
  -24.9470  -11.2310   20.8450 C   0  0  0  0  0  0  0  0  0  0  0  0
  -26.6180  -12.3390   20.0900 N   0  0  0  0  0  0  0  0  0  0  0  0
  -26.1690  -11.0870   20.3470 N   0  0  0  0  0  0  0  0  0  0  0  0
  -24.1340  -10.0380   21.0910 C   0  0  0  0  0  0  0  0  0  0  0  0
  -24.5890   -8.9850   21.9120 C   0  0  0  0  0  3  0  0  0  0  0  0
  -23.7780   -7.8520   22.1390 C   0  0  0  0  0  3  0  0  0  0  0  0
  -22.4950   -7.7650   21.5470 C   0  0  0  0  0  0  0  0  0  0  0  0
  -22.0530   -8.8100   20.7130 C   0  0  0  0  0  3  0  0  0  0  0  0
  -22.8640   -9.9390   20.4880 C   0  0  0  0  0  3  0  0  0  0  0  0
  -21.6460   -6.6950   21.6870 O   0  0  0  0  0  0  0  0  0  0  0  0
  -21.6480   -5.9210   22.8170 C   0  0  0  0  0  0  0  0  0  0  0  0
  -21.4000   -6.4730   24.0930 C   0  0  0  0  0  3  0  0  0  0  0  0
  -21.3420   -5.6330   25.2230 C   0  0  0  0  0  3  0  0  0  0  0  0
  -21.5130   -4.2440   25.0780 C   0  0  0  0  0  0  0  0  0  0  0  0
  -21.7470   -3.6900   23.8060 C   0  0  0  0  0  3  0  0  0  0  0  0
  -21.8080   -4.5280   22.6780 C   0  0  0  0  0  0  0  0  0  0  0  0
  -22.0150   -3.9910   21.4530 F   0  0  0  0  0  0  0  0  0  0  0  0
  -21.4460   -3.4330   26.1620 F   0  0  0  0  0  0  0  0  0  0  0  0
  -23.3650  -13.2130   21.5170 C   0  0  0  0  0  0  0  0  0  0  0  0
  -22.7230  -12.5500   22.4720 N   0  0  0  0  0  0  0  0  0  0  0  0
  -22.9520  -14.2960   21.1010 O   0  0  0  0  0  0  0  0  0  0  0  0
  -23.0750  -11.6800   22.8270 H   0  0  0  0  0  0  0  0  0  0  0  0
  -21.8590  -12.9200   22.8520 H   0  0  0  0  0  0  0  0  0  0  0  0
  -26.0120  -14.6590   20.3730 N   0  0  0  0  0  0  0  0  0  0  0  0
  -25.3430  -15.3890   20.6010 H   0  0  0  0  0  0  0  0  0  0  0  0
  -26.8330  -15.0060   19.9010 H   0  0  0  0  0  0  0  0  0  0  0  0
  -28.6200  -21.5580   19.4060 C   0  0  0  0  0  2  0  0  0  0  0  0
  -29.4580  -22.4560   20.4150 C   0  0  0  0  0  2  0  0  0  0  0  0
  -28.8940  -23.9130   20.7800 C   0  0  0  0  0  3  0  0  0  0  0  0
  -29.6390  -25.2030   20.2350 C   0  0  0  0  0  3  0  0  0  0  0  0
  -29.3160  -26.5350   20.7830 O   0  0  0  0  0  0  0  0  0  0  0  0
  -24.9170  -31.5620   23.2730 C   0  0  0  0  0  0  0  0  0  0  0  0
  -28.1280  -27.2300   20.5460 C   0  0  0  0  0  0  0  0  0  0  0  0
  -23.9830  -30.1070   21.5060 C   0  0  0  0  0  3  0  0  0  0  0  0
  -25.6760  -28.6670   20.2340 C   0  0  0  0  0  0  0  0  0  0  0  0
  -26.4920  -30.6080   21.5830 C   0  0  0  0  0  2  0  0  0  0  0  0
  -26.7330  -29.2400   20.9520 C   0  0  0  0  0  0  0  0  0  0  0  0
  -27.9610  -28.5370   21.0950 C   0  0  0  0  0  3  0  0  0  0  0  0
  -27.0580  -26.6900   19.8010 C   0  0  0  0  0  3  0  0  0  0  0  0
  -25.8480  -27.4010   19.6400 C   0  0  0  0  0  3  0  0  0  0  0  0
  -24.3770  -29.4470   20.1520 C   0  0  0  0  0  2  0  0  0  0  0  0
  -25.1420  -30.7800   22.1780 N   0  0  0  0  0  0  0  0  0  0  0  0
  -23.7690  -31.7600   23.6970 O   0  0  0  0  0  0  0  0  0  0  0  0
  -23.2880  -29.0440   22.3920 C   0  0  0  0  0  0  0  0  0  0  0  0
  -21.9770  -28.8350   22.1710 N   0  0  0  0  0  0  0  0  0  0  0  0
  -23.9320  -28.4080   23.2250 O   0  0  0  0  0  0  0  0  0  0  0  0
  -21.5180  -29.4030   21.4740 H   0  0  0  0  0  0  0  0  0  0  0  0
  -18.5820  -27.6490   22.5380 C   0  0  0  0  0  0  0  0  0  0  0  0
  -21.1410  -27.8550   22.8610 C   0  0  0  0  0  3  0  0  0  0  0  0
  -21.2330  -26.4690   22.1790 C   0  0  0  0  0  2  0  0  0  0  0  0
  -20.1390  -26.2490   21.1280 C   0  0  0  0  0  2  0  0  0  0  0  0
  -18.7540  -26.3500   21.7630 C   0  0  0  0  0  2  0  0  0  0  0  0
  -19.7030  -28.3650   23.0370 C   0  0  0  0  0  0  0  0  0  0  0  0
  -19.4950  -29.5780   23.7240 C   0  0  0  0  0  3  0  0  0  0  0  0
  -18.1930  -30.0850   23.9020 C   0  0  0  0  0  3  0  0  0  0  0  0
  -17.0850  -29.3690   23.4140 C   0  0  0  0  0  3  0  0  0  0  0  0
  -17.2810  -28.1540   22.7320 C   0  0  0  0  0  3  0  0  0  0  0  0
  -26.0870  -32.2590   24.0360 C   0  0  0  0  0  3  0  0  0  0  0  0
  -25.6970  -33.6570   24.2540 N   0  0  0  0  0  0  0  0  0  0  0  0
  -26.0680  -34.6850   23.4750 C   0  0  0  0  0  0  0  0  0  0  0  0
  -26.8410  -34.5560   22.5230 O   0  0  0  0  0  0  0  0  0  0  0  0
  -25.0140  -33.8320   24.9790 H   0  0  0  0  0  0  0  0  0  0  0  0
  -24.3110  -36.3790   22.8650 C   0  0  0  0  0  1  0  0  0  0  0  0
  -25.4900  -36.0750   23.8040 C   0  0  0  0  0  3  0  0  0  0  0  0
  -27.5060  -37.0990   24.7690 C   0  0  0  0  0  1  0  0  0  0  0  0
  -26.4910  -37.1630   23.7180 N   0  0  0  0  0  0  0  0  0  0  0  0
  -26.0380  -38.0710   23.7650 H   0  0  0  0  0  0  0  0  0  0  0  0
  -26.4430  -31.5620   25.4040 C   0  0  1  0  0  0  0  0  0  0  0  0
  -25.2100  -31.3330   26.3120 C   0  0  0  0  0  1  0  0  0  0  0  0
  -27.1230  -30.1940   25.1600 C   0  0  0  0  0  1  0  0  0  0  0  0
  -27.4670  -32.4280   26.1800 C   0  0  0  0  0  1  0  0  0  0  0  0
  2  1  1  0
  3  1  2  0
  3 11  1  0
  4  6  1  0
  4  2  2  0
  5  4  1  0
  6  3  1  0
  9  8  1  0
  9  6  1  0
  9  7  1  0
 11 10  1  0
 12 18  1  0
 12 20  1  0
 13 18  1  0
 14 15  1  0
 14 13  1  0
 16 15  1  0
 16 25  1  0
 16 17  1  0
 18 17  1  0
 19 12  2  0
 20 11  1  0
 21 20  1  0
 22 23  2  0
 23 42  1  0
 24 23  1  0
 24 27  1  0
 25 26  1  0
 25 22  1  0
 26 24  2  0
 27 28  1  0
 28 29  2  0
 30 33  1  0
 30 29  1  0
 31 30  2  0
 32 31  1  0
 32 27  2  0
 33 34  1  0
 34 35  1  0
 35 36  2  0
 37 36  1  0
 37 41  1  0
 38 37  2  0
 39 34  2  0
 39 38  1  0
 40 39  1  0
 42 43  1  0
 43 45  1  0
 43 46  1  0
 44 42  2  0
 47 22  1  0
 47 48  1  0
 49 47  1  0
 50  2  1  0
 50 51  1  0
 51 52  1  0
 53 52  2  0
 53 54  1  0
 55 66  2  0
 56 54  1  0
 56 61  1  0
 57 65  1  0
 57 67  1  0
 58 60  1  0
 59 65  1  0
 60 61  2  0
 60 59  1  0
 62 56  2  0
 63 62  1  0
 63 58  2  0
 64 58  1  0
 64 57  1  0
 65 55  1  0
 67 69  2  0
 68 67  1  0
 70 68  1  0
 71 80  2  0
 71 76  1  0
 72 68  1  0
 72 76  1  0
 73 72  1  0
 74 75  1  0
 74 73  1  0
 75 71  1  0
 76 77  2  0
 77 78  1  0
 79 78  2  0
 80 79  1  0
 81 55  1  0
 81 82  1  0
 81 91  1  0
 82 85  1  0
 83 87  1  0
 83 82  1  0
 84 83  2  0
 87 86  1  0
 89 90  1  0
 89 87  1  0
 89 88  1  0
 91 94  1  1
 91 92  1  0
 93 91  1  0
M  ISO  4  12 100  20 100  53 101  54 101
M  END
>  <TORSDO>  (28) 
F 22

>  <SCORE>  (28) 
-11.294

>  <name>  (28) 
27

>  <ligand_id>  (28) 
27

>  <original_smiles>  (28) 
[H]c1c([H])c([H])c2c(c1[H])C([H])([H])C([H])([H])C([H])([H])C2([H])N([H])C(=O)C1([H])N(C(=O)C([H])(N([H])C(=O)C([H])(N([H])C([H])([H])[H])C([H])([H])[H])C(C([H])([H])[H])(C([H])([H])[H])C([H])([H])[H])C([H])([H])c2c([H])c(OC([H])([H])C([H])([H])C([H])([H])C([H])([H])c3c([H])c(C([H])(N([H])C(=O)N4C([H])([H])C([H])([H])C([H])([H])C([H])(n5nc(-c6c([H])c([H])c(Oc7c([H])c([H])c(F)c([H])c7F)c([H])c6[H])c(C(=O)N([H])[H])c5N([H])[H])C4([H])[H])C([H])([H])[H])n(C([H])(C([H])([H])[H])C([H])([H])[H])c3C([H])([H])[H])c([H])c([H])c2C1([H])[H]

>  <smiles>  (28) 
[H]c1c([H])c([H])c2c(c1[H])C([H])([H])C([H])([H])C([H])([H])C2([H])N([H])C(=O)C1([H])N(C(=O)C([H])(N([H])C(=O)C([H])(N([H])C([H])([H])[H])C([H])([H])[H])C(C([H])([H])[H])(C([H])([H])[H])C([H])([H])[H])C([H])([H])c2c([H])c(OC([H])([H])C([H])([H])C([H])([H])C([H])([H])c3c([H])c(C([H])(N([H])C(=O)N4C([H])([H])C([H])([H])C([H])([H])C([H])(n5nc(-c6c([H])c([H])c(Oc7c([H])c([H])c(F)c([H])c7F)c([H])c6[H])c(C(=O)N([H])[H])c5N([H])[H])C4([H])[H])C([H])([H])[H])n(C([H])(C([H])([H])[H])C([H])([H])[H])c3C([H])([H])[H])c([H])c([H])c2C1([H])[H]

$$$$
29:0:0
     RDKit          3D

 95103  0  0  1  0  0  0  0  0999 V2000
  -30.0620  -20.9420   19.5860 C   0  0  0  0  0  3  0  0  0  0  0  0
  -29.6440  -22.2470   19.2090 C   0  0  0  0  0  0  0  0  0  0  0  0
  -29.2980  -20.2740   20.5820 C   0  0  0  0  0  0  0  0  0  0  0  0
  -27.9850  -22.1550   20.7750 C   0  0  0  0  0  0  0  0  0  0  0  0
  -28.5670  -22.8020   19.7810 N   0  0  0  0  0  0  0  0  0  0  0  0
  -28.2790  -20.9260   21.1820 N   0  0  0  0  0  0  0  0  0  0  0  0
  -30.2860  -23.1190   18.1180 C   0  0  0  0  0  2  0  0  0  0  0  0
  -30.2590  -24.6650   18.4070 C   0  0  0  0  0  3  0  0  0  0  0  0
  -30.0490  -25.5770   17.1590 C   0  0  0  0  0  3  0  0  0  0  0  0
  -29.5850  -26.9190   17.4450 O   0  0  0  0  0  0  0  0  0  0  0  0
  -24.9910  -29.7550   22.1110 C   0  0  0  0  0  0  0  0  0  0  0  0
  -28.2520  -27.2180   17.6990 C   0  0  0  0  0  0  0  0  0  0  0  0
  -23.9730  -28.5380   20.2110 C   0  0  0  0  0  3  0  0  0  0  0  0
  -25.5610  -27.9100   18.3090 C   0  0  0  0  0  0  0  0  0  0  0  0
  -26.2650  -29.6490   19.9660 C   0  0  0  0  0  2  0  0  0  0  0  0
  -26.6140  -28.5710   18.9540 C   0  0  0  0  0  0  0  0  0  0  0  0
  -27.9540  -28.2260   18.6520 C   0  0  0  0  0  3  0  0  0  0  0  0
  -27.1690  -26.5680   17.0620 C   0  0  0  0  0  3  0  0  0  0  0  0
  -25.8370  -26.9130   17.3580 C   0  0  0  0  0  3  0  0  0  0  0  0
  -24.1530  -28.3190   18.6810 C   0  0  0  0  0  2  0  0  0  0  0  0
  -25.0970  -29.3230   20.8200 N   0  0  0  0  0  0  0  0  0  0  0  0
  -23.9660  -29.5460   22.7740 O   0  0  0  0  0  0  0  0  0  0  0  0
  -23.7540  -27.1630   20.8810 C   0  0  0  0  0  0  0  0  0  0  0  0
  -22.5610  -26.5800   20.6750 N   0  0  0  0  0  0  0  0  0  0  0  0
  -24.6520  -26.6290   21.5350 O   0  0  0  0  0  0  0  0  0  0  0  0
  -21.8790  -27.0830   20.1240 H   0  0  0  0  0  0  0  0  0  0  0  0
  -19.8720  -24.1630   20.6360 C   0  0  0  0  0  0  0  0  0  0  0  0
  -22.1520  -25.2620   21.1600 C   0  0  0  0  0  3  0  0  0  0  0  0
  -22.7800  -24.1360   20.3060 C   0  0  0  0  0  2  0  0  0  0  0  0
  -21.8730  -23.6690   19.1630 C   0  0  0  0  0  2  0  0  0  0  0  0
  -20.5340  -23.1590   19.7060 C   0  0  0  0  0  2  0  0  0  0  0  0
  -20.6290  -25.1610   21.3020 C   0  0  0  0  0  0  0  0  0  0  0  0
  -19.9590  -26.0960   22.1200 C   0  0  0  0  0  3  0  0  0  0  0  0
  -18.5630  -26.0430   22.2800 C   0  0  0  0  0  3  0  0  0  0  0  0
  -17.8180  -25.0430   21.6310 C   0  0  0  0  0  3  0  0  0  0  0  0
  -18.4740  -24.1040   20.8150 C   0  0  0  0  0  3  0  0  0  0  0  0
  -26.1400  -30.5470   22.8070 C   0  0  0  0  0  3  0  0  0  0  0  0
  -25.5260  -31.6430   23.5650 N   0  0  0  0  0  0  0  0  0  0  0  0
  -25.5860  -32.9380   23.2180 C   0  0  0  0  0  0  0  0  0  0  0  0
  -26.2360  -33.3430   22.2500 O   0  0  0  0  0  0  0  0  0  0  0  0
  -24.9380  -31.3790   24.3410 H   0  0  0  0  0  0  0  0  0  0  0  0
  -23.5420  -34.4000   23.3330 C   0  0  0  0  0  1  0  0  0  0  0  0
  -24.8030  -33.9440   24.0860 C   0  0  0  0  0  3  0  0  0  0  0  0
  -26.6690  -34.8090   25.4260 C   0  0  0  0  0  1  0  0  0  0  0  0
  -25.6010  -35.1250   24.4820 N   0  0  0  0  0  0  0  0  0  0  0  0
  -25.0090  -35.8350   24.9020 H   0  0  0  0  0  0  0  0  0  0  0  0
  -27.0350  -29.6520   23.7500 C   0  0  1  0  0  0  0  0  0  0  0  0
  -26.2220  -28.8230   24.7720 C   0  0  0  0  0  1  0  0  0  0  0  0
  -27.8910  -28.6690   22.9180 C   0  0  0  0  0  1  0  0  0  0  0  0
  -28.0280  -30.5440   24.5340 C   0  0  0  0  0  1  0  0  0  0  0  0
  -29.5800  -18.8550   21.1640 C   0  0  0  0  0  2  0  0  0  0  0  0
  -29.1940  -17.5420   18.9190 C   0  0  0  0  0  1  0  0  0  0  0  0
  -29.9800  -17.6420   20.2410 C   0  0  0  0  0  3  0  0  0  0  0  0
  -30.7950  -15.2850   20.8450 C   0  0  0  0  0  0  0  0  0  0  0  0
  -30.8060  -12.8880   20.2360 C   0  0  0  0  0  2  0  0  0  0  0  0
  -30.0380  -12.7380   18.9050 C   0  0  0  0  0  2  0  0  0  0  0  0
  -28.5240  -12.5830   19.1580 C   0  0  0  0  0  2  0  0  0  0  0  0
  -27.9740  -13.6420   20.1510 C   0  0  0  0  0  3  0  0  0  0  0  0
  -28.8700  -13.7500   21.4070 C   0  0  0  0  0  2  0  0  0  0  0  0
  -30.2420  -14.0420   20.9540 N   0  0  0  0  0  0  0  0  0  0  0  0
  -31.9660  -15.4600   20.4910 O   0  0  0  0  0  0  0  0  0  0  0  0
  -29.9160  -16.3150   20.9290 N   0  0  0  0  0  0  0  0  0  0  0  0
  -29.0080  -16.0480   21.2840 H   0  0  0  0  0  0  0  0  0  0  0  0
  -25.5250  -14.2640   20.6200 C   0  0  0  0  0  0  0  0  0  0  0  0
  -24.4230  -13.5040   20.8970 C   0  0  0  0  0  0  0  0  0  0  0  0
  -24.8790  -12.1480   20.9230 C   0  0  0  0  0  0  0  0  0  0  0  0
  -26.5810  -13.3760   20.4970 N   0  0  0  0  0  0  0  0  0  0  0  0
  -26.1910  -12.0980   20.7330 N   0  0  0  0  0  0  0  0  0  0  0  0
  -24.1280  -10.8940   21.0540 C   0  0  0  0  0  0  0  0  0  0  0  0
  -24.5010   -9.9110   21.9950 C   0  0  0  0  0  3  0  0  0  0  0  0
  -23.7560   -8.7180   22.1170 C   0  0  0  0  0  3  0  0  0  0  0  0
  -22.6220   -8.5030   21.2970 C   0  0  0  0  0  0  0  0  0  0  0  0
  -22.2680   -9.4760   20.3450 C   0  0  0  0  0  3  0  0  0  0  0  0
  -23.0140  -10.6610   20.2230 C   0  0  0  0  0  3  0  0  0  0  0  0
  -21.8550   -7.3640   21.3260 O   0  0  0  0  0  0  0  0  0  0  0  0
  -21.7700   -6.5850   22.4520 C   0  0  0  0  0  0  0  0  0  0  0  0
  -21.3270   -7.1060   23.6870 C   0  0  0  0  0  3  0  0  0  0  0  0
  -21.1880   -6.2530   24.8010 C   0  0  0  0  0  3  0  0  0  0  0  0
  -21.4810   -4.8810   24.6790 C   0  0  0  0  0  0  0  0  0  0  0  0
  -21.9170   -4.3600   23.4490 C   0  0  0  0  0  3  0  0  0  0  0  0
  -22.0590   -5.2090   22.3370 C   0  0  0  0  0  0  0  0  0  0  0  0
  -22.4580   -4.6990   21.1480 F   0  0  0  0  0  0  0  0  0  0  0  0
  -21.3380   -4.0620   25.7470 F   0  0  0  0  0  0  0  0  0  0  0  0
  -23.0090  -13.9910   21.0340 C   0  0  0  0  0  0  0  0  0  0  0  0
  -22.2030  -13.3260   21.8530 N   0  0  0  0  0  0  0  0  0  0  0  0
  -22.6250  -15.0020   20.4480 O   0  0  0  0  0  0  0  0  0  0  0  0
  -22.5210  -12.5130   22.3590 H   0  0  0  0  0  0  0  0  0  0  0  0
  -21.2520  -13.6390   21.9820 H   0  0  0  0  0  0  0  0  0  0  0  0
  -25.7150  -15.6340   20.4460 N   0  0  0  0  0  0  0  0  0  0  0  0
  -24.9450  -16.2920   20.5020 H   0  0  0  0  0  0  0  0  0  0  0  0
  -26.5980  -16.0710   20.2090 H   0  0  0  0  0  0  0  0  0  0  0  0
  -26.9530  -22.9490   21.5590 C   0  0  0  0  0  2  0  0  0  0  0  0
  -27.2930  -24.4530   21.6790 C   0  0  0  0  0  2  0  0  0  0  0  0
  -29.6770  -24.9710   20.8360 C   0  0  0  0  0  1  0  0  0  0  0  0
  -28.7530  -24.7840   22.0500 C   0  0  0  0  0  2  0  0  0  0  0  0
  1  3  1  0
  2  1  2  0
  2  5  1  0
  3 51  1  0
  3  6  2  0
  4  6  1  0
  4 92  1  0
  5  4  2  0
  7  8  1  0
  7  2  1  0
  9 10  1  0
  9  8  2  0
 10 12  1  0
 11 22  2  0
 12 17  1  0
 13 21  1  0
 13 23  1  0
 14 20  1  0
 14 16  1  0
 15 21  1  0
 16 15  1  0
 17 16  2  0
 18 19  1  0
 18 12  2  0
 19 14  2  0
 20 13  1  0
 21 11  1  0
 23 25  2  0
 24 23  1  0
 26 24  1  0
 27 36  2  0
 27 32  1  0
 28 24  1  0
 28 32  1  0
 29 28  1  0
 30 31  1  0
 30 29  1  0
 31 27  1  0
 32 33  2  0
 33 34  1  0
 35 34  2  0
 36 35  1  0
 37 11  1  0
 37 38  1  0
 37 47  1  0
 38 41  1  0
 39 38  1  0
 39 43  1  0
 40 39  2  0
 43 42  1  0
 43 45  1  0
 45 46  1  0
 45 44  1  0
 47 50  1  1
 47 48  1  0
 49 47  1  0
 53 52  1  0
 53 62  1  0
 53 51  1  0
 54 62  1  0
 54 60  1  0
 55 60  1  0
 56 57  1  0
 56 55  1  0
 58 57  1  0
 58 67  1  0
 58 59  1  0
 60 59  1  0
 61 54  2  0
 62 63  1  0
 64 65  2  0
 65 66  1  0
 65 84  1  0
 66 69  1  0
 67 64  1  0
 67 68  1  0
 68 66  2  0
 69 70  1  0
 70 71  2  0
 72 75  1  0
 72 71  1  0
 73 72  2  0
 74 73  1  0
 74 69  2  0
 75 76  1  0
 76 77  1  0
 77 78  2  0
 79 78  1  0
 79 83  1  0
 80 79  2  0
 81 76  2  0
 81 80  1  0
 82 81  1  0
 84 85  1  0
 85 88  1  0
 85 87  1  0
 86 84  2  0
 89 90  1  0
 89 64  1  0
 91 89  1  0
 92 93  1  0
 93 95  1  0
 94 95  1  0
M  ISO  4   9 101  10 101  54 100  62 100
M  END
>  <TORSDO>  (29) 
F 24

>  <SCORE>  (29) 
-7.508

>  <name>  (29) 
29

>  <ligand_id>  (29) 
29

>  <original_smiles>  (29) 
[H]c1c(C([H])([H])C([H])([H])C([H])([H])Oc2c([H])c([H])c3c(c2[H])C([H])([H])N(C(=O)C([H])(N([H])C(=O)C([H])(N([H])C([H])([H])[H])C([H])([H])[H])C(C([H])([H])[H])(C([H])([H])[H])C([H])([H])[H])C([H])(C(=O)N([H])C2([H])c4c([H])c([H])c([H])c([H])c4C([H])([H])C([H])([H])C2([H])[H])C3([H])[H])nc(C([H])([H])C([H])([H])C([H])([H])C([H])([H])[H])nc1C([H])([H])C([H])(N([H])C(=O)N1C([H])([H])C([H])([H])C([H])([H])C([H])(n2nc(-c3c([H])c([H])c(Oc4c([H])c([H])c(F)c([H])c4F)c([H])c3[H])c(C(=O)N([H])[H])c2N([H])[H])C1([H])[H])C([H])([H])[H]

>  <smiles>  (29) 
[H]c1c(C([H])([H])C([H])([H])C([H])([H])Oc2c([H])c([H])c3c(c2[H])C([H])([H])N(C(=O)C([H])(N([H])C(=O)C([H])(N([H])C([H])([H])[H])C([H])([H])[H])C(C([H])([H])[H])(C([H])([H])[H])C([H])([H])[H])C([H])(C(=O)N([H])C2([H])c4c([H])c([H])c([H])c([H])c4C([H])([H])C([H])([H])C2([H])[H])C3([H])[H])nc(C([H])([H])C([H])([H])C([H])([H])C([H])([H])[H])nc1C([H])([H])C([H])(N([H])C(=O)N1C([H])([H])C([H])([H])C([H])([H])C([H])(n2nc(-c3c([H])c([H])c(Oc4c([H])c([H])c(F)c([H])c4F)c([H])c3[H])c(C(=O)N([H])[H])c2N([H])[H])C1([H])[H])C([H])([H])[H]

$$$$
30:0:0
     RDKit          3D

 92100  0  0  1  0  0  0  0  0999 V2000
  -30.2010  -23.7760   19.9550 C   0  0  0  0  0  2  0  0  0  0  0  0
  -28.8310  -24.8870   18.1040 C   0  0  0  0  0  1  0  0  0  0  0  0
  -27.7950  -23.1100   19.5490 C   0  0  0  0  0  1  0  0  0  0  0  0
  -28.7880  -24.2900   19.5300 C   0  0  1  0  0  0  0  0  0  0  0  0
  -28.2870  -25.3610   20.5570 C   0  0  0  0  0  2  0  0  0  0  0  0
  -28.4070  -26.7300   20.1310 O   0  0  0  0  0  0  0  0  0  0  0  0
  -24.5980  -31.8860   23.2270 C   0  0  0  0  0  0  0  0  0  0  0  0
  -27.2340  -27.4580   20.1210 C   0  0  0  0  0  0  0  0  0  0  0  0
  -23.3820  -30.4780   21.5950 C   0  0  0  0  0  3  0  0  0  0  0  0
  -24.8280  -28.9470   20.1570 C   0  0  0  0  0  0  0  0  0  0  0  0
  -25.9040  -30.8490   21.3740 C   0  0  0  0  0  2  0  0  0  0  0  0
  -25.9890  -29.4770   20.7340 C   0  0  0  0  0  0  0  0  0  0  0  0
  -27.1970  -28.7420   20.7080 C   0  0  0  0  0  3  0  0  0  0  0  0
  -26.0600  -26.9480   19.5210 C   0  0  0  0  0  3  0  0  0  0  0  0
  -24.8580  -27.6820   19.5460 C   0  0  0  0  0  3  0  0  0  0  0  0
  -23.5780  -29.7940   20.2180 C   0  0  0  0  0  2  0  0  0  0  0  0
  -24.6470  -31.0830   22.1260 N   0  0  0  0  0  0  0  0  0  0  0  0
  -23.5200  -32.1640   23.7700 O   0  0  0  0  0  0  0  0  0  0  0  0
  -22.7390  -29.4610   22.5640 C   0  0  0  0  0  0  0  0  0  0  0  0
  -21.4140  -29.2780   22.4460 N   0  0  0  0  0  0  0  0  0  0  0  0
  -23.4290  -28.8400   23.3770 O   0  0  0  0  0  0  0  0  0  0  0  0
  -20.9210  -29.8360   21.7630 H   0  0  0  0  0  0  0  0  0  0  0  0
  -18.0460  -28.0660   22.9450 C   0  0  0  0  0  0  0  0  0  0  0  0
  -20.6030  -28.3390   23.2180 C   0  0  0  0  0  3  0  0  0  0  0  0
  -20.7120  -26.9050   22.6490 C   0  0  0  0  0  2  0  0  0  0  0  0
  -19.6130  -26.5700   21.6350 C   0  0  0  0  0  2  0  0  0  0  0  0
  -18.2310  -26.7130   22.2800 C   0  0  0  0  0  2  0  0  0  0  0  0
  -19.1620  -28.8360   23.3710 C   0  0  0  0  0  0  0  0  0  0  0  0
  -18.9360  -30.1020   23.9540 C   0  0  0  0  0  3  0  0  0  0  0  0
  -17.6300  -30.5980   24.1160 C   0  0  0  0  0  3  0  0  0  0  0  0
  -16.5280  -29.8250   23.7090 C   0  0  0  0  0  3  0  0  0  0  0  0
  -16.7390  -28.5620   23.1260 C   0  0  0  0  0  3  0  0  0  0  0  0
  -25.8870  -32.5190   23.8370 C   0  0  0  0  0  3  0  0  0  0  0  0
  -25.5800  -33.9140   24.1710 N   0  0  0  0  0  0  0  0  0  0  0  0
  -25.9100  -34.9680   23.4110 C   0  0  0  0  0  0  0  0  0  0  0  0
  -26.5760  -34.8650   22.3760 O   0  0  0  0  0  0  0  0  0  0  0  0
  -24.9850  -34.0670   24.9720 H   0  0  0  0  0  0  0  0  0  0  0  0
  -24.1820  -36.7620   23.0580 C   0  0  0  0  0  1  0  0  0  0  0  0
  -25.4250  -36.3560   23.8690 C   0  0  0  0  0  3  0  0  0  0  0  0
  -27.5660  -37.2350   24.6920 C   0  0  0  0  0  1  0  0  0  0  0  0
  -26.4590  -37.4080   23.7540 N   0  0  0  0  0  0  0  0  0  0  0  0
  -26.0560  -38.3270   23.9080 H   0  0  0  0  0  0  0  0  0  0  0  0
  -26.4200  -31.7440   25.1050 C   0  0  1  0  0  0  0  0  0  0  0  0
  -25.3370  -31.5010   26.1860 C   0  0  0  0  0  1  0  0  0  0  0  0
  -27.0000  -30.3660   24.7010 C   0  0  0  0  0  1  0  0  0  0  0  0
  -27.5770  -32.5390   25.7540 C   0  0  0  0  0  1  0  0  0  0  0  0
  -30.7740  -22.5210   19.2280 C   0  0  0  0  0  2  0  0  0  0  0  0
  -30.0140  -20.0770   19.4290 C   0  0  0  0  0  3  0  0  0  0  0  0
  -30.1320  -19.1830   20.4600 C   0  0  0  0  0  0  0  0  0  0  0  0
  -30.7080  -19.8530   21.5410 N   0  0  0  0  0  0  0  0  0  0  0  0
  -31.0070  -21.0670   21.1900 N   0  0  0  0  0  0  0  0  0  0  0  0
  -30.5550  -21.2490   19.9210 N   0  0  0  0  0  0  0  0  0  0  0  0
  -29.6570  -17.7490   20.5400 C   0  0  0  0  0  2  0  0  0  0  0  0
  -30.5650  -16.7910   21.3530 C   0  0  0  0  0  2  0  0  0  0  0  0
  -30.6860  -14.4310   20.5170 C   0  0  0  0  0  0  0  0  0  0  0  0
  -30.3130  -12.2990   19.3360 C   0  0  0  0  0  2  0  0  0  0  0  0
  -29.3870  -12.5790   18.1360 C   0  0  0  0  0  2  0  0  0  0  0  0
  -27.9120  -12.4450   18.5640 C   0  0  0  0  0  2  0  0  0  0  0  0
  -27.5900  -13.2630   19.8420 C   0  0  0  0  0  3  0  0  0  0  0  0
  -28.6440  -13.0140   20.9500 C   0  0  0  0  0  2  0  0  0  0  0  0
  -29.9780  -13.2790   20.3810 N   0  0  0  0  0  0  0  0  0  0  0  0
  -31.7520  -14.6390   19.9350 O   0  0  0  0  0  0  0  0  0  0  0  0
  -30.1140  -15.3880   21.2620 N   0  0  0  0  0  0  0  0  0  0  0  0
  -29.2710  -15.1310   21.7550 H   0  0  0  0  0  0  0  0  0  0  0  0
  -25.1860  -13.8660   20.5270 C   0  0  0  0  0  0  0  0  0  0  0  0
  -24.1150  -13.0940   20.8940 C   0  0  0  0  0  0  0  0  0  0  0  0
  -24.5790  -11.7440   20.8790 C   0  0  0  0  0  0  0  0  0  0  0  0
  -26.2340  -12.9870   20.3150 N   0  0  0  0  0  0  0  0  0  0  0  0
  -25.8710  -11.7050   20.5770 N   0  0  0  0  0  0  0  0  0  0  0  0
  -23.8510  -10.4820   21.0710 C   0  0  0  0  0  0  0  0  0  0  0  0
  -24.2890   -9.5040   21.9920 C   0  0  0  0  0  3  0  0  0  0  0  0
  -23.5550   -8.3110   22.1730 C   0  0  0  0  0  3  0  0  0  0  0  0
  -22.3680   -8.0850   21.4340 C   0  0  0  0  0  0  0  0  0  0  0  0
  -21.9500   -9.0520   20.5030 C   0  0  0  0  0  3  0  0  0  0  0  0
  -22.6840  -10.2350   20.3190 C   0  0  0  0  0  3  0  0  0  0  0  0
  -21.6070   -6.9450   21.5260 O   0  0  0  0  0  0  0  0  0  0  0  0
  -21.5910   -6.1810   22.6660 C   0  0  0  0  0  0  0  0  0  0  0  0
  -21.2160   -6.7190   23.9170 C   0  0  0  0  0  3  0  0  0  0  0  0
  -21.1480   -5.8860   25.0510 C   0  0  0  0  0  3  0  0  0  0  0  0
  -21.4390   -4.5130   24.9370 C   0  0  0  0  0  0  0  0  0  0  0  0
  -21.8040   -3.9730   23.6910 C   0  0  0  0  0  3  0  0  0  0  0  0
  -21.8780   -4.8040   22.5590 C   0  0  0  0  0  0  0  0  0  0  0  0
  -22.2090   -4.2740   21.3570 F   0  0  0  0  0  0  0  0  0  0  0  0
  -21.3680   -3.7100   26.0240 F   0  0  0  0  0  0  0  0  0  0  0  0
  -22.7180  -13.5740   21.1630 C   0  0  0  0  0  0  0  0  0  0  0  0
  -21.9920  -12.8800   22.0340 N   0  0  0  0  0  0  0  0  0  0  0  0
  -22.2800  -14.5970   20.6410 O   0  0  0  0  0  0  0  0  0  0  0  0
  -22.3540  -12.0400   22.4620 H   0  0  0  0  0  0  0  0  0  0  0  0
  -21.0630  -13.1900   22.2770 H   0  0  0  0  0  0  0  0  0  0  0  0
  -25.3480  -15.2340   20.3370 N   0  0  0  0  0  0  0  0  0  0  0  0
  -24.5800  -15.8910   20.4220 H   0  0  0  0  0  0  0  0  0  0  0  0
  -26.2070  -15.6730   20.0330 H   0  0  0  0  0  0  0  0  0  0  0  0
  4  2  1  6
  4  3  1  0
  4  1  1  0
  4  5  1  0
  6  5  1  0
  7 18  2  0
  8  6  1  0
  8 13  1  0
  9 17  1  0
  9 19  1  0
 10 16  1  0
 10 12  1  0
 11 17  1  0
 12 11  1  0
 13 12  2  0
 14 15  1  0
 14  8  2  0
 15 10  2  0
 16  9  1  0
 17  7  1  0
 19 21  2  0
 20 19  1  0
 22 20  1  0
 23 32  2  0
 23 28  1  0
 24 20  1  0
 24 28  1  0
 25 24  1  0
 26 27  1  0
 26 25  1  0
 27 23  1  0
 28 29  2  0
 29 30  1  0
 31 30  2  0
 32 31  1  0
 33  7  1  0
 33 34  1  0
 33 43  1  0
 34 37  1  0
 35 39  1  0
 35 34  1  0
 36 35  2  0
 39 38  1  0
 41 39  1  0
 41 42  1  0
 41 40  1  0
 43 46  1  1
 43 44  1  0
 45 43  1  0
 47 52  1  0
 47  1  1  0
 48 52  1  0
 48 49  2  0
 49 53  1  0
 49 50  1  0
 51 50  2  0
 52 51  1  0
 53 54  1  0
 55 63  1  0
 56 61  1  0
 57 58  1  0
 57 56  1  0
 59 58  1  0
 59 68  1  0
 59 60  1  0
 61 55  1  0
 61 60  1  0
 62 55  2  0
 63 54  1  0
 63 64  1  0
 65 66  2  0
 66 85  1  0
 67 66  1  0
 67 70  1  0
 68 65  1  0
 68 69  1  0
 69 67  2  0
 70 71  1  0
 71 72  2  0
 73 76  1  0
 73 72  1  0
 74 73  2  0
 75 74  1  0
 75 70  2  0
 76 77  1  0
 77 78  1  0
 78 79  2  0
 80 79  1  0
 80 84  1  0
 81 80  2  0
 82 77  2  0
 82 81  1  0
 83 82  1  0
 85 86  1  0
 86 89  1  0
 86 88  1  0
 87 85  2  0
 90 91  1  0
 90 65  1  0
 92 90  1  0
M  ISO  4   5 101   6 101  55 100  63 100
M  END
>  <TORSDO>  (30) 
F 22

>  <SCORE>  (30) 
-13.241

>  <name>  (30) 
30

>  <ligand_id>  (30) 
30

>  <original_smiles>  (30) 
[H]c1c([H])c([H])c2c(c1[H])C([H])([H])C([H])([H])C([H])([H])C2([H])N([H])C(=O)C1([H])N(C(=O)C([H])(N([H])C(=O)C([H])(N([H])C([H])([H])[H])C([H])([H])[H])C(C([H])([H])[H])(C([H])([H])[H])C([H])([H])[H])C([H])([H])c2c([H])c(OC([H])([H])C(C([H])([H])[H])(C([H])([H])[H])C([H])([H])C([H])([H])n3nnc(C([H])([H])C([H])([H])N([H])C(=O)N4C([H])([H])C([H])([H])C([H])([H])C([H])(n5nc(-c6c([H])c([H])c(Oc7c([H])c([H])c(F)c([H])c7F)c([H])c6[H])c(C(=O)N([H])[H])c5N([H])[H])C4([H])[H])c3[H])c([H])c([H])c2C1([H])[H]

>  <smiles>  (30) 
[H]c1c([H])c([H])c2c(c1[H])C([H])([H])C([H])([H])C([H])([H])C2([H])N([H])C(=O)C1([H])N(C(=O)C([H])(N([H])C(=O)C([H])(N([H])C([H])([H])[H])C([H])([H])[H])C(C([H])([H])[H])(C([H])([H])[H])C([H])([H])[H])C([H])([H])c2c([H])c(OC([H])([H])C(C([H])([H])[H])(C([H])([H])[H])C([H])([H])C([H])([H])n3nnc(C([H])([H])C([H])([H])N([H])C(=O)N4C([H])([H])C([H])([H])C([H])([H])C([H])(n5nc(-c6c([H])c([H])c(Oc7c([H])c([H])c(F)c([H])c7F)c([H])c6[H])c(C(=O)N([H])[H])c5N([H])[H])C4([H])[H])c3[H])c([H])c([H])c2C1([H])[H]

$$$$
31:0:0
     RDKit          3D

 92100  0  0  1  0  0  0  0  0999 V2000
  -28.6150  -20.9550   17.5090 C   0  0  0  0  0  2  0  0  0  0  0  0
  -29.3760  -22.0470   17.8520 C   0  0  0  0  0  3  0  0  0  0  0  0
  -28.4880  -21.2140   19.6570 C   0  0  0  0  0  3  0  0  0  0  0  0
  -30.2810  -22.8590   16.9860 C   0  0  0  0  0  1  0  0  0  0  0  0
  -28.8930  -22.4250   19.0970 N   0  0  0  0  0  0  0  0  0  0  0  0
  -27.8770  -20.6470   18.6150 N   0  0  0  0  0  0  0  0  0  0  0  0
  -27.2950  -19.8210   18.6740 H   0  0  0  0  0  0  0  0  0  0  0  0
  -26.9190  -23.8350   18.3270 C   0  0  0  0  0  1  0  0  0  0  0  0
  -28.2570  -23.8700   19.1020 C   0  0  0  0  0  3  0  0  0  0  0  0
  -28.2070  -24.9190   20.3310 C   0  0  0  0  0  2  0  0  0  0  0  0
  -28.3100  -26.4170   20.1070 O   0  0  0  0  0  0  0  0  0  0  0  0
  -24.6220  -31.8760   23.2290 C   0  0  0  0  0  0  0  0  0  0  0  0
  -27.1930  -27.2820   20.1460 C   0  0  0  0  0  0  0  0  0  0  0  0
  -23.4100  -30.4880   21.5960 C   0  0  0  0  0  3  0  0  0  0  0  0
  -24.8460  -28.9420   20.1610 C   0  0  0  0  0  0  0  0  0  0  0  0
  -25.9580  -30.7930   21.3980 C   0  0  0  0  0  2  0  0  0  0  0  0
  -26.0310  -29.4170   20.7390 C   0  0  0  0  0  0  0  0  0  0  0  0
  -27.2130  -28.6100   20.7030 C   0  0  0  0  0  3  0  0  0  0  0  0
  -25.9690  -26.8650   19.5890 C   0  0  0  0  0  3  0  0  0  0  0  0
  -24.8220  -27.6730   19.5730 C   0  0  0  0  0  3  0  0  0  0  0  0
  -23.6150  -29.8240   20.2140 C   0  0  0  0  0  2  0  0  0  0  0  0
  -24.6840  -31.0690   22.1290 N   0  0  0  0  0  0  0  0  0  0  0  0
  -23.5400  -32.1510   23.7660 O   0  0  0  0  0  0  0  0  0  0  0  0
  -22.7500  -29.4650   22.5520 C   0  0  0  0  0  0  0  0  0  0  0  0
  -21.4250  -29.2830   22.4270 N   0  0  0  0  0  0  0  0  0  0  0  0
  -23.4320  -28.8370   23.3660 O   0  0  0  0  0  0  0  0  0  0  0  0
  -20.9350  -29.8380   21.7400 H   0  0  0  0  0  0  0  0  0  0  0  0
  -18.0500  -28.0750   22.9380 C   0  0  0  0  0  0  0  0  0  0  0  0
  -20.6080  -28.3430   23.1990 C   0  0  0  0  0  3  0  0  0  0  0  0
  -20.7120  -26.9110   22.6250 C   0  0  0  0  0  2  0  0  0  0  0  0
  -19.6080  -26.5870   21.6140 C   0  0  0  0  0  2  0  0  0  0  0  0
  -18.2270  -26.7280   22.2610 C   0  0  0  0  0  2  0  0  0  0  0  0
  -19.1670  -28.8410   23.3640 C   0  0  0  0  0  0  0  0  0  0  0  0
  -18.9460  -30.1030   23.9560 C   0  0  0  0  0  3  0  0  0  0  0  0
  -17.6390  -30.6010   24.1240 C   0  0  0  0  0  3  0  0  0  0  0  0
  -16.5360  -29.8320   23.7110 C   0  0  0  0  0  3  0  0  0  0  0  0
  -16.7430  -28.5720   23.1240 C   0  0  0  0  0  3  0  0  0  0  0  0
  -25.9040  -32.5080   23.8470 C   0  0  0  0  0  3  0  0  0  0  0  0
  -25.5920  -33.9050   24.1800 N   0  0  0  0  0  0  0  0  0  0  0  0
  -25.9200  -34.9600   23.4230 C   0  0  0  0  0  0  0  0  0  0  0  0
  -26.5860  -34.8620   22.3910 O   0  0  0  0  0  0  0  0  0  0  0  0
  -24.9950  -34.0550   24.9800 H   0  0  0  0  0  0  0  0  0  0  0  0
  -24.1900  -36.7560   23.0850 C   0  0  0  0  0  1  0  0  0  0  0  0
  -25.4330  -36.3480   23.8890 C   0  0  0  0  0  3  0  0  0  0  0  0
  -27.5690  -37.2310   24.7150 C   0  0  0  0  0  1  0  0  0  0  0  0
  -26.4650  -37.4010   23.7750 N   0  0  0  0  0  0  0  0  0  0  0  0
  -26.0610  -38.3220   23.9250 H   0  0  0  0  0  0  0  0  0  0  0  0
  -26.4210  -31.7360   25.1210 C   0  0  1  0  0  0  0  0  0  0  0  0
  -25.3310  -31.4970   26.1930 C   0  0  0  0  0  1  0  0  0  0  0  0
  -27.0030  -30.3590   24.7230 C   0  0  0  0  0  1  0  0  0  0  0  0
  -27.5760  -32.5280   25.7760 C   0  0  0  0  0  1  0  0  0  0  0  0
  -29.3700  -20.1070   20.3840 C   0  0  0  0  0  2  0  0  0  0  0  0
  -29.0010  -18.5080   20.3210 C   0  0  0  0  0  3  0  0  0  0  0  0
  -30.1260  -17.3570   20.5840 C   0  0  0  0  0  3  0  0  0  0  0  0
  -30.5560  -14.7530   20.3920 C   0  0  0  0  0  0  0  0  0  0  0  0
  -30.3830  -12.4870   19.3630 C   0  0  0  0  0  2  0  0  0  0  0  0
  -29.4430  -12.5970   18.1440 C   0  0  0  0  0  2  0  0  0  0  0  0
  -27.9730  -12.4150   18.5710 C   0  0  0  0  0  2  0  0  0  0  0  0
  -27.6020  -13.2710   19.8110 C   0  0  0  0  0  3  0  0  0  0  0  0
  -28.6610  -13.1530   20.9250 C   0  0  0  0  0  2  0  0  0  0  0  0
  -29.9530  -13.5190   20.3340 N   0  0  0  0  0  0  0  0  0  0  0  0
  -31.7440  -14.8760   20.0780 O   0  0  0  0  0  0  0  0  0  0  0  0
  -29.7560  -15.8700   20.5990 N   0  0  0  0  0  0  0  0  0  0  0  0
  -28.7940  -15.6600   20.8180 H   0  0  0  0  0  0  0  0  0  0  0  0
  -25.2130  -13.8510   20.5430 C   0  0  0  0  0  0  0  0  0  0  0  0
  -24.1520  -13.0700   20.9100 C   0  0  0  0  0  0  0  0  0  0  0  0
  -24.6210  -11.7210   20.8690 C   0  0  0  0  0  0  0  0  0  0  0  0
  -26.2590  -12.9770   20.2960 N   0  0  0  0  0  0  0  0  0  0  0  0
  -25.9110  -11.6910   20.5570 N   0  0  0  0  0  0  0  0  0  0  0  0
  -23.9010  -10.4550   21.0540 C   0  0  0  0  0  0  0  0  0  0  0  0
  -24.3380   -9.4840   21.9810 C   0  0  0  0  0  3  0  0  0  0  0  0
  -23.6150   -8.2830   22.1540 C   0  0  0  0  0  3  0  0  0  0  0  0
  -22.4400   -8.0460   21.3980 C   0  0  0  0  0  0  0  0  0  0  0  0
  -22.0220   -9.0080   20.4610 C   0  0  0  0  0  3  0  0  0  0  0  0
  -22.7460  -10.2000   20.2870 C   0  0  0  0  0  3  0  0  0  0  0  0
  -21.6950   -6.8930   21.4800 O   0  0  0  0  0  0  0  0  0  0  0  0
  -21.6480   -6.1440   22.6280 C   0  0  0  0  0  0  0  0  0  0  0  0
  -21.2160   -6.6870   23.8580 C   0  0  0  0  0  3  0  0  0  0  0  0
  -21.1220   -5.8650   24.9970 C   0  0  0  0  0  3  0  0  0  0  0  0
  -21.4430   -4.4970   24.9080 C   0  0  0  0  0  0  0  0  0  0  0  0
  -21.8640   -3.9500   23.6840 C   0  0  0  0  0  3  0  0  0  0  0  0
  -21.9660   -4.7710   22.5460 C   0  0  0  0  0  0  0  0  0  0  0  0
  -22.3530   -4.2370   21.3620 F   0  0  0  0  0  0  0  0  0  0  0  0
  -21.3450   -3.7030   25.9980 F   0  0  0  0  0  0  0  0  0  0  0  0
  -22.7550  -13.5380   21.1890 C   0  0  0  0  0  0  0  0  0  0  0  0
  -22.0290  -12.8310   22.0490 N   0  0  0  0  0  0  0  0  0  0  0  0
  -22.3130  -14.5660   20.6780 O   0  0  0  0  0  0  0  0  0  0  0  0
  -22.3930  -11.9980   22.4880 H   0  0  0  0  0  0  0  0  0  0  0  0
  -21.0880  -13.1280   22.2650 H   0  0  0  0  0  0  0  0  0  0  0  0
  -25.3670  -15.2240   20.3750 N   0  0  0  0  0  0  0  0  0  0  0  0
  -24.5820  -15.8610   20.4810 H   0  0  0  0  0  0  0  0  0  0  0  0
  -26.1810  -15.6640   19.9710 H   0  0  0  0  0  0  0  0  0  0  0  0
  1  2  1  0
  1  6  1  0
  2  4  1  0
  2  5  1  0
  3 52  1  0
  5  9  1  0
  5  3  1  0
  6  7  1  0
  6  3  1  0
  9  8  1  0
  9 10  1  0
 11 13  1  0
 11 10  1  0
 12 23  2  0
 13 18  1  0
 14 22  1  0
 14 24  1  0
 15 21  1  0
 15 17  1  0
 16 22  1  0
 17 16  1  0
 18 17  2  0
 19 13  2  0
 20 19  1  0
 20 15  2  0
 21 14  1  0
 22 12  1  0
 24 26  2  0
 25 24  1  0
 27 25  1  0
 28 37  2  0
 28 33  1  0
 29 25  1  0
 29 33  1  0
 30 29  1  0
 31 32  1  0
 31 30  1  0
 32 28  1  0
 33 34  2  0
 34 35  1  0
 36 35  2  0
 37 36  1  0
 38 12  1  0
 38 39  1  0
 38 48  1  0
 39 42  1  0
 40 44  1  0
 40 39  1  0
 41 40  2  0
 44 43  1  0
 46 44  1  0
 46 47  1  0
 46 45  1  0
 48 51  1  1
 48 49  1  0
 50 48  1  0
 53 52  1  0
 53 54  2  0
 54 63  1  0
 55 63  1  0
 56 61  1  0
 57 58  1  0
 57 56  1  0
 59 58  1  0
 59 68  1  0
 59 60  1  0
 61 55  1  0
 61 60  1  0
 62 55  2  0
 63 64  1  0
 65 66  2  0
 66 85  1  0
 67 66  1  0
 67 70  1  0
 68 65  1  0
 68 69  1  0
 69 67  2  0
 70 71  1  0
 71 72  2  0
 73 76  1  0
 73 72  1  0
 74 73  2  0
 75 74  1  0
 75 70  2  0
 76 77  1  0
 77 78  1  0
 78 79  2  0
 80 79  1  0
 80 84  1  0
 81 80  2  0
 82 77  2  0
 82 81  1  0
 83 82  1  0
 85 86  1  0
 86 89  1  0
 86 88  1  0
 87 85  2  0
 90 91  1  0
 90 65  1  0
 92 90  1  0
M  ISO  4  10 101  11 101  55 100  63 100
M  END
>  <TORSDO>  (31) 
F 21

>  <SCORE>  (31) 
-13.542

>  <name>  (31) 
31

>  <ligand_id>  (31) 
31

>  <original_smiles>  (31) 
[H]c1c([H])c([H])c2c(c1[H])C([H])([H])C([H])([H])C([H])([H])C2([H])N([H])C(=O)C1([H])N(C(=O)C([H])(N([H])C(=O)C([H])(N([H])C([H])([H])[H])C([H])([H])[H])C(C([H])([H])[H])(C([H])([H])[H])C([H])([H])[H])C([H])([H])c2c([H])c(OC([H])([H])C([H])(n3c(C([H])([H])[H])c([H])[n+]([H])c3C([H])([H])C([H])([H])C([H])([H])N([H])C(=O)N3C([H])([H])C([H])([H])C([H])([H])C([H])(n4nc(-c5c([H])c([H])c(Oc6c([H])c([H])c(F)c([H])c6F)c([H])c5[H])c(C(=O)N([H])[H])c4N([H])[H])C3([H])[H])C([H])([H])[H])c([H])c([H])c2C1([H])[H]

>  <smiles>  (31) 
[H]c1c([H])c([H])c2c(c1[H])C([H])([H])C([H])([H])C([H])([H])C2([H])N([H])C(=O)C1([H])N(C(=O)C([H])(N([H])C(=O)C([H])(N([H])C([H])([H])[H])C([H])([H])[H])C(C([H])([H])[H])(C([H])([H])[H])C([H])([H])[H])C([H])([H])c2c([H])c(OC([H])([H])C([H])(n3c(C([H])([H])[H])c([H])[n+]([H])c3C([H])([H])C([H])([H])C([H])([H])N([H])C(=O)N3C([H])([H])C([H])([H])C([H])([H])C([H])(n4nc(-c5c([H])c([H])c(Oc6c([H])c([H])c(F)c([H])c6F)c([H])c5[H])c(C(=O)N([H])[H])c4N([H])[H])C3([H])[H])C([H])([H])[H])c([H])c([H])c2C1([H])[H]

$$$$
32:0:0
     RDKit          3D

 93101  0  0  1  0  0  0  0  0999 V2000
  -27.9760  -21.9520   19.9100 C   0  0  0  0  0  3  0  0  0  0  0  0
  -28.7400  -19.8980   19.5860 C   0  0  0  0  0  3  0  0  0  0  0  0
  -27.7500  -20.7470   19.1990 C   0  0  0  0  0  0  0  0  0  0  0  0
  -29.0940  -21.8920   20.7060 C   0  0  0  0  0  0  0  0  0  0  0  0
  -29.6100  -20.4800   20.4950 N   0  0  0  0  0  0  0  0  0  0  0  0
  -25.6600  -21.6370   18.1030 C   0  0  0  0  0  1  0  0  0  0  0  0
  -25.8840  -19.1840   18.5540 C   0  0  0  0  0  1  0  0  0  0  0  0
  -27.3080  -20.2690   16.7990 C   0  0  0  0  0  1  0  0  0  0  0  0
  -26.6570  -20.4640   18.1780 C   0  0  2  0  0  0  0  0  0  0  0  0
  -30.9150  -23.6290   21.3450 C   0  0  0  0  0  1  0  0  0  0  0  0
  -29.4390  -23.2700   21.5400 C   0  0  0  0  0  3  0  0  0  0  0  0
  -28.5040  -24.6970   21.3260 C   0  0  0  0  0  2  0  0  0  0  0  0
  -28.8260  -26.2310   21.4750 O   0  0  0  0  0  0  0  0  0  0  0  0
  -25.1860  -32.2250   23.8770 C   0  0  0  0  0  0  0  0  0  0  0  0
  -27.8060  -27.2500   21.3130 C   0  0  0  0  0  0  0  0  0  0  0  0
  -24.0490  -30.7540   22.2610 C   0  0  0  0  0  3  0  0  0  0  0  0
  -25.5360  -29.0600   21.0260 C   0  0  0  0  0  0  0  0  0  0  0  0
  -26.6150  -30.9480   22.2340 C   0  0  0  0  0  2  0  0  0  0  0  0
  -26.6910  -29.5130   21.6770 C   0  0  0  0  0  0  0  0  0  0  0  0
  -27.8290  -28.6240   21.7990 C   0  0  0  0  0  3  0  0  0  0  0  0
  -26.6340  -26.9120   20.6020 C   0  0  0  0  0  3  0  0  0  0  0  0
  -25.5230  -27.7730   20.4710 C   0  0  0  0  0  3  0  0  0  0  0  0
  -24.3330  -29.9860   20.9430 C   0  0  0  0  0  2  0  0  0  0  0  0
  -25.3000  -31.3350   22.8450 N   0  0  0  0  0  0  0  0  0  0  0  0
  -24.0800  -32.5650   24.3210 O   0  0  0  0  0  0  0  0  0  0  0  0
  -23.2890  -29.8250   23.2420 C   0  0  0  0  0  0  0  0  0  0  0  0
  -22.0130  -29.5230   22.9410 N   0  0  0  0  0  0  0  0  0  0  0  0
  -23.8560  -29.3760   24.2400 O   0  0  0  0  0  0  0  0  0  0  0  0
  -21.6110  -29.9390   22.1120 H   0  0  0  0  0  0  0  0  0  0  0  0
  -18.6880  -28.0910   23.0820 C   0  0  0  0  0  0  0  0  0  0  0  0
  -21.1410  -28.6260   23.7040 C   0  0  0  0  0  3  0  0  0  0  0  0
  -21.4370  -27.1450   23.3740 C   0  0  0  0  0  2  0  0  0  0  0  0
  -20.5470  -26.5860   22.2590 C   0  0  0  0  0  2  0  0  0  0  0  0
  -19.0700  -26.6860   22.6490 C   0  0  0  0  0  2  0  0  0  0  0  0
  -19.6610  -29.0060   23.5630 C   0  0  0  0  0  0  0  0  0  0  0  0
  -19.2560  -30.3110   23.9220 C   0  0  0  0  0  3  0  0  0  0  0  0
  -17.9090  -30.7030   23.8080 C   0  0  0  0  0  3  0  0  0  0  0  0
  -16.9470  -29.7890   23.3450 C   0  0  0  0  0  3  0  0  0  0  0  0
  -17.3360  -28.4860   22.9880 C   0  0  0  0  0  3  0  0  0  0  0  0
  -26.4410  -32.8730   24.5370 C   0  0  0  0  0  3  0  0  0  0  0  0
  -26.1060  -34.2690   24.8640 N   0  0  0  0  0  0  0  0  0  0  0  0
  -26.3890  -35.3250   24.0910 C   0  0  0  0  0  0  0  0  0  0  0  0
  -27.0260  -35.2290   23.0370 O   0  0  0  0  0  0  0  0  0  0  0  0
  -25.5340  -34.4150   25.6820 H   0  0  0  0  0  0  0  0  0  0  0  0
  -24.5770  -37.0530   23.8310 C   0  0  0  0  0  1  0  0  0  0  0  0
  -25.8870  -36.7070   24.5550 C   0  0  0  0  0  3  0  0  0  0  0  0
  -28.0490  -37.6770   25.2020 C   0  0  0  0  0  1  0  0  0  0  0  0
  -26.8710  -37.7920   24.3470 N   0  0  0  0  0  0  0  0  0  0  0  0
  -26.4460  -38.7010   24.5120 H   0  0  0  0  0  0  0  0  0  0  0  0
  -26.9250  -32.1070   25.8300 C   0  0  1  0  0  0  0  0  0  0  0  0
  -25.7820  -31.7530   26.8110 C   0  0  0  0  0  1  0  0  0  0  0  0
  -27.6440  -30.7910   25.4550 C   0  0  0  0  0  1  0  0  0  0  0  0
  -27.9570  -32.9710   26.5940 C   0  0  0  0  0  1  0  0  0  0  0  0
  -30.8170  -19.5280   20.8430 C   0  0  0  0  0  2  0  0  0  0  0  0
  -30.6720  -18.0280   21.6560 C   0  0  0  0  0  2  0  0  0  0  0  0
  -31.0790  -15.3790   20.9100 C   0  0  0  0  0  0  0  0  0  0  0  0
  -30.9860  -13.1520   19.6840 C   0  0  0  0  0  2  0  0  0  0  0  0
  -30.1100  -13.2420   18.4130 C   0  0  0  0  0  2  0  0  0  0  0  0
  -28.6260  -13.0010   18.7540 C   0  0  0  0  0  2  0  0  0  0  0  0
  -28.1700  -13.7950   20.0050 C   0  0  0  0  0  3  0  0  0  0  0  0
  -29.1730  -13.6770   21.1710 C   0  0  0  0  0  2  0  0  0  0  0  0
  -30.4670  -14.1490   20.6630 N   0  0  0  0  0  0  0  0  0  0  0  0
  -32.3040  -15.4330   20.7560 O   0  0  0  0  0  0  0  0  0  0  0  0
  -30.3150  -16.5660   21.1320 N   0  0  0  0  0  0  0  0  0  0  0  0
  -29.3220  -16.3900   21.0960 H   0  0  0  0  0  0  0  0  0  0  0  0
  -25.7230  -14.3020   20.5500 C   0  0  0  0  0  0  0  0  0  0  0  0
  -24.6590  -13.4970   20.8500 C   0  0  0  0  0  0  0  0  0  0  0  0
  -25.1700  -12.1630   20.8810 C   0  0  0  0  0  0  0  0  0  0  0  0
  -26.8100  -13.4570   20.4080 N   0  0  0  0  0  0  0  0  0  0  0  0
  -26.4830  -12.1660   20.6760 N   0  0  0  0  0  0  0  0  0  0  0  0
  -24.4720  -10.8800   21.0360 C   0  0  0  0  0  0  0  0  0  0  0  0
  -24.8330   -9.9580   22.0440 C   0  0  0  0  0  3  0  0  0  0  0  0
  -24.1330   -8.7410   22.1850 C   0  0  0  0  0  3  0  0  0  0  0  0
  -23.0590   -8.4340   21.3150 C   0  0  0  0  0  0  0  0  0  0  0  0
  -22.7180   -9.3450   20.3000 C   0  0  0  0  0  3  0  0  0  0  0  0
  -23.4190  -10.5540   20.1580 C   0  0  0  0  0  3  0  0  0  0  0  0
  -22.3390   -7.2640   21.3620 O   0  0  0  0  0  0  0  0  0  0  0  0
  -22.1000   -6.6120   22.5450 C   0  0  0  0  0  0  0  0  0  0  0  0
  -21.4320   -7.2390   23.6190 C   0  0  0  0  0  3  0  0  0  0  0  0
  -21.1450   -6.5100   24.7910 C   0  0  0  0  0  3  0  0  0  0  0  0
  -21.5170   -5.1550   24.8860 C   0  0  0  0  0  0  0  0  0  0  0  0
  -22.1770   -4.5280   23.8150 C   0  0  0  0  0  3  0  0  0  0  0  0
  -22.4650   -5.2550   22.6470 C   0  0  0  0  0  0  0  0  0  0  0  0
  -23.0820   -4.6400   21.6090 F   0  0  0  0  0  0  0  0  0  0  0  0
  -21.2350   -4.4530   26.0090 F   0  0  0  0  0  0  0  0  0  0  0  0
  -23.2300  -13.9300   20.9950 C   0  0  0  0  0  0  0  0  0  0  0  0
  -22.4630  -13.2380   21.8300 N   0  0  0  0  0  0  0  0  0  0  0  0
  -22.8000  -14.9200   20.4050 O   0  0  0  0  0  0  0  0  0  0  0  0
  -22.8220  -12.4380   22.3280 H   0  0  0  0  0  0  0  0  0  0  0  0
  -21.5010  -13.5120   21.9720 H   0  0  0  0  0  0  0  0  0  0  0  0
  -25.8530  -15.6750   20.3570 N   0  0  0  0  0  0  0  0  0  0  0  0
  -25.0530  -16.2970   20.3870 H   0  0  0  0  0  0  0  0  0  0  0  0
  -26.6970  -16.1330   20.0410 H   0  0  0  0  0  0  0  0  0  0  0  0
  1  4  2  0
  2  5  1  0
  3  2  2  0
  3  1  1  0
  4 11  1  0
  5  4  1  0
  5 54  1  0
  9  6  1  6
  8  9  1  0
  9  7  1  0
  9  3  1  0
 11 10  1  0
 12 13  1  0
 12 11  1  0
 14 25  2  0
 15 13  1  0
 15 20  1  0
 16 24  1  0
 16 26  1  0
 17 19  1  0
 18 24  1  0
 19 20  2  0
 19 18  1  0
 21 15  2  0
 22 21  1  0
 22 17  2  0
 23 17  1  0
 23 16  1  0
 24 14  1  0
 26 28  2  0
 27 26  1  0
 29 27  1  0
 30 35  1  0
 31 27  1  0
 32 31  1  0
 33 34  1  0
 33 32  1  0
 34 30  1  0
 35 31  1  0
 35 36  2  0
 37 36  1  0
 38 37  2  0
 39 30  2  0
 39 38  1  0
 40 14  1  0
 40 41  1  0
 40 50  1  0
 41 44  1  0
 42 46  1  0
 42 41  1  0
 43 42  2  0
 46 45  1  0
 48 49  1  0
 48 46  1  0
 48 47  1  0
 50 53  1  1
 50 51  1  0
 52 50  1  0
 54 55  1  0
 56 64  1  0
 57 62  1  0
 58 59  1  0
 58 57  1  0
 60 59  1  0
 60 69  1  0
 60 61  1  0
 62 56  1  0
 62 61  1  0
 63 56  2  0
 64 55  1  0
 65 64  1  0
 66 67  2  0
 67 68  1  0
 67 86  1  0
 68 71  1  0
 69 66  1  0
 69 70  1  0
 70 68  2  0
 71 72  1  0
 72 73  2  0
 74 77  1  0
 74 73  1  0
 75 74  2  0
 76 75  1  0
 76 71  2  0
 77 78  1  0
 78 83  2  0
 78 79  1  0
 79 80  2  0
 80 81  1  0
 81 85  1  0
 82 81  2  0
 83 82  1  0
 84 83  1  0
 86 87  1  0
 87 90  1  0
 87 89  1  0
 88 86  2  0
 91 92  1  0
 91 66  1  0
 93 91  1  0
M  ISO  4  12 101  13 101  56 100  64 100
M  END
>  <TORSDO>  (32) 
F 21

>  <SCORE>  (32) 
-12.093

>  <name>  (32) 
32

>  <ligand_id>  (32) 
32

>  <original_smiles>  (32) 
[H]c1c([H])c([H])c2c(c1[H])C([H])([H])C([H])([H])C([H])([H])C2([H])N([H])C(=O)C1([H])N(C(=O)C([H])(N([H])C(=O)C([H])(N([H])C([H])([H])[H])C([H])([H])[H])C(C([H])([H])[H])(C([H])([H])[H])C([H])([H])[H])C([H])([H])c2c([H])c(OC([H])([H])C([H])(c3c([H])c(C(C([H])([H])[H])(C([H])([H])[H])C([H])([H])[H])c([H])n3C([H])([H])C([H])([H])N([H])C(=O)N3C([H])([H])C([H])([H])C([H])([H])C([H])(n4nc(-c5c([H])c([H])c(Oc6c([H])c([H])c(F)c([H])c6F)c([H])c5[H])c(C(=O)N([H])[H])c4N([H])[H])C3([H])[H])C([H])([H])[H])c([H])c([H])c2C1([H])[H]

>  <smiles>  (32) 
[H]c1c([H])c([H])c2c(c1[H])C([H])([H])C([H])([H])C([H])([H])C2([H])N([H])C(=O)C1([H])N(C(=O)C([H])(N([H])C(=O)C([H])(N([H])C([H])([H])[H])C([H])([H])[H])C(C([H])([H])[H])(C([H])([H])[H])C([H])([H])[H])C([H])([H])c2c([H])c(OC([H])([H])C([H])(c3c([H])c(C(C([H])([H])[H])(C([H])([H])[H])C([H])([H])[H])c([H])n3C([H])([H])C([H])([H])N([H])C(=O)N3C([H])([H])C([H])([H])C([H])([H])C([H])(n4nc(-c5c([H])c([H])c(Oc6c([H])c([H])c(F)c([H])c6F)c([H])c5[H])c(C(=O)N([H])[H])c4N([H])[H])C3([H])[H])C([H])([H])[H])c([H])c([H])c2C1([H])[H]

$$$$
33:0:0
     RDKit          3D

 93101  0  0  1  0  0  0  0  0999 V2000
  -29.4300  -19.8780   19.2260 C   0  0  0  0  0  3  0  0  0  0  0  0
  -29.1840  -19.1190   20.3490 C   0  0  0  0  0  0  0  0  0  0  0  0
  -27.9730  -20.9990   20.4780 C   0  0  0  0  0  3  0  0  0  0  0  0
  -27.0070  -22.0240   21.0040 C   0  0  0  0  0  1  0  0  0  0  0  0
  -28.6820  -21.0280   19.3370 N   0  0  0  0  0  0  0  0  0  0  0  0
  -28.2910  -19.8540   21.0880 N   0  0  0  0  0  0  0  0  0  0  0  0
  -27.9120  -19.5760   21.9850 H   0  0  0  0  0  0  0  0  0  0  0  0
  -30.4070  -17.8750   22.1500 C   0  0  0  0  0  1  0  0  0  0  0  0
  -29.6280  -17.7560   20.8280 C   0  0  0  0  0  3  0  0  0  0  0  0
  -30.4290  -16.9160   19.7980 C   0  0  0  0  0  2  0  0  0  0  0  0
  -31.1800  -14.5060   19.7310 C   0  0  0  0  0  0  0  0  0  0  0  0
  -30.8570  -12.2560   18.7800 C   0  0  0  0  0  2  0  0  0  0  0  0
  -29.8380  -12.3710   17.6240 C   0  0  0  0  0  2  0  0  0  0  0  0
  -28.3940  -12.2850   18.1590 C   0  0  0  0  0  2  0  0  0  0  0  0
  -28.1420  -13.2390   19.3570 C   0  0  0  0  0  3  0  0  0  0  0  0
  -29.2510  -13.0590   20.4210 C   0  0  0  0  0  2  0  0  0  0  0  0
  -30.5490  -13.3050   19.7620 N   0  0  0  0  0  0  0  0  0  0  0  0
  -32.2480  -14.7060   19.1430 O   0  0  0  0  0  0  0  0  0  0  0  0
  -30.4380  -15.5090   20.2210 N   0  0  0  0  0  0  0  0  0  0  0  0
  -29.6180  -15.2180   20.7300 H   0  0  0  0  0  0  0  0  0  0  0  0
  -25.8490  -13.9970   20.2460 C   0  0  0  0  0  0  0  0  0  0  0  0
  -24.7580  -13.2870   20.6810 C   0  0  0  0  0  0  0  0  0  0  0  0
  -25.1260  -11.9120   20.5900 C   0  0  0  0  0  0  0  0  0  0  0  0
  -26.8090  -13.0520   19.9260 N   0  0  0  0  0  0  0  0  0  0  0  0
  -26.3820  -11.7920   20.1870 N   0  0  0  0  0  0  0  0  0  0  0  0
  -24.3360  -10.6940   20.8090 C   0  0  0  0  0  0  0  0  0  0  0  0
  -24.7210   -9.7250   21.7630 C   0  0  0  0  0  3  0  0  0  0  0  0
  -23.9350   -8.5680   21.9640 C   0  0  0  0  0  3  0  0  0  0  0  0
  -22.7520   -8.3740   21.2120 C   0  0  0  0  0  0  0  0  0  0  0  0
  -22.3850   -9.3340   20.2520 C   0  0  0  0  0  3  0  0  0  0  0  0
  -23.1690  -10.4810   20.0500 C   0  0  0  0  0  3  0  0  0  0  0  0
  -21.9420   -7.2700   21.3220 O   0  0  0  0  0  0  0  0  0  0  0  0
  -21.7880   -6.6090   22.5140 C   0  0  0  0  0  0  0  0  0  0  0  0
  -21.2940   -7.2540   23.6670 C   0  0  0  0  0  3  0  0  0  0  0  0
  -21.0850   -6.5180   24.8500 C   0  0  0  0  0  3  0  0  0  0  0  0
  -21.3600   -5.1380   24.8790 C   0  0  0  0  0  0  0  0  0  0  0  0
  -21.8450   -4.4910   23.7300 C   0  0  0  0  0  3  0  0  0  0  0  0
  -22.0560   -5.2250   22.5470 C   0  0  0  0  0  0  0  0  0  0  0  0
  -22.5050   -4.5920   21.4380 F   0  0  0  0  0  0  0  0  0  0  0  0
  -21.1520   -4.4290   26.0150 F   0  0  0  0  0  0  0  0  0  0  0  0
  -23.4210  -13.8510   21.0610 C   0  0  0  0  0  0  0  0  0  0  0  0
  -22.7170  -13.1860   21.9710 N   0  0  0  0  0  0  0  0  0  0  0  0
  -23.0080  -14.9090   20.5930 O   0  0  0  0  0  0  0  0  0  0  0  0
  -23.0610  -12.3280   22.3760 H   0  0  0  0  0  0  0  0  0  0  0  0
  -21.8230  -13.5450   22.2720 H   0  0  0  0  0  0  0  0  0  0  0  0
  -26.0820  -15.3550   20.0670 N   0  0  0  0  0  0  0  0  0  0  0  0
  -25.3090  -16.0090   20.1370 H   0  0  0  0  0  0  0  0  0  0  0  0
  -26.8360  -15.7060   19.4870 H   0  0  0  0  0  0  0  0  0  0  0  0
  -28.6310  -22.1640   18.4020 C   0  0  0  0  0  2  0  0  0  0  0  0
  -29.4550  -23.3630   18.9320 C   0  0  0  0  0  2  0  0  0  0  0  0
  -28.6780  -24.6840   18.8890 C   0  0  0  0  0  2  0  0  0  0  0  0
  -29.2200  -25.7710   19.8350 C   0  0  0  0  0  2  0  0  0  0  0  0
  -28.9240  -27.0880   19.3940 O   0  0  0  0  0  0  0  0  0  0  0  0
  -24.5930  -31.4490   22.9590 C   0  0  0  0  0  0  0  0  0  0  0  0
  -27.6480  -27.5710   19.5440 C   0  0  0  0  0  0  0  0  0  0  0  0
  -23.5140  -30.0780   21.2030 C   0  0  0  0  0  3  0  0  0  0  0  0
  -25.1020  -28.7910   19.6850 C   0  0  0  0  0  0  0  0  0  0  0  0
  -25.9900  -30.6960   21.0410 C   0  0  0  0  0  2  0  0  0  0  0  0
  -26.2020  -29.3880   20.3130 C   0  0  0  0  0  0  0  0  0  0  0  0
  -27.4720  -28.7830   20.2440 C   0  0  0  0  0  3  0  0  0  0  0  0
  -26.5270  -26.9770   18.9210 C   0  0  0  0  0  3  0  0  0  0  0  0
  -25.2550  -27.5780   18.9920 C   0  0  0  0  0  3  0  0  0  0  0  0
  -23.7800  -29.5160   19.7800 C   0  0  0  0  0  2  0  0  0  0  0  0
  -24.7170  -30.7530   21.7940 N   0  0  0  0  0  0  0  0  0  0  0  0
  -23.4940  -31.5700   23.5170 O   0  0  0  0  0  0  0  0  0  0  0  0
  -22.9650  -28.9350   22.0830 C   0  0  0  0  0  0  0  0  0  0  0  0
  -21.6770  -28.6150   21.9000 N   0  0  0  0  0  0  0  0  0  0  0  0
  -23.6980  -28.3380   22.8740 O   0  0  0  0  0  0  0  0  0  0  0  0
  -21.1580  -29.1410   21.2080 H   0  0  0  0  0  0  0  0  0  0  0  0
  -18.4560  -27.0200   22.2100 C   0  0  0  0  0  0  0  0  0  0  0  0
  -20.9570  -27.5450   22.5860 C   0  0  0  0  0  3  0  0  0  0  0  0
  -21.2470  -26.1790   21.9200 C   0  0  0  0  0  2  0  0  0  0  0  0
  -20.2140  -25.8060   20.8510 C   0  0  0  0  0  2  0  0  0  0  0  0
  -18.8060  -25.7480   21.4540 C   0  0  0  0  0  2  0  0  0  0  0  0
  -19.4650  -27.8720   22.7340 C   0  0  0  0  0  0  0  0  0  0  0  0
  -19.0820  -29.0540   23.4030 C   0  0  0  0  0  3  0  0  0  0  0  0
  -17.7210  -29.3900   23.5540 C   0  0  0  0  0  3  0  0  0  0  0  0
  -16.7260  -28.5340   23.0500 C   0  0  0  0  0  3  0  0  0  0  0  0
  -17.0970  -27.3520   22.3840 C   0  0  0  0  0  3  0  0  0  0  0  0
  -25.8210  -32.1440   23.6300 C   0  0  0  0  0  3  0  0  0  0  0  0
  -25.3990  -33.4900   24.0390 N   0  0  0  0  0  0  0  0  0  0  0  0
  -25.6480  -34.6060   23.3400 C   0  0  0  0  0  0  0  0  0  0  0  0
  -26.3320  -34.6130   22.3150 O   0  0  0  0  0  0  0  0  0  0  0  0
  -24.7820  -33.5550   24.8360 H   0  0  0  0  0  0  0  0  0  0  0  0
  -23.7740  -36.2600   23.0690 C   0  0  0  0  0  1  0  0  0  0  0  0
  -25.0440  -35.9240   23.8660 C   0  0  0  0  0  3  0  0  0  0  0  0
  -27.0950  -36.9430   24.7530 C   0  0  0  0  0  1  0  0  0  0  0  0
  -25.9840  -37.0660   23.8110 N   0  0  0  0  0  0  0  0  0  0  0  0
  -25.5000  -37.9410   24.0010 H   0  0  0  0  0  0  0  0  0  0  0  0
  -26.3890  -31.3450   24.8670 C   0  0  1  0  0  0  0  0  0  0  0  0
  -25.3150  -30.9570   25.9110 C   0  0  0  0  0  1  0  0  0  0  0  0
  -27.0820  -30.0450   24.4030 C   0  0  0  0  0  1  0  0  0  0  0  0
  -27.4660  -32.1900   25.5910 C   0  0  0  0  0  1  0  0  0  0  0  0
  1  5  1  0
  1  2  2  0
  2  9  1  0
  2  6  1  0
  3  4  1  0
  3  6  1  0
  5  3  1  0
  6  7  1  0
  9  8  1  0
 10 19  1  0
 10  9  1  0
 11 17  1  0
 11 19  1  0
 12 17  1  0
 13 14  1  0
 13 12  1  0
 15 14  1  0
 15 24  1  0
 15 16  1  0
 17 16  1  0
 18 11  2  0
 19 20  1  0
 21 22  2  0
 22 41  1  0
 23 22  1  0
 23 26  1  0
 24 25  1  0
 24 21  1  0
 25 23  2  0
 26 27  1  0
 27 28  2  0
 29 32  1  0
 29 28  1  0
 30 29  2  0
 31 30  1  0
 31 26  2  0
 32 33  1  0
 33 38  2  0
 33 34  1  0
 34 35  2  0
 35 36  1  0
 36 40  1  0
 37 36  2  0
 38 37  1  0
 39 38  1  0
 41 42  1  0
 42 45  1  0
 42 44  1  0
 43 41  2  0
 46 47  1  0
 46 21  1  0
 48 46  1  0
 49 50  1  0
 49  5  1  0
 51 50  1  0
 51 52  1  0
 53 55  1  0
 53 52  1  0
 54 65  2  0
 55 60  1  0
 56 64  1  0
 56 66  1  0
 57 63  1  0
 57 59  1  0
 58 64  1  0
 59 58  1  0
 60 59  2  0
 61 62  1  0
 61 55  2  0
 62 57  2  0
 63 56  1  0
 64 54  1  0
 66 68  2  0
 67 66  1  0
 69 67  1  0
 70 79  2  0
 70 75  1  0
 71 67  1  0
 71 75  1  0
 72 71  1  0
 73 74  1  0
 73 72  1  0
 74 70  1  0
 75 76  2  0
 76 77  1  0
 78 77  2  0
 79 78  1  0
 80 54  1  0
 80 81  1  0
 80 90  1  0
 81 84  1  0
 82 86  1  0
 82 81  1  0
 83 82  2  0
 86 85  1  0
 88 86  1  0
 88 89  1  0
 88 87  1  0
 90 93  1  1
 90 91  1  0
 92 90  1  0
M  ISO  4  11 100  19 100  52 101  53 101
M  END
>  <TORSDO>  (33) 
F 22

>  <SCORE>  (33) 
-11.031

>  <name>  (33) 
33

>  <ligand_id>  (33) 
33

>  <original_smiles>  (33) 
[H]c1c([H])c([H])c2c(c1[H])C([H])([H])C([H])([H])C([H])([H])C2([H])N([H])C(=O)C1([H])N(C(=O)C([H])(N([H])C(=O)C([H])(N([H])C([H])([H])[H])C([H])([H])[H])C(C([H])([H])[H])(C([H])([H])[H])C([H])([H])[H])C([H])([H])c2c([H])c(OC([H])([H])C([H])([H])C([H])([H])C([H])([H])n3c([H])c(C([H])(C([H])([H])[H])C([H])([H])N([H])C(=O)N4C([H])([H])C([H])([H])C([H])([H])C([H])(n5nc(-c6c([H])c([H])c(Oc7c([H])c([H])c(F)c([H])c7F)c([H])c6[H])c(C(=O)N([H])[H])c5N([H])[H])C4([H])[H])[n+]([H])c3C([H])([H])[H])c([H])c([H])c2C1([H])[H]

>  <smiles>  (33) 
[H]c1c([H])c([H])c2c(c1[H])C([H])([H])C([H])([H])C([H])([H])C2([H])N([H])C(=O)C1([H])N(C(=O)C([H])(N([H])C(=O)C([H])(N([H])C([H])([H])[H])C([H])([H])[H])C(C([H])([H])[H])(C([H])([H])[H])C([H])([H])[H])C([H])([H])c2c([H])c(OC([H])([H])C([H])([H])C([H])([H])C([H])([H])n3c([H])c(C([H])(C([H])([H])[H])C([H])([H])N([H])C(=O)N4C([H])([H])C([H])([H])C([H])([H])C([H])(n5nc(-c6c([H])c([H])c(Oc7c([H])c([H])c(F)c([H])c7F)c([H])c6[H])c(C(=O)N([H])[H])c5N([H])[H])C4([H])[H])[n+]([H])c3C([H])([H])[H])c([H])c([H])c2C1([H])[H]

$$$$
34:0:0
     RDKit          3D

100108  0  0  1  0  0  0  0  0999 V2000
  -29.4200  -19.7140   19.2730 C   0  0  0  0  0  3  0  0  0  0  0  0
  -30.5270  -21.3240   20.3160 C   0  0  0  0  0  3  0  0  0  0  0  0
  -29.5470  -21.1460   19.3780 C   0  0  0  0  0  0  0  0  0  0  0  0
  -30.3010  -19.0730   20.1250 C   0  0  0  0  0  0  0  0  0  0  0  0
  -30.9550  -20.1000   20.8180 N   0  0  0  0  0  0  0  0  0  0  0  0
  -28.0000  -21.6890   17.4590 C   0  0  0  0  0  1  0  0  0  0  0  0
  -27.6720  -22.7530   19.7040 C   0  0  0  0  0  1  0  0  0  0  0  0
  -28.7240  -22.2710   18.6880 C   0  0  1  0  0  0  0  0  0  0  0  0
  -29.6070  -23.4960   18.2350 C   0  0  0  0  0  2  0  0  0  0  0  0
  -29.1860  -24.9680   18.6080 C   0  0  0  0  0  2  0  0  0  0  0  0
  -28.1650  -25.6940   17.6900 C   0  0  0  0  0  2  0  0  0  0  0  0
  -28.0340  -27.1020   18.0110 O   0  0  0  0  0  0  0  0  0  0  0  0
  -24.4490  -31.0590   22.7410 C   0  0  0  0  0  0  0  0  0  0  0  0
  -26.8120  -27.6790   18.3300 C   0  0  0  0  0  0  0  0  0  0  0  0
  -23.0750  -29.9650   21.0010 C   0  0  0  0  0  3  0  0  0  0  0  0
  -24.3650  -28.9380   19.0540 C   0  0  0  0  0  0  0  0  0  0  0  0
  -25.5160  -30.5900   20.5340 C   0  0  0  0  0  2  0  0  0  0  0  0
  -25.5740  -29.4090   19.5800 C   0  0  0  0  0  0  0  0  0  0  0  0
  -26.7940  -28.7840   19.2240 C   0  0  0  0  0  3  0  0  0  0  0  0
  -25.5770  -27.2430   17.7970 C   0  0  0  0  0  3  0  0  0  0  0  0
  -24.3640  -27.8520   18.1630 C   0  0  0  0  0  3  0  0  0  0  0  0
  -23.1000  -29.6460   19.4830 C   0  0  0  0  0  2  0  0  0  0  0  0
  -24.3730  -30.5410   21.4810 N   0  0  0  0  0  0  0  0  0  0  0  0
  -23.4540  -31.0930   23.4790 O   0  0  0  0  0  0  0  0  0  0  0  0
  -22.6480  -28.6910   21.7690 C   0  0  0  0  0  0  0  0  0  0  0  0
  -21.3470  -28.3670   21.7110 N   0  0  0  0  0  0  0  0  0  0  0  0
  -23.4790  -28.0110   22.3790 O   0  0  0  0  0  0  0  0  0  0  0  0
  -20.7330  -28.9790   21.1940 H   0  0  0  0  0  0  0  0  0  0  0  0
  -18.2190  -26.5900   22.0940 C   0  0  0  0  0  0  0  0  0  0  0  0
  -20.7250  -27.1900   22.3190 C   0  0  0  0  0  3  0  0  0  0  0  0
  -21.0010  -25.9210   21.4830 C   0  0  0  0  0  2  0  0  0  0  0  0
  -19.8990  -25.6140   20.4670 C   0  0  0  0  0  2  0  0  0  0  0  0
  -18.5510  -25.4250   21.1730 C   0  0  0  0  0  2  0  0  0  0  0  0
  -19.2400  -27.4290   22.6170 C   0  0  0  0  0  0  0  0  0  0  0  0
  -18.8820  -28.5150   23.4430 C   0  0  0  0  0  3  0  0  0  0  0  0
  -17.5310  -28.7750   23.7420 C   0  0  0  0  0  3  0  0  0  0  0  0
  -16.5270  -27.9330   23.2340 C   0  0  0  0  0  3  0  0  0  0  0  0
  -16.8700  -26.8400   22.4180 C   0  0  0  0  0  3  0  0  0  0  0  0
  -25.7790  -31.6480   23.3040 C   0  0  0  0  0  3  0  0  0  0  0  0
  -26.4760  -30.7030   24.3600 C   0  0  1  0  0  0  0  0  0  0  0  0
  -25.5390  -30.2480   25.5040 C   0  0  0  0  0  1  0  0  0  0  0  0
  -27.0310  -29.4330   23.6710 C   0  0  0  0  0  1  0  0  0  0  0  0
  -27.6870  -31.4290   24.9930 C   0  0  0  0  0  1  0  0  0  0  0  0
  -25.4630  -32.9520   23.9030 N   0  0  0  0  0  0  0  0  0  0  0  0
  -25.7360  -34.1320   23.3330 C   0  0  0  0  0  0  0  0  0  0  0  0
  -26.3480  -34.2340   22.2650 O   0  0  0  0  0  0  0  0  0  0  0  0
  -24.9150  -32.9400   24.7510 H   0  0  0  0  0  0  0  0  0  0  0  0
  -23.9810  -35.9320   23.3790 C   0  0  0  0  0  1  0  0  0  0  0  0
  -25.2530  -35.4030   24.0580 C   0  0  0  0  0  3  0  0  0  0  0  0
  -27.3970  -36.1590   24.9820 C   0  0  0  0  0  1  0  0  0  0  0  0
  -26.2710  -36.4750   24.1090 N   0  0  0  0  0  0  0  0  0  0  0  0
  -25.8590  -37.3490   24.4230 H   0  0  0  0  0  0  0  0  0  0  0  0
  -30.5760  -17.5670   20.3640 C   0  0  0  0  0  2  0  0  0  0  0  0
  -33.0770  -17.7160   19.8430 C   0  0  0  0  0  1  0  0  0  0  0  0
  -31.7550  -16.9500   19.5260 C   0  0  1  0  0  0  0  0  0  0  0  0
  -32.1270  -15.4030   19.5200 C   0  0  0  0  0  0  0  0  0  0  0  0
  -31.7010  -13.0300   18.9950 C   0  0  0  0  0  2  0  0  0  0  0  0
  -30.7580  -12.9250   17.7820 C   0  0  0  0  0  2  0  0  0  0  0  0
  -29.2990  -12.8680   18.2670 C   0  0  0  0  0  2  0  0  0  0  0  0
  -28.9700  -13.9660   19.3110 C   0  0  0  0  0  3  0  0  0  0  0  0
  -30.0680  -14.1130   20.3920 C   0  0  0  0  0  2  0  0  0  0  0  0
  -31.3620  -14.2750   19.7210 N   0  0  0  0  0  0  0  0  0  0  0  0
  -33.2680  -15.2430   19.0830 O   0  0  0  0  0  0  0  0  0  0  0  0
  -26.7210  -14.7110   20.2790 C   0  0  0  0  0  0  0  0  0  0  0  0
  -25.6160  -14.0140   20.6840 C   0  0  0  0  0  0  0  0  0  0  0  0
  -25.9410  -12.6310   20.5300 C   0  0  0  0  0  0  0  0  0  0  0  0
  -27.6480  -13.7610   19.8940 N   0  0  0  0  0  0  0  0  0  0  0  0
  -27.1950  -12.4990   20.1100 N   0  0  0  0  0  0  0  0  0  0  0  0
  -25.1110  -11.4310   20.7030 C   0  0  0  0  0  0  0  0  0  0  0  0
  -25.4260  -10.4430   21.6630 C   0  0  0  0  0  3  0  0  0  0  0  0
  -24.6000   -9.3100   21.8230 C   0  0  0  0  0  3  0  0  0  0  0  0
  -23.4460   -9.1540   21.0210 C   0  0  0  0  0  0  0  0  0  0  0  0
  -23.1490  -10.1280   20.0500 C   0  0  0  0  0  3  0  0  0  0  0  0
  -23.9750  -11.2530   19.8890 C   0  0  0  0  0  3  0  0  0  0  0  0
  -22.6010   -8.0740   21.0880 O   0  0  0  0  0  0  0  0  0  0  0  0
  -22.3090   -7.4580   22.2790 C   0  0  0  0  0  0  0  0  0  0  0  0
  -21.6710   -8.1460   23.3340 C   0  0  0  0  0  3  0  0  0  0  0  0
  -21.3260   -7.4570   24.5150 C   0  0  0  0  0  3  0  0  0  0  0  0
  -21.6120   -6.0840   24.6390 C   0  0  0  0  0  0  0  0  0  0  0  0
  -22.2460   -5.3980   23.5880 C   0  0  0  0  0  3  0  0  0  0  0  0
  -22.5910   -6.0840   22.4090 C   0  0  0  0  0  0  0  0  0  0  0  0
  -23.1780   -5.4110   21.3900 F   0  0  0  0  0  0  0  0  0  0  0  0
  -21.2780   -5.4210   25.7710 F   0  0  0  0  0  0  0  0  0  0  0  0
  -24.2970  -14.5970   21.0990 C   0  0  0  0  0  0  0  0  0  0  0  0
  -23.5830  -13.9170   21.9870 N   0  0  0  0  0  0  0  0  0  0  0  0
  -23.9130  -15.6850   20.6700 O   0  0  0  0  0  0  0  0  0  0  0  0
  -23.9140  -13.0350   22.3480 H   0  0  0  0  0  0  0  0  0  0  0  0
  -22.6970  -14.2790   22.3070 H   0  0  0  0  0  0  0  0  0  0  0  0
  -27.0040  -16.0680   20.1810 N   0  0  0  0  0  0  0  0  0  0  0  0
  -26.3320  -16.7790   20.4440 H   0  0  0  0  0  0  0  0  0  0  0  0
  -27.8430  -16.4570   19.7710 H   0  0  0  0  0  0  0  0  0  0  0  0
  -31.4410  -17.2260   18.1040 N   0  0  0  0  0  4  0  0  0  0  0  0
  -31.3150  -18.2080   17.9360 H   0  0  0  0  0  0  0  0  0  0  0  0
  -30.6190  -16.7280   17.8070 H   0  0  0  0  0  0  0  0  0  0  0  0
  -32.2120  -16.8750   17.5590 H   0  0  0  0  0  0  0  0  0  0  0  0
  -31.9610  -19.9350   21.8730 C   0  0  0  0  0  2  0  0  0  0  0  0
  -32.0420  -21.1000   22.8810 C   0  0  0  0  0  2  0  0  0  0  0  0
  -29.8050  -20.7170   24.0530 C   0  0  0  0  0  1  0  0  0  0  0  0
  -31.6910  -21.8610   25.2810 C   0  0  0  0  0  1  0  0  0  0  0  0
  -31.3310  -20.8080   24.2210 C   0  0  0  0  0  3  0  0  0  0  0  0
  1  3  1  0
  1  4  2  0
  2  5  1  0
  3  2  2  0
  4 53  1  0
  4  5  1  0
  5 96  1  0
  8  6  1  6
  8  3  1  0
  8  7  1  0
  9 10  1  0
  9  8  1  0
 11 12  1  0
 11 10  1  0
 12 14  1  0
 13 24  2  0
 14 19  1  0
 15 23  1  0
 15 25  1  0
 16 22  1  0
 16 18  1  0
 17 23  1  0
 18 17  1  0
 19 18  2  0
 20 21  1  0
 20 14  2  0
 21 16  2  0
 22 15  1  0
 23 13  1  0
 25 27  2  0
 26 25  1  0
 28 26  1  0
 29 38  2  0
 29 34  1  0
 30 26  1  0
 30 34  1  0
 31 30  1  0
 32 33  1  0
 32 31  1  0
 33 29  1  0
 34 35  2  0
 35 36  1  0
 37 36  2  0
 38 37  1  0
 39 13  1  0
 39 44  1  0
 39 40  1  0
 40 43  1  1
 40 41  1  0
 42 40  1  0
 44 47  1  0
 45 44  1  0
 45 49  1  0
 46 45  2  0
 49 48  1  0
 49 51  1  0
 51 52  1  0
 51 50  1  0
 55 54  1  1
 55 53  1  0
 56 55  1  0
 56 62  1  0
 57 62  1  0
 58 59  1  0
 58 57  1  0
 60 59  1  0
 60 67  1  0
 60 61  1  0
 62 61  1  0
 63 56  2  0
 64 65  2  0
 65 84  1  0
 66 65  1  0
 66 69  1  0
 67 68  1  0
 67 64  1  0
 68 66  2  0
 69 70  1  0
 70 71  2  0
 72 75  1  0
 72 71  1  0
 73 72  2  0
 74 73  1  0
 74 69  2  0
 75 76  1  0
 76 81  2  0
 76 77  1  0
 77 78  2  0
 78 79  1  0
 79 83  1  0
 80 79  2  0
 81 80  1  0
 82 81  1  0
 84 85  1  0
 85 88  1  0
 85 87  1  0
 86 84  2  0
 89 64  1  0
 89 90  1  0
 91 89  1  0
 92 55  1  0
 93 92  1  0
 94 92  1  0
 95 92  1  0
 96 97  1  0
 97100  1  0
 98100  1  0
100 99  1  0
M  ISO  4  11 101  12 101  55 100  56 100
M  END
>  <TORSDO>  (34) 
F 26

>  <SCORE>  (34) 
-7.592

>  <name>  (34) 
34

>  <ligand_id>  (34) 
34

>  <original_smiles>  (34) 
[H]c1c([H])c([H])c2c(c1[H])C([H])([H])C([H])([H])C([H])([H])C2([H])N([H])C(=O)C1([H])N(C(=O)C([H])(N([H])C(=O)C([H])(N([H])C([H])([H])[H])C([H])([H])[H])C(C([H])([H])[H])(C([H])([H])[H])C([H])([H])[H])C([H])([H])c2c([H])c(OC([H])([H])C([H])([H])C([H])([H])C(c3c([H])c(C([H])([H])C(C(=O)N4C([H])([H])C([H])([H])C([H])([H])C([H])(n5nc(-c6c([H])c([H])c(Oc7c([H])c([H])c(F)c([H])c7F)c([H])c6[H])c(C(=O)N([H])[H])c5N([H])[H])C4([H])[H])(C([H])([H])[H])[N+]([H])([H])[H])n(C([H])([H])C([H])([H])C([H])(C([H])([H])[H])C([H])([H])[H])c3[H])(C([H])([H])[H])C([H])([H])[H])c([H])c([H])c2C1([H])[H]

>  <smiles>  (34) 
[H]c1c([H])c([H])c2c(c1[H])C([H])([H])C([H])([H])C([H])([H])C2([H])N([H])C(=O)C1([H])N(C(=O)C([H])(N([H])C(=O)C([H])(N([H])C([H])([H])[H])C([H])([H])[H])C(C([H])([H])[H])(C([H])([H])[H])C([H])([H])[H])C([H])([H])c2c([H])c(OC([H])([H])C([H])([H])C([H])([H])C(c3c([H])c(C([H])([H])C(C(=O)N4C([H])([H])C([H])([H])C([H])([H])C([H])(n5nc(-c6c([H])c([H])c(Oc7c([H])c([H])c(F)c([H])c7F)c([H])c6[H])c(C(=O)N([H])[H])c5N([H])[H])C4([H])[H])(C([H])([H])[H])[N+]([H])([H])[H])n(C([H])([H])C([H])([H])C([H])(C([H])([H])[H])C([H])([H])[H])c3[H])(C([H])([H])[H])C([H])([H])[H])c([H])c([H])c2C1([H])[H]

$$$$
35:0:0
     RDKit          3D

 95103  0  0  1  0  0  0  0  0999 V2000
  -30.5720  -18.6730   19.8220 C   0  0  0  0  0  3  0  0  0  0  0  0
  -30.5710  -20.0890   19.5950 C   0  0  0  0  0  3  0  0  0  0  0  0
  -29.3690  -17.9390   20.0450 C   0  0  0  0  0  0  0  0  0  0  0  0
  -29.3650  -20.8350   19.5780 C   0  0  0  0  0  0  0  0  0  0  0  0
  -28.2020  -18.8010   20.0160 C   0  0  0  0  0  0  0  0  0  0  0  0
  -26.7740  -18.3600   20.2830 C   0  0  0  0  0  1  0  0  0  0  0  0
  -28.2210  -20.1500   19.7850 N   0  0  0  0  0  0  0  0  0  0  0  0
  -29.2470  -22.3390   19.0810 C   0  0  0  0  0  2  0  0  0  0  0  0
  -29.0600  -23.6150   20.0460 C   0  0  0  0  0  3  0  0  0  0  0  0
  -28.5270  -24.9680   19.3470 C   0  0  0  0  0  3  0  0  0  0  0  0
  -28.5360  -26.3260   19.9980 O   0  0  0  0  0  0  0  0  0  0  0  0
  -24.6370  -31.6180   23.0730 C   0  0  0  0  0  0  0  0  0  0  0  0
  -27.4130  -27.1860   19.9150 C   0  0  0  0  0  0  0  0  0  0  0  0
  -23.4980  -30.2440   21.3680 C   0  0  0  0  0  3  0  0  0  0  0  0
  -25.0150  -28.7800   19.9130 C   0  0  0  0  0  0  0  0  0  0  0  0
  -26.0390  -30.6080   21.2590 C   0  0  0  0  0  2  0  0  0  0  0  0
  -26.1600  -29.2530   20.5660 C   0  0  0  0  0  0  0  0  0  0  0  0
  -27.3560  -28.4630   20.5700 C   0  0  0  0  0  3  0  0  0  0  0  0
  -26.2530  -26.8060   19.1980 C   0  0  0  0  0  3  0  0  0  0  0  0
  -25.0670  -27.5640   19.2200 C   0  0  0  0  0  3  0  0  0  0  0  0
  -23.7590  -29.6320   19.9670 C   0  0  0  0  0  2  0  0  0  0  0  0
  -24.7410  -30.8390   21.9570 N   0  0  0  0  0  0  0  0  0  0  0  0
  -23.5380  -31.8540   23.5950 O   0  0  0  0  0  0  0  0  0  0  0  0
  -22.8480  -29.1770   22.2800 C   0  0  0  0  0  0  0  0  0  0  0  0
  -21.5240  -28.9920   22.1510 N   0  0  0  0  0  0  0  0  0  0  0  0
  -23.5340  -28.5200   23.0680 O   0  0  0  0  0  0  0  0  0  0  0  0
  -21.0250  -29.5740   21.4920 H   0  0  0  0  0  0  0  0  0  0  0  0
  -18.1540  -27.7760   22.6610 C   0  0  0  0  0  0  0  0  0  0  0  0
  -20.7200  -28.0140   22.8870 C   0  0  0  0  0  3  0  0  0  0  0  0
  -20.8020  -26.6150   22.2340 C   0  0  0  0  0  2  0  0  0  0  0  0
  -19.6780  -26.3520   21.2260 C   0  0  0  0  0  2  0  0  0  0  0  0
  -18.3110  -26.4660   21.9070 C   0  0  0  0  0  2  0  0  0  0  0  0
  -19.2850  -28.5100   23.1090 C   0  0  0  0  0  0  0  0  0  0  0  0
  -19.0850  -29.7360   23.7780 C   0  0  0  0  0  3  0  0  0  0  0  0
  -17.7870  -30.2320   24.0000 C   0  0  0  0  0  3  0  0  0  0  0  0
  -16.6710  -29.4960   23.5650 C   0  0  0  0  0  3  0  0  0  0  0  0
  -16.8550  -28.2710   22.9030 C   0  0  0  0  0  3  0  0  0  0  0  0
  -25.8930  -32.2650   23.7320 C   0  0  0  0  0  3  0  0  0  0  0  0
  -25.5460  -33.6510   24.0830 N   0  0  0  0  0  0  0  0  0  0  0  0
  -25.8640  -34.7250   23.3480 C   0  0  0  0  0  0  0  0  0  0  0  0
  -26.5530  -34.6580   22.3270 O   0  0  0  0  0  0  0  0  0  0  0  0
  -24.9420  -33.7750   24.8820 H   0  0  0  0  0  0  0  0  0  0  0  0
  -24.1050  -36.4880   22.9880 C   0  0  0  0  0  1  0  0  0  0  0  0
  -25.3340  -36.0920   23.8230 C   0  0  0  0  0  3  0  0  0  0  0  0
  -27.4280  -37.0060   24.7220 C   0  0  0  0  0  1  0  0  0  0  0  0
  -26.3440  -37.1700   23.7580 N   0  0  0  0  0  0  0  0  0  0  0  0
  -25.9140  -38.0770   23.9170 H   0  0  0  0  0  0  0  0  0  0  0  0
  -26.4000  -31.4820   25.0050 C   0  0  1  0  0  0  0  0  0  0  0  0
  -25.2880  -31.1950   26.0390 C   0  0  0  0  0  1  0  0  0  0  0  0
  -27.0300  -30.1280   24.6070 C   0  0  0  0  0  1  0  0  0  0  0  0
  -27.5110  -32.2930   25.7120 C   0  0  0  0  0  1  0  0  0  0  0  0
  -29.3940  -16.3810   20.5040 C   0  0  0  0  0  3  0  0  0  0  0  0
  -30.3910  -14.2570   19.0840 C   0  0  0  0  0  0  0  0  0  0  0  0
  -30.0660  -11.8800   18.3660 C   0  0  0  0  0  2  0  0  0  0  0  0
  -28.9540  -11.7720   17.2980 C   0  0  0  0  0  2  0  0  0  0  0  0
  -27.5770  -11.6020   17.9670 C   0  0  0  0  0  2  0  0  0  0  0  0
  -27.3530  -12.6240   19.1100 C   0  0  0  0  0  3  0  0  0  0  0  0
  -28.5730  -12.6830   20.0530 C   0  0  0  0  0  2  0  0  0  0  0  0
  -29.7750  -13.0290   19.2780 N   0  0  0  0  0  0  0  0  0  0  0  0
  -31.2470  -14.3260   18.1950 O   0  0  0  0  0  0  0  0  0  0  0  0
  -31.7620  -15.7040   20.4090 C   0  0  0  0  0  1  0  0  0  0  0  0
  -30.3890  -15.2920   20.0250 N   0  0  0  0  0  0  0  0  0  0  0  0
  -25.1790  -13.2580   20.3220 C   0  0  0  0  0  0  0  0  0  0  0  0
  -24.1780  -12.5040   20.8730 C   0  0  0  0  0  0  0  0  0  0  0  0
  -24.5650  -11.1400   20.6870 C   0  0  0  0  0  0  0  0  0  0  0  0
  -26.1150  -12.3580   19.8420 N   0  0  0  0  0  0  0  0  0  0  0  0
  -25.7630  -11.0750   20.1200 N   0  0  0  0  0  0  0  0  0  0  0  0
  -23.8370   -9.8940   20.9650 C   0  0  0  0  0  0  0  0  0  0  0  0
  -24.3650   -8.9010   21.8200 C   0  0  0  0  0  3  0  0  0  0  0  0
  -23.6360   -7.7250   22.0870 C   0  0  0  0  0  3  0  0  0  0  0  0
  -22.3630   -7.5280   21.5000 C   0  0  0  0  0  0  0  0  0  0  0  0
  -21.8510   -8.5070   20.6310 C   0  0  0  0  0  3  0  0  0  0  0  0
  -22.5830   -9.6760   20.3620 C   0  0  0  0  0  3  0  0  0  0  0  0
  -21.5980   -6.4010   21.6810 O   0  0  0  0  0  0  0  0  0  0  0  0
  -21.6330   -5.6860   22.8520 C   0  0  0  0  0  0  0  0  0  0  0  0
  -21.3180   -6.2790   24.0940 C   0  0  0  0  0  3  0  0  0  0  0  0
  -21.2970   -5.4940   25.2640 C   0  0  0  0  0  3  0  0  0  0  0  0
  -21.5850   -4.1180   25.1930 C   0  0  0  0  0  0  0  0  0  0  0  0
  -21.8910   -3.5240   23.9550 C   0  0  0  0  0  3  0  0  0  0  0  0
  -21.9140   -4.3070   22.7880 C   0  0  0  0  0  0  0  0  0  0  0  0
  -22.1920   -3.7270   21.5950 F   0  0  0  0  0  0  0  0  0  0  0  0
  -21.5560   -3.3620   26.3140 F   0  0  0  0  0  0  0  0  0  0  0  0
  -22.8860  -13.0130   21.4460 C   0  0  0  0  0  0  0  0  0  0  0  0
  -22.3190  -12.3020   22.4130 N   0  0  0  0  0  0  0  0  0  0  0  0
  -22.3920  -14.0740   21.0660 O   0  0  0  0  0  0  0  0  0  0  0  0
  -22.7380  -11.4460   22.7480 H   0  0  0  0  0  0  0  0  0  0  0  0
  -21.4540  -12.6220   22.8290 H   0  0  0  0  0  0  0  0  0  0  0  0
  -25.3620  -14.6290   20.1700 N   0  0  0  0  0  0  0  0  0  0  0  0
  -24.5920  -15.2680   20.3360 H   0  0  0  0  0  0  0  0  0  0  0  0
  -26.0840  -15.0300   19.5840 H   0  0  0  0  0  0  0  0  0  0  0  0
  -28.1150  -15.7360   21.1200 C   0  0  0  0  0  2  0  0  0  0  0  0
  -28.3390  -14.3840   21.6830 N   0  0  0  0  0  4  0  0  0  0  0  0
  -29.0810  -14.4020   22.3620 H   0  0  0  0  0  0  0  0  0  0  0  0
  -28.5630  -13.7030   20.9810 H   0  0  0  0  0  0  0  0  0  0  0  0
  -27.5080  -14.0820   22.1610 H   0  0  0  0  0  0  0  0  0  0  0  0
  1  3  1  0
  2  1  2  0
  3 52  1  0
  4  2  1  0
  4  7  2  0
  5  3  2  0
  5  6  1  0
  7  5  1  0
  8  4  1  0
  8  9  1  0
 10 11  1  0
 10  9  2  0
 12 23  2  0
 13 11  1  0
 13 18  1  0
 14 22  1  0
 14 24  1  0
 15 21  1  0
 15 17  1  0
 16 22  1  0
 17 18  2  0
 17 16  1  0
 19 20  1  0
 19 13  2  0
 20 15  2  0
 21 14  1  0
 22 12  1  0
 24 26  2  0
 25 24  1  0
 27 25  1  0
 28 37  2  0
 28 33  1  0
 29 25  1  0
 29 33  1  0
 30 29  1  0
 31 32  1  0
 31 30  1  0
 32 28  1  0
 33 34  2  0
 34 35  1  0
 36 35  2  0
 37 36  1  0
 38 12  1  0
 38 39  1  0
 38 48  1  0
 39 42  1  0
 40 44  1  0
 40 39  1  0
 41 40  2  0
 44 43  1  0
 46 44  1  0
 46 47  1  0
 46 45  1  0
 48 51  1  1
 48 49  1  0
 50 48  1  0
 52 91  1  0
 53 59  1  0
 53 62  1  0
 54 59  1  0
 55 56  1  0
 55 54  1  0
 57 56  1  0
 57 66  1  0
 57 58  1  0
 59 58  1  0
 60 53  2  0
 62 61  1  0
 62 52  1  0
 63 64  2  0
 64 83  1  0
 65 64  1  0
 65 68  1  0
 66 67  1  0
 66 63  1  0
 67 65  2  0
 68 69  1  0
 69 70  2  0
 71 74  1  0
 71 70  1  0
 72 71  2  0
 73 72  1  0
 73 68  2  0
 74 75  1  0
 75 76  1  0
 76 77  2  0
 78 77  1  0
 78 82  1  0
 79 78  2  0
 80 75  2  0
 80 79  1  0
 81 80  1  0
 83 84  1  0
 84 86  1  0
 84 87  1  0
 85 83  2  0
 88 63  1  0
 88 89  1  0
 90 88  1  0
 91 92  1  0
 92 95  1  0
 92 93  1  0
 94 92  1  0
M  ISO  4  10 101  11 101  53 100  62 100
M  END
>  <TORSDO>  (35) 
F 22

>  <SCORE>  (35) 
-10.313

>  <name>  (35) 
35

>  <ligand_id>  (35) 
35

>  <original_smiles>  (35) 
[H]c1c(C([H])([H])C([H])([H])C([H])([H])Oc2c([H])c([H])c3c(c2[H])C([H])([H])N(C(=O)C([H])(N([H])C(=O)C([H])(N([H])C([H])([H])[H])C([H])([H])[H])C(C([H])([H])[H])(C([H])([H])[H])C([H])([H])[H])C([H])(C(=O)N([H])C2([H])c4c([H])c([H])c([H])c([H])c4C([H])([H])C([H])([H])C2([H])[H])C3([H])[H])nc(C([H])([H])[H])c(C([H])(N(C(=O)N2C([H])([H])C([H])([H])C([H])([H])C([H])(n3nc(-c4c([H])c([H])c(Oc5c([H])c([H])c(F)c([H])c5F)c([H])c4[H])c(C(=O)N([H])[H])c3N([H])[H])C2([H])[H])C([H])([H])[H])C([H])([H])[N+]([H])([H])[H])c1[H]

>  <smiles>  (35) 
[H]c1c(C([H])([H])C([H])([H])C([H])([H])Oc2c([H])c([H])c3c(c2[H])C([H])([H])N(C(=O)C([H])(N([H])C(=O)C([H])(N([H])C([H])([H])[H])C([H])([H])[H])C(C([H])([H])[H])(C([H])([H])[H])C([H])([H])[H])C([H])(C(=O)N([H])C2([H])c4c([H])c([H])c([H])c([H])c4C([H])([H])C([H])([H])C2([H])[H])C3([H])[H])nc(C([H])([H])[H])c(C([H])(N(C(=O)N2C([H])([H])C([H])([H])C([H])([H])C([H])(n3nc(-c4c([H])c([H])c(Oc5c([H])c([H])c(F)c([H])c5F)c([H])c4[H])c(C(=O)N([H])[H])c3N([H])[H])C2([H])[H])C([H])([H])[H])C([H])([H])[N+]([H])([H])[H])c1[H]

$$$$
36:0:0
     RDKit          3D

 95103  0  0  1  0  0  0  0  0999 V2000
  -30.6470  -21.2240   18.1950 C   0  0  0  0  0  3  0  0  0  0  0  0
  -30.0850  -22.2450   18.9700 C   0  0  0  0  0  3  0  0  0  0  0  0
  -30.9670  -19.9870   18.7920 C   0  0  0  0  0  0  0  0  0  0  0  0
  -29.8030  -21.9990   20.3230 C   0  0  0  0  0  0  0  0  0  0  0  0
  -30.6150  -19.7910   20.1560 C   0  0  0  0  0  0  0  0  0  0  0  0
  -30.0330  -20.7820   20.8870 N   0  0  0  0  0  0  0  0  0  0  0  0
  -33.1580  -19.5090   17.6230 C   0  0  0  0  0  1  0  0  0  0  0  0
  -30.9900  -18.5450   16.6970 C   0  0  0  0  0  1  0  0  0  0  0  0
  -31.7570  -18.9720   17.9610 C   0  0  0  0  0  3  0  0  0  0  0  0
  -29.3730  -23.1440   21.2560 C   0  0  0  0  0  2  0  0  0  0  0  0
  -28.3610  -24.2060   20.6940 C   0  0  0  0  0  3  0  0  0  0  0  0
  -26.3870  -22.6320   20.1470 C   0  0  0  0  0  1  0  0  0  0  0  0
  -26.9090  -23.7850   21.0160 C   0  0  0  0  0  2  0  0  0  0  0  0
  -28.6520  -25.6540   21.2160 C   0  0  0  0  0  2  0  0  0  0  0  0
  -28.5440  -26.6810   20.2140 O   0  0  0  0  0  0  0  0  0  0  0  0
  -24.6000  -31.8300   23.2040 C   0  0  0  0  0  0  0  0  0  0  0  0
  -27.3800  -27.4150   20.2140 C   0  0  0  0  0  0  0  0  0  0  0  0
  -23.4580  -30.4130   21.5290 C   0  0  0  0  0  3  0  0  0  0  0  0
  -24.9720  -28.8930   20.1450 C   0  0  0  0  0  0  0  0  0  0  0  0
  -25.9820  -30.8020   21.4030 C   0  0  0  0  0  2  0  0  0  0  0  0
  -26.1030  -29.4300   20.7750 C   0  0  0  0  0  0  0  0  0  0  0  0
  -27.3120  -28.6950   20.8140 C   0  0  0  0  0  3  0  0  0  0  0  0
  -26.2430  -26.9050   19.5570 C   0  0  0  0  0  3  0  0  0  0  0  0
  -25.0370  -27.6300   19.5330 C   0  0  0  0  0  3  0  0  0  0  0  0
  -23.7150  -29.7320   20.1570 C   0  0  0  0  0  2  0  0  0  0  0  0
  -24.6960  -31.0300   22.1050 N   0  0  0  0  0  0  0  0  0  0  0  0
  -23.5010  -32.0890   23.7140 O   0  0  0  0  0  0  0  0  0  0  0  0
  -22.7940  -29.3850   22.4720 C   0  0  0  0  0  0  0  0  0  0  0  0
  -21.4760  -29.1880   22.3090 N   0  0  0  0  0  0  0  0  0  0  0  0
  -23.4620  -28.7660   23.3050 O   0  0  0  0  0  0  0  0  0  0  0  0
  -21.0000  -29.7350   21.6060 H   0  0  0  0  0  0  0  0  0  0  0  0
  -18.1010  -27.9650   22.7250 C   0  0  0  0  0  0  0  0  0  0  0  0
  -20.6490  -28.2400   23.0570 C   0  0  0  0  0  3  0  0  0  0  0  0
  -20.7790  -26.8150   22.4750 C   0  0  0  0  0  2  0  0  0  0  0  0
  -19.7020  -26.4860   21.4360 C   0  0  0  0  0  2  0  0  0  0  0  0
  -18.3040  -26.6200   22.0480 C   0  0  0  0  0  2  0  0  0  0  0  0
  -19.2030  -28.7330   23.1850 C   0  0  0  0  0  0  0  0  0  0  0  0
  -18.9620  -29.9920   23.7760 C   0  0  0  0  0  3  0  0  0  0  0  0
  -17.6510  -30.4840   23.9130 C   0  0  0  0  0  3  0  0  0  0  0  0
  -16.5620  -29.7120   23.4720 C   0  0  0  0  0  3  0  0  0  0  0  0
  -16.7870  -28.4540   22.8840 C   0  0  0  0  0  3  0  0  0  0  0  0
  -25.8590  -32.4780   23.8590 C   0  0  0  0  0  3  0  0  0  0  0  0
  -25.5240  -33.8720   24.1800 N   0  0  0  0  0  0  0  0  0  0  0  0
  -25.8540  -34.9280   23.4240 C   0  0  0  0  0  0  0  0  0  0  0  0
  -26.5450  -34.8330   22.4060 O   0  0  0  0  0  0  0  0  0  0  0  0
  -24.9170  -34.0210   24.9740 H   0  0  0  0  0  0  0  0  0  0  0  0
  -24.1000  -36.6870   23.0360 C   0  0  0  0  0  1  0  0  0  0  0  0
  -25.3340  -36.3080   23.8680 C   0  0  0  0  0  3  0  0  0  0  0  0
  -27.4370  -37.2340   24.7310 C   0  0  0  0  0  1  0  0  0  0  0  0
  -26.3490  -37.3790   23.7690 N   0  0  0  0  0  0  0  0  0  0  0  0
  -25.9230  -38.2920   23.9090 H   0  0  0  0  0  0  0  0  0  0  0  0
  -26.3540  -31.7130   25.1470 C   0  0  1  0  0  0  0  0  0  0  0  0
  -25.2370  -31.4550   26.1850 C   0  0  0  0  0  1  0  0  0  0  0  0
  -26.9690  -30.3470   24.7650 C   0  0  0  0  0  1  0  0  0  0  0  0
  -27.4740  -32.5240   25.8410 C   0  0  0  0  0  1  0  0  0  0  0  0
  -31.0250  -18.5290   20.9420 C   0  0  0  0  0  2  0  0  0  0  0  0
  -30.5340  -17.1400   20.3560 C   0  0  0  0  0  2  0  0  0  0  0  0
  -30.5880  -15.6460   22.5130 C   0  0  0  0  0  1  0  0  0  0  0  0
  -30.2270  -15.7230   21.0100 C   0  0  0  0  0  3  0  0  0  0  0  0
  -30.8490  -14.5140   20.2210 C   0  0  0  0  0  0  0  0  0  0  0  0
  -30.4650  -12.4290   18.9380 C   0  0  0  0  0  2  0  0  0  0  0  0
  -29.4780  -12.7220   17.7880 C   0  0  0  0  0  2  0  0  0  0  0  0
  -28.0190  -12.5910   18.2710 C   0  0  0  0  0  2  0  0  0  0  0  0
  -27.7560  -13.3540   19.5970 C   0  0  0  0  0  3  0  0  0  0  0  0
  -28.8500  -13.0330   20.6390 C   0  0  0  0  0  2  0  0  0  0  0  0
  -30.1520  -13.3560   20.0380 N   0  0  0  0  0  0  0  0  0  0  0  0
  -31.9490  -14.6830   19.6830 O   0  0  0  0  0  0  0  0  0  0  0  0
  -25.3860  -13.9700   20.3830 C   0  0  0  0  0  0  0  0  0  0  0  0
  -24.3260  -13.2030   20.7820 C   0  0  0  0  0  0  0  0  0  0  0  0
  -24.7760  -11.8480   20.7290 C   0  0  0  0  0  0  0  0  0  0  0  0
  -26.4180  -13.0840   20.1160 N   0  0  0  0  0  0  0  0  0  0  0  0
  -26.0560  -11.8020   20.3780 N   0  0  0  0  0  0  0  0  0  0  0  0
  -24.0490  -10.5900   20.9370 C   0  0  0  0  0  0  0  0  0  0  0  0
  -24.4870   -9.6290   21.8740 C   0  0  0  0  0  3  0  0  0  0  0  0
  -23.7610   -8.4340   22.0670 C   0  0  0  0  0  3  0  0  0  0  0  0
  -22.5800   -8.1950   21.3240 C   0  0  0  0  0  0  0  0  0  0  0  0
  -22.1610   -9.1450   20.3750 C   0  0  0  0  0  3  0  0  0  0  0  0
  -22.8870  -10.3300   20.1810 C   0  0  0  0  0  3  0  0  0  0  0  0
  -21.8240   -7.0530   21.4270 O   0  0  0  0  0  0  0  0  0  0  0  0
  -21.7570   -6.3360   22.5950 C   0  0  0  0  0  0  0  0  0  0  0  0
  -21.3160   -6.9210   23.8040 C   0  0  0  0  0  3  0  0  0  0  0  0
  -21.1980   -6.1320   24.9650 C   0  0  0  0  0  3  0  0  0  0  0  0
  -21.5080   -4.7600   24.9190 C   0  0  0  0  0  0  0  0  0  0  0  0
  -21.9420   -4.1750   23.7170 C   0  0  0  0  0  3  0  0  0  0  0  0
  -22.0630   -4.9610   22.5580 C   0  0  0  0  0  0  0  0  0  0  0  0
  -22.4610   -4.3890   21.3970 F   0  0  0  0  0  0  0  0  0  0  0  0
  -21.3860   -3.9990   26.0330 F   0  0  0  0  0  0  0  0  0  0  0  0
  -22.9400  -13.6870   21.1030 C   0  0  0  0  0  0  0  0  0  0  0  0
  -22.2400  -12.9950   21.9950 N   0  0  0  0  0  0  0  0  0  0  0  0
  -22.4890  -14.7130   20.5970 O   0  0  0  0  0  0  0  0  0  0  0  0
  -22.6160  -12.1630   22.4260 H   0  0  0  0  0  0  0  0  0  0  0  0
  -21.3130  -13.3030   22.2530 H   0  0  0  0  0  0  0  0  0  0  0  0
  -25.5520  -15.3410   20.2060 N   0  0  0  0  0  0  0  0  0  0  0  0
  -24.7920  -15.9990   20.3420 H   0  0  0  0  0  0  0  0  0  0  0  0
  -26.3950  -15.7790   19.8550 H   0  0  0  0  0  0  0  0  0  0  0  0
  1  3  2  0
  1  2  1  0
  2  4  2  0
  3  5  1  0
  4  6  1  0
  4 10  1  0
  5  6  2  0
  5 56  1  0
  7  9  1  0
  8  9  1  0
  9  3  1  0
 11 13  1  0
 11 14  1  0
 11 10  1  0
 12 13  1  0
 15 17  1  0
 15 14  1  0
 16 27  2  0
 17 22  1  0
 18 26  1  0
 18 28  1  0
 19 25  1  0
 19 21  1  0
 20 26  1  0
 21 22  2  0
 21 20  1  0
 23 17  2  0
 24 23  1  0
 24 19  2  0
 25 18  1  0
 26 16  1  0
 28 30  2  0
 29 28  1  0
 31 29  1  0
 32 41  2  0
 32 37  1  0
 33 29  1  0
 33 37  1  0
 34 33  1  0
 35 36  1  0
 35 34  1  0
 36 32  1  0
 37 38  2  0
 38 39  1  0
 40 39  2  0
 41 40  1  0
 42 16  1  0
 42 43  1  0
 42 52  1  0
 43 46  1  0
 44 48  1  0
 44 43  1  0
 45 44  2  0
 48 47  1  0
 50 48  1  0
 50 51  1  0
 50 49  1  0
 52 55  1  1
 52 53  1  0
 54 52  1  0
 57 56  1  0
 57 59  1  0
 59 58  1  0
 60 59  1  0
 61 66  1  0
 62 63  1  0
 62 61  1  0
 64 63  1  0
 64 71  1  0
 64 65  1  0
 66 60  1  0
 66 65  1  0
 67 60  2  0
 68 69  2  0
 69 88  1  0
 70 69  1  0
 70 73  1  0
 71 72  1  0
 71 68  1  0
 72 70  2  0
 73 74  1  0
 74 75  2  0
 76 79  1  0
 76 75  1  0
 77 76  2  0
 78 77  1  0
 78 73  2  0
 79 80  1  0
 80 81  1  0
 81 82  2  0
 83 82  1  0
 83 87  1  0
 84 83  2  0
 85 80  2  0
 85 84  1  0
 86 85  1  0
 88 89  1  0
 89 92  1  0
 89 91  1  0
 90 88  2  0
 93 94  1  0
 93 68  1  0
 95 93  1  0
M  ISO  4  14 101  15 101  59 100  60 100
M  END
>  <TORSDO>  (36) 
F 24

>  <SCORE>  (36) 
-11.967

>  <name>  (36) 
36

>  <ligand_id>  (36) 
36

>  <original_smiles>  (36) 
[H]c1c(C([H])([H])C([H])(C([H])([H])Oc2c([H])c([H])c3c(c2[H])C([H])([H])N(C(=O)C([H])(N([H])C(=O)C([H])(N([H])C([H])([H])[H])C([H])([H])[H])C(C([H])([H])[H])(C([H])([H])[H])C([H])([H])[H])C([H])(C(=O)N([H])C2([H])c4c([H])c([H])c([H])c([H])c4C([H])([H])C([H])([H])C2([H])[H])C3([H])[H])C([H])([H])C([H])([H])[H])nc(C([H])([H])C([H])([H])C([H])(C(=O)N2C([H])([H])C([H])([H])C([H])([H])C([H])(n3nc(-c4c([H])c([H])c(Oc5c([H])c([H])c(F)c([H])c5F)c([H])c4[H])c(C(=O)N([H])[H])c3N([H])[H])C2([H])[H])C([H])([H])[H])c(C([H])(C([H])([H])[H])C([H])([H])[H])c1[H]

>  <smiles>  (36) 
[H]c1c(C([H])([H])C([H])(C([H])([H])Oc2c([H])c([H])c3c(c2[H])C([H])([H])N(C(=O)C([H])(N([H])C(=O)C([H])(N([H])C([H])([H])[H])C([H])([H])[H])C(C([H])([H])[H])(C([H])([H])[H])C([H])([H])[H])C([H])(C(=O)N([H])C2([H])c4c([H])c([H])c([H])c([H])c4C([H])([H])C([H])([H])C2([H])[H])C3([H])[H])C([H])([H])C([H])([H])[H])nc(C([H])([H])C([H])([H])C([H])(C(=O)N2C([H])([H])C([H])([H])C([H])([H])C([H])(n3nc(-c4c([H])c([H])c(Oc5c([H])c([H])c(F)c([H])c5F)c([H])c4[H])c(C(=O)N([H])[H])c3N([H])[H])C2([H])[H])C([H])([H])[H])c(C([H])(C([H])([H])[H])C([H])([H])[H])c1[H]

$$$$
37:0:0
     RDKit          3D

 94102  0  0  1  0  0  0  0  0999 V2000
  -29.4020  -20.3400   21.1680 C   0  0  0  0  0  2  0  0  0  0  0  0
  -28.8610  -17.4980   18.8870 C   0  0  0  0  0  3  0  0  0  0  0  0
  -29.4460  -17.9880   20.0260 C   0  0  0  0  0  0  0  0  0  0  0  0
  -27.9710  -19.4930   19.2560 C   0  0  0  0  0  3  0  0  0  0  0  0
  -26.9460  -20.5790   19.1310 C   0  0  0  0  0  1  0  0  0  0  0  0
  -28.9730  -19.3130   20.1510 N   0  0  0  0  0  0  0  0  0  0  0  0
  -27.9740  -18.4320   18.4480 N   0  0  0  0  0  0  0  0  0  0  0  0
  -27.3710  -18.3200   17.6420 H   0  0  0  0  0  0  0  0  0  0  0  0
  -31.8500  -17.6220   20.5460 C   0  0  0  0  0  1  0  0  0  0  0  0
  -30.4120  -17.2250   20.9340 C   0  0  0  0  0  3  0  0  0  0  0  0
  -30.9080  -14.6510   20.6300 C   0  0  0  0  0  0  0  0  0  0  0  0
  -30.6780  -12.4270   19.5620 C   0  0  0  0  0  2  0  0  0  0  0  0
  -29.7880  -12.5610   18.3090 C   0  0  0  0  0  2  0  0  0  0  0  0
  -28.3000  -12.4210   18.6830 C   0  0  0  0  0  2  0  0  0  0  0  0
  -27.8990  -13.2980   19.9000 C   0  0  0  0  0  3  0  0  0  0  0  0
  -28.9110  -13.1490   21.0590 C   0  0  0  0  0  2  0  0  0  0  0  0
  -30.2480  -13.4580   20.5280 N   0  0  0  0  0  0  0  0  0  0  0  0
  -32.0760  -14.7630   20.2550 O   0  0  0  0  0  0  0  0  0  0  0  0
  -30.1530  -15.7350   20.9740 N   0  0  0  0  0  0  0  0  0  0  0  0
  -29.2320  -15.4830   21.2990 H   0  0  0  0  0  0  0  0  0  0  0  0
  -25.4750  -13.9080   20.4990 C   0  0  0  0  0  0  0  0  0  0  0  0
  -24.3940  -13.1400   20.8380 C   0  0  0  0  0  0  0  0  0  0  0  0
  -24.8590  -11.7900   20.8560 C   0  0  0  0  0  0  0  0  0  0  0  0
  -26.5300  -13.0270   20.3310 N   0  0  0  0  0  0  0  0  0  0  0  0
  -26.1620  -11.7490   20.6040 N   0  0  0  0  0  0  0  0  0  0  0  0
  -24.1270  -10.5300   21.0390 C   0  0  0  0  0  0  0  0  0  0  0  0
  -24.5260   -9.5800   22.0060 C   0  0  0  0  0  3  0  0  0  0  0  0
  -23.7970   -8.3840   22.1790 C   0  0  0  0  0  3  0  0  0  0  0  0
  -22.6550   -8.1290   21.3860 C   0  0  0  0  0  0  0  0  0  0  0  0
  -22.2740   -9.0670   20.4110 C   0  0  0  0  0  3  0  0  0  0  0  0
  -23.0030  -10.2550   20.2360 C   0  0  0  0  0  3  0  0  0  0  0  0
  -21.9030   -6.9820   21.4640 O   0  0  0  0  0  0  0  0  0  0  0  0
  -21.8200   -6.2540   22.6230 C   0  0  0  0  0  0  0  0  0  0  0  0
  -21.3510   -6.8220   23.8290 C   0  0  0  0  0  3  0  0  0  0  0  0
  -21.2180   -6.0200   24.9790 C   0  0  0  0  0  3  0  0  0  0  0  0
  -21.5420   -4.6510   24.9260 C   0  0  0  0  0  0  0  0  0  0  0  0
  -22.0030   -4.0830   23.7260 C   0  0  0  0  0  3  0  0  0  0  0  0
  -22.1390   -4.8820   22.5770 C   0  0  0  0  0  0  0  0  0  0  0  0
  -22.5640   -4.3260   21.4170 F   0  0  0  0  0  0  0  0  0  0  0  0
  -21.4050   -3.8770   26.0290 F   0  0  0  0  0  0  0  0  0  0  0  0
  -22.9850  -13.6200   21.0380 C   0  0  0  0  0  0  0  0  0  0  0  0
  -22.2210  -12.9460   21.8890 N   0  0  0  0  0  0  0  0  0  0  0  0
  -22.5690  -14.6300   20.4720 O   0  0  0  0  0  0  0  0  0  0  0  0
  -22.5630  -12.1290   22.3720 H   0  0  0  0  0  0  0  0  0  0  0  0
  -21.2750  -13.2570   22.0590 H   0  0  0  0  0  0  0  0  0  0  0  0
  -25.6460  -15.2750   20.3000 N   0  0  0  0  0  0  0  0  0  0  0  0
  -24.8730  -15.9270   20.3720 H   0  0  0  0  0  0  0  0  0  0  0  0
  -26.5140  -15.7100   20.0240 H   0  0  0  0  0  0  0  0  0  0  0  0
  -28.9660  -21.8660   21.1020 C   0  0  0  0  0  2  0  0  0  0  0  0
  -29.4960  -22.8230   19.9770 C   0  0  0  0  0  2  0  0  0  0  0  0
  -29.5850  -24.3670   20.3050 C   0  0  0  0  0  2  0  0  0  0  0  0
  -27.7010  -25.0480   21.9090 C   0  0  0  0  0  1  0  0  0  0  0  0
  -28.2690  -25.1990   20.4820 C   0  0  0  0  0  3  0  0  0  0  0  0
  -28.4610  -26.6280   20.2270 O   0  0  0  0  0  0  0  0  0  0  0  0
  -24.6660  -31.8440   23.3470 C   0  0  0  0  0  0  0  0  0  0  0  0
  -27.3270  -27.4350   20.1830 C   0  0  0  0  0  0  0  0  0  0  0  0
  -23.4850  -30.5040   21.6420 C   0  0  0  0  0  3  0  0  0  0  0  0
  -24.9550  -29.0080   20.1870 C   0  0  0  0  0  0  0  0  0  0  0  0
  -26.0220  -30.8360   21.5090 C   0  0  0  0  0  2  0  0  0  0  0  0
  -26.1090  -29.4850   20.8200 C   0  0  0  0  0  0  0  0  0  0  0  0
  -27.2990  -28.7110   20.8080 C   0  0  0  0  0  3  0  0  0  0  0  0
  -26.1550  -27.0000   19.5220 C   0  0  0  0  0  3  0  0  0  0  0  0
  -24.9790  -27.7700   19.5260 C   0  0  0  0  0  3  0  0  0  0  0  0
  -23.7150  -29.8750   20.2430 C   0  0  0  0  0  2  0  0  0  0  0  0
  -24.7430  -31.0760   22.2230 N   0  0  0  0  0  0  0  0  0  0  0  0
  -23.5750  -32.1050   23.8740 O   0  0  0  0  0  0  0  0  0  0  0  0
  -22.8100  -29.4540   22.5530 C   0  0  0  0  0  0  0  0  0  0  0  0
  -21.4840  -29.3010   22.4100 N   0  0  0  0  0  0  0  0  0  0  0  0
  -23.4770  -28.7860   23.3470 O   0  0  0  0  0  0  0  0  0  0  0  0
  -21.0110  -29.8920   21.7410 H   0  0  0  0  0  0  0  0  0  0  0  0
  -18.0820  -28.1490   22.8540 C   0  0  0  0  0  0  0  0  0  0  0  0
  -20.6450  -28.3430   23.1320 C   0  0  0  0  0  3  0  0  0  0  0  0
  -20.7210  -26.9390   22.4850 C   0  0  0  0  0  2  0  0  0  0  0  0
  -19.6070  -26.6870   21.4630 C   0  0  0  0  0  2  0  0  0  0  0  0
  -18.2320  -26.8260   22.1210 C   0  0  0  0  0  2  0  0  0  0  0  0
  -19.2170  -28.8680   23.3150 C   0  0  0  0  0  0  0  0  0  0  0  0
  -19.0260  -30.1060   23.9640 C   0  0  0  0  0  3  0  0  0  0  0  0
  -17.7320  -30.6290   24.1540 C   0  0  0  0  0  3  0  0  0  0  0  0
  -16.6120  -29.9080   23.7050 C   0  0  0  0  0  3  0  0  0  0  0  0
  -16.7870  -28.6680   23.0650 C   0  0  0  0  0  3  0  0  0  0  0  0
  -25.9410  -32.4480   24.0130 C   0  0  0  0  0  3  0  0  0  0  0  0
  -25.6400  -33.8420   24.3650 N   0  0  0  0  0  0  0  0  0  0  0  0
  -26.0060  -34.9070   23.6390 C   0  0  0  0  0  0  0  0  0  0  0  0
  -26.7020  -34.8180   22.6260 O   0  0  0  0  0  0  0  0  0  0  0  0
  -25.0280  -33.9850   25.1560 H   0  0  0  0  0  0  0  0  0  0  0  0
  -24.3160  -36.7330   23.2660 C   0  0  0  0  0  1  0  0  0  0  0  0
  -25.5200  -36.2900   24.1130 C   0  0  0  0  0  3  0  0  0  0  0  0
  -27.6320  -37.1250   25.0480 C   0  0  0  0  0  1  0  0  0  0  0  0
  -26.5700  -37.3310   24.0650 N   0  0  0  0  0  0  0  0  0  0  0  0
  -26.1700  -38.2530   24.2210 H   0  0  0  0  0  0  0  0  0  0  0  0
  -26.4200  -31.6440   25.2850 C   0  0  1  0  0  0  0  0  0  0  0  0
  -25.2990  -31.3970   26.3220 C   0  0  0  0  0  1  0  0  0  0  0  0
  -27.0000  -30.2710   24.8750 C   0  0  0  0  0  1  0  0  0  0  0  0
  -27.5600  -32.4140   25.9920 C   0  0  0  0  0  1  0  0  0  0  0  0
  2  3  2  0
  3  6  1  0
  3 10  1  0
  4  5  1  0
  4  6  1  0
  6  1  1  0
  7  2  1  0
  7  4  1  0
  8  7  1  0
 10  9  1  0
 10 19  1  0
 11 19  1  0
 12 17  1  0
 13 14  1  0
 13 12  1  0
 15 14  1  0
 15 24  1  0
 15 16  1  0
 17 11  1  0
 17 16  1  0
 18 11  2  0
 19 20  1  0
 21 22  2  0
 22 23  1  0
 22 41  1  0
 23 26  1  0
 24 21  1  0
 24 25  1  0
 25 23  2  0
 26 27  1  0
 27 28  2  0
 29 32  1  0
 29 28  1  0
 30 29  2  0
 31 30  1  0
 31 26  2  0
 32 33  1  0
 33 34  1  0
 34 35  2  0
 36 35  1  0
 36 40  1  0
 37 36  2  0
 38 33  2  0
 38 37  1  0
 39 38  1  0
 41 42  1  0
 42 45  1  0
 42 44  1  0
 43 41  2  0
 46 47  1  0
 46 21  1  0
 48 46  1  0
 49  1  1  0
 50 51  1  0
 50 49  1  0
 51 53  1  0
 53 52  1  0
 54 53  1  0
 55 66  2  0
 56 54  1  0
 56 61  1  0
 57 65  1  0
 57 67  1  0
 58 64  1  0
 58 60  1  0
 59 65  1  0
 60 59  1  0
 61 60  2  0
 62 63  1  0
 62 56  2  0
 63 58  2  0
 64 57  1  0
 65 55  1  0
 67 69  2  0
 68 67  1  0
 70 68  1  0
 71 80  2  0
 71 76  1  0
 72 68  1  0
 72 76  1  0
 73 72  1  0
 74 75  1  0
 74 73  1  0
 75 71  1  0
 76 77  2  0
 77 78  1  0
 79 78  2  0
 80 79  1  0
 81 55  1  0
 81 82  1  0
 81 91  1  0
 82 85  1  0
 83 87  1  0
 83 82  1  0
 84 83  2  0
 87 86  1  0
 89 87  1  0
 89 90  1  0
 89 88  1  0
 91 94  1  1
 91 92  1  0
 93 91  1  0
M  ISO  4  11 100  19 100  53 101  54 101
M  END
>  <TORSDO>  (37) 
F 22

>  <SCORE>  (37) 
-13.166

>  <name>  (37) 
37

>  <ligand_id>  (37) 
37

>  <original_smiles>  (37) 
[H]c1c([H])c([H])c2c(c1[H])C([H])([H])C([H])([H])C([H])([H])C2([H])N([H])C(=O)C1([H])N(C(=O)C([H])(N([H])C(=O)C([H])(N([H])C([H])([H])[H])C([H])([H])[H])C(C([H])([H])[H])(C([H])([H])[H])C([H])([H])[H])C([H])([H])c2c([H])c(OC([H])(C([H])([H])[H])C([H])([H])C([H])([H])C([H])([H])C([H])([H])n3c(C([H])(N([H])C(=O)N4C([H])([H])C([H])([H])C([H])([H])C([H])(n5nc(-c6c([H])c([H])c(Oc7c([H])c([H])c(F)c([H])c7F)c([H])c6[H])c(C(=O)N([H])[H])c5N([H])[H])C4([H])[H])C([H])([H])[H])c([H])[n+]([H])c3C([H])([H])[H])c([H])c([H])c2C1([H])[H]

>  <smiles>  (37) 
[H]c1c([H])c([H])c2c(c1[H])C([H])([H])C([H])([H])C([H])([H])C2([H])N([H])C(=O)C1([H])N(C(=O)C([H])(N([H])C(=O)C([H])(N([H])C([H])([H])[H])C([H])([H])[H])C(C([H])([H])[H])(C([H])([H])[H])C([H])([H])[H])C([H])([H])c2c([H])c(OC([H])(C([H])([H])[H])C([H])([H])C([H])([H])C([H])([H])C([H])([H])n3c(C([H])(N([H])C(=O)N4C([H])([H])C([H])([H])C([H])([H])C([H])(n5nc(-c6c([H])c([H])c(Oc7c([H])c([H])c(F)c([H])c7F)c([H])c6[H])c(C(=O)N([H])[H])c5N([H])[H])C4([H])[H])C([H])([H])[H])c([H])[n+]([H])c3C([H])([H])[H])c([H])c([H])c2C1([H])[H]

$$$$
38:0:0
     RDKit          3D

 91 99  0  0  1  0  0  0  0  0999 V2000
  -26.4950  -21.9480   20.6570 C   0  0  0  0  0  2  0  0  0  0  0  0
  -27.3930  -19.5870   20.2760 C   0  0  0  0  0  3  0  0  0  0  0  0
  -28.6790  -19.1460   20.1360 C   0  0  0  0  0  0  0  0  0  0  0  0
  -29.5400  -20.2110   20.4020 N   0  0  0  0  0  0  0  0  0  0  0  0
  -28.8430  -21.2710   20.6620 N   0  0  0  0  0  0  0  0  0  0  0  0
  -27.5350  -20.9280   20.5810 N   0  0  0  0  0  0  0  0  0  0  0  0
  -29.1960  -17.8450   19.6010 C   0  0  0  0  0  2  0  0  0  0  0  0
  -29.9420  -16.9590   20.6240 C   0  0  0  0  0  2  0  0  0  0  0  0
  -31.3850  -14.9180   20.3460 C   0  0  0  0  0  0  0  0  0  0  0  0
  -31.1030  -12.6930   19.3780 C   0  0  0  0  0  2  0  0  0  0  0  0
  -30.2000  -12.8260   18.1350 C   0  0  0  0  0  2  0  0  0  0  0  0
  -28.7110  -12.7400   18.5190 C   0  0  0  0  0  2  0  0  0  0  0  0
  -28.3410  -13.6630   19.7120 C   0  0  0  0  0  3  0  0  0  0  0  0
  -29.3620  -13.5300   20.8660 C   0  0  0  0  0  2  0  0  0  0  0  0
  -30.7030  -13.7500   20.3140 N   0  0  0  0  0  0  0  0  0  0  0  0
  -32.5910  -15.0130   20.1250 O   0  0  0  0  0  0  0  0  0  0  0  0
  -30.6480  -15.9270   19.8740 N   0  0  0  0  0  0  0  0  0  0  0  0
  -31.1390  -16.3530   19.1020 H   0  0  0  0  0  0  0  0  0  0  0  0
  -25.9490  -14.3360   20.3700 C   0  0  0  0  0  0  0  0  0  0  0  0
  -24.8530  -13.5910   20.7140 C   0  0  0  0  0  0  0  0  0  0  0  0
  -25.2830  -12.2300   20.7020 C   0  0  0  0  0  0  0  0  0  0  0  0
  -26.9750  -13.4280   20.1670 N   0  0  0  0  0  0  0  0  0  0  0  0
  -26.5780  -12.1570   20.4280 N   0  0  0  0  0  0  0  0  0  0  0  0
  -24.5230  -10.9850   20.8780 C   0  0  0  0  0  0  0  0  0  0  0  0
  -24.8640  -10.0470   21.8770 C   0  0  0  0  0  3  0  0  0  0  0  0
  -24.1090   -8.8670   22.0390 C   0  0  0  0  0  3  0  0  0  0  0  0
  -22.9980   -8.6160   21.1980 C   0  0  0  0  0  0  0  0  0  0  0  0
  -22.6780   -9.5400   20.1890 C   0  0  0  0  0  3  0  0  0  0  0  0
  -23.4360  -10.7120   20.0260 C   0  0  0  0  0  3  0  0  0  0  0  0
  -22.2220   -7.4850   21.2650 O   0  0  0  0  0  0  0  0  0  0  0  0
  -22.0030   -6.8310   22.4510 C   0  0  0  0  0  0  0  0  0  0  0  0
  -21.4230   -7.4800   23.5640 C   0  0  0  0  0  3  0  0  0  0  0  0
  -21.1510   -6.7540   24.7400 C   0  0  0  0  0  3  0  0  0  0  0  0
  -21.4500   -5.3790   24.8030 C   0  0  0  0  0  0  0  0  0  0  0  0
  -22.0240   -4.7310   23.6950 C   0  0  0  0  0  3  0  0  0  0  0  0
  -22.2960   -5.4560   22.5220 C   0  0  0  0  0  0  0  0  0  0  0  0
  -22.8280   -4.8220   21.4490 F   0  0  0  0  0  0  0  0  0  0  0  0
  -21.1820   -4.6780   25.9290 F   0  0  0  0  0  0  0  0  0  0  0  0
  -23.4600  -14.1030   20.9460 C   0  0  0  0  0  0  0  0  0  0  0  0
  -22.6960  -13.4350   21.8060 N   0  0  0  0  0  0  0  0  0  0  0  0
  -23.0550  -15.1290   20.4010 O   0  0  0  0  0  0  0  0  0  0  0  0
  -23.0370  -12.6060   22.2710 H   0  0  0  0  0  0  0  0  0  0  0  0
  -21.7590  -13.7570   22.0030 H   0  0  0  0  0  0  0  0  0  0  0  0
  -26.1530  -15.7000   20.1910 N   0  0  0  0  0  0  0  0  0  0  0  0
  -25.4070  -16.3790   20.2850 H   0  0  0  0  0  0  0  0  0  0  0  0
  -27.0330  -16.1070   19.9050 H   0  0  0  0  0  0  0  0  0  0  0  0
  -26.6180  -22.9460   21.8350 C   0  0  0  0  0  2  0  0  0  0  0  0
  -27.7190  -24.0380   21.7500 C   0  0  0  0  0  2  0  0  0  0  0  0
  -27.5920  -24.9680   20.5230 C   0  0  0  0  0  2  0  0  0  0  0  0
  -28.4920  -26.2280   20.5360 C   0  0  0  0  0  2  0  0  0  0  0  0
  -28.2830  -27.0830   19.3990 O   0  0  0  0  0  0  0  0  0  0  0  0
  -24.6910  -31.8990   23.1720 C   0  0  0  0  0  0  0  0  0  0  0  0
  -27.1510  -27.8510   19.4980 C   0  0  0  0  0  0  0  0  0  0  0  0
  -23.3900  -30.6700   21.4640 C   0  0  0  0  0  3  0  0  0  0  0  0
  -24.7600  -29.3130   19.7950 C   0  0  0  0  0  0  0  0  0  0  0  0
  -25.8970  -31.0770   21.1560 C   0  0  0  0  0  2  0  0  0  0  0  0
  -25.9470  -29.7840   20.3720 C   0  0  0  0  0  0  0  0  0  0  0  0
  -27.1490  -29.0570   20.2280 C   0  0  0  0  0  3  0  0  0  0  0  0
  -25.9620  -27.4070   18.8840 C   0  0  0  0  0  3  0  0  0  0  0  0
  -24.7620  -28.1220   19.0460 C   0  0  0  0  0  3  0  0  0  0  0  0
  -23.5170  -30.1460   20.0090 C   0  0  0  0  0  2  0  0  0  0  0  0
  -24.6800  -31.2240   21.9880 N   0  0  0  0  0  0  0  0  0  0  0  0
  -23.6440  -32.1030   23.8030 O   0  0  0  0  0  0  0  0  0  0  0  0
  -22.8030  -29.5450   22.3480 C   0  0  0  0  0  0  0  0  0  0  0  0
  -21.4760  -29.3540   22.2720 N   0  0  0  0  0  0  0  0  0  0  0  0
  -23.5380  -28.8520   23.0560 O   0  0  0  0  0  0  0  0  0  0  0  0
  -20.9410  -29.9840   21.6900 H   0  0  0  0  0  0  0  0  0  0  0  0
  -18.1620  -27.9970   22.7600 C   0  0  0  0  0  0  0  0  0  0  0  0
  -20.7160  -28.3200   22.9720 C   0  0  0  0  0  3  0  0  0  0  0  0
  -20.8520  -26.9560   22.2570 C   0  0  0  0  0  2  0  0  0  0  0  0
  -19.7140  -26.6610   21.2730 C   0  0  0  0  0  2  0  0  0  0  0  0
  -18.3540  -26.7120   21.9740 C   0  0  0  0  0  2  0  0  0  0  0  0
  -19.2700  -28.7590   23.2150 C   0  0  0  0  0  0  0  0  0  0  0  0
  -19.0340  -29.9620   23.9140 C   0  0  0  0  0  3  0  0  0  0  0  0
  -17.7220  -30.4080   24.1600 C   0  0  0  0  0  3  0  0  0  0  0  0
  -16.6290  -29.6430   23.7190 C   0  0  0  0  0  3  0  0  0  0  0  0
  -16.8490  -28.4400   23.0270 C   0  0  0  0  0  3  0  0  0  0  0  0
  -26.0110  -32.4740   23.7720 C   0  0  0  0  0  3  0  0  0  0  0  0
  -25.7210  -33.8290   24.2580 N   0  0  0  0  0  0  0  0  0  0  0  0
  -26.0180  -34.9560   23.5950 C   0  0  0  0  0  0  0  0  0  0  0  0
  -26.6390  -34.9590   22.5280 O   0  0  0  0  0  0  0  0  0  0  0  0
  -25.1650  -33.9000   25.0980 H   0  0  0  0  0  0  0  0  0  0  0  0
  -24.2770  -36.7660   23.5020 C   0  0  0  0  0  1  0  0  0  0  0  0
  -25.5520  -36.2870   24.2130 C   0  0  0  0  0  3  0  0  0  0  0  0
  -27.7210  -37.0900   25.0370 C   0  0  0  0  0  1  0  0  0  0  0  0
  -26.5800  -37.3500   24.1630 N   0  0  0  0  0  0  0  0  0  0  0  0
  -26.1820  -38.2480   24.4200 H   0  0  0  0  0  0  0  0  0  0  0  0
  -26.6100  -31.5810   24.9260 C   0  0  1  0  0  0  0  0  0  0  0  0
  -25.5900  -31.2310   26.0320 C   0  0  0  0  0  1  0  0  0  0  0  0
  -27.1660  -30.2540   24.3580 C   0  0  0  0  0  1  0  0  0  0  0  0
  -27.8020  -32.3110   25.5890 C   0  0  0  0  0  1  0  0  0  0  0  0
  1 47  1  0
  2  6  1  0
  3  2  2  0
  3  4  1  0
  4  5  2  0
  6  1  1  0
  6  5  1  0
  7  3  1  0
  7  8  1  0
 10 15  1  0
 11 12  1  0
 11 10  1  0
 13 12  1  0
 13 22  1  0
 13 14  1  0
 15  9  1  0
 15 14  1  0
 16  9  2  0
 17  9  1  0
 17  8  1  0
 18 17  1  0
 19 20  2  0
 20 39  1  0
 21 20  1  0
 21 24  1  0
 22 19  1  0
 22 23  1  0
 23 21  2  0
 24 25  1  0
 25 26  2  0
 27 30  1  0
 27 26  1  0
 28 27  2  0
 29 28  1  0
 29 24  2  0
 30 31  1  0
 31 36  2  0
 31 32  1  0
 32 33  2  0
 33 34  1  0
 34 38  1  0
 35 34  2  0
 36 35  1  0
 37 36  1  0
 39 40  1  0
 40 43  1  0
 40 42  1  0
 41 39  2  0
 44 45  1  0
 44 19  1  0
 46 44  1  0
 48 47  1  0
 49 50  1  0
 49 48  1  0
 51 53  1  0
 51 50  1  0
 52 63  2  0
 53 58  1  0
 54 62  1  0
 54 64  1  0
 55 61  1  0
 55 57  1  0
 56 62  1  0
 57 56  1  0
 58 57  2  0
 59 60  1  0
 59 53  2  0
 60 55  2  0
 61 54  1  0
 62 52  1  0
 64 66  2  0
 65 64  1  0
 67 65  1  0
 68 77  2  0
 68 73  1  0
 69 65  1  0
 69 73  1  0
 70 69  1  0
 71 72  1  0
 71 70  1  0
 72 68  1  0
 73 74  2  0
 74 75  1  0
 76 75  2  0
 77 76  1  0
 78 52  1  0
 78 79  1  0
 78 88  1  0
 79 82  1  0
 80 84  1  0
 80 79  1  0
 81 80  2  0
 84 83  1  0
 86 84  1  0
 86 87  1  0
 86 85  1  0
 88 91  1  1
 88 89  1  0
 90 88  1  0
M  ISO  4   9 100  17 100  50 101  51 101
M  END
>  <TORSDO>  (38) 
F 23

>  <SCORE>  (38) 
-10.136

>  <name>  (38) 
38

>  <ligand_id>  (38) 
38

>  <original_smiles>  (38) 
[H]c1c([H])c([H])c2c(c1[H])C([H])([H])C([H])([H])C([H])([H])C2([H])N([H])C(=O)C1([H])N(C(=O)C([H])(N([H])C(=O)C([H])(N([H])C([H])([H])[H])C([H])([H])[H])C(C([H])([H])[H])(C([H])([H])[H])C([H])([H])[H])C([H])([H])c2c([H])c(OC([H])([H])C([H])([H])C([H])([H])C([H])([H])C([H])([H])n3nnc(C([H])([H])C([H])([H])N([H])C(=O)N4C([H])([H])C([H])([H])C([H])([H])C([H])(n5nc(-c6c([H])c([H])c(Oc7c([H])c([H])c(F)c([H])c7F)c([H])c6[H])c(C(=O)N([H])[H])c5N([H])[H])C4([H])[H])c3[H])c([H])c([H])c2C1([H])[H]

>  <smiles>  (38) 
[H]c1c([H])c([H])c2c(c1[H])C([H])([H])C([H])([H])C([H])([H])C2([H])N([H])C(=O)C1([H])N(C(=O)C([H])(N([H])C(=O)C([H])(N([H])C([H])([H])[H])C([H])([H])[H])C(C([H])([H])[H])(C([H])([H])[H])C([H])([H])[H])C([H])([H])c2c([H])c(OC([H])([H])C([H])([H])C([H])([H])C([H])([H])C([H])([H])n3nnc(C([H])([H])C([H])([H])N([H])C(=O)N4C([H])([H])C([H])([H])C([H])([H])C([H])(n5nc(-c6c([H])c([H])c(Oc7c([H])c([H])c(F)c([H])c7F)c([H])c6[H])c(C(=O)N([H])[H])c5N([H])[H])C4([H])[H])c3[H])c([H])c([H])c2C1([H])[H]

$$$$
40:0:0
     RDKit          3D

 94102  0  0  1  0  0  0  0  0999 V2000
  -28.4220  -21.8660   20.6330 C   0  0  0  0  0  3  0  0  0  0  0  0
  -29.4000  -20.7750   20.3670 C   0  0  0  0  0  0  0  0  0  0  0  0
  -28.8360  -23.1550   20.2000 C   0  0  0  0  0  0  0  0  0  0  0  0
  -30.4330  -21.4320   19.8440 N   0  0  0  0  0  0  0  0  0  0  0  0
  -30.0690  -22.7680   19.6420 N   0  0  0  0  0  0  0  0  0  0  0  0
  -27.9010  -18.7270   20.6430 C   0  0  0  0  0  1  0  0  0  0  0  0
  -29.8330  -19.0470   22.2070 C   0  0  0  0  0  1  0  0  0  0  0  0
  -29.3830  -19.1320   20.7390 C   0  0  2  0  0  0  0  0  0  0  0  0
  -30.2120  -17.8420   19.9780 C   0  0  0  0  0  2  0  0  0  0  0  0
  -30.7200  -15.0790   19.9970 C   0  0  0  0  0  0  0  0  0  0  0  0
  -30.5030  -12.7690   18.9520 C   0  0  0  0  0  2  0  0  0  0  0  0
  -29.5000  -12.7870   17.7730 C   0  0  0  0  0  2  0  0  0  0  0  0
  -28.0610  -12.5690   18.2750 C   0  0  0  0  0  2  0  0  0  0  0  0
  -27.7380  -13.4390   19.5170 C   0  0  0  0  0  3  0  0  0  0  0  0
  -28.8560  -13.3900   20.5810 C   0  0  0  0  0  2  0  0  0  0  0  0
  -30.0970  -13.8280   19.9270 N   0  0  0  0  0  0  0  0  0  0  0  0
  -31.8940  -15.1280   19.6200 O   0  0  0  0  0  0  0  0  0  0  0  0
  -29.9850  -16.2810   20.2730 N   0  0  0  0  0  0  0  0  0  0  0  0
  -29.0550  -16.0790   20.6010 H   0  0  0  0  0  0  0  0  0  0  0  0
  -25.4000  -14.0050   20.3870 C   0  0  0  0  0  0  0  0  0  0  0  0
  -24.3500  -13.2250   20.7860 C   0  0  0  0  0  0  0  0  0  0  0  0
  -24.8080  -11.8740   20.7050 C   0  0  0  0  0  0  0  0  0  0  0  0
  -26.4270  -13.1300   20.0780 N   0  0  0  0  0  0  0  0  0  0  0  0
  -26.0830  -11.8400   20.3360 N   0  0  0  0  0  0  0  0  0  0  0  0
  -24.0840  -10.6100   20.8990 C   0  0  0  0  0  0  0  0  0  0  0  0
  -24.5010   -9.6610   21.8570 C   0  0  0  0  0  3  0  0  0  0  0  0
  -23.7770   -8.4630   22.0410 C   0  0  0  0  0  3  0  0  0  0  0  0
  -22.6220   -8.2050   21.2640 C   0  0  0  0  0  0  0  0  0  0  0  0
  -22.2240   -9.1440   20.2960 C   0  0  0  0  0  3  0  0  0  0  0  0
  -22.9480  -10.3330   20.1120 C   0  0  0  0  0  3  0  0  0  0  0  0
  -21.8680   -7.0580   21.3560 O   0  0  0  0  0  0  0  0  0  0  0  0
  -21.7230   -6.3870   22.5430 C   0  0  0  0  0  0  0  0  0  0  0  0
  -21.1860   -7.0080   23.6910 C   0  0  0  0  0  3  0  0  0  0  0  0
  -20.9910   -6.2610   24.8700 C   0  0  0  0  0  3  0  0  0  0  0  0
  -21.3200   -4.8930   24.8980 C   0  0  0  0  0  0  0  0  0  0  0  0
  -21.8490   -4.2710   23.7550 C   0  0  0  0  0  3  0  0  0  0  0  0
  -22.0470   -5.0160   22.5790 C   0  0  0  0  0  0  0  0  0  0  0  0
  -22.5380   -4.4070   21.4720 F   0  0  0  0  0  0  0  0  0  0  0  0
  -21.1250   -4.1720   26.0270 F   0  0  0  0  0  0  0  0  0  0  0  0
  -22.9700  -13.7000   21.1290 C   0  0  0  0  0  0  0  0  0  0  0  0
  -22.2830  -12.9930   22.0170 N   0  0  0  0  0  0  0  0  0  0  0  0
  -22.5140  -14.7340   20.6450 O   0  0  0  0  0  0  0  0  0  0  0  0
  -22.6690  -12.1540   22.4260 H   0  0  0  0  0  0  0  0  0  0  0  0
  -21.3570  -13.2930   22.2930 H   0  0  0  0  0  0  0  0  0  0  0  0
  -25.5620  -15.3790   20.2320 N   0  0  0  0  0  0  0  0  0  0  0  0
  -24.7990  -16.0290   20.3870 H   0  0  0  0  0  0  0  0  0  0  0  0
  -26.3830  -15.8210   19.8400 H   0  0  0  0  0  0  0  0  0  0  0  0
  -28.0000  -24.5910   19.9790 C   0  0  0  0  0  2  0  0  0  0  0  0
  -28.3870  -26.0840   20.3210 O   0  0  0  0  0  0  0  0  0  0  0  0
  -24.6440  -31.8360   23.2070 C   0  0  0  0  0  0  0  0  0  0  0  0
  -27.3580  -27.1220   20.2240 C   0  0  0  0  0  0  0  0  0  0  0  0
  -23.5080  -30.4180   21.5470 C   0  0  0  0  0  3  0  0  0  0  0  0
  -25.0130  -28.8760   20.1500 C   0  0  0  0  0  0  0  0  0  0  0  0
  -26.0650  -30.7170   21.4440 C   0  0  0  0  0  2  0  0  0  0  0  0
  -26.1780  -29.3230   20.7840 C   0  0  0  0  0  0  0  0  0  0  0  0
  -27.3510  -28.4610   20.8090 C   0  0  0  0  0  3  0  0  0  0  0  0
  -26.1650  -26.8060   19.5320 C   0  0  0  0  0  3  0  0  0  0  0  0
  -25.0240  -27.6330   19.5070 C   0  0  0  0  0  3  0  0  0  0  0  0
  -23.7700  -29.7520   20.1730 C   0  0  0  0  0  2  0  0  0  0  0  0
  -24.7570  -31.0090   22.1230 N   0  0  0  0  0  0  0  0  0  0  0  0
  -23.5400  -32.1060   23.7080 O   0  0  0  0  0  0  0  0  0  0  0  0
  -22.8230  -29.3960   22.4900 C   0  0  0  0  0  0  0  0  0  0  0  0
  -21.5000  -29.2100   22.3460 N   0  0  0  0  0  0  0  0  0  0  0  0
  -23.4890  -28.7780   23.3250 O   0  0  0  0  0  0  0  0  0  0  0  0
  -21.0140  -29.7630   21.6530 H   0  0  0  0  0  0  0  0  0  0  0  0
  -18.1240  -27.9810   22.8200 C   0  0  0  0  0  0  0  0  0  0  0  0
  -20.6810  -28.2570   23.1050 C   0  0  0  0  0  3  0  0  0  0  0  0
  -20.7930  -26.8300   22.5220 C   0  0  0  0  0  2  0  0  0  0  0  0
  -19.7020  -26.5100   21.4980 C   0  0  0  0  0  2  0  0  0  0  0  0
  -18.3130  -26.6390   22.1330 C   0  0  0  0  0  2  0  0  0  0  0  0
  -19.2340  -28.7460   23.2630 C   0  0  0  0  0  0  0  0  0  0  0  0
  -19.0030  -29.9970   23.8690 C   0  0  0  0  0  3  0  0  0  0  0  0
  -17.6930  -30.4860   24.0380 C   0  0  0  0  0  3  0  0  0  0  0  0
  -16.5960  -29.7150   23.6150 C   0  0  0  0  0  3  0  0  0  0  0  0
  -16.8130  -28.4660   23.0080 C   0  0  0  0  0  3  0  0  0  0  0  0
  -25.8920  -32.5030   23.8590 C   0  0  0  0  0  3  0  0  0  0  0  0
  -25.5460  -33.9000   24.1720 N   0  0  0  0  0  0  0  0  0  0  0  0
  -25.8720  -34.9550   23.4140 C   0  0  0  0  0  0  0  0  0  0  0  0
  -26.5580  -34.8570   22.3930 O   0  0  0  0  0  0  0  0  0  0  0  0
  -24.9340  -34.0500   24.9610 H   0  0  0  0  0  0  0  0  0  0  0  0
  -24.1080  -36.7140   23.0350 C   0  0  0  0  0  1  0  0  0  0  0  0
  -25.3530  -36.3380   23.8560 C   0  0  0  0  0  3  0  0  0  0  0  0
  -27.4590  -37.2710   24.7000 C   0  0  0  0  0  1  0  0  0  0  0  0
  -26.3650  -37.4090   23.7440 N   0  0  0  0  0  0  0  0  0  0  0  0
  -25.9400  -38.3200   23.8830 H   0  0  0  0  0  0  0  0  0  0  0  0
  -26.3810  -31.7540   25.1590 C   0  0  1  0  0  0  0  0  0  0  0  0
  -25.2570  -31.5090   26.1940 C   0  0  0  0  0  1  0  0  0  0  0  0
  -27.0060  -30.3820   24.8100 C   0  0  0  0  0  1  0  0  0  0  0  0
  -27.4960  -32.5770   25.8470 C   0  0  0  0  0  1  0  0  0  0  0  0
  -30.9910  -23.6030   18.8870 C   0  0  0  0  0  2  0  0  0  0  0  0
  -31.4930  -22.9850   17.5520 C   0  0  0  0  0  2  0  0  0  0  0  0
  -29.3380  -23.6810   16.2790 C   0  0  0  0  0  1  0  0  0  0  0  0
  -29.9170  -21.2160   16.5210 C   0  0  0  0  0  1  0  0  0  0  0  0
  -30.4670  -22.6510   16.4350 C   0  0  0  0  0  3  0  0  0  0  0  0
  2  1  1  0
  2  8  1  0
  3  1  2  0
  4  2  2  0
  5  4  1  0
  5  3  1  0
  8  6  1  1
  8  7  1  0
  9 18  1  0
  9  8  1  0
 10 18  1  0
 11 16  1  0
 12 13  1  0
 12 11  1  0
 14 13  1  0
 14 23  1  0
 14 15  1  0
 16 10  1  0
 16 15  1  0
 17 10  2  0
 18 19  1  0
 20 21  2  0
 21 40  1  0
 22 21  1  0
 22 25  1  0
 23 24  1  0
 23 20  1  0
 24 22  2  0
 25 26  1  0
 26 27  2  0
 28 31  1  0
 28 27  1  0
 29 28  2  0
 30 29  1  0
 30 25  2  0
 31 32  1  0
 32 37  2  0
 32 33  1  0
 33 34  2  0
 34 35  1  0
 35 39  1  0
 36 35  2  0
 37 36  1  0
 38 37  1  0
 40 41  1  0
 41 44  1  0
 41 43  1  0
 42 40  2  0
 45 20  1  0
 45 46  1  0
 47 45  1  0
 48  3  1  0
 48 49  1  0
 50 61  2  0
 51 49  1  0
 51 56  1  0
 52 60  1  0
 52 62  1  0
 53 59  1  0
 53 55  1  0
 54 60  1  0
 55 56  2  0
 55 54  1  0
 57 51  2  0
 58 57  1  0
 58 53  2  0
 59 52  1  0
 60 50  1  0
 62 64  2  0
 63 62  1  0
 65 63  1  0
 66 75  2  0
 66 71  1  0
 67 63  1  0
 67 71  1  0
 68 67  1  0
 69 70  1  0
 69 68  1  0
 70 66  1  0
 71 72  2  0
 72 73  1  0
 74 73  2  0
 75 74  1  0
 76 50  1  0
 76 77  1  0
 76 86  1  0
 77 80  1  0
 78 82  1  0
 78 77  1  0
 79 78  2  0
 82 81  1  0
 84 82  1  0
 84 85  1  0
 84 83  1  0
 86 89  1  1
 86 87  1  0
 88 86  1  0
 90  5  1  0
 91 90  1  0
 92 94  1  0
 94 93  1  0
 94 91  1  0
M  ISO  4  10 100  18 100  48 101  49 101
M  END
>  <TORSDO>  (39) 
F 22

>  <SCORE>  (39) 
-12.432

>  <name>  (39) 
40

>  <ligand_id>  (39) 
40

>  <original_smiles>  (39) 
[H]c1c([H])c([H])c2c(c1[H])C([H])([H])C([H])([H])C([H])([H])C2([H])N([H])C(=O)C1([H])N(C(=O)C([H])(N([H])C(=O)C([H])(N([H])C([H])([H])[H])C([H])([H])[H])C(C([H])([H])[H])(C([H])([H])[H])C([H])([H])[H])C([H])([H])c2c([H])c(OC([H])([H])c3c([H])c(C(C([H])([H])[H])(C([H])([H])[H])C([H])([H])N([H])C(=O)N4C([H])([H])C([H])([H])C([H])([H])C([H])(n5nc(-c6c([H])c([H])c(Oc7c([H])c([H])c(F)c([H])c7F)c([H])c6[H])c(C(=O)N([H])[H])c5N([H])[H])C4([H])[H])nn3C([H])([H])C([H])([H])C([H])(C([H])([H])[H])C([H])([H])[H])c([H])c([H])c2C1([H])[H]

>  <smiles>  (39) 
[H]c1c([H])c([H])c2c(c1[H])C([H])([H])C([H])([H])C([H])([H])C2([H])N([H])C(=O)C1([H])N(C(=O)C([H])(N([H])C(=O)C([H])(N([H])C([H])([H])[H])C([H])([H])[H])C(C([H])([H])[H])(C([H])([H])[H])C([H])([H])[H])C([H])([H])c2c([H])c(OC([H])([H])c3c([H])c(C(C([H])([H])[H])(C([H])([H])[H])C([H])([H])N([H])C(=O)N4C([H])([H])C([H])([H])C([H])([H])C([H])(n5nc(-c6c([H])c([H])c(Oc7c([H])c([H])c(F)c([H])c7F)c([H])c6[H])c(C(=O)N([H])[H])c5N([H])[H])C4([H])[H])nn3C([H])([H])C([H])([H])C([H])(C([H])([H])[H])C([H])([H])[H])c([H])c([H])c2C1([H])[H]

$$$$
41:0:0
     RDKit          3D

 90 87  0  0  1  0  0  0  0  0999 V2000
  -28.9410  -15.4790   19.0730 C   0  0  0  0  0 15  0  0  0  0  0  0
  -27.2650  -14.8420   21.9940 C   0  0  0  0  0 15  0  0  0  0  0  0
  -27.9120  -16.2600   20.5680 C   0  0  0  0  0 15  0  0  0  0  0  0
  -29.0670  -13.5110   18.6090 C   0  0  0  0  0  1  0  0  0  0  0  0
  -27.3730  -12.8140   21.7300 N   0  0  0  0  0 15  0  0  0  0  0  0
  -28.1530  -12.0630   19.8590 N   0  0  0  0  0 15  0  0  0  0  0  0
  -30.6200  -14.3740   16.7980 C   0  0  0  0  0  1  0  0  0  0  0  0
  -30.5850  -13.6320   18.1460 C   0  0  0  0  0  3  0  0  0  0  0  0
  -31.8570  -14.5310   20.5000 C   0  0  0  0  0  0  0  0  0  0  0  0
  -31.6790  -12.3530   21.1020 C   0  0  0  0  0  2  0  0  0  0  0  0
  -30.5040  -12.0100   20.3560 C   0  0  0  0  0  2  0  0  0  0  0  0
  -29.3390  -13.2770   20.8960 C   0  0  0  0  0  2  0  0  0  0  0  0
  -27.4410  -13.8640   20.0840 C   0  0  0  0  0  1  0  0  0  0  0  0
  -29.6910  -14.1480   21.5180 C   0  0  0  0  0  2  0  0  0  0  0  0
  -31.3660  -13.7460   21.3950 N   0  0  0  0  0  0  0  0  0  0  0  0
  -32.6290  -15.3210   20.9730 O   0  0  0  0  0  0  0  0  0  0  0  0
  -31.5580  -14.3920   19.1250 N   0  0  0  0  0  0  0  0  0  0  0  0
  -32.0970  -15.0690   18.6070 H   0  0  0  0  0  0  0  0  0  0  0  0
  -24.9770  -13.6420   20.4560 C   0  0  0  0  0  3  0  0  0  0  0  0
  -24.1040  -12.6880   20.8540 C   0  0  0  0  0  3  0  0  0  0  0  0
  -24.7210  -11.4100   20.9210 C   0  0  0  0  0  3  0  0  0  0  0  0
  -26.0170  -13.0030   20.0250 N   0  0  0  0  0  0  0  0  0  0  0  0
  -25.7510  -11.5870   20.1570 N   0  0  0  0  0  2  0  0  0  0  0  0
  -24.2200  -10.0410   21.2070 C   0  0  0  0  0  0  0  0  0  0  0  0
  -24.5630   -9.2430   22.3340 C   0  0  0  0  0  3  0  0  0  0  0  0
  -23.9410   -7.9800   22.5400 C   0  0  0  0  0  3  0  0  0  0  0  0
  -22.9700   -7.5120   21.6190 C   0  0  0  0  0  0  0  0  0  0  0  0
  -22.6800   -8.2860   20.4870 C   0  0  0  0  0  3  0  0  0  0  0  0
  -23.2990   -9.5260   20.2830 C   0  0  0  0  0  3  0  0  0  0  0  0
  -22.3010   -6.3120   21.7040 O   0  0  0  0  0  0  0  0  0  0  0  0
  -22.0400   -5.6920   22.8970 C   0  0  0  0  0  0  0  0  0  0  0  0
  -21.3460   -6.3340   23.9470 C   0  0  0  0  0  3  0  0  0  0  0  0
  -21.0410   -5.6240   25.1260 C   0  0  0  0  0  3  0  0  0  0  0  0
  -21.4230   -4.2730   25.2540 C   0  0  0  0  0  0  0  0  0  0  0  0
  -22.1040   -3.6300   24.2050 C   0  0  0  0  0  3  0  0  0  0  0  0
  -22.4060   -4.3370   23.0290 C   0  0  0  0  0  0  0  0  0  0  0  0
  -23.0380   -3.7070   22.0100 F   0  0  0  0  0  0  0  0  0  0  0  0
  -21.1330   -3.5900   26.3860 F   0  0  0  0  0  0  0  0  0  0  0  0
  -22.6820  -12.9530   20.7890 C   0  0  0  0  0  0  0  0  0  0  0  0
  -21.9020  -12.2540   21.5890 N   0  0  0  0  0  0  0  0  0  0  0  0
  -22.2820  -13.8040   19.9980 O   0  0  0  0  0  0  0  0  0  0  0  0
  -22.2860  -11.5710   22.2240 H   0  0  0  0  0  0  0  0  0  0  0  0
  -20.9030  -12.4050   21.5730 H   0  0  0  0  0  0  0  0  0  0  0  0
  -25.0170  -15.0190   20.3280 N   0  0  0  0  0  0  0  0  0  0  0  0
  -25.7140  -15.4910   19.7650 H   0  0  0  0  0  0  0  0  0  0  0  0
  -24.1800  -15.5720   20.4660 H   0  0  0  0  0  0  0  0  0  0  0  0
  -27.4470  -18.3140   20.4980 C   0  0  0  0  0 15  0  0  0  0  0  0
  -27.7150  -20.4230   19.8360 C   0  0  0  0  0 15  0  0  0  0  0  0
  -27.1820  -22.5910   19.8870 C   0  0  0  0  0 15  0  0  0  0  0  0
  -27.5320  -24.5460   19.6070 O   0  0  0  0  0  1  0  0  0  0  0  0
  -24.8790  -31.5950   22.7990 C   0  0  0  0  0  0  0  0  0  0  0  0
  -26.8250  -26.0640   19.6530 C   0  0  0  0  0  0  0  0  0  0  0  0
  -23.5650  -30.2630   21.2210 C   0  0  0  0  0  3  0  0  0  0  0  0
  -24.8360  -28.5270   19.7010 C   0  0  0  0  0  0  0  0  0  0  0  0
  -26.1450  -30.1720   20.9940 C   0  0  0  0  0  2  0  0  0  0  0  0
  -26.0800  -28.7050   20.3120 C   0  0  0  0  0  0  0  0  0  0  0  0
  -27.0550  -27.5140   20.2440 C   0  0  0  0  0  3  0  0  0  0  0  0
  -25.6050  -26.2440   18.9410 C   0  0  0  0  0  3  0  0  0  0  0  0
  -24.6700  -27.3350   18.9760 C   0  0  0  0  0  3  0  0  0  0  0  0
  -23.7120  -29.5840   19.8250 C   0  0  0  0  0  2  0  0  0  0  0  0
  -24.9010  -30.7230   21.7190 N   0  0  0  0  0  0  0  0  0  0  0  0
  -23.8170  -31.9300   23.3590 O   0  0  0  0  0  0  0  0  0  0  0  0
  -22.8590  -29.3030   22.2200 C   0  0  0  0  0  0  0  0  0  0  0  0
  -21.5180  -29.1790   22.1610 N   0  0  0  0  0  0  0  0  0  0  0  0
  -23.5350  -28.6660   23.0310 O   0  0  0  0  0  0  0  0  0  0  0  0
  -21.0140  -29.7440   21.4910 H   0  0  0  0  0  0  0  0  0  0  0  0
  -18.1480  -27.9620   22.8140 C   0  0  0  0  0  0  0  0  0  0  0  0
  -20.7180  -28.2440   22.9660 C   0  0  0  0  0  3  0  0  0  0  0  0
  -20.7970  -26.8090   22.3930 C   0  0  0  0  0  2  0  0  0  0  0  0
  -19.6580  -26.4850   21.4210 C   0  0  0  0  0  2  0  0  0  0  0  0
  -18.3030  -26.6200   22.1210 C   0  0  0  0  0  2  0  0  0  0  0  0
  -19.2810  -28.7340   23.1960 C   0  0  0  0  0  0  0  0  0  0  0  0
  -19.0750  -29.9840   23.8160 C   0  0  0  0  0  3  0  0  0  0  0  0
  -17.7750  -30.4700   24.0490 C   0  0  0  0  0  3  0  0  0  0  0  0
  -16.6600  -29.7000   23.6770 C   0  0  0  0  0  3  0  0  0  0  0  0
  -16.8470  -28.4470   23.0660 C   0  0  0  0  0  3  0  0  0  0  0  0
  -26.1750  -32.2280   23.3900 C   0  0  0  0  0  3  0  0  0  0  0  0
  -26.8200  -31.3540   24.5380 C   0  0  1  0  0  0  0  0  0  0  0  0
  -25.8320  -30.9740   25.6670 C   0  0  0  0  0  1  0  0  0  0  0  0
  -27.4070  -30.0420   23.9790 C   0  0  0  0  0  1  0  0  0  0  0  0
  -28.0050  -32.1190   25.1770 C   0  0  0  0  0  1  0  0  0  0  0  0
  -25.8470  -33.5680   23.9310 N   0  0  0  0  0  0  0  0  0  0  0  0
  -26.1270  -34.7410   23.3430 C   0  0  0  0  0  0  0  0  0  0  0  0
  -26.7390  -34.8130   22.2750 O   0  0  0  0  0  0  0  0  0  0  0  0
  -25.2940  -33.5840   24.7740 H   0  0  0  0  0  0  0  0  0  0  0  0
  -24.3780  -36.5610   23.3870 C   0  0  0  0  0  1  0  0  0  0  0  0
  -25.6650  -36.0400   24.0460 C   0  0  0  0  0  3  0  0  0  0  0  0
  -27.8400  -36.8200   24.8840 C   0  0  0  0  0  1  0  0  0  0  0  0
  -26.6840  -37.1130   24.0420 N   0  0  0  0  0  0  0  0  0  0  0  0
  -26.2820  -37.9940   24.3500 H   0  0  0  0  0  0  0  0  0  0  0  0
  7  8  1  0
  8  4  1  0
  8 17  1  0
  9 16  2  0
  9 15  1  0
 10 15  1  0
 11 12  1  0
 11 10  1  0
 12 14  1  0
 15 14  1  0
 17  9  1  0
 18 17  1  0
 19 44  1  0
 19 20  1  0
 20 39  1  0
 20 21  1  0
 21 24  1  0
 22 13  1  0
 22 23  1  0
 22 19  1  0
 23 21  1  0
 24 25  1  0
 25 26  2  0
 27 30  1  0
 27 26  1  0
 28 27  2  0
 29 28  1  0
 29 24  2  0
 30 31  1  0
 31 36  2  0
 31 32  1  0
 32 33  2  0
 33 34  1  0
 34 38  1  0
 35 34  2  0
 36 35  1  0
 37 36  1  0
 39 40  1  0
 40 42  1  0
 41 39  2  0
 43 40  1  0
 44 46  1  0
 45 44  1  0
 50 52  1  0
 51 62  2  0
 52 57  1  0
 53 61  1  0
 53 63  1  0
 54 60  1  0
 54 56  1  0
 55 61  1  0
 56 55  1  0
 57 56  2  0
 58 59  1  0
 58 52  2  0
 59 54  2  0
 60 53  1  0
 61 51  1  0
 63 65  2  0
 64 63  1  0
 66 64  1  0
 67 76  2  0
 67 72  1  0
 68 64  1  0
 68 72  1  0
 69 68  1  0
 70 71  1  0
 70 69  1  0
 71 67  1  0
 72 73  2  0
 73 74  1  0
 75 74  2  0
 76 75  1  0
 77 51  1  0
 77 82  1  0
 77 78  1  0
 78 81  1  1
 78 79  1  0
 80 78  1  0
 82 85  1  0
 83 82  1  0
 83 87  1  0
 84 83  2  0
 87 86  1  0
 89 87  1  0
 89 90  1  0
 89 88  1  0
M  ISO  4   9 100  17 100  49 101  50 101
M  END
>  <TORSDO>  (40) 
F 20

>  <SCORE>  (40) 
-8.163

>  <name>  (40) 
41

>  <ligand_id>  (40) 
41

>  <original_smiles>  (40) 
[H]c1nnc(C([H])(N([H])C(=O)N2C([H])([H])C([H])([H])C([H])([H])C([H])(n3nc(-c4c([H])c([H])c(Oc5c([H])c([H])c(F)c([H])c5F)c([H])c4[H])c(C(=O)N([H])[H])c3N([H])[H])C2([H])[H])C([H])([H])[H])c([H])c1C([H])([H])C([H])([H])C([H])([H])Oc1c([H])c([H])c2c(c1[H])C([H])([H])N(C(=O)C([H])(N([H])C(=O)C([H])(N([H])C([H])([H])[H])C([H])([H])[H])C(C([H])([H])[H])(C([H])([H])[H])C([H])([H])[H])C([H])(C(=O)N([H])C1([H])c3c([H])c([H])c([H])c([H])c3C([H])([H])C([H])([H])C1([H])[H])C2([H])[H]

>  <smiles>  (40) 
[H]c1nnc(C([H])(N([H])C(=O)N2C([H])([H])C([H])([H])C([H])([H])C([H])(n3nc(-c4c([H])c([H])c(Oc5c([H])c([H])c(F)c([H])c5F)c([H])c4[H])c(C(=O)N([H])[H])c3N([H])[H])C2([H])[H])C([H])([H])[H])c([H])c1C([H])([H])C([H])([H])C([H])([H])Oc1c([H])c([H])c2c(c1[H])C([H])([H])N(C(=O)C([H])(N([H])C(=O)C([H])(N([H])C([H])([H])[H])C([H])([H])[H])C(C([H])([H])[H])(C([H])([H])[H])C([H])([H])[H])C([H])(C(=O)N([H])C1([H])c3c([H])c([H])c([H])c([H])c3C([H])([H])C([H])([H])C1([H])[H])C2([H])[H]

$$$$
42:0:0
     RDKit          3D

 88 95  0  0  1  0  0  0  0  0999 V2000
  -28.7340  -21.8820   20.1200 C   0  0  0  0  0  2  0  0  0  0  0  0
  -31.1570  -21.1180   19.8360 C   0  0  0  0  0  1  0  0  0  0  0  0
  -29.8060  -20.6310   20.4140 C   0  0  0  0  0  3  0  0  0  0  0  0
  -29.5430  -19.0090   18.4960 C   0  0  0  0  0  1  0  0  0  0  0  0
  -29.4820  -19.1370   19.9720 N   0  0  1  0  0  4  0  0  0  0  0  0
  -28.4980  -19.0560   20.1840 H   0  0  0  0  0  0  0  0  0  0  0  0
  -31.6370  -17.9490   20.8290 C   0  0  0  0  0  1  0  0  0  0  0  0
  -30.1070  -17.8540   20.6830 C   0  0  0  0  0  3  0  0  0  0  0  0
  -29.6300  -16.2890   20.2870 C   0  0  0  0  0  2  0  0  0  0  0  0
  -30.5140  -14.8940   20.3000 C   0  0  0  0  0  0  0  0  0  0  0  0
  -30.3910  -12.5510   19.3840 C   0  0  0  0  0  2  0  0  0  0  0  0
  -29.4570  -12.5680   18.1490 C   0  0  0  0  0  2  0  0  0  0  0  0
  -27.9850  -12.3830   18.5680 C   0  0  0  0  0  2  0  0  0  0  0  0
  -27.5920  -13.2910   19.7620 C   0  0  0  0  0  3  0  0  0  0  0  0
  -28.6470  -13.2570   20.8890 C   0  0  0  0  0  2  0  0  0  0  0  0
  -29.9400  -13.6290   20.3040 N   0  0  0  0  0  0  0  0  0  0  0  0
  -31.7210  -14.9570   20.0420 O   0  0  0  0  0  0  0  0  0  0  0  0
  -25.2050  -13.8800   20.4830 C   0  0  0  0  0  0  0  0  0  0  0  0
  -24.1380  -13.1090   20.8530 C   0  0  0  0  0  0  0  0  0  0  0  0
  -24.6020  -11.7570   20.8370 C   0  0  0  0  0  0  0  0  0  0  0  0
  -26.2500  -12.9990   20.2550 N   0  0  0  0  0  0  0  0  0  0  0  0
  -25.8940  -11.7170   20.5320 N   0  0  0  0  0  0  0  0  0  0  0  0
  -23.8730  -10.4960   21.0340 C   0  0  0  0  0  0  0  0  0  0  0  0
  -24.3100   -9.5280   21.9640 C   0  0  0  0  0  3  0  0  0  0  0  0
  -23.5820   -8.3330   22.1480 C   0  0  0  0  0  3  0  0  0  0  0  0
  -22.4020   -8.0990   21.4030 C   0  0  0  0  0  0  0  0  0  0  0  0
  -21.9850   -9.0560   20.4620 C   0  0  0  0  0  3  0  0  0  0  0  0
  -22.7130  -10.2420   20.2760 C   0  0  0  0  0  3  0  0  0  0  0  0
  -21.6430   -6.9560   21.4970 O   0  0  0  0  0  0  0  0  0  0  0  0
  -21.6130   -6.2060   22.6450 C   0  0  0  0  0  0  0  0  0  0  0  0
  -21.2220   -6.7550   23.8850 C   0  0  0  0  0  3  0  0  0  0  0  0
  -21.1380   -5.9320   25.0260 C   0  0  0  0  0  3  0  0  0  0  0  0
  -21.4350   -4.5590   24.9270 C   0  0  0  0  0  0  0  0  0  0  0  0
  -21.8190   -4.0090   23.6910 C   0  0  0  0  0  3  0  0  0  0  0  0
  -21.9050   -4.8290   22.5540 C   0  0  0  0  0  0  0  0  0  0  0  0
  -22.2560   -4.2890   21.3610 F   0  0  0  0  0  0  0  0  0  0  0  0
  -21.3480   -3.7670   26.0190 F   0  0  0  0  0  0  0  0  0  0  0  0
  -22.7380  -13.5880   21.1120 C   0  0  0  0  0  0  0  0  0  0  0  0
  -22.0070  -12.9000   21.9810 N   0  0  0  0  0  0  0  0  0  0  0  0
  -22.3030  -14.6080   20.5770 O   0  0  0  0  0  0  0  0  0  0  0  0
  -22.3750  -12.0740   22.4310 H   0  0  0  0  0  0  0  0  0  0  0  0
  -21.0680  -13.2010   22.1990 H   0  0  0  0  0  0  0  0  0  0  0  0
  -25.3720  -15.2480   20.2960 N   0  0  0  0  0  0  0  0  0  0  0  0
  -24.6060  -15.9060   20.3960 H   0  0  0  0  0  0  0  0  0  0  0  0
  -26.2200  -15.6800   19.9540 H   0  0  0  0  0  0  0  0  0  0  0  0
  -29.0560  -23.5020   20.3910 C   0  0  0  0  0  3  0  0  0  0  0  0
  -28.0060  -24.7460   20.0480 C   0  0  0  0  0  3  0  0  0  0  0  0
  -28.2540  -26.2500   20.2720 O   0  0  0  0  0  0  0  0  0  0  0  0
  -24.6100  -31.8810   23.2490 C   0  0  0  0  0  0  0  0  0  0  0  0
  -27.1800  -27.2000   20.2050 C   0  0  0  0  0  0  0  0  0  0  0  0
  -23.4030  -30.4850   21.6140 C   0  0  0  0  0  3  0  0  0  0  0  0
  -24.8440  -28.9150   20.1840 C   0  0  0  0  0  0  0  0  0  0  0  0
  -25.9530  -30.7600   21.4360 C   0  0  0  0  0  2  0  0  0  0  0  0
  -26.0240  -29.3710   20.7850 C   0  0  0  0  0  0  0  0  0  0  0  0
  -27.1940  -28.5300   20.7760 C   0  0  0  0  0  3  0  0  0  0  0  0
  -25.9740  -26.8340   19.5670 C   0  0  0  0  0  3  0  0  0  0  0  0
  -24.8300  -27.6590   19.5590 C   0  0  0  0  0  3  0  0  0  0  0  0
  -23.6150  -29.8070   20.2350 C   0  0  0  0  0  2  0  0  0  0  0  0
  -24.6760  -31.0630   22.1550 N   0  0  0  0  0  0  0  0  0  0  0  0
  -23.5260  -32.1670   23.7790 O   0  0  0  0  0  0  0  0  0  0  0  0
  -22.7270  -29.4790   22.5790 C   0  0  0  0  0  0  0  0  0  0  0  0
  -21.4010  -29.3060   22.4520 N   0  0  0  0  0  0  0  0  0  0  0  0
  -23.3990  -28.8550   23.4040 O   0  0  0  0  0  0  0  0  0  0  0  0
  -20.9170  -29.8600   21.7600 H   0  0  0  0  0  0  0  0  0  0  0  0
  -18.0180  -28.1040   22.9390 C   0  0  0  0  0  0  0  0  0  0  0  0
  -20.5750  -28.3740   23.2240 C   0  0  0  0  0  3  0  0  0  0  0  0
  -20.6830  -26.9380   22.6600 C   0  0  0  0  0  2  0  0  0  0  0  0
  -19.5880  -26.6040   21.6410 C   0  0  0  0  0  2  0  0  0  0  0  0
  -18.2020  -26.7510   22.2750 C   0  0  0  0  0  2  0  0  0  0  0  0
  -19.1320  -28.8740   23.3700 C   0  0  0  0  0  0  0  0  0  0  0  0
  -18.9030  -30.1390   23.9520 C   0  0  0  0  0  3  0  0  0  0  0  0
  -17.5950  -30.6350   24.1070 C   0  0  0  0  0  3  0  0  0  0  0  0
  -16.4960  -29.8630   23.6910 C   0  0  0  0  0  3  0  0  0  0  0  0
  -16.7090  -28.5990   23.1140 C   0  0  0  0  0  3  0  0  0  0  0  0
  -25.8920  -32.5120   23.8730 C   0  0  0  0  0  3  0  0  0  0  0  0
  -25.5840  -33.9120   24.2050 N   0  0  0  0  0  0  0  0  0  0  0  0
  -25.9090  -34.9660   23.4460 C   0  0  0  0  0  0  0  0  0  0  0  0
  -26.5680  -34.8640   22.4080 O   0  0  0  0  0  0  0  0  0  0  0  0
  -24.9960  -34.0670   25.0120 H   0  0  0  0  0  0  0  0  0  0  0  0
  -24.1730  -36.7610   23.1250 C   0  0  0  0  0  1  0  0  0  0  0  0
  -25.4300  -36.3560   23.9120 C   0  0  0  0  0  3  0  0  0  0  0  0
  -27.5810  -37.2440   24.6990 C   0  0  0  0  0  1  0  0  0  0  0  0
  -26.4590  -37.4100   23.7780 N   0  0  0  0  0  0  0  0  0  0  0  0
  -26.0560  -38.3300   23.9300 H   0  0  0  0  0  0  0  0  0  0  0  0
  -26.4020  -31.7410   25.1520 C   0  0  1  0  0  0  0  0  0  0  0  0
  -25.3070  -31.5120   26.2200 C   0  0  0  0  0  1  0  0  0  0  0  0
  -26.9770  -30.3590   24.7660 C   0  0  0  0  0  1  0  0  0  0  0  0
  -27.5560  -32.5310   25.8120 C   0  0  0  0  0  1  0  0  0  0  0  0
  1 46  1  0
  1  3  1  0
  3  2  1  0
  4  5  1  0
  5  6  1  1
  5  3  1  0
  5  8  1  0
  8  7  1  0
  9 10  1  0
  9  8  1  0
 10 16  1  0
 11 16  1  0
 12 13  1  0
 12 11  1  0
 14 13  1  0
 14 21  1  0
 14 15  1  0
 16 15  1  0
 17 10  2  0
 18 19  2  0
 19 38  1  0
 20 19  1  0
 20 23  1  0
 21 18  1  0
 21 22  1  0
 22 20  2  0
 23 24  1  0
 24 25  2  0
 26 29  1  0
 26 25  1  0
 27 26  2  0
 28 27  1  0
 28 23  2  0
 29 30  1  0
 30 31  1  0
 31 32  2  0
 33 32  1  0
 33 37  1  0
 34 33  2  0
 35 30  2  0
 35 34  1  0
 36 35  1  0
 38 39  1  0
 39 42  1  0
 39 41  1  0
 40 38  2  0
 43 44  1  0
 43 18  1  0
 45 43  1  0
 47 48  1  0
 47 46  2  0
 49 60  2  0
 50 48  1  0
 50 55  1  0
 51 59  1  0
 51 61  1  0
 52 58  1  0
 52 54  1  0
 53 59  1  0
 54 53  1  0
 55 54  2  0
 56 50  2  0
 57 56  1  0
 57 52  2  0
 58 51  1  0
 59 49  1  0
 61 63  2  0
 62 61  1  0
 64 62  1  0
 65 74  2  0
 65 70  1  0
 66 62  1  0
 66 70  1  0
 67 66  1  0
 68 69  1  0
 68 67  1  0
 69 65  1  0
 70 71  2  0
 71 72  1  0
 73 72  2  0
 74 73  1  0
 75 49  1  0
 75 76  1  0
 75 85  1  0
 76 79  1  0
 77 81  1  0
 77 76  1  0
 78 77  2  0
 81 80  1  0
 83 81  1  0
 83 84  1  0
 83 82  1  0
 85 88  1  1
 85 86  1  0
 87 85  1  0
M  ISO  4   9 100  10 100  47 101  48 101
M  END
>  <TORSDO>  (41) 
F 22

>  <SCORE>  (41) 
-13.035

>  <name>  (41) 
42

>  <ligand_id>  (41) 
42

>  <original_smiles>  (41) 
[H]c1c([H])c([H])c2c(c1[H])C([H])([H])C([H])([H])C([H])([H])C2([H])N([H])C(=O)C1([H])N(C(=O)C([H])(N([H])C(=O)C([H])(N([H])C([H])([H])[H])C([H])([H])[H])C(C([H])([H])[H])(C([H])([H])[H])C([H])([H])[H])C([H])([H])c2c([H])c(OC([H])([H])C([H])([H])C([H])([H])C([H])(C([H])([H])[H])[N+]([H])(C([H])([H])[H])C([H])(C([H])([H])[H])C([H])([H])C(=O)N3C([H])([H])C([H])([H])C([H])([H])C([H])(n4nc(-c5c([H])c([H])c(Oc6c([H])c([H])c(F)c([H])c6F)c([H])c5[H])c(C(=O)N([H])[H])c4N([H])[H])C3([H])[H])c([H])c([H])c2C1([H])[H]

>  <smiles>  (41) 
[H]c1c([H])c([H])c2c(c1[H])C([H])([H])C([H])([H])C([H])([H])C2([H])N([H])C(=O)C1([H])N(C(=O)C([H])(N([H])C(=O)C([H])(N([H])C([H])([H])[H])C([H])([H])[H])C(C([H])([H])[H])(C([H])([H])[H])C([H])([H])[H])C([H])([H])c2c([H])c(OC([H])([H])C([H])([H])C([H])([H])C([H])(C([H])([H])[H])[N+]([H])(C([H])([H])[H])C([H])(C([H])([H])[H])C([H])([H])C(=O)N3C([H])([H])C([H])([H])C([H])([H])C([H])(n4nc(-c5c([H])c([H])c(Oc6c([H])c([H])c(F)c([H])c6F)c([H])c5[H])c(C(=O)N([H])[H])c4N([H])[H])C3([H])[H])c([H])c([H])c2C1([H])[H]

$$$$
44:0:0
     RDKit          3D

 91 99  0  0  1  0  0  0  0  0999 V2000
  -28.7870  -20.5940   21.3450 C   0  0  0  0  0  3  0  0  0  0  0  0
  -29.2680  -19.7810   20.2890 C   0  0  0  0  0  0  0  0  0  0  0  0
  -29.7810  -20.4870   19.1650 C   0  0  0  0  0  0  0  0  0  0  0  0
  -29.7740  -21.9220   19.1600 C   0  0  0  0  0  0  0  0  0  0  0  0
  -29.2730  -22.6440   20.2820 C   0  0  0  0  0  0  0  0  0  0  0  0
  -30.3150  -19.7270   17.9570 C   0  0  0  0  0  1  0  0  0  0  0  0
  -30.3190  -22.6830   17.9520 C   0  0  0  0  0  1  0  0  0  0  0  0
  -28.7900  -21.9560   21.3450 N   0  0  0  0  0  0  0  0  0  0  0  0
  -29.0530  -18.2210   20.3300 C   0  0  0  0  0  2  0  0  0  0  0  0
  -30.2370  -17.2350   20.6980 C   0  0  0  0  0  2  0  0  0  0  0  0
  -30.6300  -14.6920   20.4290 C   0  0  0  0  0  0  0  0  0  0  0  0
  -30.4060  -12.4590   19.3730 C   0  0  0  0  0  2  0  0  0  0  0  0
  -29.4760  -12.5860   18.1470 C   0  0  0  0  0  2  0  0  0  0  0  0
  -28.0000  -12.4280   18.5650 C   0  0  0  0  0  2  0  0  0  0  0  0
  -27.6300  -13.3010   19.7950 C   0  0  0  0  0  3  0  0  0  0  0  0
  -28.6780  -13.1590   20.9210 C   0  0  0  0  0  2  0  0  0  0  0  0
  -29.9920  -13.4850   20.3490 N   0  0  0  0  0  0  0  0  0  0  0  0
  -31.7980  -14.8300   20.0600 O   0  0  0  0  0  0  0  0  0  0  0  0
  -29.8610  -15.7790   20.7400 N   0  0  0  0  0  0  0  0  0  0  0  0
  -28.9100  -15.5720   21.0020 H   0  0  0  0  0  0  0  0  0  0  0  0
  -25.2310  -13.9030   20.4930 C   0  0  0  0  0  0  0  0  0  0  0  0
  -24.1620  -13.1310   20.8560 C   0  0  0  0  0  0  0  0  0  0  0  0
  -24.6230  -11.7790   20.8290 C   0  0  0  0  0  0  0  0  0  0  0  0
  -26.2770  -13.0220   20.2680 N   0  0  0  0  0  0  0  0  0  0  0  0
  -25.9150  -11.7390   20.5310 N   0  0  0  0  0  0  0  0  0  0  0  0
  -23.8940  -10.5170   21.0120 C   0  0  0  0  0  0  0  0  0  0  0  0
  -24.3070   -9.5580   21.9620 C   0  0  0  0  0  3  0  0  0  0  0  0
  -23.5790   -8.3600   22.1340 C   0  0  0  0  0  3  0  0  0  0  0  0
  -22.4230   -8.1150   21.3550 C   0  0  0  0  0  0  0  0  0  0  0  0
  -22.0300   -9.0640   20.3960 C   0  0  0  0  0  3  0  0  0  0  0  0
  -22.7580  -10.2520   20.2210 C   0  0  0  0  0  3  0  0  0  0  0  0
  -21.6690   -6.9700   21.4360 O   0  0  0  0  0  0  0  0  0  0  0  0
  -21.5770   -6.2470   22.5970 C   0  0  0  0  0  0  0  0  0  0  0  0
  -21.0600   -6.8090   23.7860 C   0  0  0  0  0  3  0  0  0  0  0  0
  -20.9190   -6.0120   24.9380 C   0  0  0  0  0  3  0  0  0  0  0  0
  -21.2860   -4.6530   24.9050 C   0  0  0  0  0  0  0  0  0  0  0  0
  -21.7960   -4.0900   23.7210 C   0  0  0  0  0  3  0  0  0  0  0  0
  -21.9390   -4.8860   22.5710 C   0  0  0  0  0  0  0  0  0  0  0  0
  -22.4120   -4.3330   21.4280 F   0  0  0  0  0  0  0  0  0  0  0  0
  -21.1430   -3.8850   26.0100 F   0  0  0  0  0  0  0  0  0  0  0  0
  -22.7620  -13.6100   21.1150 C   0  0  0  0  0  0  0  0  0  0  0  0
  -22.0260  -12.9130   21.9740 N   0  0  0  0  0  0  0  0  0  0  0  0
  -22.3300  -14.6350   20.5910 O   0  0  0  0  0  0  0  0  0  0  0  0
  -22.3880  -12.0830   22.4200 H   0  0  0  0  0  0  0  0  0  0  0  0
  -21.0870  -13.2160   22.1910 H   0  0  0  0  0  0  0  0  0  0  0  0
  -25.3980  -15.2730   20.3140 N   0  0  0  0  0  0  0  0  0  0  0  0
  -24.6260  -15.9250   20.4060 H   0  0  0  0  0  0  0  0  0  0  0  0
  -26.2390  -15.7080   19.9550 H   0  0  0  0  0  0  0  0  0  0  0  0
  -29.3760  -24.2090   20.4330 C   0  0  0  0  0  3  0  0  0  0  0  0
  -28.1820  -25.1320   19.9680 C   0  0  0  0  0  3  0  0  0  0  0  0
  -28.3440  -26.5870   20.1730 O   0  0  0  0  0  0  0  0  0  0  0  0
  -24.5880  -31.9030   23.2380 C   0  0  0  0  0  0  0  0  0  0  0  0
  -27.2060  -27.4030   20.1300 C   0  0  0  0  0  0  0  0  0  0  0  0
  -23.3790  -30.5150   21.5900 C   0  0  0  0  0  3  0  0  0  0  0  0
  -24.8280  -28.9850   20.1440 C   0  0  0  0  0  0  0  0  0  0  0  0
  -25.9140  -30.8520   21.3960 C   0  0  0  0  0  2  0  0  0  0  0  0
  -25.9960  -29.4810   20.7370 C   0  0  0  0  0  0  0  0  0  0  0  0
  -27.1880  -28.7020   20.7190 C   0  0  0  0  0  3  0  0  0  0  0  0
  -26.0140  -26.9540   19.5140 C   0  0  0  0  0  3  0  0  0  0  0  0
  -24.8380  -27.7260   19.5250 C   0  0  0  0  0  3  0  0  0  0  0  0
  -23.5870  -29.8510   20.2040 C   0  0  0  0  0  2  0  0  0  0  0  0
  -24.6460  -31.1060   22.1310 N   0  0  0  0  0  0  0  0  0  0  0  0
  -23.5060  -32.1730   23.7800 O   0  0  0  0  0  0  0  0  0  0  0  0
  -22.7260  -29.4880   22.5440 C   0  0  0  0  0  0  0  0  0  0  0  0
  -21.4020  -29.3020   22.4160 N   0  0  0  0  0  0  0  0  0  0  0  0
  -23.4080  -28.8620   23.3600 O   0  0  0  0  0  0  0  0  0  0  0  0
  -20.9100  -29.8600   21.7310 H   0  0  0  0  0  0  0  0  0  0  0  0
  -18.0260  -28.1060   22.9270 C   0  0  0  0  0  0  0  0  0  0  0  0
  -20.5870  -28.3570   23.1800 C   0  0  0  0  0  3  0  0  0  0  0  0
  -20.6820  -26.9320   22.5850 C   0  0  0  0  0  2  0  0  0  0  0  0
  -19.5710  -26.6260   21.5750 C   0  0  0  0  0  2  0  0  0  0  0  0
  -18.1950  -26.7660   22.2320 C   0  0  0  0  0  2  0  0  0  0  0  0
  -19.1510  -28.8600   23.3570 C   0  0  0  0  0  0  0  0  0  0  0  0
  -18.9390  -30.1160   23.9670 C   0  0  0  0  0  3  0  0  0  0  0  0
  -17.6370  -30.6190   24.1490 C   0  0  0  0  0  3  0  0  0  0  0  0
  -16.5280  -29.8620   23.7340 C   0  0  0  0  0  3  0  0  0  0  0  0
  -16.7230  -28.6070   23.1290 C   0  0  0  0  0  3  0  0  0  0  0  0
  -25.8720  -32.5330   23.8600 C   0  0  0  0  0  3  0  0  0  0  0  0
  -26.3860  -31.7620   25.1380 C   0  0  1  0  0  0  0  0  0  0  0  0
  -25.2890  -31.5210   26.2010 C   0  0  0  0  0  1  0  0  0  0  0  0
  -26.9730  -30.3860   24.7470 C   0  0  0  0  0  1  0  0  0  0  0  0
  -27.5320  -32.5580   25.8050 C   0  0  0  0  0  1  0  0  0  0  0  0
  -25.5670  -33.9320   24.1880 N   0  0  0  0  0  0  0  0  0  0  0  0
  -25.8980  -34.9830   23.4250 C   0  0  0  0  0  0  0  0  0  0  0  0
  -26.5640  -34.8750   22.3920 O   0  0  0  0  0  0  0  0  0  0  0  0
  -24.9740  -34.0890   24.9900 H   0  0  0  0  0  0  0  0  0  0  0  0
  -24.1780  -36.7830   23.0660 C   0  0  0  0  0  1  0  0  0  0  0  0
  -25.4150  -36.3730   23.8810 C   0  0  0  0  0  3  0  0  0  0  0  0
  -27.5450  -37.2560   24.7260 C   0  0  0  0  0  1  0  0  0  0  0  0
  -26.4520  -37.4220   23.7710 N   0  0  0  0  0  0  0  0  0  0  0  0
  -26.0490  -38.3450   23.9080 H   0  0  0  0  0  0  0  0  0  0  0  0
  2  9  1  0
  2  1  2  0
  3  2  1  0
  4  3  2  0
  4  5  1  0
  5 49  1  0
  5  8  2  0
  6  3  1  0
  7  4  1  0
  8  1  1  0
  9 10  1  0
 10 19  1  0
 11 19  1  0
 12 17  1  0
 13 14  1  0
 13 12  1  0
 15 14  1  0
 15 24  1  0
 15 16  1  0
 17 11  1  0
 17 16  1  0
 18 11  2  0
 19 20  1  0
 21 22  2  0
 22 41  1  0
 23 22  1  0
 23 26  1  0
 24 21  1  0
 24 25  1  0
 25 23  2  0
 26 27  1  0
 27 28  2  0
 29 32  1  0
 29 28  1  0
 30 29  2  0
 31 30  1  0
 31 26  2  0
 32 33  1  0
 33 34  1  0
 34 35  2  0
 36 35  1  0
 36 40  1  0
 37 36  2  0
 38 33  2  0
 38 37  1  0
 39 38  1  0
 41 42  1  0
 42 45  1  0
 42 44  1  0
 43 41  2  0
 46 47  1  0
 46 21  1  0
 48 46  1  0
 50 51  1  0
 50 49  2  0
 52 63  2  0
 53 51  1  0
 53 58  1  0
 54 62  1  0
 54 64  1  0
 55 61  1  0
 55 57  1  0
 56 62  1  0
 57 56  1  0
 58 57  2  0
 59 60  1  0
 59 53  2  0
 60 55  2  0
 61 54  1  0
 62 52  1  0
 64 66  2  0
 65 64  1  0
 67 65  1  0
 68 77  2  0
 68 73  1  0
 69 65  1  0
 69 73  1  0
 70 69  1  0
 71 72  1  0
 71 70  1  0
 72 68  1  0
 73 74  2  0
 74 75  1  0
 76 75  2  0
 77 76  1  0
 78 52  1  0
 78 83  1  0
 78 79  1  0
 79 82  1  1
 79 80  1  0
 81 79  1  0
 83 86  1  0
 84 88  1  0
 84 83  1  0
 85 84  2  0
 88 87  1  0
 90 88  1  0
 90 91  1  0
 90 89  1  0
M  ISO  4  11 100  19 100  50 101  51 101
M  END
>  <TORSDO>  (42) 
F 20

>  <SCORE>  (42) 
-13.743

>  <name>  (42) 
44

>  <ligand_id>  (42) 
44

>  <original_smiles>  (42) 
[H]c1nc(C([H])([H])C([H])([H])Oc2c([H])c([H])c3c(c2[H])C([H])([H])N(C(=O)C([H])(N([H])C(=O)C([H])(N([H])C([H])([H])[H])C([H])([H])[H])C(C([H])([H])[H])(C([H])([H])[H])C([H])([H])[H])C([H])(C(=O)N([H])C2([H])c4c([H])c([H])c([H])c([H])c4C([H])([H])C([H])([H])C2([H])[H])C3([H])[H])c(C([H])([H])[H])c(C([H])([H])[H])c1C([H])([H])C([H])([H])N([H])C(=O)N1C([H])([H])C([H])([H])C([H])([H])C([H])(n2nc(-c3c([H])c([H])c(Oc4c([H])c([H])c(F)c([H])c4F)c([H])c3[H])c(C(=O)N([H])[H])c2N([H])[H])C1([H])[H]

>  <smiles>  (42) 
[H]c1nc(C([H])([H])C([H])([H])Oc2c([H])c([H])c3c(c2[H])C([H])([H])N(C(=O)C([H])(N([H])C(=O)C([H])(N([H])C([H])([H])[H])C([H])([H])[H])C(C([H])([H])[H])(C([H])([H])[H])C([H])([H])[H])C([H])(C(=O)N([H])C2([H])c4c([H])c([H])c([H])c([H])c4C([H])([H])C([H])([H])C2([H])[H])C3([H])[H])c(C([H])([H])[H])c(C([H])([H])[H])c1C([H])([H])C([H])([H])N([H])C(=O)N1C([H])([H])C([H])([H])C([H])([H])C([H])(n2nc(-c3c([H])c([H])c(Oc4c([H])c([H])c(F)c([H])c4F)c([H])c3[H])c(C(=O)N([H])[H])c2N([H])[H])C1([H])[H]

$$$$
45:0:0
     RDKit          3D

 94102  0  0  1  0  0  0  0  0999 V2000
  -29.4180  -20.6760   21.8990 C   0  0  0  0  0  3  0  0  0  0  0  0
  -28.9610  -19.3390   19.9420 C   0  0  0  0  0  3  0  0  0  0  0  0
  -28.6100  -20.4240   20.7770 C   0  0  0  0  0  0  0  0  0  0  0  0
  -30.5460  -19.8710   22.1260 C   0  0  0  0  0  0  0  0  0  0  0  0
  -30.1170  -18.5760   20.2400 C   0  0  0  0  0  0  0  0  0  0  0  0
  -30.9030  -18.8650   21.3020 N   0  0  0  0  0  0  0  0  0  0  0  0
  -31.6480  -18.2440   18.2950 C   0  0  0  0  0  1  0  0  0  0  0  0
  -30.6570  -17.5410   19.2400 C   0  0  0  0  0  3  0  0  0  0  0  0
  -31.3400  -16.2750   19.8560 C   0  0  0  0  0  2  0  0  0  0  0  0
  -31.0450  -13.9180   19.1020 C   0  0  0  0  0  0  0  0  0  0  0  0
  -30.6710  -11.5330   18.5830 C   0  0  0  0  0  2  0  0  0  0  0  0
  -29.5880  -11.3720   17.5010 C   0  0  0  0  0  2  0  0  0  0  0  0
  -28.1860  -11.3300   18.1380 C   0  0  0  0  0  2  0  0  0  0  0  0
  -27.9550  -12.4890   19.1450 C   0  0  0  0  0  3  0  0  0  0  0  0
  -29.1390  -12.6130   20.1280 C   0  0  0  0  0  2  0  0  0  0  0  0
  -30.3760  -12.7590   19.3430 N   0  0  0  0  0  0  0  0  0  0  0  0
  -32.0120  -13.9890   18.3390 O   0  0  0  0  0  0  0  0  0  0  0  0
  -30.6040  -15.0050   19.7550 N   0  0  0  0  0  0  0  0  0  0  0  0
  -29.7930  -14.8930   20.3440 H   0  0  0  0  0  0  0  0  0  0  0  0
  -25.8390  -13.3140   20.3580 C   0  0  0  0  0  0  0  0  0  0  0  0
  -24.7480  -12.6490   20.8490 C   0  0  0  0  0  0  0  0  0  0  0  0
  -24.9840  -11.2630   20.5960 C   0  0  0  0  0  0  0  0  0  0  0  0
  -26.6820  -12.3390   19.8460 N   0  0  0  0  0  0  0  0  0  0  0  0
  -26.1780  -11.0920   20.0420 N   0  0  0  0  0  0  0  0  0  0  0  0
  -24.1190  -10.0940   20.7980 C   0  0  0  0  0  0  0  0  0  0  0  0
  -24.4340   -9.0960   21.7470 C   0  0  0  0  0  3  0  0  0  0  0  0
  -23.5770   -7.9910   21.9350 C   0  0  0  0  0  3  0  0  0  0  0  0
  -22.3890   -7.8760   21.1750 C   0  0  0  0  0  0  0  0  0  0  0  0
  -22.0920   -8.8610   20.2150 C   0  0  0  0  0  3  0  0  0  0  0  0
  -22.9480   -9.9560   20.0250 C   0  0  0  0  0  3  0  0  0  0  0  0
  -21.5100   -6.8250   21.2710 O   0  0  0  0  0  0  0  0  0  0  0  0
  -21.1950   -6.2580   22.4800 C   0  0  0  0  0  0  0  0  0  0  0  0
  -20.5740   -6.9960   23.5100 C   0  0  0  0  0  3  0  0  0  0  0  0
  -20.2060   -6.3570   24.7120 C   0  0  0  0  0  3  0  0  0  0  0  0
  -20.4490   -4.9810   24.8810 C   0  0  0  0  0  0  0  0  0  0  0  0
  -21.0630   -4.2430   23.8540 C   0  0  0  0  0  3  0  0  0  0  0  0
  -21.4320   -4.8790   22.6550 C   0  0  0  0  0  0  0  0  0  0  0  0
  -22.0040   -4.1590   21.6610 F   0  0  0  0  0  0  0  0  0  0  0  0
  -20.0880   -4.3650   26.0300 F   0  0  0  0  0  0  0  0  0  0  0  0
  -23.5120  -13.2680   21.4340 C   0  0  0  0  0  0  0  0  0  0  0  0
  -22.8550  -12.5720   22.3560 N   0  0  0  0  0  0  0  0  0  0  0  0
  -23.1480  -14.3980   21.1100 O   0  0  0  0  0  0  0  0  0  0  0  0
  -23.1650  -11.6540   22.6360 H   0  0  0  0  0  0  0  0  0  0  0  0
  -22.0300  -12.9640   22.7870 H   0  0  0  0  0  0  0  0  0  0  0  0
  -26.1790  -14.6620   20.2880 N   0  0  0  0  0  0  0  0  0  0  0  0
  -25.5590  -15.3950   20.6170 H   0  0  0  0  0  0  0  0  0  0  0  0
  -27.0290  -15.0200   19.8720 H   0  0  0  0  0  0  0  0  0  0  0  0
  -30.9490  -19.2300   24.5390 C   0  0  0  0  0  1  0  0  0  0  0  0
  -31.4190  -20.0780   23.3490 C   0  0  0  0  0  2  0  0  0  0  0  0
  -27.3960  -21.3150   20.5110 C   0  0  0  0  0  2  0  0  0  0  0  0
  -27.5870  -22.3600   19.3840 C   0  0  0  0  0  2  0  0  0  0  0  0
  -26.8520  -23.7060   19.6330 C   0  0  0  0  0  2  0  0  0  0  0  0
  -26.8900  -24.6970   18.4410 C   0  0  0  0  0  2  0  0  0  0  0  0
  -27.2420  -26.0460   18.7830 O   0  0  0  0  0  0  0  0  0  0  0  0
  -25.3490  -30.7730   23.7330 C   0  0  0  0  0  0  0  0  0  0  0  0
  -26.2870  -26.9710   19.1550 C   0  0  0  0  0  0  0  0  0  0  0  0
  -23.6210  -30.2480   22.0430 C   0  0  0  0  0  3  0  0  0  0  0  0
  -24.4170  -28.9160   20.0170 C   0  0  0  0  0  0  0  0  0  0  0  0
  -26.1060  -30.0520   21.4700 C   0  0  0  0  0  2  0  0  0  0  0  0
  -25.7320  -28.9540   20.4930 C   0  0  0  0  0  0  0  0  0  0  0  0
  -26.6670  -27.9860   20.0640 C   0  0  0  0  0  3  0  0  0  0  0  0
  -24.9580  -26.9580   18.6740 C   0  0  0  0  0  3  0  0  0  0  0  0
  -24.0240  -27.9190   19.1080 C   0  0  0  0  0  3  0  0  0  0  0  0
  -23.4720  -29.9850   20.5200 C   0  0  0  0  0  2  0  0  0  0  0  0
  -25.0540  -30.3500   22.4710 N   0  0  0  0  0  0  0  0  0  0  0  0
  -24.4560  -31.1160   24.5200 O   0  0  0  0  0  0  0  0  0  0  0  0
  -22.8280  -29.1670   22.8100 C   0  0  0  0  0  0  0  0  0  0  0  0
  -21.4960  -29.1670   22.6390 N   0  0  0  0  0  0  0  0  0  0  0  0
  -23.4100  -28.3370   23.5150 O   0  0  0  0  0  0  0  0  0  0  0  0
  -21.0960  -29.8850   22.0520 H   0  0  0  0  0  0  0  0  0  0  0  0
  -18.0370  -28.1250   22.6480 C   0  0  0  0  0  0  0  0  0  0  0  0
  -20.5530  -28.2190   23.2310 C   0  0  0  0  0  3  0  0  0  0  0  0
  -20.6580  -26.8340   22.5520 C   0  0  0  0  0  2  0  0  0  0  0  0
  -19.6690  -26.6510   21.3960 C   0  0  0  0  0  2  0  0  0  0  0  0
  -18.2290  -26.8220   21.8890 C   0  0  0  0  0  2  0  0  0  0  0  0
  -19.1310  -28.7880   23.2660 C   0  0  0  0  0  0  0  0  0  0  0  0
  -18.9030  -30.0120   23.9280 C   0  0  0  0  0  3  0  0  0  0  0  0
  -17.6120  -30.5730   23.9840 C   0  0  0  0  0  3  0  0  0  0  0  0
  -16.5300  -29.9030   23.3850 C   0  0  0  0  0  3  0  0  0  0  0  0
  -16.7430  -28.6810   22.7230 C   0  0  0  0  0  3  0  0  0  0  0  0
  -26.8220  -30.8700   24.2390 C   0  0  0  0  0  3  0  0  0  0  0  0
  -26.9590  -32.1440   24.9570 N   0  0  0  0  0  0  0  0  0  0  0  0
  -27.5630  -33.2350   24.4630 C   0  0  0  0  0  0  0  0  0  0  0  0
  -28.1340  -33.2450   23.3690 O   0  0  0  0  0  0  0  0  0  0  0  0
  -26.4660  -32.2260   25.8340 H   0  0  0  0  0  0  0  0  0  0  0  0
  -26.4580  -35.4720   24.7750 C   0  0  0  0  0  1  0  0  0  0  0  0
  -27.5290  -34.5140   25.3200 C   0  0  0  0  0  3  0  0  0  0  0  0
  -29.8410  -34.4760   26.1460 C   0  0  0  0  0  1  0  0  0  0  0  0
  -28.8310  -35.2110   25.3890 N   0  0  0  0  0  0  0  0  0  0  0  0
  -28.7240  -36.1290   25.8110 H   0  0  0  0  0  0  0  0  0  0  0  0
  -27.2450  -29.6620   25.1620 C   0  0  1  0  0  0  0  0  0  0  0  0
  -26.2580  -29.3880   26.3210 C   0  0  0  0  0  1  0  0  0  0  0  0
  -27.3710  -28.3620   24.3330 C   0  0  0  0  0  1  0  0  0  0  0  0
  -28.6410  -29.9310   25.7720 C   0  0  0  0  0  1  0  0  0  0  0  0
  1  4  1  0
  2  5  2  0
  2  3  1  0
  3  1  2  0
  4 49  1  0
  5  6  1  0
  6  4  2  0
  8  7  1  0
  8  9  1  0
  8  5  1  0
 10 16  1  0
 10 18  1  0
 11 16  1  0
 12 13  1  0
 12 11  1  0
 14 13  1  0
 14 23  1  0
 14 15  1  0
 16 15  1  0
 17 10  2  0
 18  9  1  0
 18 19  1  0
 20 21  2  0
 21 40  1  0
 22 25  1  0
 22 21  1  0
 23 24  1  0
 23 20  1  0
 24 22  2  0
 25 26  1  0
 26 27  2  0
 28 31  1  0
 28 27  1  0
 29 28  2  0
 30 29  1  0
 30 25  2  0
 31 32  1  0
 32 37  2  0
 32 33  1  0
 33 34  2  0
 34 35  1  0
 35 39  1  0
 36 35  2  0
 37 36  1  0
 38 37  1  0
 40 41  1  0
 41 43  1  0
 41 44  1  0
 42 40  2  0
 45 20  1  0
 45 46  1  0
 47 45  1  0
 49 48  1  0
 50  3  1  0
 51 52  1  0
 51 50  1  0
 53 54  1  0
 53 52  1  0
 54 56  1  0
 55 66  2  0
 56 61  1  0
 57 65  1  0
 57 67  1  0
 58 60  1  0
 58 64  1  0
 59 65  1  0
 60 59  1  0
 61 60  2  0
 62 63  1  0
 62 56  2  0
 63 58  2  0
 64 57  1  0
 65 55  1  0
 67 69  2  0
 68 67  1  0
 70 68  1  0
 71 80  2  0
 71 76  1  0
 72 68  1  0
 72 76  1  0
 73 72  1  0
 74 75  1  0
 74 73  1  0
 75 71  1  0
 76 77  2  0
 77 78  1  0
 79 78  2  0
 80 79  1  0
 81 55  1  0
 81 82  1  0
 81 91  1  0
 82 85  1  0
 83 82  1  0
 83 87  1  0
 84 83  2  0
 87 86  1  0
 87 89  1  0
 89 90  1  0
 89 88  1  0
 91 94  1  1
 91 92  1  0
 93 91  1  0
M  ISO  4  10 100  18 100  53 101  54 101
M  END
>  <TORSDO>  (43) 
F 23

>  <SCORE>  (43) 
-8.513

>  <name>  (43) 
45

>  <ligand_id>  (43) 
45

>  <original_smiles>  (43) 
[H]c1c([H])c([H])c2c(c1[H])C([H])([H])C([H])([H])C([H])([H])C2([H])N([H])C(=O)C1([H])N(C(=O)C([H])(N([H])C(=O)C([H])(N([H])C([H])([H])[H])C([H])([H])[H])C(C([H])([H])[H])(C([H])([H])[H])C([H])([H])[H])C([H])([H])c2c([H])c(OC([H])([H])C([H])([H])C([H])([H])C([H])([H])c3c([H])c(C([H])([H])C([H])([H])[H])nc(C([H])(C([H])([H])[H])C([H])([H])N([H])C(=O)N4C([H])([H])C([H])([H])C([H])([H])C([H])(n5nc(-c6c([H])c([H])c(Oc7c([H])c([H])c(F)c([H])c7F)c([H])c6[H])c(C(=O)N([H])[H])c5N([H])[H])C4([H])[H])c3[H])c([H])c([H])c2C1([H])[H]

>  <smiles>  (43) 
[H]c1c([H])c([H])c2c(c1[H])C([H])([H])C([H])([H])C([H])([H])C2([H])N([H])C(=O)C1([H])N(C(=O)C([H])(N([H])C(=O)C([H])(N([H])C([H])([H])[H])C([H])([H])[H])C(C([H])([H])[H])(C([H])([H])[H])C([H])([H])[H])C([H])([H])c2c([H])c(OC([H])([H])C([H])([H])C([H])([H])C([H])([H])c3c([H])c(C([H])([H])C([H])([H])[H])nc(C([H])(C([H])([H])[H])C([H])([H])N([H])C(=O)N4C([H])([H])C([H])([H])C([H])([H])C([H])(n5nc(-c6c([H])c([H])c(Oc7c([H])c([H])c(F)c([H])c7F)c([H])c6[H])c(C(=O)N([H])[H])c5N([H])[H])C4([H])[H])c3[H])c([H])c([H])c2C1([H])[H]

$$$$
46:0:0
     RDKit          3D

 93101  0  0  1  0  0  0  0  0999 V2000
  -31.0390  -24.3580   20.2160 C   0  0  0  0  0  2  0  0  0  0  0  0
  -30.5530  -21.9250   19.6390 C   0  0  0  0  0  3  0  0  0  0  0  0
  -30.5210  -20.8140   20.4310 C   0  0  0  0  0  0  0  0  0  0  0  0
  -30.5730  -21.2270   21.7610 N   0  0  0  0  0  0  0  0  0  0  0  0
  -30.6670  -22.5200   21.8060 N   0  0  0  0  0  0  0  0  0  0  0  0
  -30.6820  -22.9740   20.5280 N   0  0  0  0  0  0  0  0  0  0  0  0
  -30.7510  -19.3900   20.0230 C   0  0  0  0  0  2  0  0  0  0  0  0
  -29.9440  -18.2820   20.7490 C   0  0  0  0  0  2  0  0  0  0  0  0
  -30.7980  -16.9990   20.7260 C   0  0  0  0  0  2  0  0  0  0  0  0
  -30.7660  -14.5870   20.5090 C   0  0  0  0  0  0  0  0  0  0  0  0
  -30.3830  -12.4800   19.3260 C   0  0  0  0  0  2  0  0  0  0  0  0
  -29.4530  -12.7440   18.1260 C   0  0  0  0  0  2  0  0  0  0  0  0
  -27.9830  -12.5950   18.5600 C   0  0  0  0  0  2  0  0  0  0  0  0
  -27.6500  -13.3990   19.8470 C   0  0  0  0  0  3  0  0  0  0  0  0
  -28.7100  -13.1800   20.9500 C   0  0  0  0  0  2  0  0  0  0  0  0
  -30.0310  -13.4550   20.3700 N   0  0  0  0  0  0  0  0  0  0  0  0
  -31.9190  -14.6780   20.0820 O   0  0  0  0  0  0  0  0  0  0  0  0
  -30.1340  -15.7010   20.9280 N   0  0  0  0  0  0  0  0  0  0  0  0
  -29.1720  -15.6540   21.2310 H   0  0  0  0  0  0  0  0  0  0  0  0
  -25.2440  -13.9620   20.5650 C   0  0  0  0  0  0  0  0  0  0  0  0
  -24.1870  -13.1690   20.9250 C   0  0  0  0  0  0  0  0  0  0  0  0
  -24.6690  -11.8250   20.8800 C   0  0  0  0  0  0  0  0  0  0  0  0
  -26.3020  -13.0980   20.3240 N   0  0  0  0  0  0  0  0  0  0  0  0
  -25.9600  -11.8080   20.5730 N   0  0  0  0  0  0  0  0  0  0  0  0
  -23.9610  -10.5490   21.0560 C   0  0  0  0  0  0  0  0  0  0  0  0
  -24.3810   -9.5950   22.0070 C   0  0  0  0  0  3  0  0  0  0  0  0
  -23.6710   -8.3850   22.1710 C   0  0  0  0  0  3  0  0  0  0  0  0
  -22.5260   -8.1230   21.3810 C   0  0  0  0  0  0  0  0  0  0  0  0
  -22.1250   -9.0670   20.4190 C   0  0  0  0  0  3  0  0  0  0  0  0
  -22.8370  -10.2670   20.2540 C   0  0  0  0  0  3  0  0  0  0  0  0
  -21.7920   -6.9630   21.4500 O   0  0  0  0  0  0  0  0  0  0  0  0
  -21.7010   -6.2380   22.6120 C   0  0  0  0  0  0  0  0  0  0  0  0
  -21.1450   -6.7850   23.7890 C   0  0  0  0  0  3  0  0  0  0  0  0
  -21.0050   -5.9820   24.9400 C   0  0  0  0  0  3  0  0  0  0  0  0
  -21.4120   -4.6340   24.9130 C   0  0  0  0  0  0  0  0  0  0  0  0
  -21.9600   -4.0870   23.7390 C   0  0  0  0  0  3  0  0  0  0  0  0
  -22.1010   -4.8860   22.5910 C   0  0  0  0  0  0  0  0  0  0  0  0
  -22.6110   -4.3490   21.4570 F   0  0  0  0  0  0  0  0  0  0  0  0
  -21.2710   -3.8620   26.0150 F   0  0  0  0  0  0  0  0  0  0  0  0
  -22.7830  -13.6250   21.2010 C   0  0  0  0  0  0  0  0  0  0  0  0
  -22.0590  -12.9050   22.0500 N   0  0  0  0  0  0  0  0  0  0  0  0
  -22.3350  -14.6550   20.7000 O   0  0  0  0  0  0  0  0  0  0  0  0
  -22.4350  -12.0720   22.4790 H   0  0  0  0  0  0  0  0  0  0  0  0
  -21.1180  -13.1940   22.2760 H   0  0  0  0  0  0  0  0  0  0  0  0
  -25.3900  -15.3360   20.4010 N   0  0  0  0  0  0  0  0  0  0  0  0
  -24.6170  -15.9810   20.5200 H   0  0  0  0  0  0  0  0  0  0  0  0
  -26.2340  -15.7880   20.0690 H   0  0  0  0  0  0  0  0  0  0  0  0
  -30.5850  -25.6480   22.3860 C   0  0  0  0  0  1  0  0  0  0  0  0
  -30.6460  -26.8290   20.2180 C   0  0  0  0  0  1  0  0  0  0  0  0
  -30.2240  -25.5040   20.8890 C   0  0  1  0  0  0  0  0  0  0  0  0
  -28.6880  -25.2820   20.7810 C   0  0  0  0  0  2  0  0  0  0  0  0
  -28.0450  -25.5210   19.4010 C   0  0  0  0  0  2  0  0  0  0  0  0
  -28.0430  -26.9220   19.1360 O   0  0  0  0  0  0  0  0  0  0  0  0
  -24.3870  -31.6920   22.9190 C   0  0  0  0  0  0  0  0  0  0  0  0
  -26.8600  -27.5980   19.2920 C   0  0  0  0  0  0  0  0  0  0  0  0
  -23.1000  -30.4750   21.1910 C   0  0  0  0  0  3  0  0  0  0  0  0
  -24.4770  -29.0810   19.5620 C   0  0  0  0  0  0  0  0  0  0  0  0
  -25.6170  -30.8440   20.9260 C   0  0  0  0  0  2  0  0  0  0  0  0
  -25.6610  -29.5470   20.1480 C   0  0  0  0  0  0  0  0  0  0  0  0
  -26.8570  -28.8130   20.0080 C   0  0  0  0  0  3  0  0  0  0  0  0
  -25.6620  -27.1380   18.7050 C   0  0  0  0  0  3  0  0  0  0  0  0
  -24.4690  -27.8720   18.8420 C   0  0  0  0  0  3  0  0  0  0  0  0
  -23.2440  -29.9370   19.7420 C   0  0  0  0  0  2  0  0  0  0  0  0
  -24.3880  -31.0120   21.7370 N   0  0  0  0  0  0  0  0  0  0  0  0
  -23.3320  -31.9130   23.5280 O   0  0  0  0  0  0  0  0  0  0  0  0
  -22.4780  -29.3640   22.0650 C   0  0  0  0  0  0  0  0  0  0  0  0
  -21.1430  -29.2330   22.0050 N   0  0  0  0  0  0  0  0  0  0  0  0
  -23.1900  -28.6270   22.7520 O   0  0  0  0  0  0  0  0  0  0  0  0
  -20.6300  -29.8800   21.4230 H   0  0  0  0  0  0  0  0  0  0  0  0
  -17.7640  -28.1260   22.6320 C   0  0  0  0  0  0  0  0  0  0  0  0
  -20.3440  -28.2340   22.7110 C   0  0  0  0  0  3  0  0  0  0  0  0
  -20.3230  -26.8930   21.9410 C   0  0  0  0  0  2  0  0  0  0  0  0
  -19.1260  -26.7610   20.9940 C   0  0  0  0  0  2  0  0  0  0  0  0
  -17.8110  -26.8760   21.7700 C   0  0  0  0  0  2  0  0  0  0  0  0
  -18.9530  -28.7730   23.0610 C   0  0  0  0  0  0  0  0  0  0  0  0
  -18.8530  -29.9520   23.8300 C   0  0  0  0  0  3  0  0  0  0  0  0
  -17.5960  -30.4830   24.1740 C   0  0  0  0  0  3  0  0  0  0  0  0
  -16.4210  -29.8310   23.7600 C   0  0  0  0  0  3  0  0  0  0  0  0
  -16.5070  -28.6550   22.9950 C   0  0  0  0  0  3  0  0  0  0  0  0
  -25.7040  -32.2450   23.5470 C   0  0  0  0  0  3  0  0  0  0  0  0
  -25.4420  -33.6210   23.9820 N   0  0  0  0  0  0  0  0  0  0  0  0
  -25.8210  -34.7160   23.3100 C   0  0  0  0  0  0  0  0  0  0  0  0
  -26.5020  -34.6690   22.2810 O   0  0  0  0  0  0  0  0  0  0  0  0
  -24.8430  -33.7340   24.7870 H   0  0  0  0  0  0  0  0  0  0  0  0
  -24.1860  -36.6090   23.0500 C   0  0  0  0  0  1  0  0  0  0  0  0
  -25.3760  -36.0810   23.8690 C   0  0  0  0  0  3  0  0  0  0  0  0
  -27.5030  -36.8000   24.8620 C   0  0  0  0  0  1  0  0  0  0  0  0
  -26.4550  -37.0910   23.8860 N   0  0  0  0  0  0  0  0  0  0  0  0
  -26.0810  -38.0150   24.0890 H   0  0  0  0  0  0  0  0  0  0  0  0
  -26.2360  -31.3710   24.7480 C   0  0  1  0  0  0  0  0  0  0  0  0
  -25.1660  -31.0780   25.8260 C   0  0  0  0  0  1  0  0  0  0  0  0
  -26.7760  -30.0130   24.2380 C   0  0  0  0  0  1  0  0  0  0  0  0
  -27.4230  -32.0880   25.4350 C   0  0  0  0  0  1  0  0  0  0  0  0
  1  6  1  0
  1 50  1  0
  2  3  2  0
  2  6  1  0
  3  4  1  0
  4  5  2  0
  6  5  1  0
  7  3  1  0
  7  8  1  0
  9  8  1  0
  9 18  1  0
 10 18  1  0
 11 16  1  0
 12 13  1  0
 12 11  1  0
 14 13  1  0
 14 23  1  0
 14 15  1  0
 16 10  1  0
 16 15  1  0
 17 10  2  0
 18 19  1  0
 20 21  2  0
 21 40  1  0
 22 21  1  0
 22 25  1  0
 23 20  1  0
 23 24  1  0
 24 22  2  0
 25 26  1  0
 26 27  2  0
 28 31  1  0
 28 27  1  0
 29 28  2  0
 30 29  1  0
 30 25  2  0
 31 32  1  0
 32 33  1  0
 33 34  2  0
 35 34  1  0
 35 39  1  0
 36 35  2  0
 37 32  2  0
 37 36  1  0
 38 37  1  0
 40 41  1  0
 41 44  1  0
 41 43  1  0
 42 40  2  0
 45 46  1  0
 45 20  1  0
 47 45  1  0
 50 49  1  6
 50 48  1  0
 51 50  1  0
 52 51  1  0
 53 55  1  0
 53 52  1  0
 54 65  2  0
 55 60  1  0
 56 64  1  0
 56 66  1  0
 57 63  1  0
 57 59  1  0
 58 64  1  0
 59 58  1  0
 60 59  2  0
 61 62  1  0
 61 55  2  0
 62 57  2  0
 63 56  1  0
 64 54  1  0
 66 68  2  0
 67 66  1  0
 69 67  1  0
 70 79  2  0
 70 75  1  0
 71 67  1  0
 71 75  1  0
 72 71  1  0
 73 74  1  0
 73 72  1  0
 74 70  1  0
 75 76  2  0
 76 77  1  0
 78 77  2  0
 79 78  1  0
 80 54  1  0
 80 81  1  0
 80 90  1  0
 81 84  1  0
 82 86  1  0
 82 81  1  0
 83 82  2  0
 86 85  1  0
 86 88  1  0
 88 89  1  0
 88 87  1  0
 90 93  1  1
 90 91  1  0
 92 90  1  0
M  ISO  4  10 100  18 100  52 101  53 101
M  END
>  <TORSDO>  (44) 
F 23

>  <SCORE>  (44) 
-11.962

>  <name>  (44) 
46

>  <ligand_id>  (44) 
46

>  <original_smiles>  (44) 
[H]c1c([H])c([H])c2c(c1[H])C([H])([H])C([H])([H])C([H])([H])C2([H])N([H])C(=O)C1([H])N(C(=O)C([H])(N([H])C(=O)C([H])(N([H])C([H])([H])[H])C([H])([H])[H])C(C([H])([H])[H])(C([H])([H])[H])C([H])([H])[H])C([H])([H])c2c([H])c(OC([H])([H])C([H])([H])C(C([H])([H])[H])(C([H])([H])[H])C([H])([H])n3nnc(C([H])([H])C([H])([H])C([H])([H])N([H])C(=O)N4C([H])([H])C([H])([H])C([H])([H])C([H])(n5nc(-c6c([H])c([H])c(Oc7c([H])c([H])c(F)c([H])c7F)c([H])c6[H])c(C(=O)N([H])[H])c5N([H])[H])C4([H])[H])c3[H])c([H])c([H])c2C1([H])[H]

>  <smiles>  (44) 
[H]c1c([H])c([H])c2c(c1[H])C([H])([H])C([H])([H])C([H])([H])C2([H])N([H])C(=O)C1([H])N(C(=O)C([H])(N([H])C(=O)C([H])(N([H])C([H])([H])[H])C([H])([H])[H])C(C([H])([H])[H])(C([H])([H])[H])C([H])([H])[H])C([H])([H])c2c([H])c(OC([H])([H])C([H])([H])C(C([H])([H])[H])(C([H])([H])[H])C([H])([H])n3nnc(C([H])([H])C([H])([H])C([H])([H])N([H])C(=O)N4C([H])([H])C([H])([H])C([H])([H])C([H])(n5nc(-c6c([H])c([H])c(Oc7c([H])c([H])c(F)c([H])c7F)c([H])c6[H])c(C(=O)N([H])[H])c5N([H])[H])C4([H])[H])c3[H])c([H])c([H])c2C1([H])[H]

$$$$
47:0:0
     RDKit          3D

 93101  0  0  1  0  0  0  0  0999 V2000
  -30.5450  -22.3770   21.8110 C   0  0  0  0  0  3  0  0  0  0  0  0
  -31.3140  -21.3820   22.3640 C   0  0  0  0  0  0  0  0  0  0  0  0
  -30.0470  -20.4840   20.7430 C   0  0  0  0  0  0  0  0  0  0  0  0
  -32.3040  -21.4130   23.4920 C   0  0  0  0  0  1  0  0  0  0  0  0
  -29.7840  -21.8230   20.8130 N   0  0  0  0  0  0  0  0  0  0  0  0
  -30.9800  -20.2400   21.6760 N   0  0  0  0  0  0  0  0  0  0  0  0
  -31.3660  -19.3240   21.8710 H   0  0  0  0  0  0  0  0  0  0  0  0
  -29.3900  -19.4330   19.8490 C   0  0  0  0  0  3  0  0  0  0  0  0
  -29.9320  -17.9460   19.7410 C   0  0  0  0  0  2  0  0  0  0  0  0
  -29.8650  -17.0160   20.9950 C   0  0  0  0  0  2  0  0  0  0  0  0
  -30.5130  -14.5730   20.2870 C   0  0  0  0  0  0  0  0  0  0  0  0
  -30.2640  -12.4040   19.1160 C   0  0  0  0  0  2  0  0  0  0  0  0
  -29.2740  -12.6070   17.9510 C   0  0  0  0  0  2  0  0  0  0  0  0
  -27.8080  -12.4720   18.4160 C   0  0  0  0  0  2  0  0  0  0  0  0
  -27.5030  -13.2590   19.7180 C   0  0  0  0  0  3  0  0  0  0  0  0
  -28.5980  -13.0130   20.7830 C   0  0  0  0  0  2  0  0  0  0  0  0
  -29.8980  -13.3570   20.1770 N   0  0  0  0  0  0  0  0  0  0  0  0
  -31.6370  -14.7950   19.8310 O   0  0  0  0  0  0  0  0  0  0  0  0
  -29.7130  -15.5520   20.7770 N   0  0  0  0  0  0  0  0  0  0  0  0
  -28.8290  -15.1940   21.1110 H   0  0  0  0  0  0  0  0  0  0  0  0
  -25.1140  -13.8270   20.4770 C   0  0  0  0  0  0  0  0  0  0  0  0
  -24.0640  -13.0390   20.8710 C   0  0  0  0  0  0  0  0  0  0  0  0
  -24.5420  -11.6950   20.8320 C   0  0  0  0  0  0  0  0  0  0  0  0
  -26.1640  -12.9590   20.2240 N   0  0  0  0  0  0  0  0  0  0  0  0
  -25.8250  -11.6720   20.4920 N   0  0  0  0  0  0  0  0  0  0  0  0
  -23.8340  -10.4210   21.0360 C   0  0  0  0  0  0  0  0  0  0  0  0
  -24.2980   -9.4500   21.9490 C   0  0  0  0  0  3  0  0  0  0  0  0
  -23.5810   -8.2470   22.1410 C   0  0  0  0  0  3  0  0  0  0  0  0
  -22.3870   -8.0080   21.4190 C   0  0  0  0  0  0  0  0  0  0  0  0
  -21.9460   -8.9670   20.4890 C   0  0  0  0  0  3  0  0  0  0  0  0
  -22.6650  -10.1590   20.2950 C   0  0  0  0  0  3  0  0  0  0  0  0
  -21.6410   -6.8580   21.5230 O   0  0  0  0  0  0  0  0  0  0  0  0
  -21.6350   -6.1020   22.6680 C   0  0  0  0  0  0  0  0  0  0  0  0
  -21.2500   -6.6400   23.9170 C   0  0  0  0  0  3  0  0  0  0  0  0
  -21.2000   -5.8120   25.0560 C   0  0  0  0  0  3  0  0  0  0  0  0
  -21.5170   -4.4440   24.9470 C   0  0  0  0  0  0  0  0  0  0  0  0
  -21.8910   -3.9050   23.7030 C   0  0  0  0  0  3  0  0  0  0  0  0
  -21.9470   -4.7320   22.5680 C   0  0  0  0  0  0  0  0  0  0  0  0
  -22.2890   -4.2010   21.3690 F   0  0  0  0  0  0  0  0  0  0  0  0
  -21.4570   -3.6450   26.0360 F   0  0  0  0  0  0  0  0  0  0  0  0
  -22.6680  -13.5010   21.1710 C   0  0  0  0  0  0  0  0  0  0  0  0
  -21.9630  -12.7980   22.0540 N   0  0  0  0  0  0  0  0  0  0  0  0
  -22.2080  -14.5170   20.6560 O   0  0  0  0  0  0  0  0  0  0  0  0
  -22.3410  -11.9730   22.4930 H   0  0  0  0  0  0  0  0  0  0  0  0
  -21.0250  -13.0910   22.2880 H   0  0  0  0  0  0  0  0  0  0  0  0
  -25.2590  -15.1990   20.2950 N   0  0  0  0  0  0  0  0  0  0  0  0
  -24.4920  -15.8480   20.4310 H   0  0  0  0  0  0  0  0  0  0  0  0
  -26.0830  -15.6430   19.9110 H   0  0  0  0  0  0  0  0  0  0  0  0
  -28.7500  -22.5510   20.0100 C   0  0  0  0  0  2  0  0  0  0  0  0
  -28.9320  -24.1110   19.7400 C   0  0  0  0  0  2  0  0  0  0  0  0
  -27.0850  -24.7470   21.4260 C   0  0  0  0  0  1  0  0  0  0  0  0
  -28.4020  -25.2010   20.7530 C   0  0  0  0  0  3  0  0  0  0  0  0
  -28.4300  -26.5840   20.2200 O   0  0  0  0  0  0  0  0  0  0  0  0
  -24.6320  -31.8840   23.2450 C   0  0  0  0  0  0  0  0  0  0  0  0
  -27.2830  -27.3810   20.1920 C   0  0  0  0  0  0  0  0  0  0  0  0
  -23.4390  -30.4870   21.5940 C   0  0  0  0  0  3  0  0  0  0  0  0
  -24.9040  -28.9530   20.1640 C   0  0  0  0  0  0  0  0  0  0  0  0
  -25.9740  -30.8230   21.4220 C   0  0  0  0  0  2  0  0  0  0  0  0
  -26.0620  -29.4510   20.7730 C   0  0  0  0  0  0  0  0  0  0  0  0
  -27.2550  -28.6770   20.7820 C   0  0  0  0  0  3  0  0  0  0  0  0
  -26.1180  -26.9360   19.5340 C   0  0  0  0  0  3  0  0  0  0  0  0
  -24.9310  -27.6980   19.5340 C   0  0  0  0  0  3  0  0  0  0  0  0
  -23.6580  -29.8160   20.2110 C   0  0  0  0  0  2  0  0  0  0  0  0
  -24.7000  -31.0820   22.1430 N   0  0  0  0  0  0  0  0  0  0  0  0
  -23.5470  -32.1520   23.7780 O   0  0  0  0  0  0  0  0  0  0  0  0
  -22.7850  -29.4590   22.5460 C   0  0  0  0  0  0  0  0  0  0  0  0
  -21.4610  -29.2740   22.4120 N   0  0  0  0  0  0  0  0  0  0  0  0
  -23.4650  -28.8320   23.3630 O   0  0  0  0  0  0  0  0  0  0  0  0
  -20.9750  -29.8210   21.7160 H   0  0  0  0  0  0  0  0  0  0  0  0
  -18.0860  -28.0830   22.9070 C   0  0  0  0  0  0  0  0  0  0  0  0
  -20.6450  -28.3360   23.1790 C   0  0  0  0  0  3  0  0  0  0  0  0
  -20.7460  -26.9090   22.5930 C   0  0  0  0  0  2  0  0  0  0  0  0
  -19.6440  -26.5960   21.5750 C   0  0  0  0  0  2  0  0  0  0  0  0
  -18.2610  -26.7390   22.2180 C   0  0  0  0  0  2  0  0  0  0  0  0
  -19.2060  -28.8390   23.3410 C   0  0  0  0  0  0  0  0  0  0  0  0
  -18.9900  -30.0990   23.9420 C   0  0  0  0  0  3  0  0  0  0  0  0
  -17.6880  -30.6010   24.1130 C   0  0  0  0  0  3  0  0  0  0  0  0
  -16.5820  -29.8410   23.6960 C   0  0  0  0  0  3  0  0  0  0  0  0
  -16.7820  -28.5830   23.0990 C   0  0  0  0  0  3  0  0  0  0  0  0
  -25.9130  -32.5160   23.8710 C   0  0  0  0  0  3  0  0  0  0  0  0
  -25.5990  -33.9120   24.2040 N   0  0  0  0  0  0  0  0  0  0  0  0
  -25.9240  -34.9690   23.4470 C   0  0  0  0  0  0  0  0  0  0  0  0
  -26.5940  -34.8730   22.4160 O   0  0  0  0  0  0  0  0  0  0  0  0
  -25.0030  -34.0650   25.0070 H   0  0  0  0  0  0  0  0  0  0  0  0
  -24.1820  -36.7460   23.0980 C   0  0  0  0  0  1  0  0  0  0  0  0
  -25.4270  -36.3530   23.9080 C   0  0  0  0  0  3  0  0  0  0  0  0
  -27.5570  -37.2500   24.7370 C   0  0  0  0  0  1  0  0  0  0  0  0
  -26.4530  -37.4140   23.7970 N   0  0  0  0  0  0  0  0  0  0  0  0
  -26.0380  -38.3290   23.9510 H   0  0  0  0  0  0  0  0  0  0  0  0
  -26.4260  -31.7420   25.1450 C   0  0  1  0  0  0  0  0  0  0  0  0
  -25.3290  -31.5000   26.2060 C   0  0  0  0  0  1  0  0  0  0  0  0
  -27.0150  -30.3660   24.7540 C   0  0  0  0  0  1  0  0  0  0  0  0
  -27.5710  -32.5400   25.8110 C   0  0  0  0  0  1  0  0  0  0  0  0
  1  2  2  0
  2  4  1  0
  3  5  1  0
  3  6  1  0
  5  1  1  0
  6  7  1  0
  6  2  1  0
  8  3  2  0
  9  8  1  0
  9 10  1  0
 11 19  1  0
 12 17  1  0
 13 14  1  0
 13 12  1  0
 15 14  1  0
 15 24  1  0
 15 16  1  0
 17 11  1  0
 17 16  1  0
 18 11  2  0
 19 10  1  0
 19 20  1  0
 21 22  2  0
 22 41  1  0
 23 22  1  0
 23 26  1  0
 24 21  1  0
 24 25  1  0
 25 23  2  0
 26 27  1  0
 27 28  2  0
 29 32  1  0
 29 28  1  0
 30 29  2  0
 31 30  1  0
 31 26  2  0
 32 33  1  0
 33 34  1  0
 34 35  2  0
 36 35  1  0
 36 40  1  0
 37 36  2  0
 38 33  2  0
 38 37  1  0
 39 38  1  0
 41 42  1  0
 42 45  1  0
 42 44  1  0
 43 41  2  0
 46 47  1  0
 46 21  1  0
 48 46  1  0
 49  5  1  0
 50 49  1  0
 50 52  1  0
 52 51  1  0
 53 52  1  0
 54 65  2  0
 55 53  1  0
 55 60  1  0
 56 64  1  0
 56 66  1  0
 57 63  1  0
 57 59  1  0
 58 64  1  0
 59 60  2  0
 59 58  1  0
 61 62  1  0
 61 55  2  0
 62 57  2  0
 63 56  1  0
 64 54  1  0
 66 68  2  0
 67 66  1  0
 69 67  1  0
 70 79  2  0
 70 75  1  0
 71 67  1  0
 71 75  1  0
 72 71  1  0
 73 74  1  0
 73 72  1  0
 74 70  1  0
 75 76  2  0
 76 77  1  0
 78 77  2  0
 79 78  1  0
 80 54  1  0
 80 81  1  0
 80 90  1  0
 81 84  1  0
 82 86  1  0
 82 81  1  0
 83 82  2  0
 86 85  1  0
 88 86  1  0
 88 89  1  0
 88 87  1  0
 90 93  1  1
 90 91  1  0
 92 90  1  0
M  ISO  4  11 100  19 100  52 101  53 101
M  END
>  <TORSDO>  (45) 
F 22

>  <SCORE>  (45) 
-13.257

>  <name>  (45) 
47

>  <ligand_id>  (45) 
47

>  <original_smiles>  (45) 
[H]c1c([H])c([H])c2c(c1[H])C([H])([H])C([H])([H])C([H])([H])C2([H])N([H])C(=O)C1([H])N(C(=O)C([H])(N([H])C(=O)C([H])(N([H])C([H])([H])[H])C([H])([H])[H])C(C([H])([H])[H])(C([H])([H])[H])C([H])([H])[H])C([H])([H])c2c([H])c(OC([H])(C([H])([H])[H])C([H])([H])C([H])([H])n3c([H])c(C([H])([H])[H])[n+]([H])c3C([H])([H])C([H])([H])C([H])([H])N([H])C(=O)N3C([H])([H])C([H])([H])C([H])([H])C([H])(n4nc(-c5c([H])c([H])c(Oc6c([H])c([H])c(F)c([H])c6F)c([H])c5[H])c(C(=O)N([H])[H])c4N([H])[H])C3([H])[H])c([H])c([H])c2C1([H])[H]

>  <smiles>  (45) 
[H]c1c([H])c([H])c2c(c1[H])C([H])([H])C([H])([H])C([H])([H])C2([H])N([H])C(=O)C1([H])N(C(=O)C([H])(N([H])C(=O)C([H])(N([H])C([H])([H])[H])C([H])([H])[H])C(C([H])([H])[H])(C([H])([H])[H])C([H])([H])[H])C([H])([H])c2c([H])c(OC([H])(C([H])([H])[H])C([H])([H])C([H])([H])n3c([H])c(C([H])([H])[H])[n+]([H])c3C([H])([H])C([H])([H])C([H])([H])N([H])C(=O)N3C([H])([H])C([H])([H])C([H])([H])C([H])(n4nc(-c5c([H])c([H])c(Oc6c([H])c([H])c(F)c([H])c6F)c([H])c5[H])c(C(=O)N([H])[H])c4N([H])[H])C3([H])[H])c([H])c([H])c2C1([H])[H]

$$$$
48:0:0
     RDKit          3D

 88 95  0  0  1  0  0  0  0  0999 V2000
  -29.2900  -21.1610   20.2790 C   0  0  0  0  0  3  0  0  0  0  0  0
  -28.8290  -22.7560   19.6210 C   0  0  0  0  0  3  0  0  0  0  0  0
  -28.1440  -24.2450   20.3250 C   0  0  0  0  0  2  0  0  0  0  0  0
  -28.3220  -25.8550   20.1200 O   0  0  0  0  0  0  0  0  0  0  0  0
  -24.5590  -31.6590   23.1180 C   0  0  0  0  0  0  0  0  0  0  0  0
  -27.2740  -26.8950   20.1220 C   0  0  0  0  0  0  0  0  0  0  0  0
  -23.4360  -30.2760   21.4190 C   0  0  0  0  0  3  0  0  0  0  0  0
  -24.9500  -28.7150   20.0270 C   0  0  0  0  0  0  0  0  0  0  0  0
  -25.9990  -30.5380   21.3500 C   0  0  0  0  0  2  0  0  0  0  0  0
  -26.1130  -29.1390   20.6850 C   0  0  0  0  0  0  0  0  0  0  0  0
  -27.2730  -28.2510   20.7110 C   0  0  0  0  0  3  0  0  0  0  0  0
  -26.0810  -26.6090   19.4280 C   0  0  0  0  0  3  0  0  0  0  0  0
  -24.9550  -27.4680   19.3820 C   0  0  0  0  0  3  0  0  0  0  0  0
  -23.7190  -29.6160   20.0420 C   0  0  0  0  0  2  0  0  0  0  0  0
  -24.6850  -30.8500   22.0190 N   0  0  0  0  0  0  0  0  0  0  0  0
  -23.4510  -31.9210   23.6120 O   0  0  0  0  0  0  0  0  0  0  0  0
  -22.7340  -29.2490   22.3440 C   0  0  0  0  0  0  0  0  0  0  0  0
  -21.4050  -29.0960   22.2070 N   0  0  0  0  0  0  0  0  0  0  0  0
  -23.3930  -28.5890   23.1520 O   0  0  0  0  0  0  0  0  0  0  0  0
  -20.9250  -29.6760   21.5350 H   0  0  0  0  0  0  0  0  0  0  0  0
  -18.0040  -27.9480   22.7010 C   0  0  0  0  0  0  0  0  0  0  0  0
  -20.5740  -28.1370   22.9400 C   0  0  0  0  0  3  0  0  0  0  0  0
  -20.6320  -26.7350   22.2890 C   0  0  0  0  0  2  0  0  0  0  0  0
  -19.5100  -26.4940   21.2770 C   0  0  0  0  0  2  0  0  0  0  0  0
  -18.1410  -26.6380   21.9470 C   0  0  0  0  0  2  0  0  0  0  0  0
  -19.1470  -28.6620   23.1540 C   0  0  0  0  0  0  0  0  0  0  0  0
  -18.9630  -29.8950   23.8170 C   0  0  0  0  0  3  0  0  0  0  0  0
  -17.6730  -30.4130   24.0340 C   0  0  0  0  0  3  0  0  0  0  0  0
  -16.5450  -29.6940   23.5970 C   0  0  0  0  0  3  0  0  0  0  0  0
  -16.7110  -28.4640   22.9350 C   0  0  0  0  0  3  0  0  0  0  0  0
  -25.7990  -32.3070   23.8030 C   0  0  0  0  0  3  0  0  0  0  0  0
  -26.2640  -31.5400   25.1010 C   0  0  1  0  0  0  0  0  0  0  0  0
  -25.1250  -31.2960   26.1160 C   0  0  0  0  0  1  0  0  0  0  0  0
  -26.8770  -30.1690   24.7360 C   0  0  0  0  0  1  0  0  0  0  0  0
  -27.3780  -32.3420   25.8160 C   0  0  0  0  0  1  0  0  0  0  0  0
  -25.4620  -33.7020   24.1300 N   0  0  0  0  0  0  0  0  0  0  0  0
  -25.8260  -34.7700   23.4040 C   0  0  0  0  0  0  0  0  0  0  0  0
  -26.5440  -34.6820   22.4060 O   0  0  0  0  0  0  0  0  0  0  0  0
  -24.8310  -33.8480   24.9050 H   0  0  0  0  0  0  0  0  0  0  0  0
  -24.1000  -36.5560   23.0020 C   0  0  0  0  0  1  0  0  0  0  0  0
  -25.3100  -36.1490   23.8580 C   0  0  0  0  0  3  0  0  0  0  0  0
  -27.3980  -37.0460   24.7920 C   0  0  0  0  0  1  0  0  0  0  0  0
  -26.3380  -37.2110   23.8000 N   0  0  0  0  0  0  0  0  0  0  0  0
  -25.9170  -38.1250   23.9380 H   0  0  0  0  0  0  0  0  0  0  0  0
  -29.6680  -19.5650   19.5530 C   0  0  2  0  0  0  0  0  0  0  0  0
  -31.9920  -20.4070   18.7100 C   0  0  0  0  0  1  0  0  0  0  0  0
  -30.6030  -19.8540   18.3520 C   0  0  0  0  0  2  0  0  0  0  0  0
  -27.2300  -18.6830   19.9640 C   0  0  0  0  0  1  0  0  0  0  0  0
  -28.3160  -19.0910   18.9490 C   0  0  0  0  0  2  0  0  0  0  0  0
  -30.3620  -18.1080   20.3230 C   0  0  0  0  0  2  0  0  0  0  0  0
  -30.8510  -15.2370   19.9870 C   0  0  0  0  0  0  0  0  0  0  0  0
  -30.7510  -12.8160   19.0730 C   0  0  0  0  0  2  0  0  0  0  0  0
  -29.7730  -12.6530   17.8810 C   0  0  0  0  0  2  0  0  0  0  0  0
  -28.3340  -12.4240   18.3790 C   0  0  0  0  0  2  0  0  0  0  0  0
  -27.9550  -13.4020   19.5180 C   0  0  0  0  0  3  0  0  0  0  0  0
  -29.0420  -13.4770   20.6070 C   0  0  0  0  0  2  0  0  0  0  0  0
  -30.2630  -13.9490   19.9370 N   0  0  0  0  0  0  0  0  0  0  0  0
  -32.0650  -15.2370   19.7460 O   0  0  0  0  0  0  0  0  0  0  0  0
  -30.0840  -16.4880   20.1170 N   0  0  0  0  0  0  0  0  0  0  0  0
  -29.1060  -16.2710   20.2330 H   0  0  0  0  0  0  0  0  0  0  0  0
  -25.6280  -14.0310   20.3480 C   0  0  0  0  0  0  0  0  0  0  0  0
  -24.5550  -13.2810   20.7440 C   0  0  0  0  0  0  0  0  0  0  0  0
  -24.9820  -11.9180   20.6910 C   0  0  0  0  0  0  0  0  0  0  0  0
  -26.6360  -13.1250   20.0680 N   0  0  0  0  0  0  0  0  0  0  0  0
  -26.2620  -11.8500   20.3430 N   0  0  0  0  0  0  0  0  0  0  0  0
  -24.2280  -10.6750   20.8910 C   0  0  0  0  0  0  0  0  0  0  0  0
  -24.6250   -9.7150   21.8460 C   0  0  0  0  0  3  0  0  0  0  0  0
  -23.8680   -8.5380   22.0350 C   0  0  0  0  0  3  0  0  0  0  0  0
  -22.7010   -8.3140   21.2660 C   0  0  0  0  0  0  0  0  0  0  0  0
  -22.3260   -9.2610   20.2980 C   0  0  0  0  0  3  0  0  0  0  0  0
  -23.0830  -10.4290   20.1080 C   0  0  0  0  0  3  0  0  0  0  0  0
  -21.9190   -7.1890   21.3600 O   0  0  0  0  0  0  0  0  0  0  0  0
  -21.7880   -6.5010   22.5390 C   0  0  0  0  0  0  0  0  0  0  0  0
  -21.2860   -7.1150   23.7080 C   0  0  0  0  0  3  0  0  0  0  0  0
  -21.1050   -6.3540   24.8800 C   0  0  0  0  0  3  0  0  0  0  0  0
  -21.4120   -4.9800   24.8830 C   0  0  0  0  0  0  0  0  0  0  0  0
  -21.9080   -4.3670   23.7190 C   0  0  0  0  0  3  0  0  0  0  0  0
  -22.0920   -5.1250   22.5500 C   0  0  0  0  0  0  0  0  0  0  0  0
  -22.5480   -4.5250   21.4240 F   0  0  0  0  0  0  0  0  0  0  0  0
  -21.2310   -4.2460   26.0070 F   0  0  0  0  0  0  0  0  0  0  0  0
  -23.1830  -13.7940   21.0590 C   0  0  0  0  0  0  0  0  0  0  0  0
  -22.4670  -13.1230   21.9550 N   0  0  0  0  0  0  0  0  0  0  0  0
  -22.7540  -14.8260   20.5440 O   0  0  0  0  0  0  0  0  0  0  0  0
  -22.8270  -12.2840   22.3840 H   0  0  0  0  0  0  0  0  0  0  0  0
  -21.5500  -13.4540   22.2150 H   0  0  0  0  0  0  0  0  0  0  0  0
  -25.8200  -15.3970   20.1690 N   0  0  0  0  0  0  0  0  0  0  0  0
  -25.0630  -16.0620   20.2800 H   0  0  0  0  0  0  0  0  0  0  0  0
  -26.6530  -15.8090   19.7690 H   0  0  0  0  0  0  0  0  0  0  0  0
  2  1  2  0
  2  3  1  0
  4  6  1  0
  4  3  1  0
  5 16  2  0
  6 11  1  0
  7 15  1  0
  7 17  1  0
  8 14  1  0
  8 10  1  0
  9 15  1  0
 10 11  2  0
 10  9  1  0
 12  6  2  0
 13 12  1  0
 13  8  2  0
 14  7  1  0
 15  5  1  0
 17 19  2  0
 18 17  1  0
 20 18  1  0
 21 30  2  0
 21 26  1  0
 22 18  1  0
 22 26  1  0
 23 22  1  0
 24 25  1  0
 24 23  1  0
 25 21  1  0
 26 27  2  0
 27 28  1  0
 29 28  2  0
 30 29  1  0
 31  5  1  0
 31 36  1  0
 31 32  1  0
 32 35  1  1
 32 33  1  0
 34 32  1  0
 36 39  1  0
 37 41  1  0
 37 36  1  0
 38 37  2  0
 41 40  1  0
 43 41  1  0
 43 44  1  0
 43 42  1  0
 45  1  1  0
 45 50  1  1
 47 46  1  0
 47 45  1  0
 49 45  1  0
 49 48  1  0
 51 59  1  0
 52 57  1  0
 53 54  1  0
 53 52  1  0
 55 54  1  0
 55 64  1  0
 55 56  1  0
 57 51  1  0
 57 56  1  0
 58 51  2  0
 59 60  1  0
 59 50  1  0
 61 62  2  0
 62 81  1  0
 63 62  1  0
 63 66  1  0
 64 65  1  0
 64 61  1  0
 65 63  2  0
 66 67  1  0
 67 68  2  0
 69 72  1  0
 69 68  1  0
 70 69  2  0
 71 70  1  0
 71 66  2  0
 72 73  1  0
 73 78  2  0
 73 74  1  0
 74 75  2  0
 75 76  1  0
 76 80  1  0
 77 76  2  0
 78 77  1  0
 79 78  1  0
 81 82  1  0
 82 85  1  0
 82 84  1  0
 83 81  2  0
 86 87  1  0
 86 61  1  0
 88 86  1  0
M  ISO  4   3 101   4 101  51 100  59 100
M  END
>  <TORSDO>  (46) 
F 22

>  <SCORE>  (46) 
-14.528

>  <name>  (46) 
48

>  <ligand_id>  (46) 
48

>  <original_smiles>  (46) 
[H]c1c([H])c([H])c2c(c1[H])C([H])([H])C([H])([H])C([H])([H])C2([H])N([H])C(=O)C1([H])N(C(=O)C([H])(N([H])C(=O)C([H])(N([H])C([H])([H])[H])C([H])([H])[H])C(C([H])([H])[H])(C([H])([H])[H])C([H])([H])[H])C([H])([H])c2c([H])c(OC([H])([H])C([H])([H])C([H])([H])C(C([H])([H])N([H])C(=O)N3C([H])([H])C([H])([H])C([H])([H])C([H])(n4nc(-c5c([H])c([H])c(Oc6c([H])c([H])c(F)c([H])c6F)c([H])c5[H])c(C(=O)N([H])[H])c4N([H])[H])C3([H])[H])(C([H])([H])C([H])([H])[H])C([H])([H])C([H])([H])[H])c([H])c([H])c2C1([H])[H]

>  <smiles>  (46) 
[H]c1c([H])c([H])c2c(c1[H])C([H])([H])C([H])([H])C([H])([H])C2([H])N([H])C(=O)C1([H])N(C(=O)C([H])(N([H])C(=O)C([H])(N([H])C([H])([H])[H])C([H])([H])[H])C(C([H])([H])[H])(C([H])([H])[H])C([H])([H])[H])C([H])([H])c2c([H])c(OC([H])([H])C([H])([H])C([H])([H])C(C([H])([H])N([H])C(=O)N3C([H])([H])C([H])([H])C([H])([H])C([H])(n4nc(-c5c([H])c([H])c(Oc6c([H])c([H])c(F)c([H])c6F)c([H])c5[H])c(C(=O)N([H])[H])c4N([H])[H])C3([H])[H])(C([H])([H])C([H])([H])[H])C([H])([H])C([H])([H])[H])c([H])c([H])c2C1([H])[H]

$$$$
49:0:0
     RDKit          3D

 91 99  0  0  1  0  0  0  0  0999 V2000
  -29.9730  -20.7650   20.4120 C   0  0  0  0  0  3  0  0  0  0  0  0
  -27.8510  -21.0500   20.7180 C   0  0  0  0  0  3  0  0  0  0  0  0
  -29.3380  -19.5310   20.2550 C   0  0  0  0  0  0  0  0  0  0  0  0
  -27.9740  -19.7480   20.4560 N   0  0  0  0  0  0  0  0  0  0  0  0
  -29.0000  -21.7420   20.7230 N   0  0  0  0  0  0  0  0  0  0  0  0
  -31.0260  -18.2210   18.8740 C   0  0  0  0  0  1  0  0  0  0  0  0
  -29.8340  -18.1210   19.8340 C   0  0  0  0  0  3  0  0  0  0  0  0
  -30.1470  -17.0950   20.9890 C   0  0  0  0  0  2  0  0  0  0  0  0
  -30.6510  -14.6410   20.2470 C   0  0  0  0  0  0  0  0  0  0  0  0
  -30.3910  -12.4660   19.0800 C   0  0  0  0  0  2  0  0  0  0  0  0
  -29.4110  -12.6580   17.9020 C   0  0  0  0  0  2  0  0  0  0  0  0
  -27.9480  -12.4970   18.3660 C   0  0  0  0  0  2  0  0  0  0  0  0
  -27.6360  -13.3130   19.6500 C   0  0  0  0  0  3  0  0  0  0  0  0
  -28.7220  -13.0870   20.7240 C   0  0  0  0  0  2  0  0  0  0  0  0
  -30.0200  -13.4360   20.1230 N   0  0  0  0  0  0  0  0  0  0  0  0
  -31.7960  -14.8330   19.8290 O   0  0  0  0  0  0  0  0  0  0  0  0
  -29.8690  -15.6520   20.7050 N   0  0  0  0  0  0  0  0  0  0  0  0
  -28.9370  -15.3540   20.9510 H   0  0  0  0  0  0  0  0  0  0  0  0
  -25.2560  -13.9140   20.4150 C   0  0  0  0  0  0  0  0  0  0  0  0
  -24.1980  -13.1400   20.8090 C   0  0  0  0  0  0  0  0  0  0  0  0
  -24.6610  -11.7900   20.7680 C   0  0  0  0  0  0  0  0  0  0  0  0
  -26.2970  -13.0340   20.1590 N   0  0  0  0  0  0  0  0  0  0  0  0
  -25.9450  -11.7520   20.4300 N   0  0  0  0  0  0  0  0  0  0  0  0
  -23.9420  -10.5270   20.9740 C   0  0  0  0  0  0  0  0  0  0  0  0
  -24.3940   -9.5630   21.9020 C   0  0  0  0  0  3  0  0  0  0  0  0
  -23.6750   -8.3630   22.0950 C   0  0  0  0  0  3  0  0  0  0  0  0
  -22.4900   -8.1190   21.3610 C   0  0  0  0  0  0  0  0  0  0  0  0
  -22.0580   -9.0720   20.4200 C   0  0  0  0  0  3  0  0  0  0  0  0
  -22.7770  -10.2630   20.2260 C   0  0  0  0  0  3  0  0  0  0  0  0
  -21.7410   -6.9720   21.4630 O   0  0  0  0  0  0  0  0  0  0  0  0
  -21.7120   -6.2330   22.6180 C   0  0  0  0  0  0  0  0  0  0  0  0
  -21.2920   -6.7870   23.8470 C   0  0  0  0  0  3  0  0  0  0  0  0
  -21.2110   -5.9730   24.9950 C   0  0  0  0  0  3  0  0  0  0  0  0
  -21.5400   -4.6060   24.9150 C   0  0  0  0  0  0  0  0  0  0  0  0
  -21.9530   -4.0520   23.6890 C   0  0  0  0  0  3  0  0  0  0  0  0
  -22.0350   -4.8630   22.5440 C   0  0  0  0  0  0  0  0  0  0  0  0
  -22.4140   -4.3200   21.3620 F   0  0  0  0  0  0  0  0  0  0  0  0
  -21.4540   -3.8230   26.0140 F   0  0  0  0  0  0  0  0  0  0  0  0
  -22.8070  -13.6150   21.1120 C   0  0  0  0  0  0  0  0  0  0  0  0
  -22.0980  -12.9170   21.9910 N   0  0  0  0  0  0  0  0  0  0  0  0
  -22.3580  -14.6430   20.6040 O   0  0  0  0  0  0  0  0  0  0  0  0
  -22.4740  -12.0880   22.4250 H   0  0  0  0  0  0  0  0  0  0  0  0
  -21.1640  -13.2180   22.2350 H   0  0  0  0  0  0  0  0  0  0  0  0
  -25.4140  -15.2850   20.2330 N   0  0  0  0  0  0  0  0  0  0  0  0
  -24.6460  -15.9370   20.3500 H   0  0  0  0  0  0  0  0  0  0  0  0
  -26.2520  -15.7280   19.8760 H   0  0  0  0  0  0  0  0  0  0  0  0
  -29.1410  -23.1740   21.1150 C   0  0  0  0  0  2  0  0  0  0  0  0
  -29.5730  -24.2260   20.0320 C   0  0  0  0  0  2  0  0  0  0  0  0
  -28.7820  -25.5540   18.0260 C   0  0  0  0  0  1  0  0  0  0  0  0
  -28.5180  -25.2850   19.5220 C   0  0  0  0  0  3  0  0  0  0  0  0
  -28.4970  -26.6000   20.1850 O   0  0  0  0  0  0  0  0  0  0  0  0
  -24.6140  -31.8720   23.1940 C   0  0  0  0  0  0  0  0  0  0  0  0
  -27.3390  -27.3920   20.1370 C   0  0  0  0  0  0  0  0  0  0  0  0
  -23.4560  -30.4750   21.5210 C   0  0  0  0  0  3  0  0  0  0  0  0
  -24.9470  -28.9580   20.1130 C   0  0  0  0  0  0  0  0  0  0  0  0
  -25.9940  -30.8260   21.3890 C   0  0  0  0  0  2  0  0  0  0  0  0
  -26.0990  -29.4570   20.7340 C   0  0  0  0  0  0  0  0  0  0  0  0
  -27.2950  -28.6830   20.7420 C   0  0  0  0  0  3  0  0  0  0  0  0
  -26.1520  -26.9390   19.5080 C   0  0  0  0  0  3  0  0  0  0  0  0
  -24.9740  -27.7020   19.4960 C   0  0  0  0  0  3  0  0  0  0  0  0
  -23.7010  -29.8150   20.1400 C   0  0  0  0  0  2  0  0  0  0  0  0
  -24.7050  -31.0740   22.0910 N   0  0  0  0  0  0  0  0  0  0  0  0
  -23.5170  -32.1330   23.7080 O   0  0  0  0  0  0  0  0  0  0  0  0
  -22.7880  -29.4390   22.4580 C   0  0  0  0  0  0  0  0  0  0  0  0
  -21.4660  -29.2510   22.3040 N   0  0  0  0  0  0  0  0  0  0  0  0
  -23.4580  -28.8110   23.2810 O   0  0  0  0  0  0  0  0  0  0  0  0
  -20.9850  -29.8120   21.6140 H   0  0  0  0  0  0  0  0  0  0  0  0
  -18.0890  -28.0320   22.7310 C   0  0  0  0  0  0  0  0  0  0  0  0
  -20.6400  -28.3010   23.0510 C   0  0  0  0  0  3  0  0  0  0  0  0
  -20.7600  -26.8760   22.4630 C   0  0  0  0  0  2  0  0  0  0  0  0
  -19.6780  -26.5560   21.4270 C   0  0  0  0  0  2  0  0  0  0  0  0
  -18.2840  -26.6890   22.0480 C   0  0  0  0  0  2  0  0  0  0  0  0
  -19.1960  -28.7960   23.1880 C   0  0  0  0  0  0  0  0  0  0  0  0
  -18.9590  -30.0520   23.7850 C   0  0  0  0  0  3  0  0  0  0  0  0
  -17.6490  -30.5460   23.9320 C   0  0  0  0  0  3  0  0  0  0  0  0
  -16.5560  -29.7780   23.4940 C   0  0  0  0  0  3  0  0  0  0  0  0
  -16.7770  -28.5230   22.8990 C   0  0  0  0  0  3  0  0  0  0  0  0
  -25.8780  -32.5120   23.8460 C   0  0  0  0  0  3  0  0  0  0  0  0
  -25.5510  -33.9080   24.1660 N   0  0  0  0  0  0  0  0  0  0  0  0
  -25.8960  -34.9630   23.4150 C   0  0  0  0  0  0  0  0  0  0  0  0
  -26.5940  -34.8630   22.4030 O   0  0  0  0  0  0  0  0  0  0  0  0
  -24.9380  -34.0600   24.9530 H   0  0  0  0  0  0  0  0  0  0  0  0
  -24.1730  -36.7510   23.0100 C   0  0  0  0  0  1  0  0  0  0  0  0
  -25.3880  -36.3490   23.8600 C   0  0  0  0  0  3  0  0  0  0  0  0
  -27.4880  -37.2410   24.7670 C   0  0  0  0  0  1  0  0  0  0  0  0
  -26.4190  -37.4060   23.7860 N   0  0  0  0  0  0  0  0  0  0  0  0
  -26.0030  -38.3240   23.9230 H   0  0  0  0  0  0  0  0  0  0  0  0
  -26.3670  -31.7460   25.1350 C   0  0  1  0  0  0  0  0  0  0  0  0
  -25.2500  -31.5030   26.1770 C   0  0  0  0  0  1  0  0  0  0  0  0
  -26.9690  -30.3730   24.7600 C   0  0  0  0  0  1  0  0  0  0  0  0
  -27.4950  -32.5500   25.8250 C   0  0  0  0  0  1  0  0  0  0  0  0
  1  5  1  0
  2  5  1  0
  3  1  2  0
  3  4  1  0
  4  2  2  0
  5 47  1  0
  7  6  1  0
  7  3  1  0
  7  8  1  0
  9 17  1  0
 10 15  1  0
 11 12  1  0
 11 10  1  0
 13 12  1  0
 13 22  1  0
 13 14  1  0
 15  9  1  0
 15 14  1  0
 16  9  2  0
 17 18  1  0
 17  8  1  0
 19 20  2  0
 20 39  1  0
 21 20  1  0
 21 24  1  0
 22 19  1  0
 22 23  1  0
 23 21  2  0
 24 25  1  0
 25 26  2  0
 27 30  1  0
 27 26  1  0
 28 27  2  0
 29 28  1  0
 29 24  2  0
 30 31  1  0
 31 32  1  0
 32 33  2  0
 34 33  1  0
 34 38  1  0
 35 34  2  0
 36 31  2  0
 36 35  1  0
 37 36  1  0
 39 40  1  0
 40 43  1  0
 40 42  1  0
 41 39  2  0
 44 45  1  0
 44 19  1  0
 46 44  1  0
 48 47  1  0
 50 49  1  0
 50 48  1  0
 50 51  1  0
 52 63  2  0
 53 51  1  0
 53 58  1  0
 54 62  1  0
 54 64  1  0
 55 61  1  0
 55 57  1  0
 56 62  1  0
 57 58  2  0
 57 56  1  0
 59 53  2  0
 60 59  1  0
 60 55  2  0
 61 54  1  0
 62 52  1  0
 64 66  2  0
 65 64  1  0
 67 65  1  0
 68 77  2  0
 68 73  1  0
 69 65  1  0
 69 73  1  0
 70 69  1  0
 71 72  1  0
 71 70  1  0
 72 68  1  0
 73 74  2  0
 74 75  1  0
 76 75  2  0
 77 76  1  0
 78 52  1  0
 78 79  1  0
 78 88  1  0
 79 82  1  0
 80 84  1  0
 80 79  1  0
 81 80  2  0
 84 83  1  0
 86 84  1  0
 86 87  1  0
 86 85  1  0
 88 91  1  1
 88 89  1  0
 90 88  1  0
M  ISO  4   9 100  17 100  50 101  51 101
M  END
>  <TORSDO>  (47) 
F 21

>  <SCORE>  (47) 
-13.429

>  <name>  (47) 
49

>  <ligand_id>  (47) 
49

>  <original_smiles>  (47) 
[H]c1c([H])c([H])c2c(c1[H])C([H])([H])C([H])([H])C([H])([H])C2([H])N([H])C(=O)C1([H])N(C(=O)C([H])(N([H])C(=O)C([H])(N([H])C([H])([H])[H])C([H])([H])[H])C(C([H])([H])[H])(C([H])([H])[H])C([H])([H])[H])C([H])([H])c2c([H])c(OC([H])(C([H])([H])[H])C([H])([H])C([H])([H])n3c([H])nc(C([H])(C([H])([H])[H])C([H])([H])N([H])C(=O)N4C([H])([H])C([H])([H])C([H])([H])C([H])(n5nc(-c6c([H])c([H])c(Oc7c([H])c([H])c(F)c([H])c7F)c([H])c6[H])c(C(=O)N([H])[H])c5N([H])[H])C4([H])[H])c3[H])c([H])c([H])c2C1([H])[H]

>  <smiles>  (47) 
[H]c1c([H])c([H])c2c(c1[H])C([H])([H])C([H])([H])C([H])([H])C2([H])N([H])C(=O)C1([H])N(C(=O)C([H])(N([H])C(=O)C([H])(N([H])C([H])([H])[H])C([H])([H])[H])C(C([H])([H])[H])(C([H])([H])[H])C([H])([H])[H])C([H])([H])c2c([H])c(OC([H])(C([H])([H])[H])C([H])([H])C([H])([H])n3c([H])nc(C([H])(C([H])([H])[H])C([H])([H])N([H])C(=O)N4C([H])([H])C([H])([H])C([H])([H])C([H])(n5nc(-c6c([H])c([H])c(Oc7c([H])c([H])c(F)c([H])c7F)c([H])c6[H])c(C(=O)N([H])[H])c5N([H])[H])C4([H])[H])c3[H])c([H])c([H])c2C1([H])[H]

$$$$
50:0:0
     RDKit          3D

 91 99  0  0  1  0  0  0  0  0999 V2000
  -28.6070  -21.6870   19.7370 C   0  0  0  0  0  3  0  0  0  0  0  0
  -29.2500  -22.9560   19.7210 C   0  0  0  0  0  0  0  0  0  0  0  0
  -29.4020  -20.5100   19.8660 C   0  0  0  0  0  0  0  0  0  0  0  0
  -30.6630  -22.9300   19.8500 C   0  0  0  0  0  0  0  0  0  0  0  0
  -31.5190  -24.1800   19.7440 C   0  0  0  0  0  1  0  0  0  0  0  0
  -30.7460  -20.5890   20.0220 N   0  0  0  0  0  0  0  0  0  0  0  0
  -31.3580  -21.7770   20.0290 N   0  0  0  0  0  0  0  0  0  0  0  0
  -28.4780  -24.2710   19.4310 C   0  0  0  0  0  2  0  0  0  0  0  0
  -28.3580  -25.3000   20.5970 C   0  0  0  0  0  2  0  0  0  0  0  0
  -28.3990  -26.6920   20.1960 O   0  0  0  0  0  0  0  0  0  0  0  0
  -24.5650  -31.8790   23.2450 C   0  0  0  0  0  0  0  0  0  0  0  0
  -27.2220  -27.4160   20.2010 C   0  0  0  0  0  0  0  0  0  0  0  0
  -23.3630  -30.4770   21.5950 C   0  0  0  0  0  3  0  0  0  0  0  0
  -24.8250  -28.9300   20.1870 C   0  0  0  0  0  0  0  0  0  0  0  0
  -25.8870  -30.8410   21.4010 C   0  0  0  0  0  2  0  0  0  0  0  0
  -25.9800  -29.4600   20.7740 C   0  0  0  0  0  0  0  0  0  0  0  0
  -27.1840  -28.7130   20.7700 C   0  0  0  0  0  3  0  0  0  0  0  0
  -26.0490  -26.9030   19.6110 C   0  0  0  0  0  3  0  0  0  0  0  0
  -24.8560  -27.6520   19.6000 C   0  0  0  0  0  3  0  0  0  0  0  0
  -23.5800  -29.7900   20.2190 C   0  0  0  0  0  2  0  0  0  0  0  0
  -24.6240  -31.0820   22.1400 N   0  0  0  0  0  0  0  0  0  0  0  0
  -23.4810  -32.1500   23.7850 O   0  0  0  0  0  0  0  0  0  0  0  0
  -22.7040  -29.4590   22.5560 C   0  0  0  0  0  0  0  0  0  0  0  0
  -21.3780  -29.2850   22.4280 N   0  0  0  0  0  0  0  0  0  0  0  0
  -23.3840  -28.8330   23.3730 O   0  0  0  0  0  0  0  0  0  0  0  0
  -20.8860  -29.8470   21.7450 H   0  0  0  0  0  0  0  0  0  0  0  0
  -18.0000  -28.1110   22.9230 C   0  0  0  0  0  0  0  0  0  0  0  0
  -20.5600  -28.3480   23.1970 C   0  0  0  0  0  3  0  0  0  0  0  0
  -20.6520  -26.9200   22.6120 C   0  0  0  0  0  2  0  0  0  0  0  0
  -19.5470  -26.6120   21.5970 C   0  0  0  0  0  2  0  0  0  0  0  0
  -18.1670  -26.7620   22.2420 C   0  0  0  0  0  2  0  0  0  0  0  0
  -19.1240  -28.8610   23.3600 C   0  0  0  0  0  0  0  0  0  0  0  0
  -18.9150  -30.1240   23.9570 C   0  0  0  0  0  3  0  0  0  0  0  0
  -17.6140  -30.6360   24.1230 C   0  0  0  0  0  3  0  0  0  0  0  0
  -16.5050  -29.8810   23.7040 C   0  0  0  0  0  3  0  0  0  0  0  0
  -16.6980  -28.6200   23.1110 C   0  0  0  0  0  3  0  0  0  0  0  0
  -25.8470  -32.5090   23.8730 C   0  0  0  0  0  3  0  0  0  0  0  0
  -25.5430  -33.9090   24.1950 N   0  0  0  0  0  0  0  0  0  0  0  0
  -25.8940  -34.9570   23.4370 C   0  0  0  0  0  0  0  0  0  0  0  0
  -26.5790  -34.8440   22.4160 O   0  0  0  0  0  0  0  0  0  0  0  0
  -24.9450  -34.0690   24.9920 H   0  0  0  0  0  0  0  0  0  0  0  0
  -24.1930  -36.7610   23.0330 C   0  0  0  0  0  1  0  0  0  0  0  0
  -25.4100  -36.3510   23.8780 C   0  0  0  0  0  3  0  0  0  0  0  0
  -27.5350  -37.2180   24.7550 C   0  0  0  0  0  1  0  0  0  0  0  0
  -26.4560  -37.3940   23.7840 N   0  0  0  0  0  0  0  0  0  0  0  0
  -26.0570  -38.3200   23.9200 H   0  0  0  0  0  0  0  0  0  0  0  0
  -26.3540  -31.7380   25.1540 C   0  0  1  0  0  0  0  0  0  0  0  0
  -25.2520  -31.5130   26.2150 C   0  0  0  0  0  1  0  0  0  0  0  0
  -26.9260  -30.3540   24.7670 C   0  0  0  0  0  1  0  0  0  0  0  0
  -27.5050  -32.5240   25.8210 C   0  0  0  0  0  1  0  0  0  0  0  0
  -28.8360  -19.0980   19.6100 C   0  0  0  0  0  2  0  0  0  0  0  0
  -29.0300  -17.9830   20.6910 C   0  0  0  0  0  2  0  0  0  0  0  0
  -30.1900  -16.9640   20.4250 C   0  0  0  0  0  2  0  0  0  0  0  0
  -30.6340  -14.5000   20.4160 C   0  0  0  0  0  0  0  0  0  0  0  0
  -30.3460  -12.3380   19.2720 C   0  0  0  0  0  2  0  0  0  0  0  0
  -29.4100  -12.5800   18.0660 C   0  0  0  0  0  2  0  0  0  0  0  0
  -27.9280  -12.4540   18.4870 C   0  0  0  0  0  2  0  0  0  0  0  0
  -27.5950  -13.2580   19.7710 C   0  0  0  0  0  3  0  0  0  0  0  0
  -28.6490  -13.0020   20.8720 C   0  0  0  0  0  2  0  0  0  0  0  0
  -29.9750  -13.3120   20.3110 N   0  0  0  0  0  0  0  0  0  0  0  0
  -31.7800  -14.6620   19.9870 O   0  0  0  0  0  0  0  0  0  0  0  0
  -29.8830  -15.5620   20.7870 N   0  0  0  0  0  0  0  0  0  0  0  0
  -28.9520  -15.3610   21.1210 H   0  0  0  0  0  0  0  0  0  0  0  0
  -25.1990  -13.8700   20.4720 C   0  0  0  0  0  0  0  0  0  0  0  0
  -24.1270  -13.1050   20.8370 C   0  0  0  0  0  0  0  0  0  0  0  0
  -24.5820  -11.7490   20.8090 C   0  0  0  0  0  0  0  0  0  0  0  0
  -26.2410  -12.9830   20.2420 N   0  0  0  0  0  0  0  0  0  0  0  0
  -25.8720  -11.7010   20.5030 N   0  0  0  0  0  0  0  0  0  0  0  0
  -23.8470  -10.4910   21.0020 C   0  0  0  0  0  0  0  0  0  0  0  0
  -24.2670   -9.5310   21.9490 C   0  0  0  0  0  3  0  0  0  0  0  0
  -23.5370   -8.3360   22.1310 C   0  0  0  0  0  3  0  0  0  0  0  0
  -22.3720   -8.0960   21.3630 C   0  0  0  0  0  0  0  0  0  0  0  0
  -21.9680   -9.0450   20.4070 C   0  0  0  0  0  3  0  0  0  0  0  0
  -22.6980  -10.2310   20.2270 C   0  0  0  0  0  3  0  0  0  0  0  0
  -21.6150   -6.9540   21.4530 O   0  0  0  0  0  0  0  0  0  0  0  0
  -21.5500   -6.2210   22.6100 C   0  0  0  0  0  0  0  0  0  0  0  0
  -21.1020   -6.7860   23.8250 C   0  0  0  0  0  3  0  0  0  0  0  0
  -20.9860   -5.9800   24.9740 C   0  0  0  0  0  3  0  0  0  0  0  0
  -21.3060   -4.6110   24.9110 C   0  0  0  0  0  0  0  0  0  0  0  0
  -21.7480   -4.0460   23.7010 C   0  0  0  0  0  3  0  0  0  0  0  0
  -21.8680   -4.8490   22.5550 C   0  0  0  0  0  0  0  0  0  0  0  0
  -22.2750   -4.2950   21.3860 F   0  0  0  0  0  0  0  0  0  0  0  0
  -21.1830   -3.8350   26.0140 F   0  0  0  0  0  0  0  0  0  0  0  0
  -22.7310  -13.5870   21.1090 C   0  0  0  0  0  0  0  0  0  0  0  0
  -21.9920  -12.8970   21.9690 N   0  0  0  0  0  0  0  0  0  0  0  0
  -22.3010  -14.6160   20.5890 O   0  0  0  0  0  0  0  0  0  0  0  0
  -22.3470  -12.0660   22.4200 H   0  0  0  0  0  0  0  0  0  0  0  0
  -21.0570  -13.2080   22.1900 H   0  0  0  0  0  0  0  0  0  0  0  0
  -25.3760  -15.2400   20.2940 N   0  0  0  0  0  0  0  0  0  0  0  0
  -24.6070  -15.8960   20.3870 H   0  0  0  0  0  0  0  0  0  0  0  0
  -26.2280  -15.6690   19.9580 H   0  0  0  0  0  0  0  0  0  0  0  0
  1  3  1  0
  2  1  2  0
  2  4  1  0
  3  6  2  0
  4  7  2  0
  5  4  1  0
  6  7  1  0
  8  2  1  0
  8  9  1  0
 10 12  1  0
 10  9  1  0
 11 22  2  0
 12 17  1  0
 13 21  1  0
 13 23  1  0
 14 20  1  0
 14 16  1  0
 15 21  1  0
 16 15  1  0
 17 16  2  0
 18 12  2  0
 19 18  1  0
 19 14  2  0
 20 13  1  0
 21 11  1  0
 23 25  2  0
 24 23  1  0
 26 24  1  0
 27 36  2  0
 27 32  1  0
 28 24  1  0
 28 32  1  0
 29 28  1  0
 30 31  1  0
 30 29  1  0
 31 27  1  0
 32 33  2  0
 33 34  1  0
 35 34  2  0
 36 35  1  0
 37 11  1  0
 37 38  1  0
 37 47  1  0
 38 41  1  0
 39 43  1  0
 39 38  1  0
 40 39  2  0
 43 42  1  0
 45 43  1  0
 45 46  1  0
 45 44  1  0
 47 50  1  1
 47 48  1  0
 49 47  1  0
 51  3  1  0
 51 52  1  0
 53 52  1  0
 53 62  1  0
 54 62  1  0
 55 60  1  0
 56 57  1  0
 56 55  1  0
 58 57  1  0
 58 67  1  0
 58 59  1  0
 60 54  1  0
 60 59  1  0
 61 54  2  0
 62 63  1  0
 64 65  2  0
 65 84  1  0
 66 65  1  0
 66 69  1  0
 67 64  1  0
 67 68  1  0
 68 66  2  0
 69 70  1  0
 70 71  2  0
 72 75  1  0
 72 71  1  0
 73 72  2  0
 74 73  1  0
 74 69  2  0
 75 76  1  0
 76 77  1  0
 77 78  2  0
 79 78  1  0
 79 83  1  0
 80 79  2  0
 81 76  2  0
 81 80  1  0
 82 81  1  0
 84 85  1  0
 85 88  1  0
 85 87  1  0
 86 84  2  0
 89 90  1  0
 89 64  1  0
 91 89  1  0
M  ISO  4   9 101  10 101  54 100  62 100
M  END
>  <TORSDO>  (48) 
F 21

>  <SCORE>  (48) 
-13.432

>  <name>  (48) 
50

>  <ligand_id>  (48) 
50

>  <original_smiles>  (48) 
[H]c1c([H])c([H])c2c(c1[H])C([H])([H])C([H])([H])C([H])([H])C2([H])N([H])C(=O)C1([H])N(C(=O)C([H])(N([H])C(=O)C([H])(N([H])C([H])([H])[H])C([H])([H])[H])C(C([H])([H])[H])(C([H])([H])[H])C([H])([H])[H])C([H])([H])c2c([H])c(OC([H])([H])C([H])([H])c3c(C([H])([H])[H])nnc(C([H])([H])C([H])([H])C([H])([H])N([H])C(=O)N4C([H])([H])C([H])([H])C([H])([H])C([H])(n5nc(-c6c([H])c([H])c(Oc7c([H])c([H])c(F)c([H])c7F)c([H])c6[H])c(C(=O)N([H])[H])c5N([H])[H])C4([H])[H])c3[H])c([H])c([H])c2C1([H])[H]

>  <smiles>  (48) 
[H]c1c([H])c([H])c2c(c1[H])C([H])([H])C([H])([H])C([H])([H])C2([H])N([H])C(=O)C1([H])N(C(=O)C([H])(N([H])C(=O)C([H])(N([H])C([H])([H])[H])C([H])([H])[H])C(C([H])([H])[H])(C([H])([H])[H])C([H])([H])[H])C([H])([H])c2c([H])c(OC([H])([H])C([H])([H])c3c(C([H])([H])[H])nnc(C([H])([H])C([H])([H])C([H])([H])N([H])C(=O)N4C([H])([H])C([H])([H])C([H])([H])C([H])(n5nc(-c6c([H])c([H])c(Oc7c([H])c([H])c(F)c([H])c7F)c([H])c6[H])c(C(=O)N([H])[H])c5N([H])[H])C4([H])[H])c3[H])c([H])c([H])c2C1([H])[H]

$$$$
51:0:0
     RDKit          3D

 96104  0  0  1  0  0  0  0  0999 V2000
  -30.1480  -21.4280   22.4780 N   0  0  1  0  0  4  0  0  0  0  0  0
  -29.8620  -20.9770   23.3350 H   0  0  0  0  0  0  0  0  0  0  0  0
  -29.4230  -18.1910   20.3810 C   0  0  0  0  0  2  0  0  0  0  0  0
  -31.9230  -18.5530   20.5010 C   0  0  0  0  0  2  0  0  0  0  0  0
  -29.2320  -19.2430   21.4890 C   0  0  0  0  0  2  0  0  0  0  0  0
  -31.7150  -19.5770   21.6240 C   0  0  0  0  0  2  0  0  0  0  0  0
  -30.8010  -17.5060   20.4320 C   0  0  0  0  0  3  0  0  0  0  0  0
  -30.3560  -20.3170   21.4770 C   0  0  0  0  0  3  0  0  0  0  0  0
  -30.9190  -16.4380   21.5470 C   0  0  0  0  0  2  0  0  0  0  0  0
  -30.6750  -14.3270   20.2770 C   0  0  0  0  0  0  0  0  0  0  0  0
  -30.2960  -12.1960   19.1060 C   0  0  0  0  0  2  0  0  0  0  0  0
  -29.3170  -12.3730   17.9320 C   0  0  0  0  0  2  0  0  0  0  0  0
  -27.8650  -12.2120   18.4160 C   0  0  0  0  0  2  0  0  0  0  0  0
  -27.5540  -13.0770   19.6660 C   0  0  0  0  0  3  0  0  0  0  0  0
  -28.6440  -12.9010   20.7480 C   0  0  0  0  0  2  0  0  0  0  0  0
  -29.9570  -13.1840   20.1390 N   0  0  0  0  0  0  0  0  0  0  0  0
  -31.6850  -14.5700   19.6090 O   0  0  0  0  0  0  0  0  0  0  0  0
  -30.2390  -15.1890   21.2020 N   0  0  0  0  0  0  0  0  0  0  0  0
  -29.4160  -14.9340   21.7270 H   0  0  0  0  0  0  0  0  0  0  0  0
  -25.1770  -13.6560   20.4700 C   0  0  0  0  0  0  0  0  0  0  0  0
  -24.1310  -12.8700   20.8720 C   0  0  0  0  0  0  0  0  0  0  0  0
  -24.6040  -11.5220   20.8100 C   0  0  0  0  0  0  0  0  0  0  0  0
  -26.2210  -12.7880   20.1920 N   0  0  0  0  0  0  0  0  0  0  0  0
  -25.8800  -11.4990   20.4510 N   0  0  0  0  0  0  0  0  0  0  0  0
  -23.8980  -10.2510   21.0150 C   0  0  0  0  0  0  0  0  0  0  0  0
  -24.3290   -9.3160   21.9820 C   0  0  0  0  0  3  0  0  0  0  0  0
  -23.6230   -8.1080   22.1730 C   0  0  0  0  0  3  0  0  0  0  0  0
  -22.4730   -7.8270   21.3980 C   0  0  0  0  0  0  0  0  0  0  0  0
  -22.0610   -8.7520   20.4220 C   0  0  0  0  0  3  0  0  0  0  0  0
  -22.7670   -9.9500   20.2290 C   0  0  0  0  0  3  0  0  0  0  0  0
  -21.7400   -6.6700   21.4980 O   0  0  0  0  0  0  0  0  0  0  0  0
  -21.6300   -5.9860   22.6820 C   0  0  0  0  0  0  0  0  0  0  0  0
  -21.1000   -6.5880   23.8440 C   0  0  0  0  0  3  0  0  0  0  0  0
  -20.9410   -5.8290   25.0210 C   0  0  0  0  0  3  0  0  0  0  0  0
  -21.3020   -4.4690   25.0360 C   0  0  0  0  0  0  0  0  0  0  0  0
  -21.8250   -3.8660   23.8780 C   0  0  0  0  0  3  0  0  0  0  0  0
  -21.9860   -4.6220   22.7040 C   0  0  0  0  0  0  0  0  0  0  0  0
  -22.4700   -4.0310   21.5860 F   0  0  0  0  0  0  0  0  0  0  0  0
  -21.1420   -3.7370   26.1630 F   0  0  0  0  0  0  0  0  0  0  0  0
  -22.7410  -13.3300   21.2050 C   0  0  0  0  0  0  0  0  0  0  0  0
  -22.0580  -12.6210   22.0990 N   0  0  0  0  0  0  0  0  0  0  0  0
  -22.2700  -14.3520   20.7100 O   0  0  0  0  0  0  0  0  0  0  0  0
  -22.4510  -11.7920   22.5190 H   0  0  0  0  0  0  0  0  0  0  0  0
  -21.1280  -12.9110   22.3640 H   0  0  0  0  0  0  0  0  0  0  0  0
  -25.3230  -15.0300   20.3000 N   0  0  0  0  0  0  0  0  0  0  0  0
  -24.5600  -15.6800   20.4480 H   0  0  0  0  0  0  0  0  0  0  0  0
  -26.1640  -15.4770   19.9550 H   0  0  0  0  0  0  0  0  0  0  0  0
  -32.1250  -22.8190   21.6410 C   0  0  0  0  0  1  0  0  0  0  0  0
  -31.4060  -22.1530   22.8350 C   0  0  0  0  0  2  0  0  0  0  0  0
  -28.9990  -22.3170   22.0970 C   0  0  0  0  0  2  0  0  0  0  0  0
  -29.3340  -23.8130   24.2020 C   0  0  0  0  0  1  0  0  0  0  0  0
  -28.8890  -23.7420   22.7280 C   0  0  0  0  0  3  0  0  0  0  0  0
  -29.4230  -24.9220   21.8740 C   0  0  0  0  0  2  0  0  0  0  0  0
  -28.6590  -25.1440   20.5540 C   0  0  0  0  0  2  0  0  0  0  0  0
  -29.2620  -26.2610   19.6870 C   0  0  0  0  0  2  0  0  0  0  0  0
  -28.4710  -26.4260   18.5130 O   0  0  0  0  0  0  0  0  0  0  0  0
  -24.8420  -30.9060   22.6530 C   0  0  0  0  0  0  0  0  0  0  0  0
  -27.2990  -27.0980   18.7350 C   0  0  0  0  0  0  0  0  0  0  0  0
  -23.5130  -29.6810   20.9580 C   0  0  0  0  0  3  0  0  0  0  0  0
  -24.8600  -28.4290   19.1920 C   0  0  0  0  0  0  0  0  0  0  0  0
  -25.9820  -30.2010   20.5590 C   0  0  0  0  0  2  0  0  0  0  0  0
  -26.0480  -28.9370   19.7330 C   0  0  0  0  0  0  0  0  0  0  0  0
  -27.2710  -28.2750   19.5110 C   0  0  0  0  0  3  0  0  0  0  0  0
  -26.1040  -26.6000   18.1800 C   0  0  0  0  0  3  0  0  0  0  0  0
  -24.8800  -27.2550   18.4160 C   0  0  0  0  0  3  0  0  0  0  0  0
  -23.5970  -29.2050   19.4820 C   0  0  0  0  0  2  0  0  0  0  0  0
  -24.8030  -30.2710   21.4490 N   0  0  0  0  0  0  0  0  0  0  0  0
  -23.8160  -31.0490   23.3350 O   0  0  0  0  0  0  0  0  0  0  0  0
  -23.0070  -28.5080   21.8270 C   0  0  0  0  0  0  0  0  0  0  0  0
  -21.7010  -28.2160   21.7280 N   0  0  0  0  0  0  0  0  0  0  0  0
  -23.7830  -27.8690   22.5400 O   0  0  0  0  0  0  0  0  0  0  0  0
  -21.1320  -28.7920   21.1240 H   0  0  0  0  0  0  0  0  0  0  0  0
  -18.5060  -26.5690   22.0890 C   0  0  0  0  0  0  0  0  0  0  0  0
  -21.0070  -27.1310   22.4200 C   0  0  0  0  0  3  0  0  0  0  0  0
  -21.2970  -25.7680   21.7520 C   0  0  0  0  0  2  0  0  0  0  0  0
  -20.2530  -25.3770   20.7000 C   0  0  0  0  0  2  0  0  0  0  0  0
  -18.8600  -25.3020   21.3290 C   0  0  0  0  0  2  0  0  0  0  0  0
  -19.5150  -27.4360   22.5880 C   0  0  0  0  0  0  0  0  0  0  0  0
  -19.1320  -28.6200   23.2560 C   0  0  0  0  0  3  0  0  0  0  0  0
  -17.7730  -28.9430   23.4300 C   0  0  0  0  0  3  0  0  0  0  0  0
  -16.7790  -28.0720   22.9500 C   0  0  0  0  0  3  0  0  0  0  0  0
  -17.1470  -26.8860   22.2880 C   0  0  0  0  0  3  0  0  0  0  0  0
  -26.1670  -31.5040   23.2220 C   0  0  0  0  0  3  0  0  0  0  0  0
  -25.8340  -32.7800   23.8690 N   0  0  0  0  0  0  0  0  0  0  0  0
  -26.0550  -33.9860   23.3280 C   0  0  0  0  0  0  0  0  0  0  0  0
  -26.6360  -34.1420   22.2510 O   0  0  0  0  0  0  0  0  0  0  0  0
  -25.3080  -32.7280   24.7290 H   0  0  0  0  0  0  0  0  0  0  0  0
  -24.2390  -35.7170   23.4840 C   0  0  0  0  0  1  0  0  0  0  0  0
  -25.5510  -35.2140   24.1080 C   0  0  0  0  0  3  0  0  0  0  0  0
  -27.7030  -36.0100   24.9800 C   0  0  0  0  0  1  0  0  0  0  0  0
  -26.5320  -36.3190   24.1640 N   0  0  0  0  0  0  0  0  0  0  0  0
  -26.1030  -37.1640   24.5330 H   0  0  0  0  0  0  0  0  0  0  0  0
  -26.9050  -30.5400   24.2310 C   0  0  1  0  0  0  0  0  0  0  0  0
  -25.9930  -30.0070   25.3590 C   0  0  0  0  0  1  0  0  0  0  0  0
  -27.4960  -29.3220   23.4820 C   0  0  0  0  0  1  0  0  0  0  0  0
  -28.0960  -31.2790   24.8860 C   0  0  0  0  0  1  0  0  0  0  0  0
  1 49  1  0
  1  2  1  1
  3  7  1  0
  3  5  1  0
  4  6  1  0
  7  4  1  0
  7  9  1  0
  8  5  1  0
  8  6  1  0
  8  1  1  0
 10 18  1  0
 11 16  1  0
 12 13  1  0
 12 11  1  0
 14 13  1  0
 14 23  1  0
 14 15  1  0
 16 10  1  0
 16 15  1  0
 17 10  2  0
 18  9  1  0
 18 19  1  0
 20 21  2  0
 21 40  1  0
 22 21  1  0
 22 25  1  0
 23 24  1  0
 23 20  1  0
 24 22  2  0
 25 26  1  0
 26 27  2  0
 28 31  1  0
 28 27  1  0
 29 28  2  0
 30 29  1  0
 30 25  2  0
 31 32  1  0
 32 37  2  0
 32 33  1  0
 33 34  2  0
 34 35  1  0
 35 39  1  0
 36 35  2  0
 37 36  1  0
 38 37  1  0
 40 41  1  0
 41 44  1  0
 41 43  1  0
 42 40  2  0
 45 46  1  0
 45 20  1  0
 47 45  1  0
 48 49  1  0
 50  1  1  0
 50 52  1  0
 52 51  1  0
 53 52  1  0
 54 53  1  0
 55 54  1  0
 56 58  1  0
 56 55  1  0
 57 68  2  0
 58 63  1  0
 59 67  1  0
 59 69  1  0
 60 66  1  0
 60 62  1  0
 61 67  1  0
 62 61  1  0
 63 62  2  0
 64 65  1  0
 64 58  2  0
 65 60  2  0
 66 59  1  0
 67 57  1  0
 69 71  2  0
 70 69  1  0
 72 70  1  0
 73 82  2  0
 73 78  1  0
 74 70  1  0
 74 78  1  0
 75 74  1  0
 76 77  1  0
 76 75  1  0
 77 73  1  0
 78 79  2  0
 79 80  1  0
 81 80  2  0
 82 81  1  0
 83 57  1  0
 83 84  1  0
 83 93  1  0
 84 87  1  0
 85 84  1  0
 85 89  1  0
 86 85  2  0
 89 88  1  0
 89 91  1  0
 91 92  1  0
 91 90  1  0
 93 96  1  1
 93 94  1  0
 95 93  1  0
M  ISO  4  10 100  18 100  55 101  56 101
M  END
>  <TORSDO>  (49) 
F 24

>  <SCORE>  (49) 
-8.274

>  <name>  (49) 
51

>  <ligand_id>  (49) 
51

>  <original_smiles>  (49) 
[H]c1c([H])c([H])c2c(c1[H])C([H])([H])C([H])([H])C([H])([H])C2([H])N([H])C(=O)C1([H])N(C(=O)C([H])(N([H])C(=O)C([H])(N([H])C([H])([H])[H])C([H])([H])[H])C(C([H])([H])[H])(C([H])([H])[H])C([H])([H])[H])C([H])([H])c2c([H])c(OC([H])([H])C([H])([H])C([H])([H])C([H])(C([H])([H])[H])C([H])([H])[N+]([H])(C([H])([H])C([H])([H])[H])C3([H])C([H])([H])C([H])([H])C([H])(C([H])([H])N([H])C(=O)N4C([H])([H])C([H])([H])C([H])([H])C([H])(n5nc(-c6c([H])c([H])c(Oc7c([H])c([H])c(F)c([H])c7F)c([H])c6[H])c(C(=O)N([H])[H])c5N([H])[H])C4([H])[H])C([H])([H])C3([H])[H])c([H])c([H])c2C1([H])[H]

>  <smiles>  (49) 
[H]c1c([H])c([H])c2c(c1[H])C([H])([H])C([H])([H])C([H])([H])C2([H])N([H])C(=O)C1([H])N(C(=O)C([H])(N([H])C(=O)C([H])(N([H])C([H])([H])[H])C([H])([H])[H])C(C([H])([H])[H])(C([H])([H])[H])C([H])([H])[H])C([H])([H])c2c([H])c(OC([H])([H])C([H])([H])C([H])([H])C([H])(C([H])([H])[H])C([H])([H])[N+]([H])(C([H])([H])C([H])([H])[H])C3([H])C([H])([H])C([H])([H])C([H])(C([H])([H])N([H])C(=O)N4C([H])([H])C([H])([H])C([H])([H])C([H])(n5nc(-c6c([H])c([H])c(Oc7c([H])c([H])c(F)c([H])c7F)c([H])c6[H])c(C(=O)N([H])[H])c5N([H])[H])C4([H])[H])C([H])([H])C3([H])[H])c([H])c([H])c2C1([H])[H]

$$$$
52:0:0
     RDKit          3D

 94102  0  0  1  0  0  0  0  0999 V2000
  -30.4890  -20.4850   22.8340 C   0  0  0  0  0  3  0  0  0  0  0  0
  -30.5930  -20.7830   21.4610 C   0  0  0  0  0  0  0  0  0  0  0  0
  -30.1600  -22.0990   21.0170 C   0  0  0  0  0  0  0  0  0  0  0  0
  -30.0110  -21.4340   23.7410 C   0  0  0  0  0  0  0  0  0  0  0  0
  -29.5020  -22.8880   22.0080 C   0  0  0  0  0  0  0  0  0  0  0  0
  -29.8260  -21.0730   25.2050 C   0  0  0  0  0  1  0  0  0  0  0  0
  -29.5340  -22.6200   23.3340 N   0  0  0  0  0  0  0  0  0  0  0  0
  -28.5080  -25.2970   21.8600 C   0  0  0  0  0  1  0  0  0  0  0  0
  -28.3340  -23.7860   21.6560 C   0  0  0  0  0  2  0  0  0  0  0  0
  -31.1310  -19.6000   20.6010 C   0  0  0  0  0  2  0  0  0  0  0  0
  -30.4030  -18.2160   20.8840 C   0  0  0  0  0  3  0  0  0  0  0  0
  -31.3230  -16.9270   21.0200 C   0  0  0  0  0  3  0  0  0  0  0  0
  -31.2200  -14.4200   20.5270 C   0  0  0  0  0  0  0  0  0  0  0  0
  -30.7740  -12.2340   19.4420 C   0  0  0  0  0  2  0  0  0  0  0  0
  -29.8450  -12.4300   18.2290 C   0  0  0  0  0  2  0  0  0  0  0  0
  -28.3690  -12.3630   18.6580 C   0  0  0  0  0  2  0  0  0  0  0  0
  -28.0660  -13.2540   19.8890 C   0  0  0  0  0  3  0  0  0  0  0  0
  -29.1220  -13.0870   21.0070 C   0  0  0  0  0  2  0  0  0  0  0  0
  -30.4540  -13.2950   20.4170 N   0  0  0  0  0  0  0  0  0  0  0  0
  -32.3790  -14.4490   20.1020 O   0  0  0  0  0  0  0  0  0  0  0  0
  -30.6490  -15.5820   20.9610 N   0  0  0  0  0  0  0  0  0  0  0  0
  -29.6860  -15.5330   21.2730 H   0  0  0  0  0  0  0  0  0  0  0  0
  -25.7150  -13.9980   20.6100 C   0  0  0  0  0  0  0  0  0  0  0  0
  -24.6030  -13.2990   20.9730 C   0  0  0  0  0  0  0  0  0  0  0  0
  -24.9710  -11.9200   20.9340 C   0  0  0  0  0  0  0  0  0  0  0  0
  -26.7030  -13.0540   20.3790 N   0  0  0  0  0  0  0  0  0  0  0  0
  -26.2600  -11.7960   20.6330 N   0  0  0  0  0  0  0  0  0  0  0  0
  -24.1620  -10.7110   21.1080 C   0  0  0  0  0  0  0  0  0  0  0  0
  -24.5430   -9.6870   22.0040 C   0  0  0  0  0  3  0  0  0  0  0  0
  -23.7310   -8.5440   22.1750 C   0  0  0  0  0  3  0  0  0  0  0  0
  -22.5250   -8.4150   21.4470 C   0  0  0  0  0  0  0  0  0  0  0  0
  -22.1630   -9.4230   20.5350 C   0  0  0  0  0  3  0  0  0  0  0  0
  -22.9740  -10.5580   20.3630 C   0  0  0  0  0  3  0  0  0  0  0  0
  -21.6850   -7.3300   21.5300 O   0  0  0  0  0  0  0  0  0  0  0  0
  -21.6310   -6.5460   22.6520 C   0  0  0  0  0  0  0  0  0  0  0  0
  -21.2960   -7.0790   23.9160 C   0  0  0  0  0  3  0  0  0  0  0  0
  -21.1820   -6.2220   25.0300 C   0  0  0  0  0  3  0  0  0  0  0  0
  -21.3980   -4.8390   24.8830 C   0  0  0  0  0  0  0  0  0  0  0  0
  -21.7270   -4.3090   23.6230 C   0  0  0  0  0  3  0  0  0  0  0  0
  -21.8420   -5.1600   22.5100 C   0  0  0  0  0  0  0  0  0  0  0  0
  -22.1380   -4.6400   21.2930 F   0  0  0  0  0  0  0  0  0  0  0  0
  -21.2800   -4.0170   25.9500 F   0  0  0  0  0  0  0  0  0  0  0  0
  -23.2390  -13.8690   21.2470 C   0  0  0  0  0  0  0  0  0  0  0  0
  -22.4820  -13.2280   22.1270 N   0  0  0  0  0  0  0  0  0  0  0  0
  -22.8600  -14.9130   20.7170 O   0  0  0  0  0  0  0  0  0  0  0  0
  -22.8140  -12.3880   22.5730 H   0  0  0  0  0  0  0  0  0  0  0  0
  -21.5650  -13.5790   22.3590 H   0  0  0  0  0  0  0  0  0  0  0  0
  -25.9730  -15.3570   20.4360 N   0  0  0  0  0  0  0  0  0  0  0  0
  -25.2450  -16.0570   20.5160 H   0  0  0  0  0  0  0  0  0  0  0  0
  -26.8520  -15.7410   20.1230 H   0  0  0  0  0  0  0  0  0  0  0  0
  -30.4080  -22.5850   19.5450 C   0  0  0  0  0  2  0  0  0  0  0  0
  -29.7920  -23.8690   18.7890 C   0  0  0  0  0  3  0  0  0  0  0  0
  -30.2130  -25.3510   19.0830 C   0  0  0  0  0  3  0  0  0  0  0  0
  -29.4880  -26.4030   18.3970 O   0  0  0  0  0  0  0  0  0  0  0  0
  -24.9950  -29.9930   22.6810 C   0  0  0  0  0  0  0  0  0  0  0  0
  -28.2010  -26.7810   18.7320 C   0  0  0  0  0  0  0  0  0  0  0  0
  -23.9490  -28.7750   20.7910 C   0  0  0  0  0  3  0  0  0  0  0  0
  -25.5710  -27.8140   19.0660 C   0  0  0  0  0  0  0  0  0  0  0  0
  -26.3650  -29.5940   20.6390 C   0  0  0  0  0  2  0  0  0  0  0  0
  -26.6470  -28.4030   19.7400 C   0  0  0  0  0  0  0  0  0  0  0  0
  -27.9560  -27.8980   19.5730 C   0  0  0  0  0  3  0  0  0  0  0  0
  -27.1040  -26.2040   18.0630 C   0  0  0  0  0  3  0  0  0  0  0  0
  -25.7960  -26.7040   18.2250 C   0  0  0  0  0  3  0  0  0  0  0  0
  -24.2010  -28.4200   19.2950 C   0  0  0  0  0  2  0  0  0  0  0  0
  -25.1200  -29.4610   21.4300 N   0  0  0  0  0  0  0  0  0  0  0  0
  -23.9160  -29.9570   23.2840 O   0  0  0  0  0  0  0  0  0  0  0  0
  -23.5260  -27.4900   21.5350 C   0  0  0  0  0  0  0  0  0  0  0  0
  -22.2710  -27.0630   21.3340 N   0  0  0  0  0  0  0  0  0  0  0  0
  -24.3290  -26.8750   22.2460 O   0  0  0  0  0  0  0  0  0  0  0  0
  -21.6690  -27.6120   20.7350 H   0  0  0  0  0  0  0  0  0  0  0  0
  -19.2540  -25.0880   21.4140 C   0  0  0  0  0  0  0  0  0  0  0  0
  -21.6760  -25.8530   21.8940 C   0  0  0  0  0  3  0  0  0  0  0  0
  -22.1280  -24.5980   21.1130 C   0  0  0  0  0  2  0  0  0  0  0  0
  -21.1590  -24.2150   19.9900 C   0  0  0  0  0  2  0  0  0  0  0  0
  -19.7580  -23.9460   20.5500 C   0  0  0  0  0  2  0  0  0  0  0  0
  -20.1560  -25.9910   22.0370 C   0  0  0  0  0  0  0  0  0  0  0  0
  -19.6370  -27.0600   22.7990 C   0  0  0  0  0  3  0  0  0  0  0  0
  -18.2490  -27.2200   22.9620 C   0  0  0  0  0  3  0  0  0  0  0  0
  -17.3620  -26.3080   22.3610 C   0  0  0  0  0  3  0  0  0  0  0  0
  -17.8640  -25.2510   21.5830 C   0  0  0  0  0  3  0  0  0  0  0  0
  -26.1950  -30.6930   23.3940 C   0  0  0  0  0  3  0  0  0  0  0  0
  -25.7070  -31.9720   23.9240 N   0  0  0  0  0  0  0  0  0  0  0  0
  -25.9690  -33.1740   23.3920 C   0  0  0  0  0  0  0  0  0  0  0  0
  -26.7240  -33.3250   22.4270 O   0  0  0  0  0  0  0  0  0  0  0  0
  -25.0490  -31.9220   24.6850 H   0  0  0  0  0  0  0  0  0  0  0  0
  -24.1230  -34.8600   23.1560 C   0  0  0  0  0  1  0  0  0  0  0  0
  -25.2910  -34.3950   24.0360 C   0  0  0  0  0  3  0  0  0  0  0  0
  -27.2000  -35.2670   25.3100 C   0  0  0  0  0  1  0  0  0  0  0  0
  -26.2090  -35.5290   24.2690 N   0  0  0  0  0  0  0  0  0  0  0  0
  -25.6910  -36.3660   24.5210 H   0  0  0  0  0  0  0  0  0  0  0  0
  -26.8310  -29.8210   24.5460 C   0  0  1  0  0  0  0  0  0  0  0  0
  -25.7910  -29.2770   25.5500 C   0  0  0  0  0  1  0  0  0  0  0  0
  -27.6020  -28.6130   23.9610 C   0  0  0  0  0  1  0  0  0  0  0  0
  -27.8560  -30.6620   25.3390 C   0  0  0  0  0  1  0  0  0  0  0  0
  1  4  1  0
  2  1  2  0
  3  2  1  0
  3  5  2  0
  4  6  1  0
  5  7  1  0
  7  4  2  0
  9  8  1  0
  9  5  1  0
 10 11  1  0
 10  2  1  0
 11 12  2  0
 13 21  1  0
 14 19  1  0
 15 16  1  0
 15 14  1  0
 17 16  1  0
 17 26  1  0
 17 18  1  0
 19 13  1  0
 19 18  1  0
 20 13  2  0
 21 12  1  0
 21 22  1  0
 23 24  2  0
 24 43  1  0
 25 24  1  0
 25 28  1  0
 26 23  1  0
 26 27  1  0
 27 25  2  0
 28 29  1  0
 29 30  2  0
 31 34  1  0
 31 30  1  0
 32 31  2  0
 33 32  1  0
 33 28  2  0
 34 35  1  0
 35 36  1  0
 36 37  2  0
 38 37  1  0
 38 42  1  0
 39 38  2  0
 40 35  2  0
 40 39  1  0
 41 40  1  0
 43 44  1  0
 44 47  1  0
 44 46  1  0
 45 43  2  0
 48 49  1  0
 48 23  1  0
 50 48  1  0
 51  3  1  0
 52 53  2  0
 52 51  1  0
 54 56  1  0
 54 53  1  0
 55 66  2  0
 56 61  1  0
 57 65  1  0
 57 67  1  0
 58 64  1  0
 58 60  1  0
 59 65  1  0
 60 59  1  0
 61 60  2  0
 62 63  1  0
 62 56  2  0
 63 58  2  0
 64 57  1  0
 65 55  1  0
 67 69  2  0
 68 67  1  0
 70 68  1  0
 71 80  2  0
 71 76  1  0
 72 68  1  0
 72 76  1  0
 73 72  1  0
 74 75  1  0
 74 73  1  0
 75 71  1  0
 76 77  2  0
 77 78  1  0
 79 78  2  0
 80 79  1  0
 81 55  1  0
 81 82  1  0
 81 91  1  0
 82 85  1  0
 83 82  1  0
 83 87  1  0
 84 83  2  0
 87 86  1  0
 87 89  1  0
 89 90  1  0
 89 88  1  0
 91 94  1  1
 91 92  1  0
 93 91  1  0
M  ISO  4  13 100  21 100  53 101  54 101
M  END
>  <TORSDO>  (50) 
F 23

>  <SCORE>  (50) 
-8.999

>  <name>  (50) 
52

>  <ligand_id>  (50) 
52

>  <original_smiles>  (50) 
[H]c1c([H])c([H])c2c(c1[H])C([H])([H])C([H])([H])C([H])([H])C2([H])N([H])C(=O)C1([H])N(C(=O)C([H])(N([H])C(=O)C([H])(N([H])C([H])([H])[H])C([H])([H])[H])C(C([H])([H])[H])(C([H])([H])[H])C([H])([H])[H])C([H])([H])c2c([H])c(OC([H])([H])C([H])([H])C([H])([H])c3c(C([H])([H])C([H])([H])[H])nc(C([H])([H])[H])c([H])c3C([H])([H])C([H])([H])C([H])([H])N([H])C(=O)N3C([H])([H])C([H])([H])C([H])([H])C([H])(n4nc(-c5c([H])c([H])c(Oc6c([H])c([H])c(F)c([H])c6F)c([H])c5[H])c(C(=O)N([H])[H])c4N([H])[H])C3([H])[H])c([H])c([H])c2C1([H])[H]

>  <smiles>  (50) 
[H]c1c([H])c([H])c2c(c1[H])C([H])([H])C([H])([H])C([H])([H])C2([H])N([H])C(=O)C1([H])N(C(=O)C([H])(N([H])C(=O)C([H])(N([H])C([H])([H])[H])C([H])([H])[H])C(C([H])([H])[H])(C([H])([H])[H])C([H])([H])[H])C([H])([H])c2c([H])c(OC([H])([H])C([H])([H])C([H])([H])c3c(C([H])([H])C([H])([H])[H])nc(C([H])([H])[H])c([H])c3C([H])([H])C([H])([H])C([H])([H])N([H])C(=O)N3C([H])([H])C([H])([H])C([H])([H])C([H])(n4nc(-c5c([H])c([H])c(Oc6c([H])c([H])c(F)c([H])c6F)c([H])c5[H])c(C(=O)N([H])[H])c4N([H])[H])C3([H])[H])c([H])c([H])c2C1([H])[H]

$$$$
53:0:0
     RDKit          3D

 94102  0  0  1  0  0  0  0  0999 V2000
  -30.1200  -22.5560   21.4110 C   0  0  0  0  0  2  0  0  0  0  0  0
  -29.2890  -21.7350   19.1700 C   0  0  0  0  0  2  0  0  0  0  0  0
  -29.3790  -23.9110   21.1830 C   0  0  0  0  0  2  0  0  0  0  0  0
  -28.5370  -23.1060   19.0200 C   0  0  0  0  0  2  0  0  0  0  0  0
  -29.6090  -21.2820   20.6310 C   0  0  0  0  0  3  0  0  0  0  0  0
  -29.3010  -24.2860   19.6930 C   0  0  0  0  0  3  0  0  0  0  0  0
  -30.2760  -26.5770   19.2220 C   0  0  0  0  0  1  0  0  0  0  0  0
  -28.3110  -25.9410   17.9070 C   0  0  0  0  0  1  0  0  0  0  0  0
  -28.9350  -25.8150   19.3190 C   0  0  1  0  0  0  0  0  0  0  0  0
  -28.3410  -26.6580   20.3670 O   0  0  0  0  0  0  0  0  0  0  0  0
  -24.5910  -31.9980   23.3160 C   0  0  0  0  0  0  0  0  0  0  0  0
  -27.1900  -27.4430   20.2650 C   0  0  0  0  0  0  0  0  0  0  0  0
  -23.3680  -30.5730   21.7100 C   0  0  0  0  0  3  0  0  0  0  0  0
  -24.8030  -29.0100   20.2850 C   0  0  0  0  0  0  0  0  0  0  0  0
  -25.8990  -30.9080   21.4830 C   0  0  0  0  0  2  0  0  0  0  0  0
  -25.9750  -29.5260   20.8510 C   0  0  0  0  0  0  0  0  0  0  0  0
  -27.1660  -28.7500   20.8350 C   0  0  0  0  0  3  0  0  0  0  0  0
  -25.9800  -26.9480   19.7340 C   0  0  0  0  0  3  0  0  0  0  0  0
  -24.8050  -27.7230   19.7230 C   0  0  0  0  0  3  0  0  0  0  0  0
  -23.5630  -29.8770   20.3370 C   0  0  0  0  0  2  0  0  0  0  0  0
  -24.6400  -31.1760   22.2270 N   0  0  0  0  0  0  0  0  0  0  0  0
  -23.5150  -32.2800   23.8610 O   0  0  0  0  0  0  0  0  0  0  0  0
  -22.7240  -29.5680   22.6930 C   0  0  0  0  0  0  0  0  0  0  0  0
  -21.4100  -29.3310   22.5380 N   0  0  0  0  0  0  0  0  0  0  0  0
  -23.4030  -29.0040   23.5540 O   0  0  0  0  0  0  0  0  0  0  0  0
  -20.9210  -29.8410   21.8160 H   0  0  0  0  0  0  0  0  0  0  0  0
  -18.0840  -27.9720   22.9440 C   0  0  0  0  0  0  0  0  0  0  0  0
  -20.6070  -28.3940   23.3230 C   0  0  0  0  0  3  0  0  0  0  0  0
  -20.8180  -26.9400   22.8400 C   0  0  0  0  0  2  0  0  0  0  0  0
  -19.7900  -26.4960   21.7950 C   0  0  0  0  0  2  0  0  0  0  0  0
  -18.3700  -26.5980   22.3600 C   0  0  0  0  0  2  0  0  0  0  0  0
  -19.1350  -28.8210   23.3800 C   0  0  0  0  0  0  0  0  0  0  0  0
  -18.8170  -30.1020   23.8830 C   0  0  0  0  0  3  0  0  0  0  0  0
  -17.4800  -30.5350   23.9540 C   0  0  0  0  0  3  0  0  0  0  0  0
  -16.4420  -29.6840   23.5350 C   0  0  0  0  0  3  0  0  0  0  0  0
  -16.7450  -28.4050   23.0350 C   0  0  0  0  0  3  0  0  0  0  0  0
  -25.8810  -32.6410   23.9120 C   0  0  0  0  0  3  0  0  0  0  0  0
  -25.5780  -34.0470   24.2160 N   0  0  0  0  0  0  0  0  0  0  0  0
  -25.8910  -35.0810   23.4230 C   0  0  0  0  0  0  0  0  0  0  0  0
  -26.5370  -34.9530   22.3800 O   0  0  0  0  0  0  0  0  0  0  0  0
  -25.0010  -34.2190   25.0260 H   0  0  0  0  0  0  0  0  0  0  0  0
  -24.1420  -36.8570   23.0790 C   0  0  0  0  0  1  0  0  0  0  0  0
  -25.4110  -36.4790   23.8590 C   0  0  0  0  0  3  0  0  0  0  0  0
  -27.5630  -37.4030   24.5990 C   0  0  0  0  0  1  0  0  0  0  0  0
  -26.4340  -37.5340   23.6820 N   0  0  0  0  0  0  0  0  0  0  0  0
  -26.0270  -38.4560   23.8090 H   0  0  0  0  0  0  0  0  0  0  0  0
  -26.4080  -31.8970   25.2000 C   0  0  1  0  0  0  0  0  0  0  0  0
  -25.3160  -31.6520   26.2680 C   0  0  0  0  0  1  0  0  0  0  0  0
  -27.0170  -30.5250   24.8280 C   0  0  0  0  0  1  0  0  0  0  0  0
  -27.5420  -32.7200   25.8560 C   0  0  0  0  0  1  0  0  0  0  0  0
  -31.5310  -19.9380   19.5650 C   0  0  0  0  0  1  0  0  0  0  0  0
  -30.5700  -19.9780   20.7780 C   0  0  1  0  0  0  0  0  0  0  0  0
  -30.7150  -20.1790   23.3940 C   0  0  0  0  0  1  0  0  0  0  0  0
  -31.4640  -20.1400   22.0500 C   0  0  0  0  0  2  0  0  0  0  0  0
  -29.8590  -18.5380   20.8610 C   0  0  0  0  0  3  0  0  0  0  0  0
  -30.8170  -17.2690   21.0350 C   0  0  0  0  0  3  0  0  0  0  0  0
  -31.0100  -14.7540   20.7150 C   0  0  0  0  0  0  0  0  0  0  0  0
  -30.8110  -12.4790   19.7530 C   0  0  0  0  0  2  0  0  0  0  0  0
  -29.9340  -12.5450   18.4850 C   0  0  0  0  0  2  0  0  0  0  0  0
  -28.4430  -12.4070   18.8510 C   0  0  0  0  0  2  0  0  0  0  0  0
  -28.0210  -13.3360   20.0210 C   0  0  0  0  0  3  0  0  0  0  0  0
  -29.0230  -13.2600   21.1940 C   0  0  0  0  0  2  0  0  0  0  0  0
  -30.3560  -13.5540   20.6540 N   0  0  0  0  0  0  0  0  0  0  0  0
  -32.2000  -14.8480   20.4080 O   0  0  0  0  0  0  0  0  0  0  0  0
  -30.2640  -15.8780   20.9400 N   0  0  0  0  0  0  0  0  0  0  0  0
  -29.2810  -15.7480   21.1260 H   0  0  0  0  0  0  0  0  0  0  0  0
  -25.6150  -13.9630   20.6660 C   0  0  0  0  0  0  0  0  0  0  0  0
  -24.5230  -13.2000   20.9830 C   0  0  0  0  0  0  0  0  0  0  0  0
  -24.9660  -11.8420   20.9470 C   0  0  0  0  0  0  0  0  0  0  0  0
  -26.6530  -13.0690   20.4550 N   0  0  0  0  0  0  0  0  0  0  0  0
  -26.2660  -11.7870   20.6850 N   0  0  0  0  0  0  0  0  0  0  0  0
  -24.2140  -10.5880   21.0890 C   0  0  0  0  0  0  0  0  0  0  0  0
  -24.6020   -9.5940   22.0130 C   0  0  0  0  0  3  0  0  0  0  0  0
  -23.8500   -8.4060   22.1440 C   0  0  0  0  0  3  0  0  0  0  0  0
  -22.6960   -8.2050   21.3500 C   0  0  0  0  0  0  0  0  0  0  0  0
  -22.3270   -9.1880   20.4150 C   0  0  0  0  0  3  0  0  0  0  0  0
  -23.0790  -10.3670   20.2810 C   0  0  0  0  0  3  0  0  0  0  0  0
  -21.9200   -7.0720   21.3900 O   0  0  0  0  0  0  0  0  0  0  0  0
  -21.8120   -6.3140   22.5290 C   0  0  0  0  0  0  0  0  0  0  0  0
  -21.3050   -6.8480   23.7340 C   0  0  0  0  0  3  0  0  0  0  0  0
  -21.1460   -6.0160   24.8600 C   0  0  0  0  0  3  0  0  0  0  0  0
  -21.4830   -4.6520   24.7830 C   0  0  0  0  0  0  0  0  0  0  0  0
  -21.9820   -4.1170   23.5820 C   0  0  0  0  0  3  0  0  0  0  0  0
  -22.1430   -4.9450   22.4570 C   0  0  0  0  0  0  0  0  0  0  0  0
  -22.6040   -4.4210   21.2970 F   0  0  0  0  0  0  0  0  0  0  0  0
  -21.3220   -3.8510   25.8620 F   0  0  0  0  0  0  0  0  0  0  0  0
  -23.1250  -13.6960   21.2110 C   0  0  0  0  0  0  0  0  0  0  0  0
  -22.3570  -13.0020   22.0430 N   0  0  0  0  0  0  0  0  0  0  0  0
  -22.7210  -14.7330   20.6870 O   0  0  0  0  0  0  0  0  0  0  0  0
  -22.6950  -12.1610   22.4880 H   0  0  0  0  0  0  0  0  0  0  0  0
  -21.4170  -13.3150   22.2370 H   0  0  0  0  0  0  0  0  0  0  0  0
  -25.8070  -15.3330   20.5160 N   0  0  0  0  0  0  0  0  0  0  0  0
  -25.0450  -15.9960   20.6070 H   0  0  0  0  0  0  0  0  0  0  0  0
  -26.6690  -15.7630   20.2080 H   0  0  0  0  0  0  0  0  0  0  0  0
  2  5  1  0
  3  1  1  0
  4  2  1  0
  4  6  1  0
  5 52  1  0
  5  1  1  0
  6  9  1  0
  6  3  1  0
  9  7  1  6
  8  9  1  0
  9 10  1  0
 11 22  2  0
 12 10  1  0
 12 17  1  0
 13 21  1  0
 13 23  1  0
 14 20  1  0
 14 16  1  0
 15 21  1  0
 16 15  1  0
 17 16  2  0
 18 12  2  0
 19 18  1  0
 19 14  2  0
 20 13  1  0
 21 11  1  0
 23 25  2  0
 24 23  1  0
 26 24  1  0
 27 36  2  0
 27 32  1  0
 28 24  1  0
 28 32  1  0
 29 28  1  0
 30 31  1  0
 30 29  1  0
 31 27  1  0
 32 33  2  0
 33 34  1  0
 35 34  2  0
 36 35  1  0
 37 11  1  0
 37 38  1  0
 37 47  1  0
 38 41  1  0
 39 43  1  0
 39 38  1  0
 40 39  2  0
 43 42  1  0
 45 46  1  0
 45 43  1  0
 45 44  1  0
 47 50  1  1
 47 48  1  0
 49 47  1  0
 52 51  1  6
 52 55  1  0
 52 54  1  0
 54 53  1  0
 55 56  2  0
 57 65  1  0
 58 63  1  0
 59 60  1  0
 59 58  1  0
 61 60  1  0
 61 70  1  0
 61 62  1  0
 63 57  1  0
 63 62  1  0
 64 57  2  0
 65 56  1  0
 65 66  1  0
 67 68  2  0
 68 87  1  0
 69 68  1  0
 69 72  1  0
 70 67  1  0
 70 71  1  0
 71 69  2  0
 72 73  1  0
 73 74  2  0
 75 78  1  0
 75 74  1  0
 76 75  2  0
 77 76  1  0
 77 72  2  0
 78 79  1  0
 79 80  1  0
 80 81  2  0
 82 81  1  0
 82 86  1  0
 83 82  2  0
 84 79  2  0
 84 83  1  0
 85 84  1  0
 87 88  1  0
 88 91  1  0
 88 90  1  0
 89 87  2  0
 92 93  1  0
 92 67  1  0
 94 92  1  0
M  ISO  4   9 101  10 101  57 100  65 100
M  END
>  <TORSDO>  (51) 
F 21

>  <SCORE>  (51) 
-13.184

>  <name>  (51) 
53

>  <ligand_id>  (51) 
53

>  <original_smiles>  (51) 
[H]c1c([H])c([H])c2c(c1[H])C([H])([H])C([H])([H])C([H])([H])C2([H])N([H])C(=O)C1([H])N(C(=O)C([H])(N([H])C(=O)C([H])(N([H])C([H])([H])[H])C([H])([H])[H])C(C([H])([H])[H])(C([H])([H])[H])C([H])([H])[H])C([H])([H])c2c([H])c(OC(C([H])([H])[H])(C([H])([H])[H])C3([H])C([H])([H])C([H])([H])C([H])(C(C([H])([H])[H])(C([H])([H])C([H])([H])[H])C([H])([H])C([H])([H])N([H])C(=O)N4C([H])([H])C([H])([H])C([H])([H])C([H])(n5nc(-c6c([H])c([H])c(Oc7c([H])c([H])c(F)c([H])c7F)c([H])c6[H])c(C(=O)N([H])[H])c5N([H])[H])C4([H])[H])C([H])([H])C3([H])[H])c([H])c([H])c2C1([H])[H]

>  <smiles>  (51) 
[H]c1c([H])c([H])c2c(c1[H])C([H])([H])C([H])([H])C([H])([H])C2([H])N([H])C(=O)C1([H])N(C(=O)C([H])(N([H])C(=O)C([H])(N([H])C([H])([H])[H])C([H])([H])[H])C(C([H])([H])[H])(C([H])([H])[H])C([H])([H])[H])C([H])([H])c2c([H])c(OC(C([H])([H])[H])(C([H])([H])[H])C3([H])C([H])([H])C([H])([H])C([H])(C(C([H])([H])[H])(C([H])([H])C([H])([H])[H])C([H])([H])C([H])([H])N([H])C(=O)N4C([H])([H])C([H])([H])C([H])([H])C([H])(n5nc(-c6c([H])c([H])c(Oc7c([H])c([H])c(F)c([H])c7F)c([H])c6[H])c(C(=O)N([H])[H])c5N([H])[H])C4([H])[H])C([H])([H])C3([H])[H])c([H])c([H])c2C1([H])[H]

$$$$
54:0:0
     RDKit          3D

 95103  0  0  1  0  0  0  0  0999 V2000
  -36.5920  -22.7330   12.2460 C   0  0  0  0  0  3  0  0  0  0  0  0
  -35.2670  -22.3820   12.1950 C   0  0  0  0  0  0  0  0  0  0  0  0
  -34.5850  -23.6040   11.8210 C   0  0  0  0  0  0  0  0  0  0  0  0
  -35.4970  -24.5660   11.6100 N   0  0  0  0  0  0  0  0  0  0  0  0
  -36.7080  -24.0640   11.9500 N   0  0  0  0  0  0  0  0  0  0  0  0
  -32.9450  -25.5310   11.6880 C   0  0  0  0  0  1  0  0  0  0  0  0
  -32.0660  -23.4150   12.5710 C   0  0  0  0  0  1  0  0  0  0  0  0
  -32.6380  -23.5810   10.1430 C   0  0  0  0  0  1  0  0  0  0  0  0
  -33.0960  -23.9960   11.5660 C   0  0  2  0  0  0  0  0  0  0  0  0
  -33.9410  -20.3670   11.3790 C   0  0  0  0  0  1  0  0  0  0  0  0
  -34.8280  -20.9590   12.4900 C   0  0  0  0  0  3  0  0  0  0  0  0
  -35.9820  -20.1210   13.0820 C   0  0  0  0  0  2  0  0  0  0  0  0
  -37.2980  -20.3060   15.2010 C   0  0  0  0  0  0  0  0  0  0  0  0
  -38.9410  -19.1180   16.6200 C   0  0  0  0  0  2  0  0  0  0  0  0
  -39.4670  -17.8820   15.8550 C   0  0  0  0  0  2  0  0  0  0  0  0
  -38.5290  -16.6660   16.0260 C   0  0  0  0  0  2  0  0  0  0  0  0
  -37.0340  -17.0290   15.8100 C   0  0  0  0  0  3  0  0  0  0  0  0
  -36.6620  -18.3070   16.5950 C   0  0  0  0  0  2  0  0  0  0  0  0
  -37.5690  -19.3870   16.1680 N   0  0  0  0  0  0  0  0  0  0  0  0
  -38.1150  -21.1520   14.8250 O   0  0  0  0  0  0  0  0  0  0  0  0
  -36.1400  -20.0930   14.5440 N   0  0  0  0  0  0  0  0  0  0  0  0
  -35.4850  -19.4740   15.0020 H   0  0  0  0  0  0  0  0  0  0  0  0
  -35.1230  -15.3430   15.4240 C   0  0  0  0  0  0  0  0  0  0  0  0
  -34.6510  -14.3050   16.1910 C   0  0  0  0  0  0  0  0  0  0  0  0
  -35.4410  -14.3050   17.3780 C   0  0  0  0  0  0  0  0  0  0  0  0
  -36.1480  -15.9210   16.1600 N   0  0  0  0  0  0  0  0  0  0  0  0
  -36.2970  -15.3190   17.3690 N   0  0  0  0  0  0  0  0  0  0  0  0
  -35.4660  -13.3700   18.5110 C   0  0  0  0  0  0  0  0  0  0  0  0
  -34.8880  -13.7020   19.7550 C   0  0  0  0  0  3  0  0  0  0  0  0
  -34.9060  -12.7820   20.8240 C   0  0  0  0  0  3  0  0  0  0  0  0
  -35.5020  -11.5110   20.6510 C   0  0  0  0  0  0  0  0  0  0  0  0
  -36.0960  -11.1950   19.4180 C   0  0  0  0  0  3  0  0  0  0  0  0
  -36.0810  -12.1120   18.3560 C   0  0  0  0  0  3  0  0  0  0  0  0
  -35.5930  -10.5640   21.6460 O   0  0  0  0  0  0  0  0  0  0  0  0
  -34.5150   -9.8080   22.0260 C   0  0  0  0  0  0  0  0  0  0  0  0
  -34.1480   -8.6340   21.3330 C   0  0  0  0  0  3  0  0  0  0  0  0
  -33.0750   -7.8470   21.7970 C   0  0  0  0  0  3  0  0  0  0  0  0
  -32.3770   -8.2250   22.9590 C   0  0  0  0  0  0  0  0  0  0  0  0
  -32.7460   -9.3880   23.6560 C   0  0  0  0  0  3  0  0  0  0  0  0
  -33.8150  -10.1770   23.1930 C   0  0  0  0  0  0  0  0  0  0  0  0
  -34.1800  -11.2860   23.8790 F   0  0  0  0  0  0  0  0  0  0  0  0
  -31.3520   -7.4650   23.4110 F   0  0  0  0  0  0  0  0  0  0  0  0
  -33.5950  -13.3120   15.7980 C   0  0  0  0  0  0  0  0  0  0  0  0
  -32.6780  -12.9990   16.7100 N   0  0  0  0  0  0  0  0  0  0  0  0
  -33.5490  -12.8400   14.6650 O   0  0  0  0  0  0  0  0  0  0  0  0
  -32.6960  -13.3990   17.6350 H   0  0  0  0  0  0  0  0  0  0  0  0
  -31.9440  -12.3450   16.4810 H   0  0  0  0  0  0  0  0  0  0  0  0
  -34.7830  -15.8340   14.1700 N   0  0  0  0  0  0  0  0  0  0  0  0
  -34.0470  -15.4340   13.5940 H   0  0  0  0  0  0  0  0  0  0  0  0
  -35.2240  -16.6330   13.7350 H   0  0  0  0  0  0  0  0  0  0  0  0
  -37.9380  -24.8590   11.9590 C   0  0  0  0  0  2  0  0  0  0  0  0
  -38.5480  -25.1180   13.3520 C   0  0  0  0  0  2  0  0  0  0  0  0
  -37.4990  -25.4000   14.4410 C   0  0  0  0  0  2  0  0  0  0  0  0
  -38.1520  -25.8330   15.7620 C   0  0  0  0  0  2  0  0  0  0  0  0
  -38.9840  -26.9840   15.5650 O   0  0  0  0  0  0  0  0  0  0  0  0
  -38.6380  -33.3610   12.3860 C   0  0  0  0  0  0  0  0  0  0  0  0
  -38.3770  -28.2220   15.5070 C   0  0  0  0  0  0  0  0  0  0  0  0
  -37.2280  -33.0710   14.3940 C   0  0  0  0  0  3  0  0  0  0  0  0
  -37.0370  -30.6970   15.2700 C   0  0  0  0  0  0  0  0  0  0  0  0
  -37.8780  -31.0570   12.9470 C   0  0  0  0  0  2  0  0  0  0  0  0
  -37.7930  -30.2090   14.1990 C   0  0  0  0  0  0  0  0  0  0  0  0
  -38.4590  -28.9690   14.3100 C   0  0  0  0  0  3  0  0  0  0  0  0
  -37.6600  -28.7720   16.5990 C   0  0  0  0  0  3  0  0  0  0  0  0
  -36.9740  -29.9890   16.4770 C   0  0  0  0  0  3  0  0  0  0  0  0
  -36.3310  -32.0150   15.0800 C   0  0  0  0  0  2  0  0  0  0  0  0
  -37.9650  -32.5160   13.2130 N   0  0  0  0  0  0  0  0  0  0  0  0
  -38.6160  -34.5880   12.5680 O   0  0  0  0  0  0  0  0  0  0  0  0
  -38.1590  -33.6910   15.4610 C   0  0  0  0  0  0  0  0  0  0  0  0
  -38.1000  -35.0250   15.6030 N   0  0  0  0  0  0  0  0  0  0  0  0
  -38.8880  -32.9790   16.1550 O   0  0  0  0  0  0  0  0  0  0  0  0
  -37.4770  -35.5370   14.9950 H   0  0  0  0  0  0  0  0  0  0  0  0
  -39.7780  -38.1900   16.0730 C   0  0  0  0  0  0  0  0  0  0  0  0
  -38.8600  -35.8250   16.5640 C   0  0  0  0  0  3  0  0  0  0  0  0
  -37.9180  -36.5110   17.5810 C   0  0  0  0  0  2  0  0  0  0  0  0
  -37.5090  -37.9250   17.1630 C   0  0  0  0  0  2  0  0  0  0  0  0
  -38.7460  -38.8140   16.9940 C   0  0  0  0  0  2  0  0  0  0  0  0
  -39.8220  -36.7870   15.8570 C   0  0  0  0  0  0  0  0  0  0  0  0
  -40.7780  -36.2600   14.9640 C   0  0  0  0  0  3  0  0  0  0  0  0
  -41.6790  -37.1080   14.2910 C   0  0  0  0  0  3  0  0  0  0  0  0
  -41.6430  -38.4950   14.5210 C   0  0  0  0  0  3  0  0  0  0  0  0
  -40.7000  -39.0310   15.4150 C   0  0  0  0  0  3  0  0  0  0  0  0
  -39.4420  -32.8350   11.1570 C   0  0  0  0  0  3  0  0  0  0  0  0
  -39.0690  -33.6600   10.0010 N   0  0  0  0  0  0  0  0  0  0  0  0
  -38.6000  -33.1740    8.8430 C   0  0  0  0  0  0  0  0  0  0  0  0
  -38.5090  -31.9670    8.6090 O   0  0  0  0  0  0  0  0  0  0  0  0
  -39.0680  -34.6600   10.1390 H   0  0  0  0  0  0  0  0  0  0  0  0
  -36.7200  -33.9010    7.3470 C   0  0  0  0  0  1  0  0  0  0  0  0
  -38.1650  -34.1960    7.7770 C   0  0  0  0  0  3  0  0  0  0  0  0
  -40.3430  -34.8470    6.8500 C   0  0  0  0  0  1  0  0  0  0  0  0
  -39.0490  -34.2200    6.5910 N   0  0  0  0  0  0  0  0  0  0  0  0
  -38.6050  -34.7200    5.8250 H   0  0  0  0  0  0  0  0  0  0  0  0
  -41.0030  -32.8600   11.3760 C   0  0  1  0  0  0  0  0  0  0  0  0
  -41.6390  -34.2460   11.1240 C   0  0  0  0  0  1  0  0  0  0  0  0
  -41.3650  -32.4330   12.8170 C   0  0  0  0  0  1  0  0  0  0  0  0
  -41.6830  -31.8360   10.4330 C   0  0  0  0  0  1  0  0  0  0  0  0
  2  1  2  0
  2 11  1  0
  3  2  1  0
  4  3  2  0
  4  5  1  0
  5 51  1  0
  5  1  1  0
  9  8  1  6
  9  6  1  0
  9  3  1  0
  9  7  1  0
 11 10  1  0
 11 12  1  0
 12 21  1  0
 13 19  1  0
 15 16  1  0
 15 14  1  0
 17 16  1  0
 17 26  1  0
 17 18  1  0
 19 18  1  0
 19 14  1  0
 20 13  2  0
 21 22  1  0
 21 13  1  0
 23 26  1  0
 23 24  2  0
 24 25  1  0
 25 28  1  0
 26 27  1  0
 27 25  2  0
 28 29  1  0
 29 30  2  0
 31 30  1  0
 31 34  1  0
 32 31  2  0
 33 28  2  0
 33 32  1  0
 34 35  1  0
 35 40  1  0
 36 37  1  0
 36 35  2  0
 37 38  2  0
 38 42  1  0
 38 39  1  0
 40 39  2  0
 40 41  1  0
 43 24  1  0
 43 44  1  0
 44 46  1  0
 45 43  2  0
 47 44  1  0
 48 23  1  0
 49 48  1  0
 50 48  1  0
 51 52  1  0
 52 53  1  0
 53 54  1  0
 55 54  1  0
 56 67  2  0
 56 66  1  0
 57 55  1  0
 57 63  1  0
 58 65  1  0
 58 68  1  0
 59 64  1  0
 60 66  1  0
 60 61  1  0
 61 62  1  0
 61 59  2  0
 62 57  2  0
 64 63  2  0
 65 59  1  0
 66 58  1  0
 68 69  1  0
 68 70  2  0
 71 69  1  0
 72 76  1  0
 73 69  1  0
 73 74  1  0
 75 74  1  0
 76 75  1  0
 77 72  1  0
 77 73  1  0
 78 77  2  0
 79 80  2  0
 79 78  1  0
 80 81  1  0
 81 72  2  0
 82 92  1  0
 82 56  1  0
 83 86  1  0
 83 82  1  0
 84 83  1  0
 85 84  2  0
 88 87  1  0
 88 84  1  0
 90 89  1  0
 90 88  1  0
 91 90  1  0
 92 94  1  1
 93 92  1  0
 95 92  1  0
M  ISO  4  13 100  21 100  54 101  55 101
M  END
>  <TORSDO>  (52) 
F 23

>  <SCORE>  (52) 
-2.829

>  <name>  (52) 
54

>  <ligand_id>  (52) 
54

>  <original_smiles>  (52) 
[H]c1c([H])c([H])c2c(c1[H])C([H])([H])C([H])([H])C([H])([H])C2([H])N([H])C(=O)C1([H])N(C(=O)C([H])(N([H])C(=O)C([H])(N([H])C([H])([H])[H])C([H])([H])[H])C(C([H])([H])[H])(C([H])([H])[H])C([H])([H])[H])C([H])([H])c2c([H])c(OC([H])([H])C([H])([H])C([H])([H])C([H])([H])n3nc(C(C([H])([H])[H])(C([H])([H])[H])C([H])([H])[H])c(C([H])(C([H])([H])[H])C([H])([H])N([H])C(=O)N4C([H])([H])C([H])([H])C([H])([H])C([H])(n5nc(-c6c([H])c([H])c(Oc7c([H])c([H])c(F)c([H])c7F)c([H])c6[H])c(C(=O)N([H])[H])c5N([H])[H])C4([H])[H])c3[H])c([H])c([H])c2C1([H])[H]

>  <smiles>  (52) 
[H]c1c([H])c([H])c2c(c1[H])C([H])([H])C([H])([H])C([H])([H])C2([H])N([H])C(=O)C1([H])N(C(=O)C([H])(N([H])C(=O)C([H])(N([H])C([H])([H])[H])C([H])([H])[H])C(C([H])([H])[H])(C([H])([H])[H])C([H])([H])[H])C([H])([H])c2c([H])c(OC([H])([H])C([H])([H])C([H])([H])C([H])([H])n3nc(C(C([H])([H])[H])(C([H])([H])[H])C([H])([H])[H])c(C([H])(C([H])([H])[H])C([H])([H])N([H])C(=O)N4C([H])([H])C([H])([H])C([H])([H])C([H])(n5nc(-c6c([H])c([H])c(Oc7c([H])c([H])c(F)c([H])c7F)c([H])c6[H])c(C(=O)N([H])[H])c5N([H])[H])C4([H])[H])c3[H])c([H])c([H])c2C1([H])[H]

$$$$
55:0:0
     RDKit          3D

 98106  0  0  1  0  0  0  0  0999 V2000
  -30.5600  -19.3880   20.3570 C   0  0  0  0  0  3  0  0  0  0  0  0
  -30.0440  -18.1610   20.7130 C   0  0  0  0  0  0  0  0  0  0  0  0
  -28.3610  -19.5520   20.1980 C   0  0  0  0  0  3  0  0  0  0  0  0
  -29.5170  -20.2350   20.0460 N   0  0  0  0  0  0  0  0  0  0  0  0
  -28.6840  -18.3120   20.6020 N   0  0  0  0  0  0  0  0  0  0  0  0
  -28.0040  -17.5920   20.8140 H   0  0  0  0  0  0  0  0  0  0  0  0
  -30.9900  -17.0890   22.7430 C   0  0  0  0  0  1  0  0  0  0  0  0
  -30.7420  -16.9200   21.2380 C   0  0  0  0  0  3  0  0  0  0  0  0
  -30.6820  -14.5850   20.3290 C   0  0  0  0  0  0  0  0  0  0  0  0
  -30.3120  -12.4290   19.1760 C   0  0  0  0  0  2  0  0  0  0  0  0
  -29.3450  -12.6330   17.9940 C   0  0  0  0  0  2  0  0  0  0  0  0
  -27.8870  -12.4890   18.4640 C   0  0  0  0  0  2  0  0  0  0  0  0
  -27.5800  -13.3260   19.7360 C   0  0  0  0  0  3  0  0  0  0  0  0
  -28.6680  -13.1310   20.8170 C   0  0  0  0  0  2  0  0  0  0  0  0
  -29.9720  -13.4290   20.2050 N   0  0  0  0  0  0  0  0  0  0  0  0
  -31.7840  -14.7280   19.7950 O   0  0  0  0  0  0  0  0  0  0  0  0
  -30.0910  -15.6140   20.9760 N   0  0  0  0  0  0  0  0  0  0  0  0
  -29.1690  -15.4520   21.3480 H   0  0  0  0  0  0  0  0  0  0  0  0
  -25.2070  -13.9180   20.5270 C   0  0  0  0  0  0  0  0  0  0  0  0
  -24.1490  -13.1380   20.9140 C   0  0  0  0  0  0  0  0  0  0  0  0
  -24.6070  -11.7870   20.8430 C   0  0  0  0  0  0  0  0  0  0  0  0
  -26.2430  -13.0390   20.2500 N   0  0  0  0  0  0  0  0  0  0  0  0
  -25.8870  -11.7520   20.4960 N   0  0  0  0  0  0  0  0  0  0  0  0
  -23.8810  -10.5210   21.0260 C   0  0  0  0  0  0  0  0  0  0  0  0
  -24.3170   -9.5480   21.9530 C   0  0  0  0  0  3  0  0  0  0  0  0
  -23.5910   -8.3490   22.1260 C   0  0  0  0  0  3  0  0  0  0  0  0
  -22.4170   -8.1160   21.3730 C   0  0  0  0  0  0  0  0  0  0  0  0
  -22.0000   -9.0780   20.4360 C   0  0  0  0  0  3  0  0  0  0  0  0
  -22.7270  -10.2660   20.2600 C   0  0  0  0  0  3  0  0  0  0  0  0
  -21.6640   -6.9680   21.4550 O   0  0  0  0  0  0  0  0  0  0  0  0
  -21.5850   -6.2410   22.6140 C   0  0  0  0  0  0  0  0  0  0  0  0
  -21.1230   -6.8120   23.8210 C   0  0  0  0  0  3  0  0  0  0  0  0
  -20.9920   -6.0110   24.9740 C   0  0  0  0  0  3  0  0  0  0  0  0
  -21.3110   -4.6410   24.9190 C   0  0  0  0  0  0  0  0  0  0  0  0
  -21.7670   -4.0710   23.7180 C   0  0  0  0  0  3  0  0  0  0  0  0
  -21.9000   -4.8690   22.5680 C   0  0  0  0  0  0  0  0  0  0  0  0
  -22.3180   -4.3090   21.4070 F   0  0  0  0  0  0  0  0  0  0  0  0
  -21.1800   -3.8700   26.0240 F   0  0  0  0  0  0  0  0  0  0  0  0
  -22.7610  -13.6120   21.2360 C   0  0  0  0  0  0  0  0  0  0  0  0
  -22.0550  -12.9030   22.1110 N   0  0  0  0  0  0  0  0  0  0  0  0
  -22.3100  -14.6450   20.7450 O   0  0  0  0  0  0  0  0  0  0  0  0
  -22.4310  -12.0640   22.5290 H   0  0  0  0  0  0  0  0  0  0  0  0
  -21.1270  -13.2070   22.3710 H   0  0  0  0  0  0  0  0  0  0  0  0
  -25.3690  -15.2900   20.3700 N   0  0  0  0  0  0  0  0  0  0  0  0
  -24.5840  -15.9260   20.4670 H   0  0  0  0  0  0  0  0  0  0  0  0
  -26.1760  -15.7210   19.9400 H   0  0  0  0  0  0  0  0  0  0  0  0
  -26.9600  -20.0450   19.9980 C   0  0  0  0  0  2  0  0  0  0  0  0
  -26.6170  -20.4220   18.5420 C   0  0  0  0  0  2  0  0  0  0  0  0
  -25.4470  -21.9810   16.9240 C   0  0  0  0  0  1  0  0  0  0  0  0
  -24.8820  -22.1240   19.3780 C   0  0  0  0  0  1  0  0  0  0  0  0
  -25.9840  -21.8180   18.3510 C   0  0  0  0  0  3  0  0  0  0  0  0
  -29.6800  -21.6260   19.5060 C   0  0  0  0  0  3  0  0  0  0  0  0
  -28.9900  -22.8330   20.2400 C   0  0  0  0  0  3  0  0  0  0  0  0
  -28.6590  -24.2370   18.1300 C   0  0  0  0  0  1  0  0  0  0  0  0
  -30.6550  -24.6590   19.6220 C   0  0  0  0  0  1  0  0  0  0  0  0
  -29.1660  -24.2610   19.5890 C   0  0  2  0  0  0  0  0  0  0  0  0
  -28.3540  -25.3580   20.3710 C   0  0  0  0  0  2  0  0  0  0  0  0
  -28.4150  -26.7000   19.8100 O   0  0  0  0  0  0  0  0  0  0  0  0
  -24.5190  -31.6890   23.1480 C   0  0  0  0  0  0  0  0  0  0  0  0
  -27.2460  -27.4400   19.8490 C   0  0  0  0  0  0  0  0  0  0  0  0
  -23.3430  -30.3600   21.4240 C   0  0  0  0  0  3  0  0  0  0  0  0
  -24.8300  -28.9230   19.9250 C   0  0  0  0  0  0  0  0  0  0  0  0
  -25.8660  -30.7670   21.2560 C   0  0  0  0  0  2  0  0  0  0  0  0
  -25.9800  -29.4310   20.5420 C   0  0  0  0  0  0  0  0  0  0  0  0
  -27.1930  -28.7000   20.4960 C   0  0  0  0  0  3  0  0  0  0  0  0
  -26.0790  -26.9570   19.2160 C   0  0  0  0  0  3  0  0  0  0  0  0
  -24.8760  -27.6870   19.2560 C   0  0  0  0  0  3  0  0  0  0  0  0
  -23.5710  -29.7580   20.0110 C   0  0  0  0  0  2  0  0  0  0  0  0
  -24.5940  -30.9520   22.0030 N   0  0  0  0  0  0  0  0  0  0  0  0
  -23.4310  -31.9120   23.6970 O   0  0  0  0  0  0  0  0  0  0  0  0
  -22.7060  -29.2790   22.3250 C   0  0  0  0  0  0  0  0  0  0  0  0
  -21.3810  -29.0970   22.1990 N   0  0  0  0  0  0  0  0  0  0  0  0
  -23.3990  -28.6060   23.0940 O   0  0  0  0  0  0  0  0  0  0  0  0
  -20.8800  -29.6930   21.5540 H   0  0  0  0  0  0  0  0  0  0  0  0
  -18.0210  -27.8410   22.6370 C   0  0  0  0  0  0  0  0  0  0  0  0
  -20.5770  -28.1070   22.9150 C   0  0  0  0  0  3  0  0  0  0  0  0
  -20.6910  -26.7140   22.2530 C   0  0  0  0  0  2  0  0  0  0  0  0
  -19.5880  -26.4420   21.2240 C   0  0  0  0  0  2  0  0  0  0  0  0
  -18.2080  -26.5360   21.8810 C   0  0  0  0  0  2  0  0  0  0  0  0
  -19.1340  -28.5870   23.1080 C   0  0  0  0  0  0  0  0  0  0  0  0
  -18.9050  -29.8110   23.7730 C   0  0  0  0  0  3  0  0  0  0  0  0
  -17.5980  -30.2880   23.9740 C   0  0  0  0  0  3  0  0  0  0  0  0
  -16.4990  -29.5380   23.5190 C   0  0  0  0  0  3  0  0  0  0  0  0
  -16.7120  -28.3160   22.8550 C   0  0  0  0  0  3  0  0  0  0  0  0
  -25.7920  -32.3080   23.8060 C   0  0  0  0  0  3  0  0  0  0  0  0
  -25.4780  -33.6990   24.1550 N   0  0  0  0  0  0  0  0  0  0  0  0
  -25.8080  -34.7620   23.4080 C   0  0  0  0  0  0  0  0  0  0  0  0
  -26.4770  -34.6740   22.3740 O   0  0  0  0  0  0  0  0  0  0  0  0
  -24.8870  -33.8430   24.9600 H   0  0  0  0  0  0  0  0  0  0  0  0
  -24.0690  -36.5490   23.0800 C   0  0  0  0  0  1  0  0  0  0  0  0
  -25.3160  -36.1420   23.8820 C   0  0  0  0  0  3  0  0  0  0  0  0
  -27.4460  -37.0320   24.7180 C   0  0  0  0  0  1  0  0  0  0  0  0
  -26.3420  -37.2020   23.7770 N   0  0  0  0  0  0  0  0  0  0  0  0
  -25.9310  -38.1180   23.9350 H   0  0  0  0  0  0  0  0  0  0  0  0
  -26.2820  -31.5120   25.0780 C   0  0  1  0  0  0  0  0  0  0  0  0
  -25.1730  -31.2730   26.1290 C   0  0  0  0  0  1  0  0  0  0  0  0
  -26.8500  -30.1330   24.6700 C   0  0  0  0  0  1  0  0  0  0  0  0
  -27.4330  -32.2810   25.7690 C   0  0  0  0  0  1  0  0  0  0  0  0
  1  2  2  0
  2  8  1  0
  3 47  1  0
  3  5  1  0
  4  3  1  0
  4  1  1  0
  5  2  1  0
  5  6  1  0
  8  7  1  0
  9 17  1  0
 10 15  1  0
 11 12  1  0
 11 10  1  0
 13 12  1  0
 13 22  1  0
 13 14  1  0
 15  9  1  0
 15 14  1  0
 16  9  2  0
 17  8  1  0
 17 18  1  0
 19 20  2  0
 20 39  1  0
 21 20  1  0
 21 24  1  0
 22 23  1  0
 22 19  1  0
 23 21  2  0
 24 25  1  0
 25 26  2  0
 27 30  1  0
 27 26  1  0
 28 27  2  0
 29 28  1  0
 29 24  2  0
 30 31  1  0
 31 32  1  0
 32 33  2  0
 34 33  1  0
 34 38  1  0
 35 34  2  0
 36 31  2  0
 36 35  1  0
 37 36  1  0
 39 40  1  0
 40 43  1  0
 40 42  1  0
 41 39  2  0
 44 45  1  0
 44 19  1  0
 46 44  1  0
 48 47  1  0
 49 51  1  0
 51 48  1  0
 51 50  1  0
 52  4  1  0
 52 53  2  0
 56 54  1  6
 56 55  1  0
 56 53  1  0
 56 57  1  0
 58 60  1  0
 58 57  1  0
 59 70  2  0
 60 65  1  0
 61 69  1  0
 61 71  1  0
 62 68  1  0
 62 64  1  0
 63 69  1  0
 64 63  1  0
 65 64  2  0
 66 67  1  0
 66 60  2  0
 67 62  2  0
 68 61  1  0
 69 59  1  0
 71 73  2  0
 72 71  1  0
 74 72  1  0
 75 84  2  0
 75 80  1  0
 76 72  1  0
 76 80  1  0
 77 76  1  0
 78 79  1  0
 78 77  1  0
 79 75  1  0
 80 81  2  0
 81 82  1  0
 83 82  2  0
 84 83  1  0
 85 59  1  0
 85 86  1  0
 85 95  1  0
 86 89  1  0
 87 91  1  0
 87 86  1  0
 88 87  2  0
 91 90  1  0
 93 91  1  0
 93 94  1  0
 93 92  1  0
 95 98  1  1
 95 96  1  0
 97 95  1  0
M  ISO  4   9 100  17 100  57 101  58 101
M  END
>  <TORSDO>  (53) 
F 24

>  <SCORE>  (53) 
-11.603

>  <name>  (53) 
55

>  <ligand_id>  (53) 
55

>  <original_smiles>  (53) 
[H]c1c([H])c([H])c2c(c1[H])C([H])([H])C([H])([H])C([H])([H])C2([H])N([H])C(=O)C1([H])N(C(=O)C([H])(N([H])C(=O)C([H])(N([H])C([H])([H])[H])C([H])([H])[H])C(C([H])([H])[H])(C([H])([H])[H])C([H])([H])[H])C([H])([H])c2c([H])c(OC([H])([H])C(C([H])([H])[H])(C([H])([H])[H])C([H])([H])C([H])([H])n3c([H])c(C([H])(N([H])C(=O)N4C([H])([H])C([H])([H])C([H])([H])C([H])(n5nc(-c6c([H])c([H])c(Oc7c([H])c([H])c(F)c([H])c7F)c([H])c6[H])c(C(=O)N([H])[H])c5N([H])[H])C4([H])[H])C([H])([H])[H])[n+]([H])c3C([H])([H])C([H])([H])C([H])(C([H])([H])[H])C([H])([H])[H])c([H])c([H])c2C1([H])[H]

>  <smiles>  (53) 
[H]c1c([H])c([H])c2c(c1[H])C([H])([H])C([H])([H])C([H])([H])C2([H])N([H])C(=O)C1([H])N(C(=O)C([H])(N([H])C(=O)C([H])(N([H])C([H])([H])[H])C([H])([H])[H])C(C([H])([H])[H])(C([H])([H])[H])C([H])([H])[H])C([H])([H])c2c([H])c(OC([H])([H])C(C([H])([H])[H])(C([H])([H])[H])C([H])([H])C([H])([H])n3c([H])c(C([H])(N([H])C(=O)N4C([H])([H])C([H])([H])C([H])([H])C([H])(n5nc(-c6c([H])c([H])c(Oc7c([H])c([H])c(F)c([H])c7F)c([H])c6[H])c(C(=O)N([H])[H])c5N([H])[H])C4([H])[H])C([H])([H])[H])[n+]([H])c3C([H])([H])C([H])([H])C([H])(C([H])([H])[H])C([H])([H])[H])c([H])c([H])c2C1([H])[H]

$$$$
56:0:0
     RDKit          3D

 91 99  0  0  1  0  0  0  0  0999 V2000
  -29.0070  -20.2000   20.4050 C   0  0  0  0  0  3  0  0  0  0  0  0
  -29.5320  -21.4560   20.2200 C   0  0  0  0  0  0  0  0  0  0  0  0
  -30.8900  -21.2870   20.6300 C   0  0  0  0  0  0  0  0  0  0  0  0
  -31.9800  -22.3200   20.6700 C   0  0  0  0  0  1  0  0  0  0  0  0
  -31.1590  -20.0370   21.0090 N   0  0  0  0  0  0  0  0  0  0  0  0
  -29.9970  -19.3520   20.8690 N   0  0  0  0  0  0  0  0  0  0  0  0
  -30.2110  -17.7410   22.7420 C   0  0  0  0  0  1  0  0  0  0  0  0
  -29.8730  -17.9310   21.2540 C   0  0  0  0  0  3  0  0  0  0  0  0
  -30.6810  -16.9480   20.3550 C   0  0  0  0  0  2  0  0  0  0  0  0
  -30.8920  -14.4870   19.9280 C   0  0  0  0  0  0  0  0  0  0  0  0
  -30.4870  -12.3310   18.8000 C   0  0  0  0  0  2  0  0  0  0  0  0
  -29.4920  -12.5510   17.6430 C   0  0  0  0  0  2  0  0  0  0  0  0
  -28.0400  -12.4350   18.1440 C   0  0  0  0  0  2  0  0  0  0  0  0
  -27.7790  -13.2790   19.4210 C   0  0  0  0  0  3  0  0  0  0  0  0
  -28.8840  -13.0530   20.4780 C   0  0  0  0  0  2  0  0  0  0  0  0
  -30.1860  -13.3260   19.8440 N   0  0  0  0  0  0  0  0  0  0  0  0
  -31.9860  -14.6430   19.3800 O   0  0  0  0  0  0  0  0  0  0  0  0
  -30.2600  -15.5340   20.4940 N   0  0  0  0  0  0  0  0  0  0  0  0
  -29.3670  -15.3510   20.9250 H   0  0  0  0  0  0  0  0  0  0  0  0
  -25.4200  -13.9230   20.2240 C   0  0  0  0  0  0  0  0  0  0  0  0
  -24.3620  -13.1690   20.6570 C   0  0  0  0  0  0  0  0  0  0  0  0
  -24.8090  -11.8120   20.6320 C   0  0  0  0  0  0  0  0  0  0  0  0
  -26.4450  -13.0270   19.9640 N   0  0  0  0  0  0  0  0  0  0  0  0
  -26.0830  -11.7530   20.2640 N   0  0  0  0  0  0  0  0  0  0  0  0
  -24.0800  -10.5610   20.8770 C   0  0  0  0  0  0  0  0  0  0  0  0
  -24.5020   -9.6410   21.8610 C   0  0  0  0  0  3  0  0  0  0  0  0
  -23.7730   -8.4550   22.0910 C   0  0  0  0  0  3  0  0  0  0  0  0
  -22.6070   -8.1790   21.3380 C   0  0  0  0  0  0  0  0  0  0  0  0
  -22.2040   -9.0870   20.3430 C   0  0  0  0  0  3  0  0  0  0  0  0
  -22.9340  -10.2660   20.1110 C   0  0  0  0  0  3  0  0  0  0  0  0
  -21.8510   -7.0390   21.4740 O   0  0  0  0  0  0  0  0  0  0  0  0
  -21.7280   -6.3980   22.6810 C   0  0  0  0  0  0  0  0  0  0  0  0
  -21.2250   -7.0540   23.8260 C   0  0  0  0  0  3  0  0  0  0  0  0
  -21.0490   -6.3390   25.0270 C   0  0  0  0  0  3  0  0  0  0  0  0
  -21.3650   -4.9680   25.0830 C   0  0  0  0  0  0  0  0  0  0  0  0
  -21.8600   -4.3120   23.9420 C   0  0  0  0  0  3  0  0  0  0  0  0
  -22.0370   -5.0250   22.7440 C   0  0  0  0  0  0  0  0  0  0  0  0
  -22.4940   -4.3830   21.6420 F   0  0  0  0  0  0  0  0  0  0  0  0
  -21.1900   -4.2770   26.2340 F   0  0  0  0  0  0  0  0  0  0  0  0
  -22.9830  -13.6650   20.9860 C   0  0  0  0  0  0  0  0  0  0  0  0
  -22.2960  -13.0030   21.9110 N   0  0  0  0  0  0  0  0  0  0  0  0
  -22.5260  -14.6780   20.4570 O   0  0  0  0  0  0  0  0  0  0  0  0
  -22.6790  -12.1850   22.3610 H   0  0  0  0  0  0  0  0  0  0  0  0
  -21.3740  -13.3210   22.1730 H   0  0  0  0  0  0  0  0  0  0  0  0
  -25.5900  -15.2870   20.0090 N   0  0  0  0  0  0  0  0  0  0  0  0
  -24.8330  -15.9510   20.1270 H   0  0  0  0  0  0  0  0  0  0  0  0
  -26.4250  -15.7050   19.6170 H   0  0  0  0  0  0  0  0  0  0  0  0
  -28.7870  -22.6710   19.6610 C   0  0  0  0  0  2  0  0  0  0  0  0
  -29.1240  -24.0980   20.2010 C   0  0  0  0  0  2  0  0  0  0  0  0
  -28.0470  -25.1140   19.7270 C   0  0  0  0  0  2  0  0  0  0  0  0
  -28.2220  -26.5210   20.0380 O   0  0  0  0  0  0  0  0  0  0  0  0
  -24.5050  -31.7740   23.1460 C   0  0  0  0  0  0  0  0  0  0  0  0
  -27.0770  -27.3130   19.9940 C   0  0  0  0  0  0  0  0  0  0  0  0
  -23.2740  -30.3920   21.5130 C   0  0  0  0  0  3  0  0  0  0  0  0
  -24.6990  -28.8700   20.0480 C   0  0  0  0  0  0  0  0  0  0  0  0
  -25.8020  -30.7330   21.2870 C   0  0  0  0  0  2  0  0  0  0  0  0
  -25.8720  -29.3670   20.6300 C   0  0  0  0  0  0  0  0  0  0  0  0
  -27.0610  -28.5930   20.6050 C   0  0  0  0  0  3  0  0  0  0  0  0
  -25.8830  -26.8670   19.3720 C   0  0  0  0  0  3  0  0  0  0  0  0
  -24.7020  -27.6220   19.4140 C   0  0  0  0  0  3  0  0  0  0  0  0
  -23.4610  -29.7330   20.1220 C   0  0  0  0  0  2  0  0  0  0  0  0
  -24.5470  -30.9810   22.0390 N   0  0  0  0  0  0  0  0  0  0  0  0
  -23.4330  -32.0440   23.7040 O   0  0  0  0  0  0  0  0  0  0  0  0
  -22.6350  -29.3600   22.4720 C   0  0  0  0  0  0  0  0  0  0  0  0
  -21.3150  -29.1490   22.3360 N   0  0  0  0  0  0  0  0  0  0  0  0
  -23.3240  -28.7540   23.2970 O   0  0  0  0  0  0  0  0  0  0  0  0
  -20.8180  -29.6900   21.6420 H   0  0  0  0  0  0  0  0  0  0  0  0
  -17.9720  -27.8510   22.7840 C   0  0  0  0  0  0  0  0  0  0  0  0
  -20.5120  -28.2000   23.1080 C   0  0  0  0  0  3  0  0  0  0  0  0
  -20.6770  -26.7610   22.5660 C   0  0  0  0  0  2  0  0  0  0  0  0
  -19.6100  -26.3810   21.5350 C   0  0  0  0  0  2  0  0  0  0  0  0
  -18.2090  -26.4930   22.1430 C   0  0  0  0  0  2  0  0  0  0  0  0
  -19.0540  -28.6580   23.2240 C   0  0  0  0  0  0  0  0  0  0  0  0
  -18.7780  -29.9260   23.7820 C   0  0  0  0  0  3  0  0  0  0  0  0
  -17.4540  -30.3860   23.9070 C   0  0  0  0  0  3  0  0  0  0  0  0
  -16.3860  -29.5760   23.4830 C   0  0  0  0  0  3  0  0  0  0  0  0
  -16.6450  -28.3110   22.9270 C   0  0  0  0  0  3  0  0  0  0  0  0
  -25.8010  -32.4000   23.7490 C   0  0  0  0  0  3  0  0  0  0  0  0
  -25.4930  -33.7910   24.1100 N   0  0  0  0  0  0  0  0  0  0  0  0
  -25.8050  -34.8570   23.3600 C   0  0  0  0  0  0  0  0  0  0  0  0
  -26.4550  -34.7740   22.3140 O   0  0  0  0  0  0  0  0  0  0  0  0
  -24.9160  -33.9300   24.9250 H   0  0  0  0  0  0  0  0  0  0  0  0
  -24.0640  -36.6480   23.0700 C   0  0  0  0  0  1  0  0  0  0  0  0
  -25.3210  -36.2350   23.8510 C   0  0  0  0  0  3  0  0  0  0  0  0
  -27.4670  -37.1140   24.6570 C   0  0  0  0  0  1  0  0  0  0  0  0
  -26.3470  -37.2930   23.7370 N   0  0  0  0  0  0  0  0  0  0  0  0
  -25.9400  -38.2090   23.9100 H   0  0  0  0  0  0  0  0  0  0  0  0
  -26.3490  -31.6090   25.0000 C   0  0  1  0  0  0  0  0  0  0  0  0
  -25.2790  -31.3470   26.0850 C   0  0  0  0  0  1  0  0  0  0  0  0
  -26.9290  -30.2420   24.5710 C   0  0  0  0  0  1  0  0  0  0  0  0
  -27.5090  -32.3970   25.6510 C   0  0  0  0  0  1  0  0  0  0  0  0
  1  6  1  0
  2  1  2  0
  2  3  1  0
  3  4  1  0
  3  5  2  0
  6  5  1  0
  6  8  1  0
  8  7  1  0
  9 18  1  0
  9  8  1  0
 10 18  1  0
 11 16  1  0
 12 13  1  0
 12 11  1  0
 14 13  1  0
 14 23  1  0
 14 15  1  0
 16 10  1  0
 16 15  1  0
 17 10  2  0
 18 19  1  0
 20 21  2  0
 21 40  1  0
 22 21  1  0
 22 25  1  0
 23 20  1  0
 23 24  1  0
 24 22  2  0
 25 26  1  0
 26 27  2  0
 28 31  1  0
 28 27  1  0
 29 28  2  0
 30 29  1  0
 30 25  2  0
 31 32  1  0
 32 37  2  0
 32 33  1  0
 33 34  2  0
 34 35  1  0
 35 39  1  0
 36 35  2  0
 37 36  1  0
 38 37  1  0
 40 41  1  0
 41 44  1  0
 41 43  1  0
 42 40  2  0
 45 46  1  0
 45 20  1  0
 47 45  1  0
 48 49  1  0
 48  2  1  0
 50 51  1  0
 50 49  1  0
 52 63  2  0
 53 51  1  0
 53 58  1  0
 54 62  1  0
 54 64  1  0
 55 61  1  0
 55 57  1  0
 56 62  1  0
 57 56  1  0
 58 57  2  0
 59 60  1  0
 59 53  2  0
 60 55  2  0
 61 54  1  0
 62 52  1  0
 64 66  2  0
 65 64  1  0
 67 65  1  0
 68 77  2  0
 68 73  1  0
 69 65  1  0
 69 73  1  0
 70 69  1  0
 71 72  1  0
 71 70  1  0
 72 68  1  0
 73 74  2  0
 74 75  1  0
 76 75  2  0
 77 76  1  0
 78 52  1  0
 78 79  1  0
 78 88  1  0
 79 82  1  0
 80 84  1  0
 80 79  1  0
 81 80  2  0
 84 83  1  0
 86 84  1  0
 86 87  1  0
 86 85  1  0
 88 91  1  1
 88 89  1  0
 90 88  1  0
M  ISO  4  10 100  18 100  50 101  51 101
M  END
>  <TORSDO>  (54) 
F 21

>  <SCORE>  (54) 
-12.520

>  <name>  (54) 
56

>  <ligand_id>  (54) 
56

>  <original_smiles>  (54) 
[H]c1c([H])c([H])c2c(c1[H])C([H])([H])C([H])([H])C([H])([H])C2([H])N([H])C(=O)C1([H])N(C(=O)C([H])(N([H])C(=O)C([H])(N([H])C([H])([H])[H])C([H])([H])[H])C(C([H])([H])[H])(C([H])([H])[H])C([H])([H])[H])C([H])([H])c2c([H])c(OC([H])([H])C([H])([H])C([H])([H])c3c(C([H])([H])[H])nn(C([H])(C([H])([H])[H])C([H])([H])N([H])C(=O)N4C([H])([H])C([H])([H])C([H])([H])C([H])(n5nc(-c6c([H])c([H])c(Oc7c([H])c([H])c(F)c([H])c7F)c([H])c6[H])c(C(=O)N([H])[H])c5N([H])[H])C4([H])[H])c3[H])c([H])c([H])c2C1([H])[H]

>  <smiles>  (54) 
[H]c1c([H])c([H])c2c(c1[H])C([H])([H])C([H])([H])C([H])([H])C2([H])N([H])C(=O)C1([H])N(C(=O)C([H])(N([H])C(=O)C([H])(N([H])C([H])([H])[H])C([H])([H])[H])C(C([H])([H])[H])(C([H])([H])[H])C([H])([H])[H])C([H])([H])c2c([H])c(OC([H])([H])C([H])([H])C([H])([H])c3c(C([H])([H])[H])nn(C([H])(C([H])([H])[H])C([H])([H])N([H])C(=O)N4C([H])([H])C([H])([H])C([H])([H])C([H])(n5nc(-c6c([H])c([H])c(Oc7c([H])c([H])c(F)c([H])c7F)c([H])c6[H])c(C(=O)N([H])[H])c5N([H])[H])C4([H])[H])c3[H])c([H])c([H])c2C1([H])[H]

$$$$
57:0:0
     RDKit          3D

 91 99  0  0  1  0  0  0  0  0999 V2000
  -30.0490  -19.7610   20.4390 C   0  0  0  0  0  3  0  0  0  0  0  0
  -30.1250  -18.4550   19.9710 C   0  0  0  0  0  0  0  0  0  0  0  0
  -28.9050  -19.6960   18.5490 C   0  0  0  0  0  3  0  0  0  0  0  0
  -28.1170  -20.0520   17.3270 C   0  0  0  0  0  1  0  0  0  0  0  0
  -29.2910  -20.5110   19.5550 N   0  0  0  0  0  0  0  0  0  0  0  0
  -29.3840  -18.4670   18.8140 N   0  0  0  0  0  0  0  0  0  0  0  0
  -29.2210  -17.6640   18.2190 H   0  0  0  0  0  0  0  0  0  0  0  0
  -30.8780  -17.2160   20.4880 C   0  0  0  0  0  2  0  0  0  0  0  0
  -30.8050  -14.7070   20.1610 C   0  0  0  0  0  0  0  0  0  0  0  0
  -30.5020  -12.5160   18.9960 C   0  0  0  0  0  2  0  0  0  0  0  0
  -29.4790  -12.6250   17.8410 C   0  0  0  0  0  2  0  0  0  0  0  0
  -28.0420  -12.4170   18.3590 C   0  0  0  0  0  2  0  0  0  0  0  0
  -27.7510  -13.2720   19.6170 C   0  0  0  0  0  3  0  0  0  0  0  0
  -28.8790  -13.0750   20.6550 C   0  0  0  0  0  2  0  0  0  0  0  0
  -30.1250  -13.5160   20.0260 N   0  0  0  0  0  0  0  0  0  0  0  0
  -31.9620  -14.7680   19.7350 O   0  0  0  0  0  0  0  0  0  0  0  0
  -28.8690  -16.0750   21.2140 C   0  0  0  0  0  1  0  0  0  0  0  0
  -30.1670  -15.8910   20.5340 N   0  0  0  0  0  0  0  0  0  0  0  0
  -25.4080  -13.8850   20.4920 C   0  0  0  0  0  0  0  0  0  0  0  0
  -24.3620  -13.0990   20.9060 C   0  0  0  0  0  0  0  0  0  0  0  0
  -24.8200  -11.7540   20.8050 C   0  0  0  0  0  0  0  0  0  0  0  0
  -26.4350  -13.0060   20.1790 N   0  0  0  0  0  0  0  0  0  0  0  0
  -26.0910  -11.7210   20.4310 N   0  0  0  0  0  0  0  0  0  0  0  0
  -24.1010  -10.4890   20.9960 C   0  0  0  0  0  0  0  0  0  0  0  0
  -24.5370   -9.5240   21.9290 C   0  0  0  0  0  3  0  0  0  0  0  0
  -23.8210   -8.3210   22.1020 C   0  0  0  0  0  3  0  0  0  0  0  0
  -22.6520   -8.0740   21.3450 C   0  0  0  0  0  0  0  0  0  0  0  0
  -22.2350   -9.0270   20.4000 C   0  0  0  0  0  3  0  0  0  0  0  0
  -22.9510  -10.2230   20.2250 C   0  0  0  0  0  3  0  0  0  0  0  0
  -21.9060   -6.9230   21.4240 O   0  0  0  0  0  0  0  0  0  0  0  0
  -21.8120   -6.2190   22.5940 C   0  0  0  0  0  0  0  0  0  0  0  0
  -21.2570   -6.7820   23.7630 C   0  0  0  0  0  3  0  0  0  0  0  0
  -21.1140   -5.9950   24.9230 C   0  0  0  0  0  3  0  0  0  0  0  0
  -21.5120   -4.6450   24.9140 C   0  0  0  0  0  0  0  0  0  0  0  0
  -22.0640   -4.0860   23.7510 C   0  0  0  0  0  3  0  0  0  0  0  0
  -22.2090   -4.8690   22.5940 C   0  0  0  0  0  0  0  0  0  0  0  0
  -22.7170   -4.3160   21.4660 F   0  0  0  0  0  0  0  0  0  0  0  0
  -21.3700   -3.8830   26.0300 F   0  0  0  0  0  0  0  0  0  0  0  0
  -22.9820  -13.5660   21.2660 C   0  0  0  0  0  0  0  0  0  0  0  0
  -22.3000  -12.8360   22.1470 N   0  0  0  0  0  0  0  0  0  0  0  0
  -22.5220  -14.6070   20.8060 O   0  0  0  0  0  0  0  0  0  0  0  0
  -22.6840  -11.9860   22.5320 H   0  0  0  0  0  0  0  0  0  0  0  0
  -21.3780  -13.1310   22.4390 H   0  0  0  0  0  0  0  0  0  0  0  0
  -25.5400  -15.2580   20.3410 N   0  0  0  0  0  0  0  0  0  0  0  0
  -24.7590  -15.8740   20.5410 H   0  0  0  0  0  0  0  0  0  0  0  0
  -26.3450  -15.7470   19.9710 H   0  0  0  0  0  0  0  0  0  0  0  0
  -28.9530  -21.9880   19.5660 C   0  0  0  0  0  3  0  0  0  0  0  0
  -29.0570  -22.7500   20.9430 C   0  0  0  0  0  3  0  0  0  0  0  0
  -28.3990  -24.1850   21.1020 C   0  0  0  0  0  2  0  0  0  0  0  0
  -28.6570  -25.2860   20.0110 C   0  0  0  0  0  2  0  0  0  0  0  0
  -28.5110  -26.6770   20.4400 O   0  0  0  0  0  0  0  0  0  0  0  0
  -24.6090  -31.9750   23.2640 C   0  0  0  0  0  0  0  0  0  0  0  0
  -27.3230  -27.3990   20.3630 C   0  0  0  0  0  0  0  0  0  0  0  0
  -23.4380  -30.5180   21.6470 C   0  0  0  0  0  3  0  0  0  0  0  0
  -24.9200  -28.9380   20.2870 C   0  0  0  0  0  0  0  0  0  0  0  0
  -25.9690  -30.8650   21.4840 C   0  0  0  0  0  2  0  0  0  0  0  0
  -26.0690  -29.4730   20.8810 C   0  0  0  0  0  0  0  0  0  0  0  0
  -27.2670  -28.7100   20.9130 C   0  0  0  0  0  3  0  0  0  0  0  0
  -26.1510  -26.8960   19.7490 C   0  0  0  0  0  3  0  0  0  0  0  0
  -24.9610  -27.6540   19.7160 C   0  0  0  0  0  3  0  0  0  0  0  0
  -23.6670  -29.7890   20.2960 C   0  0  0  0  0  2  0  0  0  0  0  0
  -24.6900  -31.1390   22.1890 N   0  0  0  0  0  0  0  0  0  0  0  0
  -23.5150  -32.2580   23.7750 O   0  0  0  0  0  0  0  0  0  0  0  0
  -22.7740  -29.5250   22.6280 C   0  0  0  0  0  0  0  0  0  0  0  0
  -21.4530  -29.3270   22.4770 N   0  0  0  0  0  0  0  0  0  0  0  0
  -23.4430  -28.9330   23.4780 O   0  0  0  0  0  0  0  0  0  0  0  0
  -20.9740  -29.8480   21.7570 H   0  0  0  0  0  0  0  0  0  0  0  0
  -18.0730  -28.1620   22.9840 C   0  0  0  0  0  0  0  0  0  0  0  0
  -20.6300  -28.4050   23.2580 C   0  0  0  0  0  3  0  0  0  0  0  0
  -20.7260  -26.9690   22.6940 C   0  0  0  0  0  2  0  0  0  0  0  0
  -19.6240  -26.6430   21.6820 C   0  0  0  0  0  2  0  0  0  0  0  0
  -18.2430  -26.8050   22.3210 C   0  0  0  0  0  2  0  0  0  0  0  0
  -19.1950  -28.9230   23.4060 C   0  0  0  0  0  0  0  0  0  0  0  0
  -18.9850  -30.1960   23.9800 C   0  0  0  0  0  3  0  0  0  0  0  0
  -17.6830  -30.7080   24.1390 C   0  0  0  0  0  3  0  0  0  0  0  0
  -16.5750  -29.9430   23.7370 C   0  0  0  0  0  3  0  0  0  0  0  0
  -16.7710  -28.6730   23.1650 C   0  0  0  0  0  3  0  0  0  0  0  0
  -25.8780  -32.6310   23.8910 C   0  0  0  0  0  3  0  0  0  0  0  0
  -25.5540  -34.0320   24.1970 N   0  0  0  0  0  0  0  0  0  0  0  0
  -25.8860  -35.0740   23.4240 C   0  0  0  0  0  0  0  0  0  0  0  0
  -26.5650  -34.9610   22.4010 O   0  0  0  0  0  0  0  0  0  0  0  0
  -24.9560  -34.1960   24.9940 H   0  0  0  0  0  0  0  0  0  0  0  0
  -24.1550  -36.8470   23.0070 C   0  0  0  0  0  1  0  0  0  0  0  0
  -25.3800  -36.4650   23.8550 C   0  0  0  0  0  3  0  0  0  0  0  0
  -27.4830  -37.3760   24.7380 C   0  0  0  0  0  1  0  0  0  0  0  0
  -26.4130  -37.5210   23.7540 N   0  0  0  0  0  0  0  0  0  0  0  0
  -25.9980  -38.4430   23.8690 H   0  0  0  0  0  0  0  0  0  0  0  0
  -26.3920  -31.8860   25.1830 C   0  0  1  0  0  0  0  0  0  0  0  0
  -25.2860  -31.6330   26.2360 C   0  0  0  0  0  1  0  0  0  0  0  0
  -27.0130  -30.5210   24.8140 C   0  0  0  0  0  1  0  0  0  0  0  0
  -27.5160  -32.7140   25.8510 C   0  0  0  0  0  1  0  0  0  0  0  0
  2  1  2  0
  2  8  1  0
  3  4  1  0
  3  6  1  0
  3  5  1  0
  5 47  1  0
  5  1  1  0
  6  2  1  0
  7  6  1  0
  8 18  1  0
  9 18  1  0
 10 15  1  0
 11 12  1  0
 11 10  1  0
 13 12  1  0
 13 22  1  0
 13 14  1  0
 15  9  1  0
 15 14  1  0
 16  9  2  0
 18 17  1  0
 19 20  2  0
 20 39  1  0
 21 20  1  0
 21 24  1  0
 22 23  1  0
 22 19  1  0
 23 21  2  0
 24 25  1  0
 25 26  2  0
 27 30  1  0
 27 26  1  0
 28 27  2  0
 29 28  1  0
 29 24  2  0
 30 31  1  0
 31 32  1  0
 32 33  2  0
 34 33  1  0
 34 38  1  0
 35 34  2  0
 36 31  2  0
 36 35  1  0
 37 36  1  0
 39 40  1  0
 40 43  1  0
 40 42  1  0
 41 39  2  0
 44 19  1  0
 44 45  1  0
 46 44  1  0
 47 48  2  0
 48 49  1  0
 50 51  1  0
 50 49  1  0
 52 63  2  0
 53 51  1  0
 53 58  1  0
 54 62  1  0
 54 64  1  0
 55 61  1  0
 55 57  1  0
 56 62  1  0
 57 58  2  0
 57 56  1  0
 59 53  2  0
 60 59  1  0
 60 55  2  0
 61 54  1  0
 62 52  1  0
 64 66  2  0
 65 64  1  0
 67 65  1  0
 68 77  2  0
 68 73  1  0
 69 65  1  0
 69 73  1  0
 70 69  1  0
 71 72  1  0
 71 70  1  0
 72 68  1  0
 73 74  2  0
 74 75  1  0
 76 75  2  0
 77 76  1  0
 78 52  1  0
 78 79  1  0
 78 88  1  0
 79 82  1  0
 80 84  1  0
 80 79  1  0
 81 80  2  0
 84 83  1  0
 86 84  1  0
 86 87  1  0
 86 85  1  0
 88 91  1  1
 88 89  1  0
 90 88  1  0
M  ISO  4   9 100  18 100  50 101  51 101
M  END
>  <TORSDO>  (55) 
F 21

>  <SCORE>  (55) 
-13.217

>  <name>  (55) 
57

>  <ligand_id>  (55) 
57

>  <original_smiles>  (55) 
[H]c1c([H])c([H])c2c(c1[H])C([H])([H])C([H])([H])C([H])([H])C2([H])N([H])C(=O)C1([H])N(C(=O)C([H])(N([H])C(=O)C([H])(N([H])C([H])([H])[H])C([H])([H])[H])C(C([H])([H])[H])(C([H])([H])[H])C([H])([H])[H])C([H])([H])c2c([H])c(OC([H])([H])C([H])([H])C([H])([H])C([H])([H])n3c([H])c(C([H])([H])N(C(=O)N4C([H])([H])C([H])([H])C([H])([H])C([H])(n5nc(-c6c([H])c([H])c(Oc7c([H])c([H])c(F)c([H])c7F)c([H])c6[H])c(C(=O)N([H])[H])c5N([H])[H])C4([H])[H])C([H])([H])[H])[n+]([H])c3C([H])([H])[H])c([H])c([H])c2C1([H])[H]

>  <smiles>  (55) 
[H]c1c([H])c([H])c2c(c1[H])C([H])([H])C([H])([H])C([H])([H])C2([H])N([H])C(=O)C1([H])N(C(=O)C([H])(N([H])C(=O)C([H])(N([H])C([H])([H])[H])C([H])([H])[H])C(C([H])([H])[H])(C([H])([H])[H])C([H])([H])[H])C([H])([H])c2c([H])c(OC([H])([H])C([H])([H])C([H])([H])C([H])([H])n3c([H])c(C([H])([H])N(C(=O)N4C([H])([H])C([H])([H])C([H])([H])C([H])(n5nc(-c6c([H])c([H])c(Oc7c([H])c([H])c(F)c([H])c7F)c([H])c6[H])c(C(=O)N([H])[H])c5N([H])[H])C4([H])[H])C([H])([H])[H])[n+]([H])c3C([H])([H])[H])c([H])c([H])c2C1([H])[H]

$$$$
58:0:0
     RDKit          3D

 96104  0  0  1  0  0  0  0  0999 V2000
  -29.9660  -19.0240   19.6640 C   0  0  0  0  0  3  0  0  0  0  0  0
  -28.8610  -19.8250   19.2920 C   0  0  0  0  0  0  0  0  0  0  0  0
  -27.6170  -19.1750   19.0820 C   0  0  0  0  0  0  0  0  0  0  0  0
  -29.8000  -17.6380   19.8890 C   0  0  0  0  0  0  0  0  0  0  0  0
  -27.5350  -17.7800   19.3420 C   0  0  0  0  0  0  0  0  0  0  0  0
  -26.4020  -19.9460   18.5540 C   0  0  0  0  0  1  0  0  0  0  0  0
  -28.5970  -17.0430   19.7430 N   0  0  0  0  0  0  0  0  0  0  0  0
  -25.2640  -17.1720   20.4160 C   0  0  0  0  0  1  0  0  0  0  0  0
  -26.2340  -16.9890   19.2290 C   0  0  0  0  0  2  0  0  0  0  0  0
  -29.0030  -21.3490   19.1440 C   0  0  0  0  0  2  0  0  0  0  0  0
  -28.9000  -22.1080   20.4960 C   0  0  0  0  0  2  0  0  0  0  0  0
  -28.7740  -23.5860   20.3170 N   0  0  0  0  0  4  0  0  0  0  0  0
  -27.7880  -23.7980   20.2810 H   0  0  0  0  0  0  0  0  0  0  0  0
  -29.1680  -23.8650   19.4300 H   0  0  0  0  0  0  0  0  0  0  0  0
  -29.3890  -24.4470   21.3670 C   0  0  0  0  0  2  0  0  0  0  0  0
  -28.6660  -25.8120   21.5210 C   0  0  0  0  0  2  0  0  0  0  0  0
  -28.2600  -26.3240   20.2490 O   0  0  0  0  0  0  0  0  0  0  0  0
  -24.5230  -31.6640   23.2090 C   0  0  0  0  0  0  0  0  0  0  0  0
  -27.1370  -27.1230   20.2610 C   0  0  0  0  0  0  0  0  0  0  0  0
  -23.3190  -30.2640   21.5600 C   0  0  0  0  0  3  0  0  0  0  0  0
  -24.7700  -28.6670   20.1970 C   0  0  0  0  0  0  0  0  0  0  0  0
  -25.8540  -30.5600   21.4190 C   0  0  0  0  0  2  0  0  0  0  0  0
  -25.9230  -29.1760   20.8110 C   0  0  0  0  0  0  0  0  0  0  0  0
  -27.1070  -28.4060   20.8530 C   0  0  0  0  0  3  0  0  0  0  0  0
  -25.9780  -26.6330   19.6270 C   0  0  0  0  0  3  0  0  0  0  0  0
  -24.7900  -27.3920   19.6060 C   0  0  0  0  0  3  0  0  0  0  0  0
  -23.5430  -29.5530   20.1990 C   0  0  0  0  0  2  0  0  0  0  0  0
  -24.5800  -30.8450   22.1210 N   0  0  0  0  0  0  0  0  0  0  0  0
  -23.4370  -31.9720   23.7210 O   0  0  0  0  0  0  0  0  0  0  0  0
  -22.6180  -29.2760   22.5220 C   0  0  0  0  0  0  0  0  0  0  0  0
  -21.2920  -29.1270   22.3660 N   0  0  0  0  0  0  0  0  0  0  0  0
  -23.2660  -28.6470   23.3610 O   0  0  0  0  0  0  0  0  0  0  0  0
  -20.8330  -29.6860   21.6600 H   0  0  0  0  0  0  0  0  0  0  0  0
  -17.8690  -28.0740   22.8390 C   0  0  0  0  0  0  0  0  0  0  0  0
  -20.4320  -28.2250   23.1310 C   0  0  0  0  0  3  0  0  0  0  0  0
  -20.4790  -26.7900   22.5580 C   0  0  0  0  0  2  0  0  0  0  0  0
  -19.3720  -26.5140   21.5340 C   0  0  0  0  0  2  0  0  0  0  0  0
  -17.9920  -26.7190   22.1680 C   0  0  0  0  0  2  0  0  0  0  0  0
  -19.0150  -28.7900   23.2770 C   0  0  0  0  0  0  0  0  0  0  0  0
  -18.8460  -30.0640   23.8620 C   0  0  0  0  0  3  0  0  0  0  0  0
  -17.5620  -30.6210   24.0160 C   0  0  0  0  0  3  0  0  0  0  0  0
  -16.4290  -29.9000   23.5970 C   0  0  0  0  0  3  0  0  0  0  0  0
  -16.5830  -28.6290   23.0150 C   0  0  0  0  0  3  0  0  0  0  0  0
  -25.8110  -32.2710   23.8480 C   0  0  0  0  0  3  0  0  0  0  0  0
  -25.5260  -33.6750   24.1710 N   0  0  0  0  0  0  0  0  0  0  0  0
  -25.8840  -34.7170   23.4100 C   0  0  0  0  0  0  0  0  0  0  0  0
  -26.5600  -34.5980   22.3840 O   0  0  0  0  0  0  0  0  0  0  0  0
  -24.9270  -33.8420   24.9670 H   0  0  0  0  0  0  0  0  0  0  0  0
  -24.1800  -36.5300   23.0470 C   0  0  0  0  0  1  0  0  0  0  0  0
  -25.4170  -36.1150   23.8600 C   0  0  0  0  0  3  0  0  0  0  0  0
  -27.5680  -36.9670   24.6820 C   0  0  0  0  0  1  0  0  0  0  0  0
  -26.4640  -37.1520   23.7440 N   0  0  0  0  0  0  0  0  0  0  0  0
  -26.0720  -38.0780   23.8970 H   0  0  0  0  0  0  0  0  0  0  0  0
  -26.3000  -31.4900   25.1290 C   0  0  1  0  0  0  0  0  0  0  0  0
  -25.1830  -31.2530   26.1740 C   0  0  0  0  0  1  0  0  0  0  0  0
  -26.8840  -30.1110   24.7400 C   0  0  0  0  0  1  0  0  0  0  0  0
  -27.4400  -32.2750   25.8190 C   0  0  0  0  0  1  0  0  0  0  0  0
  -30.9670  -16.7910   20.4260 C   0  0  0  0  0  2  0  0  0  0  0  0
  -31.1410  -14.3770   20.0440 C   0  0  0  0  0  0  0  0  0  0  0  0
  -30.6600  -12.2080   18.9540 C   0  0  0  0  0  2  0  0  0  0  0  0
  -29.6900  -12.4250   17.7760 C   0  0  0  0  0  2  0  0  0  0  0  0
  -28.2290  -12.3350   18.2690 C   0  0  0  0  0  2  0  0  0  0  0  0
  -27.9720  -13.2130   19.5230 C   0  0  0  0  0  3  0  0  0  0  0  0
  -29.0660  -13.0070   20.5950 C   0  0  0  0  0  2  0  0  0  0  0  0
  -30.3820  -13.2430   19.9700 N   0  0  0  0  0  0  0  0  0  0  0  0
  -32.1460  -14.5320   19.3410 O   0  0  0  0  0  0  0  0  0  0  0  0
  -30.8330  -15.1690   22.3000 C   0  0  0  0  0  1  0  0  0  0  0  0
  -30.7120  -15.3840   20.8480 N   0  0  0  0  0  0  0  0  0  0  0  0
  -25.6630  -13.9230   20.4210 C   0  0  0  0  0  0  0  0  0  0  0  0
  -24.5700  -13.1970   20.8140 C   0  0  0  0  0  0  0  0  0  0  0  0
  -24.9360  -11.8230   20.6710 C   0  0  0  0  0  0  0  0  0  0  0  0
  -26.6320  -12.9960   20.0680 N   0  0  0  0  0  0  0  0  0  0  0  0
  -26.2000  -11.7230   20.2710 N   0  0  0  0  0  0  0  0  0  0  0  0
  -24.1430  -10.6000   20.8370 C   0  0  0  0  0  0  0  0  0  0  0  0
  -24.5600   -9.5620   21.6990 C   0  0  0  0  0  3  0  0  0  0  0  0
  -23.7720   -8.4020   21.8560 C   0  0  0  0  0  3  0  0  0  0  0  0
  -22.5500   -8.2740   21.1530 C   0  0  0  0  0  0  0  0  0  0  0  0
  -22.1540   -9.2990   20.2780 C   0  0  0  0  0  3  0  0  0  0  0  0
  -22.9410  -10.4490   20.1180 C   0  0  0  0  0  3  0  0  0  0  0  0
  -21.7330   -7.1720   21.2240 O   0  0  0  0  0  0  0  0  0  0  0  0
  -21.6800   -6.3830   22.3450 C   0  0  0  0  0  0  0  0  0  0  0  0
  -21.3320   -6.9070   23.6110 C   0  0  0  0  0  3  0  0  0  0  0  0
  -21.2230   -6.0450   24.7210 C   0  0  0  0  0  3  0  0  0  0  0  0
  -21.4500   -4.6660   24.5700 C   0  0  0  0  0  0  0  0  0  0  0  0
  -21.7890   -4.1420   23.3080 C   0  0  0  0  0  3  0  0  0  0  0  0
  -21.9020   -5.0000   22.2000 C   0  0  0  0  0  0  0  0  0  0  0  0
  -22.2100   -4.4860   20.9840 F   0  0  0  0  0  0  0  0  0  0  0  0
  -21.3390   -3.8380   25.6350 F   0  0  0  0  0  0  0  0  0  0  0  0
  -23.2270  -13.7470   21.2080 C   0  0  0  0  0  0  0  0  0  0  0  0
  -22.5170  -13.0610   22.0970 N   0  0  0  0  0  0  0  0  0  0  0  0
  -22.8230  -14.8200   20.7620 O   0  0  0  0  0  0  0  0  0  0  0  0
  -22.8620  -12.1970   22.4870 H   0  0  0  0  0  0  0  0  0  0  0  0
  -21.6130  -13.4090   22.3890 H   0  0  0  0  0  0  0  0  0  0  0  0
  -25.9060  -15.2890   20.3200 N   0  0  0  0  0  0  0  0  0  0  0  0
  -25.1980  -15.9770   20.5520 H   0  0  0  0  0  0  0  0  0  0  0  0
  -26.7910  -15.7060   20.0580 H   0  0  0  0  0  0  0  0  0  0  0  0
  1  4  1  0
  2  1  2  0
  3  2  1  0
  3  5  2  0
  4 58  1  0
  5  7  1  0
  6  3  1  0
  7  4  2  0
  9  5  1  0
  9  8  1  0
 10  2  1  0
 10 11  1  0
 12 11  1  0
 12 15  1  0
 13 12  1  0
 14 12  1  0
 15 16  1  0
 17 19  1  0
 17 16  1  0
 18 29  2  0
 19 24  1  0
 20 28  1  0
 20 30  1  0
 21 27  1  0
 21 23  1  0
 22 28  1  0
 23 24  2  0
 23 22  1  0
 25 19  2  0
 26 25  1  0
 26 21  2  0
 27 20  1  0
 28 18  1  0
 30 32  2  0
 31 30  1  0
 33 31  1  0
 34 43  2  0
 34 39  1  0
 35 31  1  0
 35 39  1  0
 36 35  1  0
 37 38  1  0
 37 36  1  0
 38 34  1  0
 39 40  2  0
 40 41  1  0
 42 41  2  0
 43 42  1  0
 44 18  1  0
 44 45  1  0
 44 54  1  0
 45 48  1  0
 46 50  1  0
 46 45  1  0
 47 46  2  0
 50 49  1  0
 52 50  1  0
 52 53  1  0
 52 51  1  0
 54 57  1  1
 54 55  1  0
 56 54  1  0
 58 68  1  0
 59 68  1  0
 60 65  1  0
 61 62  1  0
 61 60  1  0
 63 62  1  0
 63 72  1  0
 63 64  1  0
 65 59  1  0
 65 64  1  0
 66 59  2  0
 68 67  1  0
 69 70  2  0
 70 89  1  0
 71 70  1  0
 71 74  1  0
 72 73  1  0
 72 69  1  0
 73 71  2  0
 74 75  1  0
 75 76  2  0
 77 80  1  0
 77 76  1  0
 78 77  2  0
 79 78  1  0
 79 74  2  0
 80 81  1  0
 81 82  1  0
 82 83  2  0
 84 83  1  0
 84 88  1  0
 85 84  2  0
 86 81  2  0
 86 85  1  0
 87 86  1  0
 89 90  1  0
 90 93  1  0
 90 92  1  0
 91 89  2  0
 94 69  1  0
 94 95  1  0
 96 94  1  0
M  ISO  4  16 101  17 101  59 100  68 100
M  END
>  <TORSDO>  (56) 
F 23

>  <SCORE>  (56) 
-11.442

>  <name>  (56) 
58

>  <ligand_id>  (56) 
58

>  <original_smiles>  (56) 
[H]c1c([H])c([H])c2c(c1[H])C([H])([H])C([H])([H])C([H])([H])C2([H])N([H])C(=O)C1([H])N(C(=O)C([H])(N([H])C(=O)C([H])(N([H])C([H])([H])[H])C([H])([H])[H])C(C([H])([H])[H])(C([H])([H])[H])C([H])([H])[H])C([H])([H])c2c([H])c(OC([H])([H])C([H])([H])[N+]([H])([H])C([H])([H])C([H])([H])c3c([H])c(C([H])([H])N(C(=O)N4C([H])([H])C([H])([H])C([H])([H])C([H])(n5nc(-c6c([H])c([H])c(Oc7c([H])c([H])c(F)c([H])c7F)c([H])c6[H])c(C(=O)N([H])[H])c5N([H])[H])C4([H])[H])C([H])([H])[H])nc(C([H])([H])C([H])([H])[H])c3C([H])([H])[H])c([H])c([H])c2C1([H])[H]

>  <smiles>  (56) 
[H]c1c([H])c([H])c2c(c1[H])C([H])([H])C([H])([H])C([H])([H])C2([H])N([H])C(=O)C1([H])N(C(=O)C([H])(N([H])C(=O)C([H])(N([H])C([H])([H])[H])C([H])([H])[H])C(C([H])([H])[H])(C([H])([H])[H])C([H])([H])[H])C([H])([H])c2c([H])c(OC([H])([H])C([H])([H])[N+]([H])([H])C([H])([H])C([H])([H])c3c([H])c(C([H])([H])N(C(=O)N4C([H])([H])C([H])([H])C([H])([H])C([H])(n5nc(-c6c([H])c([H])c(Oc7c([H])c([H])c(F)c([H])c7F)c([H])c6[H])c(C(=O)N([H])[H])c5N([H])[H])C4([H])[H])C([H])([H])[H])nc(C([H])([H])C([H])([H])[H])c3C([H])([H])[H])c([H])c([H])c2C1([H])[H]

$$$$
59:0:0
     RDKit          3D

 94102  0  0  1  0  0  0  0  0999 V2000
  -29.8810  -22.5670   20.2230 C   0  0  0  0  0  3  0  0  0  0  0  0
  -29.5800  -21.2280   20.0430 C   0  0  0  0  0  0  0  0  0  0  0  0
  -27.7250  -22.4470   19.7520 C   0  0  0  0  0  3  0  0  0  0  0  0
  -28.7220  -23.2960   20.0630 N   0  0  0  0  0  0  0  0  0  0  0  0
  -28.2520  -21.2140   19.7060 N   0  0  0  0  0  0  0  0  0  0  0  0
  -27.7160  -20.3830   19.4910 H   0  0  0  0  0  0  0  0  0  0  0  0
  -30.4460  -19.9870   20.1780 C   0  0  0  0  0  2  0  0  0  0  0  0
  -29.7540  -18.6510   20.6150 C   0  0  0  0  0  2  0  0  0  0  0  0
  -30.7910  -17.5100   20.8650 C   0  0  0  0  0  2  0  0  0  0  0  0
  -30.9830  -15.0350   20.7570 C   0  0  0  0  0  0  0  0  0  0  0  0
  -30.7440  -12.8530   19.6440 C   0  0  0  0  0  2  0  0  0  0  0  0
  -29.8900  -13.0480   18.3750 C   0  0  0  0  0  2  0  0  0  0  0  0
  -28.3930  -12.9110   18.7130 C   0  0  0  0  0  2  0  0  0  0  0  0
  -27.9710  -13.7540   19.9470 C   0  0  0  0  0  3  0  0  0  0  0  0
  -28.9570  -13.5730   21.1230 C   0  0  0  0  0  2  0  0  0  0  0  0
  -30.3070  -13.8610   20.6230 N   0  0  0  0  0  0  0  0  0  0  0  0
  -32.1650  -15.1520   20.4250 O   0  0  0  0  0  0  0  0  0  0  0  0
  -30.2550  -16.1360   21.0480 N   0  0  0  0  0  0  0  0  0  0  0  0
  -29.2770  -16.0170   21.2750 H   0  0  0  0  0  0  0  0  0  0  0  0
  -25.5610  -14.3520   20.6200 C   0  0  0  0  0  0  0  0  0  0  0  0
  -24.4590  -13.5800   20.8660 C   0  0  0  0  0  0  0  0  0  0  0  0
  -24.8870  -12.2240   20.7190 C   0  0  0  0  0  0  0  0  0  0  0  0
  -26.5920  -13.4690   20.3430 N   0  0  0  0  0  0  0  0  0  0  0  0
  -26.1880  -12.1780   20.4600 N   0  0  0  0  0  0  0  0  0  0  0  0
  -24.1200  -10.9720   20.7510 C   0  0  0  0  0  0  0  0  0  0  0  0
  -24.5430   -9.8650   21.5190 C   0  0  0  0  0  3  0  0  0  0  0  0
  -23.7780   -8.6790   21.5480 C   0  0  0  0  0  3  0  0  0  0  0  0
  -22.5730   -8.5920   20.8100 C   0  0  0  0  0  0  0  0  0  0  0  0
  -22.1680   -9.6900   20.0290 C   0  0  0  0  0  3  0  0  0  0  0  0
  -22.9340  -10.8670   19.9960 C   0  0  0  0  0  3  0  0  0  0  0  0
  -21.7790   -7.4720   20.7570 O   0  0  0  0  0  0  0  0  0  0  0  0
  -21.8260   -6.5110   21.7370 C   0  0  0  0  0  0  0  0  0  0  0  0
  -21.6120   -6.8220   23.0970 C   0  0  0  0  0  3  0  0  0  0  0  0
  -21.5990   -5.7950   24.0620 C   0  0  0  0  0  3  0  0  0  0  0  0
  -21.7880   -4.4560   23.6680 C   0  0  0  0  0  0  0  0  0  0  0  0
  -21.9950   -4.1430   22.3130 C   0  0  0  0  0  3  0  0  0  0  0  0
  -22.0100   -5.1690   21.3500 C   0  0  0  0  0  0  0  0  0  0  0  0
  -22.1880   -4.8580   20.0430 F   0  0  0  0  0  0  0  0  0  0  0  0
  -21.7690   -3.4670   24.5930 F   0  0  0  0  0  0  0  0  0  0  0  0
  -23.0640  -14.0700   21.1300 C   0  0  0  0  0  0  0  0  0  0  0  0
  -22.2880  -13.3260   21.9090 N   0  0  0  0  0  0  0  0  0  0  0  0
  -22.6700  -15.1460   20.6810 O   0  0  0  0  0  0  0  0  0  0  0  0
  -22.6140  -12.4520   22.2950 H   0  0  0  0  0  0  0  0  0  0  0  0
  -21.3500  -13.6330   22.1240 H   0  0  0  0  0  0  0  0  0  0  0  0
  -25.7660  -15.7310   20.5870 N   0  0  0  0  0  0  0  0  0  0  0  0
  -25.0040  -16.3870   20.7220 H   0  0  0  0  0  0  0  0  0  0  0  0
  -26.6310  -16.1800   20.3190 H   0  0  0  0  0  0  0  0  0  0  0  0
  -26.2680  -22.7500   19.5870 C   0  0  0  0  0  2  0  0  0  0  0  0
  -24.3720  -24.2750   20.3110 C   0  0  0  0  0  1  0  0  0  0  0  0
  -25.6740  -23.0140   22.0740 C   0  0  0  0  0  1  0  0  0  0  0  0
  -25.7350  -23.6880   20.6920 C   0  0  0  0  0  3  0  0  0  0  0  0
  -28.5380  -24.7650   20.2700 C   0  0  0  0  0  2  0  0  0  0  0  0
  -28.4630  -25.6070   18.9700 C   0  0  0  0  0  2  0  0  0  0  0  0
  -28.3740  -27.0370   19.2070 O   0  0  0  0  0  0  0  0  0  0  0  0
  -24.5340  -31.7310   22.9770 C   0  0  0  0  0  0  0  0  0  0  0  0
  -27.1540  -27.6900   19.3290 C   0  0  0  0  0  0  0  0  0  0  0  0
  -23.2870  -30.4370   21.2820 C   0  0  0  0  0  3  0  0  0  0  0  0
  -24.7080  -29.1080   19.6320 C   0  0  0  0  0  0  0  0  0  0  0  0
  -25.7860  -30.9170   20.9770 C   0  0  0  0  0  2  0  0  0  0  0  0
  -25.8820  -29.6160   20.2010 C   0  0  0  0  0  0  0  0  0  0  0  0
  -27.1050  -28.9150   20.0460 C   0  0  0  0  0  3  0  0  0  0  0  0
  -25.9530  -27.2130   18.7530 C   0  0  0  0  0  3  0  0  0  0  0  0
  -24.7390  -27.9060   18.9080 C   0  0  0  0  0  3  0  0  0  0  0  0
  -23.4400  -29.9080   19.8330 C   0  0  0  0  0  2  0  0  0  0  0  0
  -24.5580  -31.0370   21.8040 N   0  0  0  0  0  0  0  0  0  0  0  0
  -23.4750  -31.9020   23.5980 O   0  0  0  0  0  0  0  0  0  0  0  0
  -22.7420  -29.2950   22.1710 C   0  0  0  0  0  0  0  0  0  0  0  0
  -21.4230  -29.0590   22.0980 N   0  0  0  0  0  0  0  0  0  0  0  0
  -23.5010  -28.6320   22.8820 O   0  0  0  0  0  0  0  0  0  0  0  0
  -20.8660  -29.6500   21.4960 H   0  0  0  0  0  0  0  0  0  0  0  0
  -18.1500  -27.6210   22.6400 C   0  0  0  0  0  0  0  0  0  0  0  0
  -20.6980  -28.0120   22.8180 C   0  0  0  0  0  3  0  0  0  0  0  0
  -20.8530  -26.6440   22.1140 C   0  0  0  0  0  2  0  0  0  0  0  0
  -19.7240  -26.3420   21.1250 C   0  0  0  0  0  2  0  0  0  0  0  0
  -18.3680  -26.3490   21.8380 C   0  0  0  0  0  2  0  0  0  0  0  0
  -19.2440  -28.4100   23.0860 C   0  0  0  0  0  0  0  0  0  0  0  0
  -18.9860  -29.6020   23.7970 C   0  0  0  0  0  3  0  0  0  0  0  0
  -17.6660  -30.0130   24.0610 C   0  0  0  0  0  3  0  0  0  0  0  0
  -16.5870  -29.2230   23.6300 C   0  0  0  0  0  3  0  0  0  0  0  0
  -16.8300  -28.0260   22.9310 C   0  0  0  0  0  3  0  0  0  0  0  0
  -25.8270  -32.3610   23.5790 C   0  0  0  0  0  3  0  0  0  0  0  0
  -25.4920  -33.7270   24.0080 N   0  0  0  0  0  0  0  0  0  0  0  0
  -25.8090  -34.8370   23.3260 C   0  0  0  0  0  0  0  0  0  0  0  0
  -26.4860  -34.8190   22.2960 O   0  0  0  0  0  0  0  0  0  0  0  0
  -24.8980  -33.8110   24.8190 H   0  0  0  0  0  0  0  0  0  0  0  0
  -24.0630  -36.6310   23.0810 C   0  0  0  0  0  1  0  0  0  0  0  0
  -25.2980  -36.1820   23.8800 C   0  0  0  0  0  3  0  0  0  0  0  0
  -27.4170  -37.0190   24.8010 C   0  0  0  0  0  1  0  0  0  0  0  0
  -26.3190  -37.2500   23.8650 N   0  0  0  0  0  0  0  0  0  0  0  0
  -25.9030  -38.1510   24.0830 H   0  0  0  0  0  0  0  0  0  0  0  0
  -26.4290  -31.5270   24.7790 C   0  0  1  0  0  0  0  0  0  0  0  0
  -25.3950  -31.1980   25.8810 C   0  0  0  0  0  1  0  0  0  0  0  0
  -27.0260  -30.1910   24.2770 C   0  0  0  0  0  1  0  0  0  0  0  0
  -27.5910  -32.3140   25.4290 C   0  0  0  0  0  1  0  0  0  0  0  0
  2  7  1  0
  2  1  2  0
  3 48  1  0
  3  4  1  0
  4  1  1  0
  4 52  1  0
  5  3  1  0
  5  2  1  0
  6  5  1  0
  7  8  1  0
  8  9  1  0
  9 18  1  0
 10 18  1  0
 11 16  1  0
 12 13  1  0
 12 11  1  0
 14 13  1  0
 14 23  1  0
 14 15  1  0
 16 10  1  0
 16 15  1  0
 17 10  2  0
 18 19  1  0
 20 21  2  0
 21 40  1  0
 22 25  1  0
 22 21  1  0
 23 24  1  0
 23 20  1  0
 24 22  2  0
 25 26  1  0
 26 27  2  0
 28 27  1  0
 29 28  2  0
 30 29  1  0
 30 25  2  0
 31 28  1  0
 31 32  1  0
 32 33  1  0
 33 34  2  0
 35 34  1  0
 35 39  1  0
 36 35  2  0
 37 32  2  0
 37 36  1  0
 38 37  1  0
 40 41  1  0
 41 44  1  0
 41 43  1  0
 42 40  2  0
 45 20  1  0
 45 46  1  0
 47 45  1  0
 48 51  1  0
 49 51  1  0
 51 50  1  0
 53 54  1  0
 53 52  1  0
 54 56  1  0
 55 66  2  0
 56 61  1  0
 57 65  1  0
 57 67  1  0
 58 64  1  0
 58 60  1  0
 59 65  1  0
 60 59  1  0
 61 60  2  0
 62 63  1  0
 62 56  2  0
 63 58  2  0
 64 57  1  0
 65 55  1  0
 67 69  2  0
 68 67  1  0
 70 68  1  0
 71 80  2  0
 71 76  1  0
 72 68  1  0
 72 76  1  0
 73 72  1  0
 74 75  1  0
 74 73  1  0
 75 71  1  0
 76 77  2  0
 77 78  1  0
 79 78  2  0
 80 79  1  0
 81 55  1  0
 81 82  1  0
 81 91  1  0
 82 85  1  0
 83 87  1  0
 83 82  1  0
 84 83  2  0
 87 86  1  0
 89 87  1  0
 89 90  1  0
 89 88  1  0
 91 94  1  1
 91 92  1  0
 93 91  1  0
M  ISO  4  10 100  18 100  53 101  54 101
M  END
>  <TORSDO>  (57) 
F 23

>  <SCORE>  (57) 
-10.996

>  <name>  (57) 
59

>  <ligand_id>  (57) 
59

>  <original_smiles>  (57) 
[H]c1c([H])c([H])c2c(c1[H])C([H])([H])C([H])([H])C([H])([H])C2([H])N([H])C(=O)C1([H])N(C(=O)C([H])(N([H])C(=O)C([H])(N([H])C([H])([H])[H])C([H])([H])[H])C(C([H])([H])[H])(C([H])([H])[H])C([H])([H])[H])C([H])([H])c2c([H])c(OC([H])([H])C([H])([H])n3c([H])c(C([H])([H])C([H])([H])C([H])([H])N([H])C(=O)N4C([H])([H])C([H])([H])C([H])([H])C([H])(n5nc(-c6c([H])c([H])c(Oc7c([H])c([H])c(F)c([H])c7F)c([H])c6[H])c(C(=O)N([H])[H])c5N([H])[H])C4([H])[H])[n+]([H])c3C([H])([H])C([H])(C([H])([H])[H])C([H])([H])[H])c([H])c([H])c2C1([H])[H]

>  <smiles>  (57) 
[H]c1c([H])c([H])c2c(c1[H])C([H])([H])C([H])([H])C([H])([H])C2([H])N([H])C(=O)C1([H])N(C(=O)C([H])(N([H])C(=O)C([H])(N([H])C([H])([H])[H])C([H])([H])[H])C(C([H])([H])[H])(C([H])([H])[H])C([H])([H])[H])C([H])([H])c2c([H])c(OC([H])([H])C([H])([H])n3c([H])c(C([H])([H])C([H])([H])C([H])([H])N([H])C(=O)N4C([H])([H])C([H])([H])C([H])([H])C([H])(n5nc(-c6c([H])c([H])c(Oc7c([H])c([H])c(F)c([H])c7F)c([H])c6[H])c(C(=O)N([H])[H])c5N([H])[H])C4([H])[H])[n+]([H])c3C([H])([H])C([H])(C([H])([H])[H])C([H])([H])[H])c([H])c([H])c2C1([H])[H]

$$$$
60:0:0
     RDKit          3D

 94102  0  0  1  0  0  0  0  0999 V2000
  -26.8450  -22.8570   19.0690 C   0  0  0  0  0  3  0  0  0  0  0  0
  -26.1080  -21.7580   18.7890 C   0  0  0  0  0  0  0  0  0  0  0  0
  -26.9180  -20.6290   19.1200 C   0  0  0  0  0  0  0  0  0  0  0  0
  -28.1680  -21.0670   19.5560 C   0  0  0  0  0  0  0  0  0  0  0  0
  -26.4110  -19.2080   18.9540 C   0  0  0  0  0  1  0  0  0  0  0  0
  -28.0570  -22.5220   19.6360 N   0  0  0  0  0  0  0  0  0  0  0  0
  -24.7720  -21.9290   16.6730 C   0  0  0  0  0  1  0  0  0  0  0  0
  -23.8510  -22.9190   18.8150 C   0  0  0  0  0  1  0  0  0  0  0  0
  -24.7060  -21.7990   18.2000 C   0  0  0  0  0  3  0  0  0  0  0  0
  -29.8000  -24.1140   18.8620 C   0  0  0  0  0  1  0  0  0  0  0  0
  -28.9310  -23.6970   20.0570 C   0  0  0  0  0  3  0  0  0  0  0  0
  -28.1510  -25.0040   20.6720 C   0  0  0  0  0  2  0  0  0  0  0  0
  -28.4030  -26.4390   20.2910 O   0  0  0  0  0  0  0  0  0  0  0  0
  -24.6020  -31.9050   23.2230 C   0  0  0  0  0  0  0  0  0  0  0  0
  -27.2990  -27.3180   20.2530 C   0  0  0  0  0  0  0  0  0  0  0  0
  -23.4340  -30.4700   21.5900 C   0  0  0  0  0  3  0  0  0  0  0  0
  -24.9220  -28.9210   20.1970 C   0  0  0  0  0  0  0  0  0  0  0  0
  -25.9740  -30.8170   21.4270 C   0  0  0  0  0  2  0  0  0  0  0  0
  -26.0810  -29.4280   20.7990 C   0  0  0  0  0  0  0  0  0  0  0  0
  -27.2760  -28.6380   20.8140 C   0  0  0  0  0  3  0  0  0  0  0  0
  -26.1210  -26.8810   19.6150 C   0  0  0  0  0  3  0  0  0  0  0  0
  -24.9470  -27.6560   19.5920 C   0  0  0  0  0  3  0  0  0  0  0  0
  -23.6730  -29.7790   20.2210 C   0  0  0  0  0  2  0  0  0  0  0  0
  -24.6880  -31.0830   22.1360 N   0  0  0  0  0  0  0  0  0  0  0  0
  -23.5080  -32.1720   23.7430 O   0  0  0  0  0  0  0  0  0  0  0  0
  -22.7760  -29.4570   22.5590 C   0  0  0  0  0  0  0  0  0  0  0  0
  -21.4500  -29.2740   22.4340 N   0  0  0  0  0  0  0  0  0  0  0  0
  -23.4580  -28.8420   23.3820 O   0  0  0  0  0  0  0  0  0  0  0  0
  -20.9590  -29.8200   21.7410 H   0  0  0  0  0  0  0  0  0  0  0  0
  -18.0750  -28.0850   22.9680 C   0  0  0  0  0  0  0  0  0  0  0  0
  -20.6370  -28.3370   23.2100 C   0  0  0  0  0  3  0  0  0  0  0  0
  -20.7290  -26.9070   22.6300 C   0  0  0  0  0  2  0  0  0  0  0  0
  -19.6160  -26.5960   21.6240 C   0  0  0  0  0  2  0  0  0  0  0  0
  -18.2410  -26.7380   22.2820 C   0  0  0  0  0  2  0  0  0  0  0  0
  -19.2000  -28.8430   23.3870 C   0  0  0  0  0  0  0  0  0  0  0  0
  -18.9930  -30.1080   23.9810 C   0  0  0  0  0  3  0  0  0  0  0  0
  -17.6920  -30.6140   24.1610 C   0  0  0  0  0  3  0  0  0  0  0  0
  -16.5810  -29.8510   23.7620 C   0  0  0  0  0  3  0  0  0  0  0  0
  -16.7720  -28.5890   23.1710 C   0  0  0  0  0  3  0  0  0  0  0  0
  -25.8680  -32.5660   23.8490 C   0  0  0  0  0  3  0  0  0  0  0  0
  -25.5320  -33.9610   24.1680 N   0  0  0  0  0  0  0  0  0  0  0  0
  -25.8490  -35.0160   23.4040 C   0  0  0  0  0  0  0  0  0  0  0  0
  -26.5230  -34.9160   22.3760 O   0  0  0  0  0  0  0  0  0  0  0  0
  -24.9320  -34.1120   24.9650 H   0  0  0  0  0  0  0  0  0  0  0  0
  -24.0900  -36.7760   23.0350 C   0  0  0  0  0  1  0  0  0  0  0  0
  -25.3370  -36.3980   23.8500 C   0  0  0  0  0  3  0  0  0  0  0  0
  -27.4490  -37.3330   24.6860 C   0  0  0  0  0  1  0  0  0  0  0  0
  -26.3510  -37.4690   23.7320 N   0  0  0  0  0  0  0  0  0  0  0  0
  -25.9270  -38.3830   23.8640 H   0  0  0  0  0  0  0  0  0  0  0  0
  -26.3870  -31.8140   25.1370 C   0  0  1  0  0  0  0  0  0  0  0  0
  -25.2870  -31.5590   26.1940 C   0  0  0  0  0  1  0  0  0  0  0  0
  -27.0060  -30.4480   24.7610 C   0  0  0  0  0  1  0  0  0  0  0  0
  -27.5100  -32.6390   25.8090 C   0  0  0  0  0  1  0  0  0  0  0  0
  -29.4120  -20.1320   19.8700 C   0  0  0  0  0  2  0  0  0  0  0  0
  -29.2570  -18.5040   19.8060 C   0  0  0  0  0  3  0  0  0  0  0  0
  -30.4500  -17.4310   20.0140 C   0  0  0  0  0  3  0  0  0  0  0  0
  -30.8520  -14.8150   19.9070 C   0  0  0  0  0  0  0  0  0  0  0  0
  -30.6040  -12.5180   18.9620 C   0  0  0  0  0  2  0  0  0  0  0  0
  -29.6080  -12.5740   17.7830 C   0  0  0  0  0  2  0  0  0  0  0  0
  -28.1580  -12.4230   18.2860 C   0  0  0  0  0  2  0  0  0  0  0  0
  -27.8480  -13.3390   19.4990 C   0  0  0  0  0  3  0  0  0  0  0  0
  -28.9580  -13.2610   20.5700 C   0  0  0  0  0  2  0  0  0  0  0  0
  -30.2260  -13.5910   19.9080 N   0  0  0  0  0  0  0  0  0  0  0  0
  -32.0220  -14.9110   19.5240 O   0  0  0  0  0  0  0  0  0  0  0  0
  -30.0850  -15.9470   20.1330 N   0  0  0  0  0  0  0  0  0  0  0  0
  -29.1340  -15.7530   20.4070 H   0  0  0  0  0  0  0  0  0  0  0  0
  -25.5280  -13.9720   20.3910 C   0  0  0  0  0  0  0  0  0  0  0  0
  -24.4610  -13.2160   20.7950 C   0  0  0  0  0  0  0  0  0  0  0  0
  -24.8770  -11.8540   20.6840 C   0  0  0  0  0  0  0  0  0  0  0  0
  -26.5270  -13.0720   20.0590 N   0  0  0  0  0  0  0  0  0  0  0  0
  -26.1470  -11.7900   20.2980 N   0  0  0  0  0  0  0  0  0  0  0  0
  -24.1220  -10.6090   20.8680 C   0  0  0  0  0  0  0  0  0  0  0  0
  -24.5480   -9.6140   21.7760 C   0  0  0  0  0  3  0  0  0  0  0  0
  -23.7960   -8.4330   21.9490 C   0  0  0  0  0  3  0  0  0  0  0  0
  -22.6020   -8.2370   21.2140 C   0  0  0  0  0  0  0  0  0  0  0  0
  -22.1940   -9.2200   20.2960 C   0  0  0  0  0  3  0  0  0  0  0  0
  -22.9470  -10.3920   20.1200 C   0  0  0  0  0  3  0  0  0  0  0  0
  -21.8210   -7.1100   21.2990 O   0  0  0  0  0  0  0  0  0  0  0  0
  -21.7490   -6.3680   22.4500 C   0  0  0  0  0  0  0  0  0  0  0  0
  -21.2880   -6.9210   23.6650 C   0  0  0  0  0  3  0  0  0  0  0  0
  -21.1630   -6.1050   24.8070 C   0  0  0  0  0  3  0  0  0  0  0  0
  -21.4900   -4.7370   24.7360 C   0  0  0  0  0  0  0  0  0  0  0  0
  -21.9450   -4.1840   23.5260 C   0  0  0  0  0  3  0  0  0  0  0  0
  -22.0710   -4.9970   22.3850 C   0  0  0  0  0  0  0  0  0  0  0  0
  -22.4880   -4.4540   21.2160 F   0  0  0  0  0  0  0  0  0  0  0  0
  -21.3640   -3.9510   25.8300 F   0  0  0  0  0  0  0  0  0  0  0  0
  -23.0980  -13.7240   21.1680 C   0  0  0  0  0  0  0  0  0  0  0  0
  -22.3990  -13.0130   22.0450 N   0  0  0  0  0  0  0  0  0  0  0  0
  -22.6640  -14.7830   20.7170 O   0  0  0  0  0  0  0  0  0  0  0  0
  -22.7650  -12.1560   22.4330 H   0  0  0  0  0  0  0  0  0  0  0  0
  -21.4870  -13.3310   22.3360 H   0  0  0  0  0  0  0  0  0  0  0  0
  -25.7230  -15.3430   20.2560 N   0  0  0  0  0  0  0  0  0  0  0  0
  -24.9720  -16.0050   20.4220 H   0  0  0  0  0  0  0  0  0  0  0  0
  -26.5460  -15.7700   19.8530 H   0  0  0  0  0  0  0  0  0  0  0  0
  1  6  1  0
  2  1  2  0
  2  3  1  0
  3  4  2  0
  4  6  1  0
  4 54  1  0
  5  3  1  0
  6 11  1  0
  7  9  1  0
  9  2  1  0
  9  8  1  0
 11 10  1  0
 11 12  1  0
 13 12  1  0
 14 25  2  0
 15 13  1  0
 15 20  1  0
 16 24  1  0
 16 26  1  0
 17 23  1  0
 17 19  1  0
 18 24  1  0
 19 20  2  0
 19 18  1  0
 21 15  2  0
 22 21  1  0
 22 17  2  0
 23 16  1  0
 24 14  1  0
 26 28  2  0
 27 26  1  0
 29 27  1  0
 30 39  2  0
 30 35  1  0
 31 27  1  0
 31 35  1  0
 32 31  1  0
 33 34  1  0
 33 32  1  0
 34 30  1  0
 35 36  2  0
 36 37  1  0
 38 37  2  0
 39 38  1  0
 40 14  1  0
 40 41  1  0
 40 50  1  0
 41 44  1  0
 42 46  1  0
 42 41  1  0
 43 42  2  0
 46 45  1  0
 48 46  1  0
 48 49  1  0
 48 47  1  0
 50 53  1  1
 50 51  1  0
 52 50  1  0
 55 54  1  0
 55 56  2  0
 56 65  1  0
 57 63  1  0
 57 65  1  0
 58 63  1  0
 59 60  1  0
 59 58  1  0
 61 60  1  0
 61 70  1  0
 61 62  1  0
 63 62  1  0
 64 57  2  0
 65 66  1  0
 67 68  2  0
 68 87  1  0
 69 68  1  0
 69 72  1  0
 70 71  1  0
 70 67  1  0
 71 69  2  0
 72 73  1  0
 73 74  2  0
 75 78  1  0
 75 74  1  0
 76 75  2  0
 77 76  1  0
 77 72  2  0
 78 79  1  0
 79 80  1  0
 80 81  2  0
 82 81  1  0
 82 86  1  0
 83 82  2  0
 84 79  2  0
 84 83  1  0
 85 84  1  0
 87 88  1  0
 88 91  1  0
 88 90  1  0
 89 87  2  0
 92 67  1  0
 92 93  1  0
 94 92  1  0
M  ISO  4  12 101  13 101  57 100  65 100
M  END
>  <TORSDO>  (58) 
F 22

>  <SCORE>  (58) 
-12.424

>  <name>  (58) 
60

>  <ligand_id>  (58) 
60

>  <original_smiles>  (58) 
[H]c1c([H])c([H])c2c(c1[H])C([H])([H])C([H])([H])C([H])([H])C2([H])N([H])C(=O)C1([H])N(C(=O)C([H])(N([H])C(=O)C([H])(N([H])C([H])([H])[H])C([H])([H])[H])C(C([H])([H])[H])(C([H])([H])[H])C([H])([H])[H])C([H])([H])c2c([H])c(OC([H])([H])C([H])(n3c([H])c(C([H])(C([H])([H])[H])C([H])([H])[H])c(C([H])([H])[H])c3C([H])([H])C([H])([H])C([H])([H])N([H])C(=O)N3C([H])([H])C([H])([H])C([H])([H])C([H])(n4nc(-c5c([H])c([H])c(Oc6c([H])c([H])c(F)c([H])c6F)c([H])c5[H])c(C(=O)N([H])[H])c4N([H])[H])C3([H])[H])C([H])([H])[H])c([H])c([H])c2C1([H])[H]

>  <smiles>  (58) 
[H]c1c([H])c([H])c2c(c1[H])C([H])([H])C([H])([H])C([H])([H])C2([H])N([H])C(=O)C1([H])N(C(=O)C([H])(N([H])C(=O)C([H])(N([H])C([H])([H])[H])C([H])([H])[H])C(C([H])([H])[H])(C([H])([H])[H])C([H])([H])[H])C([H])([H])c2c([H])c(OC([H])([H])C([H])(n3c([H])c(C([H])(C([H])([H])[H])C([H])([H])[H])c(C([H])([H])[H])c3C([H])([H])C([H])([H])C([H])([H])N([H])C(=O)N3C([H])([H])C([H])([H])C([H])([H])C([H])(n4nc(-c5c([H])c([H])c(Oc6c([H])c([H])c(F)c([H])c6F)c([H])c5[H])c(C(=O)N([H])[H])c4N([H])[H])C3([H])[H])C([H])([H])[H])c([H])c([H])c2C1([H])[H]

$$$$
61:0:0
     RDKit          3D

 95103  0  0  1  0  0  0  0  0999 V2000
  -31.7480  -21.2260   18.6220 C   0  0  0  0  0  3  0  0  0  0  0  0
  -32.1750  -20.1740   17.8610 C   0  0  0  0  0  0  0  0  0  0  0  0
  -30.7970  -19.3890   19.4610 C   0  0  0  0  0  3  0  0  0  0  0  0
  -30.8290  -20.7520   19.5320 N   0  0  0  0  0  0  0  0  0  0  0  0
  -31.5840  -19.0730   18.4190 N   0  0  0  0  0  0  0  0  0  0  0  0
  -31.7160  -18.1320   18.0720 H   0  0  0  0  0  0  0  0  0  0  0  0
  -33.6300  -21.5030   16.2970 C   0  0  0  0  0  1  0  0  0  0  0  0
  -32.3350  -19.4910   15.4570 C   0  0  0  0  0  1  0  0  0  0  0  0
  -33.0740  -20.1130   16.6550 C   0  0  0  0  0  3  0  0  0  0  0  0
  -30.0070  -18.3200   20.2290 C   0  0  0  0  0  2  0  0  0  0  0  0
  -30.8400  -17.0590   20.6620 C   0  0  0  0  0  2  0  0  0  0  0  0
  -30.7400  -14.5610   20.4440 C   0  0  0  0  0  0  0  0  0  0  0  0
  -30.3450  -12.3860   19.3590 C   0  0  0  0  0  2  0  0  0  0  0  0
  -29.4180  -12.5700   18.1440 C   0  0  0  0  0  2  0  0  0  0  0  0
  -27.9480  -12.4250   18.5780 C   0  0  0  0  0  2  0  0  0  0  0  0
  -27.6030  -13.2950   19.8200 C   0  0  0  0  0  3  0  0  0  0  0  0
  -28.6690  -13.1620   20.9330 C   0  0  0  0  0  2  0  0  0  0  0  0
  -29.9870  -13.4250   20.3400 N   0  0  0  0  0  0  0  0  0  0  0  0
  -31.9110  -14.5880   20.0780 O   0  0  0  0  0  0  0  0  0  0  0  0
  -30.1310  -15.7380   20.7470 N   0  0  0  0  0  0  0  0  0  0  0  0
  -29.1510  -15.7250   20.9830 H   0  0  0  0  0  0  0  0  0  0  0  0
  -25.2140  -13.8820   20.5630 C   0  0  0  0  0  0  0  0  0  0  0  0
  -24.1460  -13.1070   20.9290 C   0  0  0  0  0  0  0  0  0  0  0  0
  -24.6110  -11.7540   20.8930 C   0  0  0  0  0  0  0  0  0  0  0  0
  -26.2590  -13.0060   20.3180 N   0  0  0  0  0  0  0  0  0  0  0  0
  -25.9030  -11.7210   20.5810 N   0  0  0  0  0  0  0  0  0  0  0  0
  -23.8880  -10.4870   21.0810 C   0  0  0  0  0  0  0  0  0  0  0  0
  -24.3260   -9.5110   22.0010 C   0  0  0  0  0  3  0  0  0  0  0  0
  -23.6010   -8.3110   22.1750 C   0  0  0  0  0  3  0  0  0  0  0  0
  -22.4210   -8.0800   21.4280 C   0  0  0  0  0  0  0  0  0  0  0  0
  -22.0000   -9.0460   20.4960 C   0  0  0  0  0  3  0  0  0  0  0  0
  -22.7260  -10.2370   20.3220 C   0  0  0  0  0  3  0  0  0  0  0  0
  -21.6650   -6.9370   21.5150 O   0  0  0  0  0  0  0  0  0  0  0  0
  -21.6350   -6.1780   22.6580 C   0  0  0  0  0  0  0  0  0  0  0  0
  -21.2310   -6.7180   23.9010 C   0  0  0  0  0  3  0  0  0  0  0  0
  -21.1490   -5.8850   25.0340 C   0  0  0  0  0  3  0  0  0  0  0  0
  -21.4560   -4.5150   24.9280 C   0  0  0  0  0  0  0  0  0  0  0  0
  -21.8520   -3.9780   23.6910 C   0  0  0  0  0  3  0  0  0  0  0  0
  -21.9360   -4.8050   22.5590 C   0  0  0  0  0  0  0  0  0  0  0  0
  -22.2980   -4.2770   21.3660 F   0  0  0  0  0  0  0  0  0  0  0  0
  -21.3670   -3.7160   26.0160 F   0  0  0  0  0  0  0  0  0  0  0  0
  -22.7470  -13.5790   21.2000 C   0  0  0  0  0  0  0  0  0  0  0  0
  -22.0170  -12.8790   22.0630 N   0  0  0  0  0  0  0  0  0  0  0  0
  -22.3080  -14.6050   20.6810 O   0  0  0  0  0  0  0  0  0  0  0  0
  -22.3790  -12.0510   22.5090 H   0  0  0  0  0  0  0  0  0  0  0  0
  -21.0780  -13.1870   22.2850 H   0  0  0  0  0  0  0  0  0  0  0  0
  -25.3800  -15.2540   20.3880 N   0  0  0  0  0  0  0  0  0  0  0  0
  -24.6220  -15.9220   20.4760 H   0  0  0  0  0  0  0  0  0  0  0  0
  -26.2430  -15.6760   20.0720 H   0  0  0  0  0  0  0  0  0  0  0  0
  -30.0750  -21.6520   20.4530 C   0  0  0  0  0  2  0  0  0  0  0  0
  -29.6050  -22.9840   19.7540 C   0  0  0  0  0  2  0  0  0  0  0  0
  -29.9930  -24.7260   21.6140 C   0  0  0  0  0  1  0  0  0  0  0  0
  -28.9890  -24.1360   20.6110 C   0  0  0  0  0  3  0  0  0  0  0  0
  -28.3550  -25.2320   19.6850 C   0  0  0  0  0  2  0  0  0  0  0  0
  -28.3540  -26.6010   20.1930 O   0  0  0  0  0  0  0  0  0  0  0  0
  -24.6010  -31.8860   23.2430 C   0  0  0  0  0  0  0  0  0  0  0  0
  -27.2060  -27.3870   20.1380 C   0  0  0  0  0  0  0  0  0  0  0  0
  -23.3930  -30.4980   21.5960 C   0  0  0  0  0  3  0  0  0  0  0  0
  -24.8390  -28.9710   20.1550 C   0  0  0  0  0  0  0  0  0  0  0  0
  -25.9320  -30.8220   21.4200 C   0  0  0  0  0  2  0  0  0  0  0  0
  -26.0040  -29.4550   20.7630 C   0  0  0  0  0  0  0  0  0  0  0  0
  -27.1850  -28.6680   20.7590 C   0  0  0  0  0  3  0  0  0  0  0  0
  -26.0230  -26.9620   19.4850 C   0  0  0  0  0  3  0  0  0  0  0  0
  -24.8480  -27.7280   19.5120 C   0  0  0  0  0  3  0  0  0  0  0  0
  -23.6020  -29.8380   20.2090 C   0  0  0  0  0  2  0  0  0  0  0  0
  -24.6610  -31.0850   22.1400 N   0  0  0  0  0  0  0  0  0  0  0  0
  -23.5180  -32.1620   23.7780 O   0  0  0  0  0  0  0  0  0  0  0  0
  -22.7420  -29.4680   22.5460 C   0  0  0  0  0  0  0  0  0  0  0  0
  -21.4180  -29.2800   22.4120 N   0  0  0  0  0  0  0  0  0  0  0  0
  -23.4230  -28.8410   23.3610 O   0  0  0  0  0  0  0  0  0  0  0  0
  -20.9310  -29.8420   21.7290 H   0  0  0  0  0  0  0  0  0  0  0  0
  -18.0450  -28.0790   22.8990 C   0  0  0  0  0  0  0  0  0  0  0  0
  -20.6000  -28.3390   23.1770 C   0  0  0  0  0  3  0  0  0  0  0  0
  -20.7040  -26.9080   22.5990 C   0  0  0  0  0  2  0  0  0  0  0  0
  -19.6060  -26.5870   21.5790 C   0  0  0  0  0  2  0  0  0  0  0  0
  -18.2230  -26.7300   22.2210 C   0  0  0  0  0  2  0  0  0  0  0  0
  -19.1620  -28.8410   23.3330 C   0  0  0  0  0  0  0  0  0  0  0  0
  -18.9410  -30.1040   23.9250 C   0  0  0  0  0  3  0  0  0  0  0  0
  -17.6350  -30.6040   24.0870 C   0  0  0  0  0  3  0  0  0  0  0  0
  -16.5340  -29.8390   23.6690 C   0  0  0  0  0  3  0  0  0  0  0  0
  -16.7380  -28.5790   23.0800 C   0  0  0  0  0  3  0  0  0  0  0  0
  -25.8860  -32.5120   23.8670 C   0  0  0  0  0  3  0  0  0  0  0  0
  -25.5780  -33.9130   24.1920 N   0  0  0  0  0  0  0  0  0  0  0  0
  -25.9100  -34.9630   23.4300 C   0  0  0  0  0  0  0  0  0  0  0  0
  -26.5800  -34.8560   22.4000 O   0  0  0  0  0  0  0  0  0  0  0  0
  -24.9780  -34.0690   24.9880 H   0  0  0  0  0  0  0  0  0  0  0  0
  -24.1810  -36.7550   23.0690 C   0  0  0  0  0  1  0  0  0  0  0  0
  -25.4210  -36.3520   23.8840 C   0  0  0  0  0  3  0  0  0  0  0  0
  -27.5570  -37.2320   24.7150 C   0  0  0  0  0  1  0  0  0  0  0  0
  -26.4540  -37.4050   23.7740 N   0  0  0  0  0  0  0  0  0  0  0  0
  -26.0500  -38.3250   23.9240 H   0  0  0  0  0  0  0  0  0  0  0  0
  -26.3990  -31.7420   25.1460 C   0  0  1  0  0  0  0  0  0  0  0  0
  -25.3040  -31.5130   26.2130 C   0  0  0  0  0  1  0  0  0  0  0  0
  -26.9820  -30.3630   24.7620 C   0  0  0  0  0  1  0  0  0  0  0  0
  -27.5490  -32.5380   25.8050 C   0  0  0  0  0  1  0  0  0  0  0  0
  1  4  1  0
  2  5  1  0
  2  1  2  0
  3  4  1  0
  3 10  1  0
  4 50  1  0
  5  3  1  0
  6  5  1  0
  7  9  1  0
  8  9  1  0
  9  2  1  0
 10 11  1  0
 11 20  1  0
 12 20  1  0
 13 18  1  0
 14 15  1  0
 14 13  1  0
 16 15  1  0
 16 25  1  0
 16 17  1  0
 18 12  1  0
 18 17  1  0
 19 12  2  0
 20 21  1  0
 22 23  2  0
 23 42  1  0
 24 23  1  0
 24 27  1  0
 25 22  1  0
 25 26  1  0
 26 24  2  0
 27 28  1  0
 28 29  2  0
 30 33  1  0
 30 29  1  0
 31 30  2  0
 32 31  1  0
 32 27  2  0
 33 34  1  0
 34 35  1  0
 35 36  2  0
 37 36  1  0
 37 41  1  0
 38 37  2  0
 39 34  2  0
 39 38  1  0
 40 39  1  0
 42 43  1  0
 43 46  1  0
 43 45  1  0
 44 42  2  0
 47 48  1  0
 47 22  1  0
 49 47  1  0
 51 50  1  0
 51 53  1  0
 53 52  1  0
 54 55  1  0
 54 53  1  0
 56 67  2  0
 57 55  1  0
 57 62  1  0
 58 66  1  0
 58 68  1  0
 59 65  1  0
 59 61  1  0
 60 66  1  0
 61 60  1  0
 62 61  2  0
 63 64  1  0
 63 57  2  0
 64 59  2  0
 65 58  1  0
 66 56  1  0
 68 70  2  0
 69 68  1  0
 71 69  1  0
 72 81  2  0
 72 77  1  0
 73 69  1  0
 73 77  1  0
 74 73  1  0
 75 76  1  0
 75 74  1  0
 76 72  1  0
 77 78  2  0
 78 79  1  0
 80 79  2  0
 81 80  1  0
 82 56  1  0
 82 83  1  0
 82 92  1  0
 83 86  1  0
 84 88  1  0
 84 83  1  0
 85 84  2  0
 88 87  1  0
 90 88  1  0
 90 91  1  0
 90 89  1  0
 92 95  1  1
 92 93  1  0
 94 92  1  0
M  ISO  4  12 100  20 100  54 101  55 101
M  END
>  <TORSDO>  (59) 
F 23

>  <SCORE>  (59) 
-12.840

>  <name>  (59) 
61

>  <ligand_id>  (59) 
61

>  <original_smiles>  (59) 
[H]c1c([H])c([H])c2c(c1[H])C([H])([H])C([H])([H])C([H])([H])C2([H])N([H])C(=O)C1([H])N(C(=O)C([H])(N([H])C(=O)C([H])(N([H])C([H])([H])[H])C([H])([H])[H])C(C([H])([H])[H])(C([H])([H])[H])C([H])([H])[H])C([H])([H])c2c([H])c(OC([H])([H])C([H])(C([H])([H])[H])C([H])([H])C([H])([H])n3c([H])c(C([H])(C([H])([H])[H])C([H])([H])[H])[n+]([H])c3C([H])([H])C([H])([H])N([H])C(=O)N3C([H])([H])C([H])([H])C([H])([H])C([H])(n4nc(-c5c([H])c([H])c(Oc6c([H])c([H])c(F)c([H])c6F)c([H])c5[H])c(C(=O)N([H])[H])c4N([H])[H])C3([H])[H])c([H])c([H])c2C1([H])[H]

>  <smiles>  (59) 
[H]c1c([H])c([H])c2c(c1[H])C([H])([H])C([H])([H])C([H])([H])C2([H])N([H])C(=O)C1([H])N(C(=O)C([H])(N([H])C(=O)C([H])(N([H])C([H])([H])[H])C([H])([H])[H])C(C([H])([H])[H])(C([H])([H])[H])C([H])([H])[H])C([H])([H])c2c([H])c(OC([H])([H])C([H])(C([H])([H])[H])C([H])([H])C([H])([H])n3c([H])c(C([H])(C([H])([H])[H])C([H])([H])[H])[n+]([H])c3C([H])([H])C([H])([H])N([H])C(=O)N3C([H])([H])C([H])([H])C([H])([H])C([H])(n4nc(-c5c([H])c([H])c(Oc6c([H])c([H])c(F)c([H])c6F)c([H])c5[H])c(C(=O)N([H])[H])c4N([H])[H])C3([H])[H])c([H])c([H])c2C1([H])[H]

$$$$
62:0:0
     RDKit          3D

 92100  0  0  1  0  0  0  0  0999 V2000
  -30.5660  -22.2730   19.1050 C   0  0  0  0  0  3  0  0  0  0  0  0
  -28.8330  -21.7450   20.3070 C   0  0  0  0  0  3  0  0  0  0  0  0
  -29.3650  -22.8290   19.6270 C   0  0  0  0  0  0  0  0  0  0  0  0
  -30.7200  -20.9870   19.3700 N   0  0  0  0  0  0  0  0  0  0  0  0
  -29.6700  -20.6250   20.1420 N   0  0  0  0  0  0  0  0  0  0  0  0
  -27.9680  -24.2380   18.0800 C   0  0  0  0  0  1  0  0  0  0  0  0
  -28.9050  -24.2760   19.2970 C   0  0  0  0  0  3  0  0  0  0  0  0
  -28.3210  -25.1830   20.4360 C   0  0  0  0  0  2  0  0  0  0  0  0
  -28.3830  -26.6170   20.1510 O   0  0  0  0  0  0  0  0  0  0  0  0
  -24.5890  -31.8760   23.2210 C   0  0  0  0  0  0  0  0  0  0  0  0
  -27.2160  -27.3730   20.1580 C   0  0  0  0  0  0  0  0  0  0  0  0
  -23.3810  -30.4730   21.5820 C   0  0  0  0  0  3  0  0  0  0  0  0
  -24.8300  -28.9220   20.1620 C   0  0  0  0  0  0  0  0  0  0  0  0
  -25.9100  -30.8130   21.3840 C   0  0  0  0  0  2  0  0  0  0  0  0
  -25.9930  -29.4360   20.7450 C   0  0  0  0  0  0  0  0  0  0  0  0
  -27.1910  -28.6740   20.7280 C   0  0  0  0  0  3  0  0  0  0  0  0
  -26.0290  -26.8830   19.5710 C   0  0  0  0  0  3  0  0  0  0  0  0
  -24.8450  -27.6470   19.5660 C   0  0  0  0  0  3  0  0  0  0  0  0
  -23.5890  -29.7870   20.2050 C   0  0  0  0  0  2  0  0  0  0  0  0
  -24.6450  -31.0720   22.1190 N   0  0  0  0  0  0  0  0  0  0  0  0
  -23.5090  -32.1500   23.7630 O   0  0  0  0  0  0  0  0  0  0  0  0
  -22.7260  -29.4580   22.5470 C   0  0  0  0  0  0  0  0  0  0  0  0
  -21.3990  -29.2850   22.4300 N   0  0  0  0  0  0  0  0  0  0  0  0
  -23.4100  -28.8290   23.3600 O   0  0  0  0  0  0  0  0  0  0  0  0
  -20.9080  -29.8450   21.7470 H   0  0  0  0  0  0  0  0  0  0  0  0
  -18.0180  -28.1140   22.9570 C   0  0  0  0  0  0  0  0  0  0  0  0
  -20.5810  -28.3510   23.2050 C   0  0  0  0  0  3  0  0  0  0  0  0
  -20.6660  -26.9210   22.6230 C   0  0  0  0  0  2  0  0  0  0  0  0
  -19.5520  -26.6120   21.6180 C   0  0  0  0  0  2  0  0  0  0  0  0
  -18.1770  -26.7650   22.2760 C   0  0  0  0  0  2  0  0  0  0  0  0
  -19.1470  -28.8660   23.3790 C   0  0  0  0  0  0  0  0  0  0  0  0
  -18.9450  -30.1280   23.9770 C   0  0  0  0  0  3  0  0  0  0  0  0
  -17.6470  -30.6400   24.1580 C   0  0  0  0  0  3  0  0  0  0  0  0
  -16.5320  -29.8860   23.7510 C   0  0  0  0  0  3  0  0  0  0  0  0
  -16.7190  -28.6250   23.1580 C   0  0  0  0  0  3  0  0  0  0  0  0
  -25.8760  -32.5110   23.8360 C   0  0  0  0  0  3  0  0  0  0  0  0
  -25.5660  -33.9070   24.1730 N   0  0  0  0  0  0  0  0  0  0  0  0
  -25.8920  -34.9640   23.4180 C   0  0  0  0  0  0  0  0  0  0  0  0
  -26.5600  -34.8670   22.3850 O   0  0  0  0  0  0  0  0  0  0  0  0
  -24.9820  -34.0560   24.9830 H   0  0  0  0  0  0  0  0  0  0  0  0
  -24.1630  -36.7550   23.0690 C   0  0  0  0  0  1  0  0  0  0  0  0
  -25.4030  -36.3490   23.8830 C   0  0  0  0  0  3  0  0  0  0  0  0
  -27.5330  -37.2280   24.7250 C   0  0  0  0  0  1  0  0  0  0  0  0
  -26.4340  -37.4040   23.7790 N   0  0  0  0  0  0  0  0  0  0  0  0
  -26.0280  -38.3230   23.9340 H   0  0  0  0  0  0  0  0  0  0  0  0
  -26.4020  -31.7360   25.1070 C   0  0  1  0  0  0  0  0  0  0  0  0
  -25.3170  -31.4910   26.1810 C   0  0  0  0  0  1  0  0  0  0  0  0
  -26.9850  -30.3610   24.7050 C   0  0  0  0  0  1  0  0  0  0  0  0
  -27.5550  -32.5300   25.7660 C   0  0  0  0  0  1  0  0  0  0  0  0
  -29.4780  -19.1930   20.5700 C   0  0  0  0  0  2  0  0  0  0  0  0
  -31.7960  -18.9660   21.6090 C   0  0  0  0  0  1  0  0  0  0  0  0
  -31.3700  -17.8540   19.3970 C   0  0  0  0  0  1  0  0  0  0  0  0
  -30.7360  -18.2240   20.7570 C   0  0  2  0  0  0  0  0  0  0  0  0
  -30.4340  -16.8870   21.5710 C   0  0  0  0  0  2  0  0  0  0  0  0
  -30.6930  -14.5730   20.5010 C   0  0  0  0  0  0  0  0  0  0  0  0
  -30.4360  -12.3780   19.3740 C   0  0  0  0  0  2  0  0  0  0  0  0
  -29.5190  -12.5410   18.1470 C   0  0  0  0  0  2  0  0  0  0  0  0
  -28.0370  -12.3930   18.5490 C   0  0  0  0  0  2  0  0  0  0  0  0
  -27.6640  -13.2500   19.7890 C   0  0  0  0  0  3  0  0  0  0  0  0
  -28.7020  -13.0800   20.9200 C   0  0  0  0  0  2  0  0  0  0  0  0
  -30.0240  -13.3940   20.3580 N   0  0  0  0  0  0  0  0  0  0  0  0
  -31.8710  -14.7010   20.1630 O   0  0  0  0  0  0  0  0  0  0  0  0
  -29.9550  -15.6370   20.9150 N   0  0  0  0  0  0  0  0  0  0  0  0
  -28.9740  -15.4340   21.0420 H   0  0  0  0  0  0  0  0  0  0  0  0
  -25.2540  -13.8550   20.4530 C   0  0  0  0  0  0  0  0  0  0  0  0
  -24.1820  -13.0830   20.8120 C   0  0  0  0  0  0  0  0  0  0  0  0
  -24.6490  -11.7320   20.8100 C   0  0  0  0  0  0  0  0  0  0  0  0
  -26.3060  -12.9740   20.2520 N   0  0  0  0  0  0  0  0  0  0  0  0
  -25.9450  -11.6950   20.5280 N   0  0  0  0  0  0  0  0  0  0  0  0
  -23.9220  -10.4700   21.0030 C   0  0  0  0  0  0  0  0  0  0  0  0
  -24.3380   -9.5140   21.9550 C   0  0  0  0  0  3  0  0  0  0  0  0
  -23.6100   -8.3180   22.1330 C   0  0  0  0  0  3  0  0  0  0  0  0
  -22.4510   -8.0700   21.3590 C   0  0  0  0  0  0  0  0  0  0  0  0
  -22.0540   -9.0150   20.3980 C   0  0  0  0  0  3  0  0  0  0  0  0
  -22.7830  -10.2020   20.2170 C   0  0  0  0  0  3  0  0  0  0  0  0
  -21.6950   -6.9260   21.4480 O   0  0  0  0  0  0  0  0  0  0  0  0
  -21.6320   -6.1930   22.6060 C   0  0  0  0  0  0  0  0  0  0  0  0
  -21.1900   -6.7580   23.8230 C   0  0  0  0  0  3  0  0  0  0  0  0
  -21.0730   -5.9510   24.9720 C   0  0  0  0  0  3  0  0  0  0  0  0
  -21.3860   -4.5810   24.9050 C   0  0  0  0  0  0  0  0  0  0  0  0
  -21.8200   -4.0150   23.6940 C   0  0  0  0  0  3  0  0  0  0  0  0
  -21.9390   -4.8190   22.5470 C   0  0  0  0  0  0  0  0  0  0  0  0
  -22.3370   -4.2650   21.3760 F   0  0  0  0  0  0  0  0  0  0  0  0
  -21.2660   -3.8030   26.0070 F   0  0  0  0  0  0  0  0  0  0  0  0
  -22.7780  -13.5610   21.0450 C   0  0  0  0  0  0  0  0  0  0  0  0
  -22.0300  -12.8760   21.9030 N   0  0  0  0  0  0  0  0  0  0  0  0
  -22.3490  -14.5780   20.5000 O   0  0  0  0  0  0  0  0  0  0  0  0
  -22.3850  -12.0560   22.3710 H   0  0  0  0  0  0  0  0  0  0  0  0
  -21.0870  -13.1830   22.1000 H   0  0  0  0  0  0  0  0  0  0  0  0
  -25.4140  -15.2240   20.2590 N   0  0  0  0  0  0  0  0  0  0  0  0
  -24.6340  -15.8670   20.3350 H   0  0  0  0  0  0  0  0  0  0  0  0
  -26.2570  -15.6630   19.9110 H   0  0  0  0  0  0  0  0  0  0  0  0
  1  4  2  0
  1  3  1  0
  3  2  2  0
  4  5  1  0
  5  2  1  0
  5 50  1  0
  7  6  1  0
  7  3  1  0
  7  8  1  0
  9 11  1  0
  9  8  1  0
 10 21  2  0
 11 16  1  0
 12 20  1  0
 12 22  1  0
 13 19  1  0
 13 15  1  0
 14 20  1  0
 15 14  1  0
 16 15  2  0
 17 11  2  0
 18 17  1  0
 18 13  2  0
 19 12  1  0
 20 10  1  0
 22 24  2  0
 23 22  1  0
 25 23  1  0
 26 35  2  0
 26 31  1  0
 27 23  1  0
 27 31  1  0
 28 27  1  0
 29 30  1  0
 29 28  1  0
 30 26  1  0
 31 32  2  0
 32 33  1  0
 34 33  2  0
 35 34  1  0
 36 10  1  0
 36 37  1  0
 36 46  1  0
 37 40  1  0
 38 42  1  0
 38 37  1  0
 39 38  2  0
 42 41  1  0
 44 42  1  0
 44 45  1  0
 44 43  1  0
 46 49  1  1
 46 47  1  0
 48 46  1  0
 50 53  1  0
 53 52  1  6
 53 54  1  0
 53 51  1  0
 55 63  1  0
 56 61  1  0
 57 58  1  0
 57 56  1  0
 59 58  1  0
 59 68  1  0
 59 60  1  0
 61 55  1  0
 61 60  1  0
 62 55  2  0
 63 64  1  0
 63 54  1  0
 65 66  2  0
 66 85  1  0
 67 66  1  0
 67 70  1  0
 68 65  1  0
 68 69  1  0
 69 67  2  0
 70 71  1  0
 71 72  2  0
 73 76  1  0
 73 72  1  0
 74 73  2  0
 75 74  1  0
 75 70  2  0
 76 77  1  0
 77 78  1  0
 78 79  2  0
 80 79  1  0
 80 84  1  0
 81 80  2  0
 82 77  2  0
 82 81  1  0
 83 82  1  0
 85 86  1  0
 86 89  1  0
 86 88  1  0
 87 85  2  0
 90 91  1  0
 90 65  1  0
 92 90  1  0
M  ISO  4   8 101   9 101  55 100  63 100
M  END
>  <TORSDO>  (60) 
F 21

>  <SCORE>  (60) 
-13.623

>  <name>  (60) 
62

>  <ligand_id>  (60) 
62

>  <original_smiles>  (60) 
[H]c1nn(C([H])([H])C(C([H])([H])[H])(C([H])([H])[H])C([H])([H])N([H])C(=O)N2C([H])([H])C([H])([H])C([H])([H])C([H])(n3nc(-c4c([H])c([H])c(Oc5c([H])c([H])c(F)c([H])c5F)c([H])c4[H])c(C(=O)N([H])[H])c3N([H])[H])C2([H])[H])c([H])c1C([H])(C([H])([H])[H])C([H])([H])Oc1c([H])c([H])c2c(c1[H])C([H])([H])N(C(=O)C([H])(N([H])C(=O)C([H])(N([H])C([H])([H])[H])C([H])([H])[H])C(C([H])([H])[H])(C([H])([H])[H])C([H])([H])[H])C([H])(C(=O)N([H])C1([H])c3c([H])c([H])c([H])c([H])c3C([H])([H])C([H])([H])C1([H])[H])C2([H])[H]

>  <smiles>  (60) 
[H]c1nn(C([H])([H])C(C([H])([H])[H])(C([H])([H])[H])C([H])([H])N([H])C(=O)N2C([H])([H])C([H])([H])C([H])([H])C([H])(n3nc(-c4c([H])c([H])c(Oc5c([H])c([H])c(F)c([H])c5F)c([H])c4[H])c(C(=O)N([H])[H])c3N([H])[H])C2([H])[H])c([H])c1C([H])(C([H])([H])[H])C([H])([H])Oc1c([H])c([H])c2c(c1[H])C([H])([H])N(C(=O)C([H])(N([H])C(=O)C([H])(N([H])C([H])([H])[H])C([H])([H])[H])C(C([H])([H])[H])(C([H])([H])[H])C([H])([H])[H])C([H])(C(=O)N([H])C1([H])c3c([H])c([H])c([H])c([H])c3C([H])([H])C([H])([H])C1([H])[H])C2([H])[H]

$$$$
63:0:0
     RDKit          3D

 92100  0  0  1  0  0  0  0  0999 V2000
  -29.8790  -20.8390   17.6520 C   0  0  0  0  0  3  0  0  0  0  0  0
  -30.4110  -20.1700   16.5580 C   0  0  0  0  0  3  0  0  0  0  0  0
  -29.5300  -20.2150   18.8840 C   0  0  0  0  0  0  0  0  0  0  0  0
  -30.7380  -18.8330   16.7030 C   0  0  0  0  0  0  0  0  0  0  0  0
  -29.8840  -18.6590   18.9350 C   0  0  0  0  0  0  0  0  0  0  0  0
  -31.2630  -18.0270   15.5330 C   0  0  0  0  0  1  0  0  0  0  0  0
  -30.5340  -18.1620   17.8510 N   0  0  0  0  0  0  0  0  0  0  0  0
  -28.7720  -21.5040   19.7440 C   0  0  0  0  0  3  0  0  0  0  0  0
  -28.7400  -23.2440   19.2740 C   0  0  0  0  0  3  0  0  0  0  0  0
  -27.8570  -24.6930   19.8030 C   0  0  0  0  0  2  0  0  0  0  0  0
  -28.0960  -26.3000   19.7330 O   0  0  0  0  0  0  0  0  0  0  0  0
  -24.6750  -31.9630   23.3780 C   0  0  0  0  0  0  0  0  0  0  0  0
  -27.0620  -27.3530   19.8690 C   0  0  0  0  0  0  0  0  0  0  0  0
  -23.3960  -30.6970   21.6990 C   0  0  0  0  0  3  0  0  0  0  0  0
  -24.7630  -29.1960   20.1000 C   0  0  0  0  0  0  0  0  0  0  0  0
  -25.9560  -30.9080   21.4580 C   0  0  0  0  0  2  0  0  0  0  0  0
  -25.9820  -29.5590   20.6870 C   0  0  0  0  0  0  0  0  0  0  0  0
  -27.1280  -28.6560   20.5510 C   0  0  0  0  0  3  0  0  0  0  0  0
  -25.8130  -27.1380   19.2450 C   0  0  0  0  0  3  0  0  0  0  0  0
  -24.7020  -28.0080   19.3580 C   0  0  0  0  0  3  0  0  0  0  0  0
  -23.5560  -30.1210   20.2690 C   0  0  0  0  0  2  0  0  0  0  0  0
  -24.6980  -31.2080   22.2340 N   0  0  0  0  0  0  0  0  0  0  0  0
  -23.6140  -32.2280   23.9610 O   0  0  0  0  0  0  0  0  0  0  0  0
  -22.7350  -29.6360   22.6160 C   0  0  0  0  0  0  0  0  0  0  0  0
  -21.4110  -29.4350   22.4740 N   0  0  0  0  0  0  0  0  0  0  0  0
  -23.4180  -28.9990   23.4200 O   0  0  0  0  0  0  0  0  0  0  0  0
  -20.9120  -29.9980   21.7980 H   0  0  0  0  0  0  0  0  0  0  0  0
  -18.0790  -28.0690   22.8870 C   0  0  0  0  0  0  0  0  0  0  0  0
  -20.6170  -28.4450   23.2090 C   0  0  0  0  0  3  0  0  0  0  0  0
  -20.7980  -27.0340   22.6060 C   0  0  0  0  0  2  0  0  0  0  0  0
  -19.7310  -26.6840   21.5620 C   0  0  0  0  0  2  0  0  0  0  0  0
  -18.3310  -26.7490   22.1790 C   0  0  0  0  0  2  0  0  0  0  0  0
  -19.1520  -28.8710   23.3570 C   0  0  0  0  0  0  0  0  0  0  0  0
  -18.8640  -30.1040   23.9800 C   0  0  0  0  0  3  0  0  0  0  0  0
  -17.5330  -30.5390   24.1370 C   0  0  0  0  0  3  0  0  0  0  0  0
  -16.4740  -29.7330   23.6830 C   0  0  0  0  0  3  0  0  0  0  0  0
  -16.7460  -28.5020   23.0620 C   0  0  0  0  0  3  0  0  0  0  0  0
  -25.9830  -32.5470   23.9900 C   0  0  0  0  0  3  0  0  0  0  0  0
  -25.7180  -33.9440   24.3730 N   0  0  0  0  0  0  0  0  0  0  0  0
  -26.0660  -35.0140   23.6430 C   0  0  0  0  0  0  0  0  0  0  0  0
  -26.7100  -34.9230   22.5960 O   0  0  0  0  0  0  0  0  0  0  0  0
  -25.1440  -34.0900   25.1890 H   0  0  0  0  0  0  0  0  0  0  0  0
  -24.3920  -36.8760   23.3880 C   0  0  0  0  0  1  0  0  0  0  0  0
  -25.6350  -36.4010   24.1590 C   0  0  0  0  0  3  0  0  0  0  0  0
  -27.8060  -37.1950   24.9840 C   0  0  0  0  0  1  0  0  0  0  0  0
  -26.6990  -37.4240   24.0610 N   0  0  0  0  0  0  0  0  0  0  0  0
  -26.3230  -38.3510   24.2420 H   0  0  0  0  0  0  0  0  0  0  0  0
  -26.4950  -31.7270   25.2400 C   0  0  1  0  0  0  0  0  0  0  0  0
  -25.4110  -31.4910   26.3190 C   0  0  0  0  0  1  0  0  0  0  0  0
  -27.0400  -30.3420   24.8190 C   0  0  0  0  0  1  0  0  0  0  0  0
  -27.6780  -32.4740   25.9040 C   0  0  0  0  0  1  0  0  0  0  0  0
  -29.6210  -17.1870   19.8390 C   0  0  0  0  0  3  0  0  0  0  0  0
  -30.3510  -15.5750   19.6140 C   0  0  0  0  0  0  0  0  0  0  0  0
  -30.3500  -13.0450   18.9910 C   0  0  0  0  0  2  0  0  0  0  0  0
  -29.3650  -12.8030   17.8290 C   0  0  0  0  0  2  0  0  0  0  0  0
  -27.9580  -12.4990   18.3680 C   0  0  0  0  0  2  0  0  0  0  0  0
  -27.5460  -13.4870   19.4890 C   0  0  0  0  0  3  0  0  0  0  0  0
  -28.6680  -13.7760   20.5150 C   0  0  0  0  0  2  0  0  0  0  0  0
  -29.8440  -14.2470   19.7590 N   0  0  0  0  0  0  0  0  0  0  0  0
  -31.5310  -15.5260   19.2430 O   0  0  0  0  0  0  0  0  0  0  0  0
  -25.2330  -13.9660   20.4500 C   0  0  0  0  0  0  0  0  0  0  0  0
  -24.2110  -13.1480   20.8670 C   0  0  0  0  0  0  0  0  0  0  0  0
  -24.6970  -11.8150   20.7480 C   0  0  0  0  0  0  0  0  0  0  0  0
  -26.2710  -13.1220   20.0990 N   0  0  0  0  0  0  0  0  0  0  0  0
  -25.9660  -11.8210   20.3500 N   0  0  0  0  0  0  0  0  0  0  0  0
  -24.0010  -10.5300   20.9400 C   0  0  0  0  0  0  0  0  0  0  0  0
  -24.4730   -9.5690   21.8580 C   0  0  0  0  0  3  0  0  0  0  0  0
  -23.7790   -8.3540   22.0430 C   0  0  0  0  0  3  0  0  0  0  0  0
  -22.6000   -8.0890   21.3080 C   0  0  0  0  0  0  0  0  0  0  0  0
  -22.1440   -9.0400   20.3790 C   0  0  0  0  0  3  0  0  0  0  0  0
  -22.8380  -10.2490   20.1950 C   0  0  0  0  0  3  0  0  0  0  0  0
  -21.8740   -6.9280   21.4030 O   0  0  0  0  0  0  0  0  0  0  0  0
  -21.8020   -6.2120   22.5720 C   0  0  0  0  0  0  0  0  0  0  0  0
  -21.2870   -6.7780   23.7570 C   0  0  0  0  0  3  0  0  0  0  0  0
  -21.1710   -5.9910   24.9200 C   0  0  0  0  0  3  0  0  0  0  0  0
  -21.5560   -4.6380   24.8960 C   0  0  0  0  0  0  0  0  0  0  0  0
  -22.0590   -4.0680   23.7130 C   0  0  0  0  0  3  0  0  0  0  0  0
  -22.1790   -4.8550   22.5520 C   0  0  0  0  0  0  0  0  0  0  0  0
  -22.6490   -4.2980   21.4110 F   0  0  0  0  0  0  0  0  0  0  0  0
  -21.4340   -3.8760   26.0100 F   0  0  0  0  0  0  0  0  0  0  0  0
  -22.8280  -13.5910   21.2520 C   0  0  0  0  0  0  0  0  0  0  0  0
  -22.1870  -12.8470   22.1520 N   0  0  0  0  0  0  0  0  0  0  0  0
  -22.3310  -14.6200   20.8040 O   0  0  0  0  0  0  0  0  0  0  0  0
  -22.6140  -12.0180   22.5370 H   0  0  0  0  0  0  0  0  0  0  0  0
  -21.2670  -13.1150   22.4670 H   0  0  0  0  0  0  0  0  0  0  0  0
  -25.3460  -15.3430   20.3170 N   0  0  0  0  0  0  0  0  0  0  0  0
  -24.5600  -15.9550   20.5210 H   0  0  0  0  0  0  0  0  0  0  0  0
  -26.1530  -15.8370   19.9480 H   0  0  0  0  0  0  0  0  0  0  0  0
  -29.5970  -17.5360   21.3580 C   0  0  0  0  0  2  0  0  0  0  0  0
  -31.0580  -19.4770   21.9300 C   0  0  0  0  0  1  0  0  0  0  0  0
  -31.0610  -17.5190   23.4710 C   0  0  0  0  0  1  0  0  0  0  0  0
  -30.9230  -17.9790   22.0250 C   0  0  0  0  0  3  0  0  0  0  0  0
  1  3  1  0
  2  4  1  0
  2  1  2  0
  3  5  2  0
  3  8  1  0
  4  7  2  0
  5 52  1  0
  6  4  1  0
  7  5  1  0
  9  8  2  0
  9 10  1  0
 11 10  1  0
 11 13  1  0
 12 23  2  0
 13 18  1  0
 14 22  1  0
 14 24  1  0
 15 21  1  0
 15 17  1  0
 16 22  1  0
 17 16  1  0
 18 17  2  0
 19 20  1  0
 19 13  2  0
 20 15  2  0
 21 14  1  0
 22 12  1  0
 24 26  2  0
 25 24  1  0
 27 25  1  0
 28 37  2  0
 28 33  1  0
 29 25  1  0
 29 33  1  0
 30 29  1  0
 31 32  1  0
 31 30  1  0
 32 28  1  0
 33 34  2  0
 34 35  1  0
 36 35  2  0
 37 36  1  0
 38 12  1  0
 38 39  1  0
 38 48  1  0
 39 42  1  0
 40 44  1  0
 40 39  1  0
 41 40  2  0
 44 43  1  0
 46 44  1  0
 46 47  1  0
 46 45  1  0
 48 51  1  1
 48 49  1  0
 50 48  1  0
 52 89  1  0
 53 59  1  0
 53 52  1  0
 54 59  1  0
 55 56  1  0
 55 54  1  0
 57 56  1  0
 57 64  1  0
 57 58  1  0
 59 58  1  0
 60 53  2  0
 61 62  2  0
 62 81  1  0
 63 62  1  0
 63 66  1  0
 64 65  1  0
 64 61  1  0
 65 63  2  0
 66 67  1  0
 67 68  2  0
 69 72  1  0
 69 68  1  0
 70 69  2  0
 71 70  1  0
 71 66  2  0
 72 73  1  0
 73 74  1  0
 74 75  2  0
 76 75  1  0
 76 80  1  0
 77 76  2  0
 78 73  2  0
 78 77  1  0
 79 78  1  0
 81 82  1  0
 82 85  1  0
 82 84  1  0
 83 81  2  0
 86 61  1  0
 86 87  1  0
 88 86  1  0
 89 92  1  0
 90 92  1  0
 92 91  1  0
M  ISO  4  10 101  11 101  52 100  53 100
M  END
>  <TORSDO>  (61) 
F 22

>  <SCORE>  (61) 
-14.654

>  <name>  (61) 
63

>  <ligand_id>  (61) 
63

>  <original_smiles>  (61) 
[H]c1c(C([H])([H])[H])nc(C([H])(C(=O)N2C([H])([H])C([H])([H])C([H])([H])C([H])(n3nc(-c4c([H])c([H])c(Oc5c([H])c([H])c(F)c([H])c5F)c([H])c4[H])c(C(=O)N([H])[H])c3N([H])[H])C2([H])[H])C([H])([H])C([H])(C([H])([H])[H])C([H])([H])[H])c(C([H])([H])C([H])([H])C([H])([H])Oc2c([H])c([H])c3c(c2[H])C([H])([H])N(C(=O)C([H])(N([H])C(=O)C([H])(N([H])C([H])([H])[H])C([H])([H])[H])C(C([H])([H])[H])(C([H])([H])[H])C([H])([H])[H])C([H])(C(=O)N([H])C2([H])c4c([H])c([H])c([H])c([H])c4C([H])([H])C([H])([H])C2([H])[H])C3([H])[H])c1[H]

>  <smiles>  (61) 
[H]c1c(C([H])([H])[H])nc(C([H])(C(=O)N2C([H])([H])C([H])([H])C([H])([H])C([H])(n3nc(-c4c([H])c([H])c(Oc5c([H])c([H])c(F)c([H])c5F)c([H])c4[H])c(C(=O)N([H])[H])c3N([H])[H])C2([H])[H])C([H])([H])C([H])(C([H])([H])[H])C([H])([H])[H])c(C([H])([H])C([H])([H])C([H])([H])Oc2c([H])c([H])c3c(c2[H])C([H])([H])N(C(=O)C([H])(N([H])C(=O)C([H])(N([H])C([H])([H])[H])C([H])([H])[H])C(C([H])([H])[H])(C([H])([H])[H])C([H])([H])[H])C([H])(C(=O)N([H])C2([H])c4c([H])c([H])c([H])c([H])c4C([H])([H])C([H])([H])C2([H])[H])C3([H])[H])c1[H]

$$$$
64:0:0
     RDKit          3D

 94102  0  0  1  0  0  0  0  0999 V2000
  -30.3720  -17.1120   22.5320 C   0  0  0  0  0  0  0  0  0  0  0  0
  -30.7560  -17.0990   21.2020 C   0  0  0  0  0  0  0  0  0  0  0  0
  -31.1970  -19.0600   22.1180 C   0  0  0  0  0  3  0  0  0  0  0  0
  -29.7130  -16.0480   23.3610 C   0  0  0  0  0  1  0  0  0  0  0  0
  -30.7290  -18.3180   23.1140 N   0  0  0  0  0  2  0  0  0  0  0  0
  -31.0720  -18.4630   20.9080 N   0  0  0  0  0  0  0  0  0  0  0  0
  -30.7880  -15.8800   20.2530 C   0  0  0  0  0  2  0  0  0  0  0  0
  -31.8080  -13.6220   19.8640 C   0  0  0  0  0  0  0  0  0  0  0  0
  -31.2530  -11.3870   18.9270 C   0  0  0  0  0  2  0  0  0  0  0  0
  -30.2170  -11.5200   17.7950 C   0  0  0  0  0  2  0  0  0  0  0  0
  -28.7820  -11.5300   18.3610 C   0  0  0  0  0  2  0  0  0  0  0  0
  -28.6200  -12.5100   19.5580 C   0  0  0  0  0  3  0  0  0  0  0  0
  -29.7580  -12.3200   20.5850 C   0  0  0  0  0  2  0  0  0  0  0  0
  -31.0370  -12.4890   19.8830 N   0  0  0  0  0  0  0  0  0  0  0  0
  -32.8150  -13.6980   19.1460 O   0  0  0  0  0  0  0  0  0  0  0  0
  -32.5150  -14.8880   21.7640 C   0  0  0  0  0  1  0  0  0  0  0  0
  -31.4940  -14.6350   20.7300 N   0  0  0  0  0  0  0  0  0  0  0  0
  -26.4390  -13.3870   20.6040 C   0  0  0  0  0  0  0  0  0  0  0  0
  -25.3220  -12.7440   21.0630 C   0  0  0  0  0  0  0  0  0  0  0  0
  -25.5690  -11.3470   20.8880 C   0  0  0  0  0  0  0  0  0  0  0  0
  -27.3060  -12.3870   20.1830 N   0  0  0  0  0  0  0  0  0  0  0  0
  -26.7900  -11.1500   20.4090 N   0  0  0  0  0  0  0  0  0  0  0  0
  -24.6870  -10.1910   21.0910 C   0  0  0  0  0  0  0  0  0  0  0  0
  -25.0110   -9.1690   22.0120 C   0  0  0  0  0  3  0  0  0  0  0  0
  -24.1370   -8.0770   22.2050 C   0  0  0  0  0  3  0  0  0  0  0  0
  -22.9250   -8.0030   21.4790 C   0  0  0  0  0  0  0  0  0  0  0  0
  -22.6180   -9.0090   20.5450 C   0  0  0  0  0  3  0  0  0  0  0  0
  -23.4900  -10.0920   20.3500 C   0  0  0  0  0  3  0  0  0  0  0  0
  -22.0230   -6.9700   21.5890 O   0  0  0  0  0  0  0  0  0  0  0  0
  -21.8430   -6.2910   22.7670 C   0  0  0  0  0  0  0  0  0  0  0  0
  -21.4520   -6.9490   23.9550 C   0  0  0  0  0  3  0  0  0  0  0  0
  -21.2080   -6.2030   25.1260 C   0  0  0  0  0  3  0  0  0  0  0  0
  -21.3450   -4.8010   25.1100 C   0  0  0  0  0  0  0  0  0  0  0  0
  -21.7250   -4.1430   23.9260 C   0  0  0  0  0  3  0  0  0  0  0  0
  -21.9700   -4.8860   22.7570 C   0  0  0  0  0  0  0  0  0  0  0  0
  -22.3150   -4.2460   21.6150 F   0  0  0  0  0  0  0  0  0  0  0  0
  -21.1030   -4.0830   26.2310 F   0  0  0  0  0  0  0  0  0  0  0  0
  -24.0510  -13.3920   21.5370 C   0  0  0  0  0  0  0  0  0  0  0  0
  -23.3690  -12.7870   22.5060 N   0  0  0  0  0  0  0  0  0  0  0  0
  -23.6750  -14.4690   21.0780 O   0  0  0  0  0  0  0  0  0  0  0  0
  -23.6770  -11.9170   22.9150 H   0  0  0  0  0  0  0  0  0  0  0  0
  -22.5140  -13.2070   22.8440 H   0  0  0  0  0  0  0  0  0  0  0  0
  -26.7800  -14.7330   20.4930 N   0  0  0  0  0  0  0  0  0  0  0  0
  -26.1340  -15.4700   20.7590 H   0  0  0  0  0  0  0  0  0  0  0  0
  -27.6440  -15.0910   20.1080 H   0  0  0  0  0  0  0  0  0  0  0  0
  -31.8800  -20.3890   22.3420 C   0  0  0  0  0  2  0  0  0  0  0  0
  -31.5790  -22.9010   22.6960 C   0  0  0  0  0  1  0  0  0  0  0  0
  -30.9840  -21.5000   22.9250 C   0  0  0  0  0  2  0  0  0  0  0  0
  -31.3380  -19.1460   19.6080 C   0  0  0  0  0  2  0  0  0  0  0  0
  -30.3780  -20.3760   19.2940 C   0  0  0  0  0  2  0  0  0  0  0  0
  -31.0020  -21.7690   18.8810 C   0  0  0  0  0  2  0  0  0  0  0  0
  -30.5270  -23.0760   19.6490 C   0  0  0  0  0  3  0  0  0  0  0  0
  -30.7500  -24.4380   18.8770 C   0  0  0  0  0  3  0  0  0  0  0  0
  -30.6530  -25.7160   19.6040 O   0  0  0  0  0  0  0  0  0  0  0  0
  -26.3680  -29.6050   23.8610 C   0  0  0  0  0  0  0  0  0  0  0  0
  -29.4730  -26.4640   19.6990 C   0  0  0  0  0  0  0  0  0  0  0  0
  -25.3980  -28.8730   21.7110 C   0  0  0  0  0  3  0  0  0  0  0  0
  -27.0460  -27.9420   19.9960 C   0  0  0  0  0  0  0  0  0  0  0  0
  -27.9240  -29.2600   21.9290 C   0  0  0  0  0  2  0  0  0  0  0  0
  -28.1230  -28.2020   20.8520 C   0  0  0  0  0  0  0  0  0  0  0  0
  -29.3370  -27.4720   20.7000 C   0  0  0  0  0  3  0  0  0  0  0  0
  -28.3670  -26.2460   18.8440 C   0  0  0  0  0  3  0  0  0  0  0  0
  -27.1690  -26.9730   18.9900 C   0  0  0  0  0  3  0  0  0  0  0  0
  -25.7760  -28.7380   20.2130 C   0  0  0  0  0  2  0  0  0  0  0  0
  -26.5760  -29.2430   22.5620 N   0  0  0  0  0  0  0  0  0  0  0  0
  -25.2240  -29.6620   24.3380 O   0  0  0  0  0  0  0  0  0  0  0  0
  -24.6910  -27.5760   22.1700 C   0  0  0  0  0  0  0  0  0  0  0  0
  -23.4420  -27.3740   21.7200 N   0  0  0  0  0  0  0  0  0  0  0  0
  -25.2730  -26.7660   22.8980 O   0  0  0  0  0  0  0  0  0  0  0  0
  -23.0240  -28.0910   21.1420 H   0  0  0  0  0  0  0  0  0  0  0  0
  -20.2540  -25.8240   20.9890 C   0  0  0  0  0  0  0  0  0  0  0  0
  -22.6090  -26.2010   21.9910 C   0  0  0  0  0  3  0  0  0  0  0  0
  -23.0540  -24.9900   21.1380 C   0  0  0  0  0  2  0  0  0  0  0  0
  -22.2870  -24.8680   19.8170 C   0  0  0  0  0  2  0  0  0  0  0  0
  -20.7840  -24.7250   20.0830 C   0  0  0  0  0  2  0  0  0  0  0  0
  -21.1150  -26.5280   21.8740 C   0  0  0  0  0  0  0  0  0  0  0  0
  -20.5810  -27.5620   22.6690 C   0  0  0  0  0  3  0  0  0  0  0  0
  -19.2160  -27.8990   22.5940 C   0  0  0  0  0  3  0  0  0  0  0  0
  -18.3660  -27.1900   21.7280 C   0  0  0  0  0  3  0  0  0  0  0  0
  -18.8830  -26.1530   20.9330 C   0  0  0  0  0  3  0  0  0  0  0  0
  -27.5540  -29.9850   24.8030 C   0  0  0  0  0  3  0  0  0  0  0  0
  -27.2040  -31.2430   25.4780 N   0  0  0  0  0  0  0  0  0  0  0  0
  -27.6900  -32.4450   25.1510 C   0  0  0  0  0  0  0  0  0  0  0  0
  -28.5490  -32.6050   24.2780 O   0  0  0  0  0  0  0  0  0  0  0  0
  -26.4730  -31.1950   26.1760 H   0  0  0  0  0  0  0  0  0  0  0  0
  -26.1020  -34.3910   25.0300 C   0  0  0  0  0  1  0  0  0  0  0  0
  -27.1370  -33.6690   25.9080 C   0  0  0  0  0  3  0  0  0  0  0  0
  -29.0590  -34.0950   27.3750 C   0  0  0  0  0  1  0  0  0  0  0  0
  -28.1850  -34.6240   26.3300 N   0  0  0  0  0  0  0  0  0  0  0  0
  -27.7690  -35.4870   26.6710 H   0  0  0  0  0  0  0  0  0  0  0  0
  -27.8910  -28.8620   25.8580 C   0  0  1  0  0  0  0  0  0  0  0  0
  -26.6720  -28.3910   26.6820 C   0  0  0  0  0  1  0  0  0  0  0  0
  -28.4940  -27.6220   25.1600 C   0  0  0  0  0  1  0  0  0  0  0  0
  -28.9650  -29.3750   26.8430 C   0  0  0  0  0  1  0  0  0  0  0  0
  1  5  1  0
  1  4  1  0
  2  1  2  0
  3 46  1  0
  3  5  1  0
  6  2  1  0
  6  3  1  0
  7 17  1  0
  7  2  1  0
  8 14  1  0
  8 17  1  0
  9 14  1  0
 10 11  1  0
 10  9  1  0
 12 11  1  0
 12 21  1  0
 12 13  1  0
 14 13  1  0
 15  8  2  0
 17 16  1  0
 18 19  2  0
 19 38  1  0
 20 19  1  0
 20 23  1  0
 21 22  1  0
 21 18  1  0
 22 20  2  0
 23 24  1  0
 24 25  2  0
 26 29  1  0
 26 25  1  0
 27 26  2  0
 28 27  1  0
 28 23  2  0
 29 30  1  0
 30 31  1  0
 31 32  2  0
 33 32  1  0
 33 37  1  0
 34 33  2  0
 35 30  2  0
 35 34  1  0
 36 35  1  0
 38 39  1  0
 39 42  1  0
 39 41  1  0
 40 38  2  0
 43 18  1  0
 43 44  1  0
 45 43  1  0
 46 48  1  0
 47 48  1  0
 49  6  1  0
 50 49  1  0
 51 50  1  0
 51 52  1  0
 53 54  1  0
 53 52  2  0
 54 56  1  0
 55 66  2  0
 56 61  1  0
 57 67  1  0
 57 65  1  0
 58 64  1  0
 58 60  1  0
 59 65  1  0
 60 59  1  0
 61 60  2  0
 62 63  1  0
 62 56  2  0
 63 58  2  0
 64 57  1  0
 65 55  1  0
 67 69  2  0
 68 67  1  0
 70 68  1  0
 71 76  1  0
 72 68  1  0
 73 72  1  0
 74 75  1  0
 74 73  1  0
 75 71  1  0
 76 72  1  0
 76 77  2  0
 78 77  1  0
 79 78  2  0
 80 71  2  0
 80 79  1  0
 81 55  1  0
 81 82  1  0
 81 91  1  0
 82 85  1  0
 83 82  1  0
 83 87  1  0
 84 83  2  0
 87 86  1  0
 87 89  1  0
 89 90  1  0
 89 88  1  0
 91 92  1  1
 91 94  1  0
 93 91  1  0
M  ISO  4   8 100  17 100  53 101  54 101
M  END
>  <TORSDO>  (62) 
F 24

>  <SCORE>  (62) 
-2.757

>  <name>  (62) 
64

>  <ligand_id>  (62) 
64

>  <original_smiles>  (62) 
[H]c1c([H])c([H])c2c(c1[H])C([H])([H])C([H])([H])C([H])([H])C2([H])N([H])C(=O)C1([H])N(C(=O)C([H])(N([H])C(=O)C([H])(N([H])C([H])([H])[H])C([H])([H])[H])C(C([H])([H])[H])(C([H])([H])[H])C([H])([H])[H])C([H])([H])c2c([H])c(OC([H])([H])C([H])([H])C([H])([H])C([H])([H])C([H])([H])n3c(C([H])([H])C([H])([H])C([H])([H])[H])nc(C([H])([H])[H])c3C([H])([H])N(C(=O)N3C([H])([H])C([H])([H])C([H])([H])C([H])(n4nc(-c5c([H])c([H])c(Oc6c([H])c([H])c(F)c([H])c6F)c([H])c5[H])c(C(=O)N([H])[H])c4N([H])[H])C3([H])[H])C([H])([H])[H])c([H])c([H])c2C1([H])[H]

>  <smiles>  (62) 
[H]c1c([H])c([H])c2c(c1[H])C([H])([H])C([H])([H])C([H])([H])C2([H])N([H])C(=O)C1([H])N(C(=O)C([H])(N([H])C(=O)C([H])(N([H])C([H])([H])[H])C([H])([H])[H])C(C([H])([H])[H])(C([H])([H])[H])C([H])([H])[H])C([H])([H])c2c([H])c(OC([H])([H])C([H])([H])C([H])([H])C([H])([H])C([H])([H])n3c(C([H])([H])C([H])([H])C([H])([H])[H])nc(C([H])([H])[H])c3C([H])([H])N(C(=O)N3C([H])([H])C([H])([H])C([H])([H])C([H])(n4nc(-c5c([H])c([H])c(Oc6c([H])c([H])c(F)c([H])c6F)c([H])c5[H])c(C(=O)N([H])[H])c4N([H])[H])C3([H])[H])C([H])([H])[H])c([H])c([H])c2C1([H])[H]

$$$$
65:0:0
     RDKit          3D

 91 99  0  0  1  0  0  0  0  0999 V2000
  -30.4450  -15.3470   20.3700 C   0  0  0  0  0  0  0  0  0  0  0  0
  -30.3600  -12.9060   19.4760 C   0  0  0  0  0  2  0  0  0  0  0  0
  -29.4600  -12.6950   18.2370 C   0  0  0  0  0  2  0  0  0  0  0  0
  -28.0150  -12.4090   18.6710 C   0  0  0  0  0  2  0  0  0  0  0  0
  -27.5500  -13.3710   19.7930 C   0  0  0  0  0  3  0  0  0  0  0  0
  -28.5890  -13.5590   20.9190 C   0  0  0  0  0  2  0  0  0  0  0  0
  -29.8160  -14.0680   20.2810 N   0  0  0  0  0  0  0  0  0  0  0  0
  -31.6670  -15.2170   20.1960 O   0  0  0  0  0  0  0  0  0  0  0  0
  -31.1530  -20.6090   20.3590 C   0  0  0  0  0  3  0  0  0  0  0  0
  -30.0040  -19.7760   20.4210 C   0  0  0  0  0  0  0  0  0  0  0  0
  -32.4580  -20.1400   20.2530 C   0  0  0  0  0  0  0  0  0  0  0  0
  -30.3810  -18.2110   20.3980 C   0  0  0  0  0  0  0  0  0  0  0  0
  -32.7240  -18.8360   20.2140 N   0  0  0  0  0  0  0  0  0  0  0  0
  -31.7210  -17.9740   20.3010 N   0  0  0  0  0  0  0  0  0  0  0  0
  -29.7940  -16.7050   20.4420 N   0  0  0  0  0  0  0  0  0  0  0  0
  -28.7880  -16.6660   20.5060 H   0  0  0  0  0  0  0  0  0  0  0  0
  -25.1730  -13.8950   20.5390 C   0  0  0  0  0  0  0  0  0  0  0  0
  -24.1190  -13.1040   20.8980 C   0  0  0  0  0  0  0  0  0  0  0  0
  -24.6030  -11.7590   20.8710 C   0  0  0  0  0  0  0  0  0  0  0  0
  -26.2270  -13.0340   20.3010 N   0  0  0  0  0  0  0  0  0  0  0  0
  -25.8980  -11.7430   20.5700 N   0  0  0  0  0  0  0  0  0  0  0  0
  -23.8900  -10.4870   21.0490 C   0  0  0  0  0  0  0  0  0  0  0  0
  -24.3160   -9.5250   21.9910 C   0  0  0  0  0  3  0  0  0  0  0  0
  -23.5980   -8.3220   22.1610 C   0  0  0  0  0  3  0  0  0  0  0  0
  -22.4400   -8.0720   21.3870 C   0  0  0  0  0  0  0  0  0  0  0  0
  -22.0330   -9.0210   20.4340 C   0  0  0  0  0  3  0  0  0  0  0  0
  -22.7530  -10.2170   20.2620 C   0  0  0  0  0  3  0  0  0  0  0  0
  -21.6940   -6.9190   21.4650 O   0  0  0  0  0  0  0  0  0  0  0  0
  -21.6200   -6.1880   22.6220 C   0  0  0  0  0  0  0  0  0  0  0  0
  -21.1380   -6.7450   23.8270 C   0  0  0  0  0  3  0  0  0  0  0  0
  -21.0130   -5.9400   24.9760 C   0  0  0  0  0  3  0  0  0  0  0  0
  -21.3580   -4.5760   24.9220 C   0  0  0  0  0  0  0  0  0  0  0  0
  -21.8320   -4.0170   23.7220 C   0  0  0  0  0  3  0  0  0  0  0  0
  -21.9600   -4.8200   22.5750 C   0  0  0  0  0  0  0  0  0  0  0  0
  -22.3970   -4.2710   21.4160 F   0  0  0  0  0  0  0  0  0  0  0  0
  -21.2310   -3.8000   26.0230 F   0  0  0  0  0  0  0  0  0  0  0  0
  -22.7140  -13.5620   21.1530 C   0  0  0  0  0  0  0  0  0  0  0  0
  -21.9860  -12.8630   22.0160 N   0  0  0  0  0  0  0  0  0  0  0  0
  -22.2690  -14.5790   20.6200 O   0  0  0  0  0  0  0  0  0  0  0  0
  -22.3600  -12.0410   22.4680 H   0  0  0  0  0  0  0  0  0  0  0  0
  -21.0420  -13.1530   22.2300 H   0  0  0  0  0  0  0  0  0  0  0  0
  -25.3190  -15.2690   20.3640 N   0  0  0  0  0  0  0  0  0  0  0  0
  -24.5410  -15.9110   20.4620 H   0  0  0  0  0  0  0  0  0  0  0  0
  -26.1570  -15.7160   20.0180 H   0  0  0  0  0  0  0  0  0  0  0  0
  -34.2620  -21.0710   18.7360 C   0  0  0  0  0  1  0  0  0  0  0  0
  -34.6590  -20.9210   21.2540 C   0  0  0  0  0  1  0  0  0  0  0  0
  -33.6280  -21.1110   20.1340 C   0  0  0  0  0  3  0  0  0  0  0  0
  -28.7470  -20.9780   20.4740 C   0  0  0  0  0  2  0  0  0  0  0  0
  -28.9460  -22.7970   20.4460 C   0  0  0  0  0  3  0  0  0  0  0  0
  -27.9050  -24.2680   20.3900 C   0  0  0  0  0  3  0  0  0  0  0  0
  -28.1820  -25.8980   20.4180 O   0  0  0  0  0  0  0  0  0  0  0  0
  -24.6440  -31.9340   23.2670 C   0  0  0  0  0  0  0  0  0  0  0  0
  -27.1810  -27.0010   20.3400 C   0  0  0  0  0  0  0  0  0  0  0  0
  -23.4570  -30.5320   21.6300 C   0  0  0  0  0  3  0  0  0  0  0  0
  -24.9060  -28.9030   20.2390 C   0  0  0  0  0  0  0  0  0  0  0  0
  -26.0260  -30.7200   21.5080 C   0  0  0  0  0  2  0  0  0  0  0  0
  -26.0900  -29.3020   20.8700 C   0  0  0  0  0  0  0  0  0  0  0  0
  -27.2240  -28.3720   20.8950 C   0  0  0  0  0  3  0  0  0  0  0  0
  -25.9690  -26.7510   19.6590 C   0  0  0  0  0  3  0  0  0  0  0  0
  -24.8710  -27.6470   19.6110 C   0  0  0  0  0  3  0  0  0  0  0  0
  -23.6960  -29.8350   20.2620 C   0  0  0  0  0  2  0  0  0  0  0  0
  -24.7300  -31.0900   22.1890 N   0  0  0  0  0  0  0  0  0  0  0  0
  -23.5510  -32.2380   23.7730 O   0  0  0  0  0  0  0  0  0  0  0  0
  -22.7440  -29.5500   22.5990 C   0  0  0  0  0  0  0  0  0  0  0  0
  -21.4140  -29.3970   22.4640 N   0  0  0  0  0  0  0  0  0  0  0  0
  -23.3950  -28.9270   23.4400 O   0  0  0  0  0  0  0  0  0  0  0  0
  -20.9420  -29.9500   21.7620 H   0  0  0  0  0  0  0  0  0  0  0  0
  -18.0120  -28.2340   22.9610 C   0  0  0  0  0  0  0  0  0  0  0  0
  -20.5740  -28.4760   23.2370 C   0  0  0  0  0  3  0  0  0  0  0  0
  -20.6630  -27.0380   22.6750 C   0  0  0  0  0  2  0  0  0  0  0  0
  -19.5630  -26.7200   21.6570 C   0  0  0  0  0  2  0  0  0  0  0  0
  -18.1790  -26.8800   22.2920 C   0  0  0  0  0  2  0  0  0  0  0  0
  -19.1350  -28.9910   23.3900 C   0  0  0  0  0  0  0  0  0  0  0  0
  -18.9230  -30.2560   23.9810 C   0  0  0  0  0  3  0  0  0  0  0  0
  -17.6220  -30.7640   24.1430 C   0  0  0  0  0  3  0  0  0  0  0  0
  -16.5130  -30.0080   23.7280 C   0  0  0  0  0  3  0  0  0  0  0  0
  -16.7080  -28.7440   23.1420 C   0  0  0  0  0  3  0  0  0  0  0  0
  -25.9120  -32.5740   23.9080 C   0  0  0  0  0  3  0  0  0  0  0  0
  -26.3980  -31.8170   25.2060 C   0  0  1  0  0  0  0  0  0  0  0  0
  -25.2840  -31.6040   26.2580 C   0  0  0  0  0  1  0  0  0  0  0  0
  -26.9740  -30.4280   24.8490 C   0  0  0  0  0  1  0  0  0  0  0  0
  -27.5470  -32.6090   25.8720 C   0  0  0  0  0  1  0  0  0  0  0  0
  -25.6000  -33.9790   24.2270 N   0  0  0  0  0  0  0  0  0  0  0  0
  -25.9270  -35.0300   23.4630 C   0  0  0  0  0  0  0  0  0  0  0  0
  -26.5840  -34.9210   22.4260 O   0  0  0  0  0  0  0  0  0  0  0  0
  -25.0120  -34.1370   25.0330 H   0  0  0  0  0  0  0  0  0  0  0  0
  -24.1900  -36.8270   23.1410 C   0  0  0  0  0  1  0  0  0  0  0  0
  -25.4520  -36.4260   23.9220 C   0  0  0  0  0  3  0  0  0  0  0  0
  -27.6060  -37.3230   24.6910 C   0  0  0  0  0  1  0  0  0  0  0  0
  -26.4820  -37.4770   23.7710 N   0  0  0  0  0  0  0  0  0  0  0  0
  -26.0800  -38.4000   23.9150 H   0  0  0  0  0  0  0  0  0  0  0  0
  1 15  1  0
  2  7  1  0
  3  4  1  0
  3  2  1  0
  5  4  1  0
  5 20  1  0
  5  6  1  0
  7  1  1  0
  7  6  1  0
  8  1  2  0
  9 10  1  0
 10 48  1  0
 11  9  2  0
 12 10  2  0
 12 15  1  0
 13 11  1  0
 13 14  2  0
 14 12  1  0
 15 16  1  0
 17 18  2  0
 18 37  1  0
 19 18  1  0
 19 22  1  0
 20 17  1  0
 20 21  1  0
 21 19  2  0
 22 23  1  0
 23 24  2  0
 25 28  1  0
 25 24  1  0
 26 25  2  0
 27 26  1  0
 27 22  2  0
 28 29  1  0
 29 30  1  0
 30 31  2  0
 32 31  1  0
 32 36  1  0
 33 32  2  0
 34 29  2  0
 34 33  1  0
 35 34  1  0
 37 38  1  0
 38 41  1  0
 38 40  1  0
 39 37  2  0
 42 43  1  0
 42 17  1  0
 44 42  1  0
 45 47  1  0
 47 11  1  0
 47 46  1  0
 49 48  1  0
 50 51  1  0
 50 49  2  0
 52 63  2  0
 53 51  1  0
 53 58  1  0
 54 62  1  0
 54 64  1  0
 55 61  1  0
 55 57  1  0
 56 62  1  0
 57 58  2  0
 57 56  1  0
 59 53  2  0
 60 59  1  0
 60 55  2  0
 61 54  1  0
 62 52  1  0
 64 66  2  0
 65 64  1  0
 67 65  1  0
 68 77  2  0
 68 73  1  0
 69 65  1  0
 69 73  1  0
 70 69  1  0
 71 72  1  0
 71 70  1  0
 72 68  1  0
 73 74  2  0
 74 75  1  0
 76 75  2  0
 77 76  1  0
 78 52  1  0
 78 83  1  0
 78 79  1  0
 79 82  1  1
 79 80  1  0
 81 79  1  0
 83 86  1  0
 84 88  1  0
 84 83  1  0
 85 84  2  0
 88 87  1  0
 90 91  1  0
 90 88  1  0
 90 89  1  0
M  ISO  4   1 100  15 100  50 101  51 101
M  END
>  <TORSDO>  (63) 
F 19

>  <SCORE>  (63) 
-16.298

>  <name>  (63) 
65

>  <ligand_id>  (63) 
65

>  <original_smiles>  (63) 
[H]c1c([H])c([H])c2c(c1[H])C([H])([H])C([H])([H])C([H])([H])C2([H])N([H])C(=O)C1([H])N(C(=O)C([H])(N([H])C(=O)C([H])(N([H])C([H])([H])[H])C([H])([H])[H])C(C([H])([H])[H])(C([H])([H])[H])C([H])([H])[H])C([H])([H])c2c([H])c(OC([H])([H])C([H])([H])C([H])([H])c3c(N([H])C(=O)N4C([H])([H])C([H])([H])C([H])([H])C([H])(n5nc(-c6c([H])c([H])c(Oc7c([H])c([H])c(F)c([H])c7F)c([H])c6[H])c(C(=O)N([H])[H])c5N([H])[H])C4([H])[H])nnc(C([H])(C([H])([H])[H])C([H])([H])[H])c3[H])c([H])c([H])c2C1([H])[H]

>  <smiles>  (63) 
[H]c1c([H])c([H])c2c(c1[H])C([H])([H])C([H])([H])C([H])([H])C2([H])N([H])C(=O)C1([H])N(C(=O)C([H])(N([H])C(=O)C([H])(N([H])C([H])([H])[H])C([H])([H])[H])C(C([H])([H])[H])(C([H])([H])[H])C([H])([H])[H])C([H])([H])c2c([H])c(OC([H])([H])C([H])([H])C([H])([H])c3c(N([H])C(=O)N4C([H])([H])C([H])([H])C([H])([H])C([H])(n5nc(-c6c([H])c([H])c(Oc7c([H])c([H])c(F)c([H])c7F)c([H])c6[H])c(C(=O)N([H])[H])c5N([H])[H])C4([H])[H])nnc(C([H])(C([H])([H])[H])C([H])([H])[H])c3[H])c([H])c([H])c2C1([H])[H]

$$$$
66:0:0
     RDKit          3D

 89 97  0  0  1  0  0  0  0  0999 V2000
  -28.2700  -20.2450   20.9320 C   0  0  0  0  0  3  0  0  0  0  0  0
  -28.8960  -19.3230   20.1370 C   0  0  0  0  0  0  0  0  0  0  0  0
  -29.5620  -20.0370   19.1330 N   0  0  0  0  0  0  0  0  0  0  0  0
  -29.3650  -21.3220   19.2910 N   0  0  0  0  0  0  0  0  0  0  0  0
  -28.5650  -21.4850   20.3770 N   0  0  0  0  0  0  0  0  0  0  0  0
  -28.8190  -17.7970   20.2000 C   0  0  0  0  0  2  0  0  0  0  0  0
  -30.1050  -17.0320   20.6410 C   0  0  0  0  0  2  0  0  0  0  0  0
  -30.6800  -14.5650   20.3710 C   0  0  0  0  0  0  0  0  0  0  0  0
  -30.4420  -12.3870   19.2380 C   0  0  0  0  0  2  0  0  0  0  0  0
  -29.4960  -12.6100   18.0390 C   0  0  0  0  0  2  0  0  0  0  0  0
  -28.0210  -12.4510   18.4720 C   0  0  0  0  0  2  0  0  0  0  0  0
  -27.6820  -13.2730   19.7440 C   0  0  0  0  0  3  0  0  0  0  0  0
  -28.7400  -13.0360   20.8430 C   0  0  0  0  0  2  0  0  0  0  0  0
  -30.0570  -13.3580   20.2740 N   0  0  0  0  0  0  0  0  0  0  0  0
  -31.8220  -14.7700   19.9540 O   0  0  0  0  0  0  0  0  0  0  0  0
  -29.8740  -15.5740   20.7670 N   0  0  0  0  0  0  0  0  0  0  0  0
  -28.9640  -15.2840   21.0910 H   0  0  0  0  0  0  0  0  0  0  0  0
  -25.2820  -13.8780   20.4480 C   0  0  0  0  0  0  0  0  0  0  0  0
  -24.2190  -13.1030   20.8220 C   0  0  0  0  0  0  0  0  0  0  0  0
  -24.6870  -11.7550   20.7960 C   0  0  0  0  0  0  0  0  0  0  0  0
  -26.3300  -13.0000   20.2210 N   0  0  0  0  0  0  0  0  0  0  0  0
  -25.9760  -11.7180   20.4860 N   0  0  0  0  0  0  0  0  0  0  0  0
  -23.9660  -10.4910   20.9960 C   0  0  0  0  0  0  0  0  0  0  0  0
  -24.3960   -9.5370   21.9450 C   0  0  0  0  0  3  0  0  0  0  0  0
  -23.6760   -8.3360   22.1260 C   0  0  0  0  0  3  0  0  0  0  0  0
  -22.5130   -8.0800   21.3610 C   0  0  0  0  0  0  0  0  0  0  0  0
  -22.1030   -9.0210   20.4010 C   0  0  0  0  0  3  0  0  0  0  0  0
  -22.8230  -10.2150   20.2170 C   0  0  0  0  0  3  0  0  0  0  0  0
  -21.7680   -6.9300   21.4540 O   0  0  0  0  0  0  0  0  0  0  0  0
  -21.7040   -6.2040   22.6170 C   0  0  0  0  0  0  0  0  0  0  0  0
  -21.2340   -6.7670   23.8210 C   0  0  0  0  0  3  0  0  0  0  0  0
  -21.1220   -5.9670   24.9760 C   0  0  0  0  0  3  0  0  0  0  0  0
  -21.4660   -4.6030   24.9250 C   0  0  0  0  0  0  0  0  0  0  0  0
  -21.9260   -4.0390   23.7230 C   0  0  0  0  0  3  0  0  0  0  0  0
  -22.0420   -4.8370   22.5720 C   0  0  0  0  0  0  0  0  0  0  0  0
  -22.4700   -4.2810   21.4100 F   0  0  0  0  0  0  0  0  0  0  0  0
  -21.3500   -3.8330   26.0310 F   0  0  0  0  0  0  0  0  0  0  0  0
  -22.8200  -13.5740   21.0940 C   0  0  0  0  0  0  0  0  0  0  0  0
  -22.0960  -12.8750   21.9620 N   0  0  0  0  0  0  0  0  0  0  0  0
  -22.3780  -14.5990   20.5740 O   0  0  0  0  0  0  0  0  0  0  0  0
  -22.4650  -12.0430   22.4010 H   0  0  0  0  0  0  0  0  0  0  0  0
  -21.1570  -13.1740   22.1900 H   0  0  0  0  0  0  0  0  0  0  0  0
  -25.4450  -15.2490   20.2630 N   0  0  0  0  0  0  0  0  0  0  0  0
  -24.6720  -15.8970   20.3440 H   0  0  0  0  0  0  0  0  0  0  0  0
  -26.2830  -15.6760   19.8930 H   0  0  0  0  0  0  0  0  0  0  0  0
  -28.1380  -22.8070   20.8800 C   0  0  0  0  0  2  0  0  0  0  0  0
  -28.4390  -24.0930   20.0400 C   0  0  0  0  0  2  0  0  0  0  0  0
  -28.1940  -25.3860   20.8770 C   0  0  0  0  0  2  0  0  0  0  0  0
  -28.3850  -26.6590   20.2100 O   0  0  0  0  0  0  0  0  0  0  0  0
  -24.6020  -31.9140   23.2290 C   0  0  0  0  0  0  0  0  0  0  0  0
  -27.2560  -27.4530   20.1670 C   0  0  0  0  0  0  0  0  0  0  0  0
  -23.4080  -30.5060   21.5850 C   0  0  0  0  0  3  0  0  0  0  0  0
  -24.8720  -28.9800   20.1550 C   0  0  0  0  0  0  0  0  0  0  0  0
  -25.9350  -30.8670   21.4000 C   0  0  0  0  0  2  0  0  0  0  0  0
  -26.0290  -29.4970   20.7550 C   0  0  0  0  0  0  0  0  0  0  0  0
  -27.2280  -28.7450   20.7520 C   0  0  0  0  0  3  0  0  0  0  0  0
  -26.0880  -26.9620   19.5500 C   0  0  0  0  0  3  0  0  0  0  0  0
  -24.9000  -27.7150   19.5440 C   0  0  0  0  0  3  0  0  0  0  0  0
  -23.6260  -29.8350   20.2020 C   0  0  0  0  0  2  0  0  0  0  0  0
  -24.6670  -31.1110   22.1300 N   0  0  0  0  0  0  0  0  0  0  0  0
  -23.5170  -32.1820   23.7640 O   0  0  0  0  0  0  0  0  0  0  0  0
  -22.7590  -29.4790   22.5410 C   0  0  0  0  0  0  0  0  0  0  0  0
  -21.4350  -29.2970   22.4150 N   0  0  0  0  0  0  0  0  0  0  0  0
  -23.4430  -28.8520   23.3520 O   0  0  0  0  0  0  0  0  0  0  0  0
  -20.9420  -29.8580   21.7350 H   0  0  0  0  0  0  0  0  0  0  0  0
  -18.0560  -28.1190   22.9320 C   0  0  0  0  0  0  0  0  0  0  0  0
  -20.6190  -28.3570   23.1850 C   0  0  0  0  0  3  0  0  0  0  0  0
  -20.7070  -26.9310   22.5920 C   0  0  0  0  0  2  0  0  0  0  0  0
  -19.5940  -26.6240   21.5850 C   0  0  0  0  0  2  0  0  0  0  0  0
  -18.2190  -26.7750   22.2430 C   0  0  0  0  0  2  0  0  0  0  0  0
  -19.1840  -28.8690   23.3610 C   0  0  0  0  0  0  0  0  0  0  0  0
  -18.9800  -30.1280   23.9650 C   0  0  0  0  0  3  0  0  0  0  0  0
  -17.6800  -30.6380   24.1430 C   0  0  0  0  0  3  0  0  0  0  0  0
  -16.5670  -29.8850   23.7310 C   0  0  0  0  0  3  0  0  0  0  0  0
  -16.7560  -28.6270   23.1310 C   0  0  0  0  0  3  0  0  0  0  0  0
  -25.8820  -32.5520   23.8500 C   0  0  0  0  0  3  0  0  0  0  0  0
  -25.5690  -33.9500   24.1720 N   0  0  0  0  0  0  0  0  0  0  0  0
  -25.9060  -34.9990   23.4100 C   0  0  0  0  0  0  0  0  0  0  0  0
  -26.5860  -34.8910   22.3850 O   0  0  0  0  0  0  0  0  0  0  0  0
  -24.9720  -34.1090   24.9710 H   0  0  0  0  0  0  0  0  0  0  0  0
  -24.1890  -36.7920   23.0140 C   0  0  0  0  0  1  0  0  0  0  0  0
  -25.4110  -36.3890   23.8540 C   0  0  0  0  0  3  0  0  0  0  0  0
  -27.5280  -37.2750   24.7310 C   0  0  0  0  0  1  0  0  0  0  0  0
  -26.4480  -37.4410   23.7610 N   0  0  0  0  0  0  0  0  0  0  0  0
  -26.0410  -38.3630   23.8920 H   0  0  0  0  0  0  0  0  0  0  0  0
  -26.3960  -31.7870   25.1310 C   0  0  1  0  0  0  0  0  0  0  0  0
  -25.2980  -31.5460   26.1930 C   0  0  0  0  0  1  0  0  0  0  0  0
  -26.9880  -30.4120   24.7450 C   0  0  0  0  0  1  0  0  0  0  0  0
  -27.5420  -32.5870   25.7950 C   0  0  0  0  0  1  0  0  0  0  0  0
  2  6  1  0
  2  1  2  0
  3  4  2  0
  3  2  1  0
  4  5  1  0
  5 46  1  0
  5  1  1  0
  6  7  1  0
  7 16  1  0
  8 16  1  0
  9 14  1  0
 10 11  1  0
 10  9  1  0
 12 11  1  0
 12 21  1  0
 12 13  1  0
 14  8  1  0
 14 13  1  0
 15  8  2  0
 16 17  1  0
 18 19  2  0
 19 38  1  0
 20 19  1  0
 20 23  1  0
 21 18  1  0
 21 22  1  0
 22 20  2  0
 23 24  1  0
 24 25  2  0
 26 29  1  0
 26 25  1  0
 27 26  2  0
 28 27  1  0
 28 23  2  0
 29 30  1  0
 30 31  1  0
 31 32  2  0
 33 32  1  0
 33 37  1  0
 34 33  2  0
 35 30  2  0
 35 34  1  0
 36 35  1  0
 38 39  1  0
 39 42  1  0
 39 41  1  0
 40 38  2  0
 43 44  1  0
 43 18  1  0
 45 43  1  0
 47 48  1  0
 47 46  1  0
 49 48  1  0
 50 61  2  0
 51 49  1  0
 51 56  1  0
 52 60  1  0
 52 62  1  0
 53 59  1  0
 53 55  1  0
 54 60  1  0
 55 54  1  0
 56 55  2  0
 57 51  2  0
 58 57  1  0
 58 53  2  0
 59 52  1  0
 60 50  1  0
 62 64  2  0
 63 62  1  0
 65 63  1  0
 66 75  2  0
 66 71  1  0
 67 63  1  0
 67 71  1  0
 68 67  1  0
 69 70  1  0
 69 68  1  0
 70 66  1  0
 71 72  2  0
 72 73  1  0
 74 73  2  0
 75 74  1  0
 76 50  1  0
 76 77  1  0
 76 86  1  0
 77 80  1  0
 78 82  1  0
 78 77  1  0
 79 78  2  0
 82 81  1  0
 84 82  1  0
 84 85  1  0
 84 83  1  0
 86 89  1  1
 86 87  1  0
 88 86  1  0
M  ISO  4   8 100  16 100  48 101  49 101
M  END
>  <TORSDO>  (64) 
F 21

>  <SCORE>  (64) 
-13.357

>  <name>  (64) 
66

>  <ligand_id>  (64) 
66

>  <original_smiles>  (64) 
[H]c1c([H])c([H])c2c(c1[H])C([H])([H])C([H])([H])C([H])([H])C2([H])N([H])C(=O)C1([H])N(C(=O)C([H])(N([H])C(=O)C([H])(N([H])C([H])([H])[H])C([H])([H])[H])C(C([H])([H])[H])(C([H])([H])[H])C([H])([H])[H])C([H])([H])c2c([H])c(OC([H])([H])C([H])([H])C([H])([H])n3nnc(C([H])([H])C([H])([H])N([H])C(=O)N4C([H])([H])C([H])([H])C([H])([H])C([H])(n5nc(-c6c([H])c([H])c(Oc7c([H])c([H])c(F)c([H])c7F)c([H])c6[H])c(C(=O)N([H])[H])c5N([H])[H])C4([H])[H])c3[H])c([H])c([H])c2C1([H])[H]

>  <smiles>  (64) 
[H]c1c([H])c([H])c2c(c1[H])C([H])([H])C([H])([H])C([H])([H])C2([H])N([H])C(=O)C1([H])N(C(=O)C([H])(N([H])C(=O)C([H])(N([H])C([H])([H])[H])C([H])([H])[H])C(C([H])([H])[H])(C([H])([H])[H])C([H])([H])[H])C([H])([H])c2c([H])c(OC([H])([H])C([H])([H])C([H])([H])n3nnc(C([H])([H])C([H])([H])N([H])C(=O)N4C([H])([H])C([H])([H])C([H])([H])C([H])(n5nc(-c6c([H])c([H])c(Oc7c([H])c([H])c(F)c([H])c7F)c([H])c6[H])c(C(=O)N([H])[H])c5N([H])[H])C4([H])[H])c3[H])c([H])c([H])c2C1([H])[H]

$$$$
67:0:0
     RDKit          3D

 88 95  0  0  1  0  0  0  0  0999 V2000
  -28.8550  -22.3570   20.5280 C   0  0  0  0  0  2  0  0  0  0  0  0
  -31.2070  -21.5390   20.1540 C   0  0  0  0  0  1  0  0  0  0  0  0
  -29.7670  -21.1840   20.1290 N   0  0  1  0  0  4  0  0  0  0  0  0
  -29.5450  -21.0070   19.1600 H   0  0  0  0  0  0  0  0  0  0  0  0
  -29.5230  -19.8620   20.8650 C   0  0  0  0  0  2  0  0  0  0  0  0
  -29.8270  -18.4630   20.1240 C   0  0  0  0  0  2  0  0  0  0  0  0
  -30.2380  -17.2020   21.0310 C   0  0  0  0  0  2  0  0  0  0  0  0
  -30.6150  -14.6820   20.3740 C   0  0  0  0  0  0  0  0  0  0  0  0
  -30.3730  -12.4400   19.3180 C   0  0  0  0  0  2  0  0  0  0  0  0
  -29.4130  -12.5370   18.1140 C   0  0  0  0  0  2  0  0  0  0  0  0
  -27.9510  -12.3700   18.5680 C   0  0  0  0  0  2  0  0  0  0  0  0
  -27.6000  -13.2540   19.7930 C   0  0  0  0  0  3  0  0  0  0  0  0
  -28.6730  -13.1370   20.8960 C   0  0  0  0  0  2  0  0  0  0  0  0
  -29.9680  -13.4750   20.2870 N   0  0  0  0  0  0  0  0  0  0  0  0
  -31.7980  -14.7970   20.0510 O   0  0  0  0  0  0  0  0  0  0  0  0
  -29.8460  -15.7880   20.6490 N   0  0  0  0  0  0  0  0  0  0  0  0
  -28.8700  -15.5720   20.7820 H   0  0  0  0  0  0  0  0  0  0  0  0
  -25.2190  -13.8610   20.5450 C   0  0  0  0  0  0  0  0  0  0  0  0
  -24.1530  -13.0900   20.9270 C   0  0  0  0  0  0  0  0  0  0  0  0
  -24.6100  -11.7370   20.8880 C   0  0  0  0  0  0  0  0  0  0  0  0
  -26.2570  -12.9770   20.2990 N   0  0  0  0  0  0  0  0  0  0  0  0
  -25.8980  -11.6950   20.5680 N   0  0  0  0  0  0  0  0  0  0  0  0
  -23.8830  -10.4760   21.0840 C   0  0  0  0  0  0  0  0  0  0  0  0
  -24.3400   -9.4910   21.9860 C   0  0  0  0  0  3  0  0  0  0  0  0
  -23.6110   -8.2960   22.1700 C   0  0  0  0  0  3  0  0  0  0  0  0
  -22.4130   -8.0770   21.4510 C   0  0  0  0  0  0  0  0  0  0  0  0
  -21.9750   -9.0510   20.5360 C   0  0  0  0  0  3  0  0  0  0  0  0
  -22.7030  -10.2380   20.3500 C   0  0  0  0  0  3  0  0  0  0  0  0
  -21.6550   -6.9350   21.5450 O   0  0  0  0  0  0  0  0  0  0  0  0
  -21.6600   -6.1580   22.6740 C   0  0  0  0  0  0  0  0  0  0  0  0
  -21.3260   -6.6830   23.9410 C   0  0  0  0  0  3  0  0  0  0  0  0
  -21.2770   -5.8360   25.0650 C   0  0  0  0  0  3  0  0  0  0  0  0
  -21.5530   -4.4630   24.9250 C   0  0  0  0  0  0  0  0  0  0  0  0
  -21.8810   -3.9350   23.6630 C   0  0  0  0  0  3  0  0  0  0  0  0
  -21.9310   -4.7810   22.5410 C   0  0  0  0  0  0  0  0  0  0  0  0
  -22.2270   -4.2640   21.3230 F   0  0  0  0  0  0  0  0  0  0  0  0
  -21.4990   -3.6470   26.0030 F   0  0  0  0  0  0  0  0  0  0  0  0
  -22.7600  -13.5710   21.2150 C   0  0  0  0  0  0  0  0  0  0  0  0
  -22.0420  -12.8730   22.0900 N   0  0  0  0  0  0  0  0  0  0  0  0
  -22.3180  -14.5970   20.7000 O   0  0  0  0  0  0  0  0  0  0  0  0
  -22.4140  -12.0390   22.5180 H   0  0  0  0  0  0  0  0  0  0  0  0
  -21.1090  -13.1750   22.3320 H   0  0  0  0  0  0  0  0  0  0  0  0
  -25.3890  -15.2310   20.3620 N   0  0  0  0  0  0  0  0  0  0  0  0
  -24.6260  -15.8910   20.4600 H   0  0  0  0  0  0  0  0  0  0  0  0
  -26.2310  -15.6550   19.9940 H   0  0  0  0  0  0  0  0  0  0  0  0
  -29.2470  -23.8790   20.1570 C   0  0  0  0  0  3  0  0  0  0  0  0
  -28.0720  -24.9660   20.1880 C   0  0  0  0  0  3  0  0  0  0  0  0
  -28.3140  -26.4400   20.1530 O   0  0  0  0  0  0  0  0  0  0  0  0
  -24.6020  -31.8710   23.2200 C   0  0  0  0  0  0  0  0  0  0  0  0
  -27.1920  -27.2990   20.1330 C   0  0  0  0  0  0  0  0  0  0  0  0
  -23.3840  -30.4760   21.5930 C   0  0  0  0  0  3  0  0  0  0  0  0
  -24.8240  -28.9270   20.1550 C   0  0  0  0  0  0  0  0  0  0  0  0
  -25.9240  -30.7910   21.3840 C   0  0  0  0  0  2  0  0  0  0  0  0
  -26.0020  -29.4100   20.7380 C   0  0  0  0  0  0  0  0  0  0  0  0
  -27.1880  -28.6080   20.7150 C   0  0  0  0  0  3  0  0  0  0  0  0
  -25.9820  -26.8780   19.5300 C   0  0  0  0  0  3  0  0  0  0  0  0
  -24.8170  -27.6660   19.5460 C   0  0  0  0  0  3  0  0  0  0  0  0
  -23.5870  -29.8010   20.2120 C   0  0  0  0  0  2  0  0  0  0  0  0
  -24.6580  -31.0600   22.1240 N   0  0  0  0  0  0  0  0  0  0  0  0
  -23.5220  -32.1500   23.7620 O   0  0  0  0  0  0  0  0  0  0  0  0
  -22.7290  -29.4560   22.5550 C   0  0  0  0  0  0  0  0  0  0  0  0
  -21.4020  -29.2760   22.4400 N   0  0  0  0  0  0  0  0  0  0  0  0
  -23.4130  -28.8290   23.3670 O   0  0  0  0  0  0  0  0  0  0  0  0
  -20.9050  -29.8390   21.7630 H   0  0  0  0  0  0  0  0  0  0  0  0
  -18.0320  -28.0650   22.9560 C   0  0  0  0  0  0  0  0  0  0  0  0
  -20.5900  -28.3400   23.2210 C   0  0  0  0  0  3  0  0  0  0  0  0
  -20.6980  -26.9030   22.6590 C   0  0  0  0  0  2  0  0  0  0  0  0
  -19.5970  -26.5670   21.6480 C   0  0  0  0  0  2  0  0  0  0  0  0
  -18.2140  -26.7110   22.2930 C   0  0  0  0  0  2  0  0  0  0  0  0
  -19.1480  -28.8360   23.3800 C   0  0  0  0  0  0  0  0  0  0  0  0
  -18.9230  -30.1010   23.9630 C   0  0  0  0  0  3  0  0  0  0  0  0
  -17.6160  -30.5980   24.1250 C   0  0  0  0  0  3  0  0  0  0  0  0
  -16.5160  -29.8230   23.7190 C   0  0  0  0  0  3  0  0  0  0  0  0
  -16.7240  -28.5590   23.1400 C   0  0  0  0  0  3  0  0  0  0  0  0
  -25.8890  -32.5040   23.8310 C   0  0  0  0  0  3  0  0  0  0  0  0
  -25.5780  -33.8990   24.1710 N   0  0  0  0  0  0  0  0  0  0  0  0
  -25.8960  -34.9580   23.4140 C   0  0  0  0  0  0  0  0  0  0  0  0
  -26.5530  -34.8630   22.3740 O   0  0  0  0  0  0  0  0  0  0  0  0
  -24.9940  -34.0460   24.9820 H   0  0  0  0  0  0  0  0  0  0  0  0
  -24.1540  -36.7460   23.0990 C   0  0  0  0  0  1  0  0  0  0  0  0
  -25.4100  -36.3420   23.8870 C   0  0  0  0  0  3  0  0  0  0  0  0
  -27.5560  -37.2290   24.6850 C   0  0  0  0  0  1  0  0  0  0  0  0
  -26.4360  -37.4000   23.7640 N   0  0  0  0  0  0  0  0  0  0  0  0
  -26.0290  -38.3160   23.9310 H   0  0  0  0  0  0  0  0  0  0  0  0
  -26.4240  -31.7280   25.0960 C   0  0  1  0  0  0  0  0  0  0  0  0
  -25.3430  -31.4810   26.1750 C   0  0  0  0  0  1  0  0  0  0  0  0
  -27.0040  -30.3540   24.6860 C   0  0  0  0  0  1  0  0  0  0  0  0
  -27.5850  -32.5200   25.7450 C   0  0  0  0  0  1  0  0  0  0  0  0
  3  2  1  0
  3  1  1  0
  3  5  1  0
  3  4  1  6
  6  5  1  0
  6  7  1  0
  8 16  1  0
  9 14  1  0
 10 11  1  0
 10  9  1  0
 12 11  1  0
 12 21  1  0
 12 13  1  0
 14  8  1  0
 14 13  1  0
 15  8  2  0
 16 17  1  0
 16  7  1  0
 18 19  2  0
 19 38  1  0
 20 19  1  0
 20 23  1  0
 21 18  1  0
 21 22  1  0
 22 20  2  0
 23 24  1  0
 24 25  2  0
 26 29  1  0
 26 25  1  0
 27 26  2  0
 28 27  1  0
 28 23  2  0
 29 30  1  0
 30 31  1  0
 31 32  2  0
 33 32  1  0
 33 37  1  0
 34 33  2  0
 35 30  2  0
 35 34  1  0
 36 35  1  0
 38 39  1  0
 39 42  1  0
 39 41  1  0
 40 38  2  0
 43 44  1  0
 43 18  1  0
 45 43  1  0
 46 47  2  0
 46  1  1  0
 48 47  1  0
 49 60  2  0
 50 48  1  0
 50 55  1  0
 51 59  1  0
 51 61  1  0
 52 58  1  0
 52 54  1  0
 53 59  1  0
 54 53  1  0
 55 54  2  0
 56 57  1  0
 56 50  2  0
 57 52  2  0
 58 51  1  0
 59 49  1  0
 61 63  2  0
 62 61  1  0
 64 62  1  0
 65 74  2  0
 65 70  1  0
 66 62  1  0
 66 70  1  0
 67 66  1  0
 68 69  1  0
 68 67  1  0
 69 65  1  0
 70 71  2  0
 71 72  1  0
 73 72  2  0
 74 73  1  0
 75 49  1  0
 75 76  1  0
 75 85  1  0
 76 79  1  0
 77 81  1  0
 77 76  1  0
 78 77  2  0
 81 80  1  0
 83 81  1  0
 83 84  1  0
 83 82  1  0
 85 88  1  1
 85 86  1  0
 87 85  1  0
M  ISO  4   8 100  16 100  47 101  48 101
M  END
>  <TORSDO>  (65) 
F 22

>  <SCORE>  (65) 
-12.864

>  <name>  (65) 
67

>  <ligand_id>  (65) 
67

>  <original_smiles>  (65) 
[H]c1c([H])c([H])c2c(c1[H])C([H])([H])C([H])([H])C([H])([H])C2([H])N([H])C(=O)C1([H])N(C(=O)C([H])(N([H])C(=O)C([H])(N([H])C([H])([H])[H])C([H])([H])[H])C(C([H])([H])[H])(C([H])([H])[H])C([H])([H])[H])C([H])([H])c2c([H])c(OC([H])([H])C([H])([H])C([H])([H])[N+]([H])(C([H])([H])[H])C([H])([H])C([H])([H])C([H])([H])N([H])C(=O)N3C([H])([H])C([H])([H])C([H])([H])C([H])(n4nc(-c5c([H])c([H])c(Oc6c([H])c([H])c(F)c([H])c6F)c([H])c5[H])c(C(=O)N([H])[H])c4N([H])[H])C3([H])[H])c([H])c([H])c2C1([H])[H]

>  <smiles>  (65) 
[H]c1c([H])c([H])c2c(c1[H])C([H])([H])C([H])([H])C([H])([H])C2([H])N([H])C(=O)C1([H])N(C(=O)C([H])(N([H])C(=O)C([H])(N([H])C([H])([H])[H])C([H])([H])[H])C(C([H])([H])[H])(C([H])([H])[H])C([H])([H])[H])C([H])([H])c2c([H])c(OC([H])([H])C([H])([H])C([H])([H])[N+]([H])(C([H])([H])[H])C([H])([H])C([H])([H])C([H])([H])N([H])C(=O)N3C([H])([H])C([H])([H])C([H])([H])C([H])(n4nc(-c5c([H])c([H])c(Oc6c([H])c([H])c(F)c([H])c6F)c([H])c5[H])c(C(=O)N([H])[H])c4N([H])[H])C3([H])[H])c([H])c([H])c2C1([H])[H]

$$$$
68:0:0
     RDKit          3D

 93101  0  0  1  0  0  0  0  0999 V2000
  -30.4970  -21.7790   20.5480 C   0  0  0  0  0  3  0  0  0  0  0  0
  -29.1410  -19.5790   20.1480 C   0  0  0  0  0  3  0  0  0  0  0  0
  -31.1980  -18.0770   21.1520 C   0  0  0  0  0  3  0  0  0  0  0  0
  -29.0750  -18.1610   20.0630 C   0  0  0  0  0  0  0  0  0  0  0  0
  -30.1330  -17.3290   20.5770 C   0  0  0  0  0  0  0  0  0  0  0  0
  -30.2620  -20.2250   20.6900 C   0  0  0  0  0  0  0  0  0  0  0  0
  -31.2680  -19.4540   21.1950 N   0  0  0  0  0  0  0  0  0  0  0  0
  -30.7960  -14.8370   21.0380 C   0  0  0  0  0  0  0  0  0  0  0  0
  -30.7170  -12.4620   20.2760 C   0  0  0  0  0  2  0  0  0  0  0  0
  -29.8920  -12.2740   18.9770 C   0  0  0  0  0  2  0  0  0  0  0  0
  -28.3750  -12.2090   19.2490 C   0  0  0  0  0  2  0  0  0  0  0  0
  -27.8690  -13.2320   20.3030 C   0  0  0  0  0  3  0  0  0  0  0  0
  -28.8140  -13.2820   21.5230 C   0  0  0  0  0  2  0  0  0  0  0  0
  -30.1540  -13.6140   21.0100 N   0  0  0  0  0  0  0  0  0  0  0  0
  -32.0230  -14.8770   21.1340 O   0  0  0  0  0  0  0  0  0  0  0  0
  -30.3690  -15.6370   18.8510 C   0  0  0  0  0  1  0  0  0  0  0  0
  -30.2060  -15.8660   20.2990 N   0  0  0  0  0  0  0  0  0  0  0  0
  -25.4170  -13.8590   20.7400 C   0  0  0  0  0  0  0  0  0  0  0  0
  -24.3060  -13.0990   21.0040 C   0  0  0  0  0  0  0  0  0  0  0  0
  -24.7620  -11.7490   21.0740 C   0  0  0  0  0  0  0  0  0  0  0  0
  -26.4770  -12.9690   20.6650 N   0  0  0  0  0  0  0  0  0  0  0  0
  -26.0800  -11.6980   20.9340 N   0  0  0  0  0  0  0  0  0  0  0  0
  -24.0100  -10.4920   21.2090 C   0  0  0  0  0  0  0  0  0  0  0  0
  -24.3530   -9.5330   22.1860 C   0  0  0  0  0  3  0  0  0  0  0  0
  -23.6060   -8.3440   22.3170 C   0  0  0  0  0  3  0  0  0  0  0  0
  -22.5040   -8.1040   21.4650 C   0  0  0  0  0  0  0  0  0  0  0  0
  -22.1770   -9.0520   20.4790 C   0  0  0  0  0  3  0  0  0  0  0  0
  -22.9250  -10.2340   20.3480 C   0  0  0  0  0  3  0  0  0  0  0  0
  -21.7360   -6.9670   21.5030 O   0  0  0  0  0  0  0  0  0  0  0  0
  -21.6050   -6.2230   22.6480 C   0  0  0  0  0  0  0  0  0  0  0  0
  -21.1050   -6.7780   23.8460 C   0  0  0  0  0  3  0  0  0  0  0  0
  -20.9250   -5.9600   24.9780 C   0  0  0  0  0  3  0  0  0  0  0  0
  -21.2330   -4.5880   24.9140 C   0  0  0  0  0  0  0  0  0  0  0  0
  -21.7250   -4.0320   23.7210 C   0  0  0  0  0  3  0  0  0  0  0  0
  -21.9090   -4.8470   22.5890 C   0  0  0  0  0  0  0  0  0  0  0  0
  -22.3640   -4.3010   21.4370 F   0  0  0  0  0  0  0  0  0  0  0  0
  -21.0490   -3.8010   26.0000 F   0  0  0  0  0  0  0  0  0  0  0  0
  -22.8910  -13.5930   21.0880 C   0  0  0  0  0  0  0  0  0  0  0  0
  -22.0620  -12.9350   21.8910 N   0  0  0  0  0  0  0  0  0  0  0  0
  -22.5240  -14.5960   20.4780 O   0  0  0  0  0  0  0  0  0  0  0  0
  -22.3690  -12.1260   22.4060 H   0  0  0  0  0  0  0  0  0  0  0  0
  -21.1030  -13.2410   21.9840 H   0  0  0  0  0  0  0  0  0  0  0  0
  -25.6060  -15.2170   20.5340 N   0  0  0  0  0  0  0  0  0  0  0  0
  -24.8310  -15.8750   20.5180 H   0  0  0  0  0  0  0  0  0  0  0  0
  -26.4980  -15.6460   20.3300 H   0  0  0  0  0  0  0  0  0  0  0  0
  -27.8730  -18.1010   17.8350 C   0  0  0  0  0  1  0  0  0  0  0  0
  -27.8650  -17.6350   19.3060 C   0  0  0  0  0  2  0  0  0  0  0  0
  -29.3080  -22.8390   20.7060 C   0  0  0  0  0  3  0  0  0  0  0  0
  -29.0840  -24.3740   18.6230 C   0  0  0  0  0  1  0  0  0  0  0  0
  -30.8880  -24.8770   20.3510 C   0  0  0  0  0  1  0  0  0  0  0  0
  -29.4400  -24.3490   20.1320 C   0  0  2  0  0  0  0  0  0  0  0  0
  -28.4210  -25.3880   20.7680 C   0  0  0  0  0  2  0  0  0  0  0  0
  -28.4220  -26.7060   20.1430 O   0  0  0  0  0  0  0  0  0  0  0  0
  -24.5750  -31.8860   23.2140 C   0  0  0  0  0  0  0  0  0  0  0  0
  -27.2350  -27.4330   20.1520 C   0  0  0  0  0  0  0  0  0  0  0  0
  -23.3670  -30.4820   21.5780 C   0  0  0  0  0  3  0  0  0  0  0  0
  -24.8250  -28.9440   20.1430 C   0  0  0  0  0  0  0  0  0  0  0  0
  -25.8890  -30.8580   21.3500 C   0  0  0  0  0  2  0  0  0  0  0  0
  -25.9800  -29.4790   20.7190 C   0  0  0  0  0  0  0  0  0  0  0  0
  -27.1900  -28.7360   20.7060 C   0  0  0  0  0  3  0  0  0  0  0  0
  -26.0530  -26.9160   19.5700 C   0  0  0  0  0  3  0  0  0  0  0  0
  -24.8560  -27.6650   19.5600 C   0  0  0  0  0  3  0  0  0  0  0  0
  -23.5770  -29.8010   20.1970 C   0  0  0  0  0  2  0  0  0  0  0  0
  -24.6320  -31.0860   22.1130 N   0  0  0  0  0  0  0  0  0  0  0  0
  -23.4950  -32.1580   23.7590 O   0  0  0  0  0  0  0  0  0  0  0  0
  -22.7190  -29.4560   22.5400 C   0  0  0  0  0  0  0  0  0  0  0  0
  -21.3910  -29.2790   22.4290 N   0  0  0  0  0  0  0  0  0  0  0  0
  -23.4110  -28.8160   23.3370 O   0  0  0  0  0  0  0  0  0  0  0  0
  -20.8890  -29.8600   21.7720 H   0  0  0  0  0  0  0  0  0  0  0  0
  -18.0170  -28.0910   22.9520 C   0  0  0  0  0  0  0  0  0  0  0  0
  -20.5800  -28.3300   23.1980 C   0  0  0  0  0  3  0  0  0  0  0  0
  -20.6610  -26.9020   22.6070 C   0  0  0  0  0  2  0  0  0  0  0  0
  -19.5420  -26.5990   21.6040 C   0  0  0  0  0  2  0  0  0  0  0  0
  -18.1710  -26.7470   22.2650 C   0  0  0  0  0  2  0  0  0  0  0  0
  -19.1460  -28.8410   23.3780 C   0  0  0  0  0  0  0  0  0  0  0  0
  -18.9380  -30.1040   23.9720 C   0  0  0  0  0  3  0  0  0  0  0  0
  -17.6370  -30.6150   24.1420 C   0  0  0  0  0  3  0  0  0  0  0  0
  -16.5250  -29.8610   23.7320 C   0  0  0  0  0  3  0  0  0  0  0  0
  -16.7170  -28.5990   23.1440 C   0  0  0  0  0  3  0  0  0  0  0  0
  -25.8590  -32.5170   23.8340 C   0  0  0  0  0  3  0  0  0  0  0  0
  -25.5570  -33.9160   24.1650 N   0  0  0  0  0  0  0  0  0  0  0  0
  -25.8890  -34.9670   23.4050 C   0  0  0  0  0  0  0  0  0  0  0  0
  -26.5610  -34.8630   22.3760 O   0  0  0  0  0  0  0  0  0  0  0  0
  -24.9600  -34.0670   24.9660 H   0  0  0  0  0  0  0  0  0  0  0  0
  -24.1730  -36.7710   23.0310 C   0  0  0  0  0  1  0  0  0  0  0  0
  -25.3990  -36.3560   23.8560 C   0  0  0  0  0  3  0  0  0  0  0  0
  -27.5270  -37.2310   24.7090 C   0  0  0  0  0  1  0  0  0  0  0  0
  -26.4360  -37.4070   23.7590 N   0  0  0  0  0  0  0  0  0  0  0  0
  -26.0300  -38.3290   23.9060 H   0  0  0  0  0  0  0  0  0  0  0  0
  -26.3740  -31.7370   25.1030 C   0  0  1  0  0  0  0  0  0  0  0  0
  -25.2870  -31.4970   26.1770 C   0  0  0  0  0  1  0  0  0  0  0  0
  -26.9520  -30.3620   24.6900 C   0  0  0  0  0  1  0  0  0  0  0  0
  -27.5250  -32.5250   25.7700 C   0  0  0  0  0  1  0  0  0  0  0  0
  1  6  1  0
  1 48  2  0
  2  6  1  0
  3  7  1  0
  4  2  2  0
  4  5  1  0
  5  3  2  0
  6  7  2  0
  8 15  2  0
  9 14  1  0
 10 11  1  0
 10  9  1  0
 12 11  1  0
 12 21  1  0
 12 13  1  0
 14  8  1  0
 14 13  1  0
 16 17  1  0
 17  5  1  0
 17  8  1  0
 18 19  2  0
 19 20  1  0
 19 38  1  0
 20 23  1  0
 21 18  1  0
 21 22  1  0
 22 20  2  0
 23 24  1  0
 24 25  2  0
 26 29  1  0
 26 25  1  0
 27 26  2  0
 28 27  1  0
 28 23  2  0
 29 30  1  0
 30 31  1  0
 31 32  2  0
 33 32  1  0
 33 37  1  0
 34 33  2  0
 35 30  2  0
 35 34  1  0
 36 35  1  0
 38 39  1  0
 39 42  1  0
 39 41  1  0
 40 38  2  0
 43 18  1  0
 44 43  1  0
 45 43  1  0
 46 47  1  0
 47  4  1  0
 51 49  1  6
 51 50  1  0
 51 48  1  0
 51 52  1  0
 53 55  1  0
 53 52  1  0
 54 65  2  0
 55 60  1  0
 56 64  1  0
 56 66  1  0
 57 63  1  0
 57 59  1  0
 58 64  1  0
 59 58  1  0
 60 59  2  0
 61 55  2  0
 62 61  1  0
 62 57  2  0
 63 56  1  0
 64 54  1  0
 66 68  2  0
 67 66  1  0
 69 67  1  0
 70 79  2  0
 70 75  1  0
 71 67  1  0
 71 75  1  0
 72 71  1  0
 73 74  1  0
 73 72  1  0
 74 70  1  0
 75 76  2  0
 76 77  1  0
 78 77  2  0
 79 78  1  0
 80 54  1  0
 80 81  1  0
 80 90  1  0
 81 84  1  0
 82 86  1  0
 82 81  1  0
 83 82  2  0
 86 85  1  0
 88 86  1  0
 88 89  1  0
 88 87  1  0
 90 93  1  1
 90 91  1  0
 92 90  1  0
M  ISO  4   8 100  17 100  52 101  53 101
M  END
>  <TORSDO>  (66) 
F 21

>  <SCORE>  (66) 
-13.360

>  <name>  (66) 
68

>  <ligand_id>  (66) 
68

>  <original_smiles>  (66) 
[H]c1nc(C([H])([H])C([H])([H])C(C([H])([H])[H])(C([H])([H])[H])C([H])([H])Oc2c([H])c([H])c3c(c2[H])C([H])([H])N(C(=O)C([H])(N([H])C(=O)C([H])(N([H])C([H])([H])[H])C([H])([H])[H])C(C([H])([H])[H])(C([H])([H])[H])C([H])([H])[H])C([H])(C(=O)N([H])C2([H])c4c([H])c([H])c([H])c([H])c4C([H])([H])C([H])([H])C2([H])[H])C3([H])[H])c([H])c(C([H])([H])C([H])([H])[H])c1N(C(=O)N1C([H])([H])C([H])([H])C([H])([H])C([H])(n2nc(-c3c([H])c([H])c(Oc4c([H])c([H])c(F)c([H])c4F)c([H])c3[H])c(C(=O)N([H])[H])c2N([H])[H])C1([H])[H])C([H])([H])[H]

>  <smiles>  (66) 
[H]c1nc(C([H])([H])C([H])([H])C(C([H])([H])[H])(C([H])([H])[H])C([H])([H])Oc2c([H])c([H])c3c(c2[H])C([H])([H])N(C(=O)C([H])(N([H])C(=O)C([H])(N([H])C([H])([H])[H])C([H])([H])[H])C(C([H])([H])[H])(C([H])([H])[H])C([H])([H])[H])C([H])(C(=O)N([H])C2([H])c4c([H])c([H])c([H])c([H])c4C([H])([H])C([H])([H])C2([H])[H])C3([H])[H])c([H])c(C([H])([H])C([H])([H])[H])c1N(C(=O)N1C([H])([H])C([H])([H])C([H])([H])C([H])(n2nc(-c3c([H])c([H])c(Oc4c([H])c([H])c(F)c([H])c4F)c([H])c3[H])c(C(=O)N([H])[H])c2N([H])[H])C1([H])[H])C([H])([H])[H]

$$$$
69:0:0
     RDKit          3D

 96104  0  0  1  0  0  0  0  0999 V2000
  -29.4820  -20.3390   18.9380 C   0  0  0  0  0  3  0  0  0  0  0  0
  -28.4190  -19.4870   19.2540 C   0  0  0  0  0  0  0  0  0  0  0  0
  -29.1930  -21.4530   18.1400 C   0  0  0  0  0  0  0  0  0  0  0  0
  -26.9830  -20.8260   18.0740 C   0  0  0  0  0  0  0  0  0  0  0  0
  -28.6220  -18.2380   20.0860 C   0  0  0  0  0  1  0  0  0  0  0  0
  -27.1720  -19.7410   18.8200 N   0  0  0  0  0  0  0  0  0  0  0  0
  -27.9400  -21.6790   17.6950 N   0  0  0  0  0  0  0  0  0  0  0  0
  -30.2990  -22.4220   17.7430 C   0  0  0  0  0  2  0  0  0  0  0  0
  -29.7560  -23.7360   17.1350 C   0  0  0  0  0  2  0  0  0  0  0  0
  -31.5470  -24.9920   15.9190 C   0  0  0  0  0  1  0  0  0  0  0  0
  -29.2280  -24.9960   15.0100 C   0  0  0  0  0  1  0  0  0  0  0  0
  -30.2900  -24.1210   15.7230 C   0  0  2  0  0  0  0  0  0  0  0  0
  -30.6520  -22.8310   14.9130 C   0  0  0  0  0  2  0  0  0  0  0  0
  -31.8380  -22.8940   14.1000 O   0  0  0  0  0  0  0  0  0  0  0  0
  -33.2060  -28.4500    9.9280 C   0  0  0  0  0  0  0  0  0  0  0  0
  -31.7350  -23.3980   12.8230 C   0  0  0  0  0  0  0  0  0  0  0  0
  -31.6380  -26.7740    9.0030 C   0  0  0  0  0  3  0  0  0  0  0  0
  -31.5120  -24.5620   10.2610 C   0  0  0  0  0  0  0  0  0  0  0  0
  -33.4520  -26.0880   10.6700 C   0  0  0  0  0  2  0  0  0  0  0  0
  -32.5200  -24.9890   11.1360 C   0  0  0  0  0  0  0  0  0  0  0  0
  -32.6330  -24.4100   12.4200 C   0  0  0  0  0  3  0  0  0  0  0  0
  -30.7570  -22.9460   11.9090 C   0  0  0  0  0  3  0  0  0  0  0  0
  -30.6290  -23.5400   10.6440 C   0  0  0  0  0  3  0  0  0  0  0  0
  -31.4390  -25.2370    8.9120 C   0  0  0  0  0  2  0  0  0  0  0  0
  -32.7780  -27.1570    9.8990 N   0  0  0  0  0  0  0  0  0  0  0  0
  -32.6970  -29.3120    9.1990 O   0  0  0  0  0  0  0  0  0  0  0  0
  -30.2970  -27.4210    9.4150 C   0  0  0  0  0  0  0  0  0  0  0  0
  -29.6000  -28.0280    8.4400 N   0  0  0  0  0  0  0  0  0  0  0  0
  -29.8920  -27.3500   10.5780 O   0  0  0  0  0  0  0  0  0  0  0  0
  -30.0000  -28.0450    7.5130 H   0  0  0  0  0  0  0  0  0  0  0  0
  -27.0610  -29.9060    6.6860 C   0  0  0  0  0  0  0  0  0  0  0  0
  -28.2980  -28.6760    8.5930 C   0  0  0  0  0  3  0  0  0  0  0  0
  -27.1480  -27.6430    8.5360 C   0  0  0  0  0  2  0  0  0  0  0  0
  -26.5670  -27.4620    7.1300 C   0  0  0  0  0  2  0  0  0  0  0  0
  -26.0300  -28.7920    6.5960 C   0  0  0  0  0  2  0  0  0  0  0  0
  -28.1340  -29.8430    7.6150 C   0  0  0  0  0  0  0  0  0  0  0  0
  -29.0830  -30.8900    7.6360 C   0  0  0  0  0  3  0  0  0  0  0  0
  -28.9730  -31.9800    6.7540 C   0  0  0  0  0  3  0  0  0  0  0  0
  -27.9020  -32.0440    5.8480 C   0  0  0  0  0  3  0  0  0  0  0  0
  -26.9470  -31.0110    5.8180 C   0  0  0  0  0  3  0  0  0  0  0  0
  -34.3750  -28.9000   10.8600 C   0  0  0  0  0  3  0  0  0  0  0  0
  -35.0950  -29.9760   10.1730 N   0  0  0  0  0  0  0  0  0  0  0  0
  -36.1250  -29.7890    9.3340 C   0  0  0  0  0  0  0  0  0  0  0  0
  -36.6170  -28.6780    9.1170 O   0  0  0  0  0  0  0  0  0  0  0  0
  -34.7150  -30.9070   10.2630 H   0  0  0  0  0  0  0  0  0  0  0  0
  -36.1050  -31.1400    7.2160 C   0  0  0  0  0  1  0  0  0  0  0  0
  -36.7000  -31.0320    8.6280 C   0  0  0  0  0  3  0  0  0  0  0  0
  -38.8240  -31.3060    9.8270 C   0  0  0  0  0  1  0  0  0  0  0  0
  -38.1770  -31.0330    8.5470 N   0  0  0  0  0  0  0  0  0  0  0  0
  -38.5000  -31.7240    7.8760 H   0  0  0  0  0  0  0  0  0  0  0  0
  -33.8870  -29.3720   12.2840 C   0  0  1  0  0  0  0  0  0  0  0  0
  -34.2410  -30.8440   12.6010 C   0  0  0  0  0  1  0  0  0  0  0  0
  -32.3550  -29.2130   12.4230 C   0  0  0  0  0  1  0  0  0  0  0  0
  -34.5230  -28.4820   13.3790 C   0  0  0  0  0  1  0  0  0  0  0  0
  -25.5420  -21.1020   17.6270 C   0  0  0  0  0  2  0  0  0  0  0  0
  -24.8200  -22.3780   18.1780 C   0  0  0  0  0  3  0  0  0  0  0  0
  -25.1670  -23.7760   20.2200 C   0  0  0  0  0  0  0  0  0  0  0  0
  -25.1450  -25.9680   21.3330 C   0  0  0  0  0  2  0  0  0  0  0  0
  -24.7590  -27.0380   20.2890 C   0  0  0  0  0  2  0  0  0  0  0  0
  -26.0090  -27.5510   19.5480 C   0  0  0  0  0  2  0  0  0  0  0  0
  -26.9070  -26.4000   19.0210 C   0  0  0  0  0  3  0  0  0  0  0  0
  -27.1520  -25.3340   20.1170 C   0  0  0  0  0  2  0  0  0  0  0  0
  -25.8450  -24.8850   20.6200 N   0  0  0  0  0  0  0  0  0  0  0  0
  -24.0730  -23.4590   20.6890 O   0  0  0  0  0  0  0  0  0  0  0  0
  -25.6500  -23.1600   19.1240 N   0  0  0  0  0  0  0  0  0  0  0  0
  -26.5670  -23.4420   18.8110 H   0  0  0  0  0  0  0  0  0  0  0  0
  -28.4050  -27.5170   17.2520 C   0  0  0  0  0  0  0  0  0  0  0  0
  -29.7280  -27.8730   17.2640 C   0  0  0  0  0  0  0  0  0  0  0  0
  -30.2350  -27.4650   18.5360 C   0  0  0  0  0  0  0  0  0  0  0  0
  -28.1640  -26.9120   18.4750 N   0  0  0  0  0  0  0  0  0  0  0  0
  -29.2920  -26.8390   19.2280 N   0  0  0  0  0  0  0  0  0  0  0  0
  -31.5490  -27.6820   19.1550 C   0  0  0  0  0  0  0  0  0  0  0  0
  -32.3850  -26.6010   19.5140 C   0  0  0  0  0  3  0  0  0  0  0  0
  -33.6520  -26.8370   20.0910 C   0  0  0  0  0  3  0  0  0  0  0  0
  -34.0960  -28.1630   20.3110 C   0  0  0  0  0  0  0  0  0  0  0  0
  -33.2500  -29.2330   19.9730 C   0  0  0  0  0  3  0  0  0  0  0  0
  -31.9880  -28.9970   19.4040 C   0  0  0  0  0  3  0  0  0  0  0  0
  -35.2990  -28.4850   20.8900 O   0  0  0  0  0  0  0  0  0  0  0  0
  -36.3320  -27.5840   20.9590 C   0  0  0  0  0  0  0  0  0  0  0  0
  -37.1750  -27.3340   19.8560 C   0  0  0  0  0  3  0  0  0  0  0  0
  -38.2670  -26.4510   19.9880 C   0  0  0  0  0  3  0  0  0  0  0  0
  -38.5200  -25.8270   21.2250 C   0  0  0  0  0  0  0  0  0  0  0  0
  -37.6830  -26.0780   22.3260 C   0  0  0  0  0  3  0  0  0  0  0  0
  -36.5940  -26.9580   22.1930 C   0  0  0  0  0  0  0  0  0  0  0  0
  -35.8030  -27.2140   23.2640 F   0  0  0  0  0  0  0  0  0  0  0  0
  -39.5720  -24.9850   21.3570 F   0  0  0  0  0  0  0  0  0  0  0  0
  -30.4580  -28.6350   16.1960 C   0  0  0  0  0  0  0  0  0  0  0  0
  -31.7050  -28.2690   15.9260 N   0  0  0  0  0  0  0  0  0  0  0  0
  -29.9060  -29.5340   15.5610 O   0  0  0  0  0  0  0  0  0  0  0  0
  -32.1500  -27.5180   16.4290 H   0  0  0  0  0  0  0  0  0  0  0  0
  -32.2210  -28.7450   15.1980 H   0  0  0  0  0  0  0  0  0  0  0  0
  -27.3910  -27.6720   16.3120 N   0  0  0  0  0  0  0  0  0  0  0  0
  -27.5390  -28.1650   15.4390 H   0  0  0  0  0  0  0  0  0  0  0  0
  -26.4340  -27.3760   16.4460 H   0  0  0  0  0  0  0  0  0  0  0  0
  -23.3270  -22.6340   16.0900 C   0  0  0  0  0  1  0  0  0  0  0  0
  -24.2170  -23.3390   17.1220 C   0  0  0  0  0  2  0  0  0  0  0  0
  1  2  2  0
  2  5  1  0
  3  1  1  0
  4  6  2  0
  6  2  1  0
  7  4  1  0
  7  3  2  0
  8  3  1  0
  9  8  1  0
 12 11  1  6
 12 10  1  0
 12  9  1  0
 13 12  1  0
 14 13  1  0
 16 14  1  0
 17 27  1  0
 17 25  1  0
 18 23  2  0
 18 20  1  0
 19 20  1  0
 20 21  2  0
 21 16  1  0
 22 16  2  0
 23 22  1  0
 24 17  1  0
 24 18  1  0
 25 15  1  0
 25 19  1  0
 26 15  2  0
 27 29  2  0
 28 27  1  0
 30 28  1  0
 31 36  1  0
 32 28  1  0
 33 32  1  0
 34 33  1  0
 35 31  1  0
 35 34  1  0
 36 37  2  0
 36 32  1  0
 38 37  1  0
 39 38  2  0
 40 39  1  0
 40 31  2  0
 41 15  1  0
 41 51  1  0
 42 45  1  0
 42 41  1  0
 43 42  1  0
 44 43  2  0
 47 46  1  0
 47 43  1  0
 49 47  1  0
 49 48  1  0
 50 49  1  0
 51 53  1  6
 51 52  1  0
 51 54  1  0
 55  4  1  0
 55 56  1  0
 56 96  1  0
 56 65  1  0
 57 63  1  0
 57 64  2  0
 59 58  1  0
 60 59  1  0
 61 70  1  0
 61 60  1  0
 61 62  1  0
 62 63  1  0
 63 58  1  0
 65 57  1  0
 66 65  1  0
 67 68  2  0
 67 70  1  0
 68 69  1  0
 69 72  1  0
 69 71  2  0
 70 71  1  0
 72 77  2  0
 72 73  1  0
 73 74  2  0
 74 75  1  0
 75 78  1  0
 76 75  2  0
 77 76  1  0
 78 79  1  0
 79 84  1  0
 80 81  1  0
 80 79  2  0
 81 82  2  0
 82 86  1  0
 82 83  1  0
 84 83  2  0
 84 85  1  0
 87 68  1  0
 88 87  1  0
 88 90  1  0
 89 87  2  0
 91 88  1  0
 92 94  1  0
 92 67  1  0
 93 92  1  0
 95 96  1  0
M  ISO  4  13 101  14 101  57 100  65 100
M  END
>  <TORSDO>  (67) 
F 23

>  <SCORE>  (67) 
-4.701

>  <name>  (67) 
69

>  <ligand_id>  (67) 
69

>  <original_smiles>  (67) 
[H]c1c(C([H])([H])[H])nc(C([H])([H])C([H])(N([H])C(=O)N2C([H])([H])C([H])([H])C([H])([H])C([H])(n3nc(-c4c([H])c([H])c(Oc5c([H])c([H])c(F)c([H])c5F)c([H])c4[H])c(C(=O)N([H])[H])c3N([H])[H])C2([H])[H])C([H])([H])C([H])([H])[H])nc1C([H])([H])C([H])([H])C(C([H])([H])[H])(C([H])([H])[H])C([H])([H])Oc1c([H])c([H])c2c(c1[H])C([H])([H])N(C(=O)C([H])(N([H])C(=O)C([H])(N([H])C([H])([H])[H])C([H])([H])[H])C(C([H])([H])[H])(C([H])([H])[H])C([H])([H])[H])C([H])(C(=O)N([H])C1([H])c3c([H])c([H])c([H])c([H])c3C([H])([H])C([H])([H])C1([H])[H])C2([H])[H]

>  <smiles>  (67) 
[H]c1c(C([H])([H])[H])nc(C([H])([H])C([H])(N([H])C(=O)N2C([H])([H])C([H])([H])C([H])([H])C([H])(n3nc(-c4c([H])c([H])c(Oc5c([H])c([H])c(F)c([H])c5F)c([H])c4[H])c(C(=O)N([H])[H])c3N([H])[H])C2([H])[H])C([H])([H])C([H])([H])[H])nc1C([H])([H])C([H])([H])C(C([H])([H])[H])(C([H])([H])[H])C([H])([H])Oc1c([H])c([H])c2c(c1[H])C([H])([H])N(C(=O)C([H])(N([H])C(=O)C([H])(N([H])C([H])([H])[H])C([H])([H])[H])C(C([H])([H])[H])(C([H])([H])[H])C([H])([H])[H])C([H])(C(=O)N([H])C1([H])c3c([H])c([H])c([H])c([H])c3C([H])([H])C([H])([H])C1([H])[H])C2([H])[H]

$$$$
70:0:0
     RDKit          3D

 93101  0  0  1  0  0  0  0  0999 V2000
  -31.4760  -20.2010   20.5190 C   0  0  0  0  0  3  0  0  0  0  0  0
  -29.6510  -19.7680   19.0300 C   0  0  0  0  0  3  0  0  0  0  0  0
  -30.7460  -19.2540   19.7680 C   0  0  0  0  0  0  0  0  0  0  0  0
  -31.1440  -21.5710   20.4560 C   0  0  0  0  0  0  0  0  0  0  0  0
  -30.0870  -21.9900   19.6190 C   0  0  0  0  0  0  0  0  0  0  0  0
  -31.9310  -22.5510   21.3020 C   0  0  0  0  0  1  0  0  0  0  0  0
  -29.3370  -21.0850   18.9500 N   0  0  0  0  0  0  0  0  0  0  0  0
  -32.7010  -17.6720   19.6990 C   0  0  0  0  0  1  0  0  0  0  0  0
  -30.6570  -17.0950   18.4110 C   0  0  0  0  0  1  0  0  0  0  0  0
  -31.1520  -17.7500   19.7260 C   0  0  2  0  0  0  0  0  0  0  0  0
  -30.6050  -16.9980   21.0060 C   0  0  0  0  0  2  0  0  0  0  0  0
  -30.7260  -14.4920   20.5500 C   0  0  0  0  0  0  0  0  0  0  0  0
  -30.3860  -12.3090   19.4670 C   0  0  0  0  0  2  0  0  0  0  0  0
  -29.4930  -12.4850   18.2270 C   0  0  0  0  0  2  0  0  0  0  0  0
  -28.0040  -12.3690   18.6120 C   0  0  0  0  0  2  0  0  0  0  0  0
  -27.6280  -13.2440   19.8400 C   0  0  0  0  0  3  0  0  0  0  0  0
  -28.6530  -13.0860   20.9870 C   0  0  0  0  0  2  0  0  0  0  0  0
  -29.9940  -13.3460   20.4360 N   0  0  0  0  0  0  0  0  0  0  0  0
  -31.8990  -14.5530   20.1990 O   0  0  0  0  0  0  0  0  0  0  0  0
  -30.0630  -15.6200   20.8770 N   0  0  0  0  0  0  0  0  0  0  0  0
  -29.0850  -15.5210   21.1060 H   0  0  0  0  0  0  0  0  0  0  0  0
  -25.2100  -13.8710   20.4640 C   0  0  0  0  0  0  0  0  0  0  0  0
  -24.1280  -13.1150   20.8210 C   0  0  0  0  0  0  0  0  0  0  0  0
  -24.5830  -11.7580   20.8350 C   0  0  0  0  0  0  0  0  0  0  0  0
  -26.2610  -12.9820   20.2890 N   0  0  0  0  0  0  0  0  0  0  0  0
  -25.8830  -11.7070   20.5680 N   0  0  0  0  0  0  0  0  0  0  0  0
  -23.8430  -10.5040   21.0250 C   0  0  0  0  0  0  0  0  0  0  0  0
  -24.2570   -9.5420   21.9740 C   0  0  0  0  0  3  0  0  0  0  0  0
  -23.5220   -8.3510   22.1560 C   0  0  0  0  0  3  0  0  0  0  0  0
  -22.3580   -8.1110   21.3890 C   0  0  0  0  0  0  0  0  0  0  0  0
  -21.9630   -9.0600   20.4280 C   0  0  0  0  0  3  0  0  0  0  0  0
  -22.6990  -10.2430   20.2450 C   0  0  0  0  0  3  0  0  0  0  0  0
  -21.5970   -6.9710   21.4810 O   0  0  0  0  0  0  0  0  0  0  0  0
  -21.5430   -6.2280   22.6330 C   0  0  0  0  0  0  0  0  0  0  0  0
  -21.1320   -6.7900   23.8620 C   0  0  0  0  0  3  0  0  0  0  0  0
  -21.0270   -5.9760   25.0080 C   0  0  0  0  0  3  0  0  0  0  0  0
  -21.3190   -4.6020   24.9240 C   0  0  0  0  0  0  0  0  0  0  0  0
  -21.7170   -4.0390   23.6990 C   0  0  0  0  0  3  0  0  0  0  0  0
  -21.8270   -4.8500   22.5570 C   0  0  0  0  0  0  0  0  0  0  0  0
  -22.1920   -4.2980   21.3740 F   0  0  0  0  0  0  0  0  0  0  0  0
  -21.2090   -3.8180   26.0220 F   0  0  0  0  0  0  0  0  0  0  0  0
  -22.7250  -13.6020   21.0400 C   0  0  0  0  0  0  0  0  0  0  0  0
  -21.9630  -12.9320   21.8970 N   0  0  0  0  0  0  0  0  0  0  0  0
  -22.3080  -14.6180   20.4810 O   0  0  0  0  0  0  0  0  0  0  0  0
  -22.3050  -12.1150   22.3820 H   0  0  0  0  0  0  0  0  0  0  0  0
  -21.0190  -13.2450   22.0750 H   0  0  0  0  0  0  0  0  0  0  0  0
  -25.3930  -15.2360   20.2460 N   0  0  0  0  0  0  0  0  0  0  0  0
  -24.6320  -15.9080   20.2730 H   0  0  0  0  0  0  0  0  0  0  0  0
  -26.2560  -15.6390   19.9050 H   0  0  0  0  0  0  0  0  0  0  0  0
  -29.7750  -23.4740   19.3390 C   0  0  0  0  0  2  0  0  0  0  0  0
  -29.3140  -24.3380   20.5510 C   0  0  0  0  0  2  0  0  0  0  0  0
  -28.0780  -25.2290   20.2940 C   0  0  0  0  0  2  0  0  0  0  0  0
  -28.3190  -26.6450   20.1710 O   0  0  0  0  0  0  0  0  0  0  0  0
  -24.5630  -31.8720   23.2430 C   0  0  0  0  0  0  0  0  0  0  0  0
  -27.1690  -27.4190   20.1450 C   0  0  0  0  0  0  0  0  0  0  0  0
  -23.3430  -30.4810   21.6050 C   0  0  0  0  0  3  0  0  0  0  0  0
  -24.7850  -28.9500   20.1750 C   0  0  0  0  0  0  0  0  0  0  0  0
  -25.8750  -30.8300   21.3980 C   0  0  0  0  0  2  0  0  0  0  0  0
  -25.9520  -29.4630   20.7510 C   0  0  0  0  0  0  0  0  0  0  0  0
  -27.1510  -28.7090   20.7340 C   0  0  0  0  0  3  0  0  0  0  0  0
  -25.9780  -26.9370   19.5530 C   0  0  0  0  0  3  0  0  0  0  0  0
  -24.7900  -27.6840   19.5780 C   0  0  0  0  0  3  0  0  0  0  0  0
  -23.5440  -29.8110   20.2230 C   0  0  0  0  0  2  0  0  0  0  0  0
  -24.6130  -31.0770   22.1380 N   0  0  0  0  0  0  0  0  0  0  0  0
  -23.4870  -32.1450   23.7910 O   0  0  0  0  0  0  0  0  0  0  0  0
  -22.6980  -29.4550   22.5660 C   0  0  0  0  0  0  0  0  0  0  0  0
  -21.3730  -29.2730   22.4450 N   0  0  0  0  0  0  0  0  0  0  0  0
  -23.3860  -28.8280   23.3760 O   0  0  0  0  0  0  0  0  0  0  0  0
  -20.8790  -29.8330   21.7660 H   0  0  0  0  0  0  0  0  0  0  0  0
  -18.0010  -28.0810   22.9560 C   0  0  0  0  0  0  0  0  0  0  0  0
  -20.5590  -28.3360   23.2210 C   0  0  0  0  0  3  0  0  0  0  0  0
  -20.6580  -26.9030   22.6470 C   0  0  0  0  0  2  0  0  0  0  0  0
  -19.5530  -26.5800   21.6360 C   0  0  0  0  0  2  0  0  0  0  0  0
  -18.1730  -26.7300   22.2840 C   0  0  0  0  0  2  0  0  0  0  0  0
  -19.1210  -28.8420   23.3830 C   0  0  0  0  0  0  0  0  0  0  0  0
  -18.9060  -30.1080   23.9700 C   0  0  0  0  0  3  0  0  0  0  0  0
  -17.6010  -30.6110   24.1380 C   0  0  0  0  0  3  0  0  0  0  0  0
  -16.4960  -29.8470   23.7260 C   0  0  0  0  0  3  0  0  0  0  0  0
  -16.6960  -28.5840   23.1400 C   0  0  0  0  0  3  0  0  0  0  0  0
  -25.8550  -32.4980   23.8550 C   0  0  0  0  0  3  0  0  0  0  0  0
  -25.5530  -33.8960   24.1850 N   0  0  0  0  0  0  0  0  0  0  0  0
  -25.8880  -34.9470   23.4240 C   0  0  0  0  0  0  0  0  0  0  0  0
  -26.5550  -34.8400   22.3900 O   0  0  0  0  0  0  0  0  0  0  0  0
  -24.9590  -34.0510   24.9860 H   0  0  0  0  0  0  0  0  0  0  0  0
  -24.1650  -36.7420   23.0690 C   0  0  0  0  0  1  0  0  0  0  0  0
  -25.4050  -36.3350   23.8810 C   0  0  0  0  0  3  0  0  0  0  0  0
  -27.5440  -37.2100   24.7090 C   0  0  0  0  0  1  0  0  0  0  0  0
  -26.4410  -37.3840   23.7690 N   0  0  0  0  0  0  0  0  0  0  0  0
  -26.0390  -38.3050   23.9170 H   0  0  0  0  0  0  0  0  0  0  0  0
  -26.3800  -31.7230   25.1250 C   0  0  1  0  0  0  0  0  0  0  0  0
  -25.2950  -31.4920   26.2020 C   0  0  0  0  0  1  0  0  0  0  0  0
  -26.9540  -30.3440   24.7260 C   0  0  0  0  0  1  0  0  0  0  0  0
  -27.5390  -32.5130   25.7760 C   0  0  0  0  0  1  0  0  0  0  0  0
  2  3  1  0
  3  1  2  0
  4  1  1  0
  4  6  1  0
  5  4  2  0
  7  2  2  0
  7  5  1  0
 10  8  1  6
  9 10  1  0
 10  3  1  0
 10 11  1  0
 12 20  1  0
 13 18  1  0
 14 15  1  0
 14 13  1  0
 16 15  1  0
 16 25  1  0
 16 17  1  0
 18 12  1  0
 18 17  1  0
 19 12  2  0
 20 11  1  0
 20 21  1  0
 22 23  2  0
 23 24  1  0
 23 42  1  0
 24 27  1  0
 25 22  1  0
 25 26  1  0
 26 24  2  0
 27 28  1  0
 28 29  2  0
 30 33  1  0
 30 29  1  0
 31 30  2  0
 32 31  1  0
 32 27  2  0
 33 34  1  0
 34 35  1  0
 35 36  2  0
 37 36  1  0
 37 41  1  0
 38 37  2  0
 39 34  2  0
 39 38  1  0
 40 39  1  0
 42 43  1  0
 43 46  1  0
 43 45  1  0
 44 42  2  0
 47 48  1  0
 47 22  1  0
 49 47  1  0
 50  5  1  0
 50 51  1  0
 52 51  1  0
 53 52  1  0
 54 65  2  0
 55 53  1  0
 55 60  1  0
 56 64  1  0
 56 66  1  0
 57 63  1  0
 57 59  1  0
 58 64  1  0
 59 58  1  0
 60 59  2  0
 61 62  1  0
 61 55  2  0
 62 57  2  0
 63 56  1  0
 64 54  1  0
 66 68  2  0
 67 66  1  0
 69 67  1  0
 70 79  2  0
 70 75  1  0
 71 67  1  0
 71 75  1  0
 72 71  1  0
 73 74  1  0
 73 72  1  0
 74 70  1  0
 75 76  2  0
 76 77  1  0
 78 77  2  0
 79 78  1  0
 80 54  1  0
 80 81  1  0
 80 90  1  0
 81 84  1  0
 82 86  1  0
 82 81  1  0
 83 82  2  0
 86 85  1  0
 88 86  1  0
 88 89  1  0
 88 87  1  0
 90 93  1  1
 90 91  1  0
 92 90  1  0
M  ISO  4  12 100  20 100  52 101  53 101
M  END
>  <TORSDO>  (68) 
F 21

>  <SCORE>  (68) 
-13.141

>  <name>  (68) 
70

>  <ligand_id>  (68) 
70

>  <original_smiles>  (68) 
[H]c1nc(C([H])([H])C([H])([H])C([H])([H])Oc2c([H])c([H])c3c(c2[H])C([H])([H])N(C(=O)C([H])(N([H])C(=O)C([H])(N([H])C([H])([H])[H])C([H])([H])[H])C(C([H])([H])[H])(C([H])([H])[H])C([H])([H])[H])C([H])(C(=O)N([H])C2([H])c4c([H])c([H])c([H])c([H])c4C([H])([H])C([H])([H])C2([H])[H])C3([H])[H])c(C([H])([H])[H])c([H])c1C(C([H])([H])[H])(C([H])([H])[H])C([H])([H])N([H])C(=O)N1C([H])([H])C([H])([H])C([H])([H])C([H])(n2nc(-c3c([H])c([H])c(Oc4c([H])c([H])c(F)c([H])c4F)c([H])c3[H])c(C(=O)N([H])[H])c2N([H])[H])C1([H])[H]

>  <smiles>  (68) 
[H]c1nc(C([H])([H])C([H])([H])C([H])([H])Oc2c([H])c([H])c3c(c2[H])C([H])([H])N(C(=O)C([H])(N([H])C(=O)C([H])(N([H])C([H])([H])[H])C([H])([H])[H])C(C([H])([H])[H])(C([H])([H])[H])C([H])([H])[H])C([H])(C(=O)N([H])C2([H])c4c([H])c([H])c([H])c([H])c4C([H])([H])C([H])([H])C2([H])[H])C3([H])[H])c(C([H])([H])[H])c([H])c1C(C([H])([H])[H])(C([H])([H])[H])C([H])([H])N([H])C(=O)N1C([H])([H])C([H])([H])C([H])([H])C([H])(n2nc(-c3c([H])c([H])c(Oc4c([H])c([H])c(F)c([H])c4F)c([H])c3[H])c(C(=O)N([H])[H])c2N([H])[H])C1([H])[H]

$$$$
71:0:0
     RDKit          3D

 93101  0  0  1  0  0  0  0  0999 V2000
  -27.5210  -20.4560   19.7180 C   0  0  0  0  0  3  0  0  0  0  0  0
  -28.7420  -20.1750   20.3680 C   0  0  0  0  0  0  0  0  0  0  0  0
  -26.9230  -19.4650   18.9200 C   0  0  0  0  0  0  0  0  0  0  0  0
  -29.2640  -18.8330   20.1660 C   0  0  0  0  0  0  0  0  0  0  0  0
  -27.4790  -18.2460   18.7480 N   0  0  0  0  0  0  0  0  0  0  0  0
  -28.6300  -17.9490   19.3530 N   0  0  0  0  0  0  0  0  0  0  0  0
  -24.4750  -18.8290   18.7580 C   0  0  0  0  0  1  0  0  0  0  0  0
  -25.6030  -19.7150   18.2150 C   0  0  0  0  0  2  0  0  0  0  0  0
  -29.3610  -21.3040   21.2420 C   0  0  0  0  0  2  0  0  0  0  0  0
  -29.3140  -22.8250   20.7500 C   0  0  0  0  0  2  0  0  0  0  0  0
  -28.1570  -23.8060   21.1960 C   0  0  0  0  0  2  0  0  0  0  0  0
  -28.4780  -25.3020   21.6110 C   0  0  0  0  0  2  0  0  0  0  0  0
  -28.4200  -26.4060   20.6590 O   0  0  0  0  0  0  0  0  0  0  0  0
  -24.6620  -31.9530   23.3430 C   0  0  0  0  0  0  0  0  0  0  0  0
  -27.2860  -27.2110   20.6500 C   0  0  0  0  0  0  0  0  0  0  0  0
  -23.4690  -30.4580   21.7750 C   0  0  0  0  0  3  0  0  0  0  0  0
  -24.9290  -28.7960   20.4950 C   0  0  0  0  0  0  0  0  0  0  0  0
  -26.0090  -30.7500   21.6150 C   0  0  0  0  0  2  0  0  0  0  0  0
  -26.0870  -29.3300   21.0740 C   0  0  0  0  0  0  0  0  0  0  0  0
  -27.2730  -28.5470   21.1430 C   0  0  0  0  0  3  0  0  0  0  0  0
  -26.1110  -26.7070   20.0630 C   0  0  0  0  0  3  0  0  0  0  0  0
  -24.9390  -27.4870   19.9840 C   0  0  0  0  0  3  0  0  0  0  0  0
  -23.7000  -29.6810   20.4520 C   0  0  0  0  0  2  0  0  0  0  0  0
  -24.7310  -31.0740   22.3010 N   0  0  0  0  0  0  0  0  0  0  0  0
  -23.5730  -32.2780   23.8390 O   0  0  0  0  0  0  0  0  0  0  0  0
  -22.7780  -29.5170   22.7910 C   0  0  0  0  0  0  0  0  0  0  0  0
  -21.4740  -29.2650   22.5870 N   0  0  0  0  0  0  0  0  0  0  0  0
  -23.4170  -29.0130   23.7180 O   0  0  0  0  0  0  0  0  0  0  0  0
  -21.0210  -29.7240   21.8100 H   0  0  0  0  0  0  0  0  0  0  0  0
  -18.1220  -27.9620   22.9540 C   0  0  0  0  0  0  0  0  0  0  0  0
  -20.6370  -28.3740   23.3900 C   0  0  0  0  0  3  0  0  0  0  0  0
  -20.8440  -26.8970   22.9850 C   0  0  0  0  0  2  0  0  0  0  0  0
  -19.8440  -26.4140   21.9300 C   0  0  0  0  0  2  0  0  0  0  0  0
  -18.4080  -26.5580   22.4470 C   0  0  0  0  0  2  0  0  0  0  0  0
  -19.1700  -28.8200   23.3830 C   0  0  0  0  0  0  0  0  0  0  0  0
  -18.8540  -30.1270   23.8120 C   0  0  0  0  0  3  0  0  0  0  0  0
  -17.5210  -30.5790   23.8230 C   0  0  0  0  0  3  0  0  0  0  0  0
  -16.4850  -29.7200   23.4130 C   0  0  0  0  0  3  0  0  0  0  0  0
  -16.7870  -28.4150   22.9840 C   0  0  0  0  0  3  0  0  0  0  0  0
  -25.9430  -32.6090   23.9460 C   0  0  0  0  0  3  0  0  0  0  0  0
  -25.6310  -34.0170   24.2260 N   0  0  0  0  0  0  0  0  0  0  0  0
  -25.9620  -35.0430   23.4310 C   0  0  0  0  0  0  0  0  0  0  0  0
  -26.6320  -34.9050   22.4040 O   0  0  0  0  0  0  0  0  0  0  0  0
  -25.0360  -34.1980   25.0210 H   0  0  0  0  0  0  0  0  0  0  0  0
  -24.2210  -36.8120   23.0230 C   0  0  0  0  0  1  0  0  0  0  0  0
  -25.4710  -36.4460   23.8380 C   0  0  0  0  0  3  0  0  0  0  0  0
  -27.6100  -37.3700   24.6130 C   0  0  0  0  0  1  0  0  0  0  0  0
  -26.4970  -37.4980   23.6760 N   0  0  0  0  0  0  0  0  0  0  0  0
  -26.0870  -38.4220   23.7940 H   0  0  0  0  0  0  0  0  0  0  0  0
  -26.4580  -31.8830   25.2480 C   0  0  1  0  0  0  0  0  0  0  0  0
  -25.3500  -31.6240   26.2950 C   0  0  0  0  0  1  0  0  0  0  0  0
  -27.1040  -30.5220   24.8970 C   0  0  0  0  0  1  0  0  0  0  0  0
  -27.5610  -32.7350   25.9220 C   0  0  0  0  0  1  0  0  0  0  0  0
  -30.5990  -18.2430   20.6880 C   0  0  0  0  0  2  0  0  0  0  0  0
  -30.5560  -16.9860   21.6590 C   0  0  0  0  0  2  0  0  0  0  0  0
  -30.7400  -14.6130   20.6650 C   0  0  0  0  0  0  0  0  0  0  0  0
  -30.4220  -12.5320   19.3480 C   0  0  0  0  0  2  0  0  0  0  0  0
  -29.4820  -12.8200   18.1580 C   0  0  0  0  0  2  0  0  0  0  0  0
  -28.0070  -12.6650   18.5780 C   0  0  0  0  0  2  0  0  0  0  0  0
  -27.6770  -13.4080   19.9010 C   0  0  0  0  0  3  0  0  0  0  0  0
  -28.7310  -13.1090   20.9900 C   0  0  0  0  0  2  0  0  0  0  0  0
  -30.0480  -13.4550   20.4350 N   0  0  0  0  0  0  0  0  0  0  0  0
  -31.9080  -14.7510   20.2970 O   0  0  0  0  0  0  0  0  0  0  0  0
  -30.0360  -15.6640   21.1740 N   0  0  0  0  0  0  0  0  0  0  0  0
  -29.0580  -15.4860   21.3530 H   0  0  0  0  0  0  0  0  0  0  0  0
  -25.2640  -13.9850   20.5680 C   0  0  0  0  0  0  0  0  0  0  0  0
  -24.1960  -13.2030   20.9140 C   0  0  0  0  0  0  0  0  0  0  0  0
  -24.6720  -11.8560   20.8960 C   0  0  0  0  0  0  0  0  0  0  0  0
  -26.3220  -13.1150   20.3590 N   0  0  0  0  0  0  0  0  0  0  0  0
  -25.9700  -11.8290   20.6170 N   0  0  0  0  0  0  0  0  0  0  0  0
  -23.9530  -10.5880   21.0740 C   0  0  0  0  0  0  0  0  0  0  0  0
  -24.3770   -9.6220   22.0140 C   0  0  0  0  0  3  0  0  0  0  0  0
  -23.6580   -8.4190   22.1790 C   0  0  0  0  0  3  0  0  0  0  0  0
  -22.5000   -8.1720   21.4030 C   0  0  0  0  0  0  0  0  0  0  0  0
  -22.0960   -9.1260   20.4520 C   0  0  0  0  0  3  0  0  0  0  0  0
  -22.8160  -10.3210   20.2860 C   0  0  0  0  0  3  0  0  0  0  0  0
  -21.7540   -7.0210   21.4750 O   0  0  0  0  0  0  0  0  0  0  0  0
  -21.6800   -6.2830   22.6290 C   0  0  0  0  0  0  0  0  0  0  0  0
  -21.2340   -6.8440   23.8460 C   0  0  0  0  0  3  0  0  0  0  0  0
  -21.1090   -6.0320   24.9920 C   0  0  0  0  0  3  0  0  0  0  0  0
  -21.4190   -4.6610   24.9210 C   0  0  0  0  0  0  0  0  0  0  0  0
  -21.8580   -4.1000   23.7090 C   0  0  0  0  0  3  0  0  0  0  0  0
  -21.9860   -4.9080   22.5650 C   0  0  0  0  0  0  0  0  0  0  0  0
  -22.3890   -4.3580   21.3950 F   0  0  0  0  0  0  0  0  0  0  0  0
  -21.2910   -3.8790   26.0180 F   0  0  0  0  0  0  0  0  0  0  0  0
  -22.7890  -13.6680   21.1560 C   0  0  0  0  0  0  0  0  0  0  0  0
  -22.0580  -12.9810   22.0260 N   0  0  0  0  0  0  0  0  0  0  0  0
  -22.3450  -14.6760   20.6070 O   0  0  0  0  0  0  0  0  0  0  0  0
  -22.4290  -12.1660   22.4910 H   0  0  0  0  0  0  0  0  0  0  0  0
  -21.1140  -13.2760   22.2320 H   0  0  0  0  0  0  0  0  0  0  0  0
  -25.4150  -15.3560   20.3950 N   0  0  0  0  0  0  0  0  0  0  0  0
  -24.6420  -16.0010   20.5200 H   0  0  0  0  0  0  0  0  0  0  0  0
  -26.2710  -15.8390   20.1440 H   0  0  0  0  0  0  0  0  0  0  0  0
  1  2  1  0
  2  9  1  0
  3  1  2  0
  4  2  2  0
  4 54  1  0
  5  3  1  0
  5  6  2  0
  6  4  1  0
  8  7  1  0
  8  3  1  0
 10 11  1  0
 10  9  1  0
 11 12  1  0
 13 12  1  0
 14 25  2  0
 15 13  1  0
 15 20  1  0
 16 24  1  0
 16 26  1  0
 17 19  1  0
 18 24  1  0
 19 20  2  0
 19 18  1  0
 21 15  2  0
 22 21  1  0
 22 17  2  0
 23 17  1  0
 23 16  1  0
 24 14  1  0
 26 28  2  0
 27 26  1  0
 29 27  1  0
 30 39  2  0
 30 35  1  0
 31 27  1  0
 32 31  1  0
 33 34  1  0
 33 32  1  0
 34 30  1  0
 35 31  1  0
 35 36  2  0
 36 37  1  0
 38 37  2  0
 39 38  1  0
 40 14  1  0
 40 41  1  0
 40 50  1  0
 41 44  1  0
 42 46  1  0
 42 41  1  0
 43 42  2  0
 46 45  1  0
 48 49  1  0
 48 46  1  0
 48 47  1  0
 50 53  1  1
 50 51  1  0
 52 50  1  0
 54 55  1  0
 56 64  1  0
 57 62  1  0
 58 59  1  0
 58 57  1  0
 60 59  1  0
 60 69  1  0
 60 61  1  0
 62 56  1  0
 62 61  1  0
 63 56  2  0
 64 65  1  0
 64 55  1  0
 66 67  2  0
 67 86  1  0
 68 67  1  0
 68 71  1  0
 69 66  1  0
 69 70  1  0
 70 68  2  0
 71 72  1  0
 72 73  2  0
 74 77  1  0
 74 73  1  0
 75 74  2  0
 76 75  1  0
 76 71  2  0
 77 78  1  0
 78 79  1  0
 79 80  2  0
 81 80  1  0
 81 85  1  0
 82 81  2  0
 83 78  2  0
 83 82  1  0
 84 83  1  0
 86 87  1  0
 87 90  1  0
 87 89  1  0
 88 86  2  0
 91 92  1  0
 91 66  1  0
 93 91  1  0
M  ISO  4  12 101  13 101  56 100  64 100
M  END
>  <TORSDO>  (69) 
F 23

>  <SCORE>  (69) 
-11.590

>  <name>  (69) 
71

>  <ligand_id>  (69) 
71

>  <original_smiles>  (69) 
[H]c1c([H])c([H])c2c(c1[H])C([H])([H])C([H])([H])C([H])([H])C2([H])N([H])C(=O)C1([H])N(C(=O)C([H])(N([H])C(=O)C([H])(N([H])C([H])([H])[H])C([H])([H])[H])C(C([H])([H])[H])(C([H])([H])[H])C([H])([H])[H])C([H])([H])c2c([H])c(OC([H])([H])C([H])([H])C([H])([H])C([H])([H])c3c(C([H])([H])C([H])([H])N([H])C(=O)N4C([H])([H])C([H])([H])C([H])([H])C([H])(n5nc(-c6c([H])c([H])c(Oc7c([H])c([H])c(F)c([H])c7F)c([H])c6[H])c(C(=O)N([H])[H])c5N([H])[H])C4([H])[H])nnc(C([H])([H])C([H])([H])[H])c3[H])c([H])c([H])c2C1([H])[H]

>  <smiles>  (69) 
[H]c1c([H])c([H])c2c(c1[H])C([H])([H])C([H])([H])C([H])([H])C2([H])N([H])C(=O)C1([H])N(C(=O)C([H])(N([H])C(=O)C([H])(N([H])C([H])([H])[H])C([H])([H])[H])C(C([H])([H])[H])(C([H])([H])[H])C([H])([H])[H])C([H])([H])c2c([H])c(OC([H])([H])C([H])([H])C([H])([H])C([H])([H])c3c(C([H])([H])C([H])([H])N([H])C(=O)N4C([H])([H])C([H])([H])C([H])([H])C([H])(n5nc(-c6c([H])c([H])c(Oc7c([H])c([H])c(F)c([H])c7F)c([H])c6[H])c(C(=O)N([H])[H])c5N([H])[H])C4([H])[H])nnc(C([H])([H])C([H])([H])[H])c3[H])c([H])c([H])c2C1([H])[H]

$$$$
72:0:0
     RDKit          3D

 93101  0  0  1  0  0  0  0  0999 V2000
  -27.3630  -21.7450   19.5030 C   0  0  0  0  0  3  0  0  0  0  0  0
  -26.3110  -20.8300   19.5470 C   0  0  0  0  0  3  0  0  0  0  0  0
  -28.6990  -21.3370   19.7240 C   0  0  0  0  0  0  0  0  0  0  0  0
  -26.6040  -19.4960   19.8280 C   0  0  0  0  0  0  0  0  0  0  0  0
  -28.9280  -19.8840   19.9050 C   0  0  0  0  0  0  0  0  0  0  0  0
  -27.8640  -19.0490   19.9800 N   0  0  0  0  0  0  0  0  0  0  0  0
  -25.3590  -17.5030   18.8720 C   0  0  0  0  0  1  0  0  0  0  0  0
  -25.4860  -18.4970   20.0310 C   0  0  0  0  0  2  0  0  0  0  0  0
  -30.4460  -18.9430   21.7560 C   0  0  0  0  0  1  0  0  0  0  0  0
  -30.2330  -19.0320   20.2360 C   0  0  0  0  0  3  0  0  0  0  0  0
  -30.4180  -17.5510   19.5470 C   0  0  0  0  0  2  0  0  0  0  0  0
  -31.1350  -15.1010   20.2460 C   0  0  0  0  0  0  0  0  0  0  0  0
  -31.0590  -12.7090   19.5410 C   0  0  0  0  0  2  0  0  0  0  0  0
  -30.1490  -12.5920   18.2970 C   0  0  0  0  0  2  0  0  0  0  0  0
  -28.6760  -12.4210   18.7130 C   0  0  0  0  0  2  0  0  0  0  0  0
  -28.2410  -13.4340   19.8050 C   0  0  0  0  0  3  0  0  0  0  0  0
  -29.2740  -13.5130   20.9520 C   0  0  0  0  0  2  0  0  0  0  0  0
  -30.5700  -13.8480   20.3530 N   0  0  0  0  0  0  0  0  0  0  0  0
  -32.3110  -15.2120   19.8930 O   0  0  0  0  0  0  0  0  0  0  0  0
  -30.3050  -16.2140   20.3020 N   0  0  0  0  0  0  0  0  0  0  0  0
  -29.3840  -16.0180   20.6620 H   0  0  0  0  0  0  0  0  0  0  0  0
  -25.8770  -14.0530   20.5800 C   0  0  0  0  0  0  0  0  0  0  0  0
  -24.7940  -13.2940   20.9300 C   0  0  0  0  0  0  0  0  0  0  0  0
  -25.2220  -11.9340   20.8410 C   0  0  0  0  0  0  0  0  0  0  0  0
  -26.8950  -13.1600   20.2960 N   0  0  0  0  0  0  0  0  0  0  0  0
  -26.5090  -11.8760   20.5160 N   0  0  0  0  0  0  0  0  0  0  0  0
  -24.4630  -10.6850   20.9890 C   0  0  0  0  0  0  0  0  0  0  0  0
  -24.8320   -9.7040   21.9340 C   0  0  0  0  0  3  0  0  0  0  0  0
  -24.0750   -8.5210   22.0730 C   0  0  0  0  0  3  0  0  0  0  0  0
  -22.9330   -8.3120   21.2630 C   0  0  0  0  0  0  0  0  0  0  0  0
  -22.5820   -9.2820   20.3080 C   0  0  0  0  0  3  0  0  0  0  0  0
  -23.3420  -10.4550   20.1670 C   0  0  0  0  0  3  0  0  0  0  0  0
  -22.1550   -7.1800   21.3080 O   0  0  0  0  0  0  0  0  0  0  0  0
  -21.9670   -6.4810   22.4730 C   0  0  0  0  0  0  0  0  0  0  0  0
  -21.3970   -7.0800   23.6180 C   0  0  0  0  0  3  0  0  0  0  0  0
  -21.1580   -6.3090   24.7720 C   0  0  0  0  0  3  0  0  0  0  0  0
  -21.4780   -4.9380   24.7820 C   0  0  0  0  0  0  0  0  0  0  0  0
  -22.0420   -4.3370   23.6420 C   0  0  0  0  0  3  0  0  0  0  0  0
  -22.2830   -5.1070   22.4910 C   0  0  0  0  0  0  0  0  0  0  0  0
  -22.8050   -4.5190   21.3870 F   0  0  0  0  0  0  0  0  0  0  0  0
  -21.2420   -4.1940   25.8880 F   0  0  0  0  0  0  0  0  0  0  0  0
  -23.4130  -13.7990   21.2320 C   0  0  0  0  0  0  0  0  0  0  0  0
  -22.6800  -13.1040   22.0960 N   0  0  0  0  0  0  0  0  0  0  0  0
  -22.9940  -14.8460   20.7400 O   0  0  0  0  0  0  0  0  0  0  0  0
  -23.0300  -12.2550   22.5150 H   0  0  0  0  0  0  0  0  0  0  0  0
  -21.7510  -13.4230   22.3320 H   0  0  0  0  0  0  0  0  0  0  0  0
  -26.0740  -15.4230   20.4590 N   0  0  0  0  0  0  0  0  0  0  0  0
  -25.3100  -16.0740   20.5890 H   0  0  0  0  0  0  0  0  0  0  0  0
  -26.9140  -15.8640   20.1020 H   0  0  0  0  0  0  0  0  0  0  0  0
  -29.6910  -22.5640   19.8180 C   0  0  0  0  0  2  0  0  0  0  0  0
  -29.2990  -24.0380   19.2110 C   0  0  0  0  0  2  0  0  0  0  0  0
  -28.4750  -25.1850   20.0020 C   0  0  0  0  0  2  0  0  0  0  0  0
  -28.5710  -26.6290   19.5850 O   0  0  0  0  0  0  0  0  0  0  0  0
  -24.7270  -31.6670   23.1440 C   0  0  0  0  0  0  0  0  0  0  0  0
  -27.4280  -27.4570   19.6660 C   0  0  0  0  0  0  0  0  0  0  0  0
  -23.5390  -30.3750   21.4070 C   0  0  0  0  0  3  0  0  0  0  0  0
  -25.0130  -29.0020   19.8260 C   0  0  0  0  0  0  0  0  0  0  0  0
  -26.0620  -30.7950   21.2060 C   0  0  0  0  0  2  0  0  0  0  0  0
  -26.1770  -29.4770   20.4410 C   0  0  0  0  0  0  0  0  0  0  0  0
  -27.3900  -28.7210   20.3450 C   0  0  0  0  0  3  0  0  0  0  0  0
  -26.2410  -27.0480   19.0250 C   0  0  0  0  0  3  0  0  0  0  0  0
  -25.0490  -27.7970   19.1080 C   0  0  0  0  0  3  0  0  0  0  0  0
  -23.7480  -29.8270   19.9700 C   0  0  0  0  0  2  0  0  0  0  0  0
  -24.7950  -30.9590   21.9780 N   0  0  0  0  0  0  0  0  0  0  0  0
  -23.6460  -31.8580   23.7190 O   0  0  0  0  0  0  0  0  0  0  0  0
  -22.9280  -29.2570   22.2880 C   0  0  0  0  0  0  0  0  0  0  0  0
  -21.6070  -29.0460   22.1690 N   0  0  0  0  0  0  0  0  0  0  0  0
  -23.6450  -28.5850   23.0350 O   0  0  0  0  0  0  0  0  0  0  0  0
  -21.0850  -29.6440   21.5430 H   0  0  0  0  0  0  0  0  0  0  0  0
  -18.2840  -27.6790   22.6090 C   0  0  0  0  0  0  0  0  0  0  0  0
  -20.8360  -28.0150   22.8690 C   0  0  0  0  0  3  0  0  0  0  0  0
  -20.9830  -26.6420   22.1740 C   0  0  0  0  0  2  0  0  0  0  0  0
  -19.8800  -26.3630   21.1490 C   0  0  0  0  0  2  0  0  0  0  0  0
  -18.5030  -26.3980   21.8200 C   0  0  0  0  0  2  0  0  0  0  0  0
  -19.3790  -28.4450   23.0880 C   0  0  0  0  0  0  0  0  0  0  0  0
  -19.1210  -29.6430   23.7880 C   0  0  0  0  0  3  0  0  0  0  0  0
  -17.8010  -30.0760   24.0130 C   0  0  0  0  0  3  0  0  0  0  0  0
  -16.7220  -29.3050   23.5500 C   0  0  0  0  0  3  0  0  0  0  0  0
  -16.9620  -28.1090   22.8530 C   0  0  0  0  0  3  0  0  0  0  0  0
  -26.0000  -32.2880   23.7980 C   0  0  0  0  0  3  0  0  0  0  0  0
  -25.6630  -33.6570   24.2170 N   0  0  0  0  0  0  0  0  0  0  0  0
  -25.9780  -34.7630   23.5300 C   0  0  0  0  0  0  0  0  0  0  0  0
  -26.6510  -34.7390   22.4970 O   0  0  0  0  0  0  0  0  0  0  0  0
  -25.0630  -33.7480   25.0230 H   0  0  0  0  0  0  0  0  0  0  0  0
  -24.2180  -36.5450   23.2870 C   0  0  0  0  0  1  0  0  0  0  0  0
  -25.4650  -36.1110   24.0740 C   0  0  0  0  0  3  0  0  0  0  0  0
  -27.5790  -36.9820   24.9720 C   0  0  0  0  0  1  0  0  0  0  0  0
  -26.4790  -37.1870   24.0320 N   0  0  0  0  0  0  0  0  0  0  0  0
  -26.0570  -38.0890   24.2310 H   0  0  0  0  0  0  0  0  0  0  0  0
  -26.5400  -31.4510   25.0230 C   0  0  1  0  0  0  0  0  0  0  0  0
  -25.4600  -31.1410   26.0870 C   0  0  0  0  0  1  0  0  0  0  0  0
  -27.1320  -30.1050   24.5470 C   0  0  0  0  0  1  0  0  0  0  0  0
  -27.6870  -32.2200   25.7170 C   0  0  0  0  0  1  0  0  0  0  0  0
  1  2  2  0
  1  3  1  0
  2  4  1  0
  3 50  1  0
  3  5  2  0
  4  6  2  0
  4  8  1  0
  5  6  1  0
  5 10  1  0
  7  8  1  0
 10  9  1  0
 11 10  1  0
 11 20  1  0
 12 20  1  0
 12 18  1  0
 13 18  1  0
 14 15  1  0
 14 13  1  0
 16 15  1  0
 16 25  1  0
 16 17  1  0
 18 17  1  0
 19 12  2  0
 20 21  1  0
 22 23  2  0
 23 42  1  0
 24 23  1  0
 24 27  1  0
 25 26  1  0
 25 22  1  0
 26 24  2  0
 27 28  1  0
 28 29  2  0
 30 33  1  0
 30 29  1  0
 31 30  2  0
 32 31  1  0
 32 27  2  0
 33 34  1  0
 34 39  2  0
 34 35  1  0
 35 36  2  0
 36 37  1  0
 37 41  1  0
 38 37  2  0
 39 38  1  0
 40 39  1  0
 42 43  1  0
 43 46  1  0
 43 45  1  0
 44 42  2  0
 47 22  1  0
 47 48  1  0
 49 47  1  0
 51 50  1  0
 51 52  1  0
 53 55  1  0
 53 52  1  0
 54 65  2  0
 55 60  1  0
 56 64  1  0
 56 66  1  0
 57 63  1  0
 57 59  1  0
 58 64  1  0
 59 58  1  0
 60 59  2  0
 61 62  1  0
 61 55  2  0
 62 57  2  0
 63 56  1  0
 64 54  1  0
 66 68  2  0
 67 66  1  0
 69 67  1  0
 70 79  2  0
 70 75  1  0
 71 67  1  0
 71 75  1  0
 72 71  1  0
 73 74  1  0
 73 72  1  0
 74 70  1  0
 75 76  2  0
 76 77  1  0
 78 77  2  0
 79 78  1  0
 80 54  1  0
 80 81  1  0
 80 90  1  0
 81 84  1  0
 82 86  1  0
 82 81  1  0
 83 82  2  0
 86 85  1  0
 88 86  1  0
 88 89  1  0
 88 87  1  0
 90 93  1  1
 90 91  1  0
 92 90  1  0
M  ISO  4  12 100  20 100  52 101  53 101
M  END
>  <TORSDO>  (70) 
F 22

>  <SCORE>  (70) 
-8.467

>  <name>  (70) 
72

>  <ligand_id>  (70) 
72

>  <original_smiles>  (70) 
[H]c1c(C([H])([H])C([H])([H])[H])nc(C([H])(C([H])([H])[H])C([H])([H])N([H])C(=O)N2C([H])([H])C([H])([H])C([H])([H])C([H])(n3nc(-c4c([H])c([H])c(Oc5c([H])c([H])c(F)c([H])c5F)c([H])c4[H])c(C(=O)N([H])[H])c3N([H])[H])C2([H])[H])c(C([H])([H])C([H])([H])C([H])([H])Oc2c([H])c([H])c3c(c2[H])C([H])([H])N(C(=O)C([H])(N([H])C(=O)C([H])(N([H])C([H])([H])[H])C([H])([H])[H])C(C([H])([H])[H])(C([H])([H])[H])C([H])([H])[H])C([H])(C(=O)N([H])C2([H])c4c([H])c([H])c([H])c([H])c4C([H])([H])C([H])([H])C2([H])[H])C3([H])[H])c1[H]

>  <smiles>  (70) 
[H]c1c(C([H])([H])C([H])([H])[H])nc(C([H])(C([H])([H])[H])C([H])([H])N([H])C(=O)N2C([H])([H])C([H])([H])C([H])([H])C([H])(n3nc(-c4c([H])c([H])c(Oc5c([H])c([H])c(F)c([H])c5F)c([H])c4[H])c(C(=O)N([H])[H])c3N([H])[H])C2([H])[H])c(C([H])([H])C([H])([H])C([H])([H])Oc2c([H])c([H])c3c(c2[H])C([H])([H])N(C(=O)C([H])(N([H])C(=O)C([H])(N([H])C([H])([H])[H])C([H])([H])[H])C(C([H])([H])[H])(C([H])([H])[H])C([H])([H])[H])C([H])(C(=O)N([H])C2([H])c4c([H])c([H])c([H])c([H])c4C([H])([H])C([H])([H])C2([H])[H])C3([H])[H])c1[H]

$$$$
73:0:0
     RDKit          3D

 95103  0  0  1  0  0  0  0  0999 V2000
  -26.1540  -21.1890   20.6470 C   0  0  0  0  0  1  0  0  0  0  0  0
  -26.0780  -23.3320   19.3840 C   0  0  0  0  0  1  0  0  0  0  0  0
  -27.0210  -22.2200   19.8890 C   0  0  2  0  0  0  0  0  0  0  0  0
  -27.7190  -21.5720   18.6520 C   0  0  0  0  0  2  0  0  0  0  0  0
  -29.2970  -19.5960   19.1670 C   0  0  0  0  0  3  0  0  0  0  0  0
  -28.0840  -20.1180   18.8180 C   0  0  0  0  0  0  0  0  0  0  0  0
  -27.2560  -18.9660   18.6450 C   0  0  0  0  0  0  0  0  0  0  0  0
  -25.8120  -18.9040   18.2350 C   0  0  0  0  0  1  0  0  0  0  0  0
  -27.9060  -17.8400   18.8930 N   0  0  0  0  0  0  0  0  0  0  0  0
  -29.1560  -18.2300   19.2230 N   0  0  0  0  0  0  0  0  0  0  0  0
  -30.1530  -17.2380   19.5510 C   0  0  0  0  0  2  0  0  0  0  0  0
  -29.8310  -16.5330   20.8920 C   0  0  0  0  0  2  0  0  0  0  0  0
  -31.2980  -14.6410   20.3790 C   0  0  0  0  0  0  0  0  0  0  0  0
  -30.8860  -12.5740   19.0960 C   0  0  0  0  0  2  0  0  0  0  0  0
  -29.9580  -12.8500   17.9000 C   0  0  0  0  0  2  0  0  0  0  0  0
  -28.4820  -12.7200   18.3190 C   0  0  0  0  0  2  0  0  0  0  0  0
  -28.1600  -13.5310   19.6010 C   0  0  0  0  0  3  0  0  0  0  0  0
  -29.2030  -13.2580   20.7120 C   0  0  0  0  0  2  0  0  0  0  0  0
  -30.5440  -13.5280   20.1630 N   0  0  0  0  0  0  0  0  0  0  0  0
  -32.3770  -14.8400   19.8140 O   0  0  0  0  0  0  0  0  0  0  0  0
  -31.7390  -16.0120   22.3320 C   0  0  0  0  0  1  0  0  0  0  0  0
  -30.8330  -15.5270   21.2890 N   0  0  0  0  0  0  0  0  0  0  0  0
  -25.7670  -14.1810   20.2910 C   0  0  0  0  0  0  0  0  0  0  0  0
  -24.6860  -13.4250   20.6570 C   0  0  0  0  0  0  0  0  0  0  0  0
  -25.1250  -12.0660   20.6280 C   0  0  0  0  0  0  0  0  0  0  0  0
  -26.8010  -13.2820   20.0680 N   0  0  0  0  0  0  0  0  0  0  0  0
  -26.4150  -12.0060   20.3270 N   0  0  0  0  0  0  0  0  0  0  0  0
  -24.3790  -10.8160   20.8130 C   0  0  0  0  0  0  0  0  0  0  0  0
  -24.7210   -9.8940   21.8290 C   0  0  0  0  0  3  0  0  0  0  0  0
  -23.9780   -8.7050   21.9950 C   0  0  0  0  0  3  0  0  0  0  0  0
  -22.8800   -8.4300   21.1480 C   0  0  0  0  0  0  0  0  0  0  0  0
  -22.5570   -9.3390   20.1230 C   0  0  0  0  0  3  0  0  0  0  0  0
  -23.3000  -10.5180   19.9550 C   0  0  0  0  0  3  0  0  0  0  0  0
  -22.1150   -7.2910   21.2210 O   0  0  0  0  0  0  0  0  0  0  0  0
  -21.8550   -6.6740   22.4180 C   0  0  0  0  0  0  0  0  0  0  0  0
  -21.1980   -7.3420   23.4740 C   0  0  0  0  0  3  0  0  0  0  0  0
  -20.8920   -6.6500   24.6620 C   0  0  0  0  0  3  0  0  0  0  0  0
  -21.2320   -5.2900   24.7930 C   0  0  0  0  0  0  0  0  0  0  0  0
  -21.8820   -4.6210   23.7410 C   0  0  0  0  0  3  0  0  0  0  0  0
  -22.1900   -5.3130   22.5550 C   0  0  0  0  0  0  0  0  0  0  0  0
  -22.7980   -4.6590   21.5350 F   0  0  0  0  0  0  0  0  0  0  0  0
  -20.9310   -4.6210   25.9310 F   0  0  0  0  0  0  0  0  0  0  0  0
  -23.2940  -13.9240   20.9240 C   0  0  0  0  0  0  0  0  0  0  0  0
  -22.5580  -13.2470   21.7980 N   0  0  0  0  0  0  0  0  0  0  0  0
  -22.8680  -14.9490   20.3910 O   0  0  0  0  0  0  0  0  0  0  0  0
  -22.9150  -12.4170   22.2490 H   0  0  0  0  0  0  0  0  0  0  0  0
  -21.6210  -13.5560   22.0170 H   0  0  0  0  0  0  0  0  0  0  0  0
  -25.9470  -15.5480   20.1110 N   0  0  0  0  0  0  0  0  0  0  0  0
  -25.1710  -16.1920   20.1990 H   0  0  0  0  0  0  0  0  0  0  0  0
  -26.7690  -15.9840   19.6990 H   0  0  0  0  0  0  0  0  0  0  0  0
  -28.0500  -22.7940   20.9090 C   0  0  0  0  0  2  0  0  0  0  0  0
  -28.8020  -24.0800   20.4970 C   0  0  0  0  0  2  0  0  0  0  0  0
  -29.7310  -24.6380   21.5980 C   0  0  0  0  0  2  0  0  0  0  0  0
  -29.3710  -26.0670   22.0560 C   0  0  0  0  0  2  0  0  0  0  0  0
  -29.3510  -26.9890   20.9640 O   0  0  0  0  0  0  0  0  0  0  0  0
  -24.8980  -31.9070   23.5490 C   0  0  0  0  0  0  0  0  0  0  0  0
  -28.1560  -27.6530   20.8390 C   0  0  0  0  0  0  0  0  0  0  0  0
  -23.9680  -30.3990   21.8210 C   0  0  0  0  0  3  0  0  0  0  0  0
  -25.6670  -28.9570   20.5840 C   0  0  0  0  0  0  0  0  0  0  0  0
  -26.4650  -30.9460   21.8680 C   0  0  0  0  0  2  0  0  0  0  0  0
  -26.7150  -29.5760   21.2770 C   0  0  0  0  0  0  0  0  0  0  0  0
  -27.9630  -28.9290   21.4100 C   0  0  0  0  0  3  0  0  0  0  0  0
  -27.1020  -27.0500   20.1240 C   0  0  0  0  0  3  0  0  0  0  0  0
  -25.8560  -27.6890   20.0070 C   0  0  0  0  0  3  0  0  0  0  0  0
  -24.3640  -29.7140   20.4850 C   0  0  0  0  0  2  0  0  0  0  0  0
  -25.1210  -31.1000   22.4730 N   0  0  0  0  0  0  0  0  0  0  0  0
  -23.7520  -32.1060   23.9760 O   0  0  0  0  0  0  0  0  0  0  0  0
  -23.3010  -29.3460   22.7350 C   0  0  0  0  0  0  0  0  0  0  0  0
  -22.0160  -29.0550   22.4720 N   0  0  0  0  0  0  0  0  0  0  0  0
  -23.9390  -28.7920   23.6340 O   0  0  0  0  0  0  0  0  0  0  0  0
  -21.5630  -29.5500   21.7170 H   0  0  0  0  0  0  0  0  0  0  0  0
  -18.6980  -27.6440   22.6740 C   0  0  0  0  0  0  0  0  0  0  0  0
  -21.1970  -28.0710   23.1780 C   0  0  0  0  0  3  0  0  0  0  0  0
  -21.4490  -26.6470   22.6310 C   0  0  0  0  0  2  0  0  0  0  0  0
  -20.4690  -26.2460   21.5250 C   0  0  0  0  0  2  0  0  0  0  0  0
  -19.0250  -26.3060   22.0350 C   0  0  0  0  0  2  0  0  0  0  0  0
  -19.7200  -28.4800   23.1970 C   0  0  0  0  0  0  0  0  0  0  0  0
  -19.3660  -29.7320   23.7470 C   0  0  0  0  0  3  0  0  0  0  0  0
  -18.0220  -30.1470   23.7840 C   0  0  0  0  0  3  0  0  0  0  0  0
  -17.0130  -29.3080   23.2810 C   0  0  0  0  0  3  0  0  0  0  0  0
  -17.3500  -28.0590   22.7280 C   0  0  0  0  0  3  0  0  0  0  0  0
  -26.0670  -32.6410   24.2780 C   0  0  0  0  0  3  0  0  0  0  0  0
  -25.6650  -34.0400   24.4700 N   0  0  0  0  0  0  0  0  0  0  0  0
  -26.0300  -35.0530   23.6710 C   0  0  0  0  0  0  0  0  0  0  0  0
  -26.8130  -34.9130   22.7280 O   0  0  0  0  0  0  0  0  0  0  0  0
  -24.9800  -34.2190   25.1900 H   0  0  0  0  0  0  0  0  0  0  0  0
  -24.2670  -36.7140   22.9980 C   0  0  0  0  0  1  0  0  0  0  0  0
  -25.4300  -36.4410   23.9640 C   0  0  0  0  0  3  0  0  0  0  0  0
  -27.4140  -37.5040   24.9460 C   0  0  0  0  0  1  0  0  0  0  0  0
  -26.4180  -37.5390   23.8770 N   0  0  0  0  0  0  0  0  0  0  0  0
  -25.9560  -38.4430   23.9040 H   0  0  0  0  0  0  0  0  0  0  0  0
  -26.4530  -31.9760   25.6560 C   0  0  1  0  0  0  0  0  0  0  0  0
  -25.2440  -31.7170   26.5830 C   0  0  0  0  0  1  0  0  0  0  0  0
  -27.1700  -30.6260   25.4260 C   0  0  0  0  0  1  0  0  0  0  0  0
  -27.4560  -32.8800   26.4100 C   0  0  0  0  0  1  0  0  0  0  0  0
  3  2  1  6
  3  1  1  0
  3 51  1  0
  4  6  1  0
  4  3  1  0
  5 10  1  0
  6  5  2  0
  7  6  1  0
  7  9  2  0
  8  7  1  0
  9 10  1  0
 10 11  1  0
 11 12  1  0
 12 22  1  0
 13 22  1  0
 14 19  1  0
 15 16  1  0
 15 14  1  0
 17 16  1  0
 17 26  1  0
 17 18  1  0
 19 13  1  0
 19 18  1  0
 20 13  2  0
 22 21  1  0
 23 24  2  0
 24 43  1  0
 25 24  1  0
 25 28  1  0
 26 23  1  0
 26 27  1  0
 27 25  2  0
 28 29  1  0
 29 30  2  0
 31 34  1  0
 31 30  1  0
 32 31  2  0
 33 32  1  0
 33 28  2  0
 34 35  1  0
 35 40  2  0
 35 36  1  0
 36 37  2  0
 37 38  1  0
 38 42  1  0
 39 38  2  0
 40 39  1  0
 41 40  1  0
 43 44  1  0
 44 47  1  0
 44 46  1  0
 45 43  2  0
 48 49  1  0
 48 23  1  0
 50 48  1  0
 52 51  1  0
 52 53  1  0
 53 54  1  0
 55 54  1  0
 56 67  2  0
 57 55  1  0
 57 62  1  0
 58 66  1  0
 58 68  1  0
 59 61  1  0
 60 66  1  0
 61 62  2  0
 61 60  1  0
 63 57  2  0
 64 63  1  0
 64 59  2  0
 65 59  1  0
 65 58  1  0
 66 56  1  0
 68 70  2  0
 69 68  1  0
 71 69  1  0
 72 81  2  0
 72 77  1  0
 73 69  1  0
 73 77  1  0
 74 73  1  0
 75 76  1  0
 75 74  1  0
 76 72  1  0
 77 78  2  0
 78 79  1  0
 80 79  2  0
 81 80  1  0
 82 56  1  0
 82 83  1  0
 82 92  1  0
 83 86  1  0
 84 88  1  0
 84 83  1  0
 85 84  2  0
 88 87  1  0
 90 91  1  0
 90 88  1  0
 90 89  1  0
 92 95  1  1
 92 93  1  0
 94 92  1  0
M  ISO  4  13 100  22 100  54 101  55 101
M  END
>  <TORSDO>  (71) 
F 24

>  <SCORE>  (71) 
-7.996

>  <name>  (71) 
73

>  <ligand_id>  (71) 
73

>  <original_smiles>  (71) 
[H]c1c([H])c([H])c2c(c1[H])C([H])([H])C([H])([H])C([H])([H])C2([H])N([H])C(=O)C1([H])N(C(=O)C([H])(N([H])C(=O)C([H])(N([H])C([H])([H])[H])C([H])([H])[H])C(C([H])([H])[H])(C([H])([H])[H])C([H])([H])[H])C([H])([H])c2c([H])c(OC([H])([H])C([H])([H])C([H])([H])C([H])([H])C(C([H])([H])[H])(C([H])([H])[H])C([H])([H])c3c(C([H])([H])[H])nn(C([H])([H])C([H])([H])N(C(=O)N4C([H])([H])C([H])([H])C([H])([H])C([H])(n5nc(-c6c([H])c([H])c(Oc7c([H])c([H])c(F)c([H])c7F)c([H])c6[H])c(C(=O)N([H])[H])c5N([H])[H])C4([H])[H])C([H])([H])[H])c3[H])c([H])c([H])c2C1([H])[H]

>  <smiles>  (71) 
[H]c1c([H])c([H])c2c(c1[H])C([H])([H])C([H])([H])C([H])([H])C2([H])N([H])C(=O)C1([H])N(C(=O)C([H])(N([H])C(=O)C([H])(N([H])C([H])([H])[H])C([H])([H])[H])C(C([H])([H])[H])(C([H])([H])[H])C([H])([H])[H])C([H])([H])c2c([H])c(OC([H])([H])C([H])([H])C([H])([H])C([H])([H])C(C([H])([H])[H])(C([H])([H])[H])C([H])([H])c3c(C([H])([H])[H])nn(C([H])([H])C([H])([H])N(C(=O)N4C([H])([H])C([H])([H])C([H])([H])C([H])(n5nc(-c6c([H])c([H])c(Oc7c([H])c([H])c(F)c([H])c7F)c([H])c6[H])c(C(=O)N([H])[H])c5N([H])[H])C4([H])[H])C([H])([H])[H])c3[H])c([H])c([H])c2C1([H])[H]

$$$$
74:0:0
     RDKit          3D

 94102  0  0  1  0  0  0  0  0999 V2000
  -30.1820  -21.3170   21.6230 C   0  0  0  0  0  0  0  0  0  0  0  0
  -30.7610  -20.1360   22.1530 C   0  0  0  0  0  0  0  0  0  0  0  0
  -29.9690  -21.3720   20.2180 C   0  0  0  0  0  0  0  0  0  0  0  0
  -30.7870  -19.1210   20.1020 C   0  0  0  0  0  0  0  0  0  0  0  0
  -31.0610  -19.9400   23.6310 C   0  0  0  0  0  1  0  0  0  0  0  0
  -31.0360  -19.0610   21.3990 N   0  0  0  0  0  0  0  0  0  0  0  0
  -30.2890  -20.2360   19.4910 N   0  0  0  0  0  0  0  0  0  0  0  0
  -28.2270  -22.6110   22.6460 C   0  0  0  0  0  1  0  0  0  0  0  0
  -29.7480  -22.4420   22.5670 C   0  0  0  0  0  2  0  0  0  0  0  0
  -29.1310  -22.5400   19.5120 C   0  0  0  0  0  3  0  0  0  0  0  0
  -29.4860  -24.1350   19.4240 C   0  0  0  0  0  3  0  0  0  0  0  0
  -28.3050  -25.1660   18.9680 C   0  0  0  0  0  3  0  0  0  0  0  0
  -26.8200  -23.8010   17.3160 C   0  0  0  0  0  1  0  0  0  0  0  0
  -27.8920  -24.8930   17.4970 C   0  0  0  0  0  2  0  0  0  0  0  0
  -28.4160  -26.6760   19.0930 O   0  0  0  0  0  0  0  0  0  0  0  0
  -24.5920  -31.4490   23.0160 C   0  0  0  0  0  0  0  0  0  0  0  0
  -27.2480  -27.4840   19.2080 C   0  0  0  0  0  0  0  0  0  0  0  0
  -23.3720  -30.1290   21.3510 C   0  0  0  0  0  3  0  0  0  0  0  0
  -24.7730  -28.9120   19.5970 C   0  0  0  0  0  0  0  0  0  0  0  0
  -25.8310  -30.7100   20.9530 C   0  0  0  0  0  2  0  0  0  0  0  0
  -25.9590  -29.4200   20.1410 C   0  0  0  0  0  0  0  0  0  0  0  0
  -27.1960  -28.7250   19.9350 C   0  0  0  0  0  3  0  0  0  0  0  0
  -26.0250  -27.0590   18.6330 C   0  0  0  0  0  3  0  0  0  0  0  0
  -24.8120  -27.7430   18.8270 C   0  0  0  0  0  3  0  0  0  0  0  0
  -23.4790  -29.6460   19.8810 C   0  0  0  0  0  2  0  0  0  0  0  0
  -24.6240  -30.7810   21.8260 N   0  0  0  0  0  0  0  0  0  0  0  0
  -23.5470  -31.5470   23.6750 O   0  0  0  0  0  0  0  0  0  0  0  0
  -22.9170  -28.9510   22.2390 C   0  0  0  0  0  0  0  0  0  0  0  0
  -21.6260  -28.6590   22.1060 N   0  0  0  0  0  0  0  0  0  0  0  0
  -23.6920  -28.3360   22.9730 O   0  0  0  0  0  0  0  0  0  0  0  0
  -21.1040  -29.3250   21.5540 H   0  0  0  0  0  0  0  0  0  0  0  0
  -18.5200  -26.5930   22.3400 C   0  0  0  0  0  0  0  0  0  0  0  0
  -20.8690  -27.4740   22.4210 C   0  0  0  0  0  3  0  0  0  0  0  0
  -21.4240  -26.0600   22.1980 C   0  0  0  0  0  2  0  0  0  0  0  0
  -20.4940  -25.3280   21.2080 C   0  0  0  0  0  2  0  0  0  0  0  0
  -19.0270  -25.3000   21.6910 C   0  0  0  0  0  2  0  0  0  0  0  0
  -19.4110  -27.5950   22.7940 C   0  0  0  0  0  0  0  0  0  0  0  0
  -18.9160  -28.7670   23.3990 C   0  0  0  0  0  3  0  0  0  0  0  0
  -17.5280  -28.9670   23.5070 C   0  0  0  0  0  3  0  0  0  0  0  0
  -16.6370  -27.9890   23.0300 C   0  0  0  0  0  3  0  0  0  0  0  0
  -17.1310  -26.8000   22.4650 C   0  0  0  0  0  3  0  0  0  0  0  0
  -25.8640  -32.1380   23.5890 C   0  0  0  0  0  3  0  0  0  0  0  0
  -25.4790  -33.4910   24.0150 N   0  0  0  0  0  0  0  0  0  0  0  0
  -25.7420  -34.6090   23.3260 C   0  0  0  0  0  0  0  0  0  0  0  0
  -26.4050  -34.6120   22.2840 O   0  0  0  0  0  0  0  0  0  0  0  0
  -24.8880  -33.5590   24.8310 H   0  0  0  0  0  0  0  0  0  0  0  0
  -23.9220  -36.3320   23.0950 C   0  0  0  0  0  1  0  0  0  0  0  0
  -25.1860  -35.9370   23.8780 C   0  0  0  0  0  3  0  0  0  0  0  0
  -27.2720  -36.8700   24.7760 C   0  0  0  0  0  1  0  0  0  0  0  0
  -26.1660  -37.0450   23.8390 N   0  0  0  0  0  0  0  0  0  0  0  0
  -25.7140  -37.9320   24.0430 H   0  0  0  0  0  0  0  0  0  0  0  0
  -26.5100  -31.3390   24.7840 C   0  0  1  0  0  0  0  0  0  0  0  0
  -25.5080  -30.9740   25.9060 C   0  0  0  0  0  1  0  0  0  0  0  0
  -27.1510  -30.0250   24.2830 C   0  0  0  0  0  1  0  0  0  0  0  0
  -27.6540  -32.1730   25.4090 C   0  0  0  0  0  1  0  0  0  0  0  0
  -31.1710  -17.8090   19.3180 C   0  0  0  0  0  2  0  0  0  0  0  0
  -31.5170  -15.2910   19.8140 C   0  0  0  0  0  0  0  0  0  0  0  0
  -31.2650  -12.9110   19.1200 C   0  0  0  0  0  2  0  0  0  0  0  0
  -30.3160  -12.8320   17.9040 C   0  0  0  0  0  2  0  0  0  0  0  0
  -28.8500  -12.7330   18.3640 C   0  0  0  0  0  2  0  0  0  0  0  0
  -28.4950  -13.7750   19.4560 C   0  0  0  0  0  3  0  0  0  0  0  0
  -29.5640  -13.8420   20.5700 C   0  0  0  0  0  2  0  0  0  0  0  0
  -30.8620  -14.0860   19.9260 N   0  0  0  0  0  0  0  0  0  0  0  0
  -32.6910  -15.3230   19.4410 O   0  0  0  0  0  0  0  0  0  0  0  0
  -30.7870  -16.4490   19.8780 N   0  0  0  0  0  0  0  0  0  0  0  0
  -29.8310  -16.3780   20.1900 H   0  0  0  0  0  0  0  0  0  0  0  0
  -26.1920  -14.4960   20.3300 C   0  0  0  0  0  0  0  0  0  0  0  0
  -25.0880  -13.7800   20.7080 C   0  0  0  0  0  0  0  0  0  0  0  0
  -25.4480  -12.4030   20.5840 C   0  0  0  0  0  0  0  0  0  0  0  0
  -27.1560  -13.5580   19.9960 N   0  0  0  0  0  0  0  0  0  0  0  0
  -26.7180  -12.2910   20.2120 N   0  0  0  0  0  0  0  0  0  0  0  0
  -24.6400  -11.1880   20.7450 C   0  0  0  0  0  0  0  0  0  0  0  0
  -24.9940  -10.1800   21.6690 C   0  0  0  0  0  3  0  0  0  0  0  0
  -24.1900   -9.0290   21.8160 C   0  0  0  0  0  3  0  0  0  0  0  0
  -23.0170   -8.8790   21.0390 C   0  0  0  0  0  0  0  0  0  0  0  0
  -22.6790   -9.8750   20.1060 C   0  0  0  0  0  3  0  0  0  0  0  0
  -23.4830  -11.0180   19.9560 C   0  0  0  0  0  3  0  0  0  0  0  0
  -22.1880   -7.7840   21.0980 O   0  0  0  0  0  0  0  0  0  0  0  0
  -22.0030   -7.0830   22.2610 C   0  0  0  0  0  0  0  0  0  0  0  0
  -21.4820   -7.6920   23.4230 C   0  0  0  0  0  3  0  0  0  0  0  0
  -21.2430   -6.9190   24.5760 C   0  0  0  0  0  3  0  0  0  0  0  0
  -21.5130   -5.5380   24.5680 C   0  0  0  0  0  0  0  0  0  0  0  0
  -22.0290   -4.9290   23.4100 C   0  0  0  0  0  3  0  0  0  0  0  0
  -22.2690   -5.6990   22.2580 C   0  0  0  0  0  0  0  0  0  0  0  0
  -22.7450   -5.1030   21.1380 F   0  0  0  0  0  0  0  0  0  0  0  0
  -21.2780   -4.7920   25.6730 F   0  0  0  0  0  0  0  0  0  0  0  0
  -23.7430  -14.3410   21.0670 C   0  0  0  0  0  0  0  0  0  0  0  0
  -23.0080  -13.6590   21.9370 N   0  0  0  0  0  0  0  0  0  0  0  0
  -23.3580  -15.4190   20.6150 O   0  0  0  0  0  0  0  0  0  0  0  0
  -23.3360  -12.7860   22.3240 H   0  0  0  0  0  0  0  0  0  0  0  0
  -22.1050  -14.0140   22.2190 H   0  0  0  0  0  0  0  0  0  0  0  0
  -26.4510  -15.8590   20.2210 N   0  0  0  0  0  0  0  0  0  0  0  0
  -25.7470  -16.5550   20.4360 H   0  0  0  0  0  0  0  0  0  0  0  0
  -27.3120  -16.2590   19.8750 H   0  0  0  0  0  0  0  0  0  0  0  0
  1  2  2  0
  1  9  1  0
  2  5  1  0
  3  1  1  0
  4  6  2  0
  6  2  1  0
  7  4  1  0
  7  3  2  0
  9  8  1  0
 10  3  1  0
 11 10  2  0
 12 14  1  0
 12 15  1  0
 12 11  1  0
 13 14  1  0
 15 17  1  0
 16 27  2  0
 17 22  1  0
 18 26  1  0
 18 28  1  0
 19 25  1  0
 19 21  1  0
 20 26  1  0
 21 20  1  0
 22 21  2  0
 23 24  1  0
 23 17  2  0
 24 19  2  0
 25 18  1  0
 26 16  1  0
 28 30  2  0
 29 28  1  0
 31 29  1  0
 32 41  2  0
 32 37  1  0
 33 29  1  0
 33 37  1  0
 34 33  1  0
 35 36  1  0
 35 34  1  0
 36 32  1  0
 37 38  2  0
 38 39  1  0
 40 39  2  0
 41 40  1  0
 42 16  1  0
 42 43  1  0
 42 52  1  0
 43 46  1  0
 44 48  1  0
 44 43  1  0
 45 44  2  0
 48 47  1  0
 50 48  1  0
 50 51  1  0
 50 49  1  0
 52 55  1  1
 52 53  1  0
 54 52  1  0
 56 65  1  0
 56  4  1  0
 57 65  1  0
 57 63  1  0
 58 63  1  0
 59 60  1  0
 59 58  1  0
 61 60  1  0
 61 70  1  0
 61 62  1  0
 63 62  1  0
 64 57  2  0
 65 66  1  0
 67 68  2  0
 68 87  1  0
 69 68  1  0
 69 72  1  0
 70 71  1  0
 70 67  1  0
 71 69  2  0
 72 73  1  0
 73 74  2  0
 75 78  1  0
 75 74  1  0
 76 75  2  0
 77 76  1  0
 77 72  2  0
 78 79  1  0
 79 80  1  0
 80 81  2  0
 82 81  1  0
 82 86  1  0
 83 82  2  0
 84 79  2  0
 84 83  1  0
 85 84  1  0
 87 88  1  0
 88 91  1  0
 88 90  1  0
 89 87  2  0
 92 67  1  0
 92 93  1  0
 94 92  1  0
M  ISO  4  12 101  15 101  57 100  65 100
M  END
>  <TORSDO>  (72) 
F 22

>  <SCORE>  (72) 
-10.124

>  <name>  (72) 
74

>  <ligand_id>  (72) 
74

>  <original_smiles>  (72) 
[H]c1c([H])c([H])c2c(c1[H])C([H])([H])C([H])([H])C([H])([H])C2([H])N([H])C(=O)C1([H])N(C(=O)C([H])(N([H])C(=O)C([H])(N([H])C([H])([H])[H])C([H])([H])[H])C(C([H])([H])[H])(C([H])([H])[H])C([H])([H])[H])C([H])([H])c2c([H])c(OC([H])(C([H])([H])C([H])([H])[H])C([H])([H])C([H])([H])c3nc(C([H])([H])N([H])C(=O)N4C([H])([H])C([H])([H])C([H])([H])C([H])(n5nc(-c6c([H])c([H])c(Oc7c([H])c([H])c(F)c([H])c7F)c([H])c6[H])c(C(=O)N([H])[H])c5N([H])[H])C4([H])[H])nc(C([H])([H])[H])c3C([H])([H])C([H])([H])[H])c([H])c([H])c2C1([H])[H]

>  <smiles>  (72) 
[H]c1c([H])c([H])c2c(c1[H])C([H])([H])C([H])([H])C([H])([H])C2([H])N([H])C(=O)C1([H])N(C(=O)C([H])(N([H])C(=O)C([H])(N([H])C([H])([H])[H])C([H])([H])[H])C(C([H])([H])[H])(C([H])([H])[H])C([H])([H])[H])C([H])([H])c2c([H])c(OC([H])(C([H])([H])C([H])([H])[H])C([H])([H])C([H])([H])c3nc(C([H])([H])N([H])C(=O)N4C([H])([H])C([H])([H])C([H])([H])C([H])(n5nc(-c6c([H])c([H])c(Oc7c([H])c([H])c(F)c([H])c7F)c([H])c6[H])c(C(=O)N([H])[H])c5N([H])[H])C4([H])[H])nc(C([H])([H])[H])c3C([H])([H])C([H])([H])[H])c([H])c([H])c2C1([H])[H]

$$$$
75:0:0
     RDKit          3D

 94102  0  0  1  0  0  0  0  0999 V2000
  -30.5570  -21.6570   16.7900 C   0  0  0  0  0  3  0  0  0  0  0  0
  -30.4860  -21.0360   18.9330 C   0  0  0  0  0  3  0  0  0  0  0  0
  -30.8950  -22.0540   18.1100 C   0  0  0  0  0  0  0  0  0  0  0  0
  -29.9920  -20.4160   16.8310 C   0  0  0  0  0  0  0  0  0  0  0  0
  -29.4670  -19.5970   15.6900 C   0  0  0  0  0  1  0  0  0  0  0  0
  -29.9690  -20.0000   18.1600 N   0  0  0  0  0  0  0  0  0  0  0  0
  -31.5750  -23.3550   18.4650 C   0  0  0  0  0  2  0  0  0  0  0  0
  -30.7130  -24.5900   18.1420 C   0  0  0  0  0  2  0  0  0  0  0  0
  -29.7850  -24.9930   19.2930 C   0  0  0  0  0  2  0  0  0  0  0  0
  -28.8770  -26.1790   18.9360 C   0  0  0  0  0  2  0  0  0  0  0  0
  -28.3880  -26.7300   20.1520 O   0  0  0  0  0  0  0  0  0  0  0  0
  -24.5890  -31.8520   23.2180 C   0  0  0  0  0  0  0  0  0  0  0  0
  -27.2110  -27.4320   20.1110 C   0  0  0  0  0  0  0  0  0  0  0  0
  -23.3660  -30.4500   21.5880 C   0  0  0  0  0  3  0  0  0  0  0  0
  -24.8080  -28.9110   20.1480 C   0  0  0  0  0  0  0  0  0  0  0  0
  -25.8850  -30.8120   21.3630 C   0  0  0  0  0  2  0  0  0  0  0  0
  -25.9640  -29.4410   20.7300 C   0  0  0  0  0  0  0  0  0  0  0  0
  -27.1630  -28.7020   20.7250 C   0  0  0  0  0  3  0  0  0  0  0  0
  -26.0370  -26.9020   19.5330 C   0  0  0  0  0  3  0  0  0  0  0  0
  -24.8350  -27.6380   19.5490 C   0  0  0  0  0  3  0  0  0  0  0  0
  -23.5630  -29.7680   20.2050 C   0  0  0  0  0  2  0  0  0  0  0  0
  -24.6330  -31.0520   22.1150 N   0  0  0  0  0  0  0  0  0  0  0  0
  -23.5120  -32.1260   23.7650 O   0  0  0  0  0  0  0  0  0  0  0  0
  -22.7220  -29.4290   22.5530 C   0  0  0  0  0  0  0  0  0  0  0  0
  -21.3950  -29.2560   22.4360 N   0  0  0  0  0  0  0  0  0  0  0  0
  -23.4100  -28.8000   23.3610 O   0  0  0  0  0  0  0  0  0  0  0  0
  -20.9040  -29.8160   21.7520 H   0  0  0  0  0  0  0  0  0  0  0  0
  -18.0150  -28.0900   22.9550 C   0  0  0  0  0  0  0  0  0  0  0  0
  -20.5770  -28.3230   23.2100 C   0  0  0  0  0  3  0  0  0  0  0  0
  -20.6640  -26.8940   22.6270 C   0  0  0  0  0  2  0  0  0  0  0  0
  -19.5500  -26.5850   21.6200 C   0  0  0  0  0  2  0  0  0  0  0  0
  -18.1740  -26.7400   22.2750 C   0  0  0  0  0  2  0  0  0  0  0  0
  -19.1450  -28.8390   23.3780 C   0  0  0  0  0  0  0  0  0  0  0  0
  -18.9410  -30.1060   23.9720 C   0  0  0  0  0  3  0  0  0  0  0  0
  -17.6420  -30.6180   24.1470 C   0  0  0  0  0  3  0  0  0  0  0  0
  -16.5280  -29.8640   23.7400 C   0  0  0  0  0  3  0  0  0  0  0  0
  -16.7160  -28.6010   23.1490 C   0  0  0  0  0  3  0  0  0  0  0  0
  -25.8820  -32.4760   23.8290 C   0  0  0  0  0  3  0  0  0  0  0  0
  -25.5790  -33.8720   24.1690 N   0  0  0  0  0  0  0  0  0  0  0  0
  -25.9070  -34.9270   23.4110 C   0  0  0  0  0  0  0  0  0  0  0  0
  -26.5680  -34.8280   22.3740 O   0  0  0  0  0  0  0  0  0  0  0  0
  -24.9890  -34.0240   24.9750 H   0  0  0  0  0  0  0  0  0  0  0  0
  -24.1790  -36.7220   23.0720 C   0  0  0  0  0  1  0  0  0  0  0  0
  -25.4230  -36.3120   23.8780 C   0  0  0  0  0  3  0  0  0  0  0  0
  -27.5630  -37.1860   24.7040 C   0  0  0  0  0  1  0  0  0  0  0  0
  -26.4570  -37.3640   23.7670 N   0  0  0  0  0  0  0  0  0  0  0  0
  -26.0530  -38.2840   23.9230 H   0  0  0  0  0  0  0  0  0  0  0  0
  -26.4130  -31.6950   25.0920 C   0  0  1  0  0  0  0  0  0  0  0  0
  -25.3340  -31.4530   26.1720 C   0  0  0  0  0  1  0  0  0  0  0  0
  -26.9860  -30.3190   24.6770 C   0  0  0  0  0  1  0  0  0  0  0  0
  -27.5740  -32.4830   25.7440 C   0  0  0  0  0  1  0  0  0  0  0  0
  -29.3770  -18.7330   18.6170 C   0  0  0  0  0  2  0  0  0  0  0  0
  -29.5240  -18.3230   21.1400 C   0  0  0  0  0  1  0  0  0  0  0  0
  -31.5940  -17.9860   19.7490 C   0  0  0  0  0  1  0  0  0  0  0  0
  -30.0550  -17.8860   19.7550 C   0  0  2  0  0  0  0  0  0  0  0  0
  -29.6350  -16.4160   19.4750 C   0  0  0  0  0  2  0  0  0  0  0  0
  -30.6870  -14.3540   20.2630 C   0  0  0  0  0  0  0  0  0  0  0  0
  -30.3590  -12.1870   19.1740 C   0  0  0  0  0  2  0  0  0  0  0  0
  -29.4210  -12.4400   17.9710 C   0  0  0  0  0  2  0  0  0  0  0  0
  -27.9380  -12.3540   18.4020 C   0  0  0  0  0  2  0  0  0  0  0  0
  -27.6290  -13.1760   19.6840 C   0  0  0  0  0  3  0  0  0  0  0  0
  -28.6900  -12.9120   20.7830 C   0  0  0  0  0  2  0  0  0  0  0  0
  -30.0230  -13.1690   20.2140 N   0  0  0  0  0  0  0  0  0  0  0  0
  -31.8220  -14.5170   19.8150 O   0  0  0  0  0  0  0  0  0  0  0  0
  -29.8890  -15.4030   20.5140 N   0  0  0  0  0  0  0  0  0  0  0  0
  -29.0730  -15.1660   21.0600 H   0  0  0  0  0  0  0  0  0  0  0  0
  -25.2420  -13.8290   20.4040 C   0  0  0  0  0  0  0  0  0  0  0  0
  -24.1650  -13.0770   20.7900 C   0  0  0  0  0  0  0  0  0  0  0  0
  -24.6050  -11.7170   20.7670 C   0  0  0  0  0  0  0  0  0  0  0  0
  -26.2730  -12.9300   20.1720 N   0  0  0  0  0  0  0  0  0  0  0  0
  -25.8930  -11.6560   20.4480 N   0  0  0  0  0  0  0  0  0  0  0  0
  -23.8650  -10.4670   20.9750 C   0  0  0  0  0  0  0  0  0  0  0  0
  -24.2930   -9.5000   21.9110 C   0  0  0  0  0  3  0  0  0  0  0  0
  -23.5520   -8.3150   22.1030 C   0  0  0  0  0  3  0  0  0  0  0  0
  -22.3690   -8.0860   21.3600 C   0  0  0  0  0  0  0  0  0  0  0  0
  -21.9610   -9.0420   20.4150 C   0  0  0  0  0  3  0  0  0  0  0  0
  -22.7020  -10.2200   20.2190 C   0  0  0  0  0  3  0  0  0  0  0  0
  -21.5980   -6.9540   21.4620 O   0  0  0  0  0  0  0  0  0  0  0  0
  -21.5550   -6.2180   22.6170 C   0  0  0  0  0  0  0  0  0  0  0  0
  -21.1550   -6.7830   23.8480 C   0  0  0  0  0  3  0  0  0  0  0  0
  -21.0560   -5.9720   24.9970 C   0  0  0  0  0  3  0  0  0  0  0  0
  -21.3470   -4.5970   24.9170 C   0  0  0  0  0  0  0  0  0  0  0  0
  -21.7420   -4.0320   23.6920 C   0  0  0  0  0  3  0  0  0  0  0  0
  -21.8430   -4.8400   22.5460 C   0  0  0  0  0  0  0  0  0  0  0  0
  -22.2020   -4.2840   21.3640 F   0  0  0  0  0  0  0  0  0  0  0  0
  -21.2450   -3.8170   26.0190 F   0  0  0  0  0  0  0  0  0  0  0  0
  -22.7770  -13.5780   21.0640 C   0  0  0  0  0  0  0  0  0  0  0  0
  -22.0390  -12.9080   21.9450 N   0  0  0  0  0  0  0  0  0  0  0  0
  -22.3520  -14.6040   20.5360 O   0  0  0  0  0  0  0  0  0  0  0  0
  -22.3910  -12.0830   22.4060 H   0  0  0  0  0  0  0  0  0  0  0  0
  -21.1090  -13.2320   22.1670 H   0  0  0  0  0  0  0  0  0  0  0  0
  -25.4220  -15.1960   20.2160 N   0  0  0  0  0  0  0  0  0  0  0  0
  -24.6590  -15.8540   20.3240 H   0  0  0  0  0  0  0  0  0  0  0  0
  -26.2690  -15.6210   19.8640 H   0  0  0  0  0  0  0  0  0  0  0  0
  1  4  2  0
  1  3  1  0
  3  7  1  0
  3  2  2  0
  4  6  1  0
  5  4  1  0
  6 52  1  0
  6  2  1  0
  8  7  1  0
  8  9  1  0
 10  9  1  0
 10 11  1  0
 12 23  2  0
 13 11  1  0
 13 18  1  0
 14 22  1  0
 14 24  1  0
 15 21  1  0
 15 17  1  0
 16 22  1  0
 17 16  1  0
 18 17  2  0
 19 20  1  0
 19 13  2  0
 20 15  2  0
 21 14  1  0
 22 12  1  0
 24 26  2  0
 25 24  1  0
 27 25  1  0
 28 37  2  0
 28 33  1  0
 29 25  1  0
 29 33  1  0
 30 29  1  0
 31 32  1  0
 31 30  1  0
 32 28  1  0
 33 34  2  0
 34 35  1  0
 36 35  2  0
 37 36  1  0
 38 12  1  0
 38 39  1  0
 38 48  1  0
 39 42  1  0
 40 44  1  0
 40 39  1  0
 41 40  2  0
 44 43  1  0
 46 44  1  0
 46 47  1  0
 46 45  1  0
 48 51  1  1
 48 49  1  0
 50 48  1  0
 52 55  1  0
 55 54  1  1
 55 53  1  0
 56 55  1  0
 56 65  1  0
 57 65  1  0
 58 63  1  0
 59 60  1  0
 59 58  1  0
 61 60  1  0
 61 70  1  0
 61 62  1  0
 63 57  1  0
 63 62  1  0
 64 57  2  0
 65 66  1  0
 67 68  2  0
 68 87  1  0
 69 68  1  0
 69 72  1  0
 70 67  1  0
 70 71  1  0
 71 69  2  0
 72 73  1  0
 73 74  2  0
 75 78  1  0
 75 74  1  0
 76 75  2  0
 77 76  1  0
 77 72  2  0
 78 79  1  0
 79 80  1  0
 80 81  2  0
 82 81  1  0
 82 86  1  0
 83 82  2  0
 84 79  2  0
 84 83  1  0
 85 84  1  0
 87 88  1  0
 88 91  1  0
 88 90  1  0
 89 87  2  0
 92 93  1  0
 92 67  1  0
 94 92  1  0
M  ISO  4  10 101  11 101  57 100  65 100
M  END
>  <TORSDO>  (73) 
F 23

>  <SCORE>  (73) 
-12.563

>  <name>  (73) 
75

>  <ligand_id>  (73) 
75

>  <original_smiles>  (73) 
[H]c1c([H])c([H])c2c(c1[H])C([H])([H])C([H])([H])C([H])([H])C2([H])N([H])C(=O)C1([H])N(C(=O)C([H])(N([H])C(=O)C([H])(N([H])C([H])([H])[H])C([H])([H])[H])C(C([H])([H])[H])(C([H])([H])[H])C([H])([H])[H])C([H])([H])c2c([H])c(OC([H])([H])C([H])([H])C([H])([H])C([H])([H])c3c([H])c(C([H])([H])[H])n(C([H])([H])C(C([H])([H])[H])(C([H])([H])[H])C([H])([H])N([H])C(=O)N4C([H])([H])C([H])([H])C([H])([H])C([H])(n5nc(-c6c([H])c([H])c(Oc7c([H])c([H])c(F)c([H])c7F)c([H])c6[H])c(C(=O)N([H])[H])c5N([H])[H])C4([H])[H])c3[H])c([H])c([H])c2C1([H])[H]

>  <smiles>  (73) 
[H]c1c([H])c([H])c2c(c1[H])C([H])([H])C([H])([H])C([H])([H])C2([H])N([H])C(=O)C1([H])N(C(=O)C([H])(N([H])C(=O)C([H])(N([H])C([H])([H])[H])C([H])([H])[H])C(C([H])([H])[H])(C([H])([H])[H])C([H])([H])[H])C([H])([H])c2c([H])c(OC([H])([H])C([H])([H])C([H])([H])C([H])([H])c3c([H])c(C([H])([H])[H])n(C([H])([H])C(C([H])([H])[H])(C([H])([H])[H])C([H])([H])N([H])C(=O)N4C([H])([H])C([H])([H])C([H])([H])C([H])(n5nc(-c6c([H])c([H])c(Oc7c([H])c([H])c(F)c([H])c7F)c([H])c6[H])c(C(=O)N([H])[H])c5N([H])[H])C4([H])[H])c3[H])c([H])c([H])c2C1([H])[H]

$$$$
76:0:0
     RDKit          3D

 95103  0  0  1  0  0  0  0  0999 V2000
  -29.8210  -20.6930   20.5790 C   0  0  0  0  0  3  0  0  0  0  0  0
  -29.1630  -20.9470   17.9590 C   0  0  0  0  0  3  0  0  0  0  0  0
  -29.5240  -19.4940   19.8780 C   0  0  0  0  0  0  0  0  0  0  0  0
  -29.0400  -19.6500   18.5270 C   0  0  0  0  0  0  0  0  0  0  0  0
  -29.7310  -21.9480   19.9480 C   0  0  0  0  0  0  0  0  0  0  0  0
  -29.5190  -22.0540   18.6300 N   0  0  0  0  0  0  0  0  0  0  0  0
  -28.1290  -18.9380   16.1840 C   0  0  0  0  0  1  0  0  0  0  0  0
  -26.7870  -18.6310   18.2250 C   0  0  0  0  0  1  0  0  0  0  0  0
  -28.8520  -17.2020   17.7200 C   0  0  0  0  0  1  0  0  0  0  0  0
  -28.2380  -18.6080   17.6970 C   0  0  2  0  0  0  0  0  0  0  0  0
  -28.4380  -17.6400   21.4130 C   0  0  0  0  0  1  0  0  0  0  0  0
  -29.6970  -18.1740   20.6970 C   0  0  0  0  0  3  0  0  0  0  0  0
  -30.7060  -17.1140   20.1170 C   0  0  0  0  0  2  0  0  0  0  0  0
  -31.2090  -14.6440   20.1130 C   0  0  0  0  0  0  0  0  0  0  0  0
  -30.8800  -12.5100   18.9460 C   0  0  0  0  0  2  0  0  0  0  0  0
  -29.9030  -12.7760   17.7800 C   0  0  0  0  0  2  0  0  0  0  0  0
  -28.4460  -12.6150   18.2570 C   0  0  0  0  0  2  0  0  0  0  0  0
  -28.1570  -13.4300   19.5420 C   0  0  0  0  0  3  0  0  0  0  0  0
  -29.2350  -13.1570   20.6180 C   0  0  0  0  0  2  0  0  0  0  0  0
  -30.5460  -13.4590   20.0160 N   0  0  0  0  0  0  0  0  0  0  0  0
  -32.3510  -14.8070   19.6820 O   0  0  0  0  0  0  0  0  0  0  0  0
  -30.4410  -15.6950   20.4700 N   0  0  0  0  0  0  0  0  0  0  0  0
  -29.5050  -15.4750   20.7710 H   0  0  0  0  0  0  0  0  0  0  0  0
  -25.7810  -14.0670   20.2970 C   0  0  0  0  0  0  0  0  0  0  0  0
  -24.7170  -13.3120   20.6920 C   0  0  0  0  0  0  0  0  0  0  0  0
  -25.1600  -11.9560   20.6420 C   0  0  0  0  0  0  0  0  0  0  0  0
  -26.8120  -13.1750   20.0430 N   0  0  0  0  0  0  0  0  0  0  0  0
  -26.4410  -11.8970   20.3100 N   0  0  0  0  0  0  0  0  0  0  0  0
  -24.4190  -10.7040   20.8400 C   0  0  0  0  0  0  0  0  0  0  0  0
  -24.7930   -9.7840   21.8430 C   0  0  0  0  0  3  0  0  0  0  0  0
  -24.0600   -8.5930   22.0310 C   0  0  0  0  0  3  0  0  0  0  0  0
  -22.9390   -8.3170   21.2150 C   0  0  0  0  0  0  0  0  0  0  0  0
  -22.5820   -9.2250   20.2040 C   0  0  0  0  0  3  0  0  0  0  0  0
  -23.3130  -10.4080   20.0150 C   0  0  0  0  0  3  0  0  0  0  0  0
  -22.1800   -7.1760   21.3030 O   0  0  0  0  0  0  0  0  0  0  0  0
  -21.9630   -6.5500   22.4990 C   0  0  0  0  0  0  0  0  0  0  0  0
  -21.3510   -7.2110   23.5860 C   0  0  0  0  0  3  0  0  0  0  0  0
  -21.0880   -6.5100   24.7790 C   0  0  0  0  0  3  0  0  0  0  0  0
  -21.4230   -5.1460   24.8860 C   0  0  0  0  0  0  0  0  0  0  0  0
  -22.0270   -4.4860   23.8020 C   0  0  0  0  0  3  0  0  0  0  0  0
  -22.2970   -5.1850   22.6130 C   0  0  0  0  0  0  0  0  0  0  0  0
  -22.8610   -4.5390   21.5630 F   0  0  0  0  0  0  0  0  0  0  0  0
  -21.1660   -4.4680   26.0300 F   0  0  0  0  0  0  0  0  0  0  0  0
  -23.3320  -13.8060   21.0010 C   0  0  0  0  0  0  0  0  0  0  0  0
  -22.6270  -13.1220   21.8960 N   0  0  0  0  0  0  0  0  0  0  0  0
  -22.8860  -14.8300   20.4820 O   0  0  0  0  0  0  0  0  0  0  0  0
  -23.0030  -12.2950   22.3330 H   0  0  0  0  0  0  0  0  0  0  0  0
  -21.7000  -13.4300   22.1540 H   0  0  0  0  0  0  0  0  0  0  0  0
  -25.9520  -15.4320   20.1110 N   0  0  0  0  0  0  0  0  0  0  0  0
  -25.1650  -16.0660   20.1700 H   0  0  0  0  0  0  0  0  0  0  0  0
  -26.7550  -15.8470   19.6640 H   0  0  0  0  0  0  0  0  0  0  0  0
  -29.8180  -23.2490   20.7570 C   0  0  0  0  0  2  0  0  0  0  0  0
  -29.2980  -24.5280   20.0240 C   0  0  0  0  0  2  0  0  0  0  0  0
  -28.8990  -25.6970   20.9580 C   0  0  0  0  0  2  0  0  0  0  0  0
  -28.7190  -26.9190   20.2390 O   0  0  0  0  0  0  0  0  0  0  0  0
  -24.6940  -31.9800   23.2790 C   0  0  0  0  0  0  0  0  0  0  0  0
  -27.4990  -27.5520   20.3210 C   0  0  0  0  0  0  0  0  0  0  0  0
  -23.5400  -30.5280   21.6320 C   0  0  0  0  0  3  0  0  0  0  0  0
  -25.0570  -28.9730   20.2820 C   0  0  0  0  0  0  0  0  0  0  0  0
  -26.0600  -30.9330   21.4700 C   0  0  0  0  0  2  0  0  0  0  0  0
  -26.1860  -29.5420   20.8770 C   0  0  0  0  0  0  0  0  0  0  0  0
  -27.4130  -28.8410   20.8850 C   0  0  0  0  0  3  0  0  0  0  0  0
  -26.3480  -26.9730   19.7460 C   0  0  0  0  0  3  0  0  0  0  0  0
  -25.1300  -27.6830   19.7160 C   0  0  0  0  0  3  0  0  0  0  0  0
  -23.7940  -29.8070   20.2780 C   0  0  0  0  0  2  0  0  0  0  0  0
  -24.7800  -31.1680   22.1840 N   0  0  0  0  0  0  0  0  0  0  0  0
  -23.6010  -32.2390   23.8010 O   0  0  0  0  0  0  0  0  0  0  0  0
  -22.8880  -29.5160   22.6020 C   0  0  0  0  0  0  0  0  0  0  0  0
  -21.5730  -29.2890   22.4350 N   0  0  0  0  0  0  0  0  0  0  0  0
  -23.5610  -28.9270   23.4490 O   0  0  0  0  0  0  0  0  0  0  0  0
  -21.1000  -29.7900   21.6930 H   0  0  0  0  0  0  0  0  0  0  0  0
  -18.2200  -28.0450   22.9070 C   0  0  0  0  0  0  0  0  0  0  0  0
  -20.7640  -28.3550   23.2150 C   0  0  0  0  0  3  0  0  0  0  0  0
  -20.9030  -26.9130   22.6740 C   0  0  0  0  0  2  0  0  0  0  0  0
  -19.8160  -26.5400   21.6530 C   0  0  0  0  0  2  0  0  0  0  0  0
  -18.4280  -26.6810   22.2750 C   0  0  0  0  0  2  0  0  0  0  0  0
  -19.3150  -28.8340   23.3470 C   0  0  0  0  0  0  0  0  0  0  0  0
  -19.0640  -30.0960   23.9310 C   0  0  0  0  0  3  0  0  0  0  0  0
  -17.7430  -30.5680   24.0750 C   0  0  0  0  0  3  0  0  0  0  0  0
  -16.6630  -29.7730   23.6520 C   0  0  0  0  0  3  0  0  0  0  0  0
  -16.9020  -28.5180   23.0710 C   0  0  0  0  0  3  0  0  0  0  0  0
  -25.9580  -32.6430   23.9160 C   0  0  0  0  0  3  0  0  0  0  0  0
  -25.6160  -34.0360   24.2330 N   0  0  0  0  0  0  0  0  0  0  0  0
  -25.9350  -35.0840   23.4630 C   0  0  0  0  0  0  0  0  0  0  0  0
  -26.6250  -34.9840   22.4450 O   0  0  0  0  0  0  0  0  0  0  0  0
  -24.9940  -34.1790   25.0160 H   0  0  0  0  0  0  0  0  0  0  0  0
  -24.1760  -36.8360   23.0550 C   0  0  0  0  0  1  0  0  0  0  0  0
  -25.4100  -36.4660   23.8950 C   0  0  0  0  0  3  0  0  0  0  0  0
  -27.5090  -37.4140   24.7570 C   0  0  0  0  0  1  0  0  0  0  0  0
  -26.4230  -37.5400   23.7870 N   0  0  0  0  0  0  0  0  0  0  0  0
  -25.9920  -38.4530   23.9090 H   0  0  0  0  0  0  0  0  0  0  0  0
  -26.4690  -31.8880   25.2060 C   0  0  1  0  0  0  0  0  0  0  0  0
  -25.3620  -31.6010   26.2460 C   0  0  0  0  0  1  0  0  0  0  0  0
  -27.1140  -30.5350   24.8270 C   0  0  0  0  0  1  0  0  0  0  0  0
  -27.5690  -32.7260   25.9000 C   0  0  0  0  0  1  0  0  0  0  0  0
  2  4  2  0
  2  6  1  0
  3  1  2  0
  3 12  1  0
  4  3  1  0
  5  1  1  0
  5 52  1  0
  6  5  2  0
 10  7  1  6
 10  9  1  0
 10  8  1  0
 10  4  1  0
 12 11  1  0
 13 22  1  0
 13 12  1  0
 14 22  1  0
 15 20  1  0
 16 17  1  0
 16 15  1  0
 18 17  1  0
 18 27  1  0
 18 19  1  0
 20 14  1  0
 20 19  1  0
 21 14  2  0
 22 23  1  0
 24 25  2  0
 25 44  1  0
 26 25  1  0
 26 29  1  0
 27 24  1  0
 27 28  1  0
 28 26  2  0
 29 30  1  0
 30 31  2  0
 32 35  1  0
 32 31  1  0
 33 32  2  0
 34 33  1  0
 34 29  2  0
 35 36  1  0
 36 41  2  0
 36 37  1  0
 37 38  2  0
 38 39  1  0
 39 43  1  0
 40 39  2  0
 41 40  1  0
 42 41  1  0
 44 45  1  0
 45 48  1  0
 45 47  1  0
 46 44  2  0
 49 50  1  0
 49 24  1  0
 51 49  1  0
 53 52  1  0
 53 54  1  0
 55 57  1  0
 55 54  1  0
 56 67  2  0
 57 62  1  0
 58 66  1  0
 58 68  1  0
 59 61  1  0
 60 66  1  0
 61 62  2  0
 61 60  1  0
 63 57  2  0
 64 63  1  0
 64 59  2  0
 65 59  1  0
 65 58  1  0
 66 56  1  0
 68 70  2  0
 69 68  1  0
 71 69  1  0
 72 81  2  0
 72 77  1  0
 73 69  1  0
 73 77  1  0
 74 73  1  0
 75 76  1  0
 75 74  1  0
 76 72  1  0
 77 78  2  0
 78 79  1  0
 80 79  2  0
 81 80  1  0
 82 56  1  0
 82 83  1  0
 82 92  1  0
 83 86  1  0
 84 88  1  0
 84 83  1  0
 85 84  2  0
 88 87  1  0
 90 88  1  0
 90 91  1  0
 90 89  1  0
 92 95  1  1
 92 93  1  0
 94 92  1  0
M  ISO  4  14 100  22 100  54 101  55 101
M  END
>  <TORSDO>  (74) 
F 22

>  <SCORE>  (74) 
-11.057

>  <name>  (74) 
76

>  <ligand_id>  (74) 
76

>  <original_smiles>  (74) 
[H]c1nc(C([H])([H])C([H])([H])C([H])([H])Oc2c([H])c([H])c3c(c2[H])C([H])([H])N(C(=O)C([H])(N([H])C(=O)C([H])(N([H])C([H])([H])[H])C([H])([H])[H])C(C([H])([H])[H])(C([H])([H])[H])C([H])([H])[H])C([H])(C(=O)N([H])C2([H])c4c([H])c([H])c([H])c([H])c4C([H])([H])C([H])([H])C2([H])[H])C3([H])[H])c([H])c(C([H])(C([H])([H])[H])C([H])([H])N([H])C(=O)N2C([H])([H])C([H])([H])C([H])([H])C([H])(n3nc(-c4c([H])c([H])c(Oc5c([H])c([H])c(F)c([H])c5F)c([H])c4[H])c(C(=O)N([H])[H])c3N([H])[H])C2([H])[H])c1C(C([H])([H])[H])(C([H])([H])[H])C([H])([H])[H]

>  <smiles>  (74) 
[H]c1nc(C([H])([H])C([H])([H])C([H])([H])Oc2c([H])c([H])c3c(c2[H])C([H])([H])N(C(=O)C([H])(N([H])C(=O)C([H])(N([H])C([H])([H])[H])C([H])([H])[H])C(C([H])([H])[H])(C([H])([H])[H])C([H])([H])[H])C([H])(C(=O)N([H])C2([H])c4c([H])c([H])c([H])c([H])c4C([H])([H])C([H])([H])C2([H])[H])C3([H])[H])c([H])c(C([H])(C([H])([H])[H])C([H])([H])N([H])C(=O)N2C([H])([H])C([H])([H])C([H])([H])C([H])(n3nc(-c4c([H])c([H])c(Oc5c([H])c([H])c(F)c([H])c5F)c([H])c4[H])c(C(=O)N([H])[H])c3N([H])[H])C2([H])[H])c1C(C([H])([H])[H])(C([H])([H])[H])C([H])([H])[H]

$$$$
77:0:0
     RDKit          3D

 99107  0  0  1  0  0  0  0  0999 V2000
  -30.6280  -20.2740   21.5450 C   0  0  0  0  0  3  0  0  0  0  0  0
  -29.5430  -18.9480   20.1350 C   0  0  0  0  0  3  0  0  0  0  0  0
  -30.1390  -21.0730   20.5470 C   0  0  0  0  0  0  0  0  0  0  0  0
  -29.4260  -20.2200   19.6290 C   0  0  0  0  0  0  0  0  0  0  0  0
  -30.2630  -18.9640   21.3090 N   0  0  0  0  0  0  0  0  0  0  0  0
  -28.3910  -19.3030   17.5050 C   0  0  0  0  0  1  0  0  0  0  0  0
  -29.3580  -21.5850   17.4530 C   0  0  0  0  0  1  0  0  0  0  0  0
  -27.2670  -21.1430   18.7620 C   0  0  0  0  0  1  0  0  0  0  0  0
  -28.6340  -20.5680   18.3580 C   0  0  2  0  0  0  0  0  0  0  0  0
  -30.3960  -18.1860   23.6340 C   0  0  0  0  0  1  0  0  0  0  0  0
  -30.5450  -17.7960   22.1490 C   0  0  0  0  0  3  0  0  0  0  0  0
  -33.1000  -18.0000   21.8560 C   0  0  0  0  0  1  0  0  0  0  0  0
  -32.1400  -15.8990   22.7980 C   0  0  0  0  0  1  0  0  0  0  0  0
  -31.8830  -17.0480   21.7980 C   0  0  1  0  0  0  0  0  0  0  0  0
  -31.8500  -16.4610   20.3590 C   0  0  0  0  0  2  0  0  0  0  0  0
  -31.3300  -14.2900   19.3110 C   0  0  0  0  0  0  0  0  0  0  0  0
  -30.8580  -12.0070   18.5070 C   0  0  0  0  0  2  0  0  0  0  0  0
  -29.7990  -11.9990   17.3910 C   0  0  0  0  0  2  0  0  0  0  0  0
  -28.3840  -11.9390   17.9910 C   0  0  0  0  0  2  0  0  0  0  0  0
  -28.1640  -13.0010   19.1000 C   0  0  0  0  0  3  0  0  0  0  0  0
  -29.3230  -12.9890   20.1230 C   0  0  0  0  0  2  0  0  0  0  0  0
  -30.5940  -13.1510   19.3950 N   0  0  0  0  0  0  0  0  0  0  0  0
  -32.2530  -14.4390   18.5040 O   0  0  0  0  0  0  0  0  0  0  0  0
  -31.0530  -15.2390   20.2140 N   0  0  0  0  0  0  0  0  0  0  0  0
  -30.3190  -15.0550   20.8800 H   0  0  0  0  0  0  0  0  0  0  0  0
  -25.9480  -13.7820   20.1590 C   0  0  0  0  0  0  0  0  0  0  0  0
  -24.8720  -13.0890   20.6430 C   0  0  0  0  0  0  0  0  0  0  0  0
  -25.1930  -11.7050   20.4940 C   0  0  0  0  0  0  0  0  0  0  0  0
  -26.8660  -12.8250   19.7510 N   0  0  0  0  0  0  0  0  0  0  0  0
  -26.4200  -11.5680   20.0050 N   0  0  0  0  0  0  0  0  0  0  0  0
  -24.3840  -10.5030   20.7340 C   0  0  0  0  0  0  0  0  0  0  0  0
  -24.7570   -9.5420   21.6990 C   0  0  0  0  0  3  0  0  0  0  0  0
  -23.9530   -8.4040   21.9260 C   0  0  0  0  0  3  0  0  0  0  0  0
  -22.7600   -8.2200   21.1870 C   0  0  0  0  0  0  0  0  0  0  0  0
  -22.4050   -9.1680   20.2110 C   0  0  0  0  0  3  0  0  0  0  0  0
  -23.2090  -10.2970   19.9830 C   0  0  0  0  0  3  0  0  0  0  0  0
  -21.9310   -7.1320   21.3200 O   0  0  0  0  0  0  0  0  0  0  0  0
  -21.7100   -6.5410   22.5380 C   0  0  0  0  0  0  0  0  0  0  0  0
  -21.1680   -7.2580   23.6270 C   0  0  0  0  0  3  0  0  0  0  0  0
  -20.8920   -6.5940   24.8400 C   0  0  0  0  0  3  0  0  0  0  0  0
  -21.1460   -5.2150   24.9620 C   0  0  0  0  0  0  0  0  0  0  0  0
  -21.6790   -4.4970   23.8760 C   0  0  0  0  0  3  0  0  0  0  0  0
  -21.9570   -5.1590   22.6660 C   0  0  0  0  0  0  0  0  0  0  0  0
  -22.4500   -4.4590   21.6170 F   0  0  0  0  0  0  0  0  0  0  0  0
  -20.8730   -4.5750   26.1230 F   0  0  0  0  0  0  0  0  0  0  0  0
  -23.5760  -13.6710   21.1280 C   0  0  0  0  0  0  0  0  0  0  0  0
  -22.9250  -13.0130   22.0800 N   0  0  0  0  0  0  0  0  0  0  0  0
  -23.1570  -14.7450   20.6970 O   0  0  0  0  0  0  0  0  0  0  0  0
  -23.2780  -12.1420   22.4500 H   0  0  0  0  0  0  0  0  0  0  0  0
  -22.0600  -13.3850   22.4450 H   0  0  0  0  0  0  0  0  0  0  0  0
  -26.2170  -15.1400   20.0140 N   0  0  0  0  0  0  0  0  0  0  0  0
  -25.5410  -15.8550   20.2560 H   0  0  0  0  0  0  0  0  0  0  0  0
  -27.0570  -15.5160   19.5920 H   0  0  0  0  0  0  0  0  0  0  0  0
  -30.3430  -22.5740   20.5160 C   0  0  0  0  0  2  0  0  0  0  0  0
  -29.0250  -23.3560   20.6570 C   0  0  0  0  0  2  0  0  0  0  0  0
  -29.1170  -24.8050   20.1370 C   0  0  0  0  0  2  0  0  0  0  0  0
  -27.6100  -25.8800   21.9060 C   0  0  0  0  0  1  0  0  0  0  0  0
  -27.8440  -25.6340   20.4020 C   0  0  0  0  0  3  0  0  0  0  0  0
  -27.9560  -26.8950   19.7290 O   0  0  0  0  0  0  0  0  0  0  0  0
  -24.6280  -31.9840   23.3850 C   0  0  0  0  0  0  0  0  0  0  0  0
  -26.8320  -27.6800   19.8350 C   0  0  0  0  0  0  0  0  0  0  0  0
  -23.2350  -30.7340   21.7650 C   0  0  0  0  0  3  0  0  0  0  0  0
  -24.5050  -29.2450   20.1290 C   0  0  0  0  0  0  0  0  0  0  0  0
  -25.7450  -31.0230   21.3790 C   0  0  0  0  0  2  0  0  0  0  0  0
  -25.7250  -29.7000   20.6460 C   0  0  0  0  0  0  0  0  0  0  0  0
  -26.8950  -28.9260   20.4900 C   0  0  0  0  0  3  0  0  0  0  0  0
  -25.6010  -27.2340   19.3100 C   0  0  0  0  0  3  0  0  0  0  0  0
  -24.4360  -28.0120   19.4540 C   0  0  0  0  0  3  0  0  0  0  0  0
  -23.3030  -30.1390   20.3340 C   0  0  0  0  0  2  0  0  0  0  0  0
  -24.5590  -31.2560   22.2350 N   0  0  0  0  0  0  0  0  0  0  0  0
  -23.6060  -32.2620   24.0290 O   0  0  0  0  0  0  0  0  0  0  0  0
  -22.6220  -29.6780   22.7120 C   0  0  0  0  0  0  0  0  0  0  0  0
  -21.3020  -29.4650   22.5940 N   0  0  0  0  0  0  0  0  0  0  0  0
  -23.3310  -29.0540   23.5060 O   0  0  0  0  0  0  0  0  0  0  0  0
  -20.7930  -30.0190   21.9200 H   0  0  0  0  0  0  0  0  0  0  0  0
  -17.9960  -28.0630   22.9830 C   0  0  0  0  0  0  0  0  0  0  0  0
  -20.5180  -28.4930   23.3530 C   0  0  0  0  0  3  0  0  0  0  0  0
  -20.7370  -27.0600   22.8130 C   0  0  0  0  0  2  0  0  0  0  0  0
  -19.7030  -26.6460   21.7630 C   0  0  0  0  0  2  0  0  0  0  0  0
  -18.2880  -26.7140   22.3450 C   0  0  0  0  0  2  0  0  0  0  0  0
  -19.0440  -28.9050   23.4410 C   0  0  0  0  0  0  0  0  0  0  0  0
  -18.7210  -30.1630   23.9920 C   0  0  0  0  0  3  0  0  0  0  0  0
  -17.3810  -30.5840   24.0880 C   0  0  0  0  0  3  0  0  0  0  0  0
  -16.3460  -29.7390   23.6490 C   0  0  0  0  0  3  0  0  0  0  0  0
  -16.6550  -28.4810   23.1030 C   0  0  0  0  0  3  0  0  0  0  0  0
  -25.9870  -32.5240   23.9340 C   0  0  0  0  0  3  0  0  0  0  0  0
  -25.7870  -33.9310   24.3020 N   0  0  0  0  0  0  0  0  0  0  0  0
  -26.1690  -34.9730   23.5530 C   0  0  0  0  0  0  0  0  0  0  0  0
  -26.7980  -34.8490   22.4990 O   0  0  0  0  0  0  0  0  0  0  0  0
  -25.2330  -34.1090   25.1290 H   0  0  0  0  0  0  0  0  0  0  0  0
  -24.5570  -36.8820   23.2910 C   0  0  0  0  0  1  0  0  0  0  0  0
  -25.7940  -36.3810   24.0530 C   0  0  0  0  0  3  0  0  0  0  0  0
  -28.0110  -37.0980   24.8260 C   0  0  0  0  0  1  0  0  0  0  0  0
  -26.8930  -37.3620   23.9230 N   0  0  0  0  0  0  0  0  0  0  0  0
  -26.5580  -38.3040   24.1040 H   0  0  0  0  0  0  0  0  0  0  0  0
  -26.5350  -31.6960   25.1600 C   0  0  1  0  0  0  0  0  0  0  0  0
  -25.4900  -31.4800   26.2790 C   0  0  0  0  0  1  0  0  0  0  0  0
  -27.0310  -30.3060   24.7000 C   0  0  0  0  0  1  0  0  0  0  0  0
  -27.7550  -32.4190   25.7780 C   0  0  0  0  0  1  0  0  0  0  0  0
  2  5  1  0
  3  1  2  0
  4  2  2  0
  4  3  1  0
  5  1  1  0
  5 11  1  0
  9  6  1  6
  7  9  1  0
  9  8  1  0
  9  4  1  0
 11 10  1  0
 14 12  1  6
 14 11  1  0
 14 13  1  0
 15 14  1  0
 16 22  1  0
 16 24  1  0
 17 22  1  0
 18 19  1  0
 18 17  1  0
 20 19  1  0
 20 29  1  0
 20 21  1  0
 22 21  1  0
 23 16  2  0
 24 15  1  0
 24 25  1  0
 26 27  2  0
 27 46  1  0
 28 27  1  0
 28 31  1  0
 29 30  1  0
 29 26  1  0
 30 28  2  0
 31 32  1  0
 32 33  2  0
 34 37  1  0
 34 33  1  0
 35 34  2  0
 36 35  1  0
 36 31  2  0
 37 38  1  0
 38 43  2  0
 38 39  1  0
 39 40  2  0
 40 41  1  0
 41 45  1  0
 42 41  2  0
 43 42  1  0
 44 43  1  0
 46 47  1  0
 47 50  1  0
 47 49  1  0
 48 46  2  0
 51 26  1  0
 51 52  1  0
 53 51  1  0
 54  3  1  0
 54 55  1  0
 56 58  1  0
 56 55  1  0
 58 57  1  0
 59 61  1  0
 59 58  1  0
 60 71  2  0
 61 66  1  0
 62 70  1  0
 62 72  1  0
 63 69  1  0
 63 65  1  0
 64 70  1  0
 65 64  1  0
 66 65  2  0
 67 68  1  0
 67 61  2  0
 68 63  2  0
 69 62  1  0
 70 60  1  0
 72 74  2  0
 73 72  1  0
 75 73  1  0
 76 85  2  0
 76 81  1  0
 77 73  1  0
 77 81  1  0
 78 77  1  0
 79 80  1  0
 79 78  1  0
 80 76  1  0
 81 82  2  0
 82 83  1  0
 84 83  2  0
 85 84  1  0
 86 60  1  0
 86 87  1  0
 86 96  1  0
 87 90  1  0
 88 92  1  0
 88 87  1  0
 89 88  2  0
 92 91  1  0
 94 92  1  0
 94 95  1  0
 94 93  1  0
 96 99  1  1
 96 97  1  0
 98 96  1  0
M  ISO  4  16 100  24 100  58 101  59 101
M  END
>  <TORSDO>  (75) 
F 24

>  <SCORE>  (75) 
-6.261

>  <name>  (75) 
77

>  <ligand_id>  (75) 
77

>  <original_smiles>  (75) 
[H]c1c([H])c([H])c2c(c1[H])C([H])([H])C([H])([H])C([H])([H])C2([H])N([H])C(=O)C1([H])N(C(=O)C([H])(N([H])C(=O)C([H])(N([H])C([H])([H])[H])C([H])([H])[H])C(C([H])([H])[H])(C([H])([H])[H])C([H])([H])[H])C([H])([H])c2c([H])c(OC([H])(C([H])([H])[H])C([H])([H])C([H])([H])C([H])([H])c3c(C(C([H])([H])[H])(C([H])([H])[H])C([H])([H])[H])c([H])n(C([H])(C([H])([H])[H])C(C([H])([H])[H])(C([H])([H])[H])C([H])([H])N([H])C(=O)N4C([H])([H])C([H])([H])C([H])([H])C([H])(n5nc(-c6c([H])c([H])c(Oc7c([H])c([H])c(F)c([H])c7F)c([H])c6[H])c(C(=O)N([H])[H])c5N([H])[H])C4([H])[H])c3[H])c([H])c([H])c2C1([H])[H]

>  <smiles>  (75) 
[H]c1c([H])c([H])c2c(c1[H])C([H])([H])C([H])([H])C([H])([H])C2([H])N([H])C(=O)C1([H])N(C(=O)C([H])(N([H])C(=O)C([H])(N([H])C([H])([H])[H])C([H])([H])[H])C(C([H])([H])[H])(C([H])([H])[H])C([H])([H])[H])C([H])([H])c2c([H])c(OC([H])(C([H])([H])[H])C([H])([H])C([H])([H])C([H])([H])c3c(C(C([H])([H])[H])(C([H])([H])[H])C([H])([H])[H])c([H])n(C([H])(C([H])([H])[H])C(C([H])([H])[H])(C([H])([H])[H])C([H])([H])N([H])C(=O)N4C([H])([H])C([H])([H])C([H])([H])C([H])(n5nc(-c6c([H])c([H])c(Oc7c([H])c([H])c(F)c([H])c7F)c([H])c6[H])c(C(=O)N([H])[H])c5N([H])[H])C4([H])[H])c3[H])c([H])c([H])c2C1([H])[H]

$$$$
78:0:0
     RDKit          3D

 94102  0  0  1  0  0  0  0  0999 V2000
  -31.5120  -21.7170   19.2290 C   0  0  0  0  0  3  0  0  0  0  0  0
  -30.6270  -22.7720   19.4590 C   0  0  0  0  0  3  0  0  0  0  0  0
  -31.1720  -20.3930   19.5670 C   0  0  0  0  0  0  0  0  0  0  0  0
  -29.3680  -22.5460   20.0410 C   0  0  0  0  0  0  0  0  0  0  0  0
  -29.8970  -20.1340   20.1630 C   0  0  0  0  0  0  0  0  0  0  0  0
  -32.2460  -19.3560   19.2500 C   0  0  0  0  0  1  0  0  0  0  0  0
  -29.0600  -21.2280   20.4080 N   0  0  0  0  0  0  0  0  0  0  0  0
  -28.1590  -18.2840   19.6720 C   0  0  0  0  0  1  0  0  0  0  0  0
  -29.3640  -18.6540   20.5490 C   0  0  0  0  0  3  0  0  0  0  0  0
  -30.3570  -17.3640   20.6010 C   0  0  0  0  0  2  0  0  0  0  0  0
  -30.6210  -14.7880   20.5400 C   0  0  0  0  0  0  0  0  0  0  0  0
  -30.4260  -12.5120   19.5320 C   0  0  0  0  0  2  0  0  0  0  0  0
  -29.5440  -12.6120   18.2680 C   0  0  0  0  0  2  0  0  0  0  0  0
  -28.0510  -12.4800   18.6320 C   0  0  0  0  0  2  0  0  0  0  0  0
  -27.6480  -13.3480   19.8550 C   0  0  0  0  0  3  0  0  0  0  0  0
  -28.6640  -13.2420   21.0140 C   0  0  0  0  0  2  0  0  0  0  0  0
  -29.9830  -13.5730   20.4670 N   0  0  0  0  0  0  0  0  0  0  0  0
  -31.8010  -14.8880   20.1970 O   0  0  0  0  0  0  0  0  0  0  0  0
  -29.8760  -15.9260   20.7970 N   0  0  0  0  0  0  0  0  0  0  0  0
  -28.9150  -15.7850   21.0680 H   0  0  0  0  0  0  0  0  0  0  0  0
  -25.2300  -13.9410   20.4720 C   0  0  0  0  0  0  0  0  0  0  0  0
  -24.1540  -13.1710   20.8210 C   0  0  0  0  0  0  0  0  0  0  0  0
  -24.6190  -11.8210   20.8310 C   0  0  0  0  0  0  0  0  0  0  0  0
  -26.2860  -13.0610   20.2950 N   0  0  0  0  0  0  0  0  0  0  0  0
  -25.9230  -11.7800   20.5720 N   0  0  0  0  0  0  0  0  0  0  0  0
  -23.8890  -10.5590   21.0170 C   0  0  0  0  0  0  0  0  0  0  0  0
  -24.2930   -9.6050   21.9760 C   0  0  0  0  0  3  0  0  0  0  0  0
  -23.5620   -8.4120   22.1520 C   0  0  0  0  0  3  0  0  0  0  0  0
  -22.4110   -8.1620   21.3670 C   0  0  0  0  0  0  0  0  0  0  0  0
  -22.0270   -9.1030   20.3970 C   0  0  0  0  0  3  0  0  0  0  0  0
  -22.7590  -10.2880   20.2200 C   0  0  0  0  0  3  0  0  0  0  0  0
  -21.6560   -7.0180   21.4500 O   0  0  0  0  0  0  0  0  0  0  0  0
  -21.5830   -6.2830   22.6060 C   0  0  0  0  0  0  0  0  0  0  0  0
  -21.1360   -6.8480   23.8190 C   0  0  0  0  0  3  0  0  0  0  0  0
  -21.0110   -6.0430   24.9690 C   0  0  0  0  0  3  0  0  0  0  0  0
  -21.3210   -4.6720   24.9050 C   0  0  0  0  0  0  0  0  0  0  0  0
  -21.7580   -4.1040   23.6960 C   0  0  0  0  0  3  0  0  0  0  0  0
  -21.8840   -4.9070   22.5480 C   0  0  0  0  0  0  0  0  0  0  0  0
  -22.2880   -4.3510   21.3820 F   0  0  0  0  0  0  0  0  0  0  0  0
  -21.1920   -3.8960   26.0060 F   0  0  0  0  0  0  0  0  0  0  0  0
  -22.7460  -13.6490   21.0330 C   0  0  0  0  0  0  0  0  0  0  0  0
  -21.9920  -12.9640   21.8830 N   0  0  0  0  0  0  0  0  0  0  0  0
  -22.3240  -14.6650   20.4810 O   0  0  0  0  0  0  0  0  0  0  0  0
  -22.3470  -12.1420   22.3510 H   0  0  0  0  0  0  0  0  0  0  0  0
  -21.0450  -13.2610   22.0720 H   0  0  0  0  0  0  0  0  0  0  0  0
  -25.3980  -15.3080   20.2670 N   0  0  0  0  0  0  0  0  0  0  0  0
  -24.6270  -15.9650   20.3140 H   0  0  0  0  0  0  0  0  0  0  0  0
  -26.2450  -15.7200   19.9010 H   0  0  0  0  0  0  0  0  0  0  0  0
  -28.9570  -24.2580   21.8600 C   0  0  0  0  0  1  0  0  0  0  0  0
  -28.4830  -23.8320   20.4590 C   0  0  2  0  0  0  0  0  0  0  0  0
  -26.3690  -22.7580   21.6810 C   0  0  0  0  0  1  0  0  0  0  0  0
  -26.9540  -23.5040   20.4610 C   0  0  0  0  0  2  0  0  0  0  0  0
  -28.6210  -25.1770   19.5320 C   0  0  0  0  0  2  0  0  0  0  0  0
  -28.4650  -26.5710   20.0630 O   0  0  0  0  0  0  0  0  0  0  0  0
  -24.6110  -31.8350   23.1420 C   0  0  0  0  0  0  0  0  0  0  0  0
  -27.3110  -27.3760   19.9780 C   0  0  0  0  0  0  0  0  0  0  0  0
  -23.4420  -30.4710   21.4450 C   0  0  0  0  0  3  0  0  0  0  0  0
  -24.9270  -28.9690   19.9870 C   0  0  0  0  0  0  0  0  0  0  0  0
  -25.9790  -30.8180   21.2980 C   0  0  0  0  0  2  0  0  0  0  0  0
  -26.0810  -29.4550   20.6120 C   0  0  0  0  0  0  0  0  0  0  0  0
  -27.2740  -28.6690   20.5980 C   0  0  0  0  0  3  0  0  0  0  0  0
  -26.1350  -26.9440   19.3280 C   0  0  0  0  0  3  0  0  0  0  0  0
  -24.9560  -27.7230   19.3360 C   0  0  0  0  0  3  0  0  0  0  0  0
  -23.6810  -29.8330   20.0490 C   0  0  0  0  0  2  0  0  0  0  0  0
  -24.6950  -31.0550   22.0210 N   0  0  0  0  0  0  0  0  0  0  0  0
  -23.5190  -32.0850   23.6710 O   0  0  0  0  0  0  0  0  0  0  0  0
  -22.7820  -29.4170   22.3700 C   0  0  0  0  0  0  0  0  0  0  0  0
  -21.4530  -29.2570   22.2530 N   0  0  0  0  0  0  0  0  0  0  0  0
  -23.4650  -28.7510   23.1520 O   0  0  0  0  0  0  0  0  0  0  0  0
  -20.9540  -29.8590   21.6120 H   0  0  0  0  0  0  0  0  0  0  0  0
  -18.0710  -28.0830   22.7570 C   0  0  0  0  0  0  0  0  0  0  0  0
  -20.6370  -28.2910   22.9920 C   0  0  0  0  0  3  0  0  0  0  0  0
  -20.7060  -26.8890   22.3420 C   0  0  0  0  0  2  0  0  0  0  0  0
  -19.5820  -26.6340   21.3340 C   0  0  0  0  0  2  0  0  0  0  0  0
  -18.2140  -26.7670   22.0110 C   0  0  0  0  0  2  0  0  0  0  0  0
  -19.2090  -28.8050   23.2030 C   0  0  0  0  0  0  0  0  0  0  0  0
  -19.0200  -30.0400   23.8620 C   0  0  0  0  0  3  0  0  0  0  0  0
  -17.7260  -30.5490   24.0760 C   0  0  0  0  0  3  0  0  0  0  0  0
  -16.6030  -29.8230   23.6490 C   0  0  0  0  0  3  0  0  0  0  0  0
  -16.7760  -28.5910   22.9920 C   0  0  0  0  0  3  0  0  0  0  0  0
  -25.8770  -32.4660   23.7980 C   0  0  0  0  0  3  0  0  0  0  0  0
  -25.5490  -33.8520   24.1700 N   0  0  0  0  0  0  0  0  0  0  0  0
  -25.8890  -34.9310   23.4540 C   0  0  0  0  0  0  0  0  0  0  0  0
  -26.5750  -34.8680   22.4320 O   0  0  0  0  0  0  0  0  0  0  0  0
  -24.9430  -33.9770   24.9680 H   0  0  0  0  0  0  0  0  0  0  0  0
  -24.1510  -36.7180   23.1390 C   0  0  0  0  0  1  0  0  0  0  0  0
  -25.3840  -36.2990   23.9550 C   0  0  0  0  0  3  0  0  0  0  0  0
  -27.4990  -37.1670   24.8470 C   0  0  0  0  0  1  0  0  0  0  0  0
  -26.4100  -37.3640   23.8930 N   0  0  0  0  0  0  0  0  0  0  0  0
  -25.9950  -38.2740   24.0720 H   0  0  0  0  0  0  0  0  0  0  0  0
  -26.3920  -31.6660   25.0570 C   0  0  1  0  0  0  0  0  0  0  0  0
  -25.2940  -31.3910   26.1110 C   0  0  0  0  0  1  0  0  0  0  0  0
  -26.9870  -30.3090   24.6220 C   0  0  0  0  0  1  0  0  0  0  0  0
  -27.5280  -32.4520   25.7510 C   0  0  0  0  0  1  0  0  0  0  0  0
  1  2  2  0
  1  3  1  0
  2  4  1  0
  3  5  2  0
  4  7  2  0
  4 50  1  0
  5  7  1  0
  5  9  1  0
  6  3  1  0
  9  8  1  0
  9 10  1  0
 10 19  1  0
 11 19  1  0
 12 17  1  0
 13 14  1  0
 13 12  1  0
 15 14  1  0
 15 24  1  0
 15 16  1  0
 17 11  1  0
 17 16  1  0
 18 11  2  0
 19 20  1  0
 21 22  2  0
 22 23  1  0
 22 41  1  0
 23 26  1  0
 24 21  1  0
 24 25  1  0
 25 23  2  0
 26 27  1  0
 27 28  2  0
 29 32  1  0
 29 28  1  0
 30 29  2  0
 31 30  1  0
 31 26  2  0
 32 33  1  0
 33 34  1  0
 34 35  2  0
 36 35  1  0
 36 40  1  0
 37 36  2  0
 38 33  2  0
 38 37  1  0
 39 38  1  0
 41 42  1  0
 42 45  1  0
 42 44  1  0
 43 41  2  0
 46 47  1  0
 46 21  1  0
 48 46  1  0
 50 52  1  0
 50 49  1  1
 52 51  1  0
 53 54  1  0
 53 50  1  0
 55 66  2  0
 56 54  1  0
 56 61  1  0
 57 65  1  0
 57 67  1  0
 58 64  1  0
 58 60  1  0
 59 65  1  0
 60 59  1  0
 61 60  2  0
 62 63  1  0
 62 56  2  0
 63 58  2  0
 64 57  1  0
 65 55  1  0
 67 69  2  0
 68 67  1  0
 70 68  1  0
 71 80  2  0
 71 76  1  0
 72 68  1  0
 72 76  1  0
 73 72  1  0
 74 75  1  0
 74 73  1  0
 75 71  1  0
 76 77  2  0
 77 78  1  0
 79 78  2  0
 80 79  1  0
 81 55  1  0
 81 82  1  0
 81 91  1  0
 82 85  1  0
 83 87  1  0
 83 82  1  0
 84 83  2  0
 87 86  1  0
 89 87  1  0
 89 90  1  0
 89 88  1  0
 91 94  1  1
 91 92  1  0
 93 91  1  0
M  ISO  4  11 100  19 100  53 101  54 101
M  END
>  <TORSDO>  (76) 
F 21

>  <SCORE>  (76) 
-13.298

>  <name>  (76) 
78

>  <ligand_id>  (76) 
78

>  <original_smiles>  (76) 
[H]c1c(C(C([H])([H])[H])(C([H])([H])Oc2c([H])c([H])c3c(c2[H])C([H])([H])N(C(=O)C([H])(N([H])C(=O)C([H])(N([H])C([H])([H])[H])C([H])([H])[H])C(C([H])([H])[H])(C([H])([H])[H])C([H])([H])[H])C([H])(C(=O)N([H])C2([H])c4c([H])c([H])c([H])c([H])c4C([H])([H])C([H])([H])C2([H])[H])C3([H])[H])C([H])([H])C([H])([H])[H])nc(C([H])(C([H])([H])[H])C([H])([H])N([H])C(=O)N2C([H])([H])C([H])([H])C([H])([H])C([H])(n3nc(-c4c([H])c([H])c(Oc5c([H])c([H])c(F)c([H])c5F)c([H])c4[H])c(C(=O)N([H])[H])c3N([H])[H])C2([H])[H])c(C([H])([H])[H])c1[H]

>  <smiles>  (76) 
[H]c1c(C(C([H])([H])[H])(C([H])([H])Oc2c([H])c([H])c3c(c2[H])C([H])([H])N(C(=O)C([H])(N([H])C(=O)C([H])(N([H])C([H])([H])[H])C([H])([H])[H])C(C([H])([H])[H])(C([H])([H])[H])C([H])([H])[H])C([H])(C(=O)N([H])C2([H])c4c([H])c([H])c([H])c([H])c4C([H])([H])C([H])([H])C2([H])[H])C3([H])[H])C([H])([H])C([H])([H])[H])nc(C([H])(C([H])([H])[H])C([H])([H])N([H])C(=O)N2C([H])([H])C([H])([H])C([H])([H])C([H])(n3nc(-c4c([H])c([H])c(Oc5c([H])c([H])c(F)c([H])c5F)c([H])c4[H])c(C(=O)N([H])[H])c3N([H])[H])C2([H])[H])c(C([H])([H])[H])c1[H]

$$$$
79:0:0
     RDKit          3D

 91 99  0  0  1  0  0  0  0  0999 V2000
  -30.1580  -18.9280   17.8820 C   0  0  0  0  0  2  0  0  0  0  0  0
  -31.0980  -15.4140   20.9480 C   0  0  0  0  0  0  0  0  0  0  0  0
  -31.2690  -12.9580   21.3410 C   0  0  0  0  0  2  0  0  0  0  0  0
  -30.8130  -12.1690   20.0960 C   0  0  0  0  0  2  0  0  0  0  0  0
  -29.2880  -11.9450   20.1150 C   0  0  0  0  0  2  0  0  0  0  0  0
  -28.4950  -13.2290   20.4800 C   0  0  0  0  0  3  0  0  0  0  0  0
  -29.1100  -13.9270   21.7070 C   0  0  0  0  0  2  0  0  0  0  0  0
  -30.5020  -14.2300   21.3520 N   0  0  0  0  0  0  0  0  0  0  0  0
  -32.3090  -15.5410   21.1390 O   0  0  0  0  0  0  0  0  0  0  0  0
  -27.9650  -18.9570   19.0730 C   0  0  0  0  0  3  0  0  0  0  0  0
  -29.2010  -18.2810   18.9620 C   0  0  0  0  0  0  0  0  0  0  0  0
  -27.0220  -18.5320   20.0160 C   0  0  0  0  0  0  0  0  0  0  0  0
  -29.4030  -17.1430   19.8930 C   0  0  0  0  0  0  0  0  0  0  0  0
  -25.6760  -19.2120   20.1410 C   0  0  0  0  0  1  0  0  0  0  0  0
  -27.2590  -17.5070   20.8510 N   0  0  0  0  0  0  0  0  0  0  0  0
  -28.4150  -16.8530   20.7750 N   0  0  0  0  0  0  0  0  0  0  0  0
  -30.5680  -16.2650   19.9760 N   0  0  0  0  0  0  0  0  0  0  0  0
  -31.3310  -16.6560   19.4460 H   0  0  0  0  0  0  0  0  0  0  0  0
  -26.0090  -13.8370   20.5860 C   0  0  0  0  0  0  0  0  0  0  0  0
  -24.8800  -13.0760   20.7050 C   0  0  0  0  0  0  0  0  0  0  0  0
  -25.3270  -11.7260   20.8470 C   0  0  0  0  0  0  0  0  0  0  0  0
  -27.0720  -12.9540   20.6520 N   0  0  0  0  0  0  0  0  0  0  0  0
  -26.6540  -11.6800   20.8700 N   0  0  0  0  0  0  0  0  0  0  0  0
  -24.5660  -10.4710   20.9040 C   0  0  0  0  0  0  0  0  0  0  0  0
  -24.9550   -9.4090   21.7500 C   0  0  0  0  0  3  0  0  0  0  0  0
  -24.1930   -8.2220   21.8030 C   0  0  0  0  0  3  0  0  0  0  0  0
  -23.0270   -8.0890   21.0100 C   0  0  0  0  0  0  0  0  0  0  0  0
  -22.6580   -9.1430   20.1550 C   0  0  0  0  0  3  0  0  0  0  0  0
  -23.4200  -10.3210   20.0980 C   0  0  0  0  0  3  0  0  0  0  0  0
  -22.2450   -6.9610   20.9750 O   0  0  0  0  0  0  0  0  0  0  0  0
  -22.0460   -6.1880   22.0910 C   0  0  0  0  0  0  0  0  0  0  0  0
  -21.6120   -6.7430   23.3140 C   0  0  0  0  0  3  0  0  0  0  0  0
  -21.3550   -5.9040   24.4170 C   0  0  0  0  0  3  0  0  0  0  0  0
  -21.5200   -4.5100   24.2960 C   0  0  0  0  0  0  0  0  0  0  0  0
  -21.9480   -3.9560   23.0770 C   0  0  0  0  0  3  0  0  0  0  0  0
  -22.2070   -4.7930   21.9770 C   0  0  0  0  0  0  0  0  0  0  0  0
  -22.5970   -4.2500   20.7980 F   0  0  0  0  0  0  0  0  0  0  0  0
  -21.2680   -3.7020   25.3520 F   0  0  0  0  0  0  0  0  0  0  0  0
  -23.4630  -13.5610   20.6110 C   0  0  0  0  0  0  0  0  0  0  0  0
  -22.5710  -12.9990   21.4180 N   0  0  0  0  0  0  0  0  0  0  0  0
  -23.1510  -14.4780   19.8550 O   0  0  0  0  0  0  0  0  0  0  0  0
  -22.8360  -12.2660   22.0590 H   0  0  0  0  0  0  0  0  0  0  0  0
  -21.6110  -13.3130   21.4020 H   0  0  0  0  0  0  0  0  0  0  0  0
  -26.2240  -15.2000   20.4130 N   0  0  0  0  0  0  0  0  0  0  0  0
  -25.4490  -15.8480   20.5020 H   0  0  0  0  0  0  0  0  0  0  0  0
  -27.1030  -15.6040   20.7210 H   0  0  0  0  0  0  0  0  0  0  0  0
  -30.0940  -20.5230   17.4920 C   0  0  0  0  0  3  0  0  0  0  0  0
  -30.1390  -21.7900   18.5110 C   0  0  0  0  0  3  0  0  0  0  0  0
  -29.9700  -23.3200   17.9550 C   0  0  0  0  0  3  0  0  0  0  0  0
  -29.5930  -24.5540   18.9470 C   0  0  0  0  0  3  0  0  0  0  0  0
  -29.7530  -26.0110   18.5930 O   0  0  0  0  0  0  0  0  0  0  0  0
  -26.4940  -29.9370   23.7990 C   0  0  0  0  0  0  0  0  0  0  0  0
  -28.7780  -26.9510   18.9920 C   0  0  0  0  0  0  0  0  0  0  0  0
  -25.3050  -29.7070   21.6480 C   0  0  0  0  0  3  0  0  0  0  0  0
  -26.6810  -28.7820   19.6950 C   0  0  0  0  0  0  0  0  0  0  0  0
  -27.8680  -29.6240   21.7200 C   0  0  0  0  0  2  0  0  0  0  0  0
  -27.8330  -28.7160   20.4900 C   0  0  0  0  0  0  0  0  0  0  0  0
  -28.8930  -27.8220   20.1290 C   0  0  0  0  0  3  0  0  0  0  0  0
  -27.6140  -27.0790   18.2100 C   0  0  0  0  0  3  0  0  0  0  0  0
  -26.5800  -27.9760   18.5480 C   0  0  0  0  0  3  0  0  0  0  0  0
  -25.5810  -29.7360   20.1220 C   0  0  0  0  0  2  0  0  0  0  0  0
  -26.5710  -29.7410   22.4500 N   0  0  0  0  0  0  0  0  0  0  0  0
  -25.4050  -30.1120   24.3650 O   0  0  0  0  0  0  0  0  0  0  0  0
  -24.4050  -28.4900   21.9770 C   0  0  0  0  0  0  0  0  0  0  0  0
  -23.0880  -28.6310   21.7490 N   0  0  0  0  0  0  0  0  0  0  0  0
  -24.8990  -27.4430   22.4010 O   0  0  0  0  0  0  0  0  0  0  0  0
  -22.7580  -29.5230   21.4100 H   0  0  0  0  0  0  0  0  0  0  0  0
  -19.5370  -27.9590   21.5680 C   0  0  0  0  0  0  0  0  0  0  0  0
  -22.0690  -27.5980   21.9460 C   0  0  0  0  0  3  0  0  0  0  0  0
  -22.0080  -26.6400   20.7340 C   0  0  0  0  0  2  0  0  0  0  0  0
  -20.9700  -27.0560   19.6870 C   0  0  0  0  0  2  0  0  0  0  0  0
  -19.5720  -27.1070   20.3100 C   0  0  0  0  0  2  0  0  0  0  0  0
  -20.7130  -28.2010   22.3270 C   0  0  0  0  0  0  0  0  0  0  0  0
  -20.6310  -29.0250   23.4700 C   0  0  0  0  0  3  0  0  0  0  0  0
  -19.4060  -29.6020   23.8570 C   0  0  0  0  0  3  0  0  0  0  0  0
  -18.2430  -29.3470   23.1100 C   0  0  0  0  0  3  0  0  0  0  0  0
  -18.3090  -28.5230   21.9720 C   0  0  0  0  0  3  0  0  0  0  0  0
  -27.7720  -29.9720   24.6940 C   0  0  0  0  0  3  0  0  0  0  0  0
  -28.0780  -28.5900   25.3940 C   0  0  1  0  0  0  0  0  0  0  0  0
  -26.8680  -27.9980   26.1550 C   0  0  0  0  0  1  0  0  0  0  0  0
  -28.5420  -27.5410   24.3570 C   0  0  0  0  0  1  0  0  0  0  0  0
  -29.2390  -28.7590   26.4030 C   0  0  0  0  0  1  0  0  0  0  0  0
  -27.5870  -31.0290   25.6980 N   0  0  0  0  0  0  0  0  0  0  0  0
  -28.1760  -32.2320   25.6550 C   0  0  0  0  0  0  0  0  0  0  0  0
  -28.9980  -32.5430   24.7880 O   0  0  0  0  0  0  0  0  0  0  0  0
  -26.8910  -30.8610   26.4090 H   0  0  0  0  0  0  0  0  0  0  0  0
  -26.8060  -34.2770   26.1700 C   0  0  0  0  0  1  0  0  0  0  0  0
  -27.7950  -33.2510   26.7470 C   0  0  0  0  0  3  0  0  0  0  0  0
  -29.8020  -33.0900   28.1540 C   0  0  0  0  0  1  0  0  0  0  0  0
  -28.9600  -33.9530   27.3290 N   0  0  0  0  0  0  0  0  0  0  0  0
  -28.6580  -34.7380   27.9000 H   0  0  0  0  0  0  0  0  0  0  0  0
  1 11  1  0
  2  9  2  0
  2  8  1  0
  3  8  1  0
  4  5  1  0
  4  3  1  0
  6  5  1  0
  6 22  1  0
  6  7  1  0
  8  7  1  0
 10 12  1  0
 11 10  2  0
 11 13  1  0
 12 14  1  0
 12 15  2  0
 13 17  1  0
 13 16  2  0
 16 15  1  0
 17  2  1  0
 18 17  1  0
 19 22  1  0
 19 20  2  0
 20 21  1  0
 21 23  2  0
 21 24  1  0
 22 23  1  0
 24 25  1  0
 25 26  2  0
 27 26  1  0
 28 27  2  0
 29 28  1  0
 29 24  2  0
 30 27  1  0
 30 31  1  0
 31 32  1  0
 32 33  2  0
 34 33  1  0
 34 38  1  0
 35 34  2  0
 36 31  2  0
 36 35  1  0
 37 36  1  0
 39 20  1  0
 39 40  1  0
 40 42  1  0
 41 39  2  0
 43 40  1  0
 44 45  1  0
 44 19  1  0
 44 46  1  0
 47  1  1  0
 47 48  2  0
 49 48  1  0
 49 50  2  0
 51 50  1  0
 51 53  1  0
 52 63  2  0
 53 58  1  0
 54 64  1  0
 54 62  1  0
 55 61  1  0
 55 57  1  0
 56 62  1  0
 57 56  1  0
 58 57  2  0
 59 60  1  0
 59 53  2  0
 60 55  2  0
 61 54  1  0
 62 52  1  0
 64 66  2  0
 65 64  1  0
 67 65  1  0
 68 77  2  0
 68 73  1  0
 69 65  1  0
 69 73  1  0
 70 69  1  0
 71 72  1  0
 71 70  1  0
 72 68  1  0
 73 74  2  0
 74 75  1  0
 76 75  2  0
 77 76  1  0
 78 52  1  0
 78 79  1  0
 78 83  1  0
 79 80  1  1
 79 82  1  0
 81 79  1  0
 83 86  1  0
 84 83  1  0
 84 88  1  0
 85 84  2  0
 88 87  1  0
 88 90  1  0
 90 91  1  0
 90 89  1  0
M  ISO  4   2 100  17 100  50 101  51 101
M  END
>  <TORSDO>  (77) 
F 20

>  <SCORE>  (77) 
-6.067

>  <name>  (77) 
79

>  <ligand_id>  (77) 
79

>  <original_smiles>  (77) 
[H]c1c([H])c([H])c2c(c1[H])C([H])([H])C([H])([H])C([H])([H])C2([H])N([H])C(=O)C1([H])N(C(=O)C([H])(N([H])C(=O)C([H])(N([H])C([H])([H])[H])C([H])([H])[H])C(C([H])([H])[H])(C([H])([H])[H])C([H])([H])[H])C([H])([H])c2c([H])c(OC([H])([H])C([H])([H])C([H])([H])C([H])([H])C([H])([H])c3c(N([H])C(=O)N4C([H])([H])C([H])([H])C([H])([H])C([H])(n5nc(-c6c([H])c([H])c(Oc7c([H])c([H])c(F)c([H])c7F)c([H])c6[H])c(C(=O)N([H])[H])c5N([H])[H])C4([H])[H])nnc(C([H])([H])[H])c3[H])c([H])c([H])c2C1([H])[H]

>  <smiles>  (77) 
[H]c1c([H])c([H])c2c(c1[H])C([H])([H])C([H])([H])C([H])([H])C2([H])N([H])C(=O)C1([H])N(C(=O)C([H])(N([H])C(=O)C([H])(N([H])C([H])([H])[H])C([H])([H])[H])C(C([H])([H])[H])(C([H])([H])[H])C([H])([H])[H])C([H])([H])c2c([H])c(OC([H])([H])C([H])([H])C([H])([H])C([H])([H])C([H])([H])c3c(N([H])C(=O)N4C([H])([H])C([H])([H])C([H])([H])C([H])(n5nc(-c6c([H])c([H])c(Oc7c([H])c([H])c(F)c([H])c7F)c([H])c6[H])c(C(=O)N([H])[H])c5N([H])[H])C4([H])[H])nnc(C([H])([H])[H])c3[H])c([H])c([H])c2C1([H])[H]

$$$$
80:0:0
     RDKit          3D

 93101  0  0  1  0  0  0  0  0999 V2000
  -31.2930  -21.7180   19.5110 C   0  0  0  0  0  3  0  0  0  0  0  0
  -29.5000  -20.2190   20.1220 C   0  0  0  0  0  3  0  0  0  0  0  0
  -29.9130  -21.4460   19.5620 C   0  0  0  0  0  0  0  0  0  0  0  0
  -32.1940  -20.7830   20.0480 C   0  0  0  0  0  0  0  0  0  0  0  0
  -30.4730  -19.3240   20.6150 C   0  0  0  0  0  0  0  0  0  0  0  0
  -33.6880  -21.0240   19.9780 C   0  0  0  0  0  1  0  0  0  0  0  0
  -31.7940  -19.6220   20.6070 N   0  0  0  0  0  0  0  0  0  0  0  0
  -30.3270  -17.8960   22.7080 C   0  0  0  0  0  1  0  0  0  0  0  0
  -30.0810  -17.9560   21.1920 C   0  0  0  0  0  3  0  0  0  0  0  0
  -30.7940  -16.8110   20.4310 C   0  0  0  0  0  2  0  0  0  0  0  0
  -30.8970  -14.3830   20.1530 C   0  0  0  0  0  0  0  0  0  0  0  0
  -30.4330  -12.3120   18.9280 C   0  0  0  0  0  2  0  0  0  0  0  0
  -29.4550  -12.6350   17.7810 C   0  0  0  0  0  2  0  0  0  0  0  0
  -27.9980  -12.5250   18.2730 C   0  0  0  0  0  2  0  0  0  0  0  0
  -27.7480  -13.2980   19.5970 C   0  0  0  0  0  3  0  0  0  0  0  0
  -28.8490  -12.9950   20.6420 C   0  0  0  0  0  2  0  0  0  0  0  0
  -30.1550  -13.2550   20.0190 N   0  0  0  0  0  0  0  0  0  0  0  0
  -32.0180  -14.5100   19.6540 O   0  0  0  0  0  0  0  0  0  0  0  0
  -30.2660  -15.4540   20.6590 N   0  0  0  0  0  0  0  0  0  0  0  0
  -29.3310  -15.3400   21.0180 H   0  0  0  0  0  0  0  0  0  0  0  0
  -25.3910  -13.9230   20.4190 C   0  0  0  0  0  0  0  0  0  0  0  0
  -24.3260  -13.1580   20.8150 C   0  0  0  0  0  0  0  0  0  0  0  0
  -24.7650  -11.8010   20.7390 C   0  0  0  0  0  0  0  0  0  0  0  0
  -26.4130  -13.0320   20.1260 N   0  0  0  0  0  0  0  0  0  0  0  0
  -26.0420  -11.7490   20.3780 N   0  0  0  0  0  0  0  0  0  0  0  0
  -24.0270  -10.5460   20.9320 C   0  0  0  0  0  0  0  0  0  0  0  0
  -24.4460   -9.5820   21.8760 C   0  0  0  0  0  3  0  0  0  0  0  0
  -23.7090   -8.3910   22.0580 C   0  0  0  0  0  3  0  0  0  0  0  0
  -22.5410   -8.1560   21.2950 C   0  0  0  0  0  0  0  0  0  0  0  0
  -22.1410   -9.1080   20.3400 C   0  0  0  0  0  3  0  0  0  0  0  0
  -22.8780  -10.2900   20.1570 C   0  0  0  0  0  3  0  0  0  0  0  0
  -21.7780   -7.0170   21.3850 O   0  0  0  0  0  0  0  0  0  0  0  0
  -21.6610   -6.3200   22.5610 C   0  0  0  0  0  0  0  0  0  0  0  0
  -21.1670   -6.9200   23.7400 C   0  0  0  0  0  3  0  0  0  0  0  0
  -20.9990   -6.1480   24.9070 C   0  0  0  0  0  3  0  0  0  0  0  0
  -21.3150   -4.7770   24.8950 C   0  0  0  0  0  0  0  0  0  0  0  0
  -21.8030   -4.1750   23.7220 C   0  0  0  0  0  3  0  0  0  0  0  0
  -21.9720   -4.9440   22.5570 C   0  0  0  0  0  0  0  0  0  0  0  0
  -22.4230   -4.3560   21.4230 F   0  0  0  0  0  0  0  0  0  0  0  0
  -21.1450   -4.0340   26.0130 F   0  0  0  0  0  0  0  0  0  0  0  0
  -22.9490  -13.6500   21.1520 C   0  0  0  0  0  0  0  0  0  0  0  0
  -22.2470  -12.9550   22.0400 N   0  0  0  0  0  0  0  0  0  0  0  0
  -22.5020  -14.6860   20.6610 O   0  0  0  0  0  0  0  0  0  0  0  0
  -22.6220  -12.1180   22.4620 H   0  0  0  0  0  0  0  0  0  0  0  0
  -21.3230  -13.2650   22.3040 H   0  0  0  0  0  0  0  0  0  0  0  0
  -25.5650  -15.2950   20.2630 N   0  0  0  0  0  0  0  0  0  0  0  0
  -24.8040  -15.9480   20.4140 H   0  0  0  0  0  0  0  0  0  0  0  0
  -26.4010  -15.7360   19.9010 H   0  0  0  0  0  0  0  0  0  0  0  0
  -28.9060  -22.4180   18.9590 C   0  0  0  0  0  2  0  0  0  0  0  0
  -29.0540  -23.8870   19.4160 C   0  0  0  0  0  2  0  0  0  0  0  0
  -28.3340  -24.2190   20.7350 C   0  0  0  0  0  2  0  0  0  0  0  0
  -28.6570  -25.6280   21.2730 C   0  0  0  0  0  2  0  0  0  0  0  0
  -28.5200  -26.6410   20.2770 O   0  0  0  0  0  0  0  0  0  0  0  0
  -24.6170  -31.8050   23.2430 C   0  0  0  0  0  0  0  0  0  0  0  0
  -27.3390  -27.3390   20.2980 C   0  0  0  0  0  0  0  0  0  0  0  0
  -23.4490  -30.3810   21.5870 C   0  0  0  0  0  3  0  0  0  0  0  0
  -24.9390  -28.8180   20.2290 C   0  0  0  0  0  0  0  0  0  0  0  0
  -25.9770  -30.7430   21.4460 C   0  0  0  0  0  2  0  0  0  0  0  0
  -26.0790  -29.3620   20.8370 C   0  0  0  0  0  0  0  0  0  0  0  0
  -27.2850  -28.6300   20.8650 C   0  0  0  0  0  3  0  0  0  0  0  0
  -26.1860  -26.7970   19.6960 C   0  0  0  0  0  3  0  0  0  0  0  0
  -24.9850  -27.5310   19.6600 C   0  0  0  0  0  3  0  0  0  0  0  0
  -23.6950  -29.6760   20.2260 C   0  0  0  0  0  2  0  0  0  0  0  0
  -24.6970  -30.9920   22.1520 N   0  0  0  0  0  0  0  0  0  0  0  0
  -23.5220  -32.0840   23.7540 O   0  0  0  0  0  0  0  0  0  0  0  0
  -22.7740  -29.3760   22.5460 C   0  0  0  0  0  0  0  0  0  0  0  0
  -21.4540  -29.1880   22.3810 N   0  0  0  0  0  0  0  0  0  0  0  0
  -23.4340  -28.7660   23.3910 O   0  0  0  0  0  0  0  0  0  0  0  0
  -20.9850  -29.7300   21.6700 H   0  0  0  0  0  0  0  0  0  0  0  0
  -18.0720  -27.9840   22.7830 C   0  0  0  0  0  0  0  0  0  0  0  0
  -20.6160  -28.2620   23.1420 C   0  0  0  0  0  3  0  0  0  0  0  0
  -20.7490  -26.8190   22.6000 C   0  0  0  0  0  2  0  0  0  0  0  0
  -19.6850  -26.4700   21.5540 C   0  0  0  0  0  2  0  0  0  0  0  0
  -18.2800  -26.6210   22.1440 C   0  0  0  0  0  2  0  0  0  0  0  0
  -19.1700  -28.7600   23.2370 C   0  0  0  0  0  0  0  0  0  0  0  0
  -18.9250  -30.0350   23.7930 C   0  0  0  0  0  3  0  0  0  0  0  0
  -17.6130  -30.5330   23.8990 C   0  0  0  0  0  3  0  0  0  0  0  0
  -16.5280  -29.7540   23.4620 C   0  0  0  0  0  3  0  0  0  0  0  0
  -16.7580  -28.4820   22.9090 C   0  0  0  0  0  3  0  0  0  0  0  0
  -25.8880  -32.4420   23.8870 C   0  0  0  0  0  3  0  0  0  0  0  0
  -25.5710  -33.8410   24.2010 N   0  0  0  0  0  0  0  0  0  0  0  0
  -25.9190  -34.8880   23.4420 C   0  0  0  0  0  0  0  0  0  0  0  0
  -26.6110  -34.7790   22.4260 O   0  0  0  0  0  0  0  0  0  0  0  0
  -24.9610  -34.0000   24.9900 H   0  0  0  0  0  0  0  0  0  0  0  0
  -24.1970  -36.6730   23.0340 C   0  0  0  0  0  1  0  0  0  0  0  0
  -25.4190  -36.2780   23.8780 C   0  0  0  0  0  3  0  0  0  0  0  0
  -27.5320  -37.1710   24.7540 C   0  0  0  0  0  1  0  0  0  0  0  0
  -26.4530  -37.3310   23.7830 N   0  0  0  0  0  0  0  0  0  0  0  0
  -26.0430  -38.2530   23.9130 H   0  0  0  0  0  0  0  0  0  0  0  0
  -26.3820  -31.6780   25.1760 C   0  0  1  0  0  0  0  0  0  0  0  0
  -25.2700  -31.4410   26.2220 C   0  0  0  0  0  1  0  0  0  0  0  0
  -26.9780  -30.3020   24.7990 C   0  0  0  0  0  1  0  0  0  0  0  0
  -27.5180  -32.4790   25.8570 C   0  0  0  0  0  1  0  0  0  0  0  0
  1  3  2  0
  1  4  1  0
  2  5  2  0
  3  2  1  0
  4  7  2  0
  5  9  1  0
  6  4  1  0
  7  5  1  0
  9  8  1  0
 10 19  1  0
 10  9  1  0
 11 19  1  0
 12 17  1  0
 13 14  1  0
 13 12  1  0
 15 14  1  0
 15 24  1  0
 15 16  1  0
 17 11  1  0
 17 16  1  0
 18 11  2  0
 19 20  1  0
 21 22  2  0
 22 41  1  0
 23 22  1  0
 23 26  1  0
 24 25  1  0
 24 21  1  0
 25 23  2  0
 26 27  1  0
 27 28  2  0
 29 32  1  0
 29 28  1  0
 30 29  2  0
 31 30  1  0
 31 26  2  0
 32 33  1  0
 33 34  1  0
 34 35  2  0
 36 35  1  0
 36 40  1  0
 37 36  2  0
 38 33  2  0
 38 37  1  0
 39 38  1  0
 41 42  1  0
 42 45  1  0
 42 44  1  0
 43 41  2  0
 46 47  1  0
 46 21  1  0
 48 46  1  0
 49 50  1  0
 49  3  1  0
 50 51  1  0
 51 52  1  0
 53 55  1  0
 53 52  1  0
 54 65  2  0
 55 60  1  0
 56 64  1  0
 56 66  1  0
 57 59  1  0
 58 64  1  0
 59 60  2  0
 59 58  1  0
 61 55  2  0
 62 61  1  0
 62 57  2  0
 63 57  1  0
 63 56  1  0
 64 54  1  0
 66 68  2  0
 67 66  1  0
 69 67  1  0
 70 79  2  0
 70 75  1  0
 71 67  1  0
 71 75  1  0
 72 71  1  0
 73 74  1  0
 73 72  1  0
 74 70  1  0
 75 76  2  0
 76 77  1  0
 78 77  2  0
 79 78  1  0
 80 54  1  0
 80 81  1  0
 80 90  1  0
 81 84  1  0
 82 86  1  0
 82 81  1  0
 83 82  2  0
 86 85  1  0
 88 86  1  0
 88 89  1  0
 88 87  1  0
 90 93  1  1
 90 91  1  0
 92 90  1  0
M  ISO  4  11 100  19 100  52 101  53 101
M  END
>  <TORSDO>  (78) 
F 22

>  <SCORE>  (78) 
-12.702

>  <name>  (78) 
80

>  <ligand_id>  (78) 
80

>  <original_smiles>  (78) 
[H]c1c([H])c([H])c2c(c1[H])C([H])([H])C([H])([H])C([H])([H])C2([H])N([H])C(=O)C1([H])N(C(=O)C([H])(N([H])C(=O)C([H])(N([H])C([H])([H])[H])C([H])([H])[H])C(C([H])([H])[H])(C([H])([H])[H])C([H])([H])[H])C([H])([H])c2c([H])c(OC([H])([H])C([H])([H])C([H])([H])C([H])([H])c3c([H])c(C([H])([H])[H])nc(C([H])(C([H])([H])[H])C([H])([H])N([H])C(=O)N4C([H])([H])C([H])([H])C([H])([H])C([H])(n5nc(-c6c([H])c([H])c(Oc7c([H])c([H])c(F)c([H])c7F)c([H])c6[H])c(C(=O)N([H])[H])c5N([H])[H])C4([H])[H])c3[H])c([H])c([H])c2C1([H])[H]

>  <smiles>  (78) 
[H]c1c([H])c([H])c2c(c1[H])C([H])([H])C([H])([H])C([H])([H])C2([H])N([H])C(=O)C1([H])N(C(=O)C([H])(N([H])C(=O)C([H])(N([H])C([H])([H])[H])C([H])([H])[H])C(C([H])([H])[H])(C([H])([H])[H])C([H])([H])[H])C([H])([H])c2c([H])c(OC([H])([H])C([H])([H])C([H])([H])C([H])([H])c3c([H])c(C([H])([H])[H])nc(C([H])(C([H])([H])[H])C([H])([H])N([H])C(=O)N4C([H])([H])C([H])([H])C([H])([H])C([H])(n5nc(-c6c([H])c([H])c(Oc7c([H])c([H])c(F)c([H])c7F)c([H])c6[H])c(C(=O)N([H])[H])c5N([H])[H])C4([H])[H])c3[H])c([H])c([H])c2C1([H])[H]

$$$$
81:0:0
     RDKit          3D

 98106  0  0  1  0  0  0  0  0999 V2000
  -28.4080  -20.0980   20.2620 C   0  0  0  0  0  3  0  0  0  0  0  0
  -29.1380  -18.9440   20.1030 C   0  0  0  0  0  0  0  0  0  0  0  0
  -29.4330  -20.2360   18.2980 C   0  0  0  0  0  3  0  0  0  0  0  0
  -28.5690  -20.8480   19.1230 N   0  0  0  0  0  0  0  0  0  0  0  0
  -29.7600  -19.0850   18.8900 N   0  0  0  0  0  0  0  0  0  0  0  0
  -30.3430  -18.3820   18.4560 H   0  0  0  0  0  0  0  0  0  0  0  0
  -27.7960  -17.0040   20.7700 C   0  0  0  0  0  1  0  0  0  0  0  0
  -29.1680  -17.6730   20.9160 C   0  0  0  0  0  3  0  0  0  0  0  0
  -30.3510  -16.7310   20.5450 C   0  0  0  0  0  2  0  0  0  0  0  0
  -30.7450  -14.3360   20.2000 C   0  0  0  0  0  0  0  0  0  0  0  0
  -30.3670  -12.2340   18.9860 C   0  0  0  0  0  2  0  0  0  0  0  0
  -29.3810  -12.4870   17.8260 C   0  0  0  0  0  2  0  0  0  0  0  0
  -27.9250  -12.3470   18.3070 C   0  0  0  0  0  2  0  0  0  0  0  0
  -27.6400  -13.1480   19.6050 C   0  0  0  0  0  3  0  0  0  0  0  0
  -28.7340  -12.8840   20.6680 C   0  0  0  0  0  2  0  0  0  0  0  0
  -30.0470  -13.1800   20.0660 N   0  0  0  0  0  0  0  0  0  0  0  0
  -31.8130  -14.5590   19.6230 O   0  0  0  0  0  0  0  0  0  0  0  0
  -30.1100  -15.3170   20.8520 N   0  0  0  0  0  0  0  0  0  0  0  0
  -29.2450  -15.0810   21.3170 H   0  0  0  0  0  0  0  0  0  0  0  0
  -25.2600  -13.7350   20.4030 C   0  0  0  0  0  0  0  0  0  0  0  0
  -24.2080  -12.9560   20.7990 C   0  0  0  0  0  0  0  0  0  0  0  0
  -24.6680  -11.6070   20.7150 C   0  0  0  0  0  0  0  0  0  0  0  0
  -26.3010  -12.8640   20.1210 N   0  0  0  0  0  0  0  0  0  0  0  0
  -25.9460  -11.5750   20.3580 N   0  0  0  0  0  0  0  0  0  0  0  0
  -23.9470  -10.3420   20.8930 C   0  0  0  0  0  0  0  0  0  0  0  0
  -24.3570   -9.3860   21.8490 C   0  0  0  0  0  3  0  0  0  0  0  0
  -23.6330   -8.1850   22.0150 C   0  0  0  0  0  3  0  0  0  0  0  0
  -22.4880   -7.9320   21.2230 C   0  0  0  0  0  0  0  0  0  0  0  0
  -22.0990   -8.8770   20.2560 C   0  0  0  0  0  3  0  0  0  0  0  0
  -22.8220  -10.0680   20.0890 C   0  0  0  0  0  3  0  0  0  0  0  0
  -21.7390   -6.7830   21.2990 O   0  0  0  0  0  0  0  0  0  0  0  0
  -21.5880   -6.0980   22.4780 C   0  0  0  0  0  0  0  0  0  0  0  0
  -21.0200   -6.6990   23.6220 C   0  0  0  0  0  3  0  0  0  0  0  0
  -20.8210   -5.9390   24.7920 C   0  0  0  0  0  3  0  0  0  0  0  0
  -21.1800   -4.5790   24.8190 C   0  0  0  0  0  0  0  0  0  0  0  0
  -21.7420   -3.9770   23.6800 C   0  0  0  0  0  3  0  0  0  0  0  0
  -21.9430   -4.7340   22.5110 C   0  0  0  0  0  0  0  0  0  0  0  0
  -22.4660   -4.1440   21.4090 F   0  0  0  0  0  0  0  0  0  0  0  0
  -20.9840   -3.8460   25.9400 F   0  0  0  0  0  0  0  0  0  0  0  0
  -22.8250  -13.4280   21.1390 C   0  0  0  0  0  0  0  0  0  0  0  0
  -22.1270  -12.7090   22.0110 N   0  0  0  0  0  0  0  0  0  0  0  0
  -22.3710  -14.4700   20.6680 O   0  0  0  0  0  0  0  0  0  0  0  0
  -22.5060  -11.8650   22.4130 H   0  0  0  0  0  0  0  0  0  0  0  0
  -21.2000  -13.0100   22.2790 H   0  0  0  0  0  0  0  0  0  0  0  0
  -25.4010  -15.1060   20.2430 N   0  0  0  0  0  0  0  0  0  0  0  0
  -24.6300  -15.7490   20.3850 H   0  0  0  0  0  0  0  0  0  0  0  0
  -26.2240  -15.5550   19.8650 H   0  0  0  0  0  0  0  0  0  0  0  0
  -29.8730  -20.6220   16.9150 C   0  0  0  0  0  2  0  0  0  0  0  0
  -31.3780  -20.3830   16.6560 C   0  0  0  0  0  2  0  0  0  0  0  0
  -31.2170  -18.5570   14.8600 C   0  0  0  0  0  1  0  0  0  0  0  0
  -31.2990  -21.0090   14.1790 C   0  0  0  0  0  1  0  0  0  0  0  0
  -31.7330  -19.9640   15.2160 C   0  0  0  0  0  3  0  0  0  0  0  0
  -27.8370  -22.0740   18.7840 C   0  0  0  0  0  2  0  0  0  0  0  0
  -28.7170  -23.3380   18.7120 C   0  0  0  0  0  2  0  0  0  0  0  0
  -29.0000  -23.9870   21.1580 C   0  0  0  0  0  1  0  0  0  0  0  0
  -28.4160  -24.3960   19.7960 C   0  0  0  0  0  3  0  0  0  0  0  0
  -28.9420  -25.7770   19.3360 C   0  0  0  0  0  2  0  0  0  0  0  0
  -28.6600  -26.8370   20.2490 O   0  0  0  0  0  0  0  0  0  0  0  0
  -24.6510  -31.8880   23.2100 C   0  0  0  0  0  0  0  0  0  0  0  0
  -27.4450  -27.4900   20.1980 C   0  0  0  0  0  0  0  0  0  0  0  0
  -23.5050  -30.4620   21.5460 C   0  0  0  0  0  3  0  0  0  0  0  0
  -25.0160  -28.9420   20.1620 C   0  0  0  0  0  0  0  0  0  0  0  0
  -26.0270  -30.8580   21.4100 C   0  0  0  0  0  2  0  0  0  0  0  0
  -26.1460  -29.4850   20.7840 C   0  0  0  0  0  0  0  0  0  0  0  0
  -27.3560  -28.7580   20.8120 C   0  0  0  0  0  3  0  0  0  0  0  0
  -26.2940  -26.9600   19.5670 C   0  0  0  0  0  3  0  0  0  0  0  0
  -25.0820  -27.6740   19.5590 C   0  0  0  0  0  3  0  0  0  0  0  0
  -23.7580  -29.7790   20.1740 C   0  0  0  0  0  2  0  0  0  0  0  0
  -24.7450  -31.0840   22.1130 N   0  0  0  0  0  0  0  0  0  0  0  0
  -23.5540  -32.1460   23.7220 O   0  0  0  0  0  0  0  0  0  0  0  0
  -22.8490  -29.4330   22.4930 C   0  0  0  0  0  0  0  0  0  0  0  0
  -21.5270  -29.2460   22.3480 N   0  0  0  0  0  0  0  0  0  0  0  0
  -23.5240  -28.8070   23.3130 O   0  0  0  0  0  0  0  0  0  0  0  0
  -21.0440  -29.8030   21.6570 H   0  0  0  0  0  0  0  0  0  0  0  0
  -18.1430  -28.0820   22.8360 C   0  0  0  0  0  0  0  0  0  0  0  0
  -20.7040  -28.3030   23.1040 C   0  0  0  0  0  3  0  0  0  0  0  0
  -20.7880  -26.8830   22.5000 C   0  0  0  0  0  2  0  0  0  0  0  0
  -19.6790  -26.5920   21.4840 C   0  0  0  0  0  2  0  0  0  0  0  0
  -18.3010  -26.7430   22.1370 C   0  0  0  0  0  2  0  0  0  0  0  0
  -19.2720  -28.8220   23.2760 C   0  0  0  0  0  0  0  0  0  0  0  0
  -19.0710  -30.0780   23.8880 C   0  0  0  0  0  3  0  0  0  0  0  0
  -17.7730  -30.5940   24.0660 C   0  0  0  0  0  3  0  0  0  0  0  0
  -16.6580  -29.8490   23.6420 C   0  0  0  0  0  3  0  0  0  0  0  0
  -16.8440  -28.5950   23.0330 C   0  0  0  0  0  3  0  0  0  0  0  0
  -25.9140  -32.5390   23.8570 C   0  0  0  0  0  3  0  0  0  0  0  0
  -26.4100  -31.7840   25.1510 C   0  0  1  0  0  0  0  0  0  0  0  0
  -25.2920  -31.5280   26.1870 C   0  0  0  0  0  1  0  0  0  0  0  0
  -27.0310  -30.4170   24.7790 C   0  0  0  0  0  1  0  0  0  0  0  0
  -27.5250  -32.6030   25.8410 C   0  0  0  0  0  1  0  0  0  0  0  0
  -25.5810  -33.9360   24.1660 N   0  0  0  0  0  0  0  0  0  0  0  0
  -25.9270  -34.9850   23.4080 C   0  0  0  0  0  0  0  0  0  0  0  0
  -26.6330  -34.8800   22.4000 O   0  0  0  0  0  0  0  0  0  0  0  0
  -24.9590  -34.0920   24.9460 H   0  0  0  0  0  0  0  0  0  0  0  0
  -24.2020  -36.7610   22.9670 C   0  0  0  0  0  1  0  0  0  0  0  0
  -25.4090  -36.3710   23.8350 C   0  0  0  0  0  3  0  0  0  0  0  0
  -27.4950  -37.2790   24.7580 C   0  0  0  0  0  1  0  0  0  0  0  0
  -26.4370  -37.4320   23.7620 N   0  0  0  0  0  0  0  0  0  0  0  0
  -26.0180  -38.3490   23.8830 H   0  0  0  0  0  0  0  0  0  0  0  0
  2  1  2  0
  2  8  1  0
  3 48  1  0
  3  5  1  0
  3  4  1  0
  4  1  1  0
  5  2  1  0
  6  5  1  0
  8  7  1  0
  9 18  1  0
  9  8  1  0
 10 18  1  0
 11 16  1  0
 12 13  1  0
 12 11  1  0
 14 13  1  0
 14 23  1  0
 14 15  1  0
 16 10  1  0
 16 15  1  0
 17 10  2  0
 18 19  1  0
 20 21  2  0
 21 40  1  0
 22 21  1  0
 22 25  1  0
 23 24  1  0
 23 20  1  0
 24 22  2  0
 25 26  1  0
 26 27  2  0
 28 31  1  0
 28 27  1  0
 29 28  2  0
 30 29  1  0
 30 25  2  0
 31 32  1  0
 32 37  2  0
 32 33  1  0
 33 34  2  0
 34 35  1  0
 35 39  1  0
 36 35  2  0
 37 36  1  0
 38 37  1  0
 40 41  1  0
 41 44  1  0
 41 43  1  0
 42 40  2  0
 45 46  1  0
 45 20  1  0
 47 45  1  0
 49 48  1  0
 50 52  1  0
 51 52  1  0
 52 49  1  0
 53  4  1  0
 54 53  1  0
 54 56  1  0
 56 55  1  0
 57 56  1  0
 57 58  1  0
 59 70  2  0
 60 58  1  0
 60 65  1  0
 61 69  1  0
 61 71  1  0
 62 68  1  0
 62 64  1  0
 63 69  1  0
 64 65  2  0
 64 63  1  0
 66 60  2  0
 67 66  1  0
 67 62  2  0
 68 61  1  0
 69 59  1  0
 71 73  2  0
 72 71  1  0
 74 72  1  0
 75 84  2  0
 75 80  1  0
 76 72  1  0
 76 80  1  0
 77 76  1  0
 78 79  1  0
 78 77  1  0
 79 75  1  0
 80 81  2  0
 81 82  1  0
 83 82  2  0
 84 83  1  0
 85 59  1  0
 85 90  1  0
 85 86  1  0
 86 89  1  1
 86 87  1  0
 88 86  1  0
 90 93  1  0
 91 95  1  0
 91 90  1  0
 92 91  2  0
 95 94  1  0
 97 95  1  0
 97 98  1  0
 97 96  1  0
M  ISO  4  10 100  18 100  57 101  58 101
M  END
>  <TORSDO>  (79) 
F 25

>  <SCORE>  (79) 
-11.973

>  <name>  (79) 
81

>  <ligand_id>  (79) 
81

>  <original_smiles>  (79) 
[H]c1c([H])c([H])c2c(c1[H])C([H])([H])C([H])([H])C([H])([H])C2([H])N([H])C(=O)C1([H])N(C(=O)C([H])(N([H])C(=O)C([H])(N([H])C([H])([H])[H])C([H])([H])[H])C(C([H])([H])[H])(C([H])([H])[H])C([H])([H])[H])C([H])([H])c2c([H])c(OC([H])([H])C([H])(C([H])([H])[H])C([H])([H])C([H])([H])n3c([H])c(C([H])(C([H])([H])[H])C([H])([H])N([H])C(=O)N4C([H])([H])C([H])([H])C([H])([H])C([H])(n5nc(-c6c([H])c([H])c(Oc7c([H])c([H])c(F)c([H])c7F)c([H])c6[H])c(C(=O)N([H])[H])c5N([H])[H])C4([H])[H])[n+]([H])c3C([H])([H])C([H])([H])C([H])(C([H])([H])[H])C([H])([H])[H])c([H])c([H])c2C1([H])[H]

>  <smiles>  (79) 
[H]c1c([H])c([H])c2c(c1[H])C([H])([H])C([H])([H])C([H])([H])C2([H])N([H])C(=O)C1([H])N(C(=O)C([H])(N([H])C(=O)C([H])(N([H])C([H])([H])[H])C([H])([H])[H])C(C([H])([H])[H])(C([H])([H])[H])C([H])([H])[H])C([H])([H])c2c([H])c(OC([H])([H])C([H])(C([H])([H])[H])C([H])([H])C([H])([H])n3c([H])c(C([H])(C([H])([H])[H])C([H])([H])N([H])C(=O)N4C([H])([H])C([H])([H])C([H])([H])C([H])(n5nc(-c6c([H])c([H])c(Oc7c([H])c([H])c(F)c([H])c7F)c([H])c6[H])c(C(=O)N([H])[H])c5N([H])[H])C4([H])[H])[n+]([H])c3C([H])([H])C([H])([H])C([H])(C([H])([H])[H])C([H])([H])[H])c([H])c([H])c2C1([H])[H]

$$$$
82:0:0
     RDKit          3D

 95103  0  0  1  0  0  0  0  0999 V2000
  -28.1550  -20.0540   20.4020 C   0  0  0  0  0  3  0  0  0  0  0  0
  -28.1740  -18.6960   20.5410 C   0  0  0  0  0  0  0  0  0  0  0  0
  -29.5040  -18.4000   20.9670 C   0  0  0  0  0  0  0  0  0  0  0  0
  -27.0170  -17.7480   20.3480 C   0  0  0  0  0  1  0  0  0  0  0  0
  -30.2620  -19.5020   20.9810 N   0  0  0  0  0  0  0  0  0  0  0  0
  -29.4180  -20.5290   20.7010 N   0  0  0  0  0  0  0  0  0  0  0  0
  -29.8570  -21.9190   20.8940 C   0  0  0  0  0  2  0  0  0  0  0  0
  -29.0320  -22.9610   20.0940 C   0  0  0  0  0  2  0  0  0  0  0  0
  -29.4130  -24.4550   20.3150 C   0  0  0  0  0  2  0  0  0  0  0  0
  -27.4940  -25.3090   21.7460 C   0  0  0  0  0  1  0  0  0  0  0  0
  -28.1560  -25.3600   20.3490 C   0  0  0  0  0  3  0  0  0  0  0  0
  -28.4060  -26.7380   19.9710 O   0  0  0  0  0  0  0  0  0  0  0  0
  -24.6200  -31.7710   23.2680 C   0  0  0  0  0  0  0  0  0  0  0  0
  -27.2690  -27.5260   19.9240 C   0  0  0  0  0  0  0  0  0  0  0  0
  -23.4110  -30.4390   21.5740 C   0  0  0  0  0  3  0  0  0  0  0  0
  -24.8630  -29.0150   20.0400 C   0  0  0  0  0  0  0  0  0  0  0  0
  -25.9310  -30.8450   21.3580 C   0  0  0  0  0  2  0  0  0  0  0  0
  -26.0260  -29.5150   20.6410 C   0  0  0  0  0  0  0  0  0  0  0  0
  -27.2320  -28.7800   20.5810 C   0  0  0  0  0  3  0  0  0  0  0  0
  -26.0920  -27.0660   19.2850 C   0  0  0  0  0  3  0  0  0  0  0  0
  -24.8920  -27.7890   19.3570 C   0  0  0  0  0  3  0  0  0  0  0  0
  -23.6070  -29.8480   20.1540 C   0  0  0  0  0  2  0  0  0  0  0  0
  -24.6740  -31.0290   22.1260 N   0  0  0  0  0  0  0  0  0  0  0  0
  -23.5430  -31.9950   23.8380 O   0  0  0  0  0  0  0  0  0  0  0  0
  -22.7920  -29.3520   22.4820 C   0  0  0  0  0  0  0  0  0  0  0  0
  -21.4800  -29.1130   22.3220 N   0  0  0  0  0  0  0  0  0  0  0  0
  -23.4890  -28.7300   23.2890 O   0  0  0  0  0  0  0  0  0  0  0  0
  -20.9770  -29.6680   21.6420 H   0  0  0  0  0  0  0  0  0  0  0  0
  -18.1690  -27.7100   22.6770 C   0  0  0  0  0  0  0  0  0  0  0  0
  -20.6950  -28.1140   23.0470 C   0  0  0  0  0  3  0  0  0  0  0  0
  -20.9030  -26.7020   22.4540 C   0  0  0  0  0  2  0  0  0  0  0  0
  -19.8620  -26.3320   21.3920 C   0  0  0  0  0  2  0  0  0  0  0  0
  -18.4500  -26.3850   21.9870 C   0  0  0  0  0  2  0  0  0  0  0  0
  -19.2240  -28.5280   23.1610 C   0  0  0  0  0  0  0  0  0  0  0  0
  -18.9120  -29.7650   23.7640 C   0  0  0  0  0  3  0  0  0  0  0  0
  -17.5760  -30.1900   23.8840 C   0  0  0  0  0  3  0  0  0  0  0  0
  -16.5330  -29.3700   23.4170 C   0  0  0  0  0  3  0  0  0  0  0  0
  -16.8300  -28.1300   22.8210 C   0  0  0  0  0  3  0  0  0  0  0  0
  -25.9050  -32.3880   23.9010 C   0  0  0  0  0  3  0  0  0  0  0  0
  -25.6130  -33.7940   24.2030 N   0  0  0  0  0  0  0  0  0  0  0  0
  -25.9830  -34.8280   23.4350 C   0  0  0  0  0  0  0  0  0  0  0  0
  -26.6790  -34.6990   22.4240 O   0  0  0  0  0  0  0  0  0  0  0  0
  -25.0000  -33.9720   24.9850 H   0  0  0  0  0  0  0  0  0  0  0  0
  -24.2890  -36.6400   23.0090 C   0  0  0  0  0  1  0  0  0  0  0  0
  -25.5050  -36.2310   23.8570 C   0  0  0  0  0  3  0  0  0  0  0  0
  -27.6350  -37.0930   24.7230 C   0  0  0  0  0  1  0  0  0  0  0  0
  -26.5570  -37.2660   23.7530 N   0  0  0  0  0  0  0  0  0  0  0  0
  -26.1610  -38.1930   23.8840 H   0  0  0  0  0  0  0  0  0  0  0  0
  -26.3900  -31.6270   25.1940 C   0  0  1  0  0  0  0  0  0  0  0  0
  -25.2760  -31.4120   26.2440 C   0  0  0  0  0  1  0  0  0  0  0  0
  -26.9700  -30.2390   24.8280 C   0  0  0  0  0  1  0  0  0  0  0  0
  -27.5350  -32.4190   25.8720 C   0  0  0  0  0  1  0  0  0  0  0  0
  -30.0260  -17.0320   21.4050 C   0  0  0  0  0  3  0  0  0  0  0  0
  -31.2970  -17.0940   22.2780 C   0  0  0  0  0  3  0  0  0  0  0  0
  -31.0900  -17.8460   23.3630 F   0  0  0  0  0  0  0  0  0  0  0  0
  -31.6410  -15.8690   22.6890 F   0  0  0  0  0  0  0  0  0  0  0  0
  -30.0300  -15.9250   20.3090 C   0  0  0  0  0  2  0  0  0  0  0  0
  -31.6590  -14.0570   19.5780 C   0  0  0  0  0  0  0  0  0  0  0  0
  -31.3010  -11.6380   19.2430 C   0  0  0  0  0  2  0  0  0  0  0  0
  -30.3290  -11.3810   18.0700 C   0  0  0  0  0  2  0  0  0  0  0  0
  -28.8610  -11.4190   18.5470 C   0  0  0  0  0  2  0  0  0  0  0  0
  -28.5490  -12.6590   19.4300 C   0  0  0  0  0  3  0  0  0  0  0  0
  -29.6310  -12.7850   20.5270 C   0  0  0  0  0  2  0  0  0  0  0  0
  -30.9400  -12.9290   19.8700 N   0  0  0  0  0  0  0  0  0  0  0  0
  -32.7060  -14.0010   18.9320 O   0  0  0  0  0  0  0  0  0  0  0  0
  -31.3240  -15.2700   20.0620 N   0  0  0  0  0  0  0  0  0  0  0  0
  -32.0640  -15.9320   19.8780 H   0  0  0  0  0  0  0  0  0  0  0  0
  -26.3340  -13.6060   20.3430 C   0  0  0  0  0  0  0  0  0  0  0  0
  -25.1760  -13.0020   20.7460 C   0  0  0  0  0  0  0  0  0  0  0  0
  -25.3920  -11.5970   20.5970 C   0  0  0  0  0  0  0  0  0  0  0  0
  -27.2000  -12.5830   19.9890 N   0  0  0  0  0  0  0  0  0  0  0  0
  -26.6370  -11.3640   20.1940 N   0  0  0  0  0  0  0  0  0  0  0  0
  -24.4730  -10.4650   20.7650 C   0  0  0  0  0  0  0  0  0  0  0  0
  -24.7600   -9.4010   21.6520 C   0  0  0  0  0  3  0  0  0  0  0  0
  -23.8510   -8.3320   21.8060 C   0  0  0  0  0  3  0  0  0  0  0  0
  -22.6390   -8.3200   21.0740 C   0  0  0  0  0  0  0  0  0  0  0  0
  -22.3690   -9.3670   20.1790 C   0  0  0  0  0  3  0  0  0  0  0  0
  -23.2740  -10.4300   20.0240 C   0  0  0  0  0  3  0  0  0  0  0  0
  -21.7050   -7.3150   21.1450 O   0  0  0  0  0  0  0  0  0  0  0  0
  -21.5230   -6.5800   22.2870 C   0  0  0  0  0  0  0  0  0  0  0  0
  -21.1740   -7.1830   23.5160 C   0  0  0  0  0  3  0  0  0  0  0  0
  -20.9350   -6.3780   24.6500 C   0  0  0  0  0  3  0  0  0  0  0  0
  -21.0330   -4.9770   24.5530 C   0  0  0  0  0  0  0  0  0  0  0  0
  -21.3770   -4.3770   23.3290 C   0  0  0  0  0  3  0  0  0  0  0  0
  -21.6170   -5.1780   22.2010 C   0  0  0  0  0  0  0  0  0  0  0  0
  -21.9330   -4.5970   21.0170 F   0  0  0  0  0  0  0  0  0  0  0  0
  -20.7940   -4.2010   25.6380 F   0  0  0  0  0  0  0  0  0  0  0  0
  -23.9040  -13.6920   21.1540 C   0  0  0  0  0  0  0  0  0  0  0  0
  -23.1370  -13.0950   22.0570 N   0  0  0  0  0  0  0  0  0  0  0  0
  -23.6070  -14.7970   20.6980 O   0  0  0  0  0  0  0  0  0  0  0  0
  -22.2670  -13.5360   22.3220 H   0  0  0  0  0  0  0  0  0  0  0  0
  -23.3740  -12.1930   22.4430 H   0  0  0  0  0  0  0  0  0  0  0  0
  -26.7080  -14.9380   20.2270 N   0  0  0  0  0  0  0  0  0  0  0  0
  -26.0230  -15.6640   20.3970 H   0  0  0  0  0  0  0  0  0  0  0  0
  -27.5480  -15.2670   19.7690 H   0  0  0  0  0  0  0  0  0  0  0  0
  1  2  2  0
  1  6  1  0
  2  3  1  0
  3  5  2  0
  3 53  1  0
  4  2  1  0
  6  7  1  0
  6  5  1  0
  8  9  1  0
  8  7  1  0
  9 11  1  0
 11 10  1  0
 12 11  1  0
 13 24  2  0
 14 12  1  0
 14 19  1  0
 15 23  1  0
 15 25  1  0
 16 22  1  0
 16 18  1  0
 17 23  1  0
 18 17  1  0
 19 18  2  0
 20 21  1  0
 20 14  2  0
 21 16  2  0
 22 15  1  0
 23 13  1  0
 25 27  2  0
 26 25  1  0
 28 26  1  0
 29 38  2  0
 29 34  1  0
 30 26  1  0
 30 34  1  0
 31 30  1  0
 32 33  1  0
 32 31  1  0
 33 29  1  0
 34 35  2  0
 35 36  1  0
 37 36  2  0
 38 37  1  0
 39 13  1  0
 39 40  1  0
 39 49  1  0
 40 43  1  0
 41 45  1  0
 41 40  1  0
 42 41  2  0
 45 44  1  0
 47 45  1  0
 47 48  1  0
 47 46  1  0
 49 52  1  1
 49 50  1  0
 51 49  1  0
 53 57  1  0
 53 54  1  0
 54 56  1  0
 54 55  1  0
 58 64  1  0
 58 66  1  0
 59 64  1  0
 60 61  1  0
 60 59  1  0
 62 61  1  0
 62 71  1  0
 62 63  1  0
 64 63  1  0
 65 58  2  0
 66 57  1  0
 67 66  1  0
 68 69  2  0
 69 88  1  0
 70 69  1  0
 70 73  1  0
 71 72  1  0
 71 68  1  0
 72 70  2  0
 73 74  1  0
 74 75  2  0
 76 79  1  0
 76 75  1  0
 77 76  2  0
 78 77  1  0
 78 73  2  0
 79 80  1  0
 80 81  1  0
 81 82  2  0
 83 82  1  0
 83 87  1  0
 84 83  2  0
 85 80  2  0
 85 84  1  0
 86 85  1  0
 88 89  1  0
 89 91  1  0
 89 92  1  0
 90 88  2  0
 93 68  1  0
 93 94  1  0
 95 93  1  0
M  ISO  4  11 101  12 101  58 100  66 100
M  END
>  <TORSDO>  (80) 
F 23

>  <SCORE>  (80) 
-11.219

>  <name>  (80) 
82

>  <ligand_id>  (80) 
82

>  <original_smiles>  (80) 
[H]c1c([H])c([H])c2c(c1[H])C([H])([H])C([H])([H])C([H])([H])C2([H])N([H])C(=O)C1([H])N(C(=O)C([H])(N([H])C(=O)C([H])(N([H])C([H])([H])[H])C([H])([H])[H])C(C([H])([H])[H])(C([H])([H])[H])C([H])([H])[H])C([H])([H])c2c([H])c(OC([H])(C([H])([H])[H])C([H])([H])C([H])([H])C([H])([H])n3nc(C([H])(C([H])(F)F)C([H])([H])N([H])C(=O)N4C([H])([H])C([H])([H])C([H])([H])C([H])(n5nc(-c6c([H])c([H])c(Oc7c([H])c([H])c(F)c([H])c7F)c([H])c6[H])c(C(=O)N([H])[H])c5N([H])[H])C4([H])[H])c(C([H])([H])[H])c3[H])c([H])c([H])c2C1([H])[H]

>  <smiles>  (80) 
[H]c1c([H])c([H])c2c(c1[H])C([H])([H])C([H])([H])C([H])([H])C2([H])N([H])C(=O)C1([H])N(C(=O)C([H])(N([H])C(=O)C([H])(N([H])C([H])([H])[H])C([H])([H])[H])C(C([H])([H])[H])(C([H])([H])[H])C([H])([H])[H])C([H])([H])c2c([H])c(OC([H])(C([H])([H])[H])C([H])([H])C([H])([H])C([H])([H])n3nc(C([H])(C([H])(F)F)C([H])([H])N([H])C(=O)N4C([H])([H])C([H])([H])C([H])([H])C([H])(n5nc(-c6c([H])c([H])c(Oc7c([H])c([H])c(F)c([H])c7F)c([H])c6[H])c(C(=O)N([H])[H])c5N([H])[H])C4([H])[H])c(C([H])([H])[H])c3[H])c([H])c([H])c2C1([H])[H]

$$$$
83:0:0
     RDKit          3D

 94102  0  0  1  0  0  0  0  0999 V2000
  -30.7970  -21.1620   20.0690 C   0  0  0  0  0  3  0  0  0  0  0  0
  -30.1920  -20.1890   20.8170 C   0  0  0  0  0  0  0  0  0  0  0  0
  -28.8510  -20.5440   20.9840 N   0  0  0  0  0  0  0  0  0  0  0  0
  -28.6150  -21.6650   20.3670 N   0  0  0  0  0  0  0  0  0  0  0  0
  -29.7830  -22.0690   19.8100 N   0  0  0  0  0  0  0  0  0  0  0  0
  -30.7860  -18.9560   21.4630 C   0  0  0  0  0  2  0  0  0  0  0  0
  -30.3140  -17.5970   20.8820 C   0  0  0  0  0  3  0  0  0  0  0  0
  -28.8420  -17.4780   20.9140 N   0  0  0  0  0  4  0  0  0  0  0  0
  -28.5420  -16.5460   20.6940 H   0  0  0  0  0  0  0  0  0  0  0  0
  -28.4370  -18.1120   20.2460 H   0  0  0  0  0  0  0  0  0  0  0  0
  -28.4890  -17.7300   21.8220 H   0  0  0  0  0  0  0  0  0  0  0  0
  -30.9790  -16.4060   21.6180 C   0  0  0  0  0  2  0  0  0  0  0  0
  -30.8980  -14.2910   20.2850 C   0  0  0  0  0  0  0  0  0  0  0  0
  -30.4960  -12.2090   19.0180 C   0  0  0  0  0  2  0  0  0  0  0  0
  -29.5050  -12.4540   17.8610 C   0  0  0  0  0  2  0  0  0  0  0  0
  -28.0460  -12.3390   18.3450 C   0  0  0  0  0  2  0  0  0  0  0  0
  -27.7800  -13.1720   19.6240 C   0  0  0  0  0  3  0  0  0  0  0  0
  -28.8560  -12.8720   20.6900 C   0  0  0  0  0  2  0  0  0  0  0  0
  -30.1810  -13.1540   20.1020 N   0  0  0  0  0  0  0  0  0  0  0  0
  -31.9060  -14.5780   19.6320 O   0  0  0  0  0  0  0  0  0  0  0  0
  -30.4220  -15.1030   21.2390 N   0  0  0  0  0  0  0  0  0  0  0  0
  -29.6520  -14.7400   21.7810 H   0  0  0  0  0  0  0  0  0  0  0  0
  -25.4290  -13.8570   20.4260 C   0  0  0  0  0  0  0  0  0  0  0  0
  -24.3510  -13.1160   20.8290 C   0  0  0  0  0  0  0  0  0  0  0  0
  -24.7650  -11.7500   20.7610 C   0  0  0  0  0  0  0  0  0  0  0  0
  -26.4320  -12.9450   20.1420 N   0  0  0  0  0  0  0  0  0  0  0  0
  -26.0380  -11.6720   20.3990 N   0  0  0  0  0  0  0  0  0  0  0  0
  -24.0090  -10.5090   20.9620 C   0  0  0  0  0  0  0  0  0  0  0  0
  -24.4260   -9.5340   21.8980 C   0  0  0  0  0  3  0  0  0  0  0  0
  -23.6730   -8.3550   22.0860 C   0  0  0  0  0  3  0  0  0  0  0  0
  -22.4890   -8.1400   21.3390 C   0  0  0  0  0  0  0  0  0  0  0  0
  -22.0930   -9.1030   20.3930 C   0  0  0  0  0  3  0  0  0  0  0  0
  -22.8450  -10.2740   20.2040 C   0  0  0  0  0  3  0  0  0  0  0  0
  -21.7080   -7.0150   21.4370 O   0  0  0  0  0  0  0  0  0  0  0  0
  -21.6260   -6.2960   22.6030 C   0  0  0  0  0  0  0  0  0  0  0  0
  -21.1830   -6.8810   23.8090 C   0  0  0  0  0  3  0  0  0  0  0  0
  -21.0480   -6.0890   24.9670 C   0  0  0  0  0  3  0  0  0  0  0  0
  -21.3440   -4.7130   24.9170 C   0  0  0  0  0  0  0  0  0  0  0  0
  -21.7840   -4.1290   23.7160 C   0  0  0  0  0  3  0  0  0  0  0  0
  -21.9220   -4.9180   22.5610 C   0  0  0  0  0  0  0  0  0  0  0  0
  -22.3230   -4.3480   21.3990 F   0  0  0  0  0  0  0  0  0  0  0  0
  -21.2090   -3.9480   26.0260 F   0  0  0  0  0  0  0  0  0  0  0  0
  -22.9800  -13.6310   21.1600 C   0  0  0  0  0  0  0  0  0  0  0  0
  -22.2600  -12.9430   22.0370 N   0  0  0  0  0  0  0  0  0  0  0  0
  -22.5580  -14.6780   20.6720 O   0  0  0  0  0  0  0  0  0  0  0  0
  -22.6130  -12.0920   22.4500 H   0  0  0  0  0  0  0  0  0  0  0  0
  -21.3420  -13.2710   22.3020 H   0  0  0  0  0  0  0  0  0  0  0  0
  -25.6350  -15.2250   20.2560 N   0  0  0  0  0  0  0  0  0  0  0  0
  -24.8630  -15.8770   20.3510 H   0  0  0  0  0  0  0  0  0  0  0  0
  -26.3850  -15.5870   19.6840 H   0  0  0  0  0  0  0  0  0  0  0  0
  -29.8310  -23.2840   19.0010 C   0  0  0  0  0  2  0  0  0  0  0  0
  -29.7780  -24.6250   19.7870 C   0  0  0  0  0  2  0  0  0  0  0  0
  -28.3720  -25.2610   19.8700 C   0  0  0  0  0  2  0  0  0  0  0  0
  -28.4120  -26.6680   20.1850 O   0  0  0  0  0  0  0  0  0  0  0  0
  -24.5840  -31.8830   23.2110 C   0  0  0  0  0  0  0  0  0  0  0  0
  -27.2220  -27.3840   20.1750 C   0  0  0  0  0  0  0  0  0  0  0  0
  -23.3760  -30.4620   21.5890 C   0  0  0  0  0  3  0  0  0  0  0  0
  -24.8230  -28.9070   20.1800 C   0  0  0  0  0  0  0  0  0  0  0  0
  -25.9040  -30.8130   21.3790 C   0  0  0  0  0  2  0  0  0  0  0  0
  -25.9870  -29.4330   20.7570 C   0  0  0  0  0  0  0  0  0  0  0  0
  -27.1880  -28.6810   20.7450 C   0  0  0  0  0  3  0  0  0  0  0  0
  -26.0280  -26.8750   19.6120 C   0  0  0  0  0  3  0  0  0  0  0  0
  -24.8400  -27.6270   19.6060 C   0  0  0  0  0  3  0  0  0  0  0  0
  -23.5810  -29.7680   20.2180 C   0  0  0  0  0  2  0  0  0  0  0  0
  -24.6410  -31.0690   22.1190 N   0  0  0  0  0  0  0  0  0  0  0  0
  -23.5040  -32.1590   23.7520 O   0  0  0  0  0  0  0  0  0  0  0  0
  -22.7250  -29.4520   22.5600 C   0  0  0  0  0  0  0  0  0  0  0  0
  -21.4010  -29.2610   22.4340 N   0  0  0  0  0  0  0  0  0  0  0  0
  -23.4090  -28.8410   23.3850 O   0  0  0  0  0  0  0  0  0  0  0  0
  -20.9070  -29.8090   21.7420 H   0  0  0  0  0  0  0  0  0  0  0  0
  -18.0340  -28.0560   22.9400 C   0  0  0  0  0  0  0  0  0  0  0  0
  -20.5880  -28.3310   23.2150 C   0  0  0  0  0  3  0  0  0  0  0  0
  -20.6990  -26.8910   22.6620 C   0  0  0  0  0  2  0  0  0  0  0  0
  -19.6020  -26.5490   21.6480 C   0  0  0  0  0  2  0  0  0  0  0  0
  -18.2190  -26.6970   22.2860 C   0  0  0  0  0  2  0  0  0  0  0  0
  -19.1470  -28.8290   23.3620 C   0  0  0  0  0  0  0  0  0  0  0  0
  -18.9200  -30.1000   23.9340 C   0  0  0  0  0  3  0  0  0  0  0  0
  -17.6130  -30.5990   24.0870 C   0  0  0  0  0  3  0  0  0  0  0  0
  -16.5130  -29.8240   23.6800 C   0  0  0  0  0  3  0  0  0  0  0  0
  -16.7240  -28.5550   23.1130 C   0  0  0  0  0  3  0  0  0  0  0  0
  -25.8720  -32.5200   23.8180 C   0  0  0  0  0  3  0  0  0  0  0  0
  -26.4080  -31.7500   25.0880 C   0  0  1  0  0  0  0  0  0  0  0  0
  -25.3290  -31.5000   26.1670 C   0  0  0  0  0  1  0  0  0  0  0  0
  -26.9980  -30.3790   24.6830 C   0  0  0  0  0  1  0  0  0  0  0  0
  -27.5560  -32.5530   25.7440 C   0  0  0  0  0  1  0  0  0  0  0  0
  -25.5590  -33.9160   24.1540 N   0  0  0  0  0  0  0  0  0  0  0  0
  -25.8920  -34.9710   23.4000 C   0  0  0  0  0  0  0  0  0  0  0  0
  -26.5710  -34.8730   22.3730 O   0  0  0  0  0  0  0  0  0  0  0  0
  -24.9610  -34.0670   24.9530 H   0  0  0  0  0  0  0  0  0  0  0  0
  -24.1750  -36.7700   23.0260 C   0  0  0  0  0  1  0  0  0  0  0  0
  -25.4000  -36.3580   23.8590 C   0  0  0  0  0  3  0  0  0  0  0  0
  -27.5170  -37.2350   24.7420 C   0  0  0  0  0  1  0  0  0  0  0  0
  -26.4380  -37.4080   23.7720 N   0  0  0  0  0  0  0  0  0  0  0  0
  -26.0310  -38.3300   23.9110 H   0  0  0  0  0  0  0  0  0  0  0  0
  1  2  2  0
  2  3  1  0
  2  6  1  0
  4  3  2  0
  5  1  1  0
  5  4  1  0
  7  8  1  0
  7  6  1  0
  7 12  1  0
  8 11  1  0
  9  8  1  0
 10  8  1  0
 13 21  1  0
 14 19  1  0
 15 16  1  0
 15 14  1  0
 17 16  1  0
 17 26  1  0
 17 18  1  0
 19 13  1  0
 19 18  1  0
 20 13  2  0
 21 12  1  0
 21 22  1  0
 23 24  2  0
 24 43  1  0
 25 24  1  0
 25 28  1  0
 26 27  1  0
 26 23  1  0
 27 25  2  0
 28 29  1  0
 29 30  2  0
 31 34  1  0
 31 30  1  0
 32 31  2  0
 33 32  1  0
 33 28  2  0
 34 35  1  0
 35 36  1  0
 36 37  2  0
 38 37  1  0
 38 42  1  0
 39 38  2  0
 40 35  2  0
 40 39  1  0
 41 40  1  0
 43 44  1  0
 44 47  1  0
 44 46  1  0
 45 43  2  0
 48 49  1  0
 48 23  1  0
 50 48  1  0
 51 52  1  0
 51  5  1  0
 52 53  1  0
 53 54  1  0
 55 66  2  0
 56 54  1  0
 56 61  1  0
 57 65  1  0
 57 67  1  0
 58 64  1  0
 58 60  1  0
 59 65  1  0
 60 59  1  0
 61 60  2  0
 62 56  2  0
 63 62  1  0
 63 58  2  0
 64 57  1  0
 65 55  1  0
 67 69  2  0
 68 67  1  0
 70 68  1  0
 71 80  2  0
 71 76  1  0
 72 68  1  0
 72 76  1  0
 73 72  1  0
 74 75  1  0
 74 73  1  0
 75 71  1  0
 76 77  2  0
 77 78  1  0
 79 78  2  0
 80 79  1  0
 81 55  1  0
 81 86  1  0
 81 82  1  0
 82 85  1  1
 82 83  1  0
 84 82  1  0
 86 89  1  0
 87 91  1  0
 87 86  1  0
 88 87  2  0
 91 90  1  0
 93 91  1  0
 93 94  1  0
 93 92  1  0
M  ISO  4  13 100  21 100  53 101  54 101
M  END
>  <TORSDO>  (81) 
F 23

>  <SCORE>  (81) 
-13.213

>  <name>  (81) 
83

>  <ligand_id>  (81) 
83

>  <original_smiles>  (81) 
[H]c1c([H])c([H])c2c(c1[H])C([H])([H])C([H])([H])C([H])([H])C2([H])N([H])C(=O)C1([H])N(C(=O)C([H])(N([H])C(=O)C([H])(N([H])C([H])([H])[H])C([H])([H])[H])C(C([H])([H])[H])(C([H])([H])[H])C([H])([H])[H])C([H])([H])c2c([H])c(OC([H])([H])C([H])([H])C([H])([H])n3nnc(C([H])([H])C([H])(C([H])([H])N([H])C(=O)N4C([H])([H])C([H])([H])C([H])([H])C([H])(n5nc(-c6c([H])c([H])c(Oc7c([H])c([H])c(F)c([H])c7F)c([H])c6[H])c(C(=O)N([H])[H])c5N([H])[H])C4([H])[H])[N+]([H])([H])[H])c3[H])c([H])c([H])c2C1([H])[H]

>  <smiles>  (81) 
[H]c1c([H])c([H])c2c(c1[H])C([H])([H])C([H])([H])C([H])([H])C2([H])N([H])C(=O)C1([H])N(C(=O)C([H])(N([H])C(=O)C([H])(N([H])C([H])([H])[H])C([H])([H])[H])C(C([H])([H])[H])(C([H])([H])[H])C([H])([H])[H])C([H])([H])c2c([H])c(OC([H])([H])C([H])([H])C([H])([H])n3nnc(C([H])([H])C([H])(C([H])([H])N([H])C(=O)N4C([H])([H])C([H])([H])C([H])([H])C([H])(n5nc(-c6c([H])c([H])c(Oc7c([H])c([H])c(F)c([H])c7F)c([H])c6[H])c(C(=O)N([H])[H])c5N([H])[H])C4([H])[H])[N+]([H])([H])[H])c3[H])c([H])c([H])c2C1([H])[H]

$$$$
84:0:0
     RDKit          3D

 93101  0  0  1  0  0  0  0  0999 V2000
  -29.1430  -20.0950   21.0380 C   0  0  0  0  0  3  0  0  0  0  0  0
  -29.5490  -21.1330   21.8360 C   0  0  0  0  0  0  0  0  0  0  0  0
  -30.8760  -20.7640   22.2050 C   0  0  0  0  0  0  0  0  0  0  0  0
  -31.8440  -21.4850   23.0990 C   0  0  0  0  0  1  0  0  0  0  0  0
  -31.2350  -19.5980   21.6830 N   0  0  0  0  0  0  0  0  0  0  0  0
  -30.1620  -19.1570   20.9810 N   0  0  0  0  0  0  0  0  0  0  0  0
  -28.8510  -17.5410   19.6280 C   0  0  0  0  0  1  0  0  0  0  0  0
  -31.2950  -17.8470   19.2420 C   0  0  0  0  0  1  0  0  0  0  0  0
  -30.1990  -17.8270   20.3300 C   0  0  1  0  0  0  0  0  0  0  0  0
  -30.5170  -16.7390   21.4120 C   0  0  0  0  0  2  0  0  0  0  0  0
  -30.6980  -14.4270   20.4130 C   0  0  0  0  0  0  0  0  0  0  0  0
  -30.3490  -12.3240   19.1730 C   0  0  0  0  0  2  0  0  0  0  0  0
  -29.3940  -12.5750   17.9860 C   0  0  0  0  0  2  0  0  0  0  0  0
  -27.9220  -12.4480   18.4250 C   0  0  0  0  0  2  0  0  0  0  0  0
  -27.6120  -13.2520   19.7140 C   0  0  0  0  0  3  0  0  0  0  0  0
  -28.6710  -12.9720   20.8040 C   0  0  0  0  0  2  0  0  0  0  0  0
  -29.9990  -13.2760   20.2360 N   0  0  0  0  0  0  0  0  0  0  0  0
  -31.8020  -14.6330   19.9030 O   0  0  0  0  0  0  0  0  0  0  0  0
  -30.0580  -15.3740   21.1100 N   0  0  0  0  0  0  0  0  0  0  0  0
  -29.1530  -15.1170   21.4750 H   0  0  0  0  0  0  0  0  0  0  0  0
  -25.2140  -13.8760   20.4160 C   0  0  0  0  0  0  0  0  0  0  0  0
  -24.1440  -13.1110   20.7930 C   0  0  0  0  0  0  0  0  0  0  0  0
  -24.6000  -11.7570   20.7750 C   0  0  0  0  0  0  0  0  0  0  0  0
  -26.2570  -12.9880   20.1950 N   0  0  0  0  0  0  0  0  0  0  0  0
  -25.8890  -11.7090   20.4660 N   0  0  0  0  0  0  0  0  0  0  0  0
  -23.8710  -10.4980   20.9750 C   0  0  0  0  0  0  0  0  0  0  0  0
  -24.2950   -9.5410   21.9220 C   0  0  0  0  0  3  0  0  0  0  0  0
  -23.5660   -8.3470   22.1100 C   0  0  0  0  0  3  0  0  0  0  0  0
  -22.3990   -8.1020   21.3480 C   0  0  0  0  0  0  0  0  0  0  0  0
  -21.9950   -9.0470   20.3890 C   0  0  0  0  0  3  0  0  0  0  0  0
  -22.7240  -10.2320   20.2000 C   0  0  0  0  0  3  0  0  0  0  0  0
  -21.6410   -6.9590   21.4460 O   0  0  0  0  0  0  0  0  0  0  0  0
  -21.5780   -6.2330   22.6090 C   0  0  0  0  0  0  0  0  0  0  0  0
  -21.1290   -6.8030   23.8190 C   0  0  0  0  0  3  0  0  0  0  0  0
  -21.0140   -6.0040   24.9740 C   0  0  0  0  0  3  0  0  0  0  0  0
  -21.3350   -4.6350   24.9170 C   0  0  0  0  0  0  0  0  0  0  0  0
  -21.7760   -4.0630   23.7120 C   0  0  0  0  0  3  0  0  0  0  0  0
  -21.8940   -4.8600   22.5590 C   0  0  0  0  0  0  0  0  0  0  0  0
  -22.2990   -4.3000   21.3940 F   0  0  0  0  0  0  0  0  0  0  0  0
  -21.2180   -3.8640   26.0240 F   0  0  0  0  0  0  0  0  0  0  0  0
  -22.7480  -13.5940   21.0650 C   0  0  0  0  0  0  0  0  0  0  0  0
  -22.0200  -12.9030   21.9340 N   0  0  0  0  0  0  0  0  0  0  0  0
  -22.3110  -14.6180   20.5420 O   0  0  0  0  0  0  0  0  0  0  0  0
  -22.3840  -12.0730   22.3790 H   0  0  0  0  0  0  0  0  0  0  0  0
  -21.0820  -13.2050   22.1600 H   0  0  0  0  0  0  0  0  0  0  0  0
  -25.3870  -15.2440   20.2240 N   0  0  0  0  0  0  0  0  0  0  0  0
  -24.6290  -15.9100   20.3280 H   0  0  0  0  0  0  0  0  0  0  0  0
  -26.2400  -15.6700   19.8880 H   0  0  0  0  0  0  0  0  0  0  0  0
  -28.7190  -22.3140   22.2900 C   0  0  0  0  0  2  0  0  0  0  0  0
  -29.3610  -23.7230   22.1290 C   0  0  0  0  0  2  0  0  0  0  0  0
  -29.4750  -24.3700   20.7060 C   0  0  0  0  0  2  0  0  0  0  0  0
  -28.3260  -25.2520   20.1040 C   0  0  0  0  0  2  0  0  0  0  0  0
  -28.4710  -26.6860   20.2120 O   0  0  0  0  0  0  0  0  0  0  0  0
  -24.6170  -31.8650   23.2210 C   0  0  0  0  0  0  0  0  0  0  0  0
  -27.3020  -27.4230   20.1670 C   0  0  0  0  0  0  0  0  0  0  0  0
  -23.4340  -30.4580   21.5670 C   0  0  0  0  0  3  0  0  0  0  0  0
  -24.9060  -28.9310   20.1560 C   0  0  0  0  0  0  0  0  0  0  0  0
  -25.9630  -30.8240   21.3980 C   0  0  0  0  0  2  0  0  0  0  0  0
  -26.0570  -29.4530   20.7570 C   0  0  0  0  0  0  0  0  0  0  0  0
  -27.2590  -28.7070   20.7580 C   0  0  0  0  0  3  0  0  0  0  0  0
  -26.1300  -26.9260   19.5470 C   0  0  0  0  0  3  0  0  0  0  0  0
  -24.9360  -27.6660   19.5490 C   0  0  0  0  0  3  0  0  0  0  0  0
  -23.6590  -29.7840   20.1890 C   0  0  0  0  0  2  0  0  0  0  0  0
  -24.6890  -31.0620   22.1210 N   0  0  0  0  0  0  0  0  0  0  0  0
  -23.5280  -32.1370   23.7460 O   0  0  0  0  0  0  0  0  0  0  0  0
  -22.7750  -29.4330   22.5190 C   0  0  0  0  0  0  0  0  0  0  0  0
  -21.4490  -29.2640   22.3910 N   0  0  0  0  0  0  0  0  0  0  0  0
  -23.4530  -28.7980   23.3300 O   0  0  0  0  0  0  0  0  0  0  0  0
  -20.9630  -29.8310   21.7120 H   0  0  0  0  0  0  0  0  0  0  0  0
  -18.0610  -28.1100   22.8930 C   0  0  0  0  0  0  0  0  0  0  0  0
  -20.6240  -28.3280   23.1540 C   0  0  0  0  0  3  0  0  0  0  0  0
  -20.7020  -26.9020   22.5580 C   0  0  0  0  0  2  0  0  0  0  0  0
  -19.5890  -26.6090   21.5470 C   0  0  0  0  0  2  0  0  0  0  0  0
  -18.2140  -26.7650   22.2020 C   0  0  0  0  0  2  0  0  0  0  0  0
  -19.1940  -28.8500   23.3270 C   0  0  0  0  0  0  0  0  0  0  0  0
  -18.9980  -30.1100   23.9330 C   0  0  0  0  0  3  0  0  0  0  0  0
  -17.7010  -30.6280   24.1140 C   0  0  0  0  0  3  0  0  0  0  0  0
  -16.5830  -29.8850   23.6970 C   0  0  0  0  0  3  0  0  0  0  0  0
  -16.7650  -28.6280   23.0930 C   0  0  0  0  0  3  0  0  0  0  0  0
  -25.8940  -32.4990   23.8560 C   0  0  0  0  0  3  0  0  0  0  0  0
  -25.5780  -33.8940   24.1830 N   0  0  0  0  0  0  0  0  0  0  0  0
  -25.9090  -34.9470   23.4230 C   0  0  0  0  0  0  0  0  0  0  0  0
  -26.5840  -34.8460   22.3950 O   0  0  0  0  0  0  0  0  0  0  0  0
  -24.9770  -34.0500   24.9810 H   0  0  0  0  0  0  0  0  0  0  0  0
  -24.1730  -36.7300   23.0570 C   0  0  0  0  0  1  0  0  0  0  0  0
  -25.4120  -36.3330   23.8770 C   0  0  0  0  0  3  0  0  0  0  0  0
  -27.5360  -37.2310   24.7210 C   0  0  0  0  0  1  0  0  0  0  0  0
  -26.4410  -37.3910   23.7680 N   0  0  0  0  0  0  0  0  0  0  0  0
  -26.0290  -38.3080   23.9100 H   0  0  0  0  0  0  0  0  0  0  0  0
  -26.4040  -31.7270   25.1330 C   0  0  1  0  0  0  0  0  0  0  0  0
  -25.3030  -31.4810   26.1920 C   0  0  0  0  0  1  0  0  0  0  0  0
  -26.9960  -30.3530   24.7420 C   0  0  0  0  0  1  0  0  0  0  0  0
  -27.5460  -32.5240   25.8070 C   0  0  0  0  0  1  0  0  0  0  0  0
  1  2  2  0
  2  3  1  0
  2 49  1  0
  3  4  1  0
  5  3  2  0
  6  1  1  0
  6  5  1  0
  9  7  1  6
  8  9  1  0
  9  6  1  0
  9 10  1  0
 11 19  1  0
 12 17  1  0
 13 14  1  0
 13 12  1  0
 15 14  1  0
 15 24  1  0
 15 16  1  0
 17 11  1  0
 17 16  1  0
 18 11  2  0
 19 10  1  0
 19 20  1  0
 21 22  2  0
 22 41  1  0
 23 22  1  0
 23 26  1  0
 24 21  1  0
 24 25  1  0
 25 23  2  0
 26 27  1  0
 27 28  2  0
 29 32  1  0
 29 28  1  0
 30 29  2  0
 31 30  1  0
 31 26  2  0
 32 33  1  0
 33 34  1  0
 34 35  2  0
 36 35  1  0
 36 40  1  0
 37 36  2  0
 38 33  2  0
 38 37  1  0
 39 38  1  0
 41 42  1  0
 42 45  1  0
 42 44  1  0
 43 41  2  0
 46 47  1  0
 46 21  1  0
 48 46  1  0
 50 49  1  0
 51 50  1  0
 52 53  1  0
 52 51  1  0
 54 65  2  0
 55 53  1  0
 55 60  1  0
 56 64  1  0
 56 66  1  0
 57 63  1  0
 57 59  1  0
 58 64  1  0
 59 60  2  0
 59 58  1  0
 61 62  1  0
 61 55  2  0
 62 57  2  0
 63 56  1  0
 64 54  1  0
 66 68  2  0
 67 66  1  0
 69 67  1  0
 70 79  2  0
 70 75  1  0
 71 67  1  0
 71 75  1  0
 72 71  1  0
 73 74  1  0
 73 72  1  0
 74 70  1  0
 75 76  2  0
 76 77  1  0
 78 77  2  0
 79 78  1  0
 80 54  1  0
 80 81  1  0
 80 90  1  0
 81 84  1  0
 82 86  1  0
 82 81  1  0
 83 82  2  0
 86 85  1  0
 88 86  1  0
 88 89  1  0
 88 87  1  0
 90 93  1  1
 90 91  1  0
 92 90  1  0
M  ISO  4  11 100  19 100  52 101  53 101
M  END
>  <TORSDO>  (82) 
F 22

>  <SCORE>  (82) 
-13.377

>  <name>  (82) 
84

>  <ligand_id>  (82) 
84

>  <original_smiles>  (82) 
[H]c1c([H])c([H])c2c(c1[H])C([H])([H])C([H])([H])C([H])([H])C2([H])N([H])C(=O)C1([H])N(C(=O)C([H])(N([H])C(=O)C([H])(N([H])C([H])([H])[H])C([H])([H])[H])C(C([H])([H])[H])(C([H])([H])[H])C([H])([H])[H])C([H])([H])c2c([H])c(OC([H])([H])C([H])([H])C([H])([H])C([H])([H])c3c(C([H])([H])[H])nn(C(C([H])([H])[H])(C([H])([H])[H])C([H])([H])N([H])C(=O)N4C([H])([H])C([H])([H])C([H])([H])C([H])(n5nc(-c6c([H])c([H])c(Oc7c([H])c([H])c(F)c([H])c7F)c([H])c6[H])c(C(=O)N([H])[H])c5N([H])[H])C4([H])[H])c3[H])c([H])c([H])c2C1([H])[H]

>  <smiles>  (82) 
[H]c1c([H])c([H])c2c(c1[H])C([H])([H])C([H])([H])C([H])([H])C2([H])N([H])C(=O)C1([H])N(C(=O)C([H])(N([H])C(=O)C([H])(N([H])C([H])([H])[H])C([H])([H])[H])C(C([H])([H])[H])(C([H])([H])[H])C([H])([H])[H])C([H])([H])c2c([H])c(OC([H])([H])C([H])([H])C([H])([H])C([H])([H])c3c(C([H])([H])[H])nn(C(C([H])([H])[H])(C([H])([H])[H])C([H])([H])N([H])C(=O)N4C([H])([H])C([H])([H])C([H])([H])C([H])(n5nc(-c6c([H])c([H])c(Oc7c([H])c([H])c(F)c([H])c7F)c([H])c6[H])c(C(=O)N([H])[H])c5N([H])[H])C4([H])[H])c3[H])c([H])c([H])c2C1([H])[H]

$$$$
85:0:0
     RDKit          3D

 99107  0  0  1  0  0  0  0  0999 V2000
  -29.7330  -21.1520   20.1490 C   0  0  0  0  0  2  0  0  0  0  0  0
  -29.1200  -22.3990   19.6870 C   0  0  0  0  0  0  0  0  0  0  0  0
  -29.1130  -20.0100   19.6400 C   0  0  0  0  0  3  0  0  0  0  0  0
  -28.1580  -21.9520   18.8040 C   0  0  0  0  0  0  0  0  0  0  0  0
  -28.0150  -20.5530   18.9410 N   0  0  0  0  0  0  0  0  0  0  0  0
  -30.2150  -23.8860   21.4560 C   0  0  0  0  0  1  0  0  0  0  0  0
  -30.5680  -24.3230   19.0040 C   0  0  0  0  0  1  0  0  0  0  0  0
  -29.5430  -23.9030   20.0650 C   0  0  1  0  0  0  0  0  0  0  0  0
  -28.4030  -25.0500   20.1250 C   0  0  0  0  0  2  0  0  0  0  0  0
  -28.6680  -26.5270   20.1230 O   0  0  0  0  0  0  0  0  0  0  0  0
  -24.6980  -31.7150   23.2960 C   0  0  0  0  0  0  0  0  0  0  0  0
  -27.5510  -27.3940   20.0900 C   0  0  0  0  0  0  0  0  0  0  0  0
  -23.6150  -30.4220   21.4980 C   0  0  0  0  0  3  0  0  0  0  0  0
  -25.1700  -28.9990   20.0520 C   0  0  0  0  0  0  0  0  0  0  0  0
  -26.1560  -30.7790   21.4860 C   0  0  0  0  0  2  0  0  0  0  0  0
  -26.2990  -29.4500   20.7500 C   0  0  0  0  0  0  0  0  0  0  0  0
  -27.4920  -28.6580   20.7640 C   0  0  0  0  0  3  0  0  0  0  0  0
  -26.4020  -27.0230   19.3490 C   0  0  0  0  0  3  0  0  0  0  0  0
  -25.2260  -27.7900   19.3490 C   0  0  0  0  0  3  0  0  0  0  0  0
  -23.9180  -29.8520   20.0900 C   0  0  0  0  0  2  0  0  0  0  0  0
  -24.8390  -30.9850   22.1530 N   0  0  0  0  0  0  0  0  0  0  0  0
  -23.5810  -31.9520   23.7780 O   0  0  0  0  0  0  0  0  0  0  0  0
  -22.9060  -29.3340   22.3410 C   0  0  0  0  0  0  0  0  0  0  0  0
  -21.5790  -29.1990   22.1660 N   0  0  0  0  0  0  0  0  0  0  0  0
  -23.5480  -28.6230   23.1170 O   0  0  0  0  0  0  0  0  0  0  0  0
  -21.1180  -29.8230   21.5200 H   0  0  0  0  0  0  0  0  0  0  0  0
  -18.1530  -28.1150   22.5710 C   0  0  0  0  0  0  0  0  0  0  0  0
  -20.7230  -28.2120   22.8250 C   0  0  0  0  0  3  0  0  0  0  0  0
  -20.7470  -26.8640   22.0700 C   0  0  0  0  0  2  0  0  0  0  0  0
  -19.6170  -26.7280   21.0440 C   0  0  0  0  0  2  0  0  0  0  0  0
  -18.2530  -26.8550   21.7280 C   0  0  0  0  0  2  0  0  0  0  0  0
  -19.3130  -28.7600   23.0740 C   0  0  0  0  0  0  0  0  0  0  0  0
  -19.1670  -29.9450   23.8270 C   0  0  0  0  0  3  0  0  0  0  0  0
  -17.8910  -30.4850   24.0810 C   0  0  0  0  0  3  0  0  0  0  0  0
  -16.7430  -29.8340   23.5950 C   0  0  0  0  0  3  0  0  0  0  0  0
  -16.8750  -28.6500   22.8460 C   0  0  0  0  0  3  0  0  0  0  0  0
  -25.9310  -32.3130   24.0390 C   0  0  0  0  0  3  0  0  0  0  0  0
  -25.6160  -33.7110   24.3680 N   0  0  0  0  0  0  0  0  0  0  0  0
  -25.9960  -34.7690   23.6400 C   0  0  0  0  0  0  0  0  0  0  0  0
  -26.7170  -34.6730   22.6440 O   0  0  0  0  0  0  0  0  0  0  0  0
  -24.9770  -33.8640   25.1350 H   0  0  0  0  0  0  0  0  0  0  0  0
  -24.2860  -36.5730   23.2490 C   0  0  0  0  0  1  0  0  0  0  0  0
  -25.5000  -36.1560   24.0940 C   0  0  0  0  0  3  0  0  0  0  0  0
  -27.6060  -37.0310   25.0000 C   0  0  0  0  0  1  0  0  0  0  0  0
  -26.5370  -37.2070   24.0200 N   0  0  0  0  0  0  0  0  0  0  0  0
  -26.1250  -38.1270   24.1610 H   0  0  0  0  0  0  0  0  0  0  0  0
  -26.3260  -31.5080   25.3370 C   0  0  1  0  0  0  0  0  0  0  0  0
  -25.1460  -31.2710   26.3080 C   0  0  0  0  0  1  0  0  0  0  0  0
  -26.9070  -30.1230   24.9660 C   0  0  0  0  0  1  0  0  0  0  0  0
  -27.4440  -32.2610   26.1000 C   0  0  0  0  0  1  0  0  0  0  0  0
  -26.2140  -18.8050   19.3260 C   0  0  0  0  0  1  0  0  0  0  0  0
  -27.1550  -19.2200   16.9830 C   0  0  0  0  0  1  0  0  0  0  0  0
  -26.8650  -19.8140   18.3670 C   0  0  0  0  0  3  0  0  0  0  0  0
  -29.2520  -18.4240   19.7570 C   0  0  0  0  0  2  0  0  0  0  0  0
  -31.7340  -18.1160   20.3100 C   0  0  0  0  0  1  0  0  0  0  0  0
  -30.5460  -17.4820   19.5700 C   0  0  0  0  0  3  0  0  0  0  0  0
  -31.0790  -14.8480   19.7270 C   0  0  0  0  0  0  0  0  0  0  0  0
  -30.8140  -12.4930   18.9300 C   0  0  0  0  0  2  0  0  0  0  0  0
  -29.8190  -12.4820   17.7490 C   0  0  0  0  0  2  0  0  0  0  0  0
  -28.3740  -12.3400   18.2610 C   0  0  0  0  0  2  0  0  0  0  0  0
  -28.0590  -13.3280   19.4170 C   0  0  0  0  0  3  0  0  0  0  0  0
  -29.1740  -13.3380   20.4900 C   0  0  0  0  0  2  0  0  0  0  0  0
  -30.4460  -13.6290   19.8120 N   0  0  0  0  0  0  0  0  0  0  0  0
  -32.2260  -14.9050   19.2800 O   0  0  0  0  0  0  0  0  0  0  0  0
  -30.3350  -16.0000   19.9560 N   0  0  0  0  0  0  0  0  0  0  0  0
  -29.4150  -15.7960   20.3130 H   0  0  0  0  0  0  0  0  0  0  0  0
  -25.7680  -13.9990   20.3580 C   0  0  0  0  0  0  0  0  0  0  0  0
  -24.6960  -13.2610   20.7740 C   0  0  0  0  0  0  0  0  0  0  0  0
  -25.0820  -11.8900   20.6440 C   0  0  0  0  0  0  0  0  0  0  0  0
  -26.7420  -13.0810   19.9980 N   0  0  0  0  0  0  0  0  0  0  0  0
  -26.3410  -11.8040   20.2320 N   0  0  0  0  0  0  0  0  0  0  0  0
  -24.3020  -10.6590   20.8300 C   0  0  0  0  0  0  0  0  0  0  0  0
  -24.7160   -9.6540   21.7320 C   0  0  0  0  0  3  0  0  0  0  0  0
  -23.9420   -8.4880   21.9080 C   0  0  0  0  0  3  0  0  0  0  0  0
  -22.7400   -8.3200   21.1820 C   0  0  0  0  0  0  0  0  0  0  0  0
  -22.3430   -9.3110   20.2670 C   0  0  0  0  0  3  0  0  0  0  0  0
  -23.1180  -10.4680   20.0900 C   0  0  0  0  0  3  0  0  0  0  0  0
  -21.9360   -7.2100   21.2690 O   0  0  0  0  0  0  0  0  0  0  0  0
  -21.8130   -6.4990   22.4340 C   0  0  0  0  0  0  0  0  0  0  0  0
  -21.3610   -7.1010   23.6300 C   0  0  0  0  0  3  0  0  0  0  0  0
  -21.1850   -6.3180   24.7880 C   0  0  0  0  0  3  0  0  0  0  0  0
  -21.4490   -4.9360   24.7520 C   0  0  0  0  0  0  0  0  0  0  0  0
  -21.8900   -4.3350   23.5610 C   0  0  0  0  0  3  0  0  0  0  0  0
  -22.0670   -5.1130   22.4060 C   0  0  0  0  0  0  0  0  0  0  0  0
  -22.4750   -4.5240   21.2550 F   0  0  0  0  0  0  0  0  0  0  0  0
  -21.2680   -4.1830   25.8620 F   0  0  0  0  0  0  0  0  0  0  0  0
  -23.3520  -13.7940   21.1770 C   0  0  0  0  0  0  0  0  0  0  0  0
  -22.6630  -13.1010   22.0740 N   0  0  0  0  0  0  0  0  0  0  0  0
  -22.9220  -14.8560   20.7250 O   0  0  0  0  0  0  0  0  0  0  0  0
  -23.0270  -12.2430   22.4590 H   0  0  0  0  0  0  0  0  0  0  0  0
  -21.7620  -13.4360   22.3840 H   0  0  0  0  0  0  0  0  0  0  0  0
  -25.9880  -15.3670   20.2290 N   0  0  0  0  0  0  0  0  0  0  0  0
  -25.2490  -16.0360   20.4140 H   0  0  0  0  0  0  0  0  0  0  0  0
  -26.8040  -15.7810   19.7940 H   0  0  0  0  0  0  0  0  0  0  0  0
  -27.2910  -22.6930   17.7940 C   0  0  0  0  0  3  0  0  0  0  0  0
  -26.0630  -23.4220   18.3810 C   0  0  0  0  0  3  0  0  0  0  0  0
  -23.8480  -24.6080   18.0960 C   0  0  0  0  0  1  0  0  0  0  0  0
  -25.6150  -24.9950   16.3630 C   0  0  0  0  0  1  0  0  0  0  0  0
  -25.0400  -23.9760   17.3610 C   0  0  0  0  0  3  0  0  0  0  0  0
  2  8  1  0
  2  1  1  0
  3 54  1  0
  3  1  1  0
  4  5  1  0
  4  2  2  0
  5  3  1  0
  8  7  1  6
  8  9  1  0
  8  6  1  0
 10  9  1  0
 11 22  2  0
 12 10  1  0
 12 17  1  0
 13 21  1  0
 13 23  1  0
 14 20  1  0
 14 16  1  0
 15 21  1  0
 16 17  2  0
 16 15  1  0
 18 19  1  0
 18 12  2  0
 19 14  2  0
 20 13  1  0
 21 11  1  0
 23 25  2  0
 24 23  1  0
 26 24  1  0
 27 36  2  0
 27 32  1  0
 28 24  1  0
 28 32  1  0
 29 28  1  0
 30 31  1  0
 30 29  1  0
 31 27  1  0
 32 33  2  0
 33 34  1  0
 35 34  2  0
 36 35  1  0
 37 11  1  0
 37 38  1  0
 37 47  1  0
 38 41  1  0
 39 43  1  0
 39 38  1  0
 40 39  2  0
 43 42  1  0
 45 43  1  0
 45 46  1  0
 45 44  1  0
 47 50  1  1
 47 48  1  0
 49 47  1  0
 52 53  1  0
 53  5  1  0
 53 51  1  0
 56 54  1  0
 56 65  1  0
 56 55  1  0
 57 63  1  0
 57 65  1  0
 58 63  1  0
 59 60  1  0
 59 58  1  0
 61 60  1  0
 61 70  1  0
 61 62  1  0
 63 62  1  0
 64 57  2  0
 65 66  1  0
 67 68  2  0
 68 87  1  0
 69 68  1  0
 69 72  1  0
 70 71  1  0
 70 67  1  0
 71 69  2  0
 72 73  1  0
 73 74  2  0
 75 78  1  0
 75 74  1  0
 76 75  2  0
 77 76  1  0
 77 72  2  0
 78 79  1  0
 79 80  1  0
 80 81  2  0
 82 81  1  0
 82 86  1  0
 83 82  2  0
 84 79  2  0
 84 83  1  0
 85 84  1  0
 87 88  1  0
 88 91  1  0
 88 90  1  0
 89 87  2  0
 92 67  1  0
 92 93  1  0
 94 92  1  0
 95 96  2  0
 95  4  1  0
 98 99  1  0
 99 97  1  0
 99 96  1  0
M  ISO  4   9 101  10 101  57 100  65 100
M  END
>  <TORSDO>  (83) 
F 24

>  <SCORE>  (83) 
-11.804

>  <name>  (83) 
85

>  <ligand_id>  (83) 
85

>  <original_smiles>  (83) 
[H]c1c([H])c([H])c2c(c1[H])C([H])([H])C([H])([H])C([H])([H])C2([H])N([H])C(=O)C1([H])N(C(=O)C([H])(N([H])C(=O)C([H])(N([H])C([H])([H])[H])C([H])([H])[H])C(C([H])([H])[H])(C([H])([H])[H])C([H])([H])[H])C([H])([H])c2c([H])c(OC([H])([H])C(c3c([H])c(C([H])([H])C([H])(N([H])C(=O)N4C([H])([H])C([H])([H])C([H])([H])C([H])(n5nc(-c6c([H])c([H])c(Oc7c([H])c([H])c(F)c([H])c7F)c([H])c6[H])c(C(=O)N([H])[H])c5N([H])[H])C4([H])[H])C([H])([H])[H])n(C([H])(C([H])([H])[H])C([H])([H])[H])c3C([H])([H])C([H])([H])C([H])(C([H])([H])[H])C([H])([H])[H])(C([H])([H])[H])C([H])([H])[H])c([H])c([H])c2C1([H])[H]

>  <smiles>  (83) 
[H]c1c([H])c([H])c2c(c1[H])C([H])([H])C([H])([H])C([H])([H])C2([H])N([H])C(=O)C1([H])N(C(=O)C([H])(N([H])C(=O)C([H])(N([H])C([H])([H])[H])C([H])([H])[H])C(C([H])([H])[H])(C([H])([H])[H])C([H])([H])[H])C([H])([H])c2c([H])c(OC([H])([H])C(c3c([H])c(C([H])([H])C([H])(N([H])C(=O)N4C([H])([H])C([H])([H])C([H])([H])C([H])(n5nc(-c6c([H])c([H])c(Oc7c([H])c([H])c(F)c([H])c7F)c([H])c6[H])c(C(=O)N([H])[H])c5N([H])[H])C4([H])[H])C([H])([H])[H])n(C([H])(C([H])([H])[H])C([H])([H])[H])c3C([H])([H])C([H])([H])C([H])(C([H])([H])[H])C([H])([H])[H])(C([H])([H])[H])C([H])([H])[H])c([H])c([H])c2C1([H])[H]

$$$$
86:0:0
     RDKit          3D

 95103  0  0  1  0  0  0  0  0999 V2000
  -31.2950  -23.0030   20.2750 C   0  0  0  0  0  3  0  0  0  0  0  0
  -29.3040  -21.8970   19.4950 C   0  0  0  0  0  3  0  0  0  0  0  0
  -29.9900  -23.1100   19.7540 C   0  0  0  0  0  0  0  0  0  0  0  0
  -31.8540  -21.7280   20.4860 C   0  0  0  0  0  0  0  0  0  0  0  0
  -29.9490  -20.6480   19.6970 C   0  0  0  0  0  0  0  0  0  0  0  0
  -33.2280  -21.5830   21.1010 C   0  0  0  0  0  1  0  0  0  0  0  0
  -31.2230  -20.5830   20.1520 N   0  0  0  0  0  0  0  0  0  0  0  0
  -29.7570  -19.0820   17.7260 C   0  0  0  0  0  1  0  0  0  0  0  0
  -29.3050  -19.3380   19.1780 C   0  0  0  0  0  3  0  0  0  0  0  0
  -29.8290  -18.2380   21.5210 C   0  0  0  0  0  1  0  0  0  0  0  0
  -27.7450  -17.6530   20.2750 C   0  0  0  0  0  1  0  0  0  0  0  0
  -29.2390  -18.0320   20.1080 C   0  0  1  0  0  0  0  0  0  0  0  0
  -30.0040  -16.8040   19.5000 C   0  0  0  0  0  2  0  0  0  0  0  0
  -30.6550  -14.4720   20.0620 C   0  0  0  0  0  0  0  0  0  0  0  0
  -30.3190  -12.2870   19.0110 C   0  0  0  0  0  2  0  0  0  0  0  0
  -29.3430  -12.5070   17.8340 C   0  0  0  0  0  2  0  0  0  0  0  0
  -27.8840  -12.3780   18.3140 C   0  0  0  0  0  2  0  0  0  0  0  0
  -27.5930  -13.2320   19.5760 C   0  0  0  0  0  3  0  0  0  0  0  0
  -28.6810  -13.0250   20.6540 C   0  0  0  0  0  2  0  0  0  0  0  0
  -29.9940  -13.2870   20.0390 N   0  0  0  0  0  0  0  0  0  0  0  0
  -31.8070  -14.6140   19.6440 O   0  0  0  0  0  0  0  0  0  0  0  0
  -29.8610  -15.5410   20.2530 N   0  0  0  0  0  0  0  0  0  0  0  0
  -28.9440  -15.3480   20.6250 H   0  0  0  0  0  0  0  0  0  0  0  0
  -25.2280  -13.8590   20.3700 C   0  0  0  0  0  0  0  0  0  0  0  0
  -24.1670  -13.0940   20.7810 C   0  0  0  0  0  0  0  0  0  0  0  0
  -24.6200  -11.7400   20.7400 C   0  0  0  0  0  0  0  0  0  0  0  0
  -26.2570  -12.9700   20.1070 N   0  0  0  0  0  0  0  0  0  0  0  0
  -25.8970  -11.6910   20.3850 N   0  0  0  0  0  0  0  0  0  0  0  0
  -23.8940  -10.4840   20.9560 C   0  0  0  0  0  0  0  0  0  0  0  0
  -24.3460   -9.5220   21.8850 C   0  0  0  0  0  3  0  0  0  0  0  0
  -23.6200   -8.3280   22.0880 C   0  0  0  0  0  3  0  0  0  0  0  0
  -22.4290   -8.0910   21.3620 C   0  0  0  0  0  0  0  0  0  0  0  0
  -21.9980   -9.0410   20.4210 C   0  0  0  0  0  3  0  0  0  0  0  0
  -22.7230  -10.2250   20.2150 C   0  0  0  0  0  3  0  0  0  0  0  0
  -21.6730   -6.9480   21.4760 O   0  0  0  0  0  0  0  0  0  0  0  0
  -21.6410   -6.2200   22.6370 C   0  0  0  0  0  0  0  0  0  0  0  0
  -21.2470   -6.7930   23.8660 C   0  0  0  0  0  3  0  0  0  0  0  0
  -21.1610   -5.9900   25.0210 C   0  0  0  0  0  3  0  0  0  0  0  0
  -21.4580   -4.6160   24.9500 C   0  0  0  0  0  0  0  0  0  0  0  0
  -21.8460   -4.0420   23.7240 C   0  0  0  0  0  3  0  0  0  0  0  0
  -21.9340   -4.8420   22.5710 C   0  0  0  0  0  0  0  0  0  0  0  0
  -22.2870   -4.2810   21.3900 F   0  0  0  0  0  0  0  0  0  0  0  0
  -21.3690   -3.8430   26.0560 F   0  0  0  0  0  0  0  0  0  0  0  0
  -22.7840  -13.5830   21.1000 C   0  0  0  0  0  0  0  0  0  0  0  0
  -22.0850  -12.8920   21.9960 N   0  0  0  0  0  0  0  0  0  0  0  0
  -22.3330  -14.6080   20.5930 O   0  0  0  0  0  0  0  0  0  0  0  0
  -22.4680  -12.0670   22.4320 H   0  0  0  0  0  0  0  0  0  0  0  0
  -21.1550  -13.1920   22.2480 H   0  0  0  0  0  0  0  0  0  0  0  0
  -25.3940  -15.2240   20.1790 N   0  0  0  0  0  0  0  0  0  0  0  0
  -24.6280  -15.8830   20.2790 H   0  0  0  0  0  0  0  0  0  0  0  0
  -26.2370  -15.6500   19.8200 H   0  0  0  0  0  0  0  0  0  0  0  0
  -29.4340  -24.4920   19.3560 C   0  0  0  0  0  2  0  0  0  0  0  0
  -28.5750  -24.8790   21.7710 C   0  0  0  0  0  1  0  0  0  0  0  0
  -28.3900  -25.1980   20.2820 C   0  0  0  0  0  3  0  0  0  0  0  0
  -28.4440  -26.6460   20.1200 O   0  0  0  0  0  0  0  0  0  0  0  0
  -24.6370  -31.8690   23.2260 C   0  0  0  0  0  0  0  0  0  0  0  0
  -27.2660  -27.3830   20.1280 C   0  0  0  0  0  0  0  0  0  0  0  0
  -23.4310  -30.4640   21.5890 C   0  0  0  0  0  3  0  0  0  0  0  0
  -24.8810  -28.9240   20.1520 C   0  0  0  0  0  0  0  0  0  0  0  0
  -25.9610  -30.8080   21.3890 C   0  0  0  0  0  2  0  0  0  0  0  0
  -26.0420  -29.4310   20.7470 C   0  0  0  0  0  0  0  0  0  0  0  0
  -27.2370  -28.6660   20.7340 C   0  0  0  0  0  3  0  0  0  0  0  0
  -26.0860  -26.9070   19.5140 C   0  0  0  0  0  3  0  0  0  0  0  0
  -24.8990  -27.6640   19.5310 C   0  0  0  0  0  3  0  0  0  0  0  0
  -23.6390  -29.7900   20.2060 C   0  0  0  0  0  2  0  0  0  0  0  0
  -24.6950  -31.0610   22.1270 N   0  0  0  0  0  0  0  0  0  0  0  0
  -23.5580  -32.1470   23.7660 O   0  0  0  0  0  0  0  0  0  0  0  0
  -22.7770  -29.4470   22.5490 C   0  0  0  0  0  0  0  0  0  0  0  0
  -21.4490  -29.2820   22.4370 N   0  0  0  0  0  0  0  0  0  0  0  0
  -23.4590  -28.8070   23.3530 O   0  0  0  0  0  0  0  0  0  0  0  0
  -20.9580  -29.8600   21.7670 H   0  0  0  0  0  0  0  0  0  0  0  0
  -18.0710  -28.0980   22.9510 C   0  0  0  0  0  0  0  0  0  0  0  0
  -20.6320  -28.3430   23.2100 C   0  0  0  0  0  3  0  0  0  0  0  0
  -20.7270  -26.9130   22.6300 C   0  0  0  0  0  2  0  0  0  0  0  0
  -19.6170  -26.5960   21.6200 C   0  0  0  0  0  2  0  0  0  0  0  0
  -18.2390  -26.7480   22.2720 C   0  0  0  0  0  2  0  0  0  0  0  0
  -19.1970  -28.8520   23.3770 C   0  0  0  0  0  0  0  0  0  0  0  0
  -18.9900  -30.1120   23.9760 C   0  0  0  0  0  3  0  0  0  0  0  0
  -17.6900  -30.6210   24.1520 C   0  0  0  0  0  3  0  0  0  0  0  0
  -16.5790  -29.8630   23.7450 C   0  0  0  0  0  3  0  0  0  0  0  0
  -16.7700  -28.6060   23.1490 C   0  0  0  0  0  3  0  0  0  0  0  0
  -25.9250  -32.4990   23.8420 C   0  0  0  0  0  3  0  0  0  0  0  0
  -25.6130  -33.8950   24.1830 N   0  0  0  0  0  0  0  0  0  0  0  0
  -25.9360  -34.9550   23.4300 C   0  0  0  0  0  0  0  0  0  0  0  0
  -26.5990  -34.8630   22.3930 O   0  0  0  0  0  0  0  0  0  0  0  0
  -25.0120  -34.0380   24.9800 H   0  0  0  0  0  0  0  0  0  0  0  0
  -24.1980  -36.7500   23.1050 C   0  0  0  0  0  1  0  0  0  0  0  0
  -25.4470  -36.3380   23.8990 C   0  0  0  0  0  3  0  0  0  0  0  0
  -27.5900  -37.2290   24.7060 C   0  0  0  0  0  1  0  0  0  0  0  0
  -26.4750  -37.3950   23.7770 N   0  0  0  0  0  0  0  0  0  0  0  0
  -26.0690  -38.3140   23.9340 H   0  0  0  0  0  0  0  0  0  0  0  0
  -26.4540  -31.7210   25.1070 C   0  0  1  0  0  0  0  0  0  0  0  0
  -25.3710  -31.4700   26.1850 C   0  0  0  0  0  1  0  0  0  0  0  0
  -27.0410  -30.3500   24.6970 C   0  0  0  0  0  1  0  0  0  0  0  0
  -27.6090  -32.5140   25.7660 C   0  0  0  0  0  1  0  0  0  0  0  0
  1  4  1  0
  2  5  2  0
  2  3  1  0
  3  1  2  0
  4  6  1  0
  5  7  1  0
  7  4  2  0
  9  8  1  0
  9  5  1  0
  9 12  1  0
 12 11  1  1
 12 10  1  0
 13 12  1  0
 13 22  1  0
 14 22  1  0
 15 20  1  0
 16 17  1  0
 16 15  1  0
 18 17  1  0
 18 27  1  0
 18 19  1  0
 20 14  1  0
 20 19  1  0
 21 14  2  0
 22 23  1  0
 24 25  2  0
 25 44  1  0
 26 25  1  0
 26 29  1  0
 27 24  1  0
 27 28  1  0
 28 26  2  0
 29 30  1  0
 30 31  2  0
 32 35  1  0
 32 31  1  0
 33 32  2  0
 34 33  1  0
 34 29  2  0
 35 36  1  0
 36 37  1  0
 37 38  2  0
 39 38  1  0
 39 43  1  0
 40 39  2  0
 41 36  2  0
 41 40  1  0
 42 41  1  0
 44 45  1  0
 45 48  1  0
 45 47  1  0
 46 44  2  0
 49 50  1  0
 49 24  1  0
 51 49  1  0
 52  3  1  0
 52 54  1  0
 54 53  1  0
 55 57  1  0
 55 54  1  0
 56 67  2  0
 57 62  1  0
 58 66  1  0
 58 68  1  0
 59 65  1  0
 59 61  1  0
 60 66  1  0
 61 60  1  0
 62 61  2  0
 63 64  1  0
 63 57  2  0
 64 59  2  0
 65 58  1  0
 66 56  1  0
 68 70  2  0
 69 68  1  0
 71 69  1  0
 72 81  2  0
 72 77  1  0
 73 69  1  0
 73 77  1  0
 74 73  1  0
 75 76  1  0
 75 74  1  0
 76 72  1  0
 77 78  2  0
 78 79  1  0
 80 79  2  0
 81 80  1  0
 82 56  1  0
 82 83  1  0
 82 92  1  0
 83 86  1  0
 84 88  1  0
 84 83  1  0
 85 84  2  0
 88 87  1  0
 90 88  1  0
 90 91  1  0
 90 89  1  0
 92 95  1  1
 92 93  1  0
 94 92  1  0
M  ISO  4  14 100  22 100  54 101  55 101
M  END
>  <TORSDO>  (84) 
F 21

>  <SCORE>  (84) 
-13.398

>  <name>  (84) 
86

>  <ligand_id>  (84) 
86

>  <original_smiles>  (84) 
[H]c1c([H])c([H])c2c(c1[H])C([H])([H])C([H])([H])C([H])([H])C2([H])N([H])C(=O)C1([H])N(C(=O)C([H])(N([H])C(=O)C([H])(N([H])C([H])([H])[H])C([H])([H])[H])C(C([H])([H])[H])(C([H])([H])[H])C([H])([H])[H])C([H])([H])c2c([H])c(OC([H])(C([H])([H])[H])C([H])([H])c3c([H])c(C([H])([H])[H])nc(C([H])(C([H])([H])[H])C(C([H])([H])[H])(C([H])([H])[H])C([H])([H])N([H])C(=O)N4C([H])([H])C([H])([H])C([H])([H])C([H])(n5nc(-c6c([H])c([H])c(Oc7c([H])c([H])c(F)c([H])c7F)c([H])c6[H])c(C(=O)N([H])[H])c5N([H])[H])C4([H])[H])c3[H])c([H])c([H])c2C1([H])[H]

>  <smiles>  (84) 
[H]c1c([H])c([H])c2c(c1[H])C([H])([H])C([H])([H])C([H])([H])C2([H])N([H])C(=O)C1([H])N(C(=O)C([H])(N([H])C(=O)C([H])(N([H])C([H])([H])[H])C([H])([H])[H])C(C([H])([H])[H])(C([H])([H])[H])C([H])([H])[H])C([H])([H])c2c([H])c(OC([H])(C([H])([H])[H])C([H])([H])c3c([H])c(C([H])([H])[H])nc(C([H])(C([H])([H])[H])C(C([H])([H])[H])(C([H])([H])[H])C([H])([H])N([H])C(=O)N4C([H])([H])C([H])([H])C([H])([H])C([H])(n5nc(-c6c([H])c([H])c(Oc7c([H])c([H])c(F)c([H])c7F)c([H])c6[H])c(C(=O)N([H])[H])c5N([H])[H])C4([H])[H])c3[H])c([H])c([H])c2C1([H])[H]

$$$$
87:0:0
     RDKit          3D

 97105  0  0  1  0  0  0  0  0999 V2000
  -31.3210  -20.2800   19.5690 C   0  0  0  0  0  3  0  0  0  0  0  0
  -30.8690  -21.6990   21.1890 C   0  0  0  0  0  3  0  0  0  0  0  0
  -30.5300  -21.4140   19.8940 C   0  0  0  0  0  0  0  0  0  0  0  0
  -32.0450  -19.8670   20.6610 C   0  0  0  0  0  0  0  0  0  0  0  0
  -31.7110  -20.7320   21.7320 N   0  0  0  0  0  0  0  0  0  0  0  0
  -31.6880  -22.0460   23.9070 C   0  0  0  0  0  1  0  0  0  0  0  0
  -33.5690  -20.5180   23.4180 C   0  0  0  0  0  1  0  0  0  0  0  0
  -31.2710  -19.6300   23.9140 C   0  0  0  0  0  1  0  0  0  0  0  0
  -32.0650  -20.7200   23.1870 C   0  0  2  0  0  0  0  0  0  0  0  0
  -28.5750  -20.9640   18.4890 C   0  0  0  0  0  1  0  0  0  0  0  0
  -28.5320  -22.9340   20.0130 C   0  0  0  0  0  1  0  0  0  0  0  0
  -29.4380  -22.1050   19.0690 C   0  0  1  0  0  0  0  0  0  0  0  0
  -30.0020  -23.0360   17.9280 C   0  0  0  0  0  2  0  0  0  0  0  0
  -28.9610  -24.0840   17.4240 C   0  0  0  0  0  2  0  0  0  0  0  0
  -29.3640  -25.3780   16.6630 C   0  0  0  0  0  2  0  0  0  0  0  0
  -28.1070  -26.2870   16.6500 C   0  0  0  0  0  2  0  0  0  0  0  0
  -28.2080  -27.7210   16.8040 O   0  0  0  0  0  0  0  0  0  0  0  0
  -24.5080  -29.5580   22.6060 C   0  0  0  0  0  0  0  0  0  0  0  0
  -27.0280  -28.2610   17.2930 C   0  0  0  0  0  0  0  0  0  0  0  0
  -23.1980  -29.2880   20.5290 C   0  0  0  0  0  3  0  0  0  0  0  0
  -24.5560  -29.1370   18.3750 C   0  0  0  0  0  0  0  0  0  0  0  0
  -25.6530  -30.0150   20.4380 C   0  0  0  0  0  2  0  0  0  0  0  0
  -25.7470  -29.3400   19.0860 C   0  0  0  0  0  0  0  0  0  0  0  0
  -26.9840  -28.9160   18.5480 C   0  0  0  0  0  3  0  0  0  0  0  0
  -25.8150  -28.1020   16.5800 C   0  0  0  0  0  3  0  0  0  0  0  0
  -24.5860  -28.5210   17.1150 C   0  0  0  0  0  3  0  0  0  0  0  0
  -23.2730  -29.6170   19.0160 C   0  0  0  0  0  2  0  0  0  0  0  0
  -24.4770  -29.6010   21.2440 N   0  0  0  0  0  0  0  0  0  0  0  0
  -23.4880  -29.3060   23.2630 O   0  0  0  0  0  0  0  0  0  0  0  0
  -22.7420  -27.8200   20.6960 C   0  0  0  0  0  0  0  0  0  0  0  0
  -21.4500  -27.5610   20.4300 N   0  0  0  0  0  0  0  0  0  0  0  0
  -23.5430  -26.9430   21.0310 O   0  0  0  0  0  0  0  0  0  0  0  0
  -20.8600  -28.3380   20.1640 H   0  0  0  0  0  0  0  0  0  0  0  0
  -18.3400  -25.8150   19.8420 C   0  0  0  0  0  0  0  0  0  0  0  0
  -20.8060  -26.2480   20.4830 C   0  0  0  0  0  3  0  0  0  0  0  0
  -21.1720  -25.4000   19.2450 C   0  0  0  0  0  2  0  0  0  0  0  0
  -20.1570  -25.5270   18.1040 C   0  0  0  0  0  2  0  0  0  0  0  0
  -18.7640  -25.0960   18.5720 C   0  0  0  0  0  2  0  0  0  0  0  0
  -19.2980  -26.3710   20.7310 C   0  0  0  0  0  0  0  0  0  0  0  0
  -18.8500  -27.0590   21.8780 C   0  0  0  0  0  3  0  0  0  0  0  0
  -17.4750  -27.1940   22.1460 C   0  0  0  0  0  3  0  0  0  0  0  0
  -16.5300  -26.6290   21.2710 C   0  0  0  0  0  3  0  0  0  0  0  0
  -16.9630  -25.9370   20.1260 C   0  0  0  0  0  3  0  0  0  0  0  0
  -25.8160  -29.8470   23.4030 C   0  0  0  0  0  3  0  0  0  0  0  0
  -25.6140  -31.1000   24.1450 N   0  0  0  0  0  0  0  0  0  0  0  0
  -26.2230  -32.2590   23.8570 C   0  0  0  0  0  0  0  0  0  0  0  0
  -27.0770  -32.3650   22.9720 O   0  0  0  0  0  0  0  0  0  0  0  0
  -24.8890  -31.0970   24.8460 H   0  0  0  0  0  0  0  0  0  0  0  0
  -24.9340  -34.4170   23.8280 C   0  0  0  0  0  1  0  0  0  0  0  0
  -25.8200  -33.4960   24.6820 C   0  0  0  0  0  3  0  0  0  0  0  0
  -27.7180  -33.5420   26.2380 C   0  0  0  0  0  1  0  0  0  0  0  0
  -26.9780  -34.2570   25.2020 N   0  0  0  0  0  0  0  0  0  0  0  0
  -26.6800  -35.1510   25.5830 H   0  0  0  0  0  0  0  0  0  0  0  0
  -26.2170  -28.6770   24.3840 C   0  0  1  0  0  0  0  0  0  0  0  0
  -25.0700  -28.2350   25.3250 C   0  0  0  0  0  1  0  0  0  0  0  0
  -26.6800  -27.4350   23.5870 C   0  0  0  0  0  1  0  0  0  0  0  0
  -27.4160  -29.1150   25.2560 C   0  0  0  0  0  1  0  0  0  0  0  0
  -34.2490  -18.7860   21.4970 C   0  0  0  0  0  1  0  0  0  0  0  0
  -32.9930  -18.6760   20.6070 C   0  0  0  0  0  0  0  0  0  0  0  0
  -32.8030  -16.2480   19.9660 C   0  0  0  0  0  0  0  0  0  0  0  0
  -32.4310  -13.8330   19.5300 C   0  0  0  0  0  2  0  0  0  0  0  0
  -31.5890  -13.5670   18.2650 C   0  0  0  0  0  2  0  0  0  0  0  0
  -30.0830  -13.6350   18.5820 C   0  0  0  0  0  2  0  0  0  0  0  0
  -29.7140  -14.9210   19.3550 C   0  0  0  0  0  3  0  0  0  0  0  0
  -30.6390  -15.1030   20.5730 C   0  0  0  0  0  2  0  0  0  0  0  0
  -32.0380  -15.1330   20.1100 N   0  0  0  0  0  0  0  0  0  0  0  0
  -33.8620  -16.2400   19.3220 O   0  0  0  0  0  0  0  0  0  0  0  0
  -32.3660  -17.3470   20.6240 N   0  0  0  0  0  4  0  0  0  0  0  0
  -31.5010  -17.2570   21.1430 H   0  0  0  0  0  0  0  0  0  0  0  0
  -27.4570  -15.9880   19.9760 C   0  0  0  0  0  0  0  0  0  0  0  0
  -26.2390  -15.4350   20.2920 C   0  0  0  0  0  0  0  0  0  0  0  0
  -26.4260  -14.0240   20.2570 C   0  0  0  0  0  0  0  0  0  0  0  0
  -28.3130  -14.9200   19.7710 N   0  0  0  0  0  0  0  0  0  0  0  0
  -27.6930  -13.7350   19.9950 N   0  0  0  0  0  0  0  0  0  0  0  0
  -25.4580  -12.9260   20.3960 C   0  0  0  0  0  0  0  0  0  0  0  0
  -25.7400  -11.8010   21.1990 C   0  0  0  0  0  3  0  0  0  0  0  0
  -24.7920  -10.7640   21.3270 C   0  0  0  0  0  3  0  0  0  0  0  0
  -23.5450  -10.8560   20.6660 C   0  0  0  0  0  0  0  0  0  0  0  0
  -23.2790  -11.9680   19.8520 C   0  0  0  0  0  3  0  0  0  0  0  0
  -24.2290  -12.9940   19.7120 C   0  0  0  0  0  3  0  0  0  0  0  0
  -22.5750   -9.8830   20.7140 O   0  0  0  0  0  0  0  0  0  0  0  0
  -22.4710   -9.0170   21.7730 C   0  0  0  0  0  0  0  0  0  0  0  0
  -22.3620   -9.4770   23.1030 C   0  0  0  0  0  3  0  0  0  0  0  0
  -22.1940   -8.5510   24.1530 C   0  0  0  0  0  3  0  0  0  0  0  0
  -22.1140   -7.1770   23.8750 C   0  0  0  0  0  0  0  0  0  0  0  0
  -22.2140   -6.7180   22.5470 C   0  0  0  0  0  3  0  0  0  0  0  0
  -22.3870   -7.6370   21.4980 C   0  0  0  0  0  0  0  0  0  0  0  0
  -22.4610   -7.1920   20.2190 F   0  0  0  0  0  0  0  0  0  0  0  0
  -21.9450   -6.2870   24.8830 F   0  0  0  0  0  0  0  0  0  0  0  0
  -24.9500  -16.1770   20.5020 C   0  0  0  0  0  0  0  0  0  0  0  0
  -24.0440  -15.6340   21.3110 N   0  0  0  0  0  0  0  0  0  0  0  0
  -24.7610  -17.2750   19.9860 O   0  0  0  0  0  0  0  0  0  0  0  0
  -24.1900  -14.7310   21.7370 H   0  0  0  0  0  0  0  0  0  0  0  0
  -23.1770  -16.1240   21.4860 H   0  0  0  0  0  0  0  0  0  0  0  0
  -27.8940  -17.2970   19.8300 N   0  0  0  0  0  0  0  0  0  0  0  0
  -27.2540  -18.0790   19.8920 H   0  0  0  0  0  0  0  0  0  0  0  0
  -28.8250  -17.5630   19.5340 H   0  0  0  0  0  0  0  0  0  0  0  0
  1  3  1  0
  1  4  2  0
  2  5  1  0
  3  2  2  0
  4  5  1  0
  5  9  1  0
  9  7  1  6
  9  6  1  0
  9  8  1  0
 12 10  1  6
 12  3  1  0
 12 11  1  0
 13 12  1  0
 14 13  1  0
 15 14  1  0
 16 15  1  0
 16 17  1  0
 17 19  1  0
 18 29  2  0
 19 24  1  0
 20 30  1  0
 20 28  1  0
 21 27  1  0
 21 23  1  0
 22 28  1  0
 23 22  1  0
 24 23  2  0
 25 26  1  0
 25 19  2  0
 26 21  2  0
 27 20  1  0
 28 18  1  0
 30 32  2  0
 31 30  1  0
 33 31  1  0
 34 43  2  0
 34 39  1  0
 35 31  1  0
 35 39  1  0
 36 35  1  0
 37 38  1  0
 37 36  1  0
 38 34  1  0
 39 40  2  0
 40 41  1  0
 42 41  2  0
 43 42  1  0
 44 18  1  0
 44 45  1  0
 44 54  1  0
 45 48  1  0
 46 45  1  0
 46 50  1  0
 47 46  2  0
 50 49  1  0
 50 52  1  0
 52 53  1  0
 52 51  1  0
 54 57  1  1
 54 55  1  0
 56 54  1  0
 59 68  2  0
 59  4  1  0
 59 58  1  0
 60 66  1  0
 60 68  1  0
 61 66  1  0
 62 63  1  0
 62 61  1  0
 64 63  1  0
 64 73  1  0
 64 65  1  0
 66 65  1  0
 67 60  2  0
 68 69  1  0
 70 71  2  0
 71 90  1  0
 72 71  1  0
 72 75  1  0
 73 70  1  0
 73 74  1  0
 74 72  2  0
 75 76  1  0
 76 77  2  0
 78 81  1  0
 78 77  1  0
 79 78  2  0
 80 79  1  0
 80 75  2  0
 81 82  1  0
 82 83  1  0
 83 84  2  0
 85 84  1  0
 85 89  1  0
 86 85  2  0
 87 82  2  0
 87 86  1  0
 88 87  1  0
 90 91  1  0
 91 94  1  0
 91 93  1  0
 92 90  2  0
 95 96  1  0
 95 70  1  0
 97 95  1  0
M  ISO  4  16 101  17 101  60 100  68 100
M  END
>  <TORSDO>  (85) 
F 23

>  <SCORE>  (85) 
-3.655

>  <name>  (85) 
87

>  <ligand_id>  (85) 
87

>  <original_smiles>  (85) 
[H]c1c([H])c([H])c2c(c1[H])C([H])([H])C([H])([H])C([H])([H])C2([H])N([H])C(=O)C1([H])N(C(=O)C([H])(N([H])C(=O)C([H])(N([H])C([H])([H])[H])C([H])([H])[H])C(C([H])([H])[H])(C([H])([H])[H])C([H])([H])[H])C([H])([H])c2c([H])c(OC([H])([H])C([H])([H])C([H])([H])C([H])([H])C(c3c([H])c(C([H])(N([H])C(=O)N4C([H])([H])C([H])([H])C([H])([H])C([H])(n5nc(-c6c([H])c([H])c(Oc7c([H])c([H])c(F)c([H])c7F)c([H])c6[H])c(C(=O)N([H])[H])c5N([H])[H])C4([H])[H])C([H])([H])[H])n(C(C([H])([H])[H])(C([H])([H])[H])C([H])([H])[H])c3[H])(C([H])([H])[H])C([H])([H])[H])c([H])c([H])c2C1([H])[H]

>  <smiles>  (85) 
[H]c1c([H])c([H])c2c(c1[H])C([H])([H])C([H])([H])C([H])([H])C2([H])N([H])C(=O)C1([H])N(C(=O)C([H])(N([H])C(=O)C([H])(N([H])C([H])([H])[H])C([H])([H])[H])C(C([H])([H])[H])(C([H])([H])[H])C([H])([H])[H])C([H])([H])c2c([H])c(OC([H])([H])C([H])([H])C([H])([H])C([H])([H])C(c3c([H])c(C([H])(N([H])C(=O)N4C([H])([H])C([H])([H])C([H])([H])C([H])(n5nc(-c6c([H])c([H])c(Oc7c([H])c([H])c(F)c([H])c7F)c([H])c6[H])c(C(=O)N([H])[H])c5N([H])[H])C4([H])[H])C([H])([H])[H])n(C(C([H])([H])[H])(C([H])([H])[H])C([H])([H])[H])c3[H])(C([H])([H])[H])C([H])([H])[H])c([H])c([H])c2C1([H])[H]

$$$$
88:0:0
     RDKit          3D

 90 98  0  0  1  0  0  0  0  0999 V2000
  -29.9340  -21.0230   17.6160 C   0  0  0  0  0  3  0  0  0  0  0  0
  -29.6630  -22.2480   18.2590 C   0  0  0  0  0  0  0  0  0  0  0  0
  -29.2500  -21.9440   19.5450 C   0  0  0  0  0  0  0  0  0  0  0  0
  -29.8640  -23.5680   17.5580 C   0  0  0  0  0  1  0  0  0  0  0  0
  -29.7940  -19.9980   18.4060 N   0  0  0  0  0  0  0  0  0  0  0  0
  -29.4460  -20.4400   19.6360 N   0  0  0  0  0  0  0  0  0  0  0  0
  -30.1240  -23.6820   21.2430 C   0  0  0  0  0  1  0  0  0  0  0  0
  -28.8590  -23.2140   20.5130 C   0  0  0  0  0  3  0  0  0  0  0  0
  -28.0200  -24.6180   19.9900 C   0  0  0  0  0  2  0  0  0  0  0  0
  -28.2610  -26.1430   20.2750 O   0  0  0  0  0  0  0  0  0  0  0  0
  -24.6290  -31.8620   23.2160 C   0  0  0  0  0  0  0  0  0  0  0  0
  -27.2120  -27.1410   20.1840 C   0  0  0  0  0  0  0  0  0  0  0  0
  -23.4310  -30.4580   21.5840 C   0  0  0  0  0  3  0  0  0  0  0  0
  -24.8810  -28.8900   20.1500 C   0  0  0  0  0  0  0  0  0  0  0  0
  -25.9830  -30.7310   21.4120 C   0  0  0  0  0  2  0  0  0  0  0  0
  -26.0590  -29.3370   20.7610 C   0  0  0  0  0  0  0  0  0  0  0  0
  -27.2250  -28.4790   20.7600 C   0  0  0  0  0  3  0  0  0  0  0  0
  -26.0090  -26.8080   19.5220 C   0  0  0  0  0  3  0  0  0  0  0  0
  -24.8710  -27.6420   19.5130 C   0  0  0  0  0  3  0  0  0  0  0  0
  -23.6500  -29.7810   20.2040 C   0  0  0  0  0  2  0  0  0  0  0  0
  -24.7020  -31.0390   22.1260 N   0  0  0  0  0  0  0  0  0  0  0  0
  -23.5440  -32.1440   23.7460 O   0  0  0  0  0  0  0  0  0  0  0  0
  -22.7590  -29.4500   22.5510 C   0  0  0  0  0  0  0  0  0  0  0  0
  -21.4330  -29.2700   22.4250 N   0  0  0  0  0  0  0  0  0  0  0  0
  -23.4350  -28.8340   23.3800 O   0  0  0  0  0  0  0  0  0  0  0  0
  -20.9450  -29.8210   21.7330 H   0  0  0  0  0  0  0  0  0  0  0  0
  -18.0630  -28.0310   22.9160 C   0  0  0  0  0  0  0  0  0  0  0  0
  -20.6160  -28.3290   23.1980 C   0  0  0  0  0  3  0  0  0  0  0  0
  -20.7400  -26.8930   22.6390 C   0  0  0  0  0  2  0  0  0  0  0  0
  -19.6490  -26.5460   21.6190 C   0  0  0  0  0  2  0  0  0  0  0  0
  -18.2620  -26.6780   22.2530 C   0  0  0  0  0  2  0  0  0  0  0  0
  -19.1670  -28.8120   23.3450 C   0  0  0  0  0  0  0  0  0  0  0  0
  -18.9270  -30.0760   23.9280 C   0  0  0  0  0  3  0  0  0  0  0  0
  -17.6130  -30.5600   24.0810 C   0  0  0  0  0  3  0  0  0  0  0  0
  -16.5230  -29.7750   23.6660 C   0  0  0  0  0  3  0  0  0  0  0  0
  -16.7480  -28.5120   23.0920 C   0  0  0  0  0  3  0  0  0  0  0  0
  -25.9080  -32.5030   23.8410 C   0  0  0  0  0  3  0  0  0  0  0  0
  -26.4230  -31.7380   25.1240 C   0  0  1  0  0  0  0  0  0  0  0  0
  -25.3290  -31.5080   26.1920 C   0  0  0  0  0  1  0  0  0  0  0  0
  -27.0070  -30.3580   24.7440 C   0  0  0  0  0  1  0  0  0  0  0  0
  -27.5730  -32.5370   25.7810 C   0  0  0  0  0  1  0  0  0  0  0  0
  -25.5900  -33.9010   24.1720 N   0  0  0  0  0  0  0  0  0  0  0  0
  -25.9170  -34.9580   23.4180 C   0  0  0  0  0  0  0  0  0  0  0  0
  -26.5840  -34.8610   22.3850 O   0  0  0  0  0  0  0  0  0  0  0  0
  -24.9950  -34.0520   24.9740 H   0  0  0  0  0  0  0  0  0  0  0  0
  -24.1840  -36.7530   23.0770 C   0  0  0  0  0  1  0  0  0  0  0  0
  -25.4280  -36.3450   23.8830 C   0  0  0  0  0  3  0  0  0  0  0  0
  -27.5630  -37.2330   24.7110 C   0  0  0  0  0  1  0  0  0  0  0  0
  -26.4590  -37.4010   23.7710 N   0  0  0  0  0  0  0  0  0  0  0  0
  -26.0490  -38.3210   23.9230 H   0  0  0  0  0  0  0  0  0  0  0  0
  -29.3530  -19.1570   20.5670 C   0  0  0  0  0  2  0  0  0  0  0  0
  -30.1100  -17.6820   20.1180 C   0  0  0  0  0  2  0  0  0  0  0  0
  -30.5410  -14.9860   20.3850 C   0  0  0  0  0  0  0  0  0  0  0  0
  -30.4100  -12.6330   19.4540 C   0  0  0  0  0  2  0  0  0  0  0  0
  -29.4980  -12.6030   18.2060 C   0  0  0  0  0  2  0  0  0  0  0  0
  -28.0280  -12.4010   18.6130 C   0  0  0  0  0  2  0  0  0  0  0  0
  -27.6130  -13.3210   19.7900 C   0  0  0  0  0  3  0  0  0  0  0  0
  -28.6510  -13.3280   20.9340 C   0  0  0  0  0  2  0  0  0  0  0  0
  -29.9340  -13.7310   20.3470 N   0  0  0  0  0  0  0  0  0  0  0  0
  -31.7340  -15.0360   20.0650 O   0  0  0  0  0  0  0  0  0  0  0  0
  -29.7940  -16.1880   20.5610 N   0  0  0  0  0  0  0  0  0  0  0  0
  -28.8400  -16.0330   20.8520 H   0  0  0  0  0  0  0  0  0  0  0  0
  -25.2220  -13.9060   20.4860 C   0  0  0  0  0  0  0  0  0  0  0  0
  -24.1520  -13.1340   20.8460 C   0  0  0  0  0  0  0  0  0  0  0  0
  -24.6160  -11.7830   20.8310 C   0  0  0  0  0  0  0  0  0  0  0  0
  -26.2670  -13.0260   20.2700 N   0  0  0  0  0  0  0  0  0  0  0  0
  -25.9110  -11.7430   20.5420 N   0  0  0  0  0  0  0  0  0  0  0  0
  -23.8840  -10.5230   21.0190 C   0  0  0  0  0  0  0  0  0  0  0  0
  -24.3000   -9.5610   21.9650 C   0  0  0  0  0  3  0  0  0  0  0  0
  -23.5700   -8.3670   22.1410 C   0  0  0  0  0  3  0  0  0  0  0  0
  -22.4060   -8.1270   21.3690 C   0  0  0  0  0  0  0  0  0  0  0  0
  -22.0100   -9.0760   20.4120 C   0  0  0  0  0  3  0  0  0  0  0  0
  -22.7420  -10.2630   20.2360 C   0  0  0  0  0  3  0  0  0  0  0  0
  -21.6490   -6.9840   21.4540 O   0  0  0  0  0  0  0  0  0  0  0  0
  -21.5810   -6.2480   22.6100 C   0  0  0  0  0  0  0  0  0  0  0  0
  -21.1400   -6.8110   23.8270 C   0  0  0  0  0  3  0  0  0  0  0  0
  -21.0200   -6.0030   24.9750 C   0  0  0  0  0  3  0  0  0  0  0  0
  -21.3300   -4.6310   24.9060 C   0  0  0  0  0  0  0  0  0  0  0  0
  -21.7640   -4.0670   23.6940 C   0  0  0  0  0  3  0  0  0  0  0  0
  -21.8860   -4.8730   22.5480 C   0  0  0  0  0  0  0  0  0  0  0  0
  -22.2840   -4.3210   21.3770 F   0  0  0  0  0  0  0  0  0  0  0  0
  -21.2060   -3.8510   26.0050 F   0  0  0  0  0  0  0  0  0  0  0  0
  -22.7520  -13.6150   21.0910 C   0  0  0  0  0  0  0  0  0  0  0  0
  -22.0110  -12.9230   21.9480 N   0  0  0  0  0  0  0  0  0  0  0  0
  -22.3230  -14.6370   20.5570 O   0  0  0  0  0  0  0  0  0  0  0  0
  -22.3730  -12.0960   22.4010 H   0  0  0  0  0  0  0  0  0  0  0  0
  -21.0690  -13.2220   22.1550 H   0  0  0  0  0  0  0  0  0  0  0  0
  -25.3890  -15.2760   20.3010 N   0  0  0  0  0  0  0  0  0  0  0  0
  -24.6150  -15.9250   20.3820 H   0  0  0  0  0  0  0  0  0  0  0  0
  -26.2300  -15.7060   19.9380 H   0  0  0  0  0  0  0  0  0  0  0  0
  1  2  1  0
  1  5  2  0
  2  3  2  0
  3  6  1  0
  3  8  1  0
  4  2  1  0
  5  6  1  0
  6 51  1  0
  8  7  1  0
  9 10  1  0
  9  8  1  0
 11 22  2  0
 12 10  1  0
 12 17  1  0
 13 21  1  0
 13 23  1  0
 14 20  1  0
 14 16  1  0
 15 21  1  0
 16 15  1  0
 17 16  2  0
 18 12  2  0
 19 18  1  0
 19 14  2  0
 20 13  1  0
 21 11  1  0
 23 25  2  0
 24 23  1  0
 26 24  1  0
 27 36  2  0
 27 32  1  0
 28 24  1  0
 28 32  1  0
 29 28  1  0
 30 31  1  0
 30 29  1  0
 31 27  1  0
 32 33  2  0
 33 34  1  0
 35 34  2  0
 36 35  1  0
 37 11  1  0
 37 42  1  0
 37 38  1  0
 38 41  1  1
 38 39  1  0
 40 38  1  0
 42 45  1  0
 43 47  1  0
 43 42  1  0
 44 43  2  0
 47 46  1  0
 49 47  1  0
 49 50  1  0
 49 48  1  0
 52 61  1  0
 52 51  1  0
 53 61  1  0
 54 59  1  0
 55 56  1  0
 55 54  1  0
 57 56  1  0
 57 66  1  0
 57 58  1  0
 59 53  1  0
 59 58  1  0
 60 53  2  0
 61 62  1  0
 63 64  2  0
 64 83  1  0
 65 64  1  0
 65 68  1  0
 66 63  1  0
 66 67  1  0
 67 65  2  0
 68 69  1  0
 69 70  2  0
 71 74  1  0
 71 70  1  0
 72 71  2  0
 73 72  1  0
 73 68  2  0
 74 75  1  0
 75 76  1  0
 76 77  2  0
 78 77  1  0
 78 82  1  0
 79 78  2  0
 80 75  2  0
 80 79  1  0
 81 80  1  0
 83 84  1  0
 84 87  1  0
 84 86  1  0
 85 83  2  0
 88 89  1  0
 88 63  1  0
 90 88  1  0
M  ISO  4   9 101  10 101  53 100  61 100
M  END
>  <TORSDO>  (86) 
F 20

>  <SCORE>  (86) 
-15.119

>  <name>  (86) 
88

>  <ligand_id>  (86) 
88

>  <original_smiles>  (86) 
[H]c1nn(C([H])([H])C([H])([H])N([H])C(=O)N2C([H])([H])C([H])([H])C([H])([H])C([H])(n3nc(-c4c([H])c([H])c(Oc5c([H])c([H])c(F)c([H])c5F)c([H])c4[H])c(C(=O)N([H])[H])c3N([H])[H])C2([H])[H])c(C([H])(C([H])([H])[H])C([H])([H])Oc2c([H])c([H])c3c(c2[H])C([H])([H])N(C(=O)C([H])(N([H])C(=O)C([H])(N([H])C([H])([H])[H])C([H])([H])[H])C(C([H])([H])[H])(C([H])([H])[H])C([H])([H])[H])C([H])(C(=O)N([H])C2([H])c4c([H])c([H])c([H])c([H])c4C([H])([H])C([H])([H])C2([H])[H])C3([H])[H])c1C([H])([H])[H]

>  <smiles>  (86) 
[H]c1nn(C([H])([H])C([H])([H])N([H])C(=O)N2C([H])([H])C([H])([H])C([H])([H])C([H])(n3nc(-c4c([H])c([H])c(Oc5c([H])c([H])c(F)c([H])c5F)c([H])c4[H])c(C(=O)N([H])[H])c3N([H])[H])C2([H])[H])c(C([H])(C([H])([H])[H])C([H])([H])Oc2c([H])c([H])c3c(c2[H])C([H])([H])N(C(=O)C([H])(N([H])C(=O)C([H])(N([H])C([H])([H])[H])C([H])([H])[H])C(C([H])([H])[H])(C([H])([H])[H])C([H])([H])[H])C([H])(C(=O)N([H])C2([H])c4c([H])c([H])c([H])c([H])c4C([H])([H])C([H])([H])C2([H])[H])C3([H])[H])c1C([H])([H])[H]

$$$$
89:0:0
     RDKit          3D

 95103  0  0  1  0  0  0  0  0999 V2000
  -41.7730  -28.3230   18.5610 C   0  0  0  0  0  3  0  0  0  0  0  0
  -42.0450  -26.1460   18.2000 C   0  0  0  0  0  3  0  0  0  0  0  0
  -42.6440  -27.2250   18.7810 C   0  0  0  0  0  0  0  0  0  0  0  0
  -40.7320  -27.9330   17.7670 C   0  0  0  0  0  0  0  0  0  0  0  0
  -40.8930  -26.5390   17.5400 N   0  0  0  0  0  0  0  0  0  0  0  0
  -44.2540  -25.8560   20.0780 C   0  0  0  0  0  1  0  0  0  0  0  0
  -43.9430  -28.2380   20.6600 C   0  0  0  0  0  1  0  0  0  0  0  0
  -45.1220  -27.5870   18.5030 C   0  0  0  0  0  1  0  0  0  0  0  0
  -43.9860  -27.2460   19.4870 C   0  0  2  0  0  0  0  0  0  0  0  0
  -39.6920  -28.8400   17.1380 C   0  0  0  0  0  2  0  0  0  0  0  0
  -40.0390  -29.6560   15.8280 C   0  0  0  0  0  2  0  0  0  0  0  0
  -39.5410  -28.1680   13.6410 C   0  0  0  0  0  1  0  0  0  0  0  0
  -39.2760  -29.4610   14.4520 C   0  0  0  0  0  3  0  0  0  0  0  0
  -37.8340  -29.4790   14.6580 O   0  0  0  0  0  0  0  0  0  0  0  0
  -31.2750  -29.8330   11.8610 C   0  0  0  0  0  0  0  0  0  0  0  0
  -37.0480  -29.7440   13.5520 C   0  0  0  0  0  0  0  0  0  0  0  0
  -33.1510  -29.8290   10.2510 C   0  0  0  0  0  3  0  0  0  0  0  0
  -35.4590  -30.2040   11.2550 C   0  0  0  0  0  0  0  0  0  0  0  0
  -33.4450  -30.8100   12.5990 C   0  0  0  0  0  2  0  0  0  0  0  0
  -34.9130  -30.4140   12.5280 C   0  0  0  0  0  0  0  0  0  0  0  0
  -35.7150  -30.2120   13.6820 C   0  0  0  0  0  3  0  0  0  0  0  0
  -37.5760  -29.5520   12.2580 C   0  0  0  0  0  3  0  0  0  0  0  0
  -36.7860  -29.7760   11.1120 C   0  0  0  0  0  3  0  0  0  0  0  0
  -34.5590  -30.4510   10.0680 C   0  0  0  0  0  2  0  0  0  0  0  0
  -32.5810  -30.1270   11.6040 N   0  0  0  0  0  0  0  0  0  0  0  0
  -30.5360  -29.3690   10.9840 O   0  0  0  0  0  0  0  0  0  0  0  0
  -33.2080  -28.3200    9.9210 C   0  0  0  0  0  0  0  0  0  0  0  0
  -33.4480  -27.9910    8.6400 N   0  0  0  0  0  0  0  0  0  0  0  0
  -33.0740  -27.4740   10.8100 O   0  0  0  0  0  0  0  0  0  0  0  0
  -33.5530  -28.7370    7.9640 H   0  0  0  0  0  0  0  0  0  0  0  0
  -33.6630  -26.0640    5.5900 C   0  0  0  0  0  0  0  0  0  0  0  0
  -33.5800  -26.6320    8.1120 C   0  0  0  0  0  3  0  0  0  0  0  0
  -35.0530  -26.1590    8.1650 C   0  0  0  0  0  2  0  0  0  0  0  0
  -35.8190  -26.4380    6.8690 C   0  0  0  0  0  2  0  0  0  0  0  0
  -35.1440  -25.7340    5.6870 C   0  0  0  0  0  2  0  0  0  0  0  0
  -32.9320  -26.5010    6.7260 C   0  0  0  0  0  0  0  0  0  0  0  0
  -31.5650  -26.8270    6.5810 C   0  0  0  0  0  3  0  0  0  0  0  0
  -30.9320  -26.7240    5.3290 C   0  0  0  0  0  3  0  0  0  0  0  0
  -31.6550  -26.2770    4.2110 C   0  0  0  0  0  3  0  0  0  0  0  0
  -33.0140  -25.9400    4.3430 C   0  0  0  0  0  3  0  0  0  0  0  0
  -30.6430  -30.0990   13.2630 C   0  0  0  0  0  3  0  0  0  0  0  0
  -30.7400  -31.5420   13.5270 N   0  0  0  0  0  0  0  0  0  0  0  0
  -31.2960  -32.0750   14.6220 C   0  0  0  0  0  0  0  0  0  0  0  0
  -31.7330  -31.3940   15.5540 O   0  0  0  0  0  0  0  0  0  0  0  0
  -30.4730  -32.1660   12.7800 H   0  0  0  0  0  0  0  0  0  0  0  0
  -31.9820  -34.1430   13.3730 C   0  0  0  0  0  1  0  0  0  0  0  0
  -31.3900  -33.6100   14.6890 C   0  0  0  0  0  3  0  0  0  0  0  0
  -31.3790  -34.4130   17.0060 C   0  0  0  0  0  1  0  0  0  0  0  0
  -32.1890  -34.1020   15.8330 N   0  0  0  0  0  0  0  0  0  0  0  0
  -32.7020  -34.9400   15.5780 H   0  0  0  0  0  0  0  0  0  0  0  0
  -29.1480  -29.6050   13.3740 C   0  0  1  0  0  0  0  0  0  0  0  0
  -28.1790  -30.3930   12.4670 C   0  0  0  0  0  1  0  0  0  0  0  0
  -29.0320  -28.1100   12.9970 C   0  0  0  0  0  1  0  0  0  0  0  0
  -28.6560  -29.7260   14.8360 C   0  0  0  0  0  1  0  0  0  0  0  0
  -40.1110  -25.6040   16.6960 C   0  0  0  0  0  3  0  0  0  0  0  0
  -38.9070  -24.8370   17.3980 C   0  0  0  0  0  3  0  0  0  0  0  0
  -37.9310  -23.9980   16.4900 C   0  0  0  0  0  2  0  0  0  0  0  0
  -35.9490  -25.6330   16.6870 C   0  0  0  0  0  0  0  0  0  0  0  0
  -33.6550  -26.4830   17.0780 C   0  0  0  0  0  2  0  0  0  0  0  0
  -32.7560  -25.3060   17.5140 C   0  0  0  0  0  2  0  0  0  0  0  0
  -32.1430  -24.6030   16.2920 C   0  0  0  0  0  2  0  0  0  0  0  0
  -33.1970  -24.2660   15.2040 C   0  0  0  0  0  3  0  0  0  0  0  0
  -34.1300  -25.4690   14.9210 C   0  0  0  0  0  2  0  0  0  0  0  0
  -34.7060  -25.9330   16.1940 N   0  0  0  0  0  0  0  0  0  0  0  0
  -36.3420  -26.0700   17.7690 O   0  0  0  0  0  0  0  0  0  0  0  0
  -36.6930  -24.7090   16.0220 N   0  0  0  0  0  0  0  0  0  0  0  0
  -36.3790  -24.4980   15.0870 H   0  0  0  0  0  0  0  0  0  0  0  0
  -32.7820  -22.5520   13.3320 C   0  0  0  0  0  0  0  0  0  0  0  0
  -31.8870  -22.5250   12.2900 C   0  0  0  0  0  0  0  0  0  0  0  0
  -31.1560  -23.7470   12.3670 C   0  0  0  0  0  0  0  0  0  0  0  0
  -32.5660  -23.7560   13.9850 N   0  0  0  0  0  0  0  0  0  0  0  0
  -31.6160  -24.5000   13.3600 N   0  0  0  0  0  0  0  0  0  0  0  0
  -29.9990  -24.2150   11.5850 C   0  0  0  0  0  0  0  0  0  0  0  0
  -28.7880  -23.4900   11.5440 C   0  0  0  0  0  3  0  0  0  0  0  0
  -27.6860  -23.9760   10.8070 C   0  0  0  0  0  3  0  0  0  0  0  0
  -27.7870  -25.1990   10.1010 C   0  0  0  0  0  0  0  0  0  0  0  0
  -29.0010  -25.9050   10.1270 C   0  0  0  0  0  3  0  0  0  0  0  0
  -30.0990  -25.4160   10.8550 C   0  0  0  0  0  3  0  0  0  0  0  0
  -26.7800  -25.7290    9.3300 O   0  0  0  0  0  0  0  0  0  0  0  0
  -26.9690  -26.8670    8.5870 C   0  0  0  0  0  0  0  0  0  0  0  0
  -27.4620  -26.8210    7.2640 C   0  0  0  0  0  3  0  0  0  0  0  0
  -27.5710  -28.0070    6.5120 C   0  0  0  0  0  3  0  0  0  0  0  0
  -27.1840  -29.2360    7.0740 C   0  0  0  0  0  0  0  0  0  0  0  0
  -26.6910  -29.2840    8.3910 C   0  0  0  0  0  3  0  0  0  0  0  0
  -26.5810  -28.1020    9.1440 C   0  0  0  0  0  0  0  0  0  0  0  0
  -26.0830  -28.1490   10.4020 F   0  0  0  0  0  0  0  0  0  0  0  0
  -27.2830  -30.3760    6.3530 F   0  0  0  0  0  0  0  0  0  0  0  0
  -31.6700  -21.3860   11.3390 C   0  0  0  0  0  0  0  0  0  0  0  0
  -31.9540  -21.5980   10.0550 N   0  0  0  0  0  0  0  0  0  0  0  0
  -31.2950  -20.2840   11.7310 O   0  0  0  0  0  0  0  0  0  0  0  0
  -32.2840  -22.4950    9.7330 H   0  0  0  0  0  0  0  0  0  0  0  0
  -31.8430  -20.8460    9.3910 H   0  0  0  0  0  0  0  0  0  0  0  0
  -33.7290  -21.6420   13.7770 N   0  0  0  0  0  0  0  0  0  0  0  0
  -33.8170  -20.7290   13.3450 H   0  0  0  0  0  0  0  0  0  0  0  0
  -34.3110  -21.7490   14.5980 H   0  0  0  0  0  0  0  0  0  0  0  0
  1  3  1  0
  2  3  2  0
  3  9  1  0
  4  1  2  0
  5  4  1  0
  5  2  1  0
  9  8  1  6
  9  6  1  0
  9  7  1  0
 10  4  1  0
 11 10  1  0
 13 12  1  0
 13 14  1  0
 13 11  1  0
 16 21  1  0
 16 14  1  0
 17 27  1  0
 17 25  1  0
 18 20  1  0
 20 19  1  0
 20 21  2  0
 22 16  2  0
 23 18  2  0
 23 22  1  0
 24 17  1  0
 24 18  1  0
 25 15  1  0
 25 19  1  0
 26 15  2  0
 27 29  2  0
 28 27  1  0
 30 28  1  0
 31 35  1  0
 31 36  1  0
 32 33  1  0
 32 28  1  0
 34 33  1  0
 35 34  1  0
 36 32  1  0
 37 36  2  0
 38 37  1  0
 39 40  1  0
 39 38  2  0
 40 31  2  0
 41 15  1  0
 41 51  1  0
 41 42  1  0
 42 43  1  0
 43 47  1  0
 43 44  2  0
 45 42  1  0
 47 46  1  0
 47 49  1  0
 49 48  1  0
 50 49  1  0
 51 54  1  1
 52 51  1  0
 53 51  1  0
 55 56  2  0
 55  5  1  0
 57 56  1  0
 58 65  2  0
 59 60  1  0
 61 60  1  0
 62 71  1  0
 62 61  1  0
 63 62  1  0
 63 64  1  0
 64 58  1  0
 64 59  1  0
 66 57  1  0
 66 58  1  0
 67 66  1  0
 68 93  1  0
 68 71  1  0
 69 70  1  0
 69 68  2  0
 70 72  2  0
 72 71  1  0
 73 70  1  0
 74 73  1  0
 75 74  2  0
 76 77  2  0
 76 75  1  0
 77 78  1  0
 78 73  2  0
 79 76  1  0
 80 85  1  0
 80 79  1  0
 81 80  2  0
 82 83  2  0
 82 81  1  0
 83 84  1  0
 84 85  2  0
 85 86  1  0
 87 83  1  0
 88 90  2  0
 88 69  1  0
 89 88  1  0
 91 89  1  0
 92 89  1  0
 93 95  1  0
 94 93  1  0
M  ISO  4  13 101  14 101  58 100  66 100
M  END
>  <TORSDO>  (87) 
F 23

>  <SCORE>  (87) 
-2.519

>  <name>  (87) 
89

>  <ligand_id>  (87) 
89

>  <original_smiles>  (87) 
[H]c1c([H])c([H])c2c(c1[H])C([H])([H])C([H])([H])C([H])([H])C2([H])N([H])C(=O)C1([H])N(C(=O)C([H])(N([H])C(=O)C([H])(N([H])C([H])([H])[H])C([H])([H])[H])C(C([H])([H])[H])(C([H])([H])[H])C([H])([H])[H])C([H])([H])c2c([H])c(OC([H])(C([H])([H])[H])C([H])([H])C([H])([H])c3c([H])c(C(C([H])([H])[H])(C([H])([H])[H])C([H])([H])[H])c([H])n3C([H])([H])C([H])([H])C([H])([H])N([H])C(=O)N3C([H])([H])C([H])([H])C([H])([H])C([H])(n4nc(-c5c([H])c([H])c(Oc6c([H])c([H])c(F)c([H])c6F)c([H])c5[H])c(C(=O)N([H])[H])c4N([H])[H])C3([H])[H])c([H])c([H])c2C1([H])[H]

>  <smiles>  (87) 
[H]c1c([H])c([H])c2c(c1[H])C([H])([H])C([H])([H])C([H])([H])C2([H])N([H])C(=O)C1([H])N(C(=O)C([H])(N([H])C(=O)C([H])(N([H])C([H])([H])[H])C([H])([H])[H])C(C([H])([H])[H])(C([H])([H])[H])C([H])([H])[H])C([H])([H])c2c([H])c(OC([H])(C([H])([H])[H])C([H])([H])C([H])([H])c3c([H])c(C(C([H])([H])[H])(C([H])([H])[H])C([H])([H])[H])c([H])n3C([H])([H])C([H])([H])C([H])([H])N([H])C(=O)N3C([H])([H])C([H])([H])C([H])([H])C([H])(n4nc(-c5c([H])c([H])c(Oc6c([H])c([H])c(F)c([H])c6F)c([H])c5[H])c(C(=O)N([H])[H])c4N([H])[H])C3([H])[H])c([H])c([H])c2C1([H])[H]

$$$$
90:0:0
     RDKit          3D

 97105  0  0  1  0  0  0  0  0999 V2000
  -27.5710  -20.9320   19.3610 C   0  0  0  0  0  2  0  0  0  0  0  0
  -27.9320  -20.2300   18.2660 C   0  0  0  0  0  0  0  0  0  0  0  0
  -28.9290  -19.3010   18.6820 C   0  0  0  0  0  0  0  0  0  0  0  0
  -29.0790  -19.3970   20.0590 C   0  0  0  0  0  0  0  0  0  0  0  0
  -27.4340  -20.5410   16.8730 C   0  0  0  0  0  1  0  0  0  0  0  0
  -28.4370  -20.6320   20.3880 N   0  0  0  0  0  0  0  0  0  0  0  0
  -29.6900  -18.4910   17.6580 C   0  0  0  0  0  2  0  0  0  0  0  0
  -31.1820  -20.6810   17.6050 C   0  0  0  0  0  1  0  0  0  0  0  0
  -32.0780  -18.5060   16.6510 C   0  0  0  0  0  1  0  0  0  0  0  0
  -30.8200  -19.3190   16.9580 C   0  0  0  0  0  3  0  0  0  0  0  0
  -29.8460  -18.5230   21.0920 C   0  0  0  0  0  3  0  0  0  0  0  0
  -30.7490  -17.2590   20.7130 C   0  0  0  0  0  2  0  0  0  0  0  0
  -30.8520  -14.7390   20.3270 C   0  0  0  0  0  0  0  0  0  0  0  0
  -30.5730  -12.5110   19.2830 C   0  0  0  0  0  2  0  0  0  0  0  0
  -29.6450  -12.6640   18.0610 C   0  0  0  0  0  2  0  0  0  0  0  0
  -28.1620  -12.5610   18.4700 C   0  0  0  0  0  2  0  0  0  0  0  0
  -27.8120  -13.3830   19.7420 C   0  0  0  0  0  3  0  0  0  0  0  0
  -28.8770  -13.1980   20.8480 C   0  0  0  0  0  2  0  0  0  0  0  0
  -30.1790  -13.5460   20.2590 N   0  0  0  0  0  0  0  0  0  0  0  0
  -32.0110  -14.8380   19.9180 O   0  0  0  0  0  0  0  0  0  0  0  0
  -30.1650  -15.8700   20.6790 N   0  0  0  0  0  0  0  0  0  0  0  0
  -29.2200  -15.7660   21.0080 H   0  0  0  0  0  0  0  0  0  0  0  0
  -25.4040  -13.9760   20.4080 C   0  0  0  0  0  0  0  0  0  0  0  0
  -24.3370  -13.1990   20.7840 C   0  0  0  0  0  0  0  0  0  0  0  0
  -24.8070  -11.8500   20.7760 C   0  0  0  0  0  0  0  0  0  0  0  0
  -26.4570  -13.0960   20.2080 N   0  0  0  0  0  0  0  0  0  0  0  0
  -26.1030  -11.8150   20.4860 N   0  0  0  0  0  0  0  0  0  0  0  0
  -24.0790  -10.5880   20.9730 C   0  0  0  0  0  0  0  0  0  0  0  0
  -24.4970   -9.6380   21.9290 C   0  0  0  0  0  3  0  0  0  0  0  0
  -23.7710   -8.4430   22.1160 C   0  0  0  0  0  3  0  0  0  0  0  0
  -22.6110   -8.1870   21.3470 C   0  0  0  0  0  0  0  0  0  0  0  0
  -22.2140   -9.1250   20.3780 C   0  0  0  0  0  3  0  0  0  0  0  0
  -22.9410  -10.3130   20.1880 C   0  0  0  0  0  3  0  0  0  0  0  0
  -21.8650   -7.0390   21.4360 O   0  0  0  0  0  0  0  0  0  0  0  0
  -21.7860   -6.3200   22.6070 C   0  0  0  0  0  0  0  0  0  0  0  0
  -21.3060   -6.8960   23.8010 C   0  0  0  0  0  3  0  0  0  0  0  0
  -21.1790   -6.1040   24.9640 C   0  0  0  0  0  3  0  0  0  0  0  0
  -21.5150   -4.7390   24.9250 C   0  0  0  0  0  0  0  0  0  0  0  0
  -21.9820   -4.1600   23.7310 C   0  0  0  0  0  3  0  0  0  0  0  0
  -22.1130   -4.9500   22.5730 C   0  0  0  0  0  0  0  0  0  0  0  0
  -22.5430   -4.3840   21.4210 F   0  0  0  0  0  0  0  0  0  0  0  0
  -21.3820   -3.9750   26.0360 F   0  0  0  0  0  0  0  0  0  0  0  0
  -22.9360  -13.6710   21.0360 C   0  0  0  0  0  0  0  0  0  0  0  0
  -22.2030  -12.9860   21.9070 N   0  0  0  0  0  0  0  0  0  0  0  0
  -22.5000  -14.6860   20.4980 O   0  0  0  0  0  0  0  0  0  0  0  0
  -22.5700  -12.1670   22.3680 H   0  0  0  0  0  0  0  0  0  0  0  0
  -21.2570  -13.2850   22.1090 H   0  0  0  0  0  0  0  0  0  0  0  0
  -25.5600  -15.3440   20.2060 N   0  0  0  0  0  0  0  0  0  0  0  0
  -24.7730  -15.9840   20.2790 H   0  0  0  0  0  0  0  0  0  0  0  0
  -26.3930  -15.7910   19.8420 H   0  0  0  0  0  0  0  0  0  0  0  0
  -28.5060  -21.5160   21.5850 C   0  0  0  0  0  2  0  0  0  0  0  0
  -29.0190  -23.0310   21.3980 C   0  0  0  0  0  2  0  0  0  0  0  0
  -28.4320  -24.1600   19.1720 C   0  0  0  0  0  1  0  0  0  0  0  0
  -26.6800  -23.9910   21.0810 C   0  0  0  0  0  1  0  0  0  0  0  0
  -28.1670  -24.1870   20.6940 C   0  0  1  0  0  0  0  0  0  0  0  0
  -28.5620  -25.6590   21.1470 C   0  0  0  0  0  2  0  0  0  0  0  0
  -28.4350  -26.7170   20.1490 O   0  0  0  0  0  0  0  0  0  0  0  0
  -24.6290  -31.9100   23.2200 C   0  0  0  0  0  0  0  0  0  0  0  0
  -27.2860  -27.4830   20.1490 C   0  0  0  0  0  0  0  0  0  0  0  0
  -23.4280  -30.5190   21.5600 C   0  0  0  0  0  3  0  0  0  0  0  0
  -24.8940  -29.0040   20.1210 C   0  0  0  0  0  0  0  0  0  0  0  0
  -25.9480  -30.8900   21.3680 C   0  0  0  0  0  2  0  0  0  0  0  0
  -26.0430  -29.5170   20.7360 C   0  0  0  0  0  0  0  0  0  0  0  0
  -27.2400  -28.7600   20.7580 C   0  0  0  0  0  3  0  0  0  0  0  0
  -26.1380  -27.0240   19.4690 C   0  0  0  0  0  3  0  0  0  0  0  0
  -24.9390  -27.7550   19.4800 C   0  0  0  0  0  3  0  0  0  0  0  0
  -23.6460  -29.8570   20.1710 C   0  0  0  0  0  2  0  0  0  0  0  0
  -24.6850  -31.1220   22.1080 N   0  0  0  0  0  0  0  0  0  0  0  0
  -23.5460  -32.1690   23.7650 O   0  0  0  0  0  0  0  0  0  0  0  0
  -22.7860  -29.4790   22.5090 C   0  0  0  0  0  0  0  0  0  0  0  0
  -21.4600  -29.2980   22.3890 N   0  0  0  0  0  0  0  0  0  0  0  0
  -23.4760  -28.8480   23.3140 O   0  0  0  0  0  0  0  0  0  0  0  0
  -20.9590  -29.8640   21.7180 H   0  0  0  0  0  0  0  0  0  0  0  0
  -18.0940  -28.0870   22.8920 C   0  0  0  0  0  0  0  0  0  0  0  0
  -20.6510  -28.3450   23.1530 C   0  0  0  0  0  3  0  0  0  0  0  0
  -20.7550  -26.9230   22.5590 C   0  0  0  0  0  2  0  0  0  0  0  0
  -19.6490  -26.6110   21.5460 C   0  0  0  0  0  2  0  0  0  0  0  0
  -18.2700  -26.7470   22.1990 C   0  0  0  0  0  2  0  0  0  0  0  0
  -19.2130  -28.8450   23.3270 C   0  0  0  0  0  0  0  0  0  0  0  0
  -18.9980  -30.1010   23.9340 C   0  0  0  0  0  3  0  0  0  0  0  0
  -17.6930  -30.6010   24.1080 C   0  0  0  0  0  3  0  0  0  0  0  0
  -16.5880  -29.8390   23.6910 C   0  0  0  0  0  3  0  0  0  0  0  0
  -16.7870  -28.5830   23.0900 C   0  0  0  0  0  3  0  0  0  0  0  0
  -25.9160  -32.5390   23.8430 C   0  0  0  0  0  3  0  0  0  0  0  0
  -25.6080  -33.9340   24.1840 N   0  0  0  0  0  0  0  0  0  0  0  0
  -25.9250  -34.9880   23.4210 C   0  0  0  0  0  0  0  0  0  0  0  0
  -26.5830  -34.8930   22.3820 O   0  0  0  0  0  0  0  0  0  0  0  0
  -25.0340  -34.0860   25.0020 H   0  0  0  0  0  0  0  0  0  0  0  0
  -24.1830  -36.7700   23.0880 C   0  0  0  0  0  1  0  0  0  0  0  0
  -25.4360  -36.3740   23.8870 C   0  0  0  0  0  3  0  0  0  0  0  0
  -27.5720  -37.2690   24.7020 C   0  0  0  0  0  1  0  0  0  0  0  0
  -26.4610  -37.4350   23.7660 N   0  0  0  0  0  0  0  0  0  0  0  0
  -26.0510  -38.3520   23.9190 H   0  0  0  0  0  0  0  0  0  0  0  0
  -26.4450  -31.7550   25.1060 C   0  0  1  0  0  0  0  0  0  0  0  0
  -25.3590  -31.4980   26.1750 C   0  0  0  0  0  1  0  0  0  0  0  0
  -27.0310  -30.3860   24.6920 C   0  0  0  0  0  1  0  0  0  0  0  0
  -27.5970  -32.5430   25.7740 C   0  0  0  0  0  1  0  0  0  0  0  0
  1  6  1  0
  2  3  2  0
  2  1  1  0
  3  4  1  0
  4  6  1  0
  4 11  2  0
  5  2  1  0
  6 51  1  0
  7  3  1  0
  9 10  1  0
 10  8  1  0
 10  7  1  0
 12 11  1  0
 13 21  1  0
 14 19  1  0
 15 16  1  0
 15 14  1  0
 17 16  1  0
 17 26  1  0
 17 18  1  0
 19 13  1  0
 19 18  1  0
 20 13  2  0
 21 12  1  0
 21 22  1  0
 23 24  2  0
 24 43  1  0
 25 24  1  0
 25 28  1  0
 26 23  1  0
 26 27  1  0
 27 25  2  0
 28 29  1  0
 29 30  2  0
 31 34  1  0
 31 30  1  0
 32 31  2  0
 33 32  1  0
 33 28  2  0
 34 35  1  0
 35 36  1  0
 36 37  2  0
 38 37  1  0
 38 42  1  0
 39 38  2  0
 40 35  2  0
 40 39  1  0
 41 40  1  0
 43 44  1  0
 44 47  1  0
 44 46  1  0
 45 43  2  0
 48 49  1  0
 48 23  1  0
 50 48  1  0
 52 51  1  0
 55 53  1  6
 55 54  1  0
 55 56  1  0
 55 52  1  0
 57 56  1  0
 58 69  2  0
 59 57  1  0
 59 64  1  0
 60 68  1  0
 60 70  1  0
 61 67  1  0
 61 63  1  0
 62 68  1  0
 63 64  2  0
 63 62  1  0
 65 66  1  0
 65 59  2  0
 66 61  2  0
 67 60  1  0
 68 58  1  0
 70 72  2  0
 71 70  1  0
 73 71  1  0
 74 83  2  0
 74 79  1  0
 75 71  1  0
 75 79  1  0
 76 75  1  0
 77 78  1  0
 77 76  1  0
 78 74  1  0
 79 80  2  0
 80 81  1  0
 82 81  2  0
 83 82  1  0
 84 58  1  0
 84 85  1  0
 84 94  1  0
 85 88  1  0
 86 90  1  0
 86 85  1  0
 87 86  2  0
 90 89  1  0
 92 90  1  0
 92 93  1  0
 92 91  1  0
 94 97  1  1
 94 95  1  0
 96 94  1  0
M  ISO  4  13 100  21 100  56 101  57 101
M  END
>  <TORSDO>  (88) 
F 24

>  <SCORE>  (88) 
-12.586

>  <name>  (88) 
90

>  <ligand_id>  (88) 
90

>  <original_smiles>  (88) 
[H]c1c([H])c([H])c2c(c1[H])C([H])([H])C([H])([H])C([H])([H])C2([H])N([H])C(=O)C1([H])N(C(=O)C([H])(N([H])C(=O)C([H])(N([H])C([H])([H])[H])C([H])([H])[H])C(C([H])([H])[H])(C([H])([H])[H])C([H])([H])[H])C([H])([H])c2c([H])c(OC([H])([H])C(C([H])([H])[H])(C([H])([H])[H])C([H])([H])C([H])([H])n3c([H])c(C([H])([H])[H])c(C([H])([H])C([H])(C([H])([H])[H])C([H])([H])[H])c3C([H])([H])C([H])([H])N([H])C(=O)N3C([H])([H])C([H])([H])C([H])([H])C([H])(n4nc(-c5c([H])c([H])c(Oc6c([H])c([H])c(F)c([H])c6F)c([H])c5[H])c(C(=O)N([H])[H])c4N([H])[H])C3([H])[H])c([H])c([H])c2C1([H])[H]

>  <smiles>  (88) 
[H]c1c([H])c([H])c2c(c1[H])C([H])([H])C([H])([H])C([H])([H])C2([H])N([H])C(=O)C1([H])N(C(=O)C([H])(N([H])C(=O)C([H])(N([H])C([H])([H])[H])C([H])([H])[H])C(C([H])([H])[H])(C([H])([H])[H])C([H])([H])[H])C([H])([H])c2c([H])c(OC([H])([H])C(C([H])([H])[H])(C([H])([H])[H])C([H])([H])C([H])([H])n3c([H])c(C([H])([H])[H])c(C([H])([H])C([H])(C([H])([H])[H])C([H])([H])[H])c3C([H])([H])C([H])([H])N([H])C(=O)N3C([H])([H])C([H])([H])C([H])([H])C([H])(n4nc(-c5c([H])c([H])c(Oc6c([H])c([H])c(F)c([H])c6F)c([H])c5[H])c(C(=O)N([H])[H])c4N([H])[H])C3([H])[H])c([H])c([H])c2C1([H])[H]

$$$$
91:0:0
     RDKit          3D

 96104  0  0  1  0  0  0  0  0999 V2000
  -30.0700  -22.7160   23.0990 C   0  0  0  0  0  3  0  0  0  0  0  0
  -31.0500  -20.4930   23.1980 C   0  0  0  0  0  3  0  0  0  0  0  0
  -30.9480  -21.8010   23.7050 C   0  0  0  0  0  0  0  0  0  0  0  0
  -29.2800  -22.3370   21.9980 C   0  0  0  0  0  0  0  0  0  0  0  0
  -30.2680  -20.0700   22.0980 C   0  0  0  0  0  0  0  0  0  0  0  0
  -29.3950  -21.0150   21.4700 C   0  0  0  0  0  0  0  0  0  0  0  0
  -31.7580  -22.2180   24.9140 C   0  0  0  0  0  1  0  0  0  0  0  0
  -28.5800  -20.6020   20.2500 C   0  0  0  0  0  1  0  0  0  0  0  0
  -28.2570  -23.3570   21.4930 C   0  0  0  0  0  2  0  0  0  0  0  0
  -28.7760  -24.3970   20.4690 C   0  0  0  0  0  2  0  0  0  0  0  0
  -29.1620  -25.7740   21.0740 C   0  0  0  0  0  2  0  0  0  0  0  0
  -29.1390  -26.8340   20.1050 O   0  0  0  0  0  0  0  0  0  0  0  0
  -24.8830  -31.7010   23.0990 C   0  0  0  0  0  0  0  0  0  0  0  0
  -27.9600  -27.5370   20.0560 C   0  0  0  0  0  0  0  0  0  0  0  0
  -23.8760  -30.3350   21.2980 C   0  0  0  0  0  3  0  0  0  0  0  0
  -25.5080  -28.9280   19.9320 C   0  0  0  0  0  0  0  0  0  0  0  0
  -26.3870  -30.8080   21.3270 C   0  0  0  0  0  2  0  0  0  0  0  0
  -26.5840  -29.4700   20.6460 C   0  0  0  0  0  0  0  0  0  0  0  0
  -27.8130  -28.7790   20.7160 C   0  0  0  0  0  3  0  0  0  0  0  0
  -26.8800  -27.0200   19.3120 C   0  0  0  0  0  3  0  0  0  0  0  0
  -25.6500  -27.6990   19.2600 C   0  0  0  0  0  3  0  0  0  0  0  0
  -24.2260  -29.7250   19.9120 C   0  0  0  0  0  2  0  0  0  0  0  0
  -25.0610  -30.9620   21.9670 N   0  0  0  0  0  0  0  0  0  0  0  0
  -23.7520  -31.8980   23.5650 O   0  0  0  0  0  0  0  0  0  0  0  0
  -23.1950  -29.2450   22.1560 C   0  0  0  0  0  0  0  0  0  0  0  0
  -21.8660  -29.1150   22.0160 N   0  0  0  0  0  0  0  0  0  0  0  0
  -23.8620  -28.5170   22.8970 O   0  0  0  0  0  0  0  0  0  0  0  0
  -21.3890  -29.7550   21.3940 H   0  0  0  0  0  0  0  0  0  0  0  0
  -18.4450  -28.0750   22.5230 C   0  0  0  0  0  0  0  0  0  0  0  0
  -21.0220  -28.1310   22.6920 C   0  0  0  0  0  3  0  0  0  0  0  0
  -21.0020  -26.7930   21.9190 C   0  0  0  0  0  2  0  0  0  0  0  0
  -19.8370  -26.6860   20.9300 C   0  0  0  0  0  2  0  0  0  0  0  0
  -18.4980  -26.8250   21.6600 C   0  0  0  0  0  2  0  0  0  0  0  0
  -19.6300  -28.6960   22.9960 C   0  0  0  0  0  0  0  0  0  0  0  0
  -19.5280  -29.8750   23.7670 C   0  0  0  0  0  3  0  0  0  0  0  0
  -18.2710  -30.4290   24.0670 C   0  0  0  0  0  3  0  0  0  0  0  0
  -17.0990  -29.8000   23.6140 C   0  0  0  0  0  3  0  0  0  0  0  0
  -17.1870  -28.6240   22.8480 C   0  0  0  0  0  3  0  0  0  0  0  0
  -26.0850  -32.3550   23.8480 C   0  0  0  0  0  3  0  0  0  0  0  0
  -25.7050  -33.7350   24.1740 N   0  0  0  0  0  0  0  0  0  0  0  0
  -26.0650  -34.8120   23.4610 C   0  0  0  0  0  0  0  0  0  0  0  0
  -26.8190  -34.7500   22.4880 O   0  0  0  0  0  0  0  0  0  0  0  0
  -25.0430  -33.8580   24.9260 H   0  0  0  0  0  0  0  0  0  0  0  0
  -24.3120  -36.5570   23.0000 C   0  0  0  0  0  1  0  0  0  0  0  0
  -25.4970  -36.1750   23.9010 C   0  0  0  0  0  3  0  0  0  0  0  0
  -27.5240  -37.1170   24.9180 C   0  0  0  0  0  1  0  0  0  0  0  0
  -26.5010  -37.2630   23.8850 N   0  0  0  0  0  0  0  0  0  0  0  0
  -26.0540  -38.1670   24.0100 H   0  0  0  0  0  0  0  0  0  0  0  0
  -26.5060  -31.5690   25.1510 C   0  0  1  0  0  0  0  0  0  0  0  0
  -25.3320  -31.2930   26.1190 C   0  0  0  0  0  1  0  0  0  0  0  0
  -27.1450  -30.2100   24.7840 C   0  0  0  0  0  1  0  0  0  0  0  0
  -27.5800  -32.3710   25.9230 C   0  0  0  0  0  1  0  0  0  0  0  0
  -30.3820  -18.5920   21.6390 C   0  0  0  0  0  3  0  0  0  0  0  0
  -31.8460  -19.6630   19.7630 C   0  0  0  0  0  1  0  0  0  0  0  0
  -31.1260  -18.3780   20.2590 C   0  0  0  0  0  3  0  0  0  0  0  0
  -32.1080  -17.1500   20.1220 C   0  0  0  0  0  2  0  0  0  0  0  0
  -32.2220  -14.7450   19.8590 C   0  0  0  0  0  0  0  0  0  0  0  0
  -31.8170  -12.4140   19.2280 C   0  0  0  0  0  2  0  0  0  0  0  0
  -30.8360  -12.3760   18.0390 C   0  0  0  0  0  2  0  0  0  0  0  0
  -29.3760  -12.3890   18.5330 C   0  0  0  0  0  2  0  0  0  0  0  0
  -29.0950  -13.4550   19.6300 C   0  0  0  0  0  3  0  0  0  0  0  0
  -30.2010  -13.4860   20.7080 C   0  0  0  0  0  2  0  0  0  0  0  0
  -31.4900  -13.6100   20.0160 N   0  0  0  0  0  0  0  0  0  0  0  0
  -33.4310  -14.7270   19.6270 O   0  0  0  0  0  0  0  0  0  0  0  0
  -31.1270  -16.0200   18.1730 C   0  0  0  0  0  1  0  0  0  0  0  0
  -31.5290  -15.8870   19.5920 N   0  0  0  0  0  0  0  0  0  0  0  0
  -26.8390  -14.2760   20.5360 C   0  0  0  0  0  0  0  0  0  0  0  0
  -25.7140  -13.6010   20.9270 C   0  0  0  0  0  0  0  0  0  0  0  0
  -26.0220  -12.2130   20.7990 C   0  0  0  0  0  0  0  0  0  0  0  0
  -27.7630  -13.3000   20.1970 N   0  0  0  0  0  0  0  0  0  0  0  0
  -27.2820  -12.0520   20.4150 N   0  0  0  0  0  0  0  0  0  0  0  0
  -25.1730  -11.0250   20.9610 C   0  0  0  0  0  0  0  0  0  0  0  0
  -25.5290   -9.9850   21.8460 C   0  0  0  0  0  3  0  0  0  0  0  0
  -24.6890   -8.8620   22.0050 C   0  0  0  0  0  3  0  0  0  0  0  0
  -23.4790   -8.7740   21.2780 C   0  0  0  0  0  0  0  0  0  0  0  0
  -23.1400   -9.7990   20.3780 C   0  0  0  0  0  3  0  0  0  0  0  0
  -23.9810  -10.9140   20.2180 C   0  0  0  0  0  3  0  0  0  0  0  0
  -22.6180   -7.7060   21.3460 O   0  0  0  0  0  0  0  0  0  0  0  0
  -22.4020   -7.0300   22.5200 C   0  0  0  0  0  0  0  0  0  0  0  0
  -21.9470   -7.6860   23.6850 C   0  0  0  0  0  3  0  0  0  0  0  0
  -21.6700   -6.9430   24.8490 C   0  0  0  0  0  3  0  0  0  0  0  0
  -21.8430   -5.5450   24.8500 C   0  0  0  0  0  0  0  0  0  0  0  0
  -22.2900   -4.8900   23.6900 C   0  0  0  0  0  3  0  0  0  0  0  0
  -22.5670   -5.6300   22.5260 C   0  0  0  0  0  0  0  0  0  0  0  0
  -22.9780   -4.9910   21.4040 F   0  0  0  0  0  0  0  0  0  0  0  0
  -21.5690   -4.8280   25.9640 F   0  0  0  0  0  0  0  0  0  0  0  0
  -24.3960  -14.2060   21.3110 C   0  0  0  0  0  0  0  0  0  0  0  0
  -23.6790  -13.5700   22.2300 N   0  0  0  0  0  0  0  0  0  0  0  0
  -24.0140  -15.2720   20.8290 O   0  0  0  0  0  0  0  0  0  0  0  0
  -24.0050  -12.7060   22.6390 H   0  0  0  0  0  0  0  0  0  0  0  0
  -22.7920  -13.9490   22.5260 H   0  0  0  0  0  0  0  0  0  0  0  0
  -27.1440  -15.6290   20.4190 N   0  0  0  0  0  0  0  0  0  0  0  0
  -26.4690  -16.3610   20.6090 H   0  0  0  0  0  0  0  0  0  0  0  0
  -28.0390  -15.9840   20.1020 H   0  0  0  0  0  0  0  0  0  0  0  0
  -30.1050  -17.9030   24.1320 C   0  0  0  0  0  1  0  0  0  0  0  0
  -30.8000  -17.6320   22.7880 C   0  0  0  0  0  2  0  0  0  0  0  0
  1  3  1  0
  2  3  2  0
  3  7  1  0
  4  1  2  0
  5  2  1  0
  6  4  1  0
  6  5  2  0
  8  6  1  0
  9  4  1  0
 10 11  1  0
 10  9  1  0
 12 11  1  0
 13 24  2  0
 14 12  1  0
 14 19  1  0
 15 23  1  0
 15 25  1  0
 16 18  1  0
 17 23  1  0
 18 19  2  0
 18 17  1  0
 20 14  2  0
 21 20  1  0
 21 16  2  0
 22 16  1  0
 22 15  1  0
 23 13  1  0
 25 27  2  0
 26 25  1  0
 28 26  1  0
 29 38  2  0
 29 34  1  0
 30 26  1  0
 30 34  1  0
 31 30  1  0
 32 33  1  0
 32 31  1  0
 33 29  1  0
 34 35  2  0
 35 36  1  0
 37 36  2  0
 38 37  1  0
 39 13  1  0
 39 40  1  0
 39 49  1  0
 40 43  1  0
 41 45  1  0
 41 40  1  0
 42 41  2  0
 45 44  1  0
 47 45  1  0
 47 48  1  0
 47 46  1  0
 49 52  1  1
 49 50  1  0
 51 49  1  0
 53  5  1  0
 53 96  1  0
 55 54  1  0
 55 53  1  0
 56 55  1  0
 57 63  1  0
 58 63  1  0
 59 60  1  0
 59 58  1  0
 61 60  1  0
 61 70  1  0
 61 62  1  0
 63 62  1  0
 64 57  2  0
 65 66  1  0
 66 57  1  0
 66 56  1  0
 67 68  2  0
 68 87  1  0
 69 68  1  0
 69 72  1  0
 70 71  1  0
 70 67  1  0
 71 69  2  0
 72 73  1  0
 73 74  2  0
 75 78  1  0
 75 74  1  0
 76 75  2  0
 77 76  1  0
 77 72  2  0
 78 79  1  0
 79 84  2  0
 79 80  1  0
 80 81  2  0
 81 82  1  0
 82 86  1  0
 83 82  2  0
 84 83  1  0
 85 84  1  0
 87 88  1  0
 88 91  1  0
 88 90  1  0
 89 87  2  0
 92 67  1  0
 92 93  1  0
 94 92  1  0
 96 95  1  0
M  ISO  4  11 101  12 101  57 100  66 100
M  END
>  <TORSDO>  (89) 
F 23

>  <SCORE>  (89) 
-8.759

>  <name>  (89) 
91

>  <ligand_id>  (89) 
91

>  <original_smiles>  (89) 
[H]c1c([H])c([H])c2c(c1[H])C([H])([H])C([H])([H])C([H])([H])C2([H])N([H])C(=O)C1([H])N(C(=O)C([H])(N([H])C(=O)C([H])(N([H])C([H])([H])[H])C([H])([H])[H])C(C([H])([H])[H])(C([H])([H])[H])C([H])([H])[H])C([H])([H])c2c([H])c(OC([H])([H])C([H])([H])C([H])([H])c3c([H])c(C([H])([H])[H])c([H])c(C([H])(C([H])([H])C([H])([H])[H])C([H])(C([H])([H])[H])C([H])([H])N(C(=O)N4C([H])([H])C([H])([H])C([H])([H])C([H])(n5nc(-c6c([H])c([H])c(Oc7c([H])c([H])c(F)c([H])c7F)c([H])c6[H])c(C(=O)N([H])[H])c5N([H])[H])C4([H])[H])C([H])([H])[H])c3C([H])([H])[H])c([H])c([H])c2C1([H])[H]

>  <smiles>  (89) 
[H]c1c([H])c([H])c2c(c1[H])C([H])([H])C([H])([H])C([H])([H])C2([H])N([H])C(=O)C1([H])N(C(=O)C([H])(N([H])C(=O)C([H])(N([H])C([H])([H])[H])C([H])([H])[H])C(C([H])([H])[H])(C([H])([H])[H])C([H])([H])[H])C([H])([H])c2c([H])c(OC([H])([H])C([H])([H])C([H])([H])c3c([H])c(C([H])([H])[H])c([H])c(C([H])(C([H])([H])C([H])([H])[H])C([H])(C([H])([H])[H])C([H])([H])N(C(=O)N4C([H])([H])C([H])([H])C([H])([H])C([H])(n5nc(-c6c([H])c([H])c(Oc7c([H])c([H])c(F)c([H])c7F)c([H])c6[H])c(C(=O)N([H])[H])c5N([H])[H])C4([H])[H])C([H])([H])[H])c3C([H])([H])[H])c([H])c([H])c2C1([H])[H]

$$$$
92:0:0
     RDKit          3D

 93101  0  0  1  0  0  0  0  0999 V2000
  -28.7620  -21.1770   19.9160 C   0  0  0  0  0  3  0  0  0  0  0  0
  -28.8950  -19.8070   20.2180 C   0  0  0  0  0  3  0  0  0  0  0  0
  -29.7620  -22.0870   20.3240 C   0  0  0  0  0  0  0  0  0  0  0  0
  -30.0220  -19.3550   20.9310 C   0  0  0  0  0  0  0  0  0  0  0  0
  -30.8910  -21.5370   20.9940 C   0  0  0  0  0  0  0  0  0  0  0  0
  -32.0740  -22.3720   21.4540 C   0  0  0  0  0  1  0  0  0  0  0  0
  -31.0090  -20.2170   21.2840 N   0  0  0  0  0  0  0  0  0  0  0  0
  -29.6090  -23.5870   19.9720 C   0  0  0  0  0  3  0  0  0  0  0  0
  -28.7530  -24.4230   20.9620 C   0  0  0  0  0  3  0  0  0  0  0  0
  -28.9130  -25.9750   20.8800 C   0  0  0  0  0  2  0  0  0  0  0  0
  -28.4530  -26.5910   19.6630 O   0  0  0  0  0  0  0  0  0  0  0  0
  -24.6830  -31.6710   23.0290 C   0  0  0  0  0  0  0  0  0  0  0  0
  -27.3030  -27.3490   19.7550 C   0  0  0  0  0  0  0  0  0  0  0  0
  -23.4540  -30.3060   21.3740 C   0  0  0  0  0  3  0  0  0  0  0  0
  -24.8940  -28.8360   19.8590 C   0  0  0  0  0  0  0  0  0  0  0  0
  -25.9690  -30.7030   21.1240 C   0  0  0  0  0  2  0  0  0  0  0  0
  -26.0600  -29.3510   20.4420 C   0  0  0  0  0  0  0  0  0  0  0  0
  -27.2710  -28.6160   20.3910 C   0  0  0  0  0  3  0  0  0  0  0  0
  -26.1270  -26.8580   19.1550 C   0  0  0  0  0  3  0  0  0  0  0  0
  -24.9240  -27.5890   19.2100 C   0  0  0  0  0  3  0  0  0  0  0  0
  -23.6390  -29.6760   19.9680 C   0  0  0  0  0  2  0  0  0  0  0  0
  -24.7210  -30.9070   21.9010 N   0  0  0  0  0  0  0  0  0  0  0  0
  -23.6140  -31.9110   23.6070 O   0  0  0  0  0  0  0  0  0  0  0  0
  -22.8390  -29.2450   22.3160 C   0  0  0  0  0  0  0  0  0  0  0  0
  -21.5160  -29.0430   22.2110 N   0  0  0  0  0  0  0  0  0  0  0  0
  -23.5500  -28.6060   23.0970 O   0  0  0  0  0  0  0  0  0  0  0  0
  -21.0030  -29.6110   21.5510 H   0  0  0  0  0  0  0  0  0  0  0  0
  -18.1790  -27.7470   22.7180 C   0  0  0  0  0  0  0  0  0  0  0  0
  -20.7330  -28.0670   22.9680 C   0  0  0  0  0  3  0  0  0  0  0  0
  -20.8670  -26.6520   22.3580 C   0  0  0  0  0  2  0  0  0  0  0  0
  -19.7640  -26.3230   21.3470 C   0  0  0  0  0  2  0  0  0  0  0  0
  -18.3860  -26.4170   22.0090 C   0  0  0  0  0  2  0  0  0  0  0  0
  -19.2830  -28.5270   23.1520 C   0  0  0  0  0  0  0  0  0  0  0  0
  -19.0400  -29.7710   23.7760 C   0  0  0  0  0  3  0  0  0  0  0  0
  -17.7260  -30.2380   23.9620 C   0  0  0  0  0  3  0  0  0  0  0  0
  -16.6370  -29.4550   23.5430 C   0  0  0  0  0  3  0  0  0  0  0  0
  -16.8640  -28.2090   22.9310 C   0  0  0  0  0  3  0  0  0  0  0  0
  -25.9770  -32.3000   23.6340 C   0  0  0  0  0  3  0  0  0  0  0  0
  -25.6450  -33.6630   24.0700 N   0  0  0  0  0  0  0  0  0  0  0  0
  -25.9110  -34.7720   23.3650 C   0  0  0  0  0  0  0  0  0  0  0  0
  -26.5360  -34.7550   22.3020 O   0  0  0  0  0  0  0  0  0  0  0  0
  -25.0880  -33.7450   24.9080 H   0  0  0  0  0  0  0  0  0  0  0  0
  -24.1120  -36.5200   23.2140 C   0  0  0  0  0  1  0  0  0  0  0  0
  -25.4080  -36.1120   23.9330 C   0  0  0  0  0  3  0  0  0  0  0  0
  -27.5530  -37.0210   24.7080 C   0  0  0  0  0  1  0  0  0  0  0  0
  -26.4020  -37.2020   23.8270 N   0  0  0  0  0  0  0  0  0  0  0  0
  -25.9790  -38.1020   24.0370 H   0  0  0  0  0  0  0  0  0  0  0  0
  -26.5730  -31.4610   24.8310 C   0  0  1  0  0  0  0  0  0  0  0  0
  -25.5340  -31.1220   25.9250 C   0  0  0  0  0  1  0  0  0  0  0  0
  -27.1740  -30.1310   24.3220 C   0  0  0  0  0  1  0  0  0  0  0  0
  -27.7300  -32.2440   25.4960 C   0  0  0  0  0  1  0  0  0  0  0  0
  -30.1260  -17.8800   21.3780 C   0  0  0  0  0  3  0  0  0  0  0  0
  -30.5540  -17.7770   22.7900 C   0  0  0  0  0  0  0  0  0  0  0  0
  -30.8880  -17.6870   23.9020 N   0  0  0  0  0  0  0  0  0  0  0  0
  -30.9610  -16.9620   20.4360 C   0  0  0  0  0  2  0  0  0  0  0  0
  -31.2300  -14.5120   19.9180 C   0  0  0  0  0  0  0  0  0  0  0  0
  -30.8290  -12.3230   18.8550 C   0  0  0  0  0  2  0  0  0  0  0  0
  -29.8410  -12.4940   17.6810 C   0  0  0  0  0  2  0  0  0  0  0  0
  -28.3820  -12.4210   18.1760 C   0  0  0  0  0  2  0  0  0  0  0  0
  -28.1200  -13.3330   19.4020 C   0  0  0  0  0  3  0  0  0  0  0  0
  -29.2050  -13.1230   20.4830 C   0  0  0  0  0  2  0  0  0  0  0  0
  -30.5220  -13.3520   19.8600 N   0  0  0  0  0  0  0  0  0  0  0  0
  -32.3110  -14.6790   19.3480 O   0  0  0  0  0  0  0  0  0  0  0  0
  -30.5940  -15.5310   20.5210 N   0  0  0  0  0  0  0  0  0  0  0  0
  -29.7180  -15.2880   20.9580 H   0  0  0  0  0  0  0  0  0  0  0  0
  -25.7940  -14.0700   20.2220 C   0  0  0  0  0  0  0  0  0  0  0  0
  -24.7030  -13.3560   20.6410 C   0  0  0  0  0  0  0  0  0  0  0  0
  -25.0850  -11.9810   20.5810 C   0  0  0  0  0  0  0  0  0  0  0  0
  -26.7760  -13.1330   19.9390 N   0  0  0  0  0  0  0  0  0  0  0  0
  -26.3560  -11.8710   20.2130 N   0  0  0  0  0  0  0  0  0  0  0  0
  -24.3010  -10.7590   20.8000 C   0  0  0  0  0  0  0  0  0  0  0  0
  -24.6910   -9.7910   21.7510 C   0  0  0  0  0  3  0  0  0  0  0  0
  -23.9100   -8.6330   21.9550 C   0  0  0  0  0  3  0  0  0  0  0  0
  -22.7240   -8.4370   21.2090 C   0  0  0  0  0  0  0  0  0  0  0  0
  -22.3510   -9.3940   20.2480 C   0  0  0  0  0  3  0  0  0  0  0  0
  -23.1330  -10.5430   20.0420 C   0  0  0  0  0  3  0  0  0  0  0  0
  -21.9180   -7.3290   21.3210 O   0  0  0  0  0  0  0  0  0  0  0  0
  -21.7880   -6.6520   22.5050 C   0  0  0  0  0  0  0  0  0  0  0  0
  -21.3590   -7.2920   23.6890 C   0  0  0  0  0  3  0  0  0  0  0  0
  -21.1700   -6.5440   24.8660 C   0  0  0  0  0  3  0  0  0  0  0  0
  -21.4000   -5.1550   24.8650 C   0  0  0  0  0  0  0  0  0  0  0  0
  -21.8220   -4.5130   23.6870 C   0  0  0  0  0  3  0  0  0  0  0  0
  -22.0120   -5.2600   22.5100 C   0  0  0  0  0  0  0  0  0  0  0  0
  -22.3980   -4.6320   21.3730 F   0  0  0  0  0  0  0  0  0  0  0  0
  -21.2140   -4.4330   25.9950 F   0  0  0  0  0  0  0  0  0  0  0  0
  -23.3480  -13.9090   20.9820 C   0  0  0  0  0  0  0  0  0  0  0  0
  -22.6370  -13.2680   21.9040 N   0  0  0  0  0  0  0  0  0  0  0  0
  -22.9310  -14.9450   20.4660 O   0  0  0  0  0  0  0  0  0  0  0  0
  -22.9880  -12.4330   22.3480 H   0  0  0  0  0  0  0  0  0  0  0  0
  -21.7310  -13.6240   22.1760 H   0  0  0  0  0  0  0  0  0  0  0  0
  -26.0250  -15.4280   20.0350 N   0  0  0  0  0  0  0  0  0  0  0  0
  -25.2770  -16.1070   20.1240 H   0  0  0  0  0  0  0  0  0  0  0  0
  -26.8430  -15.8000   19.5710 H   0  0  0  0  0  0  0  0  0  0  0  0
  1  2  2  0
  1  3  1  0
  2  4  1  0
  3  5  2  0
  4  7  2  0
  4 52  1  0
  5  7  1  0
  5  6  1  0
  8  3  1  0
  8  9  2  0
 10  9  1  0
 11 13  1  0
 11 10  1  0
 12 23  2  0
 13 18  1  0
 14 22  1  0
 14 24  1  0
 15 21  1  0
 15 17  1  0
 16 22  1  0
 17 16  1  0
 18 17  2  0
 19 20  1  0
 19 13  2  0
 20 15  2  0
 21 14  1  0
 22 12  1  0
 24 26  2  0
 25 24  1  0
 27 25  1  0
 28 37  2  0
 28 33  1  0
 29 25  1  0
 29 33  1  0
 30 29  1  0
 31 32  1  0
 31 30  1  0
 32 28  1  0
 33 34  2  0
 34 35  1  0
 36 35  2  0
 37 36  1  0
 38 12  1  0
 38 39  1  0
 38 48  1  0
 39 42  1  0
 40 44  1  0
 40 39  1  0
 41 40  2  0
 44 43  1  0
 46 44  1  0
 46 47  1  0
 46 45  1  0
 48 51  1  1
 48 49  1  0
 50 48  1  0
 52 55  1  0
 52 53  1  0
 53 54  3  0
 55 64  1  0
 56 64  1  0
 57 62  1  0
 58 59  1  0
 58 57  1  0
 60 59  1  0
 60 69  1  0
 60 61  1  0
 62 56  1  0
 62 61  1  0
 63 56  2  0
 64 65  1  0
 66 67  2  0
 67 86  1  0
 68 67  1  0
 68 71  1  0
 69 70  1  0
 69 66  1  0
 70 68  2  0
 71 72  1  0
 72 73  2  0
 74 77  1  0
 74 73  1  0
 75 74  2  0
 76 75  1  0
 76 71  2  0
 77 78  1  0
 78 83  2  0
 78 79  1  0
 79 80  2  0
 81 80  1  0
 81 85  1  0
 82 81  2  0
 83 82  1  0
 84 83  1  0
 86 87  1  0
 87 90  1  0
 87 89  1  0
 88 86  2  0
 91 92  1  0
 91 66  1  0
 93 91  1  0
M  ISO  4  10 101  11 101  56 100  64 100
M  END
>  <TORSDO>  (90) 
F 22

>  <SCORE>  (90) 
-11.455

>  <name>  (90) 
92

>  <ligand_id>  (90) 
92

>  <original_smiles>  (90) 
[H]c1c(C([H])(C#N)C([H])([H])N([H])C(=O)N2C([H])([H])C([H])([H])C([H])([H])C([H])(n3nc(-c4c([H])c([H])c(Oc5c([H])c([H])c(F)c([H])c5F)c([H])c4[H])c(C(=O)N([H])[H])c3N([H])[H])C2([H])[H])nc(C([H])([H])[H])c(C([H])([H])C([H])([H])C([H])([H])Oc2c([H])c([H])c3c(c2[H])C([H])([H])N(C(=O)C([H])(N([H])C(=O)C([H])(N([H])C([H])([H])[H])C([H])([H])[H])C(C([H])([H])[H])(C([H])([H])[H])C([H])([H])[H])C([H])(C(=O)N([H])C2([H])c4c([H])c([H])c([H])c([H])c4C([H])([H])C([H])([H])C2([H])[H])C3([H])[H])c1[H]

>  <smiles>  (90) 
[H]c1c(C([H])(C#N)C([H])([H])N([H])C(=O)N2C([H])([H])C([H])([H])C([H])([H])C([H])(n3nc(-c4c([H])c([H])c(Oc5c([H])c([H])c(F)c([H])c5F)c([H])c4[H])c(C(=O)N([H])[H])c3N([H])[H])C2([H])[H])nc(C([H])([H])[H])c(C([H])([H])C([H])([H])C([H])([H])Oc2c([H])c([H])c3c(c2[H])C([H])([H])N(C(=O)C([H])(N([H])C(=O)C([H])(N([H])C([H])([H])[H])C([H])([H])[H])C(C([H])([H])[H])(C([H])([H])[H])C([H])([H])[H])C([H])(C(=O)N([H])C2([H])c4c([H])c([H])c([H])c([H])c4C([H])([H])C([H])([H])C2([H])[H])C3([H])[H])c1[H]

$$$$
93:0:0
     RDKit          3D

 90 98  0  0  1  0  0  0  0  0999 V2000
  -29.4020  -22.7510   19.8750 C   0  0  0  0  0  3  0  0  0  0  0  0
  -30.7110  -24.9060   19.4930 C   0  0  0  0  0  1  0  0  0  0  0  0
  -29.5030  -24.2930   20.2250 C   0  0  0  0  0  3  0  0  0  0  0  0
  -28.2290  -25.1500   19.9110 C   0  0  0  0  0  2  0  0  0  0  0  0
  -28.3580  -26.5840   20.1600 O   0  0  0  0  0  0  0  0  0  0  0  0
  -24.6080  -31.8740   23.2140 C   0  0  0  0  0  0  0  0  0  0  0  0
  -27.2030  -27.3650   20.1290 C   0  0  0  0  0  0  0  0  0  0  0  0
  -23.3840  -30.4730   21.5880 C   0  0  0  0  0  3  0  0  0  0  0  0
  -24.8180  -28.9250   20.1520 C   0  0  0  0  0  0  0  0  0  0  0  0
  -25.9140  -30.8090   21.3700 C   0  0  0  0  0  2  0  0  0  0  0  0
  -25.9890  -29.4330   20.7280 C   0  0  0  0  0  0  0  0  0  0  0  0
  -27.1840  -28.6640   20.7070 C   0  0  0  0  0  3  0  0  0  0  0  0
  -26.0060  -26.8900   19.5430 C   0  0  0  0  0  3  0  0  0  0  0  0
  -24.8250  -27.6540   19.5560 C   0  0  0  0  0  3  0  0  0  0  0  0
  -23.5790  -29.7900   20.2090 C   0  0  0  0  0  2  0  0  0  0  0  0
  -24.6540  -31.0690   22.1140 N   0  0  0  0  0  0  0  0  0  0  0  0
  -23.5310  -32.1530   23.7620 O   0  0  0  0  0  0  0  0  0  0  0  0
  -22.7350  -29.4570   22.5580 C   0  0  0  0  0  0  0  0  0  0  0  0
  -21.4090  -29.2790   22.4420 N   0  0  0  0  0  0  0  0  0  0  0  0
  -23.4230  -28.8330   23.3700 O   0  0  0  0  0  0  0  0  0  0  0  0
  -20.9150  -29.8350   21.7590 H   0  0  0  0  0  0  0  0  0  0  0  0
  -18.0370  -28.0840   22.9640 C   0  0  0  0  0  0  0  0  0  0  0  0
  -20.5960  -28.3440   23.2210 C   0  0  0  0  0  3  0  0  0  0  0  0
  -20.6960  -26.9100   22.6510 C   0  0  0  0  0  2  0  0  0  0  0  0
  -19.5890  -26.5820   21.6450 C   0  0  0  0  0  2  0  0  0  0  0  0
  -18.2110  -26.7300   22.2960 C   0  0  0  0  0  2  0  0  0  0  0  0
  -19.1570  -28.8480   23.3850 C   0  0  0  0  0  0  0  0  0  0  0  0
  -18.9430  -30.1130   23.9720 C   0  0  0  0  0  3  0  0  0  0  0  0
  -17.6390  -30.6170   24.1410 C   0  0  0  0  0  3  0  0  0  0  0  0
  -16.5320  -29.8500   23.7340 C   0  0  0  0  0  3  0  0  0  0  0  0
  -16.7330  -28.5860   23.1530 C   0  0  0  0  0  3  0  0  0  0  0  0
  -25.8980  -32.5040   23.8210 C   0  0  0  0  0  3  0  0  0  0  0  0
  -25.5880  -33.8980   24.1670 N   0  0  0  0  0  0  0  0  0  0  0  0
  -25.9070  -34.9580   23.4120 C   0  0  0  0  0  0  0  0  0  0  0  0
  -26.5630  -34.8660   22.3710 O   0  0  0  0  0  0  0  0  0  0  0  0
  -24.9980  -34.0430   24.9730 H   0  0  0  0  0  0  0  0  0  0  0  0
  -24.1630  -36.7440   23.1030 C   0  0  0  0  0  1  0  0  0  0  0  0
  -25.4210  -36.3410   23.8880 C   0  0  0  0  0  3  0  0  0  0  0  0
  -27.5700  -37.2280   24.6790 C   0  0  0  0  0  1  0  0  0  0  0  0
  -26.4460  -37.4000   23.7630 N   0  0  0  0  0  0  0  0  0  0  0  0
  -26.0390  -38.3160   23.9290 H   0  0  0  0  0  0  0  0  0  0  0  0
  -26.4360  -31.7240   25.0840 C   0  0  1  0  0  0  0  0  0  0  0  0
  -25.3600  -31.4780   26.1680 C   0  0  0  0  0  1  0  0  0  0  0  0
  -27.0130  -30.3500   24.6720 C   0  0  0  0  0  1  0  0  0  0  0  0
  -27.5940  -32.5160   25.7350 C   0  0  0  0  0  1  0  0  0  0  0  0
  -29.0140  -21.7700   21.0290 C   0  0  0  0  0  3  0  0  0  0  0  0
  -30.1300  -19.4630   21.4360 C   0  0  0  0  0  3  0  0  0  0  0  0
  -29.8880  -18.2110   20.9240 C   0  0  0  0  0  0  0  0  0  0  0  0
  -28.8750  -18.3560   19.9720 N   0  0  0  0  0  0  0  0  0  0  0  0
  -28.5050  -19.6130   19.9030 N   0  0  0  0  0  0  0  0  0  0  0  0
  -29.2560  -20.3240   20.7850 N   0  0  0  0  0  0  0  0  0  0  0  0
  -30.6080  -16.9030   21.2740 C   0  0  0  0  0  2  0  0  0  0  0  0
  -30.6450  -14.5330   20.4100 C   0  0  0  0  0  0  0  0  0  0  0  0
  -30.3270  -12.3490   19.2860 C   0  0  0  0  0  2  0  0  0  0  0  0
  -29.3740  -12.5200   18.0850 C   0  0  0  0  0  2  0  0  0  0  0  0
  -27.9060  -12.3810   18.5330 C   0  0  0  0  0  2  0  0  0  0  0  0
  -27.5790  -13.2390   19.7860 C   0  0  0  0  0  3  0  0  0  0  0  0
  -28.6450  -13.0590   20.8860 C   0  0  0  0  0  2  0  0  0  0  0  0
  -29.9540  -13.3630   20.2920 N   0  0  0  0  0  0  0  0  0  0  0  0
  -31.7910  -14.6550   19.9690 O   0  0  0  0  0  0  0  0  0  0  0  0
  -29.9830  -15.6010   20.9220 N   0  0  0  0  0  0  0  0  0  0  0  0
  -29.0190  -15.4740   21.1860 H   0  0  0  0  0  0  0  0  0  0  0  0
  -25.1990  -13.8560   20.5360 C   0  0  0  0  0  0  0  0  0  0  0  0
  -24.1320  -13.0890   20.9200 C   0  0  0  0  0  0  0  0  0  0  0  0
  -24.5850  -11.7360   20.8840 C   0  0  0  0  0  0  0  0  0  0  0  0
  -26.2340  -12.9690   20.2870 N   0  0  0  0  0  0  0  0  0  0  0  0
  -25.8700  -11.6880   20.5570 N   0  0  0  0  0  0  0  0  0  0  0  0
  -23.8530  -10.4790   21.0830 C   0  0  0  0  0  0  0  0  0  0  0  0
  -24.3090   -9.4940   21.9870 C   0  0  0  0  0  3  0  0  0  0  0  0
  -23.5780   -8.3010   22.1740 C   0  0  0  0  0  3  0  0  0  0  0  0
  -22.3760   -8.0840   21.4600 C   0  0  0  0  0  0  0  0  0  0  0  0
  -21.9400   -9.0570   20.5430 C   0  0  0  0  0  3  0  0  0  0  0  0
  -22.6710  -10.2410   20.3540 C   0  0  0  0  0  3  0  0  0  0  0  0
  -21.6130   -6.9460   21.5590 O   0  0  0  0  0  0  0  0  0  0  0  0
  -21.6200   -6.1720   22.6910 C   0  0  0  0  0  0  0  0  0  0  0  0
  -21.2900   -6.7000   23.9580 C   0  0  0  0  0  3  0  0  0  0  0  0
  -21.2410   -5.8540   25.0820 C   0  0  0  0  0  3  0  0  0  0  0  0
  -21.5100   -4.4790   24.9430 C   0  0  0  0  0  0  0  0  0  0  0  0
  -21.8320   -3.9500   23.6800 C   0  0  0  0  0  3  0  0  0  0  0  0
  -21.8840   -4.7930   22.5580 C   0  0  0  0  0  0  0  0  0  0  0  0
  -22.1730   -4.2750   21.3400 F   0  0  0  0  0  0  0  0  0  0  0  0
  -21.4550   -3.6640   26.0210 F   0  0  0  0  0  0  0  0  0  0  0  0
  -22.7420  -13.5760   21.2080 C   0  0  0  0  0  0  0  0  0  0  0  0
  -22.0210  -12.8870   22.0870 N   0  0  0  0  0  0  0  0  0  0  0  0
  -22.3020  -14.6000   20.6880 O   0  0  0  0  0  0  0  0  0  0  0  0
  -22.3910  -12.0620   22.5340 H   0  0  0  0  0  0  0  0  0  0  0  0
  -21.0850  -13.1900   22.3160 H   0  0  0  0  0  0  0  0  0  0  0  0
  -25.3680  -15.2260   20.3590 N   0  0  0  0  0  0  0  0  0  0  0  0
  -24.6030  -15.8790   20.4820 H   0  0  0  0  0  0  0  0  0  0  0  0
  -26.2110  -15.6650   20.0110 H   0  0  0  0  0  0  0  0  0  0  0  0
  1  3  1  0
  1 46  2  0
  3  2  1  0
  4  5  1  0
  4  3  1  0
  6 17  2  0
  7  5  1  0
  7 12  1  0
  8 16  1  0
  8 18  1  0
  9 15  1  0
  9 11  1  0
 10 16  1  0
 11 10  1  0
 12 11  2  0
 13 14  1  0
 13  7  2  0
 14  9  2  0
 15  8  1  0
 16  6  1  0
 18 20  2  0
 19 18  1  0
 21 19  1  0
 22 31  2  0
 22 27  1  0
 23 19  1  0
 23 27  1  0
 24 23  1  0
 25 26  1  0
 25 24  1  0
 26 22  1  0
 27 28  2  0
 28 29  1  0
 30 29  2  0
 31 30  1  0
 32  6  1  0
 32 33  1  0
 32 42  1  0
 33 36  1  0
 34 38  1  0
 34 33  1  0
 35 34  2  0
 38 37  1  0
 40 38  1  0
 40 41  1  0
 40 39  1  0
 42 45  1  1
 42 43  1  0
 44 42  1  0
 48 52  1  0
 48 47  2  0
 49 48  1  0
 50 49  2  0
 50 51  1  0
 51 46  1  0
 51 47  1  0
 53 61  1  0
 54 59  1  0
 55 56  1  0
 55 54  1  0
 57 56  1  0
 57 66  1  0
 57 58  1  0
 59 53  1  0
 59 58  1  0
 60 53  2  0
 61 62  1  0
 61 52  1  0
 63 64  2  0
 64 83  1  0
 65 64  1  0
 65 68  1  0
 66 63  1  0
 66 67  1  0
 67 65  2  0
 68 69  1  0
 69 70  2  0
 71 74  1  0
 71 70  1  0
 72 71  2  0
 73 72  1  0
 73 68  2  0
 74 75  1  0
 75 76  1  0
 76 77  2  0
 78 77  1  0
 78 82  1  0
 79 78  2  0
 80 75  2  0
 80 79  1  0
 81 80  1  0
 83 84  1  0
 84 87  1  0
 84 86  1  0
 85 83  2  0
 88 89  1  0
 88 63  1  0
 90 88  1  0
M  ISO  4   4 101   5 101  53 100  61 100
M  END
>  <TORSDO>  (91) 
F 21

>  <SCORE>  (91) 
-13.420

>  <name>  (91) 
93

>  <ligand_id>  (91) 
93

>  <original_smiles>  (91) 
[H]c1c([H])c([H])c2c(c1[H])C([H])([H])C([H])([H])C([H])([H])C2([H])N([H])C(=O)C1([H])N(C(=O)C([H])(N([H])C(=O)C([H])(N([H])C([H])([H])[H])C([H])([H])[H])C(C([H])([H])[H])(C([H])([H])[H])C([H])([H])[H])C([H])([H])c2c([H])c(OC([H])([H])C([H])(C([H])([H])[H])C([H])([H])C([H])([H])n3nnc(C([H])([H])N([H])C(=O)N4C([H])([H])C([H])([H])C([H])([H])C([H])(n5nc(-c6c([H])c([H])c(Oc7c([H])c([H])c(F)c([H])c7F)c([H])c6[H])c(C(=O)N([H])[H])c5N([H])[H])C4([H])[H])c3[H])c([H])c([H])c2C1([H])[H]

>  <smiles>  (91) 
[H]c1c([H])c([H])c2c(c1[H])C([H])([H])C([H])([H])C([H])([H])C2([H])N([H])C(=O)C1([H])N(C(=O)C([H])(N([H])C(=O)C([H])(N([H])C([H])([H])[H])C([H])([H])[H])C(C([H])([H])[H])(C([H])([H])[H])C([H])([H])[H])C([H])([H])c2c([H])c(OC([H])([H])C([H])(C([H])([H])[H])C([H])([H])C([H])([H])n3nnc(C([H])([H])N([H])C(=O)N4C([H])([H])C([H])([H])C([H])([H])C([H])(n5nc(-c6c([H])c([H])c(Oc7c([H])c([H])c(F)c([H])c7F)c([H])c6[H])c(C(=O)N([H])[H])c5N([H])[H])C4([H])[H])c3[H])c([H])c([H])c2C1([H])[H]

$$$$
94:0:0
     RDKit          3D

 95103  0  0  1  0  0  0  0  0999 V2000
  -26.9900  -20.4650   18.5750 C   0  0  0  0  0  3  0  0  0  0  0  0
  -25.9240  -21.4510   18.3850 C   0  0  0  0  0  0  0  0  0  0  0  0
  -25.6720  -22.4540   19.3530 C   0  0  0  0  0  0  0  0  0  0  0  0
  -27.7410  -20.2550   19.8030 C   0  0  0  0  0  0  0  0  0  0  0  0
  -26.5170  -22.4030   20.5330 C   0  0  0  0  0  0  0  0  0  0  0  0
  -24.6050  -23.5730   19.0610 C   0  0  0  0  0  1  0  0  0  0  0  0
  -27.4500  -21.3050   20.6990 N   0  0  0  0  0  0  0  0  0  0  0  0
  -26.3820  -25.2170   20.9070 C   0  0  0  0  0  1  0  0  0  0  0  0
  -27.1600  -23.7550   22.8840 C   0  0  0  0  0  1  0  0  0  0  0  0
  -26.3390  -23.7080   21.5230 C   0  0  0  0  0  3  0  0  0  0  0  0
  -25.0120  -21.5370   17.1160 C   0  0  0  0  0  2  0  0  0  0  0  0
  -25.0430  -22.8670   16.2410 C   0  0  0  0  0  2  0  0  0  0  0  0
  -26.3430  -23.7060   16.2310 C   0  0  0  0  0  2  0  0  0  0  0  0
  -26.7630  -24.8320   17.2830 C   0  0  0  0  0  2  0  0  0  0  0  0
  -27.8280  -25.8200   16.6540 C   0  0  0  0  0  2  0  0  0  0  0  0
  -27.9820  -27.2130   16.9760 O   0  0  0  0  0  0  0  0  0  0  0  0
  -25.6760  -29.5800   23.3370 C   0  0  0  0  0  0  0  0  0  0  0  0
  -27.0090  -27.8950   17.6860 C   0  0  0  0  0  0  0  0  0  0  0  0
  -24.0610  -29.6770   21.4580 C   0  0  0  0  0  3  0  0  0  0  0  0
  -25.0160  -29.2940   19.1310 C   0  0  0  0  0  0  0  0  0  0  0  0
  -26.5860  -29.7840   21.0290 C   0  0  0  0  0  2  0  0  0  0  0  0
  -26.3030  -29.1620   19.6810 C   0  0  0  0  0  0  0  0  0  0  0  0
  -27.2860  -28.4430   18.9700 C   0  0  0  0  0  3  0  0  0  0  0  0
  -25.7290  -28.1260   17.1220 C   0  0  0  0  0  3  0  0  0  0  0  0
  -24.7100  -28.7460   17.8730 C   0  0  0  0  0  3  0  0  0  0  0  0
  -23.9990  -30.0440   19.9480 C   0  0  0  0  0  2  0  0  0  0  0  0
  -25.4570  -29.6420   21.9870 N   0  0  0  0  0  0  0  0  0  0  0  0
  -24.7300  -29.5560   24.1420 O   0  0  0  0  0  0  0  0  0  0  0  0
  -23.2860  -28.3770   21.6720 C   0  0  0  0  0  0  0  0  0  0  0  0
  -21.9490  -28.5230   21.6110 N   0  0  0  0  0  0  0  0  0  0  0  0
  -23.8430  -27.3050   21.8930 O   0  0  0  0  0  0  0  0  0  0  0  0
  -21.6000  -29.4970   21.4630 H   0  0  0  0  0  0  0  0  0  0  0  0
  -18.4340  -27.3700   21.4180 C   0  0  0  0  0  0  0  0  0  0  0  0
  -20.9720  -27.4240   21.7430 C   0  0  0  0  0  0  0  0  0  0  0  0
  -21.0540  -26.5690   20.4960 C   0  0  0  0  0  3  0  0  0  0  0  0
  -19.8360  -26.2800   19.5180 C   0  0  0  0  0  3  0  0  0  0  0  0
  -18.4630  -26.7300   20.0510 C   0  0  0  0  0  3  0  0  0  0  0  0
  -19.5600  -27.7870   22.1470 C   0  0  0  0  0  0  0  0  0  0  0  0
  -19.3330  -28.6290   23.2450 C   0  0  0  0  0  3  0  0  0  0  0  0
  -18.0670  -29.0420   23.6370 C   0  0  0  0  0  3  0  0  0  0  0  0
  -16.9560  -28.5850   22.9700 C   0  0  0  0  0  3  0  0  0  0  0  0
  -17.1660  -27.7570   21.8470 C   0  0  0  0  0  3  0  0  0  0  0  0
  -27.0900  -29.5790   23.9200 C   0  0  0  0  0  3  0  0  0  0  0  0
  -27.0960  -30.3920   25.1480 N   0  0  0  0  0  0  0  0  0  0  0  0
  -27.6200  -31.6200   25.2250 C   0  0  0  0  0  0  0  0  0  0  0  0
  -28.2420  -32.1590   24.3080 O   0  0  0  0  0  0  0  0  0  0  0  0
  -26.5950  -30.0210   25.9420 H   0  0  0  0  0  0  0  0  0  0  0  0
  -26.3040  -33.4030   26.3850 C   0  0  0  0  0  1  0  0  0  0  0  0
  -27.4200  -32.3650   26.5640 C   0  0  0  0  0  3  0  0  0  0  0  0
  -29.6700  -32.0810   27.4910 C   0  0  0  0  0  1  0  0  0  0  0  0
  -28.6490  -33.0320   27.0520 N   0  0  0  0  0  0  0  0  0  0  0  0
  -28.4480  -33.6580   27.8320 H   0  0  0  0  0  0  0  0  0  0  0  0
  -27.6260  -28.1360   24.2170 C   0  0  1  0  0  0  0  0  0  0  0  0
  -26.6640  -27.2730   25.0670 C   0  0  0  0  0  1  0  0  0  0  0  0
  -27.8780  -27.3710   22.8980 C   0  0  0  0  0  1  0  0  0  0  0  0
  -28.9900  -28.2440   24.9390 C   0  0  0  0  0  1  0  0  0  0  0  0
  -29.2010  -19.2300   19.9580 C   0  0  0  0  0  2  0  0  0  0  0  0
  -30.8980  -16.6670   19.7870 C   0  0  0  0  0  0  0  0  0  0  0  0
  -31.2470  -14.2290   18.9760 C   0  0  0  0  0  2  0  0  0  0  0  0
  -30.3170  -13.8750   17.8000 C   0  0  0  0  0  2  0  0  0  0  0  0
  -28.8620  -13.6580   18.2620 C   0  0  0  0  0  2  0  0  0  0  0  0
  -28.3670  -14.7270   19.2630 C   0  0  0  0  0  3  0  0  0  0  0  0
  -29.3420  -14.8600   20.4300 C   0  0  0  0  0  2  0  0  0  0  0  0
  -30.5860  -15.2930   19.7840 N   0  0  0  0  0  0  0  0  0  0  0  0
  -32.0940  -16.9190   19.5860 O   0  0  0  0  0  0  0  0  0  0  0  0
  -29.8010  -17.6940   19.9520 N   0  0  0  0  0  0  0  0  0  0  0  0
  -30.4020  -18.0790   20.6510 H   0  0  0  0  0  0  0  0  0  0  0  0
  -26.0370  -15.4180   20.0070 C   0  0  0  0  0  0  0  0  0  0  0  0
  -24.9530  -14.7070   20.3630 C   0  0  0  0  0  0  0  0  0  0  0  0
  -25.3500  -13.3260   20.3450 C   0  0  0  0  0  0  0  0  0  0  0  0
  -27.0320  -14.5000   19.7400 N   0  0  0  0  0  0  0  0  0  0  0  0
  -26.6340  -13.2310   20.0350 N   0  0  0  0  0  0  0  0  0  0  0  0
  -24.5730  -12.1040   20.5340 C   0  0  0  0  0  0  0  0  0  0  0  0
  -25.0050  -11.0890   21.4190 C   0  0  0  0  0  3  0  0  0  0  0  0
  -24.2380   -9.9180   21.5990 C   0  0  0  0  0  3  0  0  0  0  0  0
  -23.0200   -9.7550   20.8930 C   0  0  0  0  0  0  0  0  0  0  0  0
  -22.6050  -10.7570   19.9960 C   0  0  0  0  0  3  0  0  0  0  0  0
  -23.3730  -11.9170   19.8150 C   0  0  0  0  0  3  0  0  0  0  0  0
  -22.2180   -8.6440   20.9850 O   0  0  0  0  0  0  0  0  0  0  0  0
  -22.2160   -7.8520   22.1040 C   0  0  0  0  0  0  0  0  0  0  0  0
  -22.0000   -8.3820   23.3950 C   0  0  0  0  0  3  0  0  0  0  0  0
  -21.9330   -7.5210   24.5090 C   0  0  0  0  0  3  0  0  0  0  0  0
  -22.0710   -6.1310   24.3340 C   0  0  0  0  0  0  0  0  0  0  0  0
  -22.2790   -5.6000   23.0500 C   0  0  0  0  0  3  0  0  0  0  0  0
  -22.3480   -6.4580   21.9370 C   0  0  0  0  0  0  0  0  0  0  0  0
  -22.5250   -5.9400   20.6980 F   0  0  0  0  0  0  0  0  0  0  0  0
  -22.0000   -5.3050   25.4020 F   0  0  0  0  0  0  0  0  0  0  0  0
  -23.5570  -15.2260   20.6220 C   0  0  0  0  0  0  0  0  0  0  0  0
  -22.7880  -14.5820   21.4840 N   0  0  0  0  0  0  0  0  0  0  0  0
  -23.1720  -16.2720   20.0840 O   0  0  0  0  0  0  0  0  0  0  0  0
  -23.0980  -13.7370   21.9540 H   0  0  0  0  0  0  0  0  0  0  0  0
  -21.8540  -14.9200   21.6740 H   0  0  0  0  0  0  0  0  0  0  0  0
  -26.2440  -16.7890   19.8280 N   0  0  0  0  0  0  0  0  0  0  0  0
  -25.4870  -17.4580   19.9540 H   0  0  0  0  0  0  0  0  0  0  0  0
  -27.1210  -17.2400   19.5900 H   0  0  0  0  0  0  0  0  0  0  0  0
  1  4  1  0
  2  1  2  0
  2  3  1  0
  3  5  2  0
  4 57  1  0
  4  7  2  0
  5  7  1  0
  5 10  1  0
  6  3  1  0
  8 10  1  0
 10  9  1  0
 11  2  1  0
 12 11  1  0
 13 12  1  0
 13 14  1  0
 15 16  1  0
 15 14  1  0
 16 18  1  0
 17 28  2  0
 18 23  1  0
 19 29  1  0
 19 27  1  0
 20 22  1  0
 20 26  1  0
 21 27  1  0
 22 21  1  0
 23 22  2  0
 24 18  2  0
 24 25  1  0
 25 20  2  0
 26 19  1  0
 27 17  1  0
 29 31  2  0
 30 29  1  0
 30 34  1  0
 32 30  1  0
 33 42  2  0
 33 38  1  0
 34 38  1  0
 35 34  2  0
 36 37  2  0
 36 35  1  0
 37 33  1  0
 38 39  2  0
 39 40  1  0
 41 40  2  0
 42 41  1  0
 43 17  1  0
 43 53  1  0
 43 44  1  0
 44 45  1  0
 44 47  1  0
 45 49  1  0
 46 45  2  0
 49 48  1  0
 49 51  1  0
 51 50  1  0
 51 52  1  0
 53 56  1  1
 53 54  1  0
 55 53  1  0
 58 66  1  0
 59 64  1  0
 60 61  1  0
 60 59  1  0
 62 61  1  0
 62 71  1  0
 62 63  1  0
 64 58  1  0
 64 63  1  0
 65 58  2  0
 66 57  1  0
 66 67  1  0
 68 69  2  0
 69 88  1  0
 70 69  1  0
 70 73  1  0
 71 68  1  0
 71 72  1  0
 72 70  2  0
 73 74  1  0
 74 75  2  0
 76 79  1  0
 76 75  1  0
 77 76  2  0
 78 77  1  0
 78 73  2  0
 79 80  1  0
 80 81  1  0
 81 82  2  0
 83 82  1  0
 83 87  1  0
 84 83  2  0
 85 80  2  0
 85 84  1  0
 86 85  1  0
 88 89  1  0
 89 92  1  0
 89 91  1  0
 90 88  2  0
 93 94  1  0
 93 68  1  0
 95 93  1  0
M  ISO  4  15 101  16 101  58 100  66 100
M  END
>  <TORSDO>  (92) 
F 23

>  <SCORE>  (92) 
-2.978

>  <name>  (92) 
94

>  <ligand_id>  (92) 
94

>  <original_smiles>  (92) 
[H]c1c([H])c([H])c2c(c1[H])C([H])([H])C([H])([H])C([H])([H])C2([H])N([H])C(=O)C1([H])N(C(=O)C([H])(N([H])C(=O)C([H])(N([H])C([H])([H])[H])C([H])([H])[H])C(C([H])([H])[H])(C([H])([H])[H])C([H])([H])[H])C([H])([H])c2c([H])c(OC([H])([H])C([H])([H])C([H])([H])C([H])([H])C([H])([H])c3c([H])c(C([H])([H])N([H])C(=O)N4C([H])([H])C([H])([H])C([H])([H])C([H])(n5nc(-c6c([H])c([H])c(Oc7c([H])c([H])c(F)c([H])c7F)c([H])c6[H])c(C(=O)N([H])[H])c5N([H])[H])C4([H])[H])nc(C([H])(C([H])([H])[H])C([H])([H])[H])c3C([H])([H])[H])c([H])c([H])c2C1([H])[H]

>  <smiles>  (92) 
[H]c1c([H])c([H])c2c(c1[H])C([H])([H])C([H])([H])C([H])([H])C2([H])N([H])C(=O)C1([H])N(C(=O)C([H])(N([H])C(=O)C([H])(N([H])C([H])([H])[H])C([H])([H])[H])C(C([H])([H])[H])(C([H])([H])[H])C([H])([H])[H])C([H])([H])c2c([H])c(OC([H])([H])C([H])([H])C([H])([H])C([H])([H])C([H])([H])c3c([H])c(C([H])([H])N([H])C(=O)N4C([H])([H])C([H])([H])C([H])([H])C([H])(n5nc(-c6c([H])c([H])c(Oc7c([H])c([H])c(F)c([H])c7F)c([H])c6[H])c(C(=O)N([H])[H])c5N([H])[H])C4([H])[H])nc(C([H])(C([H])([H])[H])C([H])([H])[H])c3C([H])([H])[H])c([H])c([H])c2C1([H])[H]

$$$$
95:0:0
     RDKit          3D

 92100  0  0  1  0  0  0  0  0999 V2000
  -28.1930  -18.5750   20.4910 C   0  0  0  0  0  3  0  0  0  0  0  0
  -29.8240  -19.9890   21.0560 C   0  0  0  0  0  3  0  0  0  0  0  0
  -27.6690  -19.8410   20.4390 C   0  0  0  0  0  0  0  0  0  0  0  0
  -28.7120  -20.7510   20.8010 C   0  0  0  0  0  0  0  0  0  0  0  0
  -26.2430  -20.1880   20.0870 C   0  0  0  0  0  1  0  0  0  0  0  0
  -29.5160  -18.6510   20.8830 N   0  0  0  0  0  0  0  0  0  0  0  0
  -29.5960  -22.7620   22.0070 C   0  0  0  0  0  1  0  0  0  0  0  0
  -28.6080  -22.2630   20.9360 C   0  0  0  0  0  3  0  0  0  0  0  0
  -28.7580  -22.9960   19.5790 C   0  0  0  0  0  2  0  0  0  0  0  0
  -28.3580  -24.4930   19.6420 C   0  0  0  0  0  2  0  0  0  0  0  0
  -28.4110  -25.2520   18.2980 C   0  0  0  0  0  2  0  0  0  0  0  0
  -28.3610  -26.6680   18.5100 O   0  0  0  0  0  0  0  0  0  0  0  0
  -24.7980  -30.8870   22.9970 C   0  0  0  0  0  0  0  0  0  0  0  0
  -27.1620  -27.3100   18.7620 C   0  0  0  0  0  0  0  0  0  0  0  0
  -23.4610  -29.9100   21.1580 C   0  0  0  0  0  3  0  0  0  0  0  0
  -24.7880  -28.7550   19.3090 C   0  0  0  0  0  0  0  0  0  0  0  0
  -25.9700  -30.3110   20.8720 C   0  0  0  0  0  2  0  0  0  0  0  0
  -25.9890  -29.1310   19.9180 C   0  0  0  0  0  0  0  0  0  0  0  0
  -27.1760  -28.4180   19.6390 C   0  0  0  0  0  3  0  0  0  0  0  0
  -25.9370  -26.9370   18.1660 C   0  0  0  0  0  3  0  0  0  0  0  0
  -24.7570  -27.6550   18.4330 C   0  0  0  0  0  3  0  0  0  0  0  0
  -23.5590  -29.5700   19.6460 C   0  0  0  0  0  2  0  0  0  0  0  0
  -24.7670  -30.3720   21.7330 N   0  0  0  0  0  0  0  0  0  0  0  0
  -23.7600  -31.0210   23.6580 O   0  0  0  0  0  0  0  0  0  0  0  0
  -22.8650  -28.6890   21.8950 C   0  0  0  0  0  0  0  0  0  0  0  0
  -21.5350  -28.5260   21.8030 N   0  0  0  0  0  0  0  0  0  0  0  0
  -23.5920  -27.8990   22.5060 O   0  0  0  0  0  0  0  0  0  0  0  0
  -21.0080  -29.2230   21.2950 H   0  0  0  0  0  0  0  0  0  0  0  0
  -18.2020  -27.1670   22.1030 C   0  0  0  0  0  0  0  0  0  0  0  0
  -20.7580  -27.4270   22.3780 C   0  0  0  0  0  3  0  0  0  0  0  0
  -20.8770  -26.1490   21.5140 C   0  0  0  0  0  2  0  0  0  0  0  0
  -19.7600  -26.0160   20.4750 C   0  0  0  0  0  2  0  0  0  0  0  0
  -18.3910  -25.9920   21.1590 C   0  0  0  0  0  2  0  0  0  0  0  0
  -19.3130  -27.8520   22.6600 C   0  0  0  0  0  0  0  0  0  0  0  0
  -19.0820  -28.9630   23.5000 C   0  0  0  0  0  3  0  0  0  0  0  0
  -17.7710  -29.3870   23.7880 C   0  0  0  0  0  3  0  0  0  0  0  0
  -16.6730  -28.6920   23.2500 C   0  0  0  0  0  3  0  0  0  0  0  0
  -16.8910  -27.5830   22.4140 C   0  0  0  0  0  3  0  0  0  0  0  0
  -26.1320  -31.3540   23.6580 C   0  0  0  0  0  3  0  0  0  0  0  0
  -25.8630  -32.6220   24.3520 N   0  0  0  0  0  0  0  0  0  0  0  0
  -26.2440  -33.8260   23.9080 C   0  0  0  0  0  0  0  0  0  0  0  0
  -26.9290  -33.9780   22.8930 O   0  0  0  0  0  0  0  0  0  0  0  0
  -25.2610  -32.5750   25.1610 H   0  0  0  0  0  0  0  0  0  0  0  0
  -24.6270  -35.7470   23.9970 C   0  0  0  0  0  1  0  0  0  0  0  0
  -25.7950  -35.0570   24.7190 C   0  0  0  0  0  3  0  0  0  0  0  0
  -27.9070  -35.5320   25.8760 C   0  0  0  0  0  1  0  0  0  0  0  0
  -26.8820  -36.0300   24.9610 N   0  0  0  0  0  0  0  0  0  0  0  0
  -26.5130  -36.8980   25.3430 H   0  0  0  0  0  0  0  0  0  0  0  0
  -26.7380  -30.2910   24.6550 C   0  0  1  0  0  0  0  0  0  0  0  0
  -25.7290  -29.7790   25.7120 C   0  0  0  0  0  1  0  0  0  0  0  0
  -27.2680  -29.0670   23.8770 C   0  0  0  0  0  1  0  0  0  0  0  0
  -27.9540  -30.8990   25.3960 C   0  0  0  0  0  1  0  0  0  0  0  0
  -30.4460  -17.5520   21.1250 C   0  0  0  0  0  2  0  0  0  0  0  0
  -29.9150  -16.1400   20.7730 C   0  0  0  0  0  2  0  0  0  0  0  0
  -31.2960  -14.2140   20.0330 C   0  0  0  0  0  0  0  0  0  0  0  0
  -30.8500  -11.9940   19.0300 C   0  0  0  0  0  2  0  0  0  0  0  0
  -29.8780  -12.0960   17.8400 C   0  0  0  0  0  2  0  0  0  0  0  0
  -28.4110  -12.0850   18.3160 C   0  0  0  0  0  2  0  0  0  0  0  0
  -28.1520  -13.0790   19.4780 C   0  0  0  0  0  3  0  0  0  0  0  0
  -29.2150  -12.9030   20.5800 C   0  0  0  0  0  2  0  0  0  0  0  0
  -30.5440  -13.0840   19.9660 N   0  0  0  0  0  0  0  0  0  0  0  0
  -32.3250  -14.3860   19.3710 O   0  0  0  0  0  0  0  0  0  0  0  0
  -31.6490  -15.1010   22.2630 C   0  0  0  0  0  1  0  0  0  0  0  0
  -30.9170  -15.0800   20.9990 N   0  0  0  0  0  0  0  0  0  0  0  0
  -25.8950  -13.9270   20.3780 C   0  0  0  0  0  0  0  0  0  0  0  0
  -24.7560  -13.2670   20.7520 C   0  0  0  0  0  0  0  0  0  0  0  0
  -25.0340  -11.8760   20.5840 C   0  0  0  0  0  0  0  0  0  0  0  0
  -26.8010  -12.9430   20.0120 N   0  0  0  0  0  0  0  0  0  0  0  0
  -26.2870  -11.6990   20.1910 N   0  0  0  0  0  0  0  0  0  0  0  0
  -24.1610  -10.7030   20.7160 C   0  0  0  0  0  0  0  0  0  0  0  0
  -24.4880   -9.6330   21.5790 C   0  0  0  0  0  3  0  0  0  0  0  0
  -23.6240   -8.5230   21.7030 C   0  0  0  0  0  3  0  0  0  0  0  0
  -22.4180   -8.4760   20.9640 C   0  0  0  0  0  0  0  0  0  0  0  0
  -22.1090   -9.5330   20.0880 C   0  0  0  0  0  3  0  0  0  0  0  0
  -22.9740  -10.6340   19.9610 C   0  0  0  0  0  3  0  0  0  0  0  0
  -21.5290   -7.4320   21.0040 O   0  0  0  0  0  0  0  0  0  0  0  0
  -21.3750   -6.6590   22.1250 C   0  0  0  0  0  0  0  0  0  0  0  0
  -20.9850   -7.2110   23.3650 C   0  0  0  0  0  3  0  0  0  0  0  0
  -20.7710   -6.3700   24.4740 C   0  0  0  0  0  3  0  0  0  0  0  0
  -20.9400   -4.9780   24.3480 C   0  0  0  0  0  0  0  0  0  0  0  0
  -21.3250   -4.4250   23.1130 C   0  0  0  0  0  3  0  0  0  0  0  0
  -21.5400   -5.2630   22.0050 C   0  0  0  0  0  0  0  0  0  0  0  0
  -21.8890   -4.7240   20.8120 F   0  0  0  0  0  0  0  0  0  0  0  0
  -20.7290   -4.1680   25.4110 F   0  0  0  0  0  0  0  0  0  0  0  0
  -23.4470  -13.8890   21.1450 C   0  0  0  0  0  0  0  0  0  0  0  0
  -22.6990  -13.2350   22.0290 N   0  0  0  0  0  0  0  0  0  0  0  0
  -23.1000  -14.9840   20.7050 O   0  0  0  0  0  0  0  0  0  0  0  0
  -22.9940  -12.3460   22.4050 H   0  0  0  0  0  0  0  0  0  0  0  0
  -21.8160  -13.6250   22.3280 H   0  0  0  0  0  0  0  0  0  0  0  0
  -26.2350  -15.2730   20.2940 N   0  0  0  0  0  0  0  0  0  0  0  0
  -25.5730  -16.0170   20.4920 H   0  0  0  0  0  0  0  0  0  0  0  0
  -27.0980  -15.6080   19.8900 H   0  0  0  0  0  0  0  0  0  0  0  0
  1  6  1  0
  3  1  2  0
  3  4  1  0
  4  8  1  0
  4  2  2  0
  5  3  1  0
  6  2  1  0
  6 53  1  0
  8  7  1  0
  9 10  1  0
  9  8  1  0
 11 12  1  0
 11 10  1  0
 12 14  1  0
 13 24  2  0
 14 19  1  0
 15 23  1  0
 15 25  1  0
 16 22  1  0
 16 18  1  0
 17 23  1  0
 18 17  1  0
 19 18  2  0
 20 21  1  0
 20 14  2  0
 21 16  2  0
 22 15  1  0
 23 13  1  0
 25 27  2  0
 26 25  1  0
 28 26  1  0
 29 38  2  0
 29 34  1  0
 30 26  1  0
 30 34  1  0
 31 30  1  0
 32 33  1  0
 32 31  1  0
 33 29  1  0
 34 35  2  0
 35 36  1  0
 37 36  2  0
 38 37  1  0
 39 13  1  0
 39 40  1  0
 39 49  1  0
 40 43  1  0
 41 40  1  0
 41 45  1  0
 42 41  2  0
 45 44  1  0
 45 47  1  0
 47 48  1  0
 47 46  1  0
 49 52  1  1
 49 50  1  0
 51 49  1  0
 54 64  1  0
 54 53  1  0
 55 64  1  0
 56 61  1  0
 57 58  1  0
 57 56  1  0
 59 58  1  0
 59 68  1  0
 59 60  1  0
 61 55  1  0
 61 60  1  0
 62 55  2  0
 64 63  1  0
 65 66  2  0
 66 85  1  0
 67 70  1  0
 67 66  1  0
 68 69  1  0
 68 65  1  0
 69 67  2  0
 70 71  1  0
 71 72  2  0
 73 76  1  0
 73 72  1  0
 74 73  2  0
 75 74  1  0
 75 70  2  0
 76 77  1  0
 77 78  1  0
 78 79  2  0
 80 79  1  0
 80 84  1  0
 81 80  2  0
 82 77  2  0
 82 81  1  0
 83 82  1  0
 85 86  1  0
 86 89  1  0
 86 88  1  0
 87 85  2  0
 90 65  1  0
 90 91  1  0
 92 90  1  0
M  ISO  4  11 101  12 101  55 100  64 100
M  END
>  <TORSDO>  (93) 
F 22

>  <SCORE>  (93) 
-7.889

>  <name>  (93) 
95

>  <ligand_id>  (93) 
95

>  <original_smiles>  (93) 
[H]c1c([H])c([H])c2c(c1[H])C([H])([H])C([H])([H])C([H])([H])C2([H])N([H])C(=O)C1([H])N(C(=O)C([H])(N([H])C(=O)C([H])(N([H])C([H])([H])[H])C([H])([H])[H])C(C([H])([H])[H])(C([H])([H])[H])C([H])([H])[H])C([H])([H])c2c([H])c(OC([H])([H])C([H])([H])C([H])([H])C([H])(c3c(C([H])([H])[H])c([H])n(C([H])([H])C([H])([H])N(C(=O)N4C([H])([H])C([H])([H])C([H])([H])C([H])(n5nc(-c6c([H])c([H])c(Oc7c([H])c([H])c(F)c([H])c7F)c([H])c6[H])c(C(=O)N([H])[H])c5N([H])[H])C4([H])[H])C([H])([H])[H])c3[H])C([H])([H])[H])c([H])c([H])c2C1([H])[H]

>  <smiles>  (93) 
[H]c1c([H])c([H])c2c(c1[H])C([H])([H])C([H])([H])C([H])([H])C2([H])N([H])C(=O)C1([H])N(C(=O)C([H])(N([H])C(=O)C([H])(N([H])C([H])([H])[H])C([H])([H])[H])C(C([H])([H])[H])(C([H])([H])[H])C([H])([H])[H])C([H])([H])c2c([H])c(OC([H])([H])C([H])([H])C([H])([H])C([H])(c3c(C([H])([H])[H])c([H])n(C([H])([H])C([H])([H])N(C(=O)N4C([H])([H])C([H])([H])C([H])([H])C([H])(n5nc(-c6c([H])c([H])c(Oc7c([H])c([H])c(F)c([H])c7F)c([H])c6[H])c(C(=O)N([H])[H])c5N([H])[H])C4([H])[H])C([H])([H])[H])c3[H])C([H])([H])[H])c([H])c([H])c2C1([H])[H]

$$$$
96:0:0
     RDKit          3D

 93101  0  0  1  0  0  0  0  0999 V2000
  -29.8900  -20.1440   19.7360 C   0  0  0  0  0  3  0  0  0  0  0  0
  -27.3750  -19.2570   19.2720 C   0  0  0  0  0  3  0  0  0  0  0  0
  -28.9070  -21.1530   19.4090 C   0  0  0  0  0  0  0  0  0  0  0  0
  -27.6010  -20.6580   19.1540 C   0  0  0  0  0  0  0  0  0  0  0  0
  -29.5720  -18.7390   19.8010 C   0  0  0  0  0  0  0  0  0  0  0  0
  -28.3110  -18.3280   19.5740 N   0  0  0  0  0  0  0  0  0  0  0  0
  -29.2830  -22.6880   19.1890 C   0  0  0  0  0  3  0  0  0  0  0  0
  -28.4950  -23.9440   19.8450 C   0  0  0  0  0  3  0  0  0  0  0  0
  -28.6870  -25.3900   19.1630 C   0  0  0  0  0  2  0  0  0  0  0  0
  -28.4950  -26.6700   19.9070 O   0  0  0  0  0  0  0  0  0  0  0  0
  -24.5330  -31.7030   23.2420 C   0  0  0  0  0  0  0  0  0  0  0  0
  -27.3200  -27.4450   19.8890 C   0  0  0  0  0  0  0  0  0  0  0  0
  -23.3820  -30.3640   21.5160 C   0  0  0  0  0  3  0  0  0  0  0  0
  -24.8870  -28.9660   19.9890 C   0  0  0  0  0  0  0  0  0  0  0  0
  -25.9060  -30.7940   21.3500 C   0  0  0  0  0  2  0  0  0  0  0  0
  -26.0370  -29.4620   20.6140 C   0  0  0  0  0  0  0  0  0  0  0  0
  -27.2510  -28.7140   20.5540 C   0  0  0  0  0  3  0  0  0  0  0  0
  -26.1380  -26.9990   19.2550 C   0  0  0  0  0  3  0  0  0  0  0  0
  -24.9410  -27.7420   19.3030 C   0  0  0  0  0  3  0  0  0  0  0  0
  -23.6170  -29.7860   20.0950 C   0  0  0  0  0  2  0  0  0  0  0  0
  -24.6260  -30.9690   22.0940 N   0  0  0  0  0  0  0  0  0  0  0  0
  -23.4420  -31.9010   23.7950 O   0  0  0  0  0  0  0  0  0  0  0  0
  -22.7640  -29.2630   22.4120 C   0  0  0  0  0  0  0  0  0  0  0  0
  -21.4490  -29.0280   22.2630 N   0  0  0  0  0  0  0  0  0  0  0  0
  -23.4680  -28.6250   23.1990 O   0  0  0  0  0  0  0  0  0  0  0  0
  -20.9380  -29.6000   21.6050 H   0  0  0  0  0  0  0  0  0  0  0  0
  -18.1490  -27.5880   22.6050 C   0  0  0  0  0  0  0  0  0  0  0  0
  -20.6740  -28.0080   22.9710 C   0  0  0  0  0  3  0  0  0  0  0  0
  -20.8900  -26.6100   22.3440 C   0  0  0  0  0  2  0  0  0  0  0  0
  -19.8460  -26.2550   21.2820 C   0  0  0  0  0  2  0  0  0  0  0  0
  -18.4390  -26.2810   21.8840 C   0  0  0  0  0  2  0  0  0  0  0  0
  -19.1980  -28.4050   23.1000 C   0  0  0  0  0  0  0  0  0  0  0  0
  -18.8760  -29.6260   23.7320 C   0  0  0  0  0  3  0  0  0  0  0  0
  -17.5350  -30.0320   23.8730 C   0  0  0  0  0  3  0  0  0  0  0  0
  -16.4990  -29.2110   23.3940 C   0  0  0  0  0  3  0  0  0  0  0  0
  -16.8070  -27.9900   22.7660 C   0  0  0  0  0  3  0  0  0  0  0  0
  -25.7910  -32.3470   23.9040 C   0  0  0  0  0  3  0  0  0  0  0  0
  -25.4770  -33.7570   24.1800 N   0  0  0  0  0  0  0  0  0  0  0  0
  -25.8870  -34.7890   23.4320 C   0  0  0  0  0  0  0  0  0  0  0  0
  -26.6380  -34.6550   22.4620 O   0  0  0  0  0  0  0  0  0  0  0  0
  -24.8210  -33.9370   24.9260 H   0  0  0  0  0  0  0  0  0  0  0  0
  -24.2230  -36.6010   22.9040 C   0  0  0  0  0  1  0  0  0  0  0  0
  -25.3880  -36.1950   23.8220 C   0  0  0  0  0  3  0  0  0  0  0  0
  -27.4680  -37.0590   24.7980 C   0  0  0  0  0  1  0  0  0  0  0  0
  -26.4430  -37.2300   23.7720 N   0  0  0  0  0  0  0  0  0  0  0  0
  -26.0430  -38.1590   23.8750 H   0  0  0  0  0  0  0  0  0  0  0  0
  -26.2430  -31.6130   25.2260 C   0  0  1  0  0  0  0  0  0  0  0  0
  -25.1060  -31.4320   26.2580 C   0  0  0  0  0  1  0  0  0  0  0  0
  -26.8140  -30.2120   24.9060 C   0  0  0  0  0  1  0  0  0  0  0  0
  -27.3840  -32.4080   25.9040 C   0  0  0  0  0  1  0  0  0  0  0  0
  -30.6040  -17.5990   20.1510 C   0  0  0  0  0  2  0  0  0  0  0  0
  -30.8750  -15.0420   20.3380 C   0  0  0  0  0  0  0  0  0  0  0  0
  -30.6620  -12.7330   19.4330 C   0  0  0  0  0  2  0  0  0  0  0  0
  -29.7670  -12.7730   18.1740 C   0  0  0  0  0  2  0  0  0  0  0  0
  -28.2810  -12.6440   18.5620 C   0  0  0  0  0  2  0  0  0  0  0  0
  -27.8820  -13.5900   19.7270 C   0  0  0  0  0  3  0  0  0  0  0  0
  -28.9020  -13.5370   20.8860 C   0  0  0  0  0  2  0  0  0  0  0  0
  -30.2240  -13.8330   20.3210 N   0  0  0  0  0  0  0  0  0  0  0  0
  -32.0660  -15.1100   20.0210 O   0  0  0  0  0  0  0  0  0  0  0  0
  -30.1350  -16.1940   20.4800 N   0  0  0  0  0  0  0  0  0  0  0  0
  -29.1610  -16.1120   20.7230 H   0  0  0  0  0  0  0  0  0  0  0  0
  -25.5130  -14.2480   20.4610 C   0  0  0  0  0  0  0  0  0  0  0  0
  -24.4100  -13.5030   20.7740 C   0  0  0  0  0  0  0  0  0  0  0  0
  -24.8130  -12.1360   20.6730 C   0  0  0  0  0  0  0  0  0  0  0  0
  -26.5200  -13.3380   20.1870 N   0  0  0  0  0  0  0  0  0  0  0  0
  -26.1040  -12.0580   20.3770 N   0  0  0  0  0  0  0  0  0  0  0  0
  -24.0280  -10.9000   20.7830 C   0  0  0  0  0  0  0  0  0  0  0  0
  -24.4660   -9.8140   21.5730 C   0  0  0  0  0  3  0  0  0  0  0  0
  -23.6850   -8.6430   21.6780 C   0  0  0  0  0  3  0  0  0  0  0  0
  -22.4500   -8.5500   20.9930 C   0  0  0  0  0  0  0  0  0  0  0  0
  -22.0290   -9.6240   20.1900 C   0  0  0  0  0  3  0  0  0  0  0  0
  -22.8110  -10.7860   20.0820 C   0  0  0  0  0  3  0  0  0  0  0  0
  -21.6360   -7.4430   21.0170 O   0  0  0  0  0  0  0  0  0  0  0  0
  -21.7040   -6.5210   22.0300 C   0  0  0  0  0  0  0  0  0  0  0  0
  -21.5510   -6.8900   23.3840 C   0  0  0  0  0  3  0  0  0  0  0  0
  -21.5580   -5.9010   24.3880 C   0  0  0  0  0  3  0  0  0  0  0  0
  -21.7090   -4.5450   24.0410 C   0  0  0  0  0  0  0  0  0  0  0  0
  -21.8570   -4.1760   22.6930 C   0  0  0  0  0  3  0  0  0  0  0  0
  -21.8510   -5.1610   21.6900 C   0  0  0  0  0  0  0  0  0  0  0  0
  -21.9730   -4.7980   20.3910 F   0  0  0  0  0  0  0  0  0  0  0  0
  -21.7090   -3.5940   25.0050 F   0  0  0  0  0  0  0  0  0  0  0  0
  -23.0310  -14.0270   21.0560 C   0  0  0  0  0  0  0  0  0  0  0  0
  -22.2740  -13.3360   21.9010 N   0  0  0  0  0  0  0  0  0  0  0  0
  -22.6370  -15.0840   20.5640 O   0  0  0  0  0  0  0  0  0  0  0  0
  -22.6060  -12.4810   22.3210 H   0  0  0  0  0  0  0  0  0  0  0  0
  -21.3490  -13.6680   22.1320 H   0  0  0  0  0  0  0  0  0  0  0  0
  -25.7380  -15.6180   20.3640 N   0  0  0  0  0  0  0  0  0  0  0  0
  -24.9970  -16.2950   20.5040 H   0  0  0  0  0  0  0  0  0  0  0  0
  -26.6130  -16.0430   20.0820 H   0  0  0  0  0  0  0  0  0  0  0  0
  -26.6410  -21.5760   18.7730 O   0  0  0  0  0  0  0  0  0  0  0  0
  -25.7330  -20.6230   16.6610 C   0  0  0  0  0  1  0  0  0  0  0  0
  -24.4100  -20.4910   18.9030 C   0  0  0  0  0  1  0  0  0  0  0  0
  -25.4570  -21.2280   18.0500 C   0  0  0  0  0  3  0  0  0  0  0  0
  1  5  1  0
  2  6  1  0
  3  1  2  0
  4  2  2  0
  4  3  1  0
  5 51  1  0
  6  5  2  0
  7  3  1  0
  7  8  2  0
  9  8  1  0
  9 10  1  0
 11 22  2  0
 12 10  1  0
 12 17  1  0
 13 21  1  0
 13 23  1  0
 14 20  1  0
 14 16  1  0
 15 21  1  0
 16 15  1  0
 17 16  2  0
 18 19  1  0
 18 12  2  0
 19 14  2  0
 20 13  1  0
 21 11  1  0
 23 25  2  0
 24 23  1  0
 26 24  1  0
 27 36  2  0
 27 32  1  0
 28 24  1  0
 28 32  1  0
 29 28  1  0
 30 31  1  0
 30 29  1  0
 31 27  1  0
 32 33  2  0
 33 34  1  0
 35 34  2  0
 36 35  1  0
 37 11  1  0
 37 38  1  0
 37 47  1  0
 38 41  1  0
 39 43  1  0
 39 38  1  0
 40 39  2  0
 43 42  1  0
 45 43  1  0
 45 46  1  0
 45 44  1  0
 47 50  1  1
 47 48  1  0
 49 47  1  0
 51 60  1  0
 52 60  1  0
 53 58  1  0
 54 55  1  0
 54 53  1  0
 56 55  1  0
 56 65  1  0
 56 57  1  0
 58 52  1  0
 58 57  1  0
 59 52  2  0
 60 61  1  0
 62 63  2  0
 63 82  1  0
 64 63  1  0
 64 67  1  0
 65 66  1  0
 65 62  1  0
 66 64  2  0
 67 68  1  0
 68 69  2  0
 70 73  1  0
 70 69  1  0
 71 70  2  0
 72 71  1  0
 72 67  2  0
 73 74  1  0
 74 75  1  0
 75 76  2  0
 77 76  1  0
 77 81  1  0
 78 77  2  0
 79 74  2  0
 79 78  1  0
 80 79  1  0
 82 83  1  0
 83 86  1  0
 83 85  1  0
 84 82  2  0
 87 62  1  0
 87 88  1  0
 89 87  1  0
 90  4  1  0
 91 93  1  0
 93 90  1  0
 93 92  1  0
M  ISO  4   9 101  10 101  52 100  60 100
M  END
>  <TORSDO>  (94) 
F 22

>  <SCORE>  (94) 
-11.225

>  <name>  (94) 
96

>  <ligand_id>  (94) 
96

>  <original_smiles>  (94) 
[H]c1nc(C([H])([H])N([H])C(=O)N2C([H])([H])C([H])([H])C([H])([H])C([H])(n3nc(-c4c([H])c([H])c(Oc5c([H])c([H])c(F)c([H])c5F)c([H])c4[H])c(C(=O)N([H])[H])c3N([H])[H])C2([H])[H])c([H])c(C([H])([H])C([H])([H])C([H])([H])Oc2c([H])c([H])c3c(c2[H])C([H])([H])N(C(=O)C([H])(N([H])C(=O)C([H])(N([H])C([H])([H])[H])C([H])([H])[H])C(C([H])([H])[H])(C([H])([H])[H])C([H])([H])[H])C([H])(C(=O)N([H])C2([H])c4c([H])c([H])c([H])c([H])c4C([H])([H])C([H])([H])C2([H])[H])C3([H])[H])c1OC([H])(C([H])([H])[H])C([H])([H])[H]

>  <smiles>  (94) 
[H]c1nc(C([H])([H])N([H])C(=O)N2C([H])([H])C([H])([H])C([H])([H])C([H])(n3nc(-c4c([H])c([H])c(Oc5c([H])c([H])c(F)c([H])c5F)c([H])c4[H])c(C(=O)N([H])[H])c3N([H])[H])C2([H])[H])c([H])c(C([H])([H])C([H])([H])C([H])([H])Oc2c([H])c([H])c3c(c2[H])C([H])([H])N(C(=O)C([H])(N([H])C(=O)C([H])(N([H])C([H])([H])[H])C([H])([H])[H])C(C([H])([H])[H])(C([H])([H])[H])C([H])([H])[H])C([H])(C(=O)N([H])C2([H])c4c([H])c([H])c([H])c([H])c4C([H])([H])C([H])([H])C2([H])[H])C3([H])[H])c1OC([H])(C([H])([H])[H])C([H])([H])[H]

$$$$
97:0:0
     RDKit          3D

 91 99  0  0  1  0  0  0  0  0999 V2000
  -28.4710  -21.3990   20.9860 C   0  0  0  0  0  3  0  0  0  0  0  0
  -29.3250  -20.3380   21.1410 C   0  0  0  0  0  0  0  0  0  0  0  0
  -30.6150  -20.8420   21.2960 N   0  0  0  0  0  0  0  0  0  0  0  0
  -30.5860  -22.1380   21.2330 N   0  0  0  0  0  0  0  0  0  0  0  0
  -29.2940  -22.5100   21.0630 N   0  0  0  0  0  0  0  0  0  0  0  0
  -29.0290  -18.8660   21.2940 C   0  0  0  0  0  2  0  0  0  0  0  0
  -29.8340  -17.9270   20.3530 C   0  0  0  0  0  2  0  0  0  0  0  0
  -30.7020  -16.8590   21.0780 C   0  0  0  0  0  2  0  0  0  0  0  0
  -30.8680  -14.5210   20.1540 C   0  0  0  0  0  0  0  0  0  0  0  0
  -30.5170  -12.3890   18.9630 C   0  0  0  0  0  2  0  0  0  0  0  0
  -29.5450  -12.6180   17.7870 C   0  0  0  0  0  2  0  0  0  0  0  0
  -28.0800  -12.4900   18.2510 C   0  0  0  0  0  2  0  0  0  0  0  0
  -27.7860  -13.3160   19.5330 C   0  0  0  0  0  3  0  0  0  0  0  0
  -28.8630  -13.0600   20.6100 C   0  0  0  0  0  2  0  0  0  0  0  0
  -30.1780  -13.3580   20.0160 N   0  0  0  0  0  0  0  0  0  0  0  0
  -31.9530  -14.7310   19.6040 O   0  0  0  0  0  0  0  0  0  0  0  0
  -30.2370  -15.4830   20.8510 N   0  0  0  0  0  0  0  0  0  0  0  0
  -29.3470  -15.2270   21.2550 H   0  0  0  0  0  0  0  0  0  0  0  0
  -25.4020  -13.9430   20.2770 C   0  0  0  0  0  0  0  0  0  0  0  0
  -24.3390  -13.1800   20.6780 C   0  0  0  0  0  0  0  0  0  0  0  0
  -24.7940  -11.8260   20.6560 C   0  0  0  0  0  0  0  0  0  0  0  0
  -26.4400  -13.0540   20.0390 N   0  0  0  0  0  0  0  0  0  0  0  0
  -26.0770  -11.7770   20.3220 N   0  0  0  0  0  0  0  0  0  0  0  0
  -24.0670  -10.5690   20.8770 C   0  0  0  0  0  0  0  0  0  0  0  0
  -24.4980   -9.6260   21.8370 C   0  0  0  0  0  3  0  0  0  0  0  0
  -23.7730   -8.4330   22.0440 C   0  0  0  0  0  3  0  0  0  0  0  0
  -22.6030   -8.1750   21.2910 C   0  0  0  0  0  0  0  0  0  0  0  0
  -22.1910   -9.1060   20.3210 C   0  0  0  0  0  3  0  0  0  0  0  0
  -22.9180  -10.2900   20.1130 C   0  0  0  0  0  3  0  0  0  0  0  0
  -21.8480   -7.0320   21.4050 O   0  0  0  0  0  0  0  0  0  0  0  0
  -21.7770   -6.3330   22.5840 C   0  0  0  0  0  0  0  0  0  0  0  0
  -21.3140   -6.9320   23.7780 C   0  0  0  0  0  3  0  0  0  0  0  0
  -21.1900   -6.1590   24.9500 C   0  0  0  0  0  3  0  0  0  0  0  0
  -21.5160   -4.7900   24.9290 C   0  0  0  0  0  0  0  0  0  0  0  0
  -21.9690   -4.1910   23.7400 C   0  0  0  0  0  3  0  0  0  0  0  0
  -22.0960   -4.9610   22.5710 C   0  0  0  0  0  0  0  0  0  0  0  0
  -22.5140   -4.3750   21.4230 F   0  0  0  0  0  0  0  0  0  0  0  0
  -21.3880   -4.0450   26.0530 F   0  0  0  0  0  0  0  0  0  0  0  0
  -22.9490  -13.6660   20.9740 C   0  0  0  0  0  0  0  0  0  0  0  0
  -22.2370  -12.9830   21.8640 N   0  0  0  0  0  0  0  0  0  0  0  0
  -22.5030  -14.6860   20.4510 O   0  0  0  0  0  0  0  0  0  0  0  0
  -22.6110  -12.1570   22.3080 H   0  0  0  0  0  0  0  0  0  0  0  0
  -21.3060  -13.2890   22.1050 H   0  0  0  0  0  0  0  0  0  0  0  0
  -25.5700  -15.3110   20.0770 N   0  0  0  0  0  0  0  0  0  0  0  0
  -24.8090  -15.9710   20.1890 H   0  0  0  0  0  0  0  0  0  0  0  0
  -26.4180  -15.7380   19.7270 H   0  0  0  0  0  0  0  0  0  0  0  0
  -28.9560  -23.9300   21.0630 C   0  0  0  0  0  2  0  0  0  0  0  0
  -28.3620  -24.4310   19.7280 C   0  0  0  0  0  2  0  0  0  0  0  0
  -28.6880  -26.2050   17.8490 C   0  0  0  0  0  1  0  0  0  0  0  0
  -28.8520  -25.8450   19.3360 C   0  0  0  0  0  3  0  0  0  0  0  0
  -28.4740  -26.8950   20.2390 O   0  0  0  0  0  0  0  0  0  0  0  0
  -24.5770  -31.9810   23.2770 C   0  0  0  0  0  0  0  0  0  0  0  0
  -27.2530  -27.5380   20.2140 C   0  0  0  0  0  0  0  0  0  0  0  0
  -23.3750  -30.5620   21.6460 C   0  0  0  0  0  3  0  0  0  0  0  0
  -24.8340  -29.0150   20.2330 C   0  0  0  0  0  0  0  0  0  0  0  0
  -25.8950  -30.9330   21.4370 C   0  0  0  0  0  2  0  0  0  0  0  0
  -25.9860  -29.5560   20.8150 C   0  0  0  0  0  0  0  0  0  0  0  0
  -27.1900  -28.8190   20.8090 C   0  0  0  0  0  3  0  0  0  0  0  0
  -26.0740  -26.9990   19.6490 C   0  0  0  0  0  3  0  0  0  0  0  0
  -24.8710  -27.7340   19.6540 C   0  0  0  0  0  3  0  0  0  0  0  0
  -23.5860  -29.8700   20.2700 C   0  0  0  0  0  2  0  0  0  0  0  0
  -24.6340  -31.1740   22.1800 N   0  0  0  0  0  0  0  0  0  0  0  0
  -23.4960  -32.2540   23.8160 O   0  0  0  0  0  0  0  0  0  0  0  0
  -22.7270  -29.5470   22.6140 C   0  0  0  0  0  0  0  0  0  0  0  0
  -21.4050  -29.3490   22.4740 N   0  0  0  0  0  0  0  0  0  0  0  0
  -23.4090  -28.9380   23.4420 O   0  0  0  0  0  0  0  0  0  0  0  0
  -20.9190  -29.8900   21.7720 H   0  0  0  0  0  0  0  0  0  0  0  0
  -18.0420  -28.1180   22.9420 C   0  0  0  0  0  0  0  0  0  0  0  0
  -20.5920  -28.4120   23.2470 C   0  0  0  0  0  3  0  0  0  0  0  0
  -20.7200  -26.9750   22.6910 C   0  0  0  0  0  2  0  0  0  0  0  0
  -19.6360  -26.6240   21.6660 C   0  0  0  0  0  2  0  0  0  0  0  0
  -18.2440  -26.7610   22.2900 C   0  0  0  0  0  2  0  0  0  0  0  0
  -19.1450  -28.9000   23.3780 C   0  0  0  0  0  0  0  0  0  0  0  0
  -18.9030  -30.1690   23.9450 C   0  0  0  0  0  3  0  0  0  0  0  0
  -17.5910  -30.6590   24.0850 C   0  0  0  0  0  3  0  0  0  0  0  0
  -16.5020  -29.8740   23.6670 C   0  0  0  0  0  3  0  0  0  0  0  0
  -16.7270  -28.6070   23.1000 C   0  0  0  0  0  3  0  0  0  0  0  0
  -25.8630  -32.6160   23.8920 C   0  0  0  0  0  3  0  0  0  0  0  0
  -25.5550  -34.0180   24.2070 N   0  0  0  0  0  0  0  0  0  0  0  0
  -25.8960  -35.0610   23.4390 C   0  0  0  0  0  0  0  0  0  0  0  0
  -26.5750  -34.9460   22.4140 O   0  0  0  0  0  0  0  0  0  0  0  0
  -24.9560  -34.1820   25.0020 H   0  0  0  0  0  0  0  0  0  0  0  0
  -24.1790  -36.8540   23.0420 C   0  0  0  0  0  1  0  0  0  0  0  0
  -25.4050  -36.4530   23.8780 C   0  0  0  0  0  3  0  0  0  0  0  0
  -27.5290  -37.3370   24.7340 C   0  0  0  0  0  1  0  0  0  0  0  0
  -26.4410  -37.5030   23.7740 N   0  0  0  0  0  0  0  0  0  0  0  0
  -26.0330  -38.4240   23.9140 H   0  0  0  0  0  0  0  0  0  0  0  0
  -26.3820  -31.8560   25.1740 C   0  0  1  0  0  0  0  0  0  0  0  0
  -25.2880  -31.6200   26.2410 C   0  0  0  0  0  1  0  0  0  0  0  0
  -26.9710  -30.4800   24.7870 C   0  0  0  0  0  1  0  0  0  0  0  0
  -27.5280  -32.6600   25.8300 C   0  0  0  0  0  1  0  0  0  0  0  0
  1  5  1  0
  1  2  2  0
  2  6  1  0
  2  3  1  0
  4  3  2  0
  5  4  1  0
  7  8  1  0
  7  6  1  0
  9 17  1  0
 10 15  1  0
 11 12  1  0
 11 10  1  0
 13 12  1  0
 13 22  1  0
 13 14  1  0
 15  9  1  0
 15 14  1  0
 16  9  2  0
 17  8  1  0
 17 18  1  0
 19 20  2  0
 20 39  1  0
 21 20  1  0
 21 24  1  0
 22 19  1  0
 22 23  1  0
 23 21  2  0
 24 25  1  0
 25 26  2  0
 27 30  1  0
 27 26  1  0
 28 27  2  0
 29 28  1  0
 29 24  2  0
 30 31  1  0
 31 32  1  0
 32 33  2  0
 34 33  1  0
 34 38  1  0
 35 34  2  0
 36 31  2  0
 36 35  1  0
 37 36  1  0
 39 40  1  0
 40 43  1  0
 40 42  1  0
 41 39  2  0
 44 45  1  0
 44 19  1  0
 46 44  1  0
 47  5  1  0
 48 47  1  0
 50 49  1  0
 50 48  1  0
 50 51  1  0
 52 63  2  0
 53 51  1  0
 53 58  1  0
 54 62  1  0
 54 64  1  0
 55 61  1  0
 55 57  1  0
 56 62  1  0
 57 56  1  0
 58 57  2  0
 59 60  1  0
 59 53  2  0
 60 55  2  0
 61 54  1  0
 62 52  1  0
 64 66  2  0
 65 64  1  0
 67 65  1  0
 68 77  2  0
 68 73  1  0
 69 65  1  0
 69 73  1  0
 70 69  1  0
 71 72  1  0
 71 70  1  0
 72 68  1  0
 73 74  2  0
 74 75  1  0
 76 75  2  0
 77 76  1  0
 78 52  1  0
 78 79  1  0
 78 88  1  0
 79 82  1  0
 80 84  1  0
 80 79  1  0
 81 80  2  0
 84 83  1  0
 86 84  1  0
 86 87  1  0
 86 85  1  0
 88 91  1  1
 88 89  1  0
 90 88  1  0
M  ISO  4   9 100  17 100  50 101  51 101
M  END
>  <TORSDO>  (95) 
F 22

>  <SCORE>  (95) 
-12.590

>  <name>  (95) 
97

>  <ligand_id>  (95) 
97

>  <original_smiles>  (95) 
[H]c1c([H])c([H])c2c(c1[H])C([H])([H])C([H])([H])C([H])([H])C2([H])N([H])C(=O)C1([H])N(C(=O)C([H])(N([H])C(=O)C([H])(N([H])C([H])([H])[H])C([H])([H])[H])C(C([H])([H])[H])(C([H])([H])[H])C([H])([H])[H])C([H])([H])c2c([H])c(OC([H])(C([H])([H])[H])C([H])([H])C([H])([H])n3nnc(C([H])([H])C([H])([H])C([H])([H])N([H])C(=O)N4C([H])([H])C([H])([H])C([H])([H])C([H])(n5nc(-c6c([H])c([H])c(Oc7c([H])c([H])c(F)c([H])c7F)c([H])c6[H])c(C(=O)N([H])[H])c5N([H])[H])C4([H])[H])c3[H])c([H])c([H])c2C1([H])[H]

>  <smiles>  (95) 
[H]c1c([H])c([H])c2c(c1[H])C([H])([H])C([H])([H])C([H])([H])C2([H])N([H])C(=O)C1([H])N(C(=O)C([H])(N([H])C(=O)C([H])(N([H])C([H])([H])[H])C([H])([H])[H])C(C([H])([H])[H])(C([H])([H])[H])C([H])([H])[H])C([H])([H])c2c([H])c(OC([H])(C([H])([H])[H])C([H])([H])C([H])([H])n3nnc(C([H])([H])C([H])([H])C([H])([H])N([H])C(=O)N4C([H])([H])C([H])([H])C([H])([H])C([H])(n5nc(-c6c([H])c([H])c(Oc7c([H])c([H])c(F)c([H])c7F)c([H])c6[H])c(C(=O)N([H])[H])c5N([H])[H])C4([H])[H])c3[H])c([H])c([H])c2C1([H])[H]

$$$$
98:0:0
     RDKit          3D

 93101  0  0  1  0  0  0  0  0999 V2000
  -29.6660  -20.2690   21.4350 C   0  0  0  0  0  3  0  0  0  0  0  0
  -30.2620  -21.5480   21.3170 C   0  0  0  0  0  0  0  0  0  0  0  0
  -30.2650  -19.1630   20.7930 C   0  0  0  0  0  0  0  0  0  0  0  0
  -31.4570  -21.6020   20.5340 C   0  0  0  0  0  0  0  0  0  0  0  0
  -32.2820  -22.8440   20.2530 C   0  0  0  0  0  1  0  0  0  0  0  0
  -31.3990  -19.3020   20.0670 N   0  0  0  0  0  0  0  0  0  0  0  0
  -31.9810  -20.4950   19.9480 N   0  0  0  0  0  0  0  0  0  0  0  0
  -29.1030  -17.3760   19.4340 C   0  0  0  0  0  1  0  0  0  0  0  0
  -29.6400  -17.7650   20.8250 C   0  0  0  0  0  3  0  0  0  0  0  0
  -30.5860  -16.7070   21.4590 C   0  0  0  0  0  2  0  0  0  0  0  0
  -30.6990  -14.4310   20.4280 C   0  0  0  0  0  0  0  0  0  0  0  0
  -30.3470  -12.3410   19.1670 C   0  0  0  0  0  2  0  0  0  0  0  0
  -29.3870  -12.5890   17.9850 C   0  0  0  0  0  2  0  0  0  0  0  0
  -27.9180  -12.4550   18.4340 C   0  0  0  0  0  2  0  0  0  0  0  0
  -27.6110  -13.2520   19.7300 C   0  0  0  0  0  3  0  0  0  0  0  0
  -28.6770  -12.9730   20.8130 C   0  0  0  0  0  2  0  0  0  0  0  0
  -30.0010  -13.2800   20.2440 N   0  0  0  0  0  0  0  0  0  0  0  0
  -31.7510  -14.6830   19.8320 O   0  0  0  0  0  0  0  0  0  0  0  0
  -30.1340  -15.3230   21.2560 N   0  0  0  0  0  0  0  0  0  0  0  0
  -29.2850  -15.0380   21.7200 H   0  0  0  0  0  0  0  0  0  0  0  0
  -25.2180  -13.8650   20.4580 C   0  0  0  0  0  0  0  0  0  0  0  0
  -24.1530  -13.0930   20.8420 C   0  0  0  0  0  0  0  0  0  0  0  0
  -24.6140  -11.7440   20.8050 C   0  0  0  0  0  0  0  0  0  0  0  0
  -26.2600  -12.9830   20.2180 N   0  0  0  0  0  0  0  0  0  0  0  0
  -25.9000  -11.7020   20.4810 N   0  0  0  0  0  0  0  0  0  0  0  0
  -23.8930  -10.4800   21.0070 C   0  0  0  0  0  0  0  0  0  0  0  0
  -24.3380   -9.5190   21.9400 C   0  0  0  0  0  3  0  0  0  0  0  0
  -23.6220   -8.3170   22.1250 C   0  0  0  0  0  3  0  0  0  0  0  0
  -22.4450   -8.0700   21.3790 C   0  0  0  0  0  0  0  0  0  0  0  0
  -22.0190   -9.0210   20.4360 C   0  0  0  0  0  3  0  0  0  0  0  0
  -22.7350  -10.2150   20.2470 C   0  0  0  0  0  3  0  0  0  0  0  0
  -21.6970   -6.9220   21.4770 O   0  0  0  0  0  0  0  0  0  0  0  0
  -21.6540   -6.1850   22.6330 C   0  0  0  0  0  0  0  0  0  0  0  0
  -21.2180   -6.7400   23.8560 C   0  0  0  0  0  3  0  0  0  0  0  0
  -21.1260   -5.9260   25.0040 C   0  0  0  0  0  3  0  0  0  0  0  0
  -21.4600   -4.5600   24.9290 C   0  0  0  0  0  0  0  0  0  0  0  0
  -21.8850   -4.0060   23.7090 C   0  0  0  0  0  3  0  0  0  0  0  0
  -21.9810   -4.8170   22.5640 C   0  0  0  0  0  0  0  0  0  0  0  0
  -22.3740   -4.2710   21.3870 F   0  0  0  0  0  0  0  0  0  0  0  0
  -21.3630   -3.7780   26.0290 F   0  0  0  0  0  0  0  0  0  0  0  0
  -22.7590  -13.5720   21.1300 C   0  0  0  0  0  0  0  0  0  0  0  0
  -22.0360  -12.8750   22.0010 N   0  0  0  0  0  0  0  0  0  0  0  0
  -22.3170  -14.5980   20.6170 O   0  0  0  0  0  0  0  0  0  0  0  0
  -22.4060  -12.0490   22.4520 H   0  0  0  0  0  0  0  0  0  0  0  0
  -21.0990  -13.1810   22.2230 H   0  0  0  0  0  0  0  0  0  0  0  0
  -25.3860  -15.2340   20.2810 N   0  0  0  0  0  0  0  0  0  0  0  0
  -24.6380  -15.9020   20.4290 H   0  0  0  0  0  0  0  0  0  0  0  0
  -26.2430  -15.6700   19.9620 H   0  0  0  0  0  0  0  0  0  0  0  0
  -29.5440  -22.6990   22.0540 C   0  0  0  0  0  2  0  0  0  0  0  0
  -30.1550  -24.1180   22.1250 C   0  0  0  0  0  2  0  0  0  0  0  0
  -29.8070  -25.0440   20.9380 C   0  0  0  0  0  2  0  0  0  0  0  0
  -28.5430  -25.8870   21.1690 C   0  0  0  0  0  2  0  0  0  0  0  0
  -28.3680  -26.7790   20.0750 O   0  0  0  0  0  0  0  0  0  0  0  0
  -24.5460  -31.8860   23.2410 C   0  0  0  0  0  0  0  0  0  0  0  0
  -27.2000  -27.4920   20.1290 C   0  0  0  0  0  0  0  0  0  0  0  0
  -23.3390  -30.4870   21.5980 C   0  0  0  0  0  3  0  0  0  0  0  0
  -24.7940  -28.9610   20.1620 C   0  0  0  0  0  0  0  0  0  0  0  0
  -25.8610  -30.8620   21.3920 C   0  0  0  0  0  2  0  0  0  0  0  0
  -25.9500  -29.4950   20.7480 C   0  0  0  0  0  0  0  0  0  0  0  0
  -27.1580  -28.7670   20.7300 C   0  0  0  0  0  3  0  0  0  0  0  0
  -26.0340  -26.9600   19.5440 C   0  0  0  0  0  3  0  0  0  0  0  0
  -24.8300  -27.6900   19.5600 C   0  0  0  0  0  3  0  0  0  0  0  0
  -23.5450  -29.8120   20.2170 C   0  0  0  0  0  2  0  0  0  0  0  0
  -24.6000  -31.0930   22.1360 N   0  0  0  0  0  0  0  0  0  0  0  0
  -23.4670  -32.1540   23.7840 O   0  0  0  0  0  0  0  0  0  0  0  0
  -22.6950  -29.4600   22.5550 C   0  0  0  0  0  0  0  0  0  0  0  0
  -21.3720  -29.2750   22.4250 N   0  0  0  0  0  0  0  0  0  0  0  0
  -23.3820  -28.8330   23.3660 O   0  0  0  0  0  0  0  0  0  0  0  0
  -20.8810  -29.8290   21.7360 H   0  0  0  0  0  0  0  0  0  0  0  0
  -17.9970  -28.0870   22.9190 C   0  0  0  0  0  0  0  0  0  0  0  0
  -20.5550  -28.3320   23.1910 C   0  0  0  0  0  3  0  0  0  0  0  0
  -20.6540  -26.9070   22.6010 C   0  0  0  0  0  2  0  0  0  0  0  0
  -19.5480  -26.5960   21.5880 C   0  0  0  0  0  2  0  0  0  0  0  0
  -18.1690  -26.7420   22.2340 C   0  0  0  0  0  2  0  0  0  0  0  0
  -19.1190  -28.8410   23.3540 C   0  0  0  0  0  0  0  0  0  0  0  0
  -18.9040  -30.1030   23.9520 C   0  0  0  0  0  3  0  0  0  0  0  0
  -17.6000  -30.6070   24.1210 C   0  0  0  0  0  3  0  0  0  0  0  0
  -16.4930  -29.8480   23.7050 C   0  0  0  0  0  3  0  0  0  0  0  0
  -16.6930  -28.5890   23.1090 C   0  0  0  0  0  3  0  0  0  0  0  0
  -25.8330  -32.5150   23.8620 C   0  0  0  0  0  3  0  0  0  0  0  0
  -25.5300  -33.9150   24.1790 N   0  0  0  0  0  0  0  0  0  0  0  0
  -25.8840  -34.9580   23.4190 C   0  0  0  0  0  0  0  0  0  0  0  0
  -26.5700  -34.8440   22.3970 O   0  0  0  0  0  0  0  0  0  0  0  0
  -24.9260  -34.0800   24.9710 H   0  0  0  0  0  0  0  0  0  0  0  0
  -24.1810  -36.7620   23.0190 C   0  0  0  0  0  1  0  0  0  0  0  0
  -25.4000  -36.3520   23.8600 C   0  0  0  0  0  3  0  0  0  0  0  0
  -27.5250  -37.2160   24.7380 C   0  0  0  0  0  1  0  0  0  0  0  0
  -26.4460  -37.3960   23.7700 N   0  0  0  0  0  0  0  0  0  0  0  0
  -26.0450  -38.3190   23.9120 H   0  0  0  0  0  0  0  0  0  0  0  0
  -26.3460  -31.7470   25.1410 C   0  0  1  0  0  0  0  0  0  0  0  0
  -25.2530  -31.5170   26.2080 C   0  0  0  0  0  1  0  0  0  0  0  0
  -26.9210  -30.3660   24.7490 C   0  0  0  0  0  1  0  0  0  0  0  0
  -27.4990  -32.5420   25.7970 C   0  0  0  0  0  1  0  0  0  0  0  0
  2  1  1  0
  2 49  1  0
  3  9  1  0
  3  1  2  0
  4  2  2  0
  5  4  1  0
  6  3  1  0
  7  6  2  0
  7  4  1  0
  9  8  1  0
  9 10  1  0
 11 19  1  0
 12 17  1  0
 13 14  1  0
 13 12  1  0
 15 14  1  0
 15 24  1  0
 15 16  1  0
 17 11  1  0
 17 16  1  0
 18 11  2  0
 19 10  1  0
 19 20  1  0
 21 22  2  0
 22 41  1  0
 23 22  1  0
 23 26  1  0
 24 21  1  0
 24 25  1  0
 25 23  2  0
 26 27  1  0
 27 28  2  0
 29 32  1  0
 29 28  1  0
 30 29  2  0
 31 30  1  0
 31 26  2  0
 32 33  1  0
 33 34  1  0
 34 35  2  0
 36 35  1  0
 36 40  1  0
 37 36  2  0
 38 33  2  0
 38 37  1  0
 39 38  1  0
 41 42  1  0
 42 45  1  0
 42 44  1  0
 43 41  2  0
 46 47  1  0
 46 21  1  0
 48 46  1  0
 49 50  1  0
 51 52  1  0
 51 50  1  0
 53 55  1  0
 53 52  1  0
 54 65  2  0
 55 60  1  0
 56 64  1  0
 56 66  1  0
 57 63  1  0
 57 59  1  0
 58 64  1  0
 59 58  1  0
 60 59  2  0
 61 62  1  0
 61 55  2  0
 62 57  2  0
 63 56  1  0
 64 54  1  0
 66 68  2  0
 67 66  1  0
 69 67  1  0
 70 79  2  0
 70 75  1  0
 71 67  1  0
 71 75  1  0
 72 71  1  0
 73 74  1  0
 73 72  1  0
 74 70  1  0
 75 76  2  0
 76 77  1  0
 78 77  2  0
 79 78  1  0
 80 54  1  0
 80 81  1  0
 80 90  1  0
 81 84  1  0
 82 86  1  0
 82 81  1  0
 83 82  2  0
 86 85  1  0
 88 86  1  0
 88 89  1  0
 88 87  1  0
 90 93  1  1
 90 91  1  0
 92 90  1  0
M  ISO  4  11 100  19 100  52 101  53 101
M  END
>  <TORSDO>  (96) 
F 22

>  <SCORE>  (96) 
-13.372

>  <name>  (96) 
98

>  <ligand_id>  (96) 
98

>  <original_smiles>  (96) 
[H]c1c([H])c([H])c2c(c1[H])C([H])([H])C([H])([H])C([H])([H])C2([H])N([H])C(=O)C1([H])N(C(=O)C([H])(N([H])C(=O)C([H])(N([H])C([H])([H])[H])C([H])([H])[H])C(C([H])([H])[H])(C([H])([H])[H])C([H])([H])[H])C([H])([H])c2c([H])c(OC([H])([H])C([H])([H])C([H])([H])C([H])([H])c3c(C([H])([H])[H])nnc(C([H])(C([H])([H])[H])C([H])([H])N([H])C(=O)N4C([H])([H])C([H])([H])C([H])([H])C([H])(n5nc(-c6c([H])c([H])c(Oc7c([H])c([H])c(F)c([H])c7F)c([H])c6[H])c(C(=O)N([H])[H])c5N([H])[H])C4([H])[H])c3[H])c([H])c([H])c2C1([H])[H]

>  <smiles>  (96) 
[H]c1c([H])c([H])c2c(c1[H])C([H])([H])C([H])([H])C([H])([H])C2([H])N([H])C(=O)C1([H])N(C(=O)C([H])(N([H])C(=O)C([H])(N([H])C([H])([H])[H])C([H])([H])[H])C(C([H])([H])[H])(C([H])([H])[H])C([H])([H])[H])C([H])([H])c2c([H])c(OC([H])([H])C([H])([H])C([H])([H])C([H])([H])c3c(C([H])([H])[H])nnc(C([H])(C([H])([H])[H])C([H])([H])N([H])C(=O)N4C([H])([H])C([H])([H])C([H])([H])C([H])(n5nc(-c6c([H])c([H])c(Oc7c([H])c([H])c(F)c([H])c7F)c([H])c6[H])c(C(=O)N([H])[H])c5N([H])[H])C4([H])[H])c3[H])c([H])c([H])c2C1([H])[H]

$$$$
