0:0:0
     RDKit          3D

 92100  0  0  1  0  0  0  0  0999 V2000
  -28.1950  -19.5880   20.9510 C   0  0  0  0  0  3  0  0  0  0  0  0
  -30.0860  -19.9800   19.8240 C   0  0  0  0  0  3  0  0  0  0  0  0
  -29.4940  -19.0810   20.6680 C   0  0  0  0  0  0  0  0  0  0  0  0
  -28.0580  -20.8090   20.3590 C   0  0  0  0  0  0  0  0  0  0  0  0
  -26.9320  -21.7950   20.4250 C   0  0  0  0  0  1  0  0  0  0  0  0
  -29.2320  -21.0540   19.6580 N   0  0  0  0  0  0  0  0  0  0  0  0
  -31.5320  -17.9590   21.6590 C   0  0  0  0  0  1  0  0  0  0  0  0
  -30.0690  -17.8000   21.2190 C   0  0  0  0  0  3  0  0  0  0  0  0
  -29.9070  -16.6730   20.2010 C   0  0  0  0  0  2  0  0  0  0  0  0
  -30.8900  -14.4470   20.1370 C   0  0  0  0  0  0  0  0  0  0  0  0
  -30.5020  -12.3600   18.9170 C   0  0  0  0  0  2  0  0  0  0  0  0
  -29.4930  -12.6510   17.7850 C   0  0  0  0  0  2  0  0  0  0  0  0
  -28.0430  -12.5270   18.2970 C   0  0  0  0  0  2  0  0  0  0  0  0
  -27.7970  -13.3200   19.6080 C   0  0  0  0  0  3  0  0  0  0  0  0
  -28.9030  -12.9930   20.6390 C   0  0  0  0  0  2  0  0  0  0  0  0
  -30.2180  -13.2780   20.0240 N   0  0  0  0  0  0  0  0  0  0  0  0
  -31.9330  -14.7180   19.5350 O   0  0  0  0  0  0  0  0  0  0  0  0
  -30.1940  -15.3710   20.7850 N   0  0  0  0  0  0  0  0  0  0  0  0
  -29.4330  -14.9810   21.3140 H   0  0  0  0  0  0  0  0  0  0  0  0
  -25.4480  -13.9560   20.4670 C   0  0  0  0  0  0  0  0  0  0  0  0
  -24.3860  -13.1900   20.8690 C   0  0  0  0  0  0  0  0  0  0  0  0
  -24.8200  -11.8340   20.7670 C   0  0  0  0  0  0  0  0  0  0  0  0
  -26.4640  -13.0650   20.1510 N   0  0  0  0  0  0  0  0  0  0  0  0
  -26.0880  -11.7820   20.3820 N   0  0  0  0  0  0  0  0  0  0  0  0
  -24.0870  -10.5760   20.9560 C   0  0  0  0  0  0  0  0  0  0  0  0
  -24.5350   -9.5900   21.8630 C   0  0  0  0  0  3  0  0  0  0  0  0
  -23.8040   -8.3950   22.0390 C   0  0  0  0  0  3  0  0  0  0  0  0
  -22.6080   -8.1800   21.3110 C   0  0  0  0  0  0  0  0  0  0  0  0
  -22.1820   -9.1540   20.3900 C   0  0  0  0  0  3  0  0  0  0  0  0
  -22.9150  -10.3410   20.2110 C   0  0  0  0  0  3  0  0  0  0  0  0
  -21.8470   -7.0400   21.3980 O   0  0  0  0  0  0  0  0  0  0  0  0
  -21.7940   -6.2970   22.5500 C   0  0  0  0  0  0  0  0  0  0  0  0
  -21.3430   -6.8470   23.7710 C   0  0  0  0  0  3  0  0  0  0  0  0
  -21.2350   -6.0300   24.9140 C   0  0  0  0  0  3  0  0  0  0  0  0
  -21.5740   -4.6640   24.8390 C   0  0  0  0  0  0  0  0  0  0  0  0
  -22.0180   -4.1160   23.6240 C   0  0  0  0  0  3  0  0  0  0  0  0
  -22.1270   -4.9300   22.4830 C   0  0  0  0  0  0  0  0  0  0  0  0
  -22.5360   -4.3890   21.3100 F   0  0  0  0  0  0  0  0  0  0  0  0
  -21.4640   -3.8790   25.9360 F   0  0  0  0  0  0  0  0  0  0  0  0
  -23.0170  -13.6780   21.2450 C   0  0  0  0  0  0  0  0  0  0  0  0
  -22.3350  -12.9620   22.1310 N   0  0  0  0  0  0  0  0  0  0  0  0
  -22.5600  -14.7240   20.7830 O   0  0  0  0  0  0  0  0  0  0  0  0
  -22.7170  -12.1120   22.5180 H   0  0  0  0  0  0  0  0  0  0  0  0
  -21.4210  -13.2680   22.4300 H   0  0  0  0  0  0  0  0  0  0  0  0
  -25.6300  -15.3310   20.3280 N   0  0  0  0  0  0  0  0  0  0  0  0
  -24.8810  -15.9990   20.4820 H   0  0  0  0  0  0  0  0  0  0  0  0
  -26.4770  -15.7600   19.9750 H   0  0  0  0  0  0  0  0  0  0  0  0
  -29.5450  -22.2670   18.9260 C   0  0  0  0  0  2  0  0  0  0  0  0
  -30.0300  -23.3460   19.9070 C   0  0  0  0  0  2  0  0  0  0  0  0
  -29.7300  -24.7760   19.4400 C   0  0  0  0  0  2  0  0  0  0  0  0
  -29.0790  -25.6170   20.5430 C   0  0  0  0  0  2  0  0  0  0  0  0
  -28.9510  -26.9490   20.0770 O   0  0  0  0  0  0  0  0  0  0  0  0
  -24.5710  -31.6280   23.0860 C   0  0  0  0  0  0  0  0  0  0  0  0
  -27.6910  -27.4910   20.0790 C   0  0  0  0  0  0  0  0  0  0  0  0
  -23.5450  -30.1580   21.3780 C   0  0  0  0  0  3  0  0  0  0  0  0
  -25.1720  -28.7520   20.0080 C   0  0  0  0  0  0  0  0  0  0  0  0
  -26.0340  -30.7300   21.2860 C   0  0  0  0  0  2  0  0  0  0  0  0
  -26.2520  -29.3800   20.6350 C   0  0  0  0  0  0  0  0  0  0  0  0
  -27.5170  -28.7590   20.6600 C   0  0  0  0  0  3  0  0  0  0  0  0
  -26.5920  -26.8470   19.4670 C   0  0  0  0  0  3  0  0  0  0  0  0
  -25.3330  -27.4800   19.4230 C   0  0  0  0  0  3  0  0  0  0  0  0
  -23.8610  -29.5060   20.0050 C   0  0  0  0  0  2  0  0  0  0  0  0
  -24.7300  -30.8540   21.9750 N   0  0  0  0  0  0  0  0  0  0  0  0
  -23.4520  -31.8120   23.5830 O   0  0  0  0  0  0  0  0  0  0  0  0
  -22.9360  -29.0830   22.3030 C   0  0  0  0  0  0  0  0  0  0  0  0
  -21.6260  -28.8380   22.1500 N   0  0  0  0  0  0  0  0  0  0  0  0
  -23.6420  -28.4700   23.1110 O   0  0  0  0  0  0  0  0  0  0  0  0
  -21.1170  -29.3910   21.4750 H   0  0  0  0  0  0  0  0  0  0  0  0
  -18.3010  -27.4910   22.6070 C   0  0  0  0  0  0  0  0  0  0  0  0
  -20.8490  -27.8340   22.8760 C   0  0  0  0  0  3  0  0  0  0  0  0
  -21.0050  -26.4370   22.2350 C   0  0  0  0  0  2  0  0  0  0  0  0
  -19.9020  -26.1020   21.2260 C   0  0  0  0  0  2  0  0  0  0  0  0
  -18.5260  -26.1670   21.8940 C   0  0  0  0  0  2  0  0  0  0  0  0
  -19.3930  -28.2750   23.0610 C   0  0  0  0  0  0  0  0  0  0  0  0
  -19.1310  -29.5040   23.7070 C   0  0  0  0  0  3  0  0  0  0  0  0
  -17.8110  -29.9490   23.9000 C   0  0  0  0  0  3  0  0  0  0  0  0
  -16.7340  -29.1660   23.4530 C   0  0  0  0  0  3  0  0  0  0  0  0
  -16.9770  -27.9370   22.8170 C   0  0  0  0  0  3  0  0  0  0  0  0
  -25.7810  -32.3460   23.7660 C   0  0  0  0  0  3  0  0  0  0  0  0
  -25.3520  -33.7100   24.1040 N   0  0  0  0  0  0  0  0  0  0  0  0
  -25.6340  -34.7970   23.3730 C   0  0  0  0  0  0  0  0  0  0  0  0
  -26.3500  -34.7620   22.3680 O   0  0  0  0  0  0  0  0  0  0  0  0
  -24.7170  -33.8050   24.8840 H   0  0  0  0  0  0  0  0  0  0  0  0
  -23.7850  -36.4530   22.9710 C   0  0  0  0  0  1  0  0  0  0  0  0
  -25.0200  -36.1350   23.8260 C   0  0  0  0  0  3  0  0  0  0  0  0
  -27.0400  -37.1730   24.7630 C   0  0  0  0  0  1  0  0  0  0  0  0
  -25.9720  -37.2650   23.7680 N   0  0  0  0  0  0  0  0  0  0  0  0
  -25.4910  -38.1500   23.9030 H   0  0  0  0  0  0  0  0  0  0  0  0
  -26.3130  -31.5950   25.0490 C   0  0  1  0  0  0  0  0  0  0  0  0
  -25.2000  -31.2170   26.0540 C   0  0  0  0  0  1  0  0  0  0  0  0
  -27.0540  -30.2960   24.6520 C   0  0  0  0  0  1  0  0  0  0  0  0
  -27.3420  -32.4850   25.7860 C   0  0  0  0  0  1  0  0  0  0  0  0
  2  3  2  0
  3  1  1  0
  3  8  1  0
  4  5  1  0
  4  1  2  0
  6  2  1  0
  6  4  1  0
  8  7  1  0
  9 18  1  0
  9  8  1  0
 10 18  1  0
 11 16  1  0
 12 13  1  0
 12 11  1  0
 14 13  1  0
 14 23  1  0
 14 15  1  0
 16 10  1  0
 16 15  1  0
 17 10  2  0
 18 19  1  0
 20 21  2  0
 21 40  1  0
 22 21  1  0
 22 25  1  0
 23 24  1  0
 23 20  1  0
 24 22  2  0
 25 26  1  0
 26 27  2  0
 28 31  1  0
 28 27  1  0
 29 28  2  0
 30 29  1  0
 30 25  2  0
 31 32  1  0
 32 33  1  0
 33 34  2  0
 35 34  1  0
 35 39  1  0
 36 35  2  0
 37 32  2  0
 37 36  1  0
 38 37  1  0
 40 41  1  0
 41 44  1  0
 41 43  1  0
 42 40  2  0
 45 20  1  0
 45 46  1  0
 47 45  1  0
 48  6  1  0
 48 49  1  0
 50 49  1  0
 50 51  1  0
 52 54  1  0
 52 51  1  0
 53 64  2  0
 54 59  1  0
 55 63  1  0
 55 65  1  0
 56 58  1  0
 57 63  1  0
 58 59  2  0
 58 57  1  0
 60 54  2  0
 61 60  1  0
 61 56  2  0
 62 56  1  0
 62 55  1  0
 63 53  1  0
 65 67  2  0
 66 65  1  0
 68 66  1  0
 69 78  2  0
 69 74  1  0
 70 66  1  0
 70 74  1  0
 71 70  1  0
 72 73  1  0
 72 71  1  0
 73 69  1  0
 74 75  2  0
 75 76  1  0
 77 76  2  0
 78 77  1  0
 79 53  1  0
 79 80  1  0
 79 89  1  0
 80 83  1  0
 81 85  1  0
 81 80  1  0
 82 81  2  0
 85 84  1  0
 87 85  1  0
 87 88  1  0
 87 86  1  0
 89 92  1  1
 89 90  1  0
 91 89  1  0
M  ISO  4  10 100  18 100  51 101  52 101
M  END
>  <TORSDO>  (1) 
F 22

>  <SCORE>  (1) 
-11.682

>  <name>  (1) 
0

>  <ligand_id>  (1) 
0

>  <original_smiles>  (1) 
[H]c1c([H])c([H])c2c(c1[H])C([H])([H])C([H])([H])C([H])([H])C2([H])N([H])C(=O)C1([H])N(C(=O)C([H])(N([H])C(=O)C([H])(N([H])C([H])([H])[H])C([H])([H])[H])C(C([H])([H])[H])(C([H])([H])[H])C([H])([H])[H])C([H])([H])c2c([H])c(OC([H])([H])C([H])([H])C([H])([H])C([H])([H])n3c([H])c(C([H])(C([H])([H])[H])C([H])([H])N([H])C(=O)N4C([H])([H])C([H])([H])C([H])([H])C([H])(n5nc(-c6c([H])c([H])c(Oc7c([H])c([H])c(F)c([H])c7F)c([H])c6[H])c(C(=O)N([H])[H])c5N([H])[H])C4([H])[H])c([H])c3C([H])([H])[H])c([H])c([H])c2C1([H])[H]

>  <smiles>  (1) 
[H]c1c([H])c([H])c2c(c1[H])C([H])([H])C([H])([H])C([H])([H])C2([H])N([H])C(=O)C1([H])N(C(=O)C([H])(N([H])C(=O)C([H])(N([H])C([H])([H])[H])C([H])([H])[H])C(C([H])([H])[H])(C([H])([H])[H])C([H])([H])[H])C([H])([H])c2c([H])c(OC([H])([H])C([H])([H])C([H])([H])C([H])([H])n3c([H])c(C([H])(C([H])([H])[H])C([H])([H])N([H])C(=O)N4C([H])([H])C([H])([H])C([H])([H])C([H])(n5nc(-c6c([H])c([H])c(Oc7c([H])c([H])c(F)c([H])c7F)c([H])c6[H])c(C(=O)N([H])[H])c5N([H])[H])C4([H])[H])c([H])c3C([H])([H])[H])c([H])c([H])c2C1([H])[H]

$$$$
1:0:0
     RDKit          3D

 94102  0  0  1  0  0  0  0  0999 V2000
  -30.9130  -19.4340   16.9510 C   0  0  0  0  0  3  0  0  0  0  0  0
  -30.1210  -19.9150   18.0560 C   0  0  0  0  0  0  0  0  0  0  0  0
  -30.0090  -18.9910   19.1410 C   0  0  0  0  0  0  0  0  0  0  0  0
  -31.5150  -18.1250   16.9230 C   0  0  0  0  0  0  0  0  0  0  0  0
  -30.5710  -17.6790   19.0070 C   0  0  0  0  0  0  0  0  0  0  0  0
  -29.3170  -19.3960   20.4380 C   0  0  0  0  0  1  0  0  0  0  0  0
  -31.3190  -17.2880   17.9510 N   0  0  0  0  0  0  0  0  0  0  0  0
  -33.8570  -18.0310   15.9000 C   0  0  0  0  0  1  0  0  0  0  0  0
  -32.4000  -17.5500   15.7430 C   0  0  0  0  0  3  0  0  0  0  0  0
  -32.3260  -17.0570   13.1990 C   0  0  0  0  0  0  0  0  0  0  0  0
  -33.5530  -17.3750   11.0650 C   0  0  0  0  0  2  0  0  0  0  0  0
  -34.6750  -18.4090   11.3090 C   0  0  0  0  0  2  0  0  0  0  0  0
  -34.1450  -19.8370   11.0810 C   0  0  0  0  0  2  0  0  0  0  0  0
  -32.7990  -20.0980   11.8100 C   0  0  0  0  0  3  0  0  0  0  0  0
  -31.7900  -18.9480   11.5880 C   0  0  0  0  0  2  0  0  0  0  0  0
  -32.4470  -17.6980   11.9920 N   0  0  0  0  0  0  0  0  0  0  0  0
  -32.7560  -15.9090   13.3380 O   0  0  0  0  0  0  0  0  0  0  0  0
  -31.9850  -17.8040   14.3040 N   0  0  0  0  0  0  0  0  0  0  0  0
  -31.5740  -18.7100   14.1420 H   0  0  0  0  0  0  0  0  0  0  0  0
  -32.2240  -22.5700   12.1910 C   0  0  0  0  0  0  0  0  0  0  0  0
  -31.6540  -23.5150   11.3840 C   0  0  0  0  0  0  0  0  0  0  0  0
  -31.3370  -22.8510   10.1590 C   0  0  0  0  0  0  0  0  0  0  0  0
  -32.2350  -21.3970   11.4540 N   0  0  0  0  0  0  0  0  0  0  0  0
  -31.6400  -21.5610   10.2440 N   0  0  0  0  0  0  0  0  0  0  0  0
  -30.8160  -23.3830    8.8920 C   0  0  0  0  0  0  0  0  0  0  0  0
  -29.4910  -23.1290    8.4730 C   0  0  0  0  0  3  0  0  0  0  0  0
  -29.0080  -23.6670    7.2610 C   0  0  0  0  0  3  0  0  0  0  0  0
  -29.8510  -24.4700    6.4560 C   0  0  0  0  0  0  0  0  0  0  0  0
  -31.1760  -24.7000    6.8660 C   0  0  0  0  0  3  0  0  0  0  0  0
  -31.6570  -24.1600    8.0700 C   0  0  0  0  0  3  0  0  0  0  0  0
  -29.4760  -25.0130    5.2500 O   0  0  0  0  0  0  0  0  0  0  0  0
  -28.2480  -25.6000    5.0760 C   0  0  0  0  0  0  0  0  0  0  0  0
  -27.9320  -26.8510    5.6470 C   0  0  0  0  0  3  0  0  0  0  0  0
  -26.6840  -27.4500    5.3840 C   0  0  0  0  0  3  0  0  0  0  0  0
  -25.7550  -26.8050    4.5460 C   0  0  0  0  0  0  0  0  0  0  0  0
  -26.0700  -25.5610    3.9720 C   0  0  0  0  0  3  0  0  0  0  0  0
  -27.3150  -24.9620    4.2340 C   0  0  0  0  0  0  0  0  0  0  0  0
  -27.6220  -23.7730    3.6620 F   0  0  0  0  0  0  0  0  0  0  0  0
  -24.5590  -27.3820    4.2870 F   0  0  0  0  0  0  0  0  0  0  0  0
  -31.5020  -24.9760   11.6920 C   0  0  0  0  0  0  0  0  0  0  0  0
  -30.3170  -25.5310   11.4640 N   0  0  0  0  0  0  0  0  0  0  0  0
  -32.4230  -25.6250   12.1860 O   0  0  0  0  0  0  0  0  0  0  0  0
  -29.5550  -24.9930   11.0770 H   0  0  0  0  0  0  0  0  0  0  0  0
  -30.1690  -26.5070   11.6790 H   0  0  0  0  0  0  0  0  0  0  0  0
  -32.7560  -22.6130   13.4770 N   0  0  0  0  0  0  0  0  0  0  0  0
  -32.8060  -23.4740   14.0070 H   0  0  0  0  0  0  0  0  0  0  0  0
  -33.1860  -21.8300   13.9510 H   0  0  0  0  0  0  0  0  0  0  0  0
  -29.3980  -21.3420   17.9610 C   0  0  0  0  0  2  0  0  0  0  0  0
  -29.9250  -22.7450   18.5750 C   0  0  0  0  0  2  0  0  0  0  0  0
  -28.8500  -23.8790   18.9440 C   0  0  0  0  0  2  0  0  0  0  0  0
  -29.0910  -25.3200   18.6470 O   0  0  0  0  0  0  0  0  0  0  0  0
  -34.2970  -30.2770   18.0450 C   0  0  0  0  0  0  0  0  0  0  0  0
  -30.0200  -26.1380   19.3200 C   0  0  0  0  0  0  0  0  0  0  0  0
  -34.1470  -29.1060   20.2140 C   0  0  0  0  0  3  0  0  0  0  0  0
  -32.0140  -27.7480   20.6090 C   0  0  0  0  0  0  0  0  0  0  0  0
  -32.0500  -29.4380   18.7740 C   0  0  0  0  0  2  0  0  0  0  0  0
  -31.4880  -28.1550   19.3770 C   0  0  0  0  0  0  0  0  0  0  0  0
  -30.4880  -27.3620   18.7410 C   0  0  0  0  0  3  0  0  0  0  0  0
  -30.5670  -25.7790   20.5720 C   0  0  0  0  0  3  0  0  0  0  0  0
  -31.5480  -26.5670   21.2100 C   0  0  0  0  0  3  0  0  0  0  0  0
  -33.0880  -28.6140   21.2370 C   0  0  0  0  0  2  0  0  0  0  0  0
  -33.5180  -29.6180   18.9520 N   0  0  0  0  0  0  0  0  0  0  0  0
  -35.5000  -30.4840   18.2590 O   0  0  0  0  0  0  0  0  0  0  0  0
  -35.1750  -27.9750   19.9710 C   0  0  0  0  0  0  0  0  0  0  0  0
  -36.1790  -27.8680   20.8580 N   0  0  0  0  0  0  0  0  0  0  0  0
  -35.0470  -27.2020   19.0160 O   0  0  0  0  0  0  0  0  0  0  0  0
  -36.2220  -28.5450   21.6070 H   0  0  0  0  0  0  0  0  0  0  0  0
  -39.3620  -26.9480   22.3070 C   0  0  0  0  0  0  0  0  0  0  0  0
  -37.2310  -26.8510   20.8460 C   0  0  0  0  0  3  0  0  0  0  0  0
  -36.8290  -25.6230   21.6950 C   0  0  0  0  0  2  0  0  0  0  0  0
  -37.3240  -25.7030   23.1420 C   0  0  0  0  0  2  0  0  0  0  0  0
  -38.8500  -25.8180   23.1840 C   0  0  0  0  0  2  0  0  0  0  0  0
  -38.5960  -27.4430   21.2190 C   0  0  0  0  0  0  0  0  0  0  0  0
  -39.1030  -28.5170   20.4570 C   0  0  0  0  0  3  0  0  0  0  0  0
  -40.3510  -29.0900   20.7620 C   0  0  0  0  0  3  0  0  0  0  0  0
  -41.1140  -28.5860   21.8300 C   0  0  0  0  0  3  0  0  0  0  0  0
  -40.6210  -27.5160   22.5970 C   0  0  0  0  0  3  0  0  0  0  0  0
  -33.7090  -30.8210   16.7070 C   0  0  0  0  0  3  0  0  0  0  0  0
  -33.9610  -32.2690   16.6660 N   0  0  0  0  0  0  0  0  0  0  0  0
  -33.1000  -33.2040   17.0880 C   0  0  0  0  0  0  0  0  0  0  0  0
  -31.9660  -32.9350   17.4940 O   0  0  0  0  0  0  0  0  0  0  0  0
  -34.8890  -32.5580   16.3940 H   0  0  0  0  0  0  0  0  0  0  0  0
  -34.0540  -35.0920   18.4490 C   0  0  0  0  0  1  0  0  0  0  0  0
  -33.5690  -34.6720   17.0520 C   0  0  0  0  0  3  0  0  0  0  0  0
  -32.3710  -35.6230   15.1310 C   0  0  0  0  0  1  0  0  0  0  0  0
  -32.5280  -35.6120   16.5830 N   0  0  0  0  0  0  0  0  0  0  0  0
  -32.7360  -36.5610   16.8870 H   0  0  0  0  0  0  0  0  0  0  0  0
  -34.3150  -30.1180   15.4300 C   0  0  1  0  0  0  0  0  0  0  0  0
  -35.6400  -30.7510   14.9420 C   0  0  0  0  0  1  0  0  0  0  0  0
  -34.5810  -28.6190   15.7050 C   0  0  0  0  0  1  0  0  0  0  0  0
  -33.3000  -30.1810   14.2650 C   0  0  0  0  0  1  0  0  0  0  0  0
  -30.4280  -16.5780   20.0630 C   0  0  0  0  0  2  0  0  0  0  0  0
  -29.0350  -14.5500   20.7980 C   0  0  0  0  0  1  0  0  0  0  0  0
  -29.5300  -15.4030   19.6210 C   0  0  0  0  0  2  0  0  0  0  0  0
  1  2  1  0
  2  3  2  0
  3  6  1  0
  4  1  2  0
  4  7  1  0
  5  3  1  0
  5 92  1  0
  7  5  2  0
  9  8  1  0
  9  4  1  0
 10 17  2  0
 10 18  1  0
 11 12  1  0
 11 16  1  0
 13 12  1  0
 14 13  1  0
 15 14  1  0
 15 16  1  0
 16 10  1  0
 18  9  1  0
 19 18  1  0
 20 45  1  0
 21 40  1  0
 21 20  2  0
 22 24  2  0
 22 21  1  0
 23 14  1  0
 23 20  1  0
 24 23  1  0
 25 22  1  0
 26 25  1  0
 27 26  2  0
 28 29  2  0
 28 27  1  0
 29 30  1  0
 30 25  2  0
 31 28  1  0
 32 31  1  0
 32 33  1  0
 34 33  2  0
 35 34  1  0
 36 37  1  0
 36 35  2  0
 37 32  2  0
 38 37  1  0
 39 35  1  0
 40 42  2  0
 41 44  1  0
 41 40  1  0
 43 41  1  0
 45 47  1  0
 45 46  1  0
 48  2  1  0
 48 49  1  0
 49 50  1  0
 51 50  1  0
 51 53  1  0
 52 63  2  0
 52 62  1  0
 53 59  1  0
 54 64  1  0
 54 61  1  0
 55 60  1  0
 55 61  1  0
 56 62  1  0
 56 57  1  0
 57 55  2  0
 58 53  2  0
 58 57  1  0
 59 60  2  0
 62 54  1  0
 64 65  1  0
 65 67  1  0
 66 64  2  0
 68 77  1  0
 68 72  1  0
 69 65  1  0
 69 73  1  0
 69 70  1  0
 70 71  1  0
 71 72  1  0
 73 68  2  0
 74 75  2  0
 74 73  1  0
 75 76  1  0
 76 77  2  0
 78 52  1  0
 79 78  1  0
 79 80  1  0
 80 81  2  0
 82 79  1  0
 84 80  1  0
 84 83  1  0
 85 86  1  0
 86 87  1  0
 86 84  1  0
 88 90  1  1
 88 78  1  0
 89 88  1  0
 91 88  1  0
 94 92  1  0
 94 93  1  0
M  ISO  4  10 100  18 100  50 101  51 101
M  END
>  <TORSDO>  (2) 
F 22

>  <SCORE>  (2) 
-3.673

>  <name>  (2) 
1

>  <ligand_id>  (2) 
1

>  <original_smiles>  (2) 
[H]c1c([H])c([H])c2c(c1[H])C([H])([H])C([H])([H])C([H])([H])C2([H])N([H])C(=O)C1([H])N(C(=O)C([H])(N([H])C(=O)C([H])(N([H])C([H])([H])[H])C([H])([H])[H])C(C([H])([H])[H])(C([H])([H])[H])C([H])([H])[H])C([H])([H])c2c([H])c(OC([H])([H])C([H])([H])C([H])([H])c3c([H])c(C([H])(N([H])C(=O)N4C([H])([H])C([H])([H])C([H])([H])C([H])(n5nc(-c6c([H])c([H])c(Oc7c([H])c([H])c(F)c([H])c7F)c([H])c6[H])c(C(=O)N([H])[H])c5N([H])[H])C4([H])[H])C([H])([H])[H])nc(C([H])([H])C([H])([H])C([H])([H])[H])c3C([H])([H])[H])c([H])c([H])c2C1([H])[H]

>  <smiles>  (2) 
[H]c1c([H])c([H])c2c(c1[H])C([H])([H])C([H])([H])C([H])([H])C2([H])N([H])C(=O)C1([H])N(C(=O)C([H])(N([H])C(=O)C([H])(N([H])C([H])([H])[H])C([H])([H])[H])C(C([H])([H])[H])(C([H])([H])[H])C([H])([H])[H])C([H])([H])c2c([H])c(OC([H])([H])C([H])([H])C([H])([H])c3c([H])c(C([H])(N([H])C(=O)N4C([H])([H])C([H])([H])C([H])([H])C([H])(n5nc(-c6c([H])c([H])c(Oc7c([H])c([H])c(F)c([H])c7F)c([H])c6[H])c(C(=O)N([H])[H])c5N([H])[H])C4([H])[H])C([H])([H])[H])nc(C([H])([H])C([H])([H])C([H])([H])[H])c3C([H])([H])[H])c([H])c([H])c2C1([H])[H]

$$$$
2:0:0
     RDKit          3D

 95103  0  0  1  0  0  0  0  0999 V2000
  -30.2530  -19.7440   19.9010 C   0  0  0  0  0  3  0  0  0  0  0  0
  -30.3100  -18.4310   20.4660 C   0  0  0  0  0  0  0  0  0  0  0  0
  -28.9240  -20.0080   19.7050 C   0  0  0  0  0  0  0  0  0  0  0  0
  -29.0910  -17.9180   20.5540 N   0  0  0  0  0  0  0  0  0  0  0  0
  -28.2440  -18.8440   20.0440 N   0  0  0  0  0  0  0  0  0  0  0  0
  -32.7610  -17.8490   20.2190 C   0  0  0  0  0  1  0  0  0  0  0  0
  -31.5160  -17.7530   21.1230 C   0  0  0  0  0  3  0  0  0  0  0  0
  -30.8990  -16.2520   23.1620 C   0  0  0  0  0  1  0  0  0  0  0  0
  -31.3480  -16.2950   21.6870 C   0  0  0  0  0  3  0  0  0  0  0  0
  -31.0000  -14.4400   20.0410 C   0  0  0  0  0  0  0  0  0  0  0  0
  -30.5700  -12.2930   18.8880 C   0  0  0  0  0  2  0  0  0  0  0  0
  -29.5590  -12.4690   17.7410 C   0  0  0  0  0  2  0  0  0  0  0  0
  -28.1150  -12.3380   18.2640 C   0  0  0  0  0  2  0  0  0  0  0  0
  -27.8570  -13.2070   19.5240 C   0  0  0  0  0  3  0  0  0  0  0  0
  -28.9770  -13.0170   20.5690 C   0  0  0  0  0  2  0  0  0  0  0  0
  -30.2610  -13.3050   19.9110 N   0  0  0  0  0  0  0  0  0  0  0  0
  -32.0530  -14.6230   19.4260 O   0  0  0  0  0  0  0  0  0  0  0  0
  -30.5270  -15.3520   20.9100 N   0  0  0  0  0  0  0  0  0  0  0  0
  -29.5970  -15.1850   21.2640 H   0  0  0  0  0  0  0  0  0  0  0  0
  -25.5370  -13.8430   20.4310 C   0  0  0  0  0  0  0  0  0  0  0  0
  -24.4760  -13.0850   20.8470 C   0  0  0  0  0  0  0  0  0  0  0  0
  -24.8920  -11.7230   20.7260 C   0  0  0  0  0  0  0  0  0  0  0  0
  -26.5360  -12.9460   20.0900 N   0  0  0  0  0  0  0  0  0  0  0  0
  -26.1550  -11.6620   20.3210 N   0  0  0  0  0  0  0  0  0  0  0  0
  -24.1430  -10.4750   20.9180 C   0  0  0  0  0  0  0  0  0  0  0  0
  -24.5660   -9.4940   21.8410 C   0  0  0  0  0  3  0  0  0  0  0  0
  -23.8180   -8.3110   22.0230 C   0  0  0  0  0  3  0  0  0  0  0  0
  -22.6320   -8.0980   21.2820 C   0  0  0  0  0  0  0  0  0  0  0  0
  -22.2260   -9.0690   20.3470 C   0  0  0  0  0  3  0  0  0  0  0  0
  -22.9740  -10.2440   20.1630 C   0  0  0  0  0  3  0  0  0  0  0  0
  -21.8570   -6.9680   21.3710 O   0  0  0  0  0  0  0  0  0  0  0  0
  -21.7450   -6.2630   22.5430 C   0  0  0  0  0  0  0  0  0  0  0  0
  -21.2760   -6.8660   23.7330 C   0  0  0  0  0  3  0  0  0  0  0  0
  -21.1100   -6.0890   24.8950 C   0  0  0  0  0  3  0  0  0  0  0  0
  -21.4030   -4.7120   24.8720 C   0  0  0  0  0  0  0  0  0  0  0  0
  -21.8620   -4.1100   23.6890 C   0  0  0  0  0  3  0  0  0  0  0  0
  -22.0310   -4.8840   22.5260 C   0  0  0  0  0  0  0  0  0  0  0  0
  -22.4550   -4.2950   21.3820 F   0  0  0  0  0  0  0  0  0  0  0  0
  -21.2350   -3.9630   25.9880 F   0  0  0  0  0  0  0  0  0  0  0  0
  -23.1190  -13.5890   21.2460 C   0  0  0  0  0  0  0  0  0  0  0  0
  -22.4490  -12.8860   22.1540 N   0  0  0  0  0  0  0  0  0  0  0  0
  -22.6660  -14.6380   20.7910 O   0  0  0  0  0  0  0  0  0  0  0  0
  -22.8280  -12.0350   22.5430 H   0  0  0  0  0  0  0  0  0  0  0  0
  -21.5410  -13.2010   22.4640 H   0  0  0  0  0  0  0  0  0  0  0  0
  -25.7270  -15.2140   20.2990 N   0  0  0  0  0  0  0  0  0  0  0  0
  -24.9950  -15.8830   20.4990 H   0  0  0  0  0  0  0  0  0  0  0  0
  -26.5860  -15.6460   19.9780 H   0  0  0  0  0  0  0  0  0  0  0  0
  -26.4810  -17.3940   19.0240 C   0  0  0  0  0  1  0  0  0  0  0  0
  -26.8170  -18.5310   20.0060 C   0  0  0  0  0  2  0  0  0  0  0  0
  -28.2750  -21.2970   19.2480 C   0  0  0  0  0  2  0  0  0  0  0  0
  -28.1000  -22.2220   21.6450 C   0  0  0  0  0  1  0  0  0  0  0  0
  -28.4870  -22.5300   20.1820 C   0  0  0  0  0  3  0  0  0  0  0  0
  -27.8260  -23.8240   19.5920 C   0  0  0  0  0  2  0  0  0  0  0  0
  -27.9600  -25.1300   20.4250 C   0  0  0  0  0  2  0  0  0  0  0  0
  -28.0230  -26.3610   19.6690 O   0  0  0  0  0  0  0  0  0  0  0  0
  -24.5970  -31.6060   23.0640 C   0  0  0  0  0  0  0  0  0  0  0  0
  -26.9170  -27.1720   19.7360 C   0  0  0  0  0  0  0  0  0  0  0  0
  -23.2790  -30.3490   21.3910 C   0  0  0  0  0  3  0  0  0  0  0  0
  -24.6150  -28.8130   19.8570 C   0  0  0  0  0  0  0  0  0  0  0  0
  -25.8150  -30.5930   21.1350 C   0  0  0  0  0  2  0  0  0  0  0  0
  -25.8130  -29.2470   20.4360 C   0  0  0  0  0  0  0  0  0  0  0  0
  -26.9680  -28.4380   20.3700 C   0  0  0  0  0  3  0  0  0  0  0  0
  -25.7110  -26.7590   19.1430 C   0  0  0  0  0  3  0  0  0  0  0  0
  -24.5610  -27.5690   19.2000 C   0  0  0  0  0  3  0  0  0  0  0  0
  -23.4180  -29.7290   19.9770 C   0  0  0  0  0  2  0  0  0  0  0  0
  -24.5840  -30.8660   21.9210 N   0  0  0  0  0  0  0  0  0  0  0  0
  -23.5450  -31.8990   23.6470 O   0  0  0  0  0  0  0  0  0  0  0  0
  -22.6060  -29.3120   22.3210 C   0  0  0  0  0  0  0  0  0  0  0  0
  -21.2700  -29.2010   22.2290 N   0  0  0  0  0  0  0  0  0  0  0  0
  -23.2820  -28.6100   23.0760 O   0  0  0  0  0  0  0  0  0  0  0  0
  -20.7860  -29.8130   21.5870 H   0  0  0  0  0  0  0  0  0  0  0  0
  -17.8540  -28.1520   22.7720 C   0  0  0  0  0  0  0  0  0  0  0  0
  -20.4320  -28.2660   22.9750 C   0  0  0  0  0  3  0  0  0  0  0  0
  -20.4410  -26.8610   22.3290 C   0  0  0  0  0  2  0  0  0  0  0  0
  -19.2940  -26.6470   21.3370 C   0  0  0  0  0  2  0  0  0  0  0  0
  -17.9410  -26.8320   22.0280 C   0  0  0  0  0  2  0  0  0  0  0  0
  -19.0240  -28.8350   23.2030 C   0  0  0  0  0  0  0  0  0  0  0  0
  -18.8890  -30.0800   23.8530 C   0  0  0  0  0  3  0  0  0  0  0  0
  -17.6160  -30.6330   24.0900 C   0  0  0  0  0  3  0  0  0  0  0  0
  -16.4620  -29.9460   23.6710 C   0  0  0  0  0  3  0  0  0  0  0  0
  -16.5840  -28.7070   23.0150 C   0  0  0  0  0  3  0  0  0  0  0  0
  -25.9310  -32.1390   23.6780 C   0  0  0  0  0  3  0  0  0  0  0  0
  -25.6920  -33.5190   24.1200 N   0  0  0  0  0  0  0  0  0  0  0  0
  -26.0440  -34.6110   23.4280 C   0  0  0  0  0  0  0  0  0  0  0  0
  -26.6830  -34.5610   22.3750 O   0  0  0  0  0  0  0  0  0  0  0  0
  -25.1380  -33.6390   24.9550 H   0  0  0  0  0  0  0  0  0  0  0  0
  -24.3810  -36.4900   23.2590 C   0  0  0  0  0  1  0  0  0  0  0  0
  -25.6250  -35.9790   24.0030 C   0  0  0  0  0  3  0  0  0  0  0  0
  -27.8120  -36.7140   24.8370 C   0  0  0  0  0  1  0  0  0  0  0  0
  -26.6960  -36.9970   23.9390 N   0  0  0  0  0  0  0  0  0  0  0  0
  -26.3300  -37.9160   24.1730 H   0  0  0  0  0  0  0  0  0  0  0  0
  -26.4640  -31.2590   24.8750 C   0  0  1  0  0  0  0  0  0  0  0  0
  -25.4090  -30.9920   25.9720 C   0  0  0  0  0  1  0  0  0  0  0  0
  -26.9750  -29.8910   24.3660 C   0  0  0  0  0  1  0  0  0  0  0  0
  -27.6750  -31.9570   25.5410 C   0  0  0  0  0  1  0  0  0  0  0  0
  1  2  1  0
  2  4  2  0
  2  7  1  0
  3  1  2  0
  3  5  1  0
  5  4  1  0
  7  6  1  0
  7  9  1  0
  9  8  1  0
 10 18  1  0
 11 16  1  0
 12 13  1  0
 12 11  1  0
 14 13  1  0
 14 23  1  0
 14 15  1  0
 16 10  1  0
 16 15  1  0
 17 10  2  0
 18 19  1  0
 18  9  1  0
 20 21  2  0
 21 40  1  0
 22 21  1  0
 22 25  1  0
 23 24  1  0
 23 20  1  0
 24 22  2  0
 25 26  1  0
 26 27  2  0
 28 31  1  0
 28 27  1  0
 29 28  2  0
 30 29  1  0
 30 25  2  0
 31 32  1  0
 32 33  1  0
 33 34  2  0
 35 34  1  0
 35 39  1  0
 36 35  2  0
 37 32  2  0
 37 36  1  0
 38 37  1  0
 40 41  1  0
 41 44  1  0
 41 43  1  0
 42 40  2  0
 45 20  1  0
 45 46  1  0
 47 45  1  0
 48 49  1  0
 49  5  1  0
 50  3  1  0
 50 52  1  0
 52 51  1  0
 53 52  1  0
 53 54  1  0
 55 57  1  0
 55 54  1  0
 56 67  2  0
 57 62  1  0
 58 66  1  0
 58 68  1  0
 59 65  1  0
 59 61  1  0
 60 66  1  0
 61 60  1  0
 62 61  2  0
 63 64  1  0
 63 57  2  0
 64 59  2  0
 65 58  1  0
 66 56  1  0
 68 70  2  0
 69 68  1  0
 71 69  1  0
 72 81  2  0
 72 77  1  0
 73 69  1  0
 73 77  1  0
 74 73  1  0
 75 76  1  0
 75 74  1  0
 76 72  1  0
 77 78  2  0
 78 79  1  0
 80 79  2  0
 81 80  1  0
 82 56  1  0
 82 83  1  0
 82 92  1  0
 83 86  1  0
 84 88  1  0
 84 83  1  0
 85 84  2  0
 88 87  1  0
 90 88  1  0
 90 91  1  0
 90 89  1  0
 92 95  1  1
 92 93  1  0
 94 92  1  0
M  ISO  4  10 100  18 100  54 101  55 101
M  END
>  <TORSDO>  (3) 
F 23

>  <SCORE>  (3) 
-11.084

>  <name>  (3) 
2

>  <ligand_id>  (3) 
2

>  <original_smiles>  (3) 
[H]c1c([H])c([H])c2c(c1[H])C([H])([H])C([H])([H])C([H])([H])C2([H])N([H])C(=O)C1([H])N(C(=O)C([H])(N([H])C(=O)C([H])(N([H])C([H])([H])[H])C([H])([H])[H])C(C([H])([H])[H])(C([H])([H])[H])C([H])([H])[H])C([H])([H])c2c([H])c(OC([H])([H])C([H])([H])C([H])(C([H])([H])[H])C([H])([H])c3c([H])c(C([H])(C([H])([H])[H])C([H])(N([H])C(=O)N4C([H])([H])C([H])([H])C([H])([H])C([H])(n5nc(-c6c([H])c([H])c(Oc7c([H])c([H])c(F)c([H])c7F)c([H])c6[H])c(C(=O)N([H])[H])c5N([H])[H])C4([H])[H])C([H])([H])[H])nn3C([H])([H])C([H])([H])[H])c([H])c([H])c2C1([H])[H]

>  <smiles>  (3) 
[H]c1c([H])c([H])c2c(c1[H])C([H])([H])C([H])([H])C([H])([H])C2([H])N([H])C(=O)C1([H])N(C(=O)C([H])(N([H])C(=O)C([H])(N([H])C([H])([H])[H])C([H])([H])[H])C(C([H])([H])[H])(C([H])([H])[H])C([H])([H])[H])C([H])([H])c2c([H])c(OC([H])([H])C([H])([H])C([H])(C([H])([H])[H])C([H])([H])c3c([H])c(C([H])(C([H])([H])[H])C([H])(N([H])C(=O)N4C([H])([H])C([H])([H])C([H])([H])C([H])(n5nc(-c6c([H])c([H])c(Oc7c([H])c([H])c(F)c([H])c7F)c([H])c6[H])c(C(=O)N([H])[H])c5N([H])[H])C4([H])[H])C([H])([H])[H])nn3C([H])([H])C([H])([H])[H])c([H])c([H])c2C1([H])[H]

$$$$
3:0:0
     RDKit          3D

 94102  0  0  1  0  0  0  0  0999 V2000
  -27.6050  -22.5210   19.6440 C   0  0  0  0  0  3  0  0  0  0  0  0
  -26.7900  -21.5560   19.0420 C   0  0  0  0  0  0  0  0  0  0  0  0
  -28.8980  -22.2650   20.1800 C   0  0  0  0  0  0  0  0  0  0  0  0
  -27.2800  -20.2530   18.9560 C   0  0  0  0  0  0  0  0  0  0  0  0
  -29.3370  -20.8060   19.9900 C   0  0  0  0  0  0  0  0  0  0  0  0
  -26.4840  -19.1180   18.3450 C   0  0  0  0  0  1  0  0  0  0  0  0
  -28.4980  -19.9260   19.4010 N   0  0  0  0  0  0  0  0  0  0  0  0
  -24.6360  -22.8230   19.5140 C   0  0  0  0  0  1  0  0  0  0  0  0
  -25.4160  -21.9600   18.5120 C   0  0  0  0  0  2  0  0  0  0  0  0
  -30.6790  -19.8800   20.1300 C   0  0  0  0  0  2  0  0  0  0  0  0
  -30.8200  -18.4430   21.0490 C   0  0  0  0  0  2  0  0  0  0  0  0
  -31.2610  -15.7260   20.6990 C   0  0  0  0  0  0  0  0  0  0  0  0
  -31.2090  -13.3430   19.8130 C   0  0  0  0  0  2  0  0  0  0  0  0
  -30.3520  -13.2310   18.5320 C   0  0  0  0  0  2  0  0  0  0  0  0
  -28.8690  -13.0200   18.8870 C   0  0  0  0  0  2  0  0  0  0  0  0
  -28.3790  -13.9910   19.9920 C   0  0  0  0  0  3  0  0  0  0  0  0
  -29.3640  -14.0650   21.1760 C   0  0  0  0  0  2  0  0  0  0  0  0
  -30.6630  -14.4690   20.6220 N   0  0  0  0  0  0  0  0  0  0  0  0
  -32.4890  -15.7690   20.5730 O   0  0  0  0  0  0  0  0  0  0  0  0
  -30.4840  -16.9230   20.7110 N   0  0  0  0  0  0  0  0  0  0  0  0
  -29.4930  -16.7420   20.6410 H   0  0  0  0  0  0  0  0  0  0  0  0
  -25.9840  -14.5840   20.6690 C   0  0  0  0  0  0  0  0  0  0  0  0
  -24.8880  -13.8160   20.9440 C   0  0  0  0  0  0  0  0  0  0  0  0
  -25.3230  -12.4580   20.8520 C   0  0  0  0  0  0  0  0  0  0  0  0
  -27.0170  -13.6960   20.4200 N   0  0  0  0  0  0  0  0  0  0  0  0
  -26.6250  -12.4080   20.5980 N   0  0  0  0  0  0  0  0  0  0  0  0
  -24.5600  -11.2050   20.9260 C   0  0  0  0  0  0  0  0  0  0  0  0
  -24.8870  -10.1930   21.8550 C   0  0  0  0  0  3  0  0  0  0  0  0
  -24.1230   -9.0080   21.9210 C   0  0  0  0  0  3  0  0  0  0  0  0
  -23.0180   -8.8260   21.0570 C   0  0  0  0  0  0  0  0  0  0  0  0
  -22.7120   -9.8260   20.1160 C   0  0  0  0  0  3  0  0  0  0  0  0
  -23.4760  -11.0020   20.0480 C   0  0  0  0  0  3  0  0  0  0  0  0
  -22.2350   -7.6980   21.0320 O   0  0  0  0  0  0  0  0  0  0  0  0
  -21.9800   -6.9740   22.1700 C   0  0  0  0  0  0  0  0  0  0  0  0
  -21.3560   -7.5530   23.2960 C   0  0  0  0  0  3  0  0  0  0  0  0
  -21.0500   -6.7570   24.4180 C   0  0  0  0  0  3  0  0  0  0  0  0
  -21.3580   -5.3830   24.4130 C   0  0  0  0  0  0  0  0  0  0  0  0
  -21.9750   -4.8040   23.2900 C   0  0  0  0  0  3  0  0  0  0  0  0
  -22.2830   -5.5980   22.1710 C   0  0  0  0  0  0  0  0  0  0  0  0
  -22.8580   -5.0310   21.0840 F   0  0  0  0  0  0  0  0  0  0  0  0
  -21.0580   -4.6150   25.4870 F   0  0  0  0  0  0  0  0  0  0  0  0
  -23.4900  -14.3120   21.1770 C   0  0  0  0  0  0  0  0  0  0  0  0
  -22.7120  -13.5980   21.9820 N   0  0  0  0  0  0  0  0  0  0  0  0
  -23.0990  -15.3680   20.6820 O   0  0  0  0  0  0  0  0  0  0  0  0
  -23.0410  -12.7420   22.4030 H   0  0  0  0  0  0  0  0  0  0  0  0
  -21.7750  -13.9140   22.1820 H   0  0  0  0  0  0  0  0  0  0  0  0
  -26.1830  -15.9570   20.5760 N   0  0  0  0  0  0  0  0  0  0  0  0
  -25.4090  -16.6060   20.6550 H   0  0  0  0  0  0  0  0  0  0  0  0
  -27.0310  -16.3920   20.2410 H   0  0  0  0  0  0  0  0  0  0  0  0
  -29.4710  -23.6810   20.8640 C   0  0  0  0  0  3  0  0  0  0  0  0
  -31.9490  -23.0860   20.2660 C   0  0  0  0  0  1  0  0  0  0  0  0
  -30.8270  -24.1270   20.2750 C   0  0  0  0  0  2  0  0  0  0  0  0
  -28.5050  -25.1060   20.8860 C   0  0  0  0  0  2  0  0  0  0  0  0
  -28.8100  -26.6390   21.0310 O   0  0  0  0  0  0  0  0  0  0  0  0
  -24.9470  -32.3540   23.7390 C   0  0  0  0  0  0  0  0  0  0  0  0
  -27.7570  -27.6300   20.9120 C   0  0  0  0  0  0  0  0  0  0  0  0
  -23.8710  -30.9370   22.0360 C   0  0  0  0  0  3  0  0  0  0  0  0
  -25.4220  -29.3680   20.7200 C   0  0  0  0  0  0  0  0  0  0  0  0
  -26.4300  -31.2190   22.0410 C   0  0  0  0  0  2  0  0  0  0  0  0
  -26.5580  -29.8220   21.4030 C   0  0  0  0  0  0  0  0  0  0  0  0
  -27.7260  -28.9690   21.4850 C   0  0  0  0  0  3  0  0  0  0  0  0
  -26.6000  -27.2960   20.1710 C   0  0  0  0  0  3  0  0  0  0  0  0
  -25.4580  -28.1180   20.0910 C   0  0  0  0  0  3  0  0  0  0  0  0
  -24.1880  -30.2560   20.6780 C   0  0  0  0  0  2  0  0  0  0  0  0
  -25.0980  -31.5260   22.6600 N   0  0  0  0  0  0  0  0  0  0  0  0
  -23.8250  -32.6350   24.1880 O   0  0  0  0  0  0  0  0  0  0  0  0
  -23.1400  -29.9270   22.9580 C   0  0  0  0  0  0  0  0  0  0  0  0
  -21.8560  -29.6520   22.6670 N   0  0  0  0  0  0  0  0  0  0  0  0
  -23.7350  -29.3940   23.8970 O   0  0  0  0  0  0  0  0  0  0  0  0
  -21.4310  -30.1420   21.8920 H   0  0  0  0  0  0  0  0  0  0  0  0
  -18.5270  -28.2280   22.7930 C   0  0  0  0  0  0  0  0  0  0  0  0
  -21.0040  -28.6930   23.3740 C   0  0  0  0  0  3  0  0  0  0  0  0
  -21.2770  -27.2470   22.9000 C   0  0  0  0  0  2  0  0  0  0  0  0
  -20.3440  -26.7940   21.7700 C   0  0  0  0  0  2  0  0  0  0  0  0
  -18.8820  -26.8650   22.2210 C   0  0  0  0  0  2  0  0  0  0  0  0
  -19.5240  -29.0910   23.3180 C   0  0  0  0  0  0  0  0  0  0  0  0
  -19.1420  -30.3600   23.8060 C   0  0  0  0  0  3  0  0  0  0  0  0
  -17.7940  -30.7660   23.7820 C   0  0  0  0  0  3  0  0  0  0  0  0
  -16.8100  -29.9010   23.2720 C   0  0  0  0  0  3  0  0  0  0  0  0
  -17.1760  -28.6350   22.7810 C   0  0  0  0  0  3  0  0  0  0  0  0
  -26.1750  -33.0040   24.4460 C   0  0  0  0  0  3  0  0  0  0  0  0
  -25.8610  -34.4250   24.6610 N   0  0  0  0  0  0  0  0  0  0  0  0
  -26.2380  -35.4240   23.8540 C   0  0  0  0  0  0  0  0  0  0  0  0
  -26.9530  -35.2470   22.8640 O   0  0  0  0  0  0  0  0  0  0  0  0
  -25.2300  -34.6340   25.4210 H   0  0  0  0  0  0  0  0  0  0  0  0
  -24.5170  -37.1950   23.3480 C   0  0  0  0  0  1  0  0  0  0  0  0
  -25.7480  -36.8450   24.2010 C   0  0  0  0  0  3  0  0  0  0  0  0
  -27.8730  -37.7890   24.9900 C   0  0  0  0  0  1  0  0  0  0  0  0
  -26.7830  -37.8860   24.0250 N   0  0  0  0  0  0  0  0  0  0  0  0
  -26.3740  -38.8140   24.1000 H   0  0  0  0  0  0  0  0  0  0  0  0
  -26.5430  -32.3100   25.8160 C   0  0  1  0  0  0  0  0  0  0  0  0
  -25.3290  -32.0910   26.7490 C   0  0  0  0  0  1  0  0  0  0  0  0
  -27.2040  -30.9330   25.5760 C   0  0  0  0  0  1  0  0  0  0  0  0
  -27.5790  -33.1720   26.5740 C   0  0  0  0  0  1  0  0  0  0  0  0
  1  3  1  0
  2  1  2  0
  3 50  1  0
  4  2  1  0
  4  7  2  0
  5 10  1  0
  5  3  2  0
  6  4  1  0
  7  5  1  0
  9  2  1  0
  9  8  1  0
 10 11  1  0
 12 20  1  0
 13 18  1  0
 14 15  1  0
 14 13  1  0
 16 15  1  0
 16 25  1  0
 16 17  1  0
 18 12  1  0
 18 17  1  0
 19 12  2  0
 20 11  1  0
 21 20  1  0
 22 23  2  0
 23 42  1  0
 24 27  1  0
 24 23  1  0
 25 26  1  0
 25 22  1  0
 26 24  2  0
 27 28  1  0
 28 29  2  0
 30 29  1  0
 31 30  2  0
 32 31  1  0
 32 27  2  0
 33 30  1  0
 33 34  1  0
 34 39  2  0
 34 35  1  0
 35 36  2  0
 37 36  1  0
 37 41  1  0
 38 37  2  0
 39 38  1  0
 40 39  1  0
 42 43  1  0
 43 46  1  0
 43 45  1  0
 44 42  2  0
 47 48  1  0
 47 22  1  0
 49 47  1  0
 50 52  1  0
 50 53  1  0
 51 52  1  0
 53 54  1  0
 55 66  2  0
 56 54  1  0
 56 61  1  0
 57 65  1  0
 57 67  1  0
 58 60  1  0
 59 65  1  0
 60 61  2  0
 60 59  1  0
 62 56  2  0
 63 62  1  0
 63 58  2  0
 64 58  1  0
 64 57  1  0
 65 55  1  0
 67 69  2  0
 68 67  1  0
 70 68  1  0
 71 76  1  0
 72 68  1  0
 73 72  1  0
 74 75  1  0
 74 73  1  0
 75 71  1  0
 76 72  1  0
 76 77  2  0
 78 77  1  0
 79 78  2  0
 80 71  2  0
 80 79  1  0
 81 55  1  0
 81 82  1  0
 81 91  1  0
 82 85  1  0
 83 87  1  0
 83 82  1  0
 84 83  2  0
 87 86  1  0
 89 90  1  0
 89 87  1  0
 89 88  1  0
 91 94  1  1
 91 92  1  0
 93 91  1  0
M  ISO  4  12 100  20 100  53 101  54 101
M  END
>  <TORSDO>  (4) 
F 22

>  <SCORE>  (4) 
-11.150

>  <name>  (4) 
3

>  <ligand_id>  (4) 
3

>  <original_smiles>  (4) 
[H]c1c([H])c([H])c2c(c1[H])C([H])([H])C([H])([H])C([H])([H])C2([H])N([H])C(=O)C1([H])N(C(=O)C([H])(N([H])C(=O)C([H])(N([H])C([H])([H])[H])C([H])([H])[H])C(C([H])([H])[H])(C([H])([H])[H])C([H])([H])[H])C([H])([H])c2c([H])c(OC([H])([H])C([H])(c3c(C([H])([H])C([H])([H])N([H])C(=O)N4C([H])([H])C([H])([H])C([H])([H])C([H])(n5nc(-c6c([H])c([H])c(Oc7c([H])c([H])c(F)c([H])c7F)c([H])c6[H])c(C(=O)N([H])[H])c5N([H])[H])C4([H])[H])nc(C([H])([H])[H])c(C([H])([H])C([H])([H])[H])c3[H])C([H])([H])C([H])([H])[H])c([H])c([H])c2C1([H])[H]

>  <smiles>  (4) 
[H]c1c([H])c([H])c2c(c1[H])C([H])([H])C([H])([H])C([H])([H])C2([H])N([H])C(=O)C1([H])N(C(=O)C([H])(N([H])C(=O)C([H])(N([H])C([H])([H])[H])C([H])([H])[H])C(C([H])([H])[H])(C([H])([H])[H])C([H])([H])[H])C([H])([H])c2c([H])c(OC([H])([H])C([H])(c3c(C([H])([H])C([H])([H])N([H])C(=O)N4C([H])([H])C([H])([H])C([H])([H])C([H])(n5nc(-c6c([H])c([H])c(Oc7c([H])c([H])c(F)c([H])c7F)c([H])c6[H])c(C(=O)N([H])[H])c5N([H])[H])C4([H])[H])nc(C([H])([H])[H])c(C([H])([H])C([H])([H])[H])c3[H])C([H])([H])C([H])([H])[H])c([H])c([H])c2C1([H])[H]

$$$$
4:0:0
     RDKit          3D

 95103  0  0  1  0  0  0  0  0999 V2000
  -29.3850  -21.8830   21.8620 C   0  0  0  0  0  3  0  0  0  0  0  0
  -30.5150  -19.4290   21.5100 C   0  0  0  0  0  3  0  0  0  0  0  0
  -29.1880  -21.2900   20.5930 C   0  0  0  0  0  0  0  0  0  0  0  0
  -29.7860  -19.9430   20.4090 C   0  0  0  0  0  0  0  0  0  0  0  0
  -30.1380  -21.2540   22.8600 C   0  0  0  0  0  0  0  0  0  0  0  0
  -30.3390  -21.9150   24.2060 C   0  0  0  0  0  1  0  0  0  0  0  0
  -30.7010  -20.0510   22.6890 N   0  0  0  0  0  0  0  0  0  0  0  0
  -28.2770  -22.1880   19.6470 C   0  0  0  0  0  2  0  0  0  0  0  0
  -28.6140  -23.7720   19.4050 C   0  0  0  0  0  3  0  0  0  0  0  0
  -27.4410  -24.8790   19.3150 C   0  0  0  0  0  3  0  0  0  0  0  0
  -27.7160  -26.3540   19.1840 O   0  0  0  0  0  0  0  0  0  0  0  0
  -24.5240  -31.6170   23.0370 C   0  0  0  0  0  0  0  0  0  0  0  0
  -26.6400  -27.2650   19.3200 C   0  0  0  0  0  0  0  0  0  0  0  0
  -23.1020  -30.3720   21.4510 C   0  0  0  0  0  3  0  0  0  0  0  0
  -24.3350  -28.9340   19.7290 C   0  0  0  0  0  0  0  0  0  0  0  0
  -25.6100  -30.6680   20.9830 C   0  0  0  0  0  2  0  0  0  0  0  0
  -25.5810  -29.3460   20.2180 C   0  0  0  0  0  0  0  0  0  0  0  0
  -26.7360  -28.5250   20.0040 C   0  0  0  0  0  3  0  0  0  0  0  0
  -25.3680  -26.9310   18.8020 C   0  0  0  0  0  3  0  0  0  0  0  0
  -24.2330  -27.7350   19.0100 C   0  0  0  0  0  3  0  0  0  0  0  0
  -23.1330  -29.8160   20.0030 C   0  0  0  0  0  2  0  0  0  0  0  0
  -24.4380  -30.9000   21.8770 N   0  0  0  0  0  0  0  0  0  0  0  0
  -23.5180  -31.8600   23.7200 O   0  0  0  0  0  0  0  0  0  0  0  0
  -22.5410  -29.2840   22.3980 C   0  0  0  0  0  0  0  0  0  0  0  0
  -21.2310  -29.0050   22.2940 N   0  0  0  0  0  0  0  0  0  0  0  0
  -23.2840  -28.6960   23.1890 O   0  0  0  0  0  0  0  0  0  0  0  0
  -20.6850  -29.5370   21.6300 H   0  0  0  0  0  0  0  0  0  0  0  0
  -18.0170  -27.3870   22.6870 C   0  0  0  0  0  0  0  0  0  0  0  0
  -20.5050  -27.9890   23.0590 C   0  0  0  0  0  3  0  0  0  0  0  0
  -20.8200  -26.5680   22.5370 C   0  0  0  0  0  2  0  0  0  0  0  0
  -19.8190  -26.0760   21.4870 C   0  0  0  0  0  2  0  0  0  0  0  0
  -18.4010  -26.0540   22.0650 C   0  0  0  0  0  2  0  0  0  0  0  0
  -19.0060  -28.3010   23.1390 C   0  0  0  0  0  0  0  0  0  0  0  0
  -18.5950  -29.5390   23.6790 C   0  0  0  0  0  3  0  0  0  0  0  0
  -17.2290  -29.8680   23.7720 C   0  0  0  0  0  3  0  0  0  0  0  0
  -16.2550  -28.9530   23.3360 C   0  0  0  0  0  3  0  0  0  0  0  0
  -16.6500  -27.7140   22.7990 C   0  0  0  0  0  3  0  0  0  0  0  0
  -25.8830  -32.1860   23.5450 C   0  0  0  0  0  3  0  0  0  0  0  0
  -25.6420  -33.5570   24.0180 N   0  0  0  0  0  0  0  0  0  0  0  0
  -25.9790  -34.6660   23.3460 C   0  0  0  0  0  0  0  0  0  0  0  0
  -26.5950  -34.6380   22.2770 O   0  0  0  0  0  0  0  0  0  0  0  0
  -25.0920  -33.6550   24.8590 H   0  0  0  0  0  0  0  0  0  0  0  0
  -24.3290  -36.5610   23.2250 C   0  0  0  0  0  1  0  0  0  0  0  0
  -25.5690  -36.0200   23.9550 C   0  0  0  0  0  3  0  0  0  0  0  0
  -27.7620  -36.7190   24.8100 C   0  0  0  0  0  1  0  0  0  0  0  0
  -26.6470  -37.0330   23.9210 N   0  0  0  0  0  0  0  0  0  0  0  0
  -26.2880  -37.9500   24.1720 H   0  0  0  0  0  0  0  0  0  0  0  0
  -26.5330  -31.3120   24.6870 C   0  0  1  0  0  0  0  0  0  0  0  0
  -25.5680  -30.9980   25.8560 C   0  0  0  0  0  1  0  0  0  0  0  0
  -27.0430  -29.9660   24.1250 C   0  0  0  0  0  1  0  0  0  0  0  0
  -27.7660  -32.0430   25.2680 C   0  0  0  0  0  1  0  0  0  0  0  0
  -29.7140  -18.9220   19.1920 C   0  0  0  0  0  3  0  0  0  0  0  0
  -30.1600  -19.6380   17.9840 N   0  0  0  0  0  4  0  0  0  0  0  0
  -31.1100  -19.9520   18.0750 H   0  0  0  0  0  0  0  0  0  0  0  0
  -29.5670  -20.4240   17.7920 H   0  0  0  0  0  0  0  0  0  0  0  0
  -30.1070  -19.0250   17.1890 H   0  0  0  0  0  0  0  0  0  0  0  0
  -30.5600  -17.5150   19.2370 C   0  0  0  0  0  2  0  0  0  0  0  0
  -30.7880  -14.9770   19.6290 C   0  0  0  0  0  0  0  0  0  0  0  0
  -30.6240  -12.5770   18.9730 C   0  0  0  0  0  2  0  0  0  0  0  0
  -29.6500  -12.4300   17.7860 C   0  0  0  0  0  2  0  0  0  0  0  0
  -28.2070  -12.2580   18.2960 C   0  0  0  0  0  2  0  0  0  0  0  0
  -27.8280  -13.2990   19.3830 C   0  0  0  0  0  3  0  0  0  0  0  0
  -28.9260  -13.4460   20.4590 C   0  0  0  0  0  2  0  0  0  0  0  0
  -30.1800  -13.7500   19.7630 N   0  0  0  0  0  0  0  0  0  0  0  0
  -31.9650  -15.0330   19.2670 O   0  0  0  0  0  0  0  0  0  0  0  0
  -30.0340  -16.1420   19.6610 N   0  0  0  0  0  0  0  0  0  0  0  0
  -29.0580  -16.0600   19.9040 H   0  0  0  0  0  0  0  0  0  0  0  0
  -25.5190  -13.9100   20.3150 C   0  0  0  0  0  0  0  0  0  0  0  0
  -24.4680  -13.1460   20.7410 C   0  0  0  0  0  0  0  0  0  0  0  0
  -24.8960  -11.7870   20.6310 C   0  0  0  0  0  0  0  0  0  0  0  0
  -26.5210  -13.0190   19.9700 N   0  0  0  0  0  0  0  0  0  0  0  0
  -26.1590  -11.7340   20.2240 N   0  0  0  0  0  0  0  0  0  0  0  0
  -24.1570  -10.5340   20.8340 C   0  0  0  0  0  0  0  0  0  0  0  0
  -24.5580   -9.5880   21.8050 C   0  0  0  0  0  3  0  0  0  0  0  0
  -23.8190   -8.4010   21.9950 C   0  0  0  0  0  3  0  0  0  0  0  0
  -22.6650   -8.1490   21.2140 C   0  0  0  0  0  0  0  0  0  0  0  0
  -22.2850   -9.0830   20.2340 C   0  0  0  0  0  3  0  0  0  0  0  0
  -23.0230  -10.2620   20.0420 C   0  0  0  0  0  3  0  0  0  0  0  0
  -21.9010   -7.0120   21.3120 O   0  0  0  0  0  0  0  0  0  0  0  0
  -21.7080   -6.3750   22.5120 C   0  0  0  0  0  0  0  0  0  0  0  0
  -21.1240   -7.0290   23.6170 C   0  0  0  0  0  3  0  0  0  0  0  0
  -20.8800   -6.3170   24.8080 C   0  0  0  0  0  3  0  0  0  0  0  0
  -21.2120   -4.9510   24.8930 C   0  0  0  0  0  0  0  0  0  0  0  0
  -21.7880   -4.2970   23.7910 C   0  0  0  0  0  3  0  0  0  0  0  0
  -22.0340   -5.0070   22.6030 C   0  0  0  0  0  0  0  0  0  0  0  0
  -22.5710   -4.3660   21.5370 F   0  0  0  0  0  0  0  0  0  0  0  0
  -20.9710   -4.2640   26.0340 F   0  0  0  0  0  0  0  0  0  0  0  0
  -23.1060  -13.6420   21.1310 C   0  0  0  0  0  0  0  0  0  0  0  0
  -22.4350  -12.9400   22.0390 N   0  0  0  0  0  0  0  0  0  0  0  0
  -22.6490  -14.6850   20.6670 O   0  0  0  0  0  0  0  0  0  0  0  0
  -22.8200  -12.0960   22.4350 H   0  0  0  0  0  0  0  0  0  0  0  0
  -21.5230  -13.2530   22.3400 H   0  0  0  0  0  0  0  0  0  0  0  0
  -25.6980  -15.2820   20.1660 N   0  0  0  0  0  0  0  0  0  0  0  0
  -24.9490  -15.9430   20.3440 H   0  0  0  0  0  0  0  0  0  0  0  0
  -26.5120  -15.7110   19.7460 H   0  0  0  0  0  0  0  0  0  0  0  0
  1  5  1  0
  2  7  1  0
  3  1  2  0
  4  3  1  0
  4  2  2  0
  5  6  1  0
  7  5  2  0
  8  3  1  0
  9  8  1  0
 10  9  2  0
 11 10  1  0
 11 13  1  0
 12 23  2  0
 13 18  1  0
 14 22  1  0
 14 24  1  0
 15 21  1  0
 15 17  1  0
 16 22  1  0
 17 16  1  0
 18 17  2  0
 19 20  1  0
 19 13  2  0
 20 15  2  0
 21 14  1  0
 22 12  1  0
 24 26  2  0
 25 24  1  0
 27 25  1  0
 28 37  2  0
 28 33  1  0
 29 25  1  0
 29 33  1  0
 30 29  1  0
 31 32  1  0
 31 30  1  0
 32 28  1  0
 33 34  2  0
 34 35  1  0
 36 35  2  0
 37 36  1  0
 38 12  1  0
 38 39  1  0
 38 48  1  0
 39 42  1  0
 40 44  1  0
 40 39  1  0
 41 40  2  0
 44 43  1  0
 46 44  1  0
 46 47  1  0
 46 45  1  0
 48 51  1  1
 48 49  1  0
 50 48  1  0
 52 57  1  0
 52  4  1  0
 53 54  1  0
 53 52  1  0
 55 53  1  0
 56 53  1  0
 57 66  1  0
 58 66  1  0
 58 64  1  0
 59 64  1  0
 60 61  1  0
 60 59  1  0
 62 61  1  0
 62 71  1  0
 62 63  1  0
 64 63  1  0
 65 58  2  0
 66 67  1  0
 68 69  2  0
 69 88  1  0
 70 69  1  0
 70 73  1  0
 71 72  1  0
 71 68  1  0
 72 70  2  0
 73 74  1  0
 74 75  2  0
 76 79  1  0
 76 75  1  0
 77 76  2  0
 78 77  1  0
 78 73  2  0
 79 80  1  0
 80 85  2  0
 80 81  1  0
 81 82  2  0
 82 83  1  0
 83 87  1  0
 84 83  2  0
 85 84  1  0
 86 85  1  0
 88 89  1  0
 89 92  1  0
 89 91  1  0
 90 88  2  0
 93 68  1  0
 93 94  1  0
 95 93  1  0
M  ISO  4  10 101  11 101  58 100  66 100
M  END
>  <TORSDO>  (5) 
F 22

>  <SCORE>  (5) 
-12.515

>  <name>  (5) 
4

>  <ligand_id>  (5) 
4

>  <original_smiles>  (5) 
[H]c1nc(C([H])([H])[H])c([H])c(C([H])([H])C([H])([H])C([H])([H])Oc2c([H])c([H])c3c(c2[H])C([H])([H])N(C(=O)C([H])(N([H])C(=O)C([H])(N([H])C([H])([H])[H])C([H])([H])[H])C(C([H])([H])[H])(C([H])([H])[H])C([H])([H])[H])C([H])(C(=O)N([H])C2([H])c4c([H])c([H])c([H])c([H])c4C([H])([H])C([H])([H])C2([H])[H])C3([H])[H])c1C([H])(C([H])([H])N([H])C(=O)N1C([H])([H])C([H])([H])C([H])([H])C([H])(n2nc(-c3c([H])c([H])c(Oc4c([H])c([H])c(F)c([H])c4F)c([H])c3[H])c(C(=O)N([H])[H])c2N([H])[H])C1([H])[H])[N+]([H])([H])[H]

>  <smiles>  (5) 
[H]c1nc(C([H])([H])[H])c([H])c(C([H])([H])C([H])([H])C([H])([H])Oc2c([H])c([H])c3c(c2[H])C([H])([H])N(C(=O)C([H])(N([H])C(=O)C([H])(N([H])C([H])([H])[H])C([H])([H])[H])C(C([H])([H])[H])(C([H])([H])[H])C([H])([H])[H])C([H])(C(=O)N([H])C2([H])c4c([H])c([H])c([H])c([H])c4C([H])([H])C([H])([H])C2([H])[H])C3([H])[H])c1C([H])(C([H])([H])N([H])C(=O)N1C([H])([H])C([H])([H])C([H])([H])C([H])(n2nc(-c3c([H])c([H])c(Oc4c([H])c([H])c(F)c([H])c4F)c([H])c3[H])c(C(=O)N([H])[H])c2N([H])[H])C1([H])[H])[N+]([H])([H])[H]

$$$$
5:0:0
     RDKit          3D

 92100  0  0  1  0  0  0  0  0999 V2000
  -27.9770  -20.7830   19.6580 C   0  0  0  0  0  0  0  0  0  0  0  0
  -28.9260  -21.4080   20.5260 C   0  0  0  0  0  0  0  0  0  0  0  0
  -28.3960  -19.4970   19.4130 C   0  0  0  0  0  0  0  0  0  0  0  0
  -29.8960  -20.4540   20.7780 C   0  0  0  0  0  0  0  0  0  0  0  0
  -26.7200  -21.4210   19.1190 C   0  0  0  0  0  1  0  0  0  0  0  0
  -27.7760  -18.4290   18.5620 C   0  0  0  0  0  1  0  0  0  0  0  0
  -31.1280  -20.5540   21.6270 C   0  0  0  0  0  1  0  0  0  0  0  0
  -29.5770  -19.2640   20.1070 N   0  0  0  0  0  0  0  0  0  0  0  0
  -28.8040  -22.8280   21.1370 C   0  0  0  0  0  2  0  0  0  0  0  0
  -28.7010  -24.0820   20.1950 C   0  0  0  0  0  2  0  0  0  0  0  0
  -28.2840  -25.3910   20.9540 C   0  0  0  0  0  2  0  0  0  0  0  0
  -28.3560  -26.6420   20.2190 O   0  0  0  0  0  0  0  0  0  0  0  0
  -24.5710  -31.9280   23.2460 C   0  0  0  0  0  0  0  0  0  0  0  0
  -27.2100  -27.4190   20.2220 C   0  0  0  0  0  0  0  0  0  0  0  0
  -23.3700  -30.5200   21.6070 C   0  0  0  0  0  3  0  0  0  0  0  0
  -24.8280  -28.9600   20.2030 C   0  0  0  0  0  0  0  0  0  0  0  0
  -25.9020  -30.8570   21.4250 C   0  0  0  0  0  2  0  0  0  0  0  0
  -25.9870  -29.4790   20.7940 C   0  0  0  0  0  0  0  0  0  0  0  0
  -27.1850  -28.7180   20.7940 C   0  0  0  0  0  3  0  0  0  0  0  0
  -26.0330  -26.9230   19.6250 C   0  0  0  0  0  3  0  0  0  0  0  0
  -24.8470  -27.6830   19.6140 C   0  0  0  0  0  3  0  0  0  0  0  0
  -23.5880  -29.8270   20.2350 C   0  0  0  0  0  2  0  0  0  0  0  0
  -24.6330  -31.1180   22.1500 N   0  0  0  0  0  0  0  0  0  0  0  0
  -23.4880  -32.2100   23.7770 O   0  0  0  0  0  0  0  0  0  0  0  0
  -22.7070  -29.5110   22.5720 C   0  0  0  0  0  0  0  0  0  0  0  0
  -21.3810  -29.3410   22.4450 N   0  0  0  0  0  0  0  0  0  0  0  0
  -23.3820  -28.8820   23.3910 O   0  0  0  0  0  0  0  0  0  0  0  0
  -20.8970  -29.9000   21.7550 H   0  0  0  0  0  0  0  0  0  0  0  0
  -17.9910  -28.1930   22.9570 C   0  0  0  0  0  0  0  0  0  0  0  0
  -20.5530  -28.4140   23.2160 C   0  0  0  0  0  3  0  0  0  0  0  0
  -20.6330  -26.9840   22.6360 C   0  0  0  0  0  2  0  0  0  0  0  0
  -19.5210  -26.6790   21.6270 C   0  0  0  0  0  2  0  0  0  0  0  0
  -18.1440  -26.8430   22.2780 C   0  0  0  0  0  2  0  0  0  0  0  0
  -19.1220  -28.9390   23.3830 C   0  0  0  0  0  0  0  0  0  0  0  0
  -18.9240  -30.2030   23.9790 C   0  0  0  0  0  3  0  0  0  0  0  0
  -17.6280  -30.7240   24.1500 C   0  0  0  0  0  3  0  0  0  0  0  0
  -16.5110  -29.9750   23.7390 C   0  0  0  0  0  3  0  0  0  0  0  0
  -16.6930  -28.7120   23.1490 C   0  0  0  0  0  3  0  0  0  0  0  0
  -25.8550  -32.5580   23.8700 C   0  0  0  0  0  3  0  0  0  0  0  0
  -25.5500  -33.9590   24.1930 N   0  0  0  0  0  0  0  0  0  0  0  0
  -25.8960  -35.0070   23.4330 C   0  0  0  0  0  0  0  0  0  0  0  0
  -26.5760  -34.8960   22.4100 O   0  0  0  0  0  0  0  0  0  0  0  0
  -24.9460  -34.1180   24.9860 H   0  0  0  0  0  0  0  0  0  0  0  0
  -24.1880  -36.8120   23.0460 C   0  0  0  0  0  1  0  0  0  0  0  0
  -25.4110  -36.3990   23.8800 C   0  0  0  0  0  3  0  0  0  0  0  0
  -27.5350  -37.2680   24.7520 C   0  0  0  0  0  1  0  0  0  0  0  0
  -26.4530  -37.4450   23.7860 N   0  0  0  0  0  0  0  0  0  0  0  0
  -26.0520  -38.3670   23.9250 H   0  0  0  0  0  0  0  0  0  0  0  0
  -26.3660  -31.7910   25.1500 C   0  0  1  0  0  0  0  0  0  0  0  0
  -25.2690  -31.5580   26.2150 C   0  0  0  0  0  1  0  0  0  0  0  0
  -26.9480  -30.4110   24.7630 C   0  0  0  0  0  1  0  0  0  0  0  0
  -27.5170  -32.5850   25.8130 C   0  0  0  0  0  1  0  0  0  0  0  0
  -30.3570  -17.9910   20.0670 C   0  0  0  0  0  2  0  0  0  0  0  0
  -30.1820  -17.0290   21.2900 C   0  0  0  0  0  2  0  0  0  0  0  0
  -30.6470  -14.5980   20.5430 C   0  0  0  0  0  0  0  0  0  0  0  0
  -30.4200  -12.4270   19.3680 C   0  0  0  0  0  2  0  0  0  0  0  0
  -29.4850  -12.6160   18.1540 C   0  0  0  0  0  2  0  0  0  0  0  0
  -28.0050  -12.4650   18.5640 C   0  0  0  0  0  2  0  0  0  0  0  0
  -27.6460  -13.2910   19.8270 C   0  0  0  0  0  3  0  0  0  0  0  0
  -28.6880  -13.0610   20.9450 C   0  0  0  0  0  2  0  0  0  0  0  0
  -30.0110  -13.3990   20.3960 N   0  0  0  0  0  0  0  0  0  0  0  0
  -31.7990  -14.7960   20.1480 O   0  0  0  0  0  0  0  0  0  0  0  0
  -29.8660  -15.6040   21.0010 N   0  0  0  0  0  0  0  0  0  0  0  0
  -28.9290  -15.3180   21.2420 H   0  0  0  0  0  0  0  0  0  0  0  0
  -25.2340  -13.8950   20.4900 C   0  0  0  0  0  0  0  0  0  0  0  0
  -24.1620  -13.1230   20.8450 C   0  0  0  0  0  0  0  0  0  0  0  0
  -24.6280  -11.7730   20.8340 C   0  0  0  0  0  0  0  0  0  0  0  0
  -26.2860  -13.0150   20.2850 N   0  0  0  0  0  0  0  0  0  0  0  0
  -25.9240  -11.7340   20.5510 N   0  0  0  0  0  0  0  0  0  0  0  0
  -23.9030  -10.5100   21.0210 C   0  0  0  0  0  0  0  0  0  0  0  0
  -24.3160   -9.5550   21.9760 C   0  0  0  0  0  3  0  0  0  0  0  0
  -23.5920   -8.3560   22.1500 C   0  0  0  0  0  3  0  0  0  0  0  0
  -22.4400   -8.1040   21.3670 C   0  0  0  0  0  0  0  0  0  0  0  0
  -22.0460   -9.0460   20.4020 C   0  0  0  0  0  3  0  0  0  0  0  0
  -22.7700  -10.2370   20.2270 C   0  0  0  0  0  3  0  0  0  0  0  0
  -21.6900   -6.9550   21.4490 O   0  0  0  0  0  0  0  0  0  0  0  0
  -21.6100   -6.2280   22.6100 C   0  0  0  0  0  0  0  0  0  0  0  0
  -21.1380   -6.7950   23.8140 C   0  0  0  0  0  3  0  0  0  0  0  0
  -21.0080   -5.9940   24.9650 C   0  0  0  0  0  3  0  0  0  0  0  0
  -21.3380   -4.6260   24.9140 C   0  0  0  0  0  0  0  0  0  0  0  0
  -21.8020   -4.0580   23.7150 C   0  0  0  0  0  3  0  0  0  0  0  0
  -21.9340   -4.8570   22.5650 C   0  0  0  0  0  0  0  0  0  0  0  0
  -22.3620   -4.3000   21.4060 F   0  0  0  0  0  0  0  0  0  0  0  0
  -21.2040   -3.8550   26.0180 F   0  0  0  0  0  0  0  0  0  0  0  0
  -22.7580  -13.5970   21.0870 C   0  0  0  0  0  0  0  0  0  0  0  0
  -22.0150  -12.9020   21.9400 N   0  0  0  0  0  0  0  0  0  0  0  0
  -22.3280  -14.6190   20.5530 O   0  0  0  0  0  0  0  0  0  0  0  0
  -22.3740  -12.0760   22.3940 H   0  0  0  0  0  0  0  0  0  0  0  0
  -21.0710  -13.2020   22.1450 H   0  0  0  0  0  0  0  0  0  0  0  0
  -25.3970  -15.2650   20.3040 N   0  0  0  0  0  0  0  0  0  0  0  0
  -24.6220  -15.9130   20.3900 H   0  0  0  0  0  0  0  0  0  0  0  0
  -26.2490  -15.7040   19.9800 H   0  0  0  0  0  0  0  0  0  0  0  0
  1  2  1  0
  2  4  2  0
  2  9  1  0
  3  1  2  0
  3  8  1  0
  4  7  1  0
  5  1  1  0
  6  3  1  0
  8  4  1  0
 10 11  1  0
 10  9  1  0
 12 14  1  0
 12 11  1  0
 13 24  2  0
 14 19  1  0
 15 23  1  0
 15 25  1  0
 16 22  1  0
 16 18  1  0
 17 23  1  0
 18 19  2  0
 18 17  1  0
 20 14  2  0
 21 20  1  0
 21 16  2  0
 22 15  1  0
 23 13  1  0
 25 27  2  0
 26 25  1  0
 28 26  1  0
 29 38  2  0
 29 34  1  0
 30 26  1  0
 30 34  1  0
 31 30  1  0
 32 33  1  0
 32 31  1  0
 33 29  1  0
 34 35  2  0
 35 36  1  0
 37 36  2  0
 38 37  1  0
 39 13  1  0
 39 40  1  0
 39 49  1  0
 40 43  1  0
 41 45  1  0
 41 40  1  0
 42 41  2  0
 45 44  1  0
 47 45  1  0
 47 48  1  0
 47 46  1  0
 49 52  1  1
 49 50  1  0
 51 49  1  0
 53  8  1  0
 53 54  1  0
 55 63  1  0
 56 61  1  0
 57 58  1  0
 57 56  1  0
 59 58  1  0
 59 68  1  0
 59 60  1  0
 61 55  1  0
 61 60  1  0
 62 55  2  0
 63 64  1  0
 63 54  1  0
 65 66  2  0
 66 85  1  0
 67 66  1  0
 67 70  1  0
 68 65  1  0
 68 69  1  0
 69 67  2  0
 70 71  1  0
 71 72  2  0
 73 76  1  0
 73 72  1  0
 74 73  2  0
 75 74  1  0
 75 70  2  0
 76 77  1  0
 77 78  1  0
 78 79  2  0
 80 79  1  0
 80 84  1  0
 81 80  2  0
 82 77  2  0
 82 81  1  0
 83 82  1  0
 85 86  1  0
 86 89  1  0
 86 88  1  0
 87 85  2  0
 90 91  1  0
 90 65  1  0
 92 90  1  0
M  ISO  4  11 101  12 101  55 100  63 100
M  END
>  <TORSDO>  (6) 
F 21

>  <SCORE>  (6) 
-13.729

>  <name>  (6) 
5

>  <ligand_id>  (6) 
5

>  <original_smiles>  (6) 
[H]c1c([H])c([H])c2c(c1[H])C([H])([H])C([H])([H])C([H])([H])C2([H])N([H])C(=O)C1([H])N(C(=O)C([H])(N([H])C(=O)C([H])(N([H])C([H])([H])[H])C([H])([H])[H])C(C([H])([H])[H])(C([H])([H])[H])C([H])([H])[H])C([H])([H])c2c([H])c(OC([H])([H])C([H])([H])C([H])([H])c3c(C([H])([H])[H])c(C([H])([H])[H])n(C([H])([H])C([H])([H])N([H])C(=O)N4C([H])([H])C([H])([H])C([H])([H])C([H])(n5nc(-c6c([H])c([H])c(Oc7c([H])c([H])c(F)c([H])c7F)c([H])c6[H])c(C(=O)N([H])[H])c5N([H])[H])C4([H])[H])c3C([H])([H])[H])c([H])c([H])c2C1([H])[H]

>  <smiles>  (6) 
[H]c1c([H])c([H])c2c(c1[H])C([H])([H])C([H])([H])C([H])([H])C2([H])N([H])C(=O)C1([H])N(C(=O)C([H])(N([H])C(=O)C([H])(N([H])C([H])([H])[H])C([H])([H])[H])C(C([H])([H])[H])(C([H])([H])[H])C([H])([H])[H])C([H])([H])c2c([H])c(OC([H])([H])C([H])([H])C([H])([H])c3c(C([H])([H])[H])c(C([H])([H])[H])n(C([H])([H])C([H])([H])N([H])C(=O)N4C([H])([H])C([H])([H])C([H])([H])C([H])(n5nc(-c6c([H])c([H])c(Oc7c([H])c([H])c(F)c([H])c7F)c([H])c6[H])c(C(=O)N([H])[H])c5N([H])[H])C4([H])[H])c3C([H])([H])[H])c([H])c([H])c2C1([H])[H]

$$$$
6:0:0
     RDKit          3D

 92100  0  0  1  0  0  0  0  0999 V2000
  -27.2420  -20.5800   19.7310 C   0  0  0  0  0  3  0  0  0  0  0  0
  -29.3680  -19.7520   20.5190 C   0  0  0  0  0  3  0  0  0  0  0  0
  -28.4690  -20.8260   20.3730 C   0  0  0  0  0  0  0  0  0  0  0  0
  -26.9620  -19.2830   19.2640 C   0  0  0  0  0  0  0  0  0  0  0  0
  -29.0080  -18.4850   20.0160 C   0  0  0  0  0  0  0  0  0  0  0  0
  -25.6540  -18.9720   18.5670 C   0  0  0  0  0  1  0  0  0  0  0  0
  -27.8290  -18.2560   19.3970 N   0  0  0  0  0  0  0  0  0  0  0  0
  -28.8050  -22.2180   20.8840 C   0  0  0  0  0  2  0  0  0  0  0  0
  -29.5980  -23.0530   19.8580 C   0  0  0  0  0  2  0  0  0  0  0  0
  -29.6640  -24.5650   20.1800 C   0  0  0  0  0  2  0  0  0  0  0  0
  -28.3590  -25.3030   19.8420 C   0  0  0  0  0  2  0  0  0  0  0  0
  -28.4410  -26.6970   20.1460 O   0  0  0  0  0  0  0  0  0  0  0  0
  -24.6440  -31.8750   23.2100 C   0  0  0  0  0  0  0  0  0  0  0  0
  -27.2570  -27.4100   20.1340 C   0  0  0  0  0  0  0  0  0  0  0  0
  -23.4210  -30.4610   21.5920 C   0  0  0  0  0  3  0  0  0  0  0  0
  -24.8590  -28.9160   20.1650 C   0  0  0  0  0  0  0  0  0  0  0  0
  -25.9460  -30.8170   21.3680 C   0  0  0  0  0  2  0  0  0  0  0  0
  -26.0240  -29.4430   20.7360 C   0  0  0  0  0  0  0  0  0  0  0  0
  -27.2250  -28.6970   20.7180 C   0  0  0  0  0  3  0  0  0  0  0  0
  -26.0670  -26.9000   19.5590 C   0  0  0  0  0  3  0  0  0  0  0  0
  -24.8750  -27.6420   19.5770 C   0  0  0  0  0  3  0  0  0  0  0  0
  -23.6170  -29.7740   20.2150 C   0  0  0  0  0  2  0  0  0  0  0  0
  -24.6900  -31.0650   22.1150 N   0  0  0  0  0  0  0  0  0  0  0  0
  -23.5680  -32.1520   23.7580 O   0  0  0  0  0  0  0  0  0  0  0  0
  -22.7800  -29.4470   22.5640 C   0  0  0  0  0  0  0  0  0  0  0  0
  -21.4540  -29.2660   22.4500 N   0  0  0  0  0  0  0  0  0  0  0  0
  -23.4700  -28.8240   23.3760 O   0  0  0  0  0  0  0  0  0  0  0  0
  -20.9590  -29.8190   21.7640 H   0  0  0  0  0  0  0  0  0  0  0  0
  -18.0810  -28.0860   22.9870 C   0  0  0  0  0  0  0  0  0  0  0  0
  -20.6420  -28.3360   23.2340 C   0  0  0  0  0  3  0  0  0  0  0  0
  -20.7340  -26.9010   22.6660 C   0  0  0  0  0  2  0  0  0  0  0  0
  -19.6220  -26.5750   21.6650 C   0  0  0  0  0  2  0  0  0  0  0  0
  -18.2470  -26.7310   22.3200 C   0  0  0  0  0  2  0  0  0  0  0  0
  -19.2070  -28.8470   23.4020 C   0  0  0  0  0  0  0  0  0  0  0  0
  -18.9990  -30.1160   23.9830 C   0  0  0  0  0  3  0  0  0  0  0  0
  -17.6980  -30.6250   24.1560 C   0  0  0  0  0  3  0  0  0  0  0  0
  -16.5870  -29.8620   23.7590 C   0  0  0  0  0  3  0  0  0  0  0  0
  -16.7790  -28.5940   23.1810 C   0  0  0  0  0  3  0  0  0  0  0  0
  -25.9360  -32.5080   23.8120 C   0  0  0  0  0  3  0  0  0  0  0  0
  -25.6290  -33.9050   24.1460 N   0  0  0  0  0  0  0  0  0  0  0  0
  -25.9430  -34.9570   23.3780 C   0  0  0  0  0  0  0  0  0  0  0  0
  -26.5950  -34.8540   22.3350 O   0  0  0  0  0  0  0  0  0  0  0  0
  -25.0500  -34.0600   24.9590 H   0  0  0  0  0  0  0  0  0  0  0  0
  -24.1950  -36.7350   23.0540 C   0  0  0  0  0  1  0  0  0  0  0  0
  -25.4560  -36.3440   23.8400 C   0  0  0  0  0  3  0  0  0  0  0  0
  -27.6040  -37.2420   24.6180 C   0  0  0  0  0  1  0  0  0  0  0  0
  -26.4800  -37.4030   23.7000 N   0  0  0  0  0  0  0  0  0  0  0  0
  -26.0710  -38.3210   23.8570 H   0  0  0  0  0  0  0  0  0  0  0  0
  -26.4760  -31.7380   25.0800 C   0  0  1  0  0  0  0  0  0  0  0  0
  -25.4000  -31.4930   26.1640 C   0  0  0  0  0  1  0  0  0  0  0  0
  -27.0580  -30.3630   24.6740 C   0  0  0  0  0  1  0  0  0  0  0  0
  -27.6340  -32.5350   25.7250 C   0  0  0  0  0  1  0  0  0  0  0  0
  -29.9560  -17.3000   20.1090 C   0  0  0  0  0  2  0  0  0  0  0  0
  -29.4630  -16.1970   21.0770 C   0  0  0  0  0  2  0  0  0  0  0  0
  -30.7260  -14.3070   20.1500 C   0  0  0  0  0  0  0  0  0  0  0  0
  -30.2500  -12.2570   18.8600 C   0  0  0  0  0  2  0  0  0  0  0  0
  -29.2320  -12.5190   17.7340 C   0  0  0  0  0  2  0  0  0  0  0  0
  -27.7920  -12.3790   18.2590 C   0  0  0  0  0  2  0  0  0  0  0  0
  -27.5540  -13.1830   19.5640 C   0  0  0  0  0  3  0  0  0  0  0  0
  -28.6720  -12.9040   20.5940 C   0  0  0  0  0  2  0  0  0  0  0  0
  -29.9710  -13.1920   19.9610 N   0  0  0  0  0  0  0  0  0  0  0  0
  -31.7250  -14.5660   19.4710 O   0  0  0  0  0  0  0  0  0  0  0  0
  -31.4160  -15.2860   22.2530 C   0  0  0  0  0  1  0  0  0  0  0  0
  -30.4050  -15.0720   21.2160 N   0  0  0  0  0  0  0  0  0  0  0  0
  -25.2020  -13.8020   20.4070 C   0  0  0  0  0  0  0  0  0  0  0  0
  -24.1540  -13.0340   20.8390 C   0  0  0  0  0  0  0  0  0  0  0  0
  -24.6090  -11.6810   20.7860 C   0  0  0  0  0  0  0  0  0  0  0  0
  -26.2290  -12.9170   20.1200 N   0  0  0  0  0  0  0  0  0  0  0  0
  -25.8790  -11.6370   20.4030 N   0  0  0  0  0  0  0  0  0  0  0  0
  -23.8920  -10.4210   21.0230 C   0  0  0  0  0  0  0  0  0  0  0  0
  -24.3660   -9.4630   21.9460 C   0  0  0  0  0  3  0  0  0  0  0  0
  -23.6500   -8.2680   22.1680 C   0  0  0  0  0  3  0  0  0  0  0  0
  -22.4440   -8.0220   21.4680 C   0  0  0  0  0  0  0  0  0  0  0  0
  -21.9890   -8.9680   20.5340 C   0  0  0  0  0  3  0  0  0  0  0  0
  -22.7060  -10.1550   20.3090 C   0  0  0  0  0  3  0  0  0  0  0  0
  -21.6950   -6.8780   21.6020 O   0  0  0  0  0  0  0  0  0  0  0  0
  -21.6880   -6.1540   22.7670 C   0  0  0  0  0  0  0  0  0  0  0  0
  -21.3240   -6.7330   24.0020 C   0  0  0  0  0  3  0  0  0  0  0  0
  -21.2630   -5.9360   25.1620 C   0  0  0  0  0  3  0  0  0  0  0  0
  -21.5550   -4.5610   25.0890 C   0  0  0  0  0  0  0  0  0  0  0  0
  -21.9110   -3.9810   23.8580 C   0  0  0  0  0  3  0  0  0  0  0  0
  -21.9750   -4.7750   22.7010 C   0  0  0  0  0  0  0  0  0  0  0  0
  -22.2980   -4.2070   21.5140 F   0  0  0  0  0  0  0  0  0  0  0  0
  -21.4880   -3.7930   26.2020 F   0  0  0  0  0  0  0  0  0  0  0  0
  -22.7770  -13.5160   21.1930 C   0  0  0  0  0  0  0  0  0  0  0  0
  -22.1030  -12.8280   22.1090 N   0  0  0  0  0  0  0  0  0  0  0  0
  -22.3080  -14.5370   20.6910 O   0  0  0  0  0  0  0  0  0  0  0  0
  -22.4970  -12.0030   22.5350 H   0  0  0  0  0  0  0  0  0  0  0  0
  -21.1820  -13.1340   22.3880 H   0  0  0  0  0  0  0  0  0  0  0  0
  -25.3580  -15.1730   20.2180 N   0  0  0  0  0  0  0  0  0  0  0  0
  -24.6000  -15.8240   20.3850 H   0  0  0  0  0  0  0  0  0  0  0  0
  -26.1920  -15.6210   19.8610 H   0  0  0  0  0  0  0  0  0  0  0  0
  1  3  1  0
  3  2  2  0
  3  8  1  0
  4  7  1  0
  4  1  2  0
  5 53  1  0
  5  2  1  0
  6  4  1  0
  7  5  2  0
  9 10  1  0
  9  8  1  0
 11 12  1  0
 11 10  1  0
 13 24  2  0
 14 12  1  0
 14 19  1  0
 15 23  1  0
 15 25  1  0
 16 22  1  0
 16 18  1  0
 17 23  1  0
 18 17  1  0
 19 18  2  0
 20 21  1  0
 20 14  2  0
 21 16  2  0
 22 15  1  0
 23 13  1  0
 25 27  2  0
 26 25  1  0
 28 26  1  0
 29 38  2  0
 29 34  1  0
 30 26  1  0
 30 34  1  0
 31 30  1  0
 32 33  1  0
 32 31  1  0
 33 29  1  0
 34 35  2  0
 35 36  1  0
 37 36  2  0
 38 37  1  0
 39 13  1  0
 39 40  1  0
 39 49  1  0
 40 43  1  0
 41 45  1  0
 41 40  1  0
 42 41  2  0
 45 44  1  0
 47 45  1  0
 47 48  1  0
 47 46  1  0
 49 52  1  1
 49 50  1  0
 51 49  1  0
 53 54  1  0
 54 64  1  0
 55 64  1  0
 56 61  1  0
 57 58  1  0
 57 56  1  0
 59 58  1  0
 59 68  1  0
 59 60  1  0
 61 55  1  0
 61 60  1  0
 62 55  2  0
 64 63  1  0
 65 66  2  0
 66 85  1  0
 67 66  1  0
 67 70  1  0
 68 69  1  0
 68 65  1  0
 69 67  2  0
 70 71  1  0
 71 72  2  0
 73 76  1  0
 73 72  1  0
 74 73  2  0
 75 74  1  0
 75 70  2  0
 76 77  1  0
 77 78  1  0
 78 79  2  0
 80 79  1  0
 80 84  1  0
 81 80  2  0
 82 77  2  0
 82 81  1  0
 83 82  1  0
 85 86  1  0
 86 89  1  0
 86 88  1  0
 87 85  2  0
 90 91  1  0
 90 65  1  0
 92 90  1  0
M  ISO  4  11 101  12 101  55 100  64 100
M  END
>  <TORSDO>  (7) 
F 22

>  <SCORE>  (7) 
-11.582

>  <name>  (7) 
6

>  <ligand_id>  (7) 
6

>  <original_smiles>  (7) 
[H]c1c([H])c([H])c2c(c1[H])C([H])([H])C([H])([H])C([H])([H])C2([H])N([H])C(=O)C1([H])N(C(=O)C([H])(N([H])C(=O)C([H])(N([H])C([H])([H])[H])C([H])([H])[H])C(C([H])([H])[H])(C([H])([H])[H])C([H])([H])[H])C([H])([H])c2c([H])c(OC([H])([H])C([H])([H])C([H])([H])C([H])([H])c3c([H])c(C([H])([H])[H])nc(C([H])([H])C([H])([H])N(C(=O)N4C([H])([H])C([H])([H])C([H])([H])C([H])(n5nc(-c6c([H])c([H])c(Oc7c([H])c([H])c(F)c([H])c7F)c([H])c6[H])c(C(=O)N([H])[H])c5N([H])[H])C4([H])[H])C([H])([H])[H])c3[H])c([H])c([H])c2C1([H])[H]

>  <smiles>  (7) 
[H]c1c([H])c([H])c2c(c1[H])C([H])([H])C([H])([H])C([H])([H])C2([H])N([H])C(=O)C1([H])N(C(=O)C([H])(N([H])C(=O)C([H])(N([H])C([H])([H])[H])C([H])([H])[H])C(C([H])([H])[H])(C([H])([H])[H])C([H])([H])[H])C([H])([H])c2c([H])c(OC([H])([H])C([H])([H])C([H])([H])C([H])([H])c3c([H])c(C([H])([H])[H])nc(C([H])([H])C([H])([H])N(C(=O)N4C([H])([H])C([H])([H])C([H])([H])C([H])(n5nc(-c6c([H])c([H])c(Oc7c([H])c([H])c(F)c([H])c7F)c([H])c6[H])c(C(=O)N([H])[H])c5N([H])[H])C4([H])[H])C([H])([H])[H])c3[H])c([H])c([H])c2C1([H])[H]

$$$$
7:0:0
     RDKit          3D

 91 99  0  0  1  0  0  0  0  0999 V2000
  -30.6000  -14.7180   20.4330 C   0  0  0  0  0  0  0  0  0  0  0  0
  -30.3730  -12.4440   19.4450 C   0  0  0  0  0  2  0  0  0  0  0  0
  -29.4630  -12.5580   18.2020 C   0  0  0  0  0  2  0  0  0  0  0  0
  -27.9820  -12.4150   18.6040 C   0  0  0  0  0  2  0  0  0  0  0  0
  -27.6040  -13.2910   19.8300 C   0  0  0  0  0  3  0  0  0  0  0  0
  -28.6430  -13.1800   20.9640 C   0  0  0  0  0  2  0  0  0  0  0  0
  -29.9520  -13.5040   20.3900 N   0  0  0  0  0  0  0  0  0  0  0  0
  -31.8060  -14.7500   20.1710 O   0  0  0  0  0  0  0  0  0  0  0  0
  -29.2540  -18.3860   20.4190 C   0  0  0  0  0  3  0  0  0  0  0  0
  -29.5320  -19.7310   19.9380 C   0  0  0  0  0  0  0  0  0  0  0  0
  -30.7280  -19.8660   19.1840 C   0  0  0  0  0  0  0  0  0  0  0  0
  -31.5570  -18.7380   19.0020 C   0  0  0  0  0  0  0  0  0  0  0  0
  -30.1370  -17.2610   20.1720 C   0  0  0  0  0  0  0  0  0  0  0  0
  -31.1190  -21.1890   18.5250 C   0  0  0  0  0  1  0  0  0  0  0  0
  -32.8470  -18.8040   18.2010 C   0  0  0  0  0  1  0  0  0  0  0  0
  -31.2640  -17.5140   19.4740 N   0  0  0  0  0  0  0  0  0  0  0  0
  -29.8390  -15.8720   20.5870 N   0  0  0  0  0  0  0  0  0  0  0  0
  -28.8940  -15.7150   20.8980 H   0  0  0  0  0  0  0  0  0  0  0  0
  -25.2090  -13.8920   20.5230 C   0  0  0  0  0  0  0  0  0  0  0  0
  -24.1360  -13.1230   20.8810 C   0  0  0  0  0  0  0  0  0  0  0  0
  -24.5950  -11.7710   20.8650 C   0  0  0  0  0  0  0  0  0  0  0  0
  -26.2520  -13.0070   20.3030 N   0  0  0  0  0  0  0  0  0  0  0  0
  -25.8900  -11.7280   20.5730 N   0  0  0  0  0  0  0  0  0  0  0  0
  -23.8620  -10.5110   21.0540 C   0  0  0  0  0  0  0  0  0  0  0  0
  -24.2860   -9.5420   21.9890 C   0  0  0  0  0  3  0  0  0  0  0  0
  -23.5530   -8.3500   22.1660 C   0  0  0  0  0  3  0  0  0  0  0  0
  -22.3820   -8.1160   21.4070 C   0  0  0  0  0  0  0  0  0  0  0  0
  -21.9760   -9.0760   20.4610 C   0  0  0  0  0  3  0  0  0  0  0  0
  -22.7100  -10.2600   20.2830 C   0  0  0  0  0  3  0  0  0  0  0  0
  -21.6230   -6.9750   21.4910 O   0  0  0  0  0  0  0  0  0  0  0  0
  -21.5700   -6.2260   22.6390 C   0  0  0  0  0  0  0  0  0  0  0  0
  -21.1650   -6.7820   23.8720 C   0  0  0  0  0  3  0  0  0  0  0  0
  -21.0590   -5.9620   25.0130 C   0  0  0  0  0  3  0  0  0  0  0  0
  -21.3500   -4.5880   24.9220 C   0  0  0  0  0  0  0  0  0  0  0  0
  -21.7510   -4.0320   23.6950 C   0  0  0  0  0  3  0  0  0  0  0  0
  -21.8560   -4.8490   22.5560 C   0  0  0  0  0  0  0  0  0  0  0  0
  -22.2220   -4.3040   21.3690 F   0  0  0  0  0  0  0  0  0  0  0  0
  -21.2410   -3.7970   26.0160 F   0  0  0  0  0  0  0  0  0  0  0  0
  -22.7360  -13.6070   21.1250 C   0  0  0  0  0  0  0  0  0  0  0  0
  -21.9940  -12.9250   21.9890 N   0  0  0  0  0  0  0  0  0  0  0  0
  -22.3110  -14.6280   20.5870 O   0  0  0  0  0  0  0  0  0  0  0  0
  -22.3500  -12.0970   22.4450 H   0  0  0  0  0  0  0  0  0  0  0  0
  -21.0550  -13.2360   22.1970 H   0  0  0  0  0  0  0  0  0  0  0  0
  -25.3800  -15.2620   20.3430 N   0  0  0  0  0  0  0  0  0  0  0  0
  -24.6120  -15.9170   20.4450 H   0  0  0  0  0  0  0  0  0  0  0  0
  -26.2240  -15.6950   19.9940 H   0  0  0  0  0  0  0  0  0  0  0  0
  -28.5230  -20.9580   20.0410 C   0  0  0  0  0  2  0  0  0  0  0  0
  -28.9340  -22.4010   20.6450 C   0  0  0  0  0  3  0  0  0  0  0  0
  -28.3250  -23.7620   20.0080 C   0  0  0  0  0  3  0  0  0  0  0  0
  -28.3780  -25.1330   20.8550 C   0  0  0  0  0  2  0  0  0  0  0  0
  -28.4220  -26.4930   20.2450 O   0  0  0  0  0  0  0  0  0  0  0  0
  -24.6200  -31.8930   23.2560 C   0  0  0  0  0  0  0  0  0  0  0  0
  -27.2880  -27.3190   20.2630 C   0  0  0  0  0  0  0  0  0  0  0  0
  -23.4400  -30.4730   21.6150 C   0  0  0  0  0  3  0  0  0  0  0  0
  -24.9130  -28.9130   20.2180 C   0  0  0  0  0  0  0  0  0  0  0  0
  -25.9770  -30.8100   21.4450 C   0  0  0  0  0  2  0  0  0  0  0  0
  -26.0750  -29.4220   20.8160 C   0  0  0  0  0  0  0  0  0  0  0  0
  -27.2680  -28.6390   20.8180 C   0  0  0  0  0  3  0  0  0  0  0  0
  -26.1070  -26.8580   19.6530 C   0  0  0  0  0  3  0  0  0  0  0  0
  -24.9340  -27.6390   19.6270 C   0  0  0  0  0  3  0  0  0  0  0  0
  -23.6720  -29.7830   20.2440 C   0  0  0  0  0  2  0  0  0  0  0  0
  -24.6980  -31.0760   22.1630 N   0  0  0  0  0  0  0  0  0  0  0  0
  -23.5290  -32.1650   23.7810 O   0  0  0  0  0  0  0  0  0  0  0  0
  -22.7760  -29.4590   22.5770 C   0  0  0  0  0  0  0  0  0  0  0  0
  -21.4530  -29.2740   22.4420 N   0  0  0  0  0  0  0  0  0  0  0  0
  -23.4520  -28.8410   23.4040 O   0  0  0  0  0  0  0  0  0  0  0  0
  -20.9640  -29.8240   21.7480 H   0  0  0  0  0  0  0  0  0  0  0  0
  -18.0800  -28.0550   22.9150 C   0  0  0  0  0  0  0  0  0  0  0  0
  -20.6330  -28.3350   23.2100 C   0  0  0  0  0  3  0  0  0  0  0  0
  -20.7510  -26.9000   22.6450 C   0  0  0  0  0  2  0  0  0  0  0  0
  -19.6620  -26.5630   21.6220 C   0  0  0  0  0  2  0  0  0  0  0  0
  -18.2740  -26.7030   22.2500 C   0  0  0  0  0  2  0  0  0  0  0  0
  -19.1880  -28.8290   23.3520 C   0  0  0  0  0  0  0  0  0  0  0  0
  -18.9550  -30.0950   23.9300 C   0  0  0  0  0  3  0  0  0  0  0  0
  -17.6450  -30.5870   24.0800 C   0  0  0  0  0  3  0  0  0  0  0  0
  -16.5500  -29.8100   23.6610 C   0  0  0  0  0  3  0  0  0  0  0  0
  -16.7680  -28.5480   23.0830 C   0  0  0  0  0  3  0  0  0  0  0  0
  -25.8920  -32.5380   23.8850 C   0  0  0  0  0  3  0  0  0  0  0  0
  -26.4030  -31.7770   25.1710 C   0  0  1  0  0  0  0  0  0  0  0  0
  -25.3020  -31.5440   26.2320 C   0  0  0  0  0  1  0  0  0  0  0  0
  -26.9940  -30.3990   24.7910 C   0  0  0  0  0  1  0  0  0  0  0  0
  -27.5420  -32.5820   25.8410 C   0  0  0  0  0  1  0  0  0  0  0  0
  -25.5710  -33.9340   24.2070 N   0  0  0  0  0  0  0  0  0  0  0  0
  -25.8960  -34.9880   23.4450 C   0  0  0  0  0  0  0  0  0  0  0  0
  -26.5680  -34.8850   22.4160 O   0  0  0  0  0  0  0  0  0  0  0  0
  -24.9760  -34.0870   25.0100 H   0  0  0  0  0  0  0  0  0  0  0  0
  -24.1500  -36.7620   23.0780 C   0  0  0  0  0  1  0  0  0  0  0  0
  -25.3950  -36.3740   23.8930 C   0  0  0  0  0  3  0  0  0  0  0  0
  -27.5230  -37.2840   24.7160 C   0  0  0  0  0  1  0  0  0  0  0  0
  -26.4160  -37.4370   23.7740 N   0  0  0  0  0  0  0  0  0  0  0  0
  -26.0020  -38.3530   23.9200 H   0  0  0  0  0  0  0  0  0  0  0  0
  1 17  1  0
  2  7  1  0
  3  4  1  0
  3  2  1  0
  5  4  1  0
  5 22  1  0
  5  6  1  0
  7  1  1  0
  7  6  1  0
  8  1  2  0
 10 47  1  0
 10  9  2  0
 11 10  1  0
 12 11  2  0
 12 16  1  0
 13  9  1  0
 13 17  1  0
 14 11  1  0
 15 12  1  0
 16 13  2  0
 17 18  1  0
 19 20  2  0
 20 39  1  0
 21 20  1  0
 21 24  1  0
 22 19  1  0
 22 23  1  0
 23 21  2  0
 24 25  1  0
 25 26  2  0
 27 30  1  0
 27 26  1  0
 28 27  2  0
 29 28  1  0
 29 24  2  0
 30 31  1  0
 31 32  1  0
 32 33  2  0
 34 33  1  0
 34 38  1  0
 35 34  2  0
 36 31  2  0
 36 35  1  0
 37 36  1  0
 39 40  1  0
 40 43  1  0
 40 42  1  0
 41 39  2  0
 44 45  1  0
 44 19  1  0
 46 44  1  0
 47 48  1  0
 49 48  2  0
 49 50  1  0
 51 53  1  0
 51 50  1  0
 52 63  2  0
 53 58  1  0
 54 62  1  0
 54 64  1  0
 55 61  1  0
 55 57  1  0
 56 62  1  0
 57 58  2  0
 57 56  1  0
 59 53  2  0
 60 59  1  0
 60 55  2  0
 61 54  1  0
 62 52  1  0
 64 66  2  0
 65 64  1  0
 67 65  1  0
 68 77  2  0
 68 73  1  0
 69 65  1  0
 69 73  1  0
 70 69  1  0
 71 72  1  0
 71 70  1  0
 72 68  1  0
 73 74  2  0
 74 75  1  0
 76 75  2  0
 77 76  1  0
 78 52  1  0
 78 83  1  0
 78 79  1  0
 79 82  1  1
 79 80  1  0
 81 79  1  0
 83 86  1  0
 84 88  1  0
 84 83  1  0
 85 84  2  0
 88 87  1  0
 90 88  1  0
 90 91  1  0
 90 89  1  0
M  ISO  4   1 100  17 100  50 101  51 101
M  END
>  <TORSDO>  (8) 
F 19

>  <SCORE>  (8) 
-14.243

>  <name>  (8) 
7

>  <ligand_id>  (8) 
7

>  <original_smiles>  (8) 
[H]c1c([H])c([H])c2c(c1[H])C([H])([H])C([H])([H])C([H])([H])C2([H])N([H])C(=O)C1([H])N(C(=O)C([H])(N([H])C(=O)C([H])(N([H])C([H])([H])[H])C([H])([H])[H])C(C([H])([H])[H])(C([H])([H])[H])C([H])([H])[H])C([H])([H])c2c([H])c(OC([H])([H])C([H])([H])C([H])([H])C([H])([H])c3c([H])c(N([H])C(=O)N4C([H])([H])C([H])([H])C([H])([H])C([H])(n5nc(-c6c([H])c([H])c(Oc7c([H])c([H])c(F)c([H])c7F)c([H])c6[H])c(C(=O)N([H])[H])c5N([H])[H])C4([H])[H])nc(C([H])([H])[H])c3C([H])([H])[H])c([H])c([H])c2C1([H])[H]

>  <smiles>  (8) 
[H]c1c([H])c([H])c2c(c1[H])C([H])([H])C([H])([H])C([H])([H])C2([H])N([H])C(=O)C1([H])N(C(=O)C([H])(N([H])C(=O)C([H])(N([H])C([H])([H])[H])C([H])([H])[H])C(C([H])([H])[H])(C([H])([H])[H])C([H])([H])[H])C([H])([H])c2c([H])c(OC([H])([H])C([H])([H])C([H])([H])C([H])([H])c3c([H])c(N([H])C(=O)N4C([H])([H])C([H])([H])C([H])([H])C([H])(n5nc(-c6c([H])c([H])c(Oc7c([H])c([H])c(F)c([H])c7F)c([H])c6[H])c(C(=O)N([H])[H])c5N([H])[H])C4([H])[H])nc(C([H])([H])[H])c3C([H])([H])[H])c([H])c([H])c2C1([H])[H]

$$$$
8:0:0
     RDKit          3D

 94102  0  0  1  0  0  0  0  0999 V2000
  -29.6540  -21.4870   19.9700 C   0  0  0  0  0  3  0  0  0  0  0  0
  -29.6280  -20.1160   19.6590 C   0  0  0  0  0  3  0  0  0  0  0  0
  -29.9780  -21.9110   21.2790 C   0  0  0  0  0  0  0  0  0  0  0  0
  -29.8910  -19.1890   20.6780 C   0  0  0  0  0  0  0  0  0  0  0  0
  -30.3320  -20.9010   22.2300 C   0  0  0  0  0  0  0  0  0  0  0  0
  -30.2190  -19.5870   21.9180 N   0  0  0  0  0  0  0  0  0  0  0  0
  -29.4650  -21.3690   24.5560 C   0  0  0  0  0  1  0  0  0  0  0  0
  -31.7340  -22.2990   23.9360 C   0  0  0  0  0  1  0  0  0  0  0  0
  -31.4790  -19.9020   24.2990 C   0  0  0  0  0  1  0  0  0  0  0  0
  -30.7360  -21.1370   23.7180 C   0  0  2  0  0  0  0  0  0  0  0  0
  -29.9240  -23.4080   21.6330 C   0  0  0  0  0  2  0  0  0  0  0  0
  -29.4030  -24.4220   20.5850 C   0  0  0  0  0  2  0  0  0  0  0  0
  -29.1710  -25.8110   21.2250 C   0  0  0  0  0  2  0  0  0  0  0  0
  -29.0470  -26.8520   20.2530 O   0  0  0  0  0  0  0  0  0  0  0  0
  -24.6870  -31.6240   23.2830 C   0  0  0  0  0  0  0  0  0  0  0  0
  -27.8310  -27.4900   20.2530 C   0  0  0  0  0  0  0  0  0  0  0  0
  -23.6850  -30.1700   21.5500 C   0  0  0  0  0  3  0  0  0  0  0  0
  -25.3270  -28.7850   20.1780 C   0  0  0  0  0  0  0  0  0  0  0  0
  -26.1790  -30.7330   21.4940 C   0  0  0  0  0  2  0  0  0  0  0  0
  -26.4060  -29.3880   20.8400 C   0  0  0  0  0  0  0  0  0  0  0  0
  -27.6610  -28.7440   20.8810 C   0  0  0  0  0  3  0  0  0  0  0  0
  -26.7420  -26.8920   19.5920 C   0  0  0  0  0  3  0  0  0  0  0  0
  -25.4880  -27.5330   19.5550 C   0  0  0  0  0  3  0  0  0  0  0  0
  -24.0190  -29.5420   20.1720 C   0  0  0  0  0  2  0  0  0  0  0  0
  -24.8640  -30.8590   22.1680 N   0  0  0  0  0  0  0  0  0  0  0  0
  -23.5610  -31.7940   23.7720 O   0  0  0  0  0  0  0  0  0  0  0  0
  -23.0670  -29.0790   22.4530 C   0  0  0  0  0  0  0  0  0  0  0  0
  -21.7730  -28.7850   22.2410 N   0  0  0  0  0  0  0  0  0  0  0  0
  -23.7500  -28.4960   23.2990 O   0  0  0  0  0  0  0  0  0  0  0  0
  -21.2810  -29.3130   21.5320 H   0  0  0  0  0  0  0  0  0  0  0  0
  -18.5040  -27.2600   22.4540 C   0  0  0  0  0  0  0  0  0  0  0  0
  -20.9920  -27.7660   22.9420 C   0  0  0  0  0  3  0  0  0  0  0  0
  -21.2850  -26.3560   22.3770 C   0  0  0  0  0  2  0  0  0  0  0  0
  -20.3080  -25.9340   21.2740 C   0  0  0  0  0  2  0  0  0  0  0  0
  -18.8700  -25.9390   21.7980 C   0  0  0  0  0  2  0  0  0  0  0  0
  -19.5020  -28.1250   22.9770 C   0  0  0  0  0  0  0  0  0  0  0  0
  -19.1110  -29.3600   23.5410 C   0  0  0  0  0  3  0  0  0  0  0  0
  -17.7540  -29.7290   23.5950 C   0  0  0  0  0  3  0  0  0  0  0  0
  -16.7690  -28.8600   23.0920 C   0  0  0  0  0  3  0  0  0  0  0  0
  -17.1450  -27.6290   22.5270 C   0  0  0  0  0  3  0  0  0  0  0  0
  -25.8830  -32.3370   23.9880 C   0  0  0  0  0  3  0  0  0  0  0  0
  -25.4840  -33.7270   24.2460 N   0  0  0  0  0  0  0  0  0  0  0  0
  -25.8130  -34.7700   23.4700 C   0  0  0  0  0  0  0  0  0  0  0  0
  -26.5590  -34.6680   22.4920 O   0  0  0  0  0  0  0  0  0  0  0  0
  -24.8280  -33.8760   24.9980 H   0  0  0  0  0  0  0  0  0  0  0  0
  -24.0160  -36.4460   22.9400 C   0  0  0  0  0  1  0  0  0  0  0  0
  -25.2260  -36.1450   23.8380 C   0  0  0  0  0  3  0  0  0  0  0  0
  -27.2550  -37.1790   24.7540 C   0  0  0  0  0  1  0  0  0  0  0  0
  -26.2030  -37.2510   23.7420 N   0  0  0  0  0  0  0  0  0  0  0  0
  -25.7420  -38.1510   23.8290 H   0  0  0  0  0  0  0  0  0  0  0  0
  -26.3260  -31.6270   25.3270 C   0  0  1  0  0  0  0  0  0  0  0  0
  -25.1640  -31.3710   26.3140 C   0  0  0  0  0  1  0  0  0  0  0  0
  -26.9920  -30.2670   25.0200 C   0  0  0  0  0  1  0  0  0  0  0  0
  -27.3930  -32.4860   26.0480 C   0  0  0  0  0  1  0  0  0  0  0  0
  -29.6690  -17.6880   20.4870 C   0  0  0  0  0  2  0  0  0  0  0  0
  -30.8150  -16.7740   20.9810 C   0  0  0  0  0  2  0  0  0  0  0  0
  -31.0260  -14.4260   20.0890 C   0  0  0  0  0  0  0  0  0  0  0  0
  -30.6070  -12.3180   18.8750 C   0  0  0  0  0  2  0  0  0  0  0  0
  -29.6230  -12.5870   17.7160 C   0  0  0  0  0  2  0  0  0  0  0  0
  -28.1640  -12.4830   18.1980 C   0  0  0  0  0  2  0  0  0  0  0  0
  -27.9070  -13.3050   19.4860 C   0  0  0  0  0  3  0  0  0  0  0  0
  -28.9900  -13.0080   20.5480 C   0  0  0  0  0  2  0  0  0  0  0  0
  -30.3110  -13.2780   19.9490 N   0  0  0  0  0  0  0  0  0  0  0  0
  -32.0790  -14.6490   19.4860 O   0  0  0  0  0  0  0  0  0  0  0  0
  -30.4480  -15.3550   20.8630 N   0  0  0  0  0  0  0  0  0  0  0  0
  -29.6040  -15.0650   21.3350 H   0  0  0  0  0  0  0  0  0  0  0  0
  -25.5500  -13.9870   20.2640 C   0  0  0  0  0  0  0  0  0  0  0  0
  -24.4720  -13.2460   20.6680 C   0  0  0  0  0  0  0  0  0  0  0  0
  -24.8940  -11.8820   20.6300 C   0  0  0  0  0  0  0  0  0  0  0  0
  -26.5620  -13.0750   20.0060 N   0  0  0  0  0  0  0  0  0  0  0  0
  -26.1720  -11.8050   20.2790 N   0  0  0  0  0  0  0  0  0  0  0  0
  -24.1400  -10.6410   20.8500 C   0  0  0  0  0  0  0  0  0  0  0  0
  -24.5730   -9.6740   21.7830 C   0  0  0  0  0  3  0  0  0  0  0  0
  -23.8250   -8.4950   21.9900 C   0  0  0  0  0  3  0  0  0  0  0  0
  -22.6300   -8.2760   21.2640 C   0  0  0  0  0  0  0  0  0  0  0  0
  -22.2170   -9.2310   20.3180 C   0  0  0  0  0  3  0  0  0  0  0  0
  -22.9670  -10.4010   20.1080 C   0  0  0  0  0  3  0  0  0  0  0  0
  -21.8500   -7.1500   21.3830 O   0  0  0  0  0  0  0  0  0  0  0  0
  -21.7760   -6.4460   22.5570 C   0  0  0  0  0  0  0  0  0  0  0  0
  -21.3590   -7.0500   23.7630 C   0  0  0  0  0  3  0  0  0  0  0  0
  -21.2310   -6.2710   24.9320 C   0  0  0  0  0  3  0  0  0  0  0  0
  -21.5100   -4.8920   24.8930 C   0  0  0  0  0  0  0  0  0  0  0  0
  -21.9190   -4.2880   23.6920 C   0  0  0  0  0  3  0  0  0  0  0  0
  -22.0490   -5.0630   22.5270 C   0  0  0  0  0  0  0  0  0  0  0  0
  -22.4230   -4.4730   21.3650 F   0  0  0  0  0  0  0  0  0  0  0  0
  -21.3780   -4.1430   26.0140 F   0  0  0  0  0  0  0  0  0  0  0  0
  -23.0980  -13.7600   20.9850 C   0  0  0  0  0  0  0  0  0  0  0  0
  -22.3940  -13.0970   21.8970 N   0  0  0  0  0  0  0  0  0  0  0  0
  -22.6580  -14.7810   20.4580 O   0  0  0  0  0  0  0  0  0  0  0  0
  -22.7670  -12.2690   22.3400 H   0  0  0  0  0  0  0  0  0  0  0  0
  -21.4720  -13.4160   22.1560 H   0  0  0  0  0  0  0  0  0  0  0  0
  -25.7500  -15.3510   20.0780 N   0  0  0  0  0  0  0  0  0  0  0  0
  -25.0200  -16.0400   20.2210 H   0  0  0  0  0  0  0  0  0  0  0  0
  -26.6160  -15.7580   19.7490 H   0  0  0  0  0  0  0  0  0  0  0  0
  1  3  1  0
  2  1  2  0
  2  4  1  0
  3 11  1  0
  3  5  2  0
  4  6  2  0
  5 10  1  0
  6  5  1  0
 10  8  1  6
 10  9  1  0
 10  7  1  0
 12 13  1  0
 12 11  1  0
 14 16  1  0
 14 13  1  0
 15 26  2  0
 16 21  1  0
 17 25  1  0
 17 27  1  0
 18 20  1  0
 19 25  1  0
 20 21  2  0
 20 19  1  0
 22 16  2  0
 23 22  1  0
 23 18  2  0
 24 18  1  0
 24 17  1  0
 25 15  1  0
 27 29  2  0
 28 27  1  0
 30 28  1  0
 31 40  2  0
 31 36  1  0
 32 28  1  0
 32 36  1  0
 33 32  1  0
 34 35  1  0
 34 33  1  0
 35 31  1  0
 36 37  2  0
 37 38  1  0
 39 38  2  0
 40 39  1  0
 41 15  1  0
 41 42  1  0
 41 51  1  0
 42 45  1  0
 43 47  1  0
 43 42  1  0
 44 43  2  0
 47 46  1  0
 49 50  1  0
 49 47  1  0
 49 48  1  0
 51 54  1  1
 51 52  1  0
 53 51  1  0
 55  4  1  0
 55 56  1  0
 57 65  1  0
 58 63  1  0
 59 60  1  0
 59 58  1  0
 61 60  1  0
 61 70  1  0
 61 62  1  0
 63 57  1  0
 63 62  1  0
 64 57  2  0
 65 56  1  0
 65 66  1  0
 67 68  2  0
 68 87  1  0
 69 68  1  0
 69 72  1  0
 70 67  1  0
 70 71  1  0
 71 69  2  0
 72 73  1  0
 73 74  2  0
 75 78  1  0
 75 74  1  0
 76 75  2  0
 77 76  1  0
 77 72  2  0
 78 79  1  0
 79 80  1  0
 80 81  2  0
 82 81  1  0
 82 86  1  0
 83 82  2  0
 84 79  2  0
 84 83  1  0
 85 84  1  0
 87 88  1  0
 88 91  1  0
 88 90  1  0
 89 87  2  0
 92 93  1  0
 92 67  1  0
 94 92  1  0
M  ISO  4  13 101  14 101  57 100  65 100
M  END
>  <TORSDO>  (9) 
F 22

>  <SCORE>  (9) 
-10.818

>  <name>  (9) 
8

>  <ligand_id>  (9) 
8

>  <original_smiles>  (9) 
[H]c1c(C([H])([H])C([H])([H])N([H])C(=O)N2C([H])([H])C([H])([H])C([H])([H])C([H])(n3nc(-c4c([H])c([H])c(Oc5c([H])c([H])c(F)c([H])c5F)c([H])c4[H])c(C(=O)N([H])[H])c3N([H])[H])C2([H])[H])nc(C(C([H])([H])[H])(C([H])([H])[H])C([H])([H])[H])c(C([H])([H])C([H])([H])C([H])([H])Oc2c([H])c([H])c3c(c2[H])C([H])([H])N(C(=O)C([H])(N([H])C(=O)C([H])(N([H])C([H])([H])[H])C([H])([H])[H])C(C([H])([H])[H])(C([H])([H])[H])C([H])([H])[H])C([H])(C(=O)N([H])C2([H])c4c([H])c([H])c([H])c([H])c4C([H])([H])C([H])([H])C2([H])[H])C3([H])[H])c1[H]

>  <smiles>  (9) 
[H]c1c(C([H])([H])C([H])([H])N([H])C(=O)N2C([H])([H])C([H])([H])C([H])([H])C([H])(n3nc(-c4c([H])c([H])c(Oc5c([H])c([H])c(F)c([H])c5F)c([H])c4[H])c(C(=O)N([H])[H])c3N([H])[H])C2([H])[H])nc(C(C([H])([H])[H])(C([H])([H])[H])C([H])([H])[H])c(C([H])([H])C([H])([H])C([H])([H])Oc2c([H])c([H])c3c(c2[H])C([H])([H])N(C(=O)C([H])(N([H])C(=O)C([H])(N([H])C([H])([H])[H])C([H])([H])[H])C(C([H])([H])[H])(C([H])([H])[H])C([H])([H])[H])C([H])(C(=O)N([H])C2([H])c4c([H])c([H])c([H])c([H])c4C([H])([H])C([H])([H])C2([H])[H])C3([H])[H])c1[H]

$$$$
9:0:0
     RDKit          3D

 91 89  0  0  1  0  0  0  0  0999 V2000
  -28.0030  -12.0880   19.5990 C   0  0  0  0  0 15  0  0  0  0  0  0
  -29.2200  -15.4990   19.2540 C   0  0  0  0  0  1  0  0  0  0  0  0
  -29.1260  -13.6230   18.5170 C   0  0  0  0  0  1  0  0  0  0  0  0
  -27.3070  -12.8350   21.6700 C   0  0  0  0  0  1  0  0  0  0  0  0
  -28.2940  -16.1990   20.8330 C   0  0  0  0  0  1  0  0  0  0  0  0
  -26.9870  -11.9220   22.8320 C   0  0  0  0  0  1  0  0  0  0  0  0
  -27.4920  -14.8240   22.0470 N   0  0  0  0  0 15  0  0  0  0  0  0
  -30.6420  -14.1900   16.6130 C   0  0  0  0  0  1  0  0  0  0  0  0
  -30.6300  -13.6200   18.0360 C   0  0  0  0  0  3  0  0  0  0  0  0
  -31.9530  -14.5190   20.3410 C   0  0  0  0  0  0  0  0  0  0  0  0
  -31.7230  -12.3570   20.9450 C   0  0  0  0  0  2  0  0  0  0  0  0
  -30.5060  -12.0480   20.2820 C   0  0  0  0  0  2  0  0  0  0  0  0
  -29.3950  -13.3700   20.8290 C   0  0  0  0  0  2  0  0  0  0  0  0
  -27.5330  -14.0310   20.0310 C   0  0  0  0  0  1  0  0  0  0  0  0
  -29.7980  -14.2150   21.4300 C   0  0  0  0  0  2  0  0  0  0  0  0
  -31.4540  -13.7550   21.2470 N   0  0  0  0  0  0  0  0  0  0  0  0
  -32.7720  -15.2690   20.8030 O   0  0  0  0  0  0  0  0  0  0  0  0
  -31.6440  -14.3800   18.9660 N   0  0  0  0  0  0  0  0  0  0  0  0
  -32.2130  -15.0160   18.4300 H   0  0  0  0  0  0  0  0  0  0  0  0
  -25.0380  -13.8900   20.3920 C   0  0  0  0  0  3  0  0  0  0  0  0
  -24.1170  -12.9640   20.7590 C   0  0  0  0  0  3  0  0  0  0  0  0
  -24.6680  -11.6590   20.8330 C   0  0  0  0  0  3  0  0  0  0  0  0
  -26.0710  -13.2160   20.0100 N   0  0  0  0  0  0  0  0  0  0  0  0
  -25.7520  -11.8140   20.1860 N   0  0  0  0  0  2  0  0  0  0  0  0
  -24.1360  -10.2970   21.0660 C   0  0  0  0  0  0  0  0  0  0  0  0
  -24.5210   -9.4190   22.1190 C   0  0  0  0  0  3  0  0  0  0  0  0
  -23.8750   -8.1690   22.2830 C   0  0  0  0  0  3  0  0  0  0  0  0
  -22.8330   -7.7920   21.4000 C   0  0  0  0  0  0  0  0  0  0  0  0
  -22.5010   -8.6420   20.3350 C   0  0  0  0  0  3  0  0  0  0  0  0
  -23.1540   -9.8680   20.1610 C   0  0  0  0  0  3  0  0  0  0  0  0
  -22.1200   -6.6180   21.4630 O   0  0  0  0  0  0  0  0  0  0  0  0
  -21.9250   -5.9410   22.6380 C   0  0  0  0  0  0  0  0  0  0  0  0
  -21.3610   -6.5520   23.7800 C   0  0  0  0  0  3  0  0  0  0  0  0
  -21.1110   -5.7860   24.9370 C   0  0  0  0  0  3  0  0  0  0  0  0
  -21.4210   -4.4110   24.9510 C   0  0  0  0  0  0  0  0  0  0  0  0
  -21.9740   -3.8000   23.8120 C   0  0  0  0  0  3  0  0  0  0  0  0
  -22.2200   -4.5630   22.6590 C   0  0  0  0  0  0  0  0  0  0  0  0
  -22.7300   -3.9640   21.5560 F   0  0  0  0  0  0  0  0  0  0  0  0
  -21.1830   -3.6760   26.0630 F   0  0  0  0  0  0  0  0  0  0  0  0
  -22.7070  -13.2920   20.7190 C   0  0  0  0  0  0  0  0  0  0  0  0
  -21.8910  -12.6220   21.5120 N   0  0  0  0  0  0  0  0  0  0  0  0
  -22.3480  -14.1760   19.9460 O   0  0  0  0  0  0  0  0  0  0  0  0
  -22.2220  -11.9310   22.1680 H   0  0  0  0  0  0  0  0  0  0  0  0
  -20.8970  -12.8090   21.4710 H   0  0  0  0  0  0  0  0  0  0  0  0
  -25.1230  -15.2620   20.2480 N   0  0  0  0  0  0  0  0  0  0  0  0
  -26.0000  -15.7610   20.1910 H   0  0  0  0  0  0  0  0  0  0  0  0
  -24.3380  -15.8610   20.4610 H   0  0  0  0  0  0  0  0  0  0  0  0
  -28.0520  -18.2800   21.0730 C   0  0  0  0  0 15  0  0  0  0  0  0
  -28.4240  -20.4200   20.5890 C   0  0  0  0  0 15  0  0  0  0  0  0
  -27.9230  -22.5890   20.7280 C   0  0  0  0  0 15  0  0  0  0  0  0
  -28.2760  -24.5450   20.5000 O   0  0  0  0  0  1  0  0  0  0  0  0
  -25.1830  -31.6280   23.1310 C   0  0  0  0  0  0  0  0  0  0  0  0
  -27.5340  -26.0390   20.4160 C   0  0  0  0  0  0  0  0  0  0  0  0
  -24.0540  -30.2110   21.4860 C   0  0  0  0  0  3  0  0  0  0  0  0
  -25.5010  -28.4490   20.1700 C   0  0  0  0  0  0  0  0  0  0  0  0
  -26.6430  -30.1760   21.5140 C   0  0  0  0  0  2  0  0  0  0  0  0
  -26.6760  -28.6810   20.8890 C   0  0  0  0  0  0  0  0  0  0  0  0
  -27.6780  -27.5140   20.9640 C   0  0  0  0  0  3  0  0  0  0  0  0
  -26.3830  -26.1560   19.5860 C   0  0  0  0  0  3  0  0  0  0  0  0
  -25.4290  -27.2260   19.4850 C   0  0  0  0  0  3  0  0  0  0  0  0
  -24.3530  -29.4850   20.1390 C   0  0  0  0  0  2  0  0  0  0  0  0
  -25.3230  -30.7180   22.0950 N   0  0  0  0  0  0  0  0  0  0  0  0
  -24.0670  -31.9640   23.5730 O   0  0  0  0  0  0  0  0  0  0  0  0
  -23.2680  -29.2780   22.4480 C   0  0  0  0  0  0  0  0  0  0  0  0
  -21.9320  -29.1640   22.2930 N   0  0  0  0  0  0  0  0  0  0  0  0
  -23.8780  -28.6500   23.3160 O   0  0  0  0  0  0  0  0  0  0  0  0
  -21.4840  -29.7200   21.5780 H   0  0  0  0  0  0  0  0  0  0  0  0
  -18.4990  -28.0670   22.7990 C   0  0  0  0  0  0  0  0  0  0  0  0
  -21.0670  -28.2520   23.0580 C   0  0  0  0  0  3  0  0  0  0  0  0
  -21.1190  -26.8200   22.4770 C   0  0  0  0  0  2  0  0  0  0  0  0
  -20.0100  -26.5420   21.4580 C   0  0  0  0  0  2  0  0  0  0  0  0
  -18.6310  -26.7240   22.1000 C   0  0  0  0  0  2  0  0  0  0  0  0
  -19.6410  -28.7930   23.2330 C   0  0  0  0  0  0  0  0  0  0  0  0
  -19.4570  -30.0470   23.8520 C   0  0  0  0  0  3  0  0  0  0  0  0
  -18.1670  -30.5790   24.0350 C   0  0  0  0  0  3  0  0  0  0  0  0
  -17.0400  -29.8520   23.6120 C   0  0  0  0  0  3  0  0  0  0  0  0
  -17.2070  -28.5970   23.0000 C   0  0  0  0  0  3  0  0  0  0  0  0
  -26.4070  -32.3090   23.8190 C   0  0  0  0  0  3  0  0  0  0  0  0
  -26.9060  -31.5330   25.1020 C   0  0  1  0  0  0  0  0  0  0  0  0
  -25.7890  -31.2520   26.1360 C   0  0  0  0  0  1  0  0  0  0  0  0
  -27.5370  -30.1770   24.7250 C   0  0  0  0  0  1  0  0  0  0  0  0
  -28.0150  -32.3480   25.8080 C   0  0  0  0  0  1  0  0  0  0  0  0
  -26.0310  -33.6920   24.2020 N   0  0  0  0  0  0  0  0  0  0  0  0
  -26.3280  -34.8030   23.5130 C   0  0  0  0  0  0  0  0  0  0  0  0
  -26.9930  -34.7770   22.4770 O   0  0  0  0  0  0  0  0  0  0  0  0
  -25.4370  -33.7840   25.0130 H   0  0  0  0  0  0  0  0  0  0  0  0
  -24.5340  -36.5620   23.3000 C   0  0  0  0  0  1  0  0  0  0  0  0
  -25.8100  -36.1550   24.0540 C   0  0  0  0  0  3  0  0  0  0  0  0
  -27.9330  -37.0790   24.8760 C   0  0  0  0  0  1  0  0  0  0  0  0
  -26.8020  -37.2500   23.9700 N   0  0  0  0  0  0  0  0  0  0  0  0
  -26.3670  -38.1460   24.1750 H   0  0  0  0  0  0  0  0  0  0  0  0
  2  5  1  0
  4  6  1  0
  8  9  1  0
  9  3  1  0
  9 18  1  0
 10 17  2  0
 10 16  1  0
 11 16  1  0
 12 13  1  0
 12 11  1  0
 13 15  1  0
 16 15  1  0
 18 10  1  0
 19 18  1  0
 20 45  1  0
 20 21  1  0
 21 40  1  0
 21 22  1  0
 22 25  1  0
 23 14  1  0
 23 24  1  0
 23 20  1  0
 24 22  1  0
 25 26  1  0
 26 27  2  0
 28 31  1  0
 28 27  1  0
 29 28  2  0
 30 29  1  0
 30 25  2  0
 31 32  1  0
 32 37  2  0
 32 33  1  0
 33 34  2  0
 34 35  1  0
 35 39  1  0
 36 35  2  0
 37 36  1  0
 38 37  1  0
 40 41  1  0
 41 43  1  0
 42 40  2  0
 44 41  1  0
 45 47  1  0
 46 45  1  0
 52 63  2  0
 53 51  1  0
 53 58  1  0
 54 62  1  0
 54 64  1  0
 55 57  1  0
 56 62  1  0
 57 58  2  0
 57 56  1  0
 59 53  2  0
 60 59  1  0
 60 55  2  0
 61 55  1  0
 61 54  1  0
 62 52  1  0
 64 66  2  0
 65 64  1  0
 67 65  1  0
 68 77  2  0
 68 73  1  0
 69 65  1  0
 69 73  1  0
 70 69  1  0
 71 72  1  0
 71 70  1  0
 72 68  1  0
 73 74  2  0
 74 75  1  0
 76 75  2  0
 77 76  1  0
 78 52  1  0
 78 83  1  0
 78 79  1  0
 79 82  1  1
 79 80  1  0
 81 79  1  0
 83 86  1  0
 84 88  1  0
 84 83  1  0
 85 84  2  0
 88 87  1  0
 90 88  1  0
 90 91  1  0
 90 89  1  0
M  ISO  4  10 100  18 100  50 101  51 101
M  END
>  <TORSDO>  (10) 
F 20

>  <SCORE>  (10) 
-7.272

>  <name>  (10) 
9

>  <ligand_id>  (10) 
9

>  <original_smiles>  (10) 
[H]c1c([H])c([H])c2c(c1[H])C([H])([H])C([H])([H])C([H])([H])C2([H])N([H])C(=O)C1([H])N(C(=O)C([H])(N([H])C(=O)C([H])(N([H])C([H])([H])[H])C([H])([H])[H])C(C([H])([H])[H])(C([H])([H])[H])C([H])([H])[H])C([H])([H])c2c([H])c(OC([H])([H])C([H])([H])C([H])([H])c3nc(C([H])([H])[H])c([H])c(C([H])(N([H])C(=O)N4C([H])([H])C([H])([H])C([H])([H])C([H])(n5nc(-c6c([H])c([H])c(Oc7c([H])c([H])c(F)c([H])c7F)c([H])c6[H])c(C(=O)N([H])[H])c5N([H])[H])C4([H])[H])C([H])([H])[H])c3[H])c([H])c([H])c2C1([H])[H]

>  <smiles>  (10) 
[H]c1c([H])c([H])c2c(c1[H])C([H])([H])C([H])([H])C([H])([H])C2([H])N([H])C(=O)C1([H])N(C(=O)C([H])(N([H])C(=O)C([H])(N([H])C([H])([H])[H])C([H])([H])[H])C(C([H])([H])[H])(C([H])([H])[H])C([H])([H])[H])C([H])([H])c2c([H])c(OC([H])([H])C([H])([H])C([H])([H])c3nc(C([H])([H])[H])c([H])c(C([H])(N([H])C(=O)N4C([H])([H])C([H])([H])C([H])([H])C([H])(n5nc(-c6c([H])c([H])c(Oc7c([H])c([H])c(F)c([H])c7F)c([H])c6[H])c(C(=O)N([H])[H])c5N([H])[H])C4([H])[H])C([H])([H])[H])c3[H])c([H])c([H])c2C1([H])[H]

$$$$
10:0:0
     RDKit          3D

 95100  0  0  1  0  0  0  0  0999 V2000
  -27.5500  -12.2130   19.1400 C   0  0  0  0  0  3  0  0  0  0  0  0
  -27.5460  -14.0100   18.7070 C   0  0  0  0  0  2  0  0  0  0  0  0
  -28.8540  -13.3060   18.8930 C   0  0  0  0  0  3  0  0  0  0  0  0
  -28.1670  -11.3020   20.6820 C   0  0  0  0  0  3  0  0  0  0  0  0
  -29.9270  -12.9590   20.6770 C   0  0  1  0  0  0  0  0  0  0  0  0
  -29.0810  -12.9870   17.2540 C   0  0  0  0  0  1  0  0  0  0  0  0
  -30.6330  -13.7400   21.9240 C   0  0  0  0  0  3  0  0  0  0  0  0
  -29.3220  -11.8720   21.4490 N   0  0  0  0  0  2  0  0  0  0  0  0
  -27.4520   -8.7410   21.2510 C   0  0  0  0  0  1  0  0  0  0  0  0
  -28.2990   -9.9580   21.5560 C   0  0  0  0  0  3  0  0  0  0  0  0
  -30.2050   -9.9510   23.4660 C   0  0  0  0  0  1  0  0  0  0  0  0
  -29.7610   -9.3940   22.0590 C   0  0  0  0  0  3  0  0  0  0  0  0
  -30.9590   -9.2470   20.9940 C   0  0  0  0  0  2  0  0  0  0  0  0
  -32.4440  -11.3650   20.1650 C   0  0  0  0  0  0  0  0  0  0  0  0
  -31.9710  -13.0080   18.6000 C   0  0  0  0  0  2  0  0  0  0  0  0
  -31.7490  -14.5720   19.4460 C   0  0  0  0  0  1  0  0  0  0  0  0
  -30.3820  -15.2760   20.8340 C   0  0  0  0  0  1  0  0  0  0  0  0
  -28.7560  -13.9410   21.4720 C   0  0  0  0  0  3  0  0  0  0  0  0
  -30.0210  -11.6670   19.1980 C   0  0  0  0  0  2  0  0  0  0  0  0
  -31.5720  -11.6750   19.1230 N   0  0  0  0  0  0  0  0  0  0  0  0
  -33.3820  -12.1480   20.4460 O   0  0  0  0  0  0  0  0  0  0  0  0
  -32.0960  -10.2500   20.9320 N   0  0  0  0  0  0  0  0  0  0  0  0
  -32.7940   -9.9950   21.6130 H   0  0  0  0  0  0  0  0  0  0  0  0
  -26.0180  -14.0840   21.0300 C   0  0  0  0  0  0  0  0  0  0  0  0
  -24.9460  -13.2310   21.0610 C   0  0  0  0  0  0  0  0  0  0  0  0
  -25.3140  -11.9020   21.2900 C   0  0  0  0  0  0  0  0  0  0  0  0
  -27.0310  -13.5700   21.6650 N   0  0  0  0  0  0  0  0  0  0  0  0
  -26.3700  -12.2640   22.0110 N   0  0  0  0  0  0  0  0  0  0  0  0
  -24.5060  -10.5790   21.2930 C   0  0  0  0  0  0  0  0  0  0  0  0
  -24.5580   -9.4240   22.1470 C   0  0  0  0  0  3  0  0  0  0  0  0
  -23.7140   -8.2940   21.9830 C   0  0  0  0  0  3  0  0  0  0  0  0
  -22.5790   -8.3440   21.1580 C   0  0  0  0  0  0  0  0  0  0  0  0
  -22.4350   -9.5080   20.3760 C   0  0  0  0  0  3  0  0  0  0  0  0
  -23.4190  -10.5400   20.3750 C   0  0  0  0  0  3  0  0  0  0  0  0
  -21.6020   -7.3570   21.1400 O   0  0  0  0  0  0  0  0  0  0  0  0
  -21.3850   -6.5110   22.2250 C   0  0  0  0  0  0  0  0  0  0  0  0
  -21.0960   -7.0130   23.5110 C   0  0  0  0  0  3  0  0  0  0  0  0
  -20.8280   -6.1300   24.5710 C   0  0  0  0  0  3  0  0  0  0  0  0
  -20.7880   -4.7410   24.3550 C   0  0  0  0  0  0  0  0  0  0  0  0
  -21.0640   -4.2450   23.0720 C   0  0  0  0  0  3  0  0  0  0  0  0
  -21.3540   -5.1160   22.0130 C   0  0  0  0  0  0  0  0  0  0  0  0
  -21.5780   -4.6140   20.7730 F   0  0  0  0  0  0  0  0  0  0  0  0
  -20.5380   -3.8930   25.3750 F   0  0  0  0  0  0  0  0  0  0  0  0
  -23.6120  -13.7540   21.2750 C   0  0  0  0  0  0  0  0  0  0  0  0
  -22.8620  -13.1720   22.2060 N   0  0  0  0  0  0  0  0  0  0  0  0
  -23.3160  -14.8190   20.7610 O   0  0  0  0  0  0  0  0  0  0  0  0
  -23.1700  -12.3520   22.6950 H   0  0  0  0  0  0  0  0  0  0  0  0
  -21.9790  -13.5640   22.4390 H   0  0  0  0  0  0  0  0  0  0  0  0
  -26.1840  -15.3910   20.7860 N   0  0  0  0  0  0  0  0  0  0  0  0
  -26.1540  -15.8150   21.6960 H   0  0  0  0  0  0  0  0  0  0  0  0
  -25.3360  -15.6120   20.2870 H   0  0  0  0  0  0  0  0  0  0  0  0
  -27.1320  -16.3010   19.2440 C   0  0  0  0  0 15  0  0  0  0  0  0
  -27.6560  -18.6290   19.8850 C   0  0  0  0  0 15  0  0  0  0  0  0
  -27.3600  -21.0850   20.0800 C   0  0  0  0  0 15  0  0  0  0  0  0
  -27.8270  -23.1720   20.5660 O   0  0  0  0  0  1  0  0  0  0  0  0
  -25.1870  -30.9010   23.1780 C   0  0  0  0  0  0  0  0  0  0  0  0
  -27.3430  -24.8800   20.5650 C   0  0  0  0  0  0  0  0  0  0  0  0
  -24.1540  -29.5000   21.4760 C   0  0  0  0  0  3  0  0  0  0  0  0
  -25.6020  -27.6230   20.2720 C   0  0  0  0  0  0  0  0  0  0  0  0
  -26.7170  -29.1940   21.8060 C   0  0  0  0  0  2  0  0  0  0  0  0
  -26.7030  -27.6920   21.1230 C   0  0  0  0  0  0  0  0  0  0  0  0
  -27.5460  -26.3660   21.2280 C   0  0  0  0  0  3  0  0  0  0  0  0
  -26.3060  -25.2510   19.6520 C   0  0  0  0  0  3  0  0  0  0  0  0
  -25.5010  -26.4530   19.5290 C   0  0  0  0  0  3  0  0  0  0  0  0
  -24.5350  -28.7590   20.1570 C   0  0  0  0  0  2  0  0  0  0  0  0
  -25.3970  -29.9300   22.1970 N   0  0  0  0  0  0  0  0  0  0  0  0
  -24.0520  -31.3030   23.4910 O   0  0  0  0  0  0  0  0  0  0  0  0
  -23.2320  -28.6360   22.3740 C   0  0  0  0  0  0  0  0  0  0  0  0
  -21.9000  -28.6670   22.1670 N   0  0  0  0  0  0  0  0  0  0  0  0
  -23.7370  -27.9340   23.2510 O   0  0  0  0  0  0  0  0  0  0  0  0
  -21.5410  -29.2810   21.4470 H   0  0  0  0  0  0  0  0  0  0  0  0
  -18.3470  -27.9550   22.5850 C   0  0  0  0  0  0  0  0  0  0  0  0
  -20.9150  -27.8230   22.8670 C   0  0  0  0  0  3  0  0  0  0  0  0
  -20.8100  -26.4340   22.1960 C   0  0  0  0  0  2  0  0  0  0  0  0
  -19.6960  -26.3590   21.1510 C   0  0  0  0  0  2  0  0  0  0  0  0
  -18.3380  -26.6560   21.7950 C   0  0  0  0  0  2  0  0  0  0  0  0
  -19.5600  -28.5150   23.0700 C   0  0  0  0  0  0  0  0  0  0  0  0
  -19.5160  -29.7300   23.7870 C   0  0  0  0  0  3  0  0  0  0  0  0
  -18.2980  -30.3920   24.0120 C   0  0  0  0  0  3  0  0  0  0  0  0
  -17.0980  -29.8370   23.5380 C   0  0  0  0  0  3  0  0  0  0  0  0
  -17.1240  -28.6200   22.8290 C   0  0  0  0  0  3  0  0  0  0  0  0
  -26.3600  -31.5820   23.9720 C   0  0  0  0  0  3  0  0  0  0  0  0
  -26.0090  -33.0080   24.2290 N   0  0  0  0  0  0  0  0  0  0  0  0
  -26.4590  -34.0740   23.5500 C   0  0  0  0  0  0  0  0  0  0  0  0
  -27.2470  -33.9670   22.6120 O   0  0  0  0  0  0  0  0  0  0  0  0
  -25.3130  -33.1720   24.9420 H   0  0  0  0  0  0  0  0  0  0  0  0
  -24.8160  -35.9290   23.0310 C   0  0  0  0  0  1  0  0  0  0  0  0
  -25.9590  -35.4820   23.9610 C   0  0  0  0  0  3  0  0  0  0  0  0
  -27.9900  -36.3420   25.0520 C   0  0  0  0  0  1  0  0  0  0  0  0
  -27.0240  -36.5150   23.9700 N   0  0  0  0  0  0  0  0  0  0  0  0
  -26.6180  -37.4470   24.0560 H   0  0  0  0  0  0  0  0  0  0  0  0
  -26.6520  -30.8870   25.3630 C   0  0  1  0  0  0  0  0  0  0  0  0
  -25.3990  -30.7310   26.2500 C   0  0  0  0  0  1  0  0  0  0  0  0
  -27.2670  -29.4890   25.1860 C   0  0  0  0  0  1  0  0  0  0  0  0
  -27.7040  -31.7110   26.1510 C   0  0  0  0  0  1  0  0  0  0  0  0
  1  2  1  0
  1  4  1  0
  2  3  1  0
  3  6  1  0
  3  1  1  0
  4  8  1  0
  4 10  1  0
  5 19  1  6
  5  8  1  0
  5 18  1  0
  5  7  1  0
  7 17  1  0
 10  9  1  0
 10 12  1  0
 12 11  1  0
 13 12  1  0
 14 21  2  0
 14 22  1  0
 15 20  1  0
 15 16  1  0
 18 27  1  0
 18  7  1  0
 20 19  1  0
 20 14  1  0
 22 13  1  0
 22 23  1  0
 24 25  2  0
 24 27  1  0
 25 44  1  0
 25 26  1  0
 26 29  1  0
 26 28  2  0
 27 28  1  0
 29 30  1  0
 31 30  2  0
 32 31  1  0
 33 32  2  0
 34 33  1  0
 34 29  2  0
 35 32  1  0
 35 36  1  0
 36 37  1  0
 37 38  2  0
 39 38  1  0
 39 43  1  0
 40 39  2  0
 41 36  2  0
 41 40  1  0
 42 41  1  0
 44 45  1  0
 45 48  1  0
 45 47  1  0
 46 44  2  0
 49 24  1  0
 49 50  1  0
 51 49  1  0
 56 67  2  0
 57 55  1  0
 57 62  1  0
 58 66  1  0
 58 68  1  0
 59 61  1  0
 60 66  1  0
 61 62  2  0
 61 60  1  0
 63 57  2  0
 64 63  1  0
 64 59  2  0
 65 59  1  0
 65 58  1  0
 66 56  1  0
 68 70  2  0
 69 68  1  0
 71 69  1  0
 72 81  2  0
 72 77  1  0
 73 69  1  0
 73 77  1  0
 74 73  1  0
 75 76  1  0
 75 74  1  0
 76 72  1  0
 77 78  2  0
 78 79  1  0
 80 79  2  0
 81 80  1  0
 82 56  1  0
 82 83  1  0
 82 92  1  0
 83 86  1  0
 84 88  1  0
 84 83  1  0
 85 84  2  0
 88 87  1  0
 88 90  1  0
 90 91  1  0
 90 89  1  0
 92 95  1  1
 92 93  1  0
 94 92  1  0
M  ISO  4  14 100  22 100  54 101  55 101
M  END
>  <TORSDO>  (11) 
F 22

>  <SCORE>  (11) 
-9.688

>  <name>  (11) 
10

>  <ligand_id>  (11) 
10

>  <original_smiles>  (11) 
[H]c1c([H])c([H])c2c(c1[H])C([H])([H])C([H])([H])C([H])([H])C2([H])N([H])C(=O)C1([H])N(C(=O)C([H])(N([H])C(=O)C([H])(N([H])C([H])([H])[H])C([H])([H])[H])C(C([H])([H])[H])(C([H])([H])[H])C([H])([H])[H])C([H])([H])c2c([H])c(OC([H])([H])C([H])([H])C([H])([H])c3c([H])c(C([H])(C([H])([H])[H])C([H])(C([H])([H])[H])C([H])([H])N([H])C(=O)N4C([H])([H])C([H])([H])C([H])([H])C([H])(n5nc(-c6c([H])c([H])c(Oc7c([H])c([H])c(F)c([H])c7F)c([H])c6[H])c(C(=O)N([H])[H])c5N([H])[H])C4([H])[H])nc(C([H])([H])[H])c3C([H])([H])[H])c([H])c([H])c2C1([H])[H]

>  <smiles>  (11) 
[H]c1c([H])c([H])c2c(c1[H])C([H])([H])C([H])([H])C([H])([H])C2([H])N([H])C(=O)C1([H])N(C(=O)C([H])(N([H])C(=O)C([H])(N([H])C([H])([H])[H])C([H])([H])[H])C(C([H])([H])[H])(C([H])([H])[H])C([H])([H])[H])C([H])([H])c2c([H])c(OC([H])([H])C([H])([H])C([H])([H])c3c([H])c(C([H])(C([H])([H])[H])C([H])(C([H])([H])[H])C([H])([H])N([H])C(=O)N4C([H])([H])C([H])([H])C([H])([H])C([H])(n5nc(-c6c([H])c([H])c(Oc7c([H])c([H])c(F)c([H])c7F)c([H])c6[H])c(C(=O)N([H])[H])c5N([H])[H])C4([H])[H])nc(C([H])([H])[H])c3C([H])([H])[H])c([H])c([H])c2C1([H])[H]

$$$$
11:0:0
     RDKit          3D

 94102  0  0  1  0  0  0  0  0999 V2000
  -30.0440  -22.7480   22.0130 C   0  0  0  0  0  3  0  0  0  0  0  0
  -29.5750  -20.3230   21.4330 C   0  0  0  0  0  3  0  0  0  0  0  0
  -30.2200  -19.3160   20.7510 C   0  0  0  0  0  0  0  0  0  0  0  0
  -31.4090  -21.2070   20.5520 C   0  0  0  0  0  3  0  0  0  0  0  0
  -32.5120  -22.1270   20.1280 C   0  0  0  0  0  1  0  0  0  0  0  0
  -30.3240  -21.4710   21.3060 N   0  0  0  0  0  0  0  0  0  0  0  0
  -31.3470  -19.9060   20.2300 N   0  0  0  0  0  0  0  0  0  0  0  0
  -32.0490  -19.4300   19.6740 H   0  0  0  0  0  0  0  0  0  0  0  0
  -29.8510  -17.8700   20.5050 C   0  0  0  0  0  2  0  0  0  0  0  0
  -30.5770  -16.8430   21.4170 C   0  0  0  0  0  2  0  0  0  0  0  0
  -30.7070  -14.5110   20.4650 C   0  0  0  0  0  0  0  0  0  0  0  0
  -30.3700  -12.3910   19.2370 C   0  0  0  0  0  2  0  0  0  0  0  0
  -29.4180  -12.6260   18.0460 C   0  0  0  0  0  2  0  0  0  0  0  0
  -27.9460  -12.4820   18.4780 C   0  0  0  0  0  2  0  0  0  0  0  0
  -27.6280  -13.2990   19.7560 C   0  0  0  0  0  3  0  0  0  0  0  0
  -28.6850  -13.0370   20.8550 C   0  0  0  0  0  2  0  0  0  0  0  0
  -30.0130  -13.3510   20.2970 N   0  0  0  0  0  0  0  0  0  0  0  0
  -31.7840  -14.7310   19.9020 O   0  0  0  0  0  0  0  0  0  0  0  0
  -30.1090  -15.4580   21.2110 N   0  0  0  0  0  0  0  0  0  0  0  0
  -29.2360  -15.2070   21.6480 H   0  0  0  0  0  0  0  0  0  0  0  0
  -25.2370  -13.9370   20.4600 C   0  0  0  0  0  0  0  0  0  0  0  0
  -24.1600  -13.1750   20.8350 C   0  0  0  0  0  0  0  0  0  0  0  0
  -24.6100  -11.8210   20.8140 C   0  0  0  0  0  0  0  0  0  0  0  0
  -26.2720  -13.0430   20.2380 N   0  0  0  0  0  0  0  0  0  0  0  0
  -25.8980  -11.7660   20.5050 N   0  0  0  0  0  0  0  0  0  0  0  0
  -23.8720  -10.5660   21.0110 C   0  0  0  0  0  0  0  0  0  0  0  0
  -24.3030   -9.5990   21.9450 C   0  0  0  0  0  3  0  0  0  0  0  0
  -23.5720   -8.4070   22.1320 C   0  0  0  0  0  3  0  0  0  0  0  0
  -22.3960   -8.1720   21.3810 C   0  0  0  0  0  0  0  0  0  0  0  0
  -21.9810   -9.1270   20.4360 C   0  0  0  0  0  3  0  0  0  0  0  0
  -22.7130  -10.3130   20.2500 C   0  0  0  0  0  3  0  0  0  0  0  0
  -21.6340   -7.0330   21.4790 O   0  0  0  0  0  0  0  0  0  0  0  0
  -21.5880   -6.2910   22.6320 C   0  0  0  0  0  0  0  0  0  0  0  0
  -21.1790   -6.8520   23.8620 C   0  0  0  0  0  3  0  0  0  0  0  0
  -21.0840   -6.0400   25.0090 C   0  0  0  0  0  3  0  0  0  0  0  0
  -21.3830   -4.6670   24.9270 C   0  0  0  0  0  0  0  0  0  0  0  0
  -21.7820   -4.1050   23.7020 C   0  0  0  0  0  3  0  0  0  0  0  0
  -21.8820   -4.9150   22.5580 C   0  0  0  0  0  0  0  0  0  0  0  0
  -22.2490   -4.3660   21.3760 F   0  0  0  0  0  0  0  0  0  0  0  0
  -21.2800   -3.8850   26.0250 F   0  0  0  0  0  0  0  0  0  0  0  0
  -22.7680  -13.6660   21.1070 C   0  0  0  0  0  0  0  0  0  0  0  0
  -22.0390  -12.9720   21.9780 N   0  0  0  0  0  0  0  0  0  0  0  0
  -22.3340  -14.6920   20.5860 O   0  0  0  0  0  0  0  0  0  0  0  0
  -22.4070  -12.1420   22.4180 H   0  0  0  0  0  0  0  0  0  0  0  0
  -21.1000  -13.2710   22.1990 H   0  0  0  0  0  0  0  0  0  0  0  0
  -25.4260  -15.3030   20.2660 N   0  0  0  0  0  0  0  0  0  0  0  0
  -24.6830  -15.9880   20.3510 H   0  0  0  0  0  0  0  0  0  0  0  0
  -26.2830  -15.6980   19.8970 H   0  0  0  0  0  0  0  0  0  0  0  0
  -29.5940  -23.9840   21.1720 C   0  0  0  0  0  3  0  0  0  0  0  0
  -27.4780  -24.8730   22.3190 C   0  0  0  0  0  1  0  0  0  0  0  0
  -29.7000  -25.3380   23.3630 C   0  0  0  0  0  1  0  0  0  0  0  0
  -28.9670  -25.1650   22.0030 C   0  0  1  0  0  0  0  0  0  0  0  0
  -29.1120  -26.5280   21.2450 C   0  0  0  0  0  2  0  0  0  0  0  0
  -28.3020  -26.6650   20.0680 O   0  0  0  0  0  0  0  0  0  0  0  0
  -24.5310  -31.9020   23.2220 C   0  0  0  0  0  0  0  0  0  0  0  0
  -27.1730  -27.4580   20.1330 C   0  0  0  0  0  0  0  0  0  0  0  0
  -23.3210  -30.4910   21.5850 C   0  0  0  0  0  3  0  0  0  0  0  0
  -24.7710  -28.9570   20.1610 C   0  0  0  0  0  0  0  0  0  0  0  0
  -25.8440  -30.8610   21.3720 C   0  0  0  0  0  2  0  0  0  0  0  0
  -25.9350  -29.4900   20.7300 C   0  0  0  0  0  0  0  0  0  0  0  0
  -27.1380  -28.7490   20.7140 C   0  0  0  0  0  3  0  0  0  0  0  0
  -25.9890  -26.9380   19.5630 C   0  0  0  0  0  3  0  0  0  0  0  0
  -24.7900  -27.6760   19.5850 C   0  0  0  0  0  3  0  0  0  0  0  0
  -23.5250  -29.8110   20.2070 C   0  0  0  0  0  2  0  0  0  0  0  0
  -24.5840  -31.0990   22.1200 N   0  0  0  0  0  0  0  0  0  0  0  0
  -23.4560  -32.1730   23.7700 O   0  0  0  0  0  0  0  0  0  0  0  0
  -22.6810  -29.4680   22.5520 C   0  0  0  0  0  0  0  0  0  0  0  0
  -21.3540  -29.2850   22.4340 N   0  0  0  0  0  0  0  0  0  0  0  0
  -23.3710  -28.8370   23.3560 O   0  0  0  0  0  0  0  0  0  0  0  0
  -20.8640  -29.8370   21.7460 H   0  0  0  0  0  0  0  0  0  0  0  0
  -17.9800  -28.0890   22.9450 C   0  0  0  0  0  0  0  0  0  0  0  0
  -20.5400  -28.3440   23.2050 C   0  0  0  0  0  3  0  0  0  0  0  0
  -20.6420  -26.9160   22.6230 C   0  0  0  0  0  2  0  0  0  0  0  0
  -19.5320  -26.5960   21.6160 C   0  0  0  0  0  2  0  0  0  0  0  0
  -18.1510  -26.7420   22.2660 C   0  0  0  0  0  2  0  0  0  0  0  0
  -19.1010  -28.8490   23.3670 C   0  0  0  0  0  0  0  0  0  0  0  0
  -18.8920  -30.1150   23.9560 C   0  0  0  0  0  3  0  0  0  0  0  0
  -17.5890  -30.6170   24.1380 C   0  0  0  0  0  3  0  0  0  0  0  0
  -16.4800  -29.8520   23.7390 C   0  0  0  0  0  3  0  0  0  0  0  0
  -16.6760  -28.5910   23.1450 C   0  0  0  0  0  3  0  0  0  0  0  0
  -25.8220  -32.5370   23.8330 C   0  0  0  0  0  3  0  0  0  0  0  0
  -25.5130  -33.9320   24.1710 N   0  0  0  0  0  0  0  0  0  0  0  0
  -25.8410  -34.9880   23.4130 C   0  0  0  0  0  0  0  0  0  0  0  0
  -26.5060  -34.8910   22.3790 O   0  0  0  0  0  0  0  0  0  0  0  0
  -24.9340  -34.0840   24.9830 H   0  0  0  0  0  0  0  0  0  0  0  0
  -24.1100  -36.7760   23.0600 C   0  0  0  0  0  1  0  0  0  0  0  0
  -25.3490  -36.3730   23.8760 C   0  0  0  0  0  3  0  0  0  0  0  0
  -27.4810  -37.2520   24.7150 C   0  0  0  0  0  1  0  0  0  0  0  0
  -26.3810  -37.4290   23.7720 N   0  0  0  0  0  0  0  0  0  0  0  0
  -25.9750  -38.3480   23.9280 H   0  0  0  0  0  0  0  0  0  0  0  0
  -26.3580  -31.7670   25.1020 C   0  0  1  0  0  0  0  0  0  0  0  0
  -25.2770  -31.5080   26.1800 C   0  0  0  0  0  1  0  0  0  0  0  0
  -26.9650  -30.4040   24.7000 C   0  0  0  0  0  1  0  0  0  0  0  0
  -27.5070  -32.5690   25.7580 C   0  0  0  0  0  1  0  0  0  0  0  0
  3  2  2  0
  4  5  1  0
  4  6  1  0
  6  2  1  0
  6  1  1  0
  7  4  1  0
  7  3  1  0
  8  7  1  0
  9  3  1  0
  9 10  1  0
 11 19  1  0
 12 17  1  0
 13 14  1  0
 13 12  1  0
 15 14  1  0
 15 24  1  0
 15 16  1  0
 17 11  1  0
 17 16  1  0
 18 11  2  0
 19 10  1  0
 19 20  1  0
 21 22  2  0
 22 41  1  0
 23 22  1  0
 23 26  1  0
 24 21  1  0
 24 25  1  0
 25 23  2  0
 26 27  1  0
 27 28  2  0
 29 32  1  0
 29 28  1  0
 30 29  2  0
 31 30  1  0
 31 26  2  0
 32 33  1  0
 33 34  1  0
 34 35  2  0
 36 35  1  0
 36 40  1  0
 37 36  2  0
 38 33  2  0
 38 37  1  0
 39 38  1  0
 41 42  1  0
 42 45  1  0
 42 44  1  0
 43 41  2  0
 46 47  1  0
 46 21  1  0
 48 46  1  0
 49 52  1  0
 49  1  2  0
 52 50  1  1
 52 51  1  0
 53 52  1  0
 54 56  1  0
 54 53  1  0
 55 66  2  0
 56 61  1  0
 57 65  1  0
 57 67  1  0
 58 64  1  0
 58 60  1  0
 59 65  1  0
 60 59  1  0
 61 60  2  0
 62 63  1  0
 62 56  2  0
 63 58  2  0
 64 57  1  0
 65 55  1  0
 67 69  2  0
 68 67  1  0
 70 68  1  0
 71 80  2  0
 71 76  1  0
 72 68  1  0
 72 76  1  0
 73 72  1  0
 74 75  1  0
 74 73  1  0
 75 71  1  0
 76 77  2  0
 77 78  1  0
 79 78  2  0
 80 79  1  0
 81 55  1  0
 81 82  1  0
 81 91  1  0
 82 85  1  0
 83 87  1  0
 83 82  1  0
 84 83  2  0
 87 86  1  0
 89 87  1  0
 89 90  1  0
 89 88  1  0
 91 94  1  1
 91 92  1  0
 93 91  1  0
M  ISO  4  11 100  19 100  53 101  54 101
M  END
>  <TORSDO>  (12) 
F 22

>  <SCORE>  (12) 
-13.155

>  <name>  (12) 
11

>  <ligand_id>  (12) 
11

>  <original_smiles>  (12) 
[H]c1c([H])c([H])c2c(c1[H])C([H])([H])C([H])([H])C([H])([H])C2([H])N([H])C(=O)C1([H])N(C(=O)C([H])(N([H])C(=O)C([H])(N([H])C([H])([H])[H])C([H])([H])[H])C(C([H])([H])[H])(C([H])([H])[H])C([H])([H])[H])C([H])([H])c2c([H])c(OC([H])([H])C(C([H])([H])[H])(C([H])([H])[H])C([H])([H])C([H])([H])n3c([H])c(C([H])([H])C([H])([H])N([H])C(=O)N4C([H])([H])C([H])([H])C([H])([H])C([H])(n5nc(-c6c([H])c([H])c(Oc7c([H])c([H])c(F)c([H])c7F)c([H])c6[H])c(C(=O)N([H])[H])c5N([H])[H])C4([H])[H])[n+]([H])c3C([H])([H])[H])c([H])c([H])c2C1([H])[H]

>  <smiles>  (12) 
[H]c1c([H])c([H])c2c(c1[H])C([H])([H])C([H])([H])C([H])([H])C2([H])N([H])C(=O)C1([H])N(C(=O)C([H])(N([H])C(=O)C([H])(N([H])C([H])([H])[H])C([H])([H])[H])C(C([H])([H])[H])(C([H])([H])[H])C([H])([H])[H])C([H])([H])c2c([H])c(OC([H])([H])C(C([H])([H])[H])(C([H])([H])[H])C([H])([H])C([H])([H])n3c([H])c(C([H])([H])C([H])([H])N([H])C(=O)N4C([H])([H])C([H])([H])C([H])([H])C([H])(n5nc(-c6c([H])c([H])c(Oc7c([H])c([H])c(F)c([H])c7F)c([H])c6[H])c(C(=O)N([H])[H])c5N([H])[H])C4([H])[H])[n+]([H])c3C([H])([H])[H])c([H])c([H])c2C1([H])[H]

$$$$
12:0:0
     RDKit          3D

 92 99  0  0  1  0  0  0  0  0999 V2000
  -28.9040  -22.7860   20.4900 C   0  0  0  0  0  2  0  0  0  0  0  0
  -28.9390  -21.5440   19.6560 N   0  0  0  0  0  4  0  0  0  0  0  0
  -29.3720  -21.7560   18.7730 H   0  0  0  0  0  0  0  0  0  0  0  0
  -27.9790  -21.3050   19.4660 H   0  0  0  0  0  0  0  0  0  0  0  0
  -31.1120  -20.3610   19.8670 C   0  0  0  0  0  1  0  0  0  0  0  0
  -29.6150  -20.3290   20.2130 C   0  0  0  0  0  3  0  0  0  0  0  0
  -28.9140  -19.0290   19.6970 C   0  0  0  0  0  2  0  0  0  0  0  0
  -29.6710  -17.6590   19.6570 C   0  0  0  0  0  2  0  0  0  0  0  0
  -30.0420  -16.9640   20.9950 C   0  0  0  0  0  2  0  0  0  0  0  0
  -30.6170  -14.5140   20.4770 C   0  0  0  0  0  0  0  0  0  0  0  0
  -30.3710  -12.3460   19.3140 C   0  0  0  0  0  2  0  0  0  0  0  0
  -29.4220  -12.5500   18.1130 C   0  0  0  0  0  2  0  0  0  0  0  0
  -27.9450  -12.4140   18.5370 C   0  0  0  0  0  2  0  0  0  0  0  0
  -27.6090  -13.2360   19.8100 C   0  0  0  0  0  3  0  0  0  0  0  0
  -28.6640  -12.9870   20.9110 C   0  0  0  0  0  2  0  0  0  0  0  0
  -29.9870  -13.3140   20.3520 N   0  0  0  0  0  0  0  0  0  0  0  0
  -31.7470  -14.7330   20.0290 O   0  0  0  0  0  0  0  0  0  0  0  0
  -29.8360  -15.5000   20.9670 N   0  0  0  0  0  0  0  0  0  0  0  0
  -28.9370  -15.1850   21.3020 H   0  0  0  0  0  0  0  0  0  0  0  0
  -25.2100  -13.8540   20.5060 C   0  0  0  0  0  0  0  0  0  0  0  0
  -24.1390  -13.0870   20.8780 C   0  0  0  0  0  0  0  0  0  0  0  0
  -24.5970  -11.7340   20.8570 C   0  0  0  0  0  0  0  0  0  0  0  0
  -26.2540  -12.9690   20.2850 N   0  0  0  0  0  0  0  0  0  0  0  0
  -25.8880  -11.6890   20.5550 N   0  0  0  0  0  0  0  0  0  0  0  0
  -23.8670  -10.4750   21.0540 C   0  0  0  0  0  0  0  0  0  0  0  0
  -24.3080   -9.5010   21.9770 C   0  0  0  0  0  3  0  0  0  0  0  0
  -23.5790   -8.3060   22.1610 C   0  0  0  0  0  3  0  0  0  0  0  0
  -22.3940   -8.0770   21.4220 C   0  0  0  0  0  0  0  0  0  0  0  0
  -21.9720   -9.0400   20.4880 C   0  0  0  0  0  3  0  0  0  0  0  0
  -22.7010  -10.2250   20.3020 C   0  0  0  0  0  3  0  0  0  0  0  0
  -21.6370   -6.9340   21.5150 O   0  0  0  0  0  0  0  0  0  0  0  0
  -21.6150   -6.1750   22.6570 C   0  0  0  0  0  0  0  0  0  0  0  0
  -21.2460   -6.7190   23.9060 C   0  0  0  0  0  3  0  0  0  0  0  0
  -21.1710   -5.8870   25.0410 C   0  0  0  0  0  3  0  0  0  0  0  0
  -21.4570   -4.5130   24.9290 C   0  0  0  0  0  0  0  0  0  0  0  0
  -21.8220   -3.9690   23.6850 C   0  0  0  0  0  3  0  0  0  0  0  0
  -21.8980   -4.7980   22.5510 C   0  0  0  0  0  0  0  0  0  0  0  0
  -22.2280   -4.2650   21.3500 F   0  0  0  0  0  0  0  0  0  0  0  0
  -21.3780   -3.7120   26.0180 F   0  0  0  0  0  0  0  0  0  0  0  0
  -22.7410  -13.5700   21.1410 C   0  0  0  0  0  0  0  0  0  0  0  0
  -22.0090  -12.8820   22.0100 N   0  0  0  0  0  0  0  0  0  0  0  0
  -22.3070  -14.5910   20.6110 O   0  0  0  0  0  0  0  0  0  0  0  0
  -22.3740  -12.0550   22.4600 H   0  0  0  0  0  0  0  0  0  0  0  0
  -21.0720  -13.1870   22.2280 H   0  0  0  0  0  0  0  0  0  0  0  0
  -25.3790  -15.2230   20.3200 N   0  0  0  0  0  0  0  0  0  0  0  0
  -24.6090  -15.8770   20.4130 H   0  0  0  0  0  0  0  0  0  0  0  0
  -26.2270  -15.6570   19.9760 H   0  0  0  0  0  0  0  0  0  0  0  0
  -27.6620  -23.9790   18.5800 C   0  0  0  0  0  1  0  0  0  0  0  0
  -30.0790  -24.4950   19.0140 C   0  0  0  0  0  1  0  0  0  0  0  0
  -28.7350  -24.1330   19.6790 C   0  0  2  0  0  0  0  0  0  0  0  0
  -28.3140  -25.3030   20.6460 C   0  0  0  0  0  2  0  0  0  0  0  0
  -28.3710  -26.6520   20.1110 O   0  0  0  0  0  0  0  0  0  0  0  0
  -24.5980  -31.8850   23.2350 C   0  0  0  0  0  0  0  0  0  0  0  0
  -27.2080  -27.4050   20.1500 C   0  0  0  0  0  0  0  0  0  0  0  0
  -23.3770  -30.4790   21.6070 C   0  0  0  0  0  3  0  0  0  0  0  0
  -24.8170  -28.9370   20.1730 C   0  0  0  0  0  0  0  0  0  0  0  0
  -25.9050  -30.8290   21.3860 C   0  0  0  0  0  2  0  0  0  0  0  0
  -25.9840  -29.4540   20.7500 C   0  0  0  0  0  0  0  0  0  0  0  0
  -27.1850  -28.7000   20.7290 C   0  0  0  0  0  3  0  0  0  0  0  0
  -26.0190  -26.9110   19.5730 C   0  0  0  0  0  3  0  0  0  0  0  0
  -24.8320  -27.6650   19.5780 C   0  0  0  0  0  3  0  0  0  0  0  0
  -23.5760  -29.8010   20.2270 C   0  0  0  0  0  2  0  0  0  0  0  0
  -24.6460  -31.0800   22.1340 N   0  0  0  0  0  0  0  0  0  0  0  0
  -23.5210  -32.1580   23.7830 O   0  0  0  0  0  0  0  0  0  0  0  0
  -22.7330  -29.4600   22.5750 C   0  0  0  0  0  0  0  0  0  0  0  0
  -21.4080  -29.2750   22.4570 N   0  0  0  0  0  0  0  0  0  0  0  0
  -23.4230  -28.8390   23.3880 O   0  0  0  0  0  0  0  0  0  0  0  0
  -20.9120  -29.8300   21.7740 H   0  0  0  0  0  0  0  0  0  0  0  0
  -18.0410  -28.0630   22.9630 C   0  0  0  0  0  0  0  0  0  0  0  0
  -20.5970  -28.3370   23.2340 C   0  0  0  0  0  3  0  0  0  0  0  0
  -20.7090  -26.9030   22.6680 C   0  0  0  0  0  2  0  0  0  0  0  0
  -19.6080  -26.5660   21.6570 C   0  0  0  0  0  2  0  0  0  0  0  0
  -18.2250  -26.7080   22.3010 C   0  0  0  0  0  2  0  0  0  0  0  0
  -19.1550  -28.8340   23.3880 C   0  0  0  0  0  0  0  0  0  0  0  0
  -18.9300  -30.1020   23.9670 C   0  0  0  0  0  3  0  0  0  0  0  0
  -17.6220  -30.5980   24.1310 C   0  0  0  0  0  3  0  0  0  0  0  0
  -16.5230  -29.8240   23.7230 C   0  0  0  0  0  3  0  0  0  0  0  0
  -16.7330  -28.5590   23.1440 C   0  0  0  0  0  3  0  0  0  0  0  0
  -25.8900  -32.5170   23.8410 C   0  0  0  0  0  3  0  0  0  0  0  0
  -25.5830  -33.9130   24.1780 N   0  0  0  0  0  0  0  0  0  0  0  0
  -25.9040  -34.9680   23.4170 C   0  0  0  0  0  0  0  0  0  0  0  0
  -26.5650  -34.8680   22.3790 O   0  0  0  0  0  0  0  0  0  0  0  0
  -25.0000  -34.0680   24.9870 H   0  0  0  0  0  0  0  0  0  0  0  0
  -24.1670  -36.7530   23.0830 C   0  0  0  0  0  1  0  0  0  0  0  0
  -25.4170  -36.3540   23.8820 C   0  0  0  0  0  3  0  0  0  0  0  0
  -27.5620  -37.2380   24.6880 C   0  0  0  0  0  1  0  0  0  0  0  0
  -26.4460  -37.4100   23.7600 N   0  0  0  0  0  0  0  0  0  0  0  0
  -26.0400  -38.3290   23.9170 H   0  0  0  0  0  0  0  0  0  0  0  0
  -26.4240  -31.7410   25.1080 C   0  0  1  0  0  0  0  0  0  0  0  0
  -25.3460  -31.5000   26.1900 C   0  0  0  0  0  1  0  0  0  0  0  0
  -27.0030  -30.3670   24.7020 C   0  0  0  0  0  1  0  0  0  0  0  0
  -27.5840  -32.5350   25.7560 C   0  0  0  0  0  1  0  0  0  0  0  0
  2  6  1  0
  2  1  1  0
  3  2  1  0
  4  2  1  0
  6  5  1  0
  7  6  1  0
  8  7  1  0
  8  9  1  0
 10 18  1  0
 11 16  1  0
 12 13  1  0
 12 11  1  0
 14 13  1  0
 14 23  1  0
 14 15  1  0
 16 10  1  0
 16 15  1  0
 17 10  2  0
 18  9  1  0
 18 19  1  0
 20 21  2  0
 21 40  1  0
 22 21  1  0
 22 25  1  0
 23 20  1  0
 23 24  1  0
 24 22  2  0
 25 26  1  0
 26 27  2  0
 28 31  1  0
 28 27  1  0
 29 28  2  0
 30 29  1  0
 30 25  2  0
 31 32  1  0
 32 33  1  0
 33 34  2  0
 35 34  1  0
 35 39  1  0
 36 35  2  0
 37 32  2  0
 37 36  1  0
 38 37  1  0
 40 41  1  0
 41 44  1  0
 41 43  1  0
 42 40  2  0
 45 46  1  0
 45 20  1  0
 47 45  1  0
 50 48  1  6
 49 50  1  0
 50  1  1  0
 50 51  1  0
 52 54  1  0
 52 51  1  0
 53 64  2  0
 54 59  1  0
 55 63  1  0
 55 65  1  0
 56 62  1  0
 56 58  1  0
 57 63  1  0
 58 57  1  0
 59 58  2  0
 60 61  1  0
 60 54  2  0
 61 56  2  0
 62 55  1  0
 63 53  1  0
 65 67  2  0
 66 65  1  0
 68 66  1  0
 69 78  2  0
 69 74  1  0
 70 66  1  0
 70 74  1  0
 71 70  1  0
 72 73  1  0
 72 71  1  0
 73 69  1  0
 74 75  2  0
 75 76  1  0
 77 76  2  0
 78 77  1  0
 79 53  1  0
 79 80  1  0
 79 89  1  0
 80 83  1  0
 81 85  1  0
 81 80  1  0
 82 81  2  0
 85 84  1  0
 87 85  1  0
 87 88  1  0
 87 86  1  0
 89 92  1  1
 89 90  1  0
 91 89  1  0
M  ISO  4  10 100  18 100  51 101  52 101
M  END
>  <TORSDO>  (13) 
F 23

>  <SCORE>  (13) 
-12.745

>  <name>  (13) 
12

>  <ligand_id>  (13) 
12

>  <original_smiles>  (13) 
[H]c1c([H])c([H])c2c(c1[H])C([H])([H])C([H])([H])C([H])([H])C2([H])N([H])C(=O)C1([H])N(C(=O)C([H])(N([H])C(=O)C([H])(N([H])C([H])([H])[H])C([H])([H])[H])C(C([H])([H])[H])(C([H])([H])[H])C([H])([H])[H])C([H])([H])c2c([H])c(OC([H])([H])C(C([H])([H])[H])(C([H])([H])[H])C([H])([H])[N+]([H])([H])C([H])(C([H])([H])[H])C([H])([H])C([H])([H])C([H])([H])N([H])C(=O)N3C([H])([H])C([H])([H])C([H])([H])C([H])(n4nc(-c5c([H])c([H])c(Oc6c([H])c([H])c(F)c([H])c6F)c([H])c5[H])c(C(=O)N([H])[H])c4N([H])[H])C3([H])[H])c([H])c([H])c2C1([H])[H]

>  <smiles>  (13) 
[H]c1c([H])c([H])c2c(c1[H])C([H])([H])C([H])([H])C([H])([H])C2([H])N([H])C(=O)C1([H])N(C(=O)C([H])(N([H])C(=O)C([H])(N([H])C([H])([H])[H])C([H])([H])[H])C(C([H])([H])[H])(C([H])([H])[H])C([H])([H])[H])C([H])([H])c2c([H])c(OC([H])([H])C(C([H])([H])[H])(C([H])([H])[H])C([H])([H])[N+]([H])([H])C([H])(C([H])([H])[H])C([H])([H])C([H])([H])C([H])([H])N([H])C(=O)N3C([H])([H])C([H])([H])C([H])([H])C([H])(n4nc(-c5c([H])c([H])c(Oc6c([H])c([H])c(F)c([H])c6F)c([H])c5[H])c(C(=O)N([H])[H])c4N([H])[H])C3([H])[H])c([H])c([H])c2C1([H])[H]

$$$$
13:0:0
     RDKit          3D

 92100  0  0  1  0  0  0  0  0999 V2000
  -30.6500  -21.8770   19.6760 C   0  0  0  0  0  3  0  0  0  0  0  0
  -29.0010  -20.3840   20.6080 C   0  0  0  0  0  3  0  0  0  0  0  0
  -29.4850  -21.7080   20.4490 C   0  0  0  0  0  0  0  0  0  0  0  0
  -31.2580  -20.7560   19.0870 C   0  0  0  0  0  0  0  0  0  0  0  0
  -29.6960  -19.3030   20.0070 C   0  0  0  0  0  0  0  0  0  0  0  0
  -32.4760  -20.9210   18.2050 C   0  0  0  0  0  1  0  0  0  0  0  0
  -30.8020  -19.5000   19.2560 N   0  0  0  0  0  0  0  0  0  0  0  0
  -28.9440  -17.2260   18.7590 C   0  0  0  0  0  1  0  0  0  0  0  0
  -29.2330  -17.8390   20.1450 C   0  0  0  0  0  3  0  0  0  0  0  0
  -30.2040  -16.9690   21.0030 C   0  0  0  0  0  2  0  0  0  0  0  0
  -30.6140  -14.5290   20.5090 C   0  0  0  0  0  0  0  0  0  0  0  0
  -30.3390  -12.4020   19.3040 C   0  0  0  0  0  2  0  0  0  0  0  0
  -29.3880  -12.6530   18.1140 C   0  0  0  0  0  2  0  0  0  0  0  0
  -27.9160  -12.4890   18.5450 C   0  0  0  0  0  2  0  0  0  0  0  0
  -27.5840  -13.2700   19.8440 C   0  0  0  0  0  3  0  0  0  0  0  0
  -28.6480  -13.0120   20.9360 C   0  0  0  0  0  2  0  0  0  0  0  0
  -29.9650  -13.3430   20.3680 N   0  0  0  0  0  0  0  0  0  0  0  0
  -31.7430  -14.7330   20.0530 O   0  0  0  0  0  0  0  0  0  0  0  0
  -29.8720  -15.5280   21.0200 N   0  0  0  0  0  0  0  0  0  0  0  0
  -28.9610  -15.2750   21.3710 H   0  0  0  0  0  0  0  0  0  0  0  0
  -25.1780  -13.8420   20.5520 C   0  0  0  0  0  0  0  0  0  0  0  0
  -24.1220  -13.0530   20.9230 C   0  0  0  0  0  0  0  0  0  0  0  0
  -24.6040  -11.7090   20.8910 C   0  0  0  0  0  0  0  0  0  0  0  0
  -26.2370  -12.9770   20.3220 N   0  0  0  0  0  0  0  0  0  0  0  0
  -25.8940  -11.6900   20.5810 N   0  0  0  0  0  0  0  0  0  0  0  0
  -23.8980  -10.4360   21.0790 C   0  0  0  0  0  0  0  0  0  0  0  0
  -24.3500   -9.4740   22.0080 C   0  0  0  0  0  3  0  0  0  0  0  0
  -23.6440   -8.2650   22.1840 C   0  0  0  0  0  3  0  0  0  0  0  0
  -22.4730   -8.0090   21.4330 C   0  0  0  0  0  0  0  0  0  0  0  0
  -22.0430   -8.9590   20.4910 C   0  0  0  0  0  3  0  0  0  0  0  0
  -22.7490  -10.1610   20.3120 C   0  0  0  0  0  3  0  0  0  0  0  0
  -21.7350   -6.8520   21.5190 O   0  0  0  0  0  0  0  0  0  0  0  0
  -21.7040   -6.1030   22.6680 C   0  0  0  0  0  0  0  0  0  0  0  0
  -21.2690   -6.6430   23.8980 C   0  0  0  0  0  3  0  0  0  0  0  0
  -21.1870   -5.8190   25.0380 C   0  0  0  0  0  3  0  0  0  0  0  0
  -21.5310   -4.4560   24.9480 C   0  0  0  0  0  0  0  0  0  0  0  0
  -21.9600   -3.9170   23.7230 C   0  0  0  0  0  3  0  0  0  0  0  0
  -22.0440   -4.7390   22.5860 C   0  0  0  0  0  0  0  0  0  0  0  0
  -22.4370   -4.2090   21.4020 F   0  0  0  0  0  0  0  0  0  0  0  0
  -21.4460   -3.6620   26.0410 F   0  0  0  0  0  0  0  0  0  0  0  0
  -22.7180  -13.5080   21.1970 C   0  0  0  0  0  0  0  0  0  0  0  0
  -22.0020  -12.7960   22.0610 N   0  0  0  0  0  0  0  0  0  0  0  0
  -22.2650  -14.5280   20.6800 O   0  0  0  0  0  0  0  0  0  0  0  0
  -22.3800  -11.9690   22.5000 H   0  0  0  0  0  0  0  0  0  0  0  0
  -21.0590  -13.0810   22.2850 H   0  0  0  0  0  0  0  0  0  0  0  0
  -25.3220  -15.2140   20.3720 N   0  0  0  0  0  0  0  0  0  0  0  0
  -24.5400  -15.8520   20.4650 H   0  0  0  0  0  0  0  0  0  0  0  0
  -26.1550  -15.6620   20.0160 H   0  0  0  0  0  0  0  0  0  0  0  0
  -28.8080  -22.9150   21.1210 C   0  0  0  0  0  2  0  0  0  0  0  0
  -28.8110  -24.2360   20.2970 C   0  0  0  0  0  2  0  0  0  0  0  0
  -28.2070  -25.4560   21.0330 C   0  0  0  0  0  2  0  0  0  0  0  0
  -28.4130  -26.6940   20.3120 O   0  0  0  0  0  0  0  0  0  0  0  0
  -24.6320  -31.9440   23.2630 C   0  0  0  0  0  0  0  0  0  0  0  0
  -27.2900  -27.4870   20.2400 C   0  0  0  0  0  0  0  0  0  0  0  0
  -23.4440  -30.5350   21.6150 C   0  0  0  0  0  3  0  0  0  0  0  0
  -24.9140  -29.0110   20.1930 C   0  0  0  0  0  0  0  0  0  0  0  0
  -25.9710  -30.8990   21.4400 C   0  0  0  0  0  2  0  0  0  0  0  0
  -26.0640  -29.5300   20.7980 C   0  0  0  0  0  0  0  0  0  0  0  0
  -27.2630  -28.7760   20.8170 C   0  0  0  0  0  3  0  0  0  0  0  0
  -26.1320  -26.9900   19.6100 C   0  0  0  0  0  3  0  0  0  0  0  0
  -24.9440  -27.7440   19.5860 C   0  0  0  0  0  3  0  0  0  0  0  0
  -23.6660  -29.8650   20.2330 C   0  0  0  0  0  2  0  0  0  0  0  0
  -24.7010  -31.1390   22.1660 N   0  0  0  0  0  0  0  0  0  0  0  0
  -23.5460  -32.2130   23.7930 O   0  0  0  0  0  0  0  0  0  0  0  0
  -22.7930  -29.5090   22.5700 C   0  0  0  0  0  0  0  0  0  0  0  0
  -21.4730  -29.3060   22.4210 N   0  0  0  0  0  0  0  0  0  0  0  0
  -23.4720  -28.8980   23.4010 O   0  0  0  0  0  0  0  0  0  0  0  0
  -20.9840  -29.8530   21.7250 H   0  0  0  0  0  0  0  0  0  0  0  0
  -18.1100  -28.0690   22.8620 C   0  0  0  0  0  0  0  0  0  0  0  0
  -20.6560  -28.3630   23.1840 C   0  0  0  0  0  3  0  0  0  0  0  0
  -20.7930  -26.9290   22.6240 C   0  0  0  0  0  2  0  0  0  0  0  0
  -19.7170  -26.5810   21.5900 C   0  0  0  0  0  2  0  0  0  0  0  0
  -18.3200  -26.7140   22.2030 C   0  0  0  0  0  2  0  0  0  0  0  0
  -19.2070  -28.8500   23.3080 C   0  0  0  0  0  0  0  0  0  0  0  0
  -18.9600  -30.1160   23.8810 C   0  0  0  0  0  3  0  0  0  0  0  0
  -17.6460  -30.6030   24.0100 C   0  0  0  0  0  3  0  0  0  0  0  0
  -16.5610  -29.8190   23.5830 C   0  0  0  0  0  3  0  0  0  0  0  0
  -16.7930  -28.5530   23.0150 C   0  0  0  0  0  3  0  0  0  0  0  0
  -25.9120  -32.5830   23.8880 C   0  0  0  0  0  3  0  0  0  0  0  0
  -25.6000  -33.9840   24.1970 N   0  0  0  0  0  0  0  0  0  0  0  0
  -25.9420  -35.0260   23.4310 C   0  0  0  0  0  0  0  0  0  0  0  0
  -26.6280  -34.9100   22.4100 O   0  0  0  0  0  0  0  0  0  0  0  0
  -24.9980  -34.1480   24.9910 H   0  0  0  0  0  0  0  0  0  0  0  0
  -24.2260  -36.8160   23.0200 C   0  0  0  0  0  1  0  0  0  0  0  0
  -25.4480  -36.4190   23.8630 C   0  0  0  0  0  3  0  0  0  0  0  0
  -27.5650  -37.3110   24.7310 C   0  0  0  0  0  1  0  0  0  0  0  0
  -26.4850  -37.4690   23.7610 N   0  0  0  0  0  0  0  0  0  0  0  0
  -26.0770  -38.3910   23.8900 H   0  0  0  0  0  0  0  0  0  0  0  0
  -26.4150  -31.8260   25.1780 C   0  0  1  0  0  0  0  0  0  0  0  0
  -25.3090  -31.6010   26.2350 C   0  0  0  0  0  1  0  0  0  0  0  0
  -27.0030  -30.4460   24.8050 C   0  0  0  0  0  1  0  0  0  0  0  0
  -27.5570  -32.6270   25.8450 C   0  0  0  0  0  1  0  0  0  0  0  0
  1  3  1  0
  3  2  2  0
  3 49  1  0
  4  7  1  0
  4  1  2  0
  5  9  1  0
  5  2  1  0
  6  4  1  0
  7  5  2  0
  9  8  1  0
  9 10  1  0
 10 19  1  0
 11 19  1  0
 12 17  1  0
 13 14  1  0
 13 12  1  0
 15 14  1  0
 15 24  1  0
 15 16  1  0
 17 11  1  0
 17 16  1  0
 18 11  2  0
 19 20  1  0
 21 22  2  0
 22 41  1  0
 23 22  1  0
 23 26  1  0
 24 21  1  0
 24 25  1  0
 25 23  2  0
 26 27  1  0
 27 28  2  0
 29 32  1  0
 29 28  1  0
 30 29  2  0
 31 30  1  0
 31 26  2  0
 32 33  1  0
 33 34  1  0
 34 35  2  0
 36 35  1  0
 36 40  1  0
 37 36  2  0
 38 33  2  0
 38 37  1  0
 39 38  1  0
 41 42  1  0
 42 45  1  0
 42 44  1  0
 43 41  2  0
 46 47  1  0
 46 21  1  0
 48 46  1  0
 50 51  1  0
 50 49  1  0
 52 51  1  0
 53 64  2  0
 54 52  1  0
 54 59  1  0
 55 63  1  0
 55 65  1  0
 56 62  1  0
 56 58  1  0
 57 63  1  0
 58 59  2  0
 58 57  1  0
 60 54  2  0
 61 60  1  0
 61 56  2  0
 62 55  1  0
 63 53  1  0
 65 67  2  0
 66 65  1  0
 68 66  1  0
 69 78  2  0
 69 74  1  0
 70 66  1  0
 70 74  1  0
 71 70  1  0
 72 73  1  0
 72 71  1  0
 73 69  1  0
 74 75  2  0
 75 76  1  0
 77 76  2  0
 78 77  1  0
 79 53  1  0
 79 80  1  0
 79 89  1  0
 80 83  1  0
 81 85  1  0
 81 80  1  0
 82 81  2  0
 85 84  1  0
 87 85  1  0
 87 88  1  0
 87 86  1  0
 89 92  1  1
 89 90  1  0
 91 89  1  0
M  ISO  4  11 100  19 100  51 101  52 101
M  END
>  <TORSDO>  (14) 
F 21

>  <SCORE>  (14) 
-13.691

>  <name>  (14) 
13

>  <ligand_id>  (14) 
13

>  <original_smiles>  (14) 
[H]c1c([H])c([H])c2c(c1[H])C([H])([H])C([H])([H])C([H])([H])C2([H])N([H])C(=O)C1([H])N(C(=O)C([H])(N([H])C(=O)C([H])(N([H])C([H])([H])[H])C([H])([H])[H])C(C([H])([H])[H])(C([H])([H])[H])C([H])([H])[H])C([H])([H])c2c([H])c(OC([H])([H])C([H])([H])C([H])([H])c3c([H])c(C([H])([H])[H])nc(C([H])(C([H])([H])[H])C([H])([H])N([H])C(=O)N4C([H])([H])C([H])([H])C([H])([H])C([H])(n5nc(-c6c([H])c([H])c(Oc7c([H])c([H])c(F)c([H])c7F)c([H])c6[H])c(C(=O)N([H])[H])c5N([H])[H])C4([H])[H])c3[H])c([H])c([H])c2C1([H])[H]

>  <smiles>  (14) 
[H]c1c([H])c([H])c2c(c1[H])C([H])([H])C([H])([H])C([H])([H])C2([H])N([H])C(=O)C1([H])N(C(=O)C([H])(N([H])C(=O)C([H])(N([H])C([H])([H])[H])C([H])([H])[H])C(C([H])([H])[H])(C([H])([H])[H])C([H])([H])[H])C([H])([H])c2c([H])c(OC([H])([H])C([H])([H])C([H])([H])c3c([H])c(C([H])([H])[H])nc(C([H])(C([H])([H])[H])C([H])([H])N([H])C(=O)N4C([H])([H])C([H])([H])C([H])([H])C([H])(n5nc(-c6c([H])c([H])c(Oc7c([H])c([H])c(F)c([H])c7F)c([H])c6[H])c(C(=O)N([H])[H])c5N([H])[H])C4([H])[H])c3[H])c([H])c([H])c2C1([H])[H]

$$$$
14:0:0
     RDKit          3D

 93101  0  0  1  0  0  0  0  0999 V2000
  -27.8280  -21.1930   19.7750 C   0  0  0  0  0  3  0  0  0  0  0  0
  -28.9170  -21.5960   20.5740 C   0  0  0  0  0  0  0  0  0  0  0  0
  -29.8040  -20.4430   20.9060 C   0  0  0  0  0  0  0  0  0  0  0  0
  -27.6520  -19.8410   19.3670 C   0  0  0  0  0  0  0  0  0  0  0  0
  -29.5840  -19.0370   20.4390 C   0  0  0  0  0  0  0  0  0  0  0  0
  -28.4960  -18.8190   19.6740 N   0  0  0  0  0  0  0  0  0  0  0  0
  -30.6440  -20.7000   23.2830 C   0  0  0  0  0  1  0  0  0  0  0  0
  -31.0070  -20.7300   21.7940 C   0  0  0  0  0  2  0  0  0  0  0  0
  -25.8870  -20.4720   17.5680 C   0  0  0  0  0  1  0  0  0  0  0  0
  -26.4550  -19.4110   18.5240 C   0  0  0  0  0  2  0  0  0  0  0  0
  -31.3830  -17.6680   19.2490 C   0  0  0  0  0  1  0  0  0  0  0  0
  -30.5910  -17.7200   20.5720 C   0  0  0  0  0  3  0  0  0  0  0  0
  -30.8850  -14.9890   20.6850 C   0  0  0  0  0  0  0  0  0  0  0  0
  -30.7210  -12.7020   19.6040 C   0  0  0  0  0  2  0  0  0  0  0  0
  -29.8360  -12.7600   18.3380 C   0  0  0  0  0  2  0  0  0  0  0  0
  -28.3540  -12.5610   18.7060 C   0  0  0  0  0  2  0  0  0  0  0  0
  -27.9280  -13.4180   19.9270 C   0  0  0  0  0  3  0  0  0  0  0  0
  -28.9440  -13.3420   21.0870 C   0  0  0  0  0  2  0  0  0  0  0  0
  -30.2430  -13.7580   20.5460 N   0  0  0  0  0  0  0  0  0  0  0  0
  -32.0970  -15.0050   20.4500 O   0  0  0  0  0  0  0  0  0  0  0  0
  -30.1670  -16.2150   20.8510 N   0  0  0  0  0  0  0  0  0  0  0  0
  -29.1860  -16.1130   21.0630 H   0  0  0  0  0  0  0  0  0  0  0  0
  -25.5110  -13.9940   20.5300 C   0  0  0  0  0  0  0  0  0  0  0  0
  -24.4340  -13.2200   20.8610 C   0  0  0  0  0  0  0  0  0  0  0  0
  -24.9070  -11.8710   20.8860 C   0  0  0  0  0  0  0  0  0  0  0  0
  -26.5700  -13.1180   20.3630 N   0  0  0  0  0  0  0  0  0  0  0  0
  -26.2130  -11.8380   20.6450 N   0  0  0  0  0  0  0  0  0  0  0  0
  -24.1780  -10.6090   21.0650 C   0  0  0  0  0  0  0  0  0  0  0  0
  -24.5640   -9.6620   22.0390 C   0  0  0  0  0  3  0  0  0  0  0  0
  -23.8340   -8.4660   22.2050 C   0  0  0  0  0  3  0  0  0  0  0  0
  -22.7020   -8.2070   21.3950 C   0  0  0  0  0  0  0  0  0  0  0  0
  -22.3350   -9.1420   20.4100 C   0  0  0  0  0  3  0  0  0  0  0  0
  -23.0680  -10.3300   20.2430 C   0  0  0  0  0  3  0  0  0  0  0  0
  -21.9470   -7.0620   21.4680 O   0  0  0  0  0  0  0  0  0  0  0  0
  -21.8220   -6.3550   22.6380 C   0  0  0  0  0  0  0  0  0  0  0  0
  -21.2930   -6.9400   23.8090 C   0  0  0  0  0  3  0  0  0  0  0  0
  -21.1170   -6.1590   24.9680 C   0  0  0  0  0  3  0  0  0  0  0  0
  -21.4580   -4.7940   24.9560 C   0  0  0  0  0  0  0  0  0  0  0  0
  -21.9800   -4.2070   23.7880 C   0  0  0  0  0  3  0  0  0  0  0  0
  -22.1570   -4.9860   22.6320 C   0  0  0  0  0  0  0  0  0  0  0  0
  -22.6390   -4.4120   21.5030 F   0  0  0  0  0  0  0  0  0  0  0  0
  -21.2830   -4.0400   26.0660 F   0  0  0  0  0  0  0  0  0  0  0  0
  -23.0220  -13.6930   21.0440 C   0  0  0  0  0  0  0  0  0  0  0  0
  -22.2600  -13.0340   21.9090 N   0  0  0  0  0  0  0  0  0  0  0  0
  -22.6000  -14.6850   20.4520 O   0  0  0  0  0  0  0  0  0  0  0  0
  -22.6140  -12.2320   22.4120 H   0  0  0  0  0  0  0  0  0  0  0  0
  -21.3090  -13.3340   22.0720 H   0  0  0  0  0  0  0  0  0  0  0  0
  -25.6730  -15.3620   20.3310 N   0  0  0  0  0  0  0  0  0  0  0  0
  -24.8910  -16.0050   20.3830 H   0  0  0  0  0  0  0  0  0  0  0  0
  -26.5280  -15.8040   20.0180 H   0  0  0  0  0  0  0  0  0  0  0  0
  -29.0290  -23.1900   21.0590 C   0  0  0  0  0  3  0  0  0  0  0  0
  -28.0810  -24.5150   20.5720 C   0  0  0  0  0  3  0  0  0  0  0  0
  -28.3340  -26.0490   20.8120 O   0  0  0  0  0  0  0  0  0  0  0  0
  -24.7050  -31.9960   23.2990 C   0  0  0  0  0  0  0  0  0  0  0  0
  -27.2960  -27.0470   20.6590 C   0  0  0  0  0  0  0  0  0  0  0  0
  -23.5340  -30.5100   21.7220 C   0  0  0  0  0  3  0  0  0  0  0  0
  -24.9980  -28.8290   20.4430 C   0  0  0  0  0  0  0  0  0  0  0  0
  -26.0960  -30.7290   21.6160 C   0  0  0  0  0  2  0  0  0  0  0  0
  -26.1680  -29.2950   21.0570 C   0  0  0  0  0  0  0  0  0  0  0  0
  -27.3190  -28.4210   21.1430 C   0  0  0  0  0  3  0  0  0  0  0  0
  -26.1000  -26.6850   20.0030 C   0  0  0  0  0  3  0  0  0  0  0  0
  -24.9790  -27.5370   19.8980 C   0  0  0  0  0  3  0  0  0  0  0  0
  -23.7830  -29.7430   20.3960 C   0  0  0  0  0  2  0  0  0  0  0  0
  -24.7970  -31.1040   22.2660 N   0  0  0  0  0  0  0  0  0  0  0  0
  -23.6080  -32.3280   23.7750 O   0  0  0  0  0  0  0  0  0  0  0  0
  -22.8130  -29.5750   22.7270 C   0  0  0  0  0  0  0  0  0  0  0  0
  -21.4960  -29.3740   22.5430 N   0  0  0  0  0  0  0  0  0  0  0  0
  -23.4450  -29.0320   23.6370 O   0  0  0  0  0  0  0  0  0  0  0  0
  -21.0450  -29.8610   21.7810 H   0  0  0  0  0  0  0  0  0  0  0  0
  -18.1000  -28.1900   22.9770 C   0  0  0  0  0  0  0  0  0  0  0  0
  -20.6430  -28.4930   23.3440 C   0  0  0  0  0  3  0  0  0  0  0  0
  -20.7780  -27.0210   22.8860 C   0  0  0  0  0  2  0  0  0  0  0  0
  -19.7260  -26.6140   21.8490 C   0  0  0  0  0  2  0  0  0  0  0  0
  -18.3150  -26.7950   22.4140 C   0  0  0  0  0  2  0  0  0  0  0  0
  -19.1940  -28.9930   23.3980 C   0  0  0  0  0  0  0  0  0  0  0  0
  -18.9390  -30.2950   23.8820 C   0  0  0  0  0  3  0  0  0  0  0  0
  -17.6250  -30.7940   23.9520 C   0  0  0  0  0  3  0  0  0  0  0  0
  -16.5450  -29.9900   23.5470 C   0  0  0  0  0  3  0  0  0  0  0  0
  -16.7840  -28.6900   23.0650 C   0  0  0  0  0  3  0  0  0  0  0  0
  -25.9720  -32.6570   23.9220 C   0  0  0  0  0  3  0  0  0  0  0  0
  -25.6400  -34.0560   24.2350 N   0  0  0  0  0  0  0  0  0  0  0  0
  -25.9560  -35.1070   23.4670 C   0  0  0  0  0  0  0  0  0  0  0  0
  -26.6240  -35.0020   22.4340 O   0  0  0  0  0  0  0  0  0  0  0  0
  -25.0450  -34.2100   25.0370 H   0  0  0  0  0  0  0  0  0  0  0  0
  -24.1990  -36.8730   23.1080 C   0  0  0  0  0  1  0  0  0  0  0  0
  -25.4530  -36.4940   23.9130 C   0  0  0  0  0  3  0  0  0  0  0  0
  -27.5790  -37.4240   24.7180 C   0  0  0  0  0  1  0  0  0  0  0  0
  -26.4690  -37.5610   23.7790 N   0  0  0  0  0  0  0  0  0  0  0  0
  -26.0500  -38.4770   23.9150 H   0  0  0  0  0  0  0  0  0  0  0  0
  -26.4860  -31.9140   25.2170 C   0  0  1  0  0  0  0  0  0  0  0  0
  -25.3720  -31.6190   26.2490 C   0  0  0  0  0  1  0  0  0  0  0  0
  -27.1540  -30.5690   24.8510 C   0  0  0  0  0  1  0  0  0  0  0  0
  -27.5710  -32.7670   25.9140 C   0  0  0  0  0  1  0  0  0  0  0  0
  1  2  1  0
  2  3  2  0
  2 51  1  0
  3  8  1  0
  4  6  1  0
  4  1  2  0
  5 12  1  0
  5  3  1  0
  6  5  2  0
  8  7  1  0
  9 10  1  0
 10  4  1  0
 12 11  1  0
 12 21  1  0
 13 21  1  0
 14 19  1  0
 15 16  1  0
 15 14  1  0
 17 16  1  0
 17 26  1  0
 17 18  1  0
 19 13  1  0
 19 18  1  0
 20 13  2  0
 21 22  1  0
 23 24  2  0
 24 25  1  0
 24 43  1  0
 25 28  1  0
 26 23  1  0
 26 27  1  0
 27 25  2  0
 28 29  1  0
 29 30  2  0
 31 34  1  0
 31 30  1  0
 32 31  2  0
 33 32  1  0
 33 28  2  0
 34 35  1  0
 35 36  1  0
 36 37  2  0
 38 37  1  0
 38 42  1  0
 39 38  2  0
 40 35  2  0
 40 39  1  0
 41 40  1  0
 43 44  1  0
 44 47  1  0
 44 46  1  0
 45 43  2  0
 48 49  1  0
 48 23  1  0
 50 48  1  0
 52 53  1  0
 52 51  2  0
 54 65  2  0
 55 53  1  0
 55 60  1  0
 56 64  1  0
 56 66  1  0
 57 59  1  0
 58 64  1  0
 59 60  2  0
 59 58  1  0
 61 55  2  0
 62 61  1  0
 62 57  2  0
 63 57  1  0
 63 56  1  0
 64 54  1  0
 66 68  2  0
 67 66  1  0
 69 67  1  0
 70 79  2  0
 70 75  1  0
 71 67  1  0
 71 75  1  0
 72 71  1  0
 73 74  1  0
 73 72  1  0
 74 70  1  0
 75 76  2  0
 76 77  1  0
 78 77  2  0
 79 78  1  0
 80 54  1  0
 80 81  1  0
 80 90  1  0
 81 84  1  0
 82 86  1  0
 82 81  1  0
 83 82  2  0
 86 85  1  0
 88 86  1  0
 88 89  1  0
 88 87  1  0
 90 93  1  1
 90 91  1  0
 92 90  1  0
M  ISO  4  13 100  21 100  52 101  53 101
M  END
>  <TORSDO>  (15) 
F 21

>  <SCORE>  (15) 
-14.076

>  <name>  (15) 
14

>  <ligand_id>  (15) 
14

>  <original_smiles>  (15) 
[H]c1c([H])c([H])c2c(c1[H])C([H])([H])C([H])([H])C([H])([H])C2([H])N([H])C(=O)C1([H])N(C(=O)C([H])(N([H])C(=O)C([H])(N([H])C([H])([H])[H])C([H])([H])[H])C(C([H])([H])[H])(C([H])([H])[H])C([H])([H])[H])C([H])([H])c2c([H])c(OC([H])([H])C([H])([H])c3c([H])c(C([H])([H])C([H])([H])[H])nc(C([H])(N([H])C(=O)N4C([H])([H])C([H])([H])C([H])([H])C([H])(n5nc(-c6c([H])c([H])c(Oc7c([H])c([H])c(F)c([H])c7F)c([H])c6[H])c(C(=O)N([H])[H])c5N([H])[H])C4([H])[H])C([H])([H])[H])c3C([H])([H])C([H])([H])[H])c([H])c([H])c2C1([H])[H]

>  <smiles>  (15) 
[H]c1c([H])c([H])c2c(c1[H])C([H])([H])C([H])([H])C([H])([H])C2([H])N([H])C(=O)C1([H])N(C(=O)C([H])(N([H])C(=O)C([H])(N([H])C([H])([H])[H])C([H])([H])[H])C(C([H])([H])[H])(C([H])([H])[H])C([H])([H])[H])C([H])([H])c2c([H])c(OC([H])([H])C([H])([H])c3c([H])c(C([H])([H])C([H])([H])[H])nc(C([H])(N([H])C(=O)N4C([H])([H])C([H])([H])C([H])([H])C([H])(n5nc(-c6c([H])c([H])c(Oc7c([H])c([H])c(F)c([H])c7F)c([H])c6[H])c(C(=O)N([H])[H])c5N([H])[H])C4([H])[H])C([H])([H])[H])c3C([H])([H])C([H])([H])[H])c([H])c([H])c2C1([H])[H]

$$$$
15:0:0
     RDKit          3D

 94102  0  0  1  0  0  0  0  0999 V2000
  -30.7380  -23.3940   19.3690 C   0  0  0  0  0  3  0  0  0  0  0  0
  -29.7100  -22.6400   19.9760 C   0  0  0  0  0  0  0  0  0  0  0  0
  -31.7810  -22.7490   18.6760 C   0  0  0  0  0  0  0  0  0  0  0  0
  -29.8600  -21.1730   19.8820 C   0  0  0  0  0  0  0  0  0  0  0  0
  -31.7920  -21.4020   18.5430 N   0  0  0  0  0  0  0  0  0  0  0  0
  -30.8690  -20.6470   19.1430 N   0  0  0  0  0  0  0  0  0  0  0  0
  -34.2380  -22.7780   18.0080 C   0  0  0  0  0  1  0  0  0  0  0  0
  -33.1370  -24.9200   18.5810 C   0  0  0  0  0  1  0  0  0  0  0  0
  -32.4970  -23.7230   16.4670 C   0  0  0  0  0  1  0  0  0  0  0  0
  -32.8910  -23.5330   17.9430 C   0  0  2  0  0  0  0  0  0  0  0  0
  -28.6160  -23.5380   20.6720 C   0  0  0  0  0  2  0  0  0  0  0  0
  -27.9970  -24.8540   19.9310 C   0  0  0  0  0  2  0  0  0  0  0  0
  -28.2630  -26.3140   20.2310 O   0  0  0  0  0  0  0  0  0  0  0  0
  -24.6270  -31.8580   23.2300 C   0  0  0  0  0  0  0  0  0  0  0  0
  -27.1890  -27.2430   20.1470 C   0  0  0  0  0  0  0  0  0  0  0  0
  -23.4110  -30.4680   21.5960 C   0  0  0  0  0  3  0  0  0  0  0  0
  -24.8480  -28.9220   20.1500 C   0  0  0  0  0  0  0  0  0  0  0  0
  -25.9550  -30.7580   21.4100 C   0  0  0  0  0  2  0  0  0  0  0  0
  -26.0260  -29.3790   20.7550 C   0  0  0  0  0  0  0  0  0  0  0  0
  -27.1950  -28.5480   20.7530 C   0  0  0  0  0  3  0  0  0  0  0  0
  -25.9950  -26.8850   19.4730 C   0  0  0  0  0  3  0  0  0  0  0  0
  -24.8400  -27.6840   19.4970 C   0  0  0  0  0  3  0  0  0  0  0  0
  -23.6170  -29.8030   20.2110 C   0  0  0  0  0  2  0  0  0  0  0  0
  -24.6830  -31.0460   22.1350 N   0  0  0  0  0  0  0  0  0  0  0  0
  -23.5470  -32.1400   23.7690 O   0  0  0  0  0  0  0  0  0  0  0  0
  -22.7490  -29.4500   22.5560 C   0  0  0  0  0  0  0  0  0  0  0  0
  -21.4210  -29.2770   22.4380 N   0  0  0  0  0  0  0  0  0  0  0  0
  -23.4290  -28.8170   23.3680 O   0  0  0  0  0  0  0  0  0  0  0  0
  -20.9290  -29.8390   21.7570 H   0  0  0  0  0  0  0  0  0  0  0  0
  -18.0430  -28.0840   22.9560 C   0  0  0  0  0  0  0  0  0  0  0  0
  -20.6040  -28.3400   23.2130 C   0  0  0  0  0  3  0  0  0  0  0  0
  -20.7010  -26.9090   22.6360 C   0  0  0  0  0  2  0  0  0  0  0  0
  -19.5950  -26.5880   21.6270 C   0  0  0  0  0  2  0  0  0  0  0  0
  -18.2160  -26.7340   22.2780 C   0  0  0  0  0  2  0  0  0  0  0  0
  -19.1640  -28.8440   23.3790 C   0  0  0  0  0  0  0  0  0  0  0  0
  -18.9500  -30.1060   23.9740 C   0  0  0  0  0  3  0  0  0  0  0  0
  -17.6470  -30.6090   24.1500 C   0  0  0  0  0  3  0  0  0  0  0  0
  -16.5400  -29.8450   23.7410 C   0  0  0  0  0  3  0  0  0  0  0  0
  -16.7380  -28.5840   23.1510 C   0  0  0  0  0  3  0  0  0  0  0  0
  -25.9130  -32.4900   23.8460 C   0  0  0  0  0  3  0  0  0  0  0  0
  -25.6080  -33.8890   24.1810 N   0  0  0  0  0  0  0  0  0  0  0  0
  -25.9330  -34.9430   23.4230 C   0  0  0  0  0  0  0  0  0  0  0  0
  -26.5920  -34.8420   22.3840 O   0  0  0  0  0  0  0  0  0  0  0  0
  -25.0250  -34.0410   24.9920 H   0  0  0  0  0  0  0  0  0  0  0  0
  -24.2030  -36.7390   23.0920 C   0  0  0  0  0  1  0  0  0  0  0  0
  -25.4530  -36.3320   23.8890 C   0  0  0  0  0  3  0  0  0  0  0  0
  -27.5970  -37.2110   24.6990 C   0  0  0  0  0  1  0  0  0  0  0  0
  -26.4850  -37.3840   23.7690 N   0  0  0  0  0  0  0  0  0  0  0  0
  -26.0820  -38.3040   23.9230 H   0  0  0  0  0  0  0  0  0  0  0  0
  -26.4330  -31.7160   25.1180 C   0  0  1  0  0  0  0  0  0  0  0  0
  -25.3440  -31.4830   26.1920 C   0  0  0  0  0  1  0  0  0  0  0  0
  -27.0110  -30.3360   24.7270 C   0  0  0  0  0  1  0  0  0  0  0  0
  -27.5920  -32.5050   25.7730 C   0  0  0  0  0  1  0  0  0  0  0  0
  -28.9270  -20.0020   20.3770 C   0  0  0  0  0  2  0  0  0  0  0  0
  -29.4940  -18.5780   20.9560 C   0  0  0  0  0  2  0  0  0  0  0  0
  -29.9250  -17.3090   20.0420 C   0  0  0  0  0  2  0  0  0  0  0  0
  -30.5600  -14.7500   20.3150 C   0  0  0  0  0  0  0  0  0  0  0  0
  -30.3730  -12.4670   19.3220 C   0  0  0  0  0  2  0  0  0  0  0  0
  -29.4280  -12.5390   18.0990 C   0  0  0  0  0  2  0  0  0  0  0  0
  -27.9580  -12.3660   18.5310 C   0  0  0  0  0  2  0  0  0  0  0  0
  -27.5920  -13.2480   19.7550 C   0  0  0  0  0  3  0  0  0  0  0  0
  -28.6530  -13.1580   20.8740 C   0  0  0  0  0  2  0  0  0  0  0  0
  -29.9480  -13.5160   20.2790 N   0  0  0  0  0  0  0  0  0  0  0  0
  -31.7250  -14.8700   19.9290 O   0  0  0  0  0  0  0  0  0  0  0  0
  -29.7740  -15.8690   20.5600 N   0  0  0  0  0  0  0  0  0  0  0  0
  -28.8570  -15.6460   20.9200 H   0  0  0  0  0  0  0  0  0  0  0  0
  -25.2030  -13.8380   20.4780 C   0  0  0  0  0  0  0  0  0  0  0  0
  -24.1400  -13.0650   20.8550 C   0  0  0  0  0  0  0  0  0  0  0  0
  -24.6060  -11.7140   20.8320 C   0  0  0  0  0  0  0  0  0  0  0  0
  -26.2480  -12.9600   20.2470 N   0  0  0  0  0  0  0  0  0  0  0  0
  -25.8960  -11.6760   20.5190 N   0  0  0  0  0  0  0  0  0  0  0  0
  -23.8810  -10.4510   21.0300 C   0  0  0  0  0  0  0  0  0  0  0  0
  -24.3240   -9.4830   21.9570 C   0  0  0  0  0  3  0  0  0  0  0  0
  -23.6000   -8.2850   22.1440 C   0  0  0  0  0  3  0  0  0  0  0  0
  -22.4190   -8.0480   21.3990 C   0  0  0  0  0  0  0  0  0  0  0  0
  -21.9950   -9.0050   20.4600 C   0  0  0  0  0  3  0  0  0  0  0  0
  -22.7200  -10.1930   20.2740 C   0  0  0  0  0  3  0  0  0  0  0  0
  -21.6640   -6.9050   21.4950 O   0  0  0  0  0  0  0  0  0  0  0  0
  -21.6380   -6.1540   22.6420 C   0  0  0  0  0  0  0  0  0  0  0  0
  -21.2430   -6.7020   23.8820 C   0  0  0  0  0  3  0  0  0  0  0  0
  -21.1630   -5.8770   25.0220 C   0  0  0  0  0  3  0  0  0  0  0  0
  -21.4680   -4.5060   24.9240 C   0  0  0  0  0  0  0  0  0  0  0  0
  -21.8550   -3.9580   23.6870 C   0  0  0  0  0  3  0  0  0  0  0  0
  -21.9360   -4.7790   22.5500 C   0  0  0  0  0  0  0  0  0  0  0  0
  -22.2900   -4.2420   21.3570 F   0  0  0  0  0  0  0  0  0  0  0  0
  -21.3850   -3.7110   26.0160 F   0  0  0  0  0  0  0  0  0  0  0  0
  -22.7440  -13.5400   21.1300 C   0  0  0  0  0  0  0  0  0  0  0  0
  -22.0230  -12.8470   22.0030 N   0  0  0  0  0  0  0  0  0  0  0  0
  -22.3010  -14.5610   20.6050 O   0  0  0  0  0  0  0  0  0  0  0  0
  -22.3970  -12.0250   22.4510 H   0  0  0  0  0  0  0  0  0  0  0  0
  -21.0840  -13.1440   22.2290 H   0  0  0  0  0  0  0  0  0  0  0  0
  -25.3630  -15.2080   20.2910 N   0  0  0  0  0  0  0  0  0  0  0  0
  -24.5870  -15.8550   20.3920 H   0  0  0  0  0  0  0  0  0  0  0  0
  -26.2010  -15.6480   19.9320 H   0  0  0  0  0  0  0  0  0  0  0  0
  1  2  1  0
  2 11  1  0
  3  1  2  0
  4  2  2  0
  4 54  1  0
  5  3  1  0
  5  6  2  0
  6  4  1  0
 10  9  1  6
 10  7  1  0
 10  8  1  0
 10  3  1  0
 12 13  1  0
 12 11  1  0
 14 25  2  0
 15 13  1  0
 15 20  1  0
 16 24  1  0
 16 26  1  0
 17 23  1  0
 17 19  1  0
 18 24  1  0
 19 18  1  0
 20 19  2  0
 21 22  1  0
 21 15  2  0
 22 17  2  0
 23 16  1  0
 24 14  1  0
 26 28  2  0
 27 26  1  0
 29 27  1  0
 30 39  2  0
 30 35  1  0
 31 27  1  0
 31 35  1  0
 32 31  1  0
 33 34  1  0
 33 32  1  0
 34 30  1  0
 35 36  2  0
 36 37  1  0
 38 37  2  0
 39 38  1  0
 40 14  1  0
 40 41  1  0
 40 50  1  0
 41 44  1  0
 42 46  1  0
 42 41  1  0
 43 42  2  0
 46 45  1  0
 48 46  1  0
 48 49  1  0
 48 47  1  0
 50 53  1  1
 50 51  1  0
 52 50  1  0
 54 55  1  0
 56 65  1  0
 56 55  1  0
 57 65  1  0
 58 63  1  0
 59 60  1  0
 59 58  1  0
 61 60  1  0
 61 70  1  0
 61 62  1  0
 63 57  1  0
 63 62  1  0
 64 57  2  0
 65 66  1  0
 67 68  2  0
 68 87  1  0
 69 68  1  0
 69 72  1  0
 70 67  1  0
 70 71  1  0
 71 69  2  0
 72 73  1  0
 73 74  2  0
 75 78  1  0
 75 74  1  0
 76 75  2  0
 77 76  1  0
 77 72  2  0
 78 79  1  0
 79 80  1  0
 80 81  2  0
 82 81  1  0
 82 86  1  0
 83 82  2  0
 84 79  2  0
 84 83  1  0
 85 84  1  0
 87 88  1  0
 88 91  1  0
 88 90  1  0
 89 87  2  0
 92 93  1  0
 92 67  1  0
 94 92  1  0
M  ISO  4  12 101  13 101  57 100  65 100
M  END
>  <TORSDO>  (16) 
F 22

>  <SCORE>  (16) 
-12.924

>  <name>  (16) 
15

>  <ligand_id>  (16) 
15

>  <original_smiles>  (16) 
[H]c1c([H])c([H])c2c(c1[H])C([H])([H])C([H])([H])C([H])([H])C2([H])N([H])C(=O)C1([H])N(C(=O)C([H])(N([H])C(=O)C([H])(N([H])C([H])([H])[H])C([H])([H])[H])C(C([H])([H])[H])(C([H])([H])[H])C([H])([H])[H])C([H])([H])c2c([H])c(OC([H])([H])C([H])([H])c3c(C([H])([H])C([H])([H])C([H])([H])N([H])C(=O)N4C([H])([H])C([H])([H])C([H])([H])C([H])(n5nc(-c6c([H])c([H])c(Oc7c([H])c([H])c(F)c([H])c7F)c([H])c6[H])c(C(=O)N([H])[H])c5N([H])[H])C4([H])[H])nnc(C(C([H])([H])[H])(C([H])([H])[H])C([H])([H])[H])c3[H])c([H])c([H])c2C1([H])[H]

>  <smiles>  (16) 
[H]c1c([H])c([H])c2c(c1[H])C([H])([H])C([H])([H])C([H])([H])C2([H])N([H])C(=O)C1([H])N(C(=O)C([H])(N([H])C(=O)C([H])(N([H])C([H])([H])[H])C([H])([H])[H])C(C([H])([H])[H])(C([H])([H])[H])C([H])([H])[H])C([H])([H])c2c([H])c(OC([H])([H])C([H])([H])c3c(C([H])([H])C([H])([H])C([H])([H])N([H])C(=O)N4C([H])([H])C([H])([H])C([H])([H])C([H])(n5nc(-c6c([H])c([H])c(Oc7c([H])c([H])c(F)c([H])c7F)c([H])c6[H])c(C(=O)N([H])[H])c5N([H])[H])C4([H])[H])nnc(C(C([H])([H])[H])(C([H])([H])[H])C([H])([H])[H])c3[H])c([H])c([H])c2C1([H])[H]

$$$$
16:0:0
     RDKit          3D

 91 99  0  0  1  0  0  0  0  0999 V2000
  -31.8930  -19.8680   20.8130 C   0  0  0  0  0  3  0  0  0  0  0  0
  -31.4810  -22.0390   20.7600 C   0  0  0  0  0  3  0  0  0  0  0  0
  -32.4910  -21.1430   20.8940 C   0  0  0  0  0  0  0  0  0  0  0  0
  -30.5340  -19.9670   20.6370 C   0  0  0  0  0  0  0  0  0  0  0  0
  -33.9530  -21.4430   21.0860 C   0  0  0  0  0  1  0  0  0  0  0  0
  -30.2530  -21.3990   20.5840 N   0  0  0  0  0  0  0  0  0  0  0  0
  -28.8000  -18.6520   19.2720 C   0  0  0  0  0  1  0  0  0  0  0  0
  -29.6490  -18.6670   20.5470 C   0  0  0  0  0  3  0  0  0  0  0  0
  -30.4970  -17.2790   20.6640 C   0  0  0  0  0  2  0  0  0  0  0  0
  -30.6120  -14.7170   20.3980 C   0  0  0  0  0  0  0  0  0  0  0  0
  -30.3730  -12.4610   19.3690 C   0  0  0  0  0  2  0  0  0  0  0  0
  -29.4360  -12.5470   18.1460 C   0  0  0  0  0  2  0  0  0  0  0  0
  -27.9680  -12.3750   18.5810 C   0  0  0  0  0  2  0  0  0  0  0  0
  -27.5970  -13.2580   19.8030 C   0  0  0  0  0  3  0  0  0  0  0  0
  -28.6580  -13.1730   20.9200 C   0  0  0  0  0  2  0  0  0  0  0  0
  -29.9530  -13.5140   20.3190 N   0  0  0  0  0  0  0  0  0  0  0  0
  -31.8010  -14.7880   20.0760 O   0  0  0  0  0  0  0  0  0  0  0  0
  -29.8990  -15.8790   20.6360 N   0  0  0  0  0  0  0  0  0  0  0  0
  -28.9130  -15.7860   20.8310 H   0  0  0  0  0  0  0  0  0  0  0  0
  -25.2060  -13.8330   20.5320 C   0  0  0  0  0  0  0  0  0  0  0  0
  -24.1460  -13.0520   20.9050 C   0  0  0  0  0  0  0  0  0  0  0  0
  -24.6190  -11.7040   20.8780 C   0  0  0  0  0  0  0  0  0  0  0  0
  -26.2560  -12.9610   20.2970 N   0  0  0  0  0  0  0  0  0  0  0  0
  -25.9100  -11.6760   20.5690 N   0  0  0  0  0  0  0  0  0  0  0  0
  -23.9020  -10.4380   21.0700 C   0  0  0  0  0  0  0  0  0  0  0  0
  -24.3530   -9.4650   21.9900 C   0  0  0  0  0  3  0  0  0  0  0  0
  -23.6340   -8.2640   22.1710 C   0  0  0  0  0  3  0  0  0  0  0  0
  -22.4510   -8.0250   21.4330 C   0  0  0  0  0  0  0  0  0  0  0  0
  -22.0180   -8.9870   20.5030 C   0  0  0  0  0  3  0  0  0  0  0  0
  -22.7370  -10.1800   20.3190 C   0  0  0  0  0  3  0  0  0  0  0  0
  -21.7020   -6.8770   21.5260 O   0  0  0  0  0  0  0  0  0  0  0  0
  -21.6880   -6.1160   22.6680 C   0  0  0  0  0  0  0  0  0  0  0  0
  -21.3040   -6.6530   23.9150 C   0  0  0  0  0  3  0  0  0  0  0  0
  -21.2370   -5.8190   25.0490 C   0  0  0  0  0  3  0  0  0  0  0  0
  -21.5430   -4.4490   24.9360 C   0  0  0  0  0  0  0  0  0  0  0  0
  -21.9210   -3.9120   23.6930 C   0  0  0  0  0  3  0  0  0  0  0  0
  -21.9890   -4.7430   22.5610 C   0  0  0  0  0  0  0  0  0  0  0  0
  -22.3330   -4.2170   21.3620 F   0  0  0  0  0  0  0  0  0  0  0  0
  -21.4710   -3.6470   26.0240 F   0  0  0  0  0  0  0  0  0  0  0  0
  -22.7450  -13.5210   21.1740 C   0  0  0  0  0  0  0  0  0  0  0  0
  -22.0240  -12.8240   22.0450 N   0  0  0  0  0  0  0  0  0  0  0  0
  -22.2990  -14.5380   20.6450 O   0  0  0  0  0  0  0  0  0  0  0  0
  -22.3970  -12.0020   22.4950 H   0  0  0  0  0  0  0  0  0  0  0  0
  -21.0830  -13.1200   22.2680 H   0  0  0  0  0  0  0  0  0  0  0  0
  -25.3580  -15.2050   20.3490 N   0  0  0  0  0  0  0  0  0  0  0  0
  -24.5830  -15.8500   20.4530 H   0  0  0  0  0  0  0  0  0  0  0  0
  -26.1960  -15.6470   19.9920 H   0  0  0  0  0  0  0  0  0  0  0  0
  -29.0150  -22.2640   20.3830 C   0  0  0  0  0  2  0  0  0  0  0  0
  -29.2250  -23.8840   20.4360 C   0  0  0  0  0  3  0  0  0  0  0  0
  -28.0470  -24.9360   20.1480 C   0  0  0  0  0  3  0  0  0  0  0  0
  -28.2980  -26.4110   20.2720 O   0  0  0  0  0  0  0  0  0  0  0  0
  -24.6420  -31.9140   23.2610 C   0  0  0  0  0  0  0  0  0  0  0  0
  -27.2000  -27.2970   20.2150 C   0  0  0  0  0  0  0  0  0  0  0  0
  -23.4250  -30.5250   21.6250 C   0  0  0  0  0  3  0  0  0  0  0  0
  -24.8580  -28.9580   20.2000 C   0  0  0  0  0  0  0  0  0  0  0  0
  -25.9700  -30.8110   21.4410 C   0  0  0  0  0  2  0  0  0  0  0  0
  -26.0350  -29.4290   20.7950 C   0  0  0  0  0  0  0  0  0  0  0  0
  -27.2100  -28.6120   20.7880 C   0  0  0  0  0  3  0  0  0  0  0  0
  -25.9970  -26.8900   19.5930 C   0  0  0  0  0  3  0  0  0  0  0  0
  -24.8430  -27.6950   19.5890 C   0  0  0  0  0  3  0  0  0  0  0  0
  -23.6310  -29.8460   20.2460 C   0  0  0  0  0  2  0  0  0  0  0  0
  -24.6980  -31.1010   22.1640 N   0  0  0  0  0  0  0  0  0  0  0  0
  -23.5610  -32.2030   23.7940 O   0  0  0  0  0  0  0  0  0  0  0  0
  -22.7520  -29.5160   22.5870 C   0  0  0  0  0  0  0  0  0  0  0  0
  -21.4240  -29.3510   22.4600 N   0  0  0  0  0  0  0  0  0  0  0  0
  -23.4230  -28.8860   23.4080 O   0  0  0  0  0  0  0  0  0  0  0  0
  -20.9410  -29.9100   21.7710 H   0  0  0  0  0  0  0  0  0  0  0  0
  -18.0360  -28.1810   22.9580 C   0  0  0  0  0  0  0  0  0  0  0  0
  -20.5960  -28.4240   23.2340 C   0  0  0  0  0  3  0  0  0  0  0  0
  -20.6880  -26.9880   22.6670 C   0  0  0  0  0  2  0  0  0  0  0  0
  -19.5870  -26.6670   21.6510 C   0  0  0  0  0  2  0  0  0  0  0  0
  -18.2050  -26.8260   22.2900 C   0  0  0  0  0  2  0  0  0  0  0  0
  -19.1590  -28.9370   23.3870 C   0  0  0  0  0  0  0  0  0  0  0  0
  -18.9470  -30.2040   23.9720 C   0  0  0  0  0  3  0  0  0  0  0  0
  -17.6440  -30.7150   24.1310 C   0  0  0  0  0  3  0  0  0  0  0  0
  -16.5370  -29.9550   23.7180 C   0  0  0  0  0  3  0  0  0  0  0  0
  -16.7330  -28.6900   23.1370 C   0  0  0  0  0  3  0  0  0  0  0  0
  -25.9300  -32.5370   23.8810 C   0  0  0  0  0  3  0  0  0  0  0  0
  -25.6290  -33.9350   24.2200 N   0  0  0  0  0  0  0  0  0  0  0  0
  -25.9440  -34.9890   23.4560 C   0  0  0  0  0  0  0  0  0  0  0  0
  -26.5890  -34.8870   22.4090 O   0  0  0  0  0  0  0  0  0  0  0  0
  -25.0540  -34.0890   25.0350 H   0  0  0  0  0  0  0  0  0  0  0  0
  -24.1990  -36.7770   23.1630 C   0  0  0  0  0  1  0  0  0  0  0  0
  -25.4710  -36.3780   23.9280 C   0  0  0  0  0  3  0  0  0  0  0  0
  -27.6340  -37.2710   24.6740 C   0  0  0  0  0  1  0  0  0  0  0  0
  -26.4950  -37.4340   23.7730 N   0  0  0  0  0  0  0  0  0  0  0  0
  -26.0930  -38.3540   23.9330 H   0  0  0  0  0  0  0  0  0  0  0  0
  -26.4460  -31.7570   25.1530 C   0  0  1  0  0  0  0  0  0  0  0  0
  -25.3550  -31.5240   26.2250 C   0  0  0  0  0  1  0  0  0  0  0  0
  -27.0170  -30.3760   24.7560 C   0  0  0  0  0  1  0  0  0  0  0  0
  -27.6050  -32.5410   25.8130 C   0  0  0  0  0  1  0  0  0  0  0  0
  1  3  1  0
  2  3  2  0
  3  5  1  0
  4  1  2  0
  6  4  1  0
  6  2  1  0
  8  7  1  0
  8  4  1  0
  8  9  1  0
 10 18  1  0
 11 16  1  0
 12 13  1  0
 12 11  1  0
 14 13  1  0
 14 23  1  0
 14 15  1  0
 16 10  1  0
 16 15  1  0
 17 10  2  0
 18  9  1  0
 18 19  1  0
 20 21  2  0
 21 40  1  0
 22 21  1  0
 22 25  1  0
 23 20  1  0
 23 24  1  0
 24 22  2  0
 25 26  1  0
 26 27  2  0
 28 31  1  0
 28 27  1  0
 29 28  2  0
 30 29  1  0
 30 25  2  0
 31 32  1  0
 32 33  1  0
 33 34  2  0
 35 34  1  0
 35 39  1  0
 36 35  2  0
 37 32  2  0
 37 36  1  0
 38 37  1  0
 40 41  1  0
 41 44  1  0
 41 43  1  0
 42 40  2  0
 45 46  1  0
 45 20  1  0
 47 45  1  0
 48 49  1  0
 48  6  1  0
 50 51  1  0
 50 49  2  0
 52 63  2  0
 53 51  1  0
 53 58  1  0
 54 62  1  0
 54 64  1  0
 55 61  1  0
 55 57  1  0
 56 62  1  0
 57 56  1  0
 58 57  2  0
 59 53  2  0
 60 59  1  0
 60 55  2  0
 61 54  1  0
 62 52  1  0
 64 66  2  0
 65 64  1  0
 67 65  1  0
 68 77  2  0
 68 73  1  0
 69 65  1  0
 69 73  1  0
 70 69  1  0
 71 72  1  0
 71 70  1  0
 72 68  1  0
 73 74  2  0
 74 75  1  0
 76 75  2  0
 77 76  1  0
 78 52  1  0
 78 79  1  0
 78 88  1  0
 79 82  1  0
 80 84  1  0
 80 79  1  0
 81 80  2  0
 84 83  1  0
 86 84  1  0
 86 87  1  0
 86 85  1  0
 88 91  1  1
 88 89  1  0
 90 88  1  0
M  ISO  4  10 100  18 100  50 101  51 101
M  END
>  <TORSDO>  (17) 
F 21

>  <SCORE>  (17) 
-13.486

>  <name>  (17) 
16

>  <ligand_id>  (17) 
16

>  <original_smiles>  (17) 
[H]c1c([H])c([H])c2c(c1[H])C([H])([H])C([H])([H])C([H])([H])C2([H])N([H])C(=O)C1([H])N(C(=O)C([H])(N([H])C(=O)C([H])(N([H])C([H])([H])[H])C([H])([H])[H])C(C([H])([H])[H])(C([H])([H])[H])C([H])([H])[H])C([H])([H])c2c([H])c(OC([H])([H])C([H])([H])C([H])([H])n3c([H])c(C([H])([H])[H])c([H])c3C([H])(C([H])([H])[H])C([H])([H])N([H])C(=O)N3C([H])([H])C([H])([H])C([H])([H])C([H])(n4nc(-c5c([H])c([H])c(Oc6c([H])c([H])c(F)c([H])c6F)c([H])c5[H])c(C(=O)N([H])[H])c4N([H])[H])C3([H])[H])c([H])c([H])c2C1([H])[H]

>  <smiles>  (17) 
[H]c1c([H])c([H])c2c(c1[H])C([H])([H])C([H])([H])C([H])([H])C2([H])N([H])C(=O)C1([H])N(C(=O)C([H])(N([H])C(=O)C([H])(N([H])C([H])([H])[H])C([H])([H])[H])C(C([H])([H])[H])(C([H])([H])[H])C([H])([H])[H])C([H])([H])c2c([H])c(OC([H])([H])C([H])([H])C([H])([H])n3c([H])c(C([H])([H])[H])c([H])c3C([H])(C([H])([H])[H])C([H])([H])N([H])C(=O)N3C([H])([H])C([H])([H])C([H])([H])C([H])(n4nc(-c5c([H])c([H])c(Oc6c([H])c([H])c(F)c([H])c6F)c([H])c5[H])c(C(=O)N([H])[H])c4N([H])[H])C3([H])[H])c([H])c([H])c2C1([H])[H]

$$$$
17:0:0
     RDKit          3D

 93 94  0  0  1  0  0  0  0  0999 V2000
  -28.7690  -17.5010   20.1890 C   0  0  0  0  0  1  0  0  0  0  0  0
  -31.5990  -15.8430   19.1860 C   0  0  0  0  0  1  0  0  0  0  0  0
  -29.6350  -16.1180   19.0550 C   0  0  0  0  0  1  0  0  0  0  0  0
  -29.8120  -18.7330   21.3030 C   0  0  0  0  0  2  0  0  0  0  0  0
  -31.7650  -18.3570   21.3570 C   0  0  0  0  0  1  0  0  0  0  0  0
  -32.6300  -16.9170   20.3690 N   0  0  0  0  0  1  0  0  0  0  0  0
  -28.3590  -16.6820   16.9510 C   0  0  0  0  0  1  0  0  0  0  0  0
  -28.9030  -15.5590   17.8390 C   0  0  0  0  0  2  0  0  0  0  0  0
  -29.0720  -20.4830   21.4380 C   0  0  0  0  0  1  0  0  0  0  0  0
  -29.2600  -22.4000   20.9970 C   0  0  0  0  0 15  0  0  0  0  0  0
  -28.2590  -24.1060   20.9830 C   0  0  0  0  0  1  0  0  0  0  0  0
  -28.3920  -25.8690   20.7220 O   0  0  0  0  0  0  0  0  0  0  0  0
  -24.8690  -32.2980   23.4410 C   0  0  0  0  0  0  0  0  0  0  0  0
  -27.4050  -27.0850   20.6570 C   0  0  0  0  0  0  0  0  0  0  0  0
  -23.6870  -30.8390   21.8560 C   0  0  0  0  0  3  0  0  0  0  0  0
  -25.1360  -29.1340   20.5170 C   0  0  0  0  0  0  0  0  0  0  0  0
  -26.2660  -30.9700   21.7370 C   0  0  0  0  0  2  0  0  0  0  0  0
  -26.3320  -29.5110   21.1360 C   0  0  0  0  0  0  0  0  0  0  0  0
  -27.4510  -28.5170   21.1660 C   0  0  0  0  0  3  0  0  0  0  0  0
  -26.1670  -26.9240   19.9770 C   0  0  0  0  0  3  0  0  0  0  0  0
  -25.0930  -27.8660   19.9110 C   0  0  0  0  0  3  0  0  0  0  0  0
  -23.9320  -30.0910   20.5140 C   0  0  0  0  0  2  0  0  0  0  0  0
  -24.9640  -31.4050   22.3960 N   0  0  0  0  0  0  0  0  0  0  0  0
  -23.7750  -32.6200   23.9340 O   0  0  0  0  0  0  0  0  0  0  0  0
  -22.9640  -29.9000   22.8630 C   0  0  0  0  0  0  0  0  0  0  0  0
  -21.6650  -29.6170   22.6470 N   0  0  0  0  0  0  0  0  0  0  0  0
  -23.5890  -29.4220   23.8120 O   0  0  0  0  0  0  0  0  0  0  0  0
  -21.2090  -30.0540   21.8590 H   0  0  0  0  0  0  0  0  0  0  0  0
  -18.3710  -28.1130   22.9730 C   0  0  0  0  0  0  0  0  0  0  0  0
  -20.8500  -28.6890   23.4430 C   0  0  0  0  0  3  0  0  0  0  0  0
  -21.1510  -27.2200   23.0620 C   0  0  0  0  0  2  0  0  0  0  0  0
  -20.2020  -26.6690   21.9920 C   0  0  0  0  0  2  0  0  0  0  0  0
  -18.7530  -26.7270   22.4800 C   0  0  0  0  0  2  0  0  0  0  0  0
  -19.3560  -29.0390   23.4100 C   0  0  0  0  0  0  0  0  0  0  0  0
  -18.9480  -30.3220   23.8330 C   0  0  0  0  0  3  0  0  0  0  0  0
  -17.5880  -30.6860   23.8220 C   0  0  0  0  0  3  0  0  0  0  0  0
  -16.6170  -29.7620   23.3980 C   0  0  0  0  0  3  0  0  0  0  0  0
  -17.0090  -28.4780   22.9830 C   0  0  0  0  0  3  0  0  0  0  0  0
  -26.1280  -32.9740   24.0620 C   0  0  0  0  0  3  0  0  0  0  0  0
  -25.8060  -34.3910   24.3310 N   0  0  0  0  0  0  0  0  0  0  0  0
  -26.1740  -35.4280   23.5670 C   0  0  0  0  0  0  0  0  0  0  0  0
  -26.8780  -35.2940   22.5620 O   0  0  0  0  0  0  0  0  0  0  0  0
  -25.1840  -34.5670   25.1080 H   0  0  0  0  0  0  0  0  0  0  0  0
  -24.4810  -37.2430   23.1190 C   0  0  0  0  0  1  0  0  0  0  0  0
  -25.6910  -36.8370   23.9780 C   0  0  0  0  0  3  0  0  0  0  0  0
  -27.8070  -37.7240   24.8550 C   0  0  0  0  0  1  0  0  0  0  0  0
  -26.7400  -37.8770   23.8720 N   0  0  0  0  0  0  0  0  0  0  0  0
  -26.3400  -38.8050   23.9810 H   0  0  0  0  0  0  0  0  0  0  0  0
  -26.6130  -32.2760   25.3940 C   0  0  1  0  0  0  0  0  0  0  0  0
  -25.4830  -32.0520   26.4290 C   0  0  0  0  0  1  0  0  0  0  0  0
  -27.2530  -30.9010   25.1010 C   0  0  0  0  0  1  0  0  0  0  0  0
  -27.7120  -33.1340   26.0660 C   0  0  0  0  0  1  0  0  0  0  0  0
  -32.3330  -19.5270   20.6650 C   0  0  0  0  0  2  0  0  0  0  0  0
  -31.1610  -20.1320   18.4160 C   0  0  0  0  0  1  0  0  0  0  0  0
  -31.8290  -19.0590   19.2840 C   0  0  0  0  0  3  0  0  0  0  0  0
  -30.5910  -16.2330   21.2910 C   0  0  0  0  0  2  0  0  0  0  0  0
  -30.8930  -13.5150   20.9760 C   0  0  0  0  0  2  0  0  0  0  0  0
  -30.2910  -12.8170   19.7250 C   0  0  0  0  0  2  0  0  0  0  0  0
  -28.7770  -12.5560   19.8770 C   0  0  0  0  0  2  0  0  0  0  0  0
  -28.0330  -13.6410   20.6970 C   0  0  0  0  0  3  0  0  0  0  0  0
  -28.8590  -14.1890   21.8880 C   0  0  0  0  0  2  0  0  0  0  0  0
  -30.1030  -14.7930   21.2860 N   0  0  0  0  0  0  0  0  0  0  0  0
  -31.2820  -16.0690   22.3370 O   0  0  0  0  0  1  0  0  0  0  0  0
  -30.9470  -17.8320   19.4900 N   0  0  0  0  0  2  0  0  0  0  0  0
  -30.4170  -17.5250   18.6830 H   0  0  0  0  0  0  0  0  0  0  0  0
  -25.5550  -14.1670   21.0010 C   0  0  0  0  0  0  0  0  0  0  0  0
  -24.4450  -13.3780   21.1180 C   0  0  0  0  0  0  0  0  0  0  0  0
  -24.9200  -12.0300   21.1590 C   0  0  0  0  0  0  0  0  0  0  0  0
  -26.6380  -13.3020   20.9750 N   0  0  0  0  0  0  0  0  0  0  0  0
  -26.2500  -12.0080   21.1300 N   0  0  0  0  0  0  0  0  0  0  0  0
  -24.1760  -10.7630   21.1680 C   0  0  0  0  0  0  0  0  0  0  0  0
  -24.4420   -9.7580   22.1230 C   0  0  0  0  0  3  0  0  0  0  0  0
  -23.6970   -8.5580   22.1280 C   0  0  0  0  0  3  0  0  0  0  0  0
  -22.6710   -8.3570   21.1730 C   0  0  0  0  0  0  0  0  0  0  0  0
  -22.4260   -9.3510   20.2090 C   0  0  0  0  0  3  0  0  0  0  0  0
  -23.1720  -10.5410   20.2030 C   0  0  0  0  0  3  0  0  0  0  0  0
  -21.9130   -7.2120   21.0880 O   0  0  0  0  0  0  0  0  0  0  0  0
  -21.6660   -6.4300   22.1890 C   0  0  0  0  0  0  0  0  0  0  0  0
  -21.0180   -6.9380   23.3350 C   0  0  0  0  0  3  0  0  0  0  0  0
  -20.7230   -6.0810   24.4150 C   0  0  0  0  0  3  0  0  0  0  0  0
  -21.0610   -4.7170   24.3450 C   0  0  0  0  0  0  0  0  0  0  0  0
  -21.7000   -4.2070   23.2010 C   0  0  0  0  0  3  0  0  0  0  0  0
  -21.9990   -5.0610   22.1240 C   0  0  0  0  0  0  0  0  0  0  0  0
  -22.5950   -4.5600   21.0150 F   0  0  0  0  0  0  0  0  0  0  0  0
  -20.7710   -3.8920   25.3780 F   0  0  0  0  0  0  0  0  0  0  0  0
  -23.0190  -13.8460   21.0900 C   0  0  0  0  0  0  0  0  0  0  0  0
  -22.1300  -13.1450   21.7860 N   0  0  0  0  0  0  0  0  0  0  0  0
  -22.6930  -14.8680   20.4880 O   0  0  0  0  0  0  0  0  0  0  0  0
  -22.3990  -12.3210   22.3010 H   0  0  0  0  0  0  0  0  0  0  0  0
  -21.1650  -13.4400   21.8020 H   0  0  0  0  0  0  0  0  0  0  0  0
  -25.7340  -15.5420   20.8760 N   0  0  0  0  0  0  0  0  0  0  0  0
  -24.9580  -16.1930   20.8530 H   0  0  0  0  0  0  0  0  0  0  0  0
  -26.6330  -15.9900   20.7840 H   0  0  0  0  0  0  0  0  0  0  0  0
  1  4  1  0
  2  6  1  0
  4  9  1  0
  7  8  1  0
  8  3  1  0
 12 11  1  0
 13 24  2  0
 14 12  1  0
 14 19  1  0
 15 23  1  0
 15 25  1  0
 16 18  1  0
 17 23  1  0
 18 19  2  0
 18 17  1  0
 20 14  2  0
 21 20  1  0
 21 16  2  0
 22 16  1  0
 22 15  1  0
 23 13  1  0
 25 27  2  0
 26 25  1  0
 28 26  1  0
 29 38  2  0
 29 34  1  0
 30 26  1  0
 31 30  1  0
 32 33  1  0
 32 31  1  0
 33 29  1  0
 34 30  1  0
 34 35  2  0
 36 35  1  0
 37 36  2  0
 38 37  1  0
 39 13  1  0
 39 40  1  0
 39 49  1  0
 40 43  1  0
 41 45  1  0
 41 40  1  0
 42 41  2  0
 45 44  1  0
 47 45  1  0
 47 48  1  0
 47 46  1  0
 49 52  1  1
 49 50  1  0
 51 49  1  0
 53  5  1  0
 55 54  1  0
 55 64  1  0
 55 53  1  0
 56 63  1  0
 57 62  1  0
 58 59  1  0
 58 57  1  0
 60 59  1  0
 60 69  1  0
 60 61  1  0
 62 56  1  0
 62 61  1  0
 65 64  1  0
 66 67  2  0
 67 68  1  0
 68 71  1  0
 69 66  1  0
 69 70  1  0
 70 68  2  0
 71 72  1  0
 72 73  2  0
 74 73  1  0
 75 74  2  0
 76 75  1  0
 76 71  2  0
 77 74  1  0
 77 78  1  0
 78 79  1  0
 79 80  2  0
 81 80  1  0
 81 85  1  0
 82 81  2  0
 83 78  2  0
 83 82  1  0
 84 83  1  0
 86 67  1  0
 86 87  1  0
 87 90  1  0
 87 89  1  0
 88 86  2  0
 91 66  1  0
 92 91  1  0
 93 91  1  0
M  ISO  4  11 101  12 101  56 100  64 100
M  END
>  <TORSDO>  (18) 
F 22

>  <SCORE>  (18) 
-6.737

>  <name>  (18) 
17

>  <ligand_id>  (18) 
17

>  <original_smiles>  (18) 
[H]c1nc(C([H])([H])C([H])(N([H])C(=O)N2C([H])([H])C([H])([H])C([H])([H])C([H])(n3nc(-c4c([H])c([H])c(Oc5c([H])c([H])c(F)c([H])c5F)c([H])c4[H])c(C(=O)N([H])[H])c3N([H])[H])C2([H])[H])C([H])([H])[H])c(C([H])([H])C([H])([H])C([H])([H])Oc2c([H])c([H])c3c(c2[H])C([H])([H])N(C(=O)C([H])(N([H])C(=O)C([H])(N([H])C([H])([H])[H])C([H])([H])[H])C(C([H])([H])[H])(C([H])([H])[H])C([H])([H])[H])C([H])(C(=O)N([H])C2([H])c4c([H])c([H])c([H])c([H])c4C([H])([H])C([H])([H])C2([H])[H])C3([H])[H])c([H])c1C([H])([H])C([H])([H])[H]

>  <smiles>  (18) 
[H]c1nc(C([H])([H])C([H])(N([H])C(=O)N2C([H])([H])C([H])([H])C([H])([H])C([H])(n3nc(-c4c([H])c([H])c(Oc5c([H])c([H])c(F)c([H])c5F)c([H])c4[H])c(C(=O)N([H])[H])c3N([H])[H])C2([H])[H])C([H])([H])[H])c(C([H])([H])C([H])([H])C([H])([H])Oc2c([H])c([H])c3c(c2[H])C([H])([H])N(C(=O)C([H])(N([H])C(=O)C([H])(N([H])C([H])([H])[H])C([H])([H])[H])C(C([H])([H])[H])(C([H])([H])[H])C([H])([H])[H])C([H])(C(=O)N([H])C2([H])c4c([H])c([H])c([H])c([H])c4C([H])([H])C([H])([H])C2([H])[H])C3([H])[H])c([H])c1C([H])([H])C([H])([H])[H]

$$$$
18:0:0
     RDKit          3D

 94102  0  0  1  0  0  0  0  0999 V2000
  -29.4450  -21.4950   21.2020 C   0  0  0  0  0  3  0  0  0  0  0  0
  -30.7320  -21.1950   21.6600 C   0  0  0  0  0  0  0  0  0  0  0  0
  -28.7590  -20.7130   20.2500 C   0  0  0  0  0  0  0  0  0  0  0  0
  -31.3970  -20.1030   21.0640 C   0  0  0  0  0  0  0  0  0  0  0  0
  -29.3540  -19.3330   20.0510 C   0  0  0  0  0  0  0  0  0  0  0  0
  -31.3360  -22.1230   22.7040 C   0  0  0  0  0  1  0  0  0  0  0  0
  -30.6870  -19.2340   20.3060 N   0  0  0  0  0  0  0  0  0  0  0  0
  -33.6200  -19.8570   22.4290 C   0  0  0  0  0  1  0  0  0  0  0  0
  -33.5480  -21.1280   20.2570 C   0  0  0  0  0  1  0  0  0  0  0  0
  -33.3990  -18.6470   20.3190 C   0  0  0  0  0  1  0  0  0  0  0  0
  -32.9500  -19.9400   21.0360 C   0  0  2  0  0  0  0  0  0  0  0  0
  -27.5010  -21.6050   19.7020 C   0  0  0  0  0  2  0  0  0  0  0  0
  -27.7000  -23.1960   19.1130 C   0  0  0  0  0  3  0  0  0  0  0  0
  -26.5480  -24.4250   18.9860 C   0  0  0  0  0  3  0  0  0  0  0  0
  -26.7750  -25.9150   18.5820 O   0  0  0  0  0  0  0  0  0  0  0  0
  -24.3870  -31.2540   23.0160 C   0  0  0  0  0  0  0  0  0  0  0  0
  -25.8120  -26.9520   18.8600 C   0  0  0  0  0  0  0  0  0  0  0  0
  -22.7300  -30.1880   21.5320 C   0  0  0  0  0  3  0  0  0  0  0  0
  -23.6810  -28.7910   19.5910 C   0  0  0  0  0  0  0  0  0  0  0  0
  -25.1900  -30.3610   20.8020 C   0  0  0  0  0  2  0  0  0  0  0  0
  -25.0000  -29.0850   19.9650 C   0  0  0  0  0  0  0  0  0  0  0  0
  -26.0610  -28.1840   19.5860 C   0  0  0  0  0  3  0  0  0  0  0  0
  -24.4730  -26.7700   18.4520 C   0  0  0  0  0  3  0  0  0  0  0  0
  -23.4290  -27.6490   18.8130 C   0  0  0  0  0  3  0  0  0  0  0  0
  -22.5730  -29.7230   20.0580 C   0  0  0  0  0  2  0  0  0  0  0  0
  -24.1350  -30.6140   21.8340 N   0  0  0  0  0  0  0  0  0  0  0  0
  -23.4810  -31.5040   23.8240 O   0  0  0  0  0  0  0  0  0  0  0  0
  -22.2130  -29.0760   22.4780 C   0  0  0  0  0  0  0  0  0  0  0  0
  -20.9440  -28.6660   22.3070 N   0  0  0  0  0  0  0  0  0  0  0  0
  -22.9560  -28.5850   23.3310 O   0  0  0  0  0  0  0  0  0  0  0  0
  -20.3920  -29.1180   21.5900 H   0  0  0  0  0  0  0  0  0  0  0  0
  -17.9950  -26.5670   22.4210 C   0  0  0  0  0  0  0  0  0  0  0  0
  -20.2800  -27.6000   23.0600 C   0  0  0  0  0  3  0  0  0  0  0  0
  -20.8840  -26.2180   22.7140 C   0  0  0  0  0  2  0  0  0  0  0  0
  -20.1330  -25.4990   21.5900 C   0  0  0  0  0  2  0  0  0  0  0  0
  -18.6660  -25.2800   21.9740 C   0  0  0  0  0  2  0  0  0  0  0  0
  -18.7530  -27.6620   22.9150 C   0  0  0  0  0  0  0  0  0  0  0  0
  -18.0800  -28.8480   23.2840 C   0  0  0  0  0  3  0  0  0  0  0  0
  -16.6810  -28.9480   23.1720 C   0  0  0  0  0  3  0  0  0  0  0  0
  -15.9350  -27.8550   22.6950 C   0  0  0  0  0  3  0  0  0  0  0  0
  -16.5920  -26.6680   22.3220 C   0  0  0  0  0  3  0  0  0  0  0  0
  -25.8250  -31.7220   23.3970 C   0  0  0  0  0  3  0  0  0  0  0  0
  -25.7160  -33.0690   23.9820 N   0  0  0  0  0  0  0  0  0  0  0  0
  -26.0630  -34.2040   23.3600 C   0  0  0  0  0  0  0  0  0  0  0  0
  -26.5770  -34.2190   22.2380 O   0  0  0  0  0  0  0  0  0  0  0  0
  -25.2520  -33.1380   24.8760 H   0  0  0  0  0  0  0  0  0  0  0  0
  -24.5600  -36.2170   23.5000 C   0  0  0  0  0  1  0  0  0  0  0  0
  -25.8000  -35.5310   24.0970 C   0  0  0  0  0  3  0  0  0  0  0  0
  -28.0850  -36.0090   24.8560 C   0  0  0  0  0  1  0  0  0  0  0  0
  -26.9480  -36.4630   24.0610 N   0  0  0  0  0  0  0  0  0  0  0  0
  -26.6760  -37.3850   24.3930 H   0  0  0  0  0  0  0  0  0  0  0  0
  -26.5500  -30.7450   24.4010 C   0  0  1  0  0  0  0  0  0  0  0  0
  -25.6860  -30.3570   25.6250 C   0  0  0  0  0  1  0  0  0  0  0  0
  -26.9740  -29.4360   23.6940 C   0  0  0  0  0  1  0  0  0  0  0  0
  -27.8500  -31.4000   24.9210 C   0  0  0  0  0  1  0  0  0  0  0  0
  -28.8640  -17.8540   19.4890 C   0  0  0  0  0  2  0  0  0  0  0  0
  -29.7470  -16.5380   21.6970 C   0  0  0  0  0  1  0  0  0  0  0  0
  -29.1230  -16.3560   20.2990 C   0  0  0  0  0  3  0  0  0  0  0  0
  -29.9070  -15.0110   19.7180 C   0  0  0  0  0  0  0  0  0  0  0  0
  -29.8930  -12.5720   18.9610 C   0  0  0  0  0  2  0  0  0  0  0  0
  -28.8780  -12.3480   17.8120 C   0  0  0  0  0  2  0  0  0  0  0  0
  -27.4620  -12.0940   18.3670 C   0  0  0  0  0  2  0  0  0  0  0  0
  -27.0800  -13.1100   19.4720 C   0  0  0  0  0  3  0  0  0  0  0  0
  -28.2030  -13.2680   20.5160 C   0  0  0  0  0  2  0  0  0  0  0  0
  -29.4130  -13.7070   19.8030 N   0  0  0  0  0  0  0  0  0  0  0  0
  -31.0040  -15.1500   19.1640 O   0  0  0  0  0  0  0  0  0  0  0  0
  -24.8230  -13.6640   20.5530 C   0  0  0  0  0  0  0  0  0  0  0  0
  -23.7850  -12.8790   20.9670 C   0  0  0  0  0  0  0  0  0  0  0  0
  -24.1900  -11.5280   20.7340 C   0  0  0  0  0  0  0  0  0  0  0  0
  -25.7980  -12.7930   20.0920 N   0  0  0  0  0  0  0  0  0  0  0  0
  -25.4320  -11.4960   20.2630 N   0  0  0  0  0  0  0  0  0  0  0  0
  -23.4460  -10.2700   20.8800 C   0  0  0  0  0  0  0  0  0  0  0  0
  -23.7930   -9.3150   21.8610 C   0  0  0  0  0  3  0  0  0  0  0  0
  -23.0490   -8.1220   21.9920 C   0  0  0  0  0  3  0  0  0  0  0  0
  -21.9450   -7.8770   21.1400 C   0  0  0  0  0  0  0  0  0  0  0  0
  -21.6190   -8.8210   20.1520 C   0  0  0  0  0  3  0  0  0  0  0  0
  -22.3630  -10.0050   20.0180 C   0  0  0  0  0  3  0  0  0  0  0  0
  -21.1810   -6.7350   21.1790 O   0  0  0  0  0  0  0  0  0  0  0  0
  -20.8530   -6.1290   22.3640 C   0  0  0  0  0  0  0  0  0  0  0  0
  -20.1370   -6.8070   23.3750 C   0  0  0  0  0  3  0  0  0  0  0  0
  -19.7570   -6.1250   24.5480 C   0  0  0  0  0  3  0  0  0  0  0  0
  -20.0850   -4.7660   24.7100 C   0  0  0  0  0  0  0  0  0  0  0  0
  -20.7930   -4.0860   23.7020 C   0  0  0  0  0  3  0  0  0  0  0  0
  -21.1720   -4.7660   22.5320 C   0  0  0  0  0  0  0  0  0  0  0  0
  -21.8360   -4.1020   21.5550 F   0  0  0  0  0  0  0  0  0  0  0  0
  -19.7140   -4.1080   25.8330 F   0  0  0  0  0  0  0  0  0  0  0  0
  -22.4480  -13.3550   21.4610 C   0  0  0  0  0  0  0  0  0  0  0  0
  -21.8310  -12.6110   22.3690 N   0  0  0  0  0  0  0  0  0  0  0  0
  -21.9700  -14.4220   21.0760 O   0  0  0  0  0  0  0  0  0  0  0  0
  -22.2320  -11.7460   22.6970 H   0  0  0  0  0  0  0  0  0  0  0  0
  -20.9410  -12.9100   22.7430 H   0  0  0  0  0  0  0  0  0  0  0  0
  -25.0140  -15.0430   20.5050 N   0  0  0  0  0  0  0  0  0  0  0  0
  -24.2900  -15.6940   20.7840 H   0  0  0  0  0  0  0  0  0  0  0  0
  -25.8320  -15.4980   20.1220 H   0  0  0  0  0  0  0  0  0  0  0  0
  1  2  1  0
  2  6  1  0
  3  1  2  0
  4  2  2  0
  5  3  1  0
  5  7  2  0
  7  4  1  0
 11  9  1  6
 10 11  1  0
 11  4  1  0
 11  8  1  0
 12  3  1  0
 13 12  1  0
 14 13  2  0
 15 17  1  0
 15 14  1  0
 16 27  2  0
 17 22  1  0
 18 26  1  0
 18 28  1  0
 19 21  1  0
 19 25  1  0
 20 26  1  0
 21 20  1  0
 22 21  2  0
 23 24  1  0
 23 17  2  0
 24 19  2  0
 25 18  1  0
 26 16  1  0
 28 30  2  0
 29 28  1  0
 31 29  1  0
 32 37  1  0
 33 29  1  0
 34 33  1  0
 35 36  1  0
 35 34  1  0
 36 32  1  0
 37 33  1  0
 37 38  2  0
 39 38  1  0
 40 39  2  0
 41 32  2  0
 41 40  1  0
 42 16  1  0
 42 43  1  0
 42 52  1  0
 43 46  1  0
 44 43  1  0
 44 48  1  0
 45 44  2  0
 48 47  1  0
 50 48  1  0
 50 51  1  0
 50 49  1  0
 52 55  1  1
 52 53  1  0
 54 52  1  0
 56  5  1  0
 56 58  1  0
 58 57  1  0
 59 65  1  0
 59 58  1  0
 60 65  1  0
 61 62  1  0
 61 60  1  0
 63 62  1  0
 63 70  1  0
 63 64  1  0
 65 64  1  0
 66 59  2  0
 67 68  2  0
 68 87  1  0
 69 72  1  0
 69 68  1  0
 70 71  1  0
 70 67  1  0
 71 69  2  0
 72 73  1  0
 73 74  2  0
 75 78  1  0
 75 74  1  0
 76 75  2  0
 77 76  1  0
 77 72  2  0
 78 79  1  0
 79 84  2  0
 79 80  1  0
 80 81  2  0
 81 82  1  0
 82 86  1  0
 83 82  2  0
 84 83  1  0
 85 84  1  0
 87 88  1  0
 88 90  1  0
 88 91  1  0
 89 87  2  0
 92 67  1  0
 92 93  1  0
 94 92  1  0
M  ISO  4  14 101  15 101  58 100  59 100
M  END
>  <TORSDO>  (19) 
F 22

>  <SCORE>  (19) 
-10.696

>  <name>  (19) 
18

>  <ligand_id>  (19) 
18

>  <original_smiles>  (19) 
[H]c1c([H])c([H])c2c(c1[H])C([H])([H])C([H])([H])C([H])([H])C2([H])N([H])C(=O)C1([H])N(C(=O)C([H])(N([H])C(=O)C([H])(N([H])C([H])([H])[H])C([H])([H])[H])C(C([H])([H])[H])(C([H])([H])[H])C([H])([H])[H])C([H])([H])c2c([H])c(OC([H])([H])C([H])([H])C([H])([H])c3c(C([H])([H])C([H])(C(=O)N4C([H])([H])C([H])([H])C([H])([H])C([H])(n5nc(-c6c([H])c([H])c(Oc7c([H])c([H])c(F)c([H])c7F)c([H])c6[H])c(C(=O)N([H])[H])c5N([H])[H])C4([H])[H])C([H])([H])[H])nc(C(C([H])([H])[H])(C([H])([H])[H])C([H])([H])[H])c(C([H])([H])[H])c3[H])c([H])c([H])c2C1([H])[H]

>  <smiles>  (19) 
[H]c1c([H])c([H])c2c(c1[H])C([H])([H])C([H])([H])C([H])([H])C2([H])N([H])C(=O)C1([H])N(C(=O)C([H])(N([H])C(=O)C([H])(N([H])C([H])([H])[H])C([H])([H])[H])C(C([H])([H])[H])(C([H])([H])[H])C([H])([H])[H])C([H])([H])c2c([H])c(OC([H])([H])C([H])([H])C([H])([H])c3c(C([H])([H])C([H])(C(=O)N4C([H])([H])C([H])([H])C([H])([H])C([H])(n5nc(-c6c([H])c([H])c(Oc7c([H])c([H])c(F)c([H])c7F)c([H])c6[H])c(C(=O)N([H])[H])c5N([H])[H])C4([H])[H])C([H])([H])[H])nc(C(C([H])([H])[H])(C([H])([H])[H])C([H])([H])[H])c(C([H])([H])[H])c3[H])c([H])c([H])c2C1([H])[H]

$$$$
19:0:0
     RDKit          3D

 92100  0  0  1  0  0  0  0  0999 V2000
  -29.6100  -20.8410   20.6160 C   0  0  0  0  0  3  0  0  0  0  0  0
  -29.3630  -19.4900   20.3800 C   0  0  0  0  0  0  0  0  0  0  0  0
  -28.2670  -19.4710   19.4630 C   0  0  0  0  0  0  0  0  0  0  0  0
  -27.9180  -20.7630   19.1700 C   0  0  0  0  0  0  0  0  0  0  0  0
  -26.8560  -21.2690   18.2370 C   0  0  0  0  0  1  0  0  0  0  0  0
  -28.6800  -21.6360   19.9270 N   0  0  0  0  0  0  0  0  0  0  0  0
  -26.0570  -18.2680   19.2820 C   0  0  0  0  0  1  0  0  0  0  0  0
  -27.5590  -18.2440   18.9370 C   0  0  0  0  0  2  0  0  0  0  0  0
  -30.0190  -18.2280   21.0170 C   0  0  0  0  0  2  0  0  0  0  0  0
  -30.4760  -17.0420   20.0720 C   0  0  0  0  0  2  0  0  0  0  0  0
  -30.9030  -14.5150   20.2270 C   0  0  0  0  0  0  0  0  0  0  0  0
  -30.5750  -12.2920   19.1850 C   0  0  0  0  0  2  0  0  0  0  0  0
  -29.6240  -12.4730   17.9790 C   0  0  0  0  0  2  0  0  0  0  0  0
  -28.1600  -12.3260   18.4290 C   0  0  0  0  0  2  0  0  0  0  0  0
  -27.8390  -13.1930   19.6840 C   0  0  0  0  0  3  0  0  0  0  0  0
  -28.9150  -13.0370   20.7840 C   0  0  0  0  0  2  0  0  0  0  0  0
  -30.2230  -13.3270   20.1770 N   0  0  0  0  0  0  0  0  0  0  0  0
  -32.0600  -14.6140   19.8070 O   0  0  0  0  0  0  0  0  0  0  0  0
  -30.1790  -15.6350   20.5180 N   0  0  0  0  0  0  0  0  0  0  0  0
  -29.2370  -15.4550   20.8350 H   0  0  0  0  0  0  0  0  0  0  0  0
  -25.4710  -13.8320   20.4650 C   0  0  0  0  0  0  0  0  0  0  0  0
  -24.3960  -13.0830   20.8630 C   0  0  0  0  0  0  0  0  0  0  0  0
  -24.8320  -11.7230   20.8080 C   0  0  0  0  0  0  0  0  0  0  0  0
  -26.4940  -12.9350   20.2030 N   0  0  0  0  0  0  0  0  0  0  0  0
  -26.1130  -11.6580   20.4640 N   0  0  0  0  0  0  0  0  0  0  0  0
  -24.0810  -10.4770   21.0050 C   0  0  0  0  0  0  0  0  0  0  0  0
  -24.5070   -9.4970   21.9290 C   0  0  0  0  0  3  0  0  0  0  0  0
  -23.7600   -8.3140   22.1130 C   0  0  0  0  0  3  0  0  0  0  0  0
  -22.5720   -8.1050   21.3720 C   0  0  0  0  0  0  0  0  0  0  0  0
  -22.1640   -9.0770   20.4410 C   0  0  0  0  0  3  0  0  0  0  0  0
  -22.9110  -10.2520   20.2560 C   0  0  0  0  0  3  0  0  0  0  0  0
  -21.7940   -6.9760   21.4630 O   0  0  0  0  0  0  0  0  0  0  0  0
  -21.7350   -6.2370   22.6170 C   0  0  0  0  0  0  0  0  0  0  0  0
  -21.3140   -6.8020   23.8410 C   0  0  0  0  0  3  0  0  0  0  0  0
  -21.2010   -5.9970   24.9910 C   0  0  0  0  0  3  0  0  0  0  0  0
  -21.4920   -4.6210   24.9170 C   0  0  0  0  0  0  0  0  0  0  0  0
  -21.9090   -4.0530   23.7000 C   0  0  0  0  0  3  0  0  0  0  0  0
  -22.0270   -4.8580   22.5520 C   0  0  0  0  0  0  0  0  0  0  0  0
  -22.4040   -4.3020   21.3770 F   0  0  0  0  0  0  0  0  0  0  0  0
  -21.3790   -3.8430   26.0190 F   0  0  0  0  0  0  0  0  0  0  0  0
  -23.0170  -13.5960   21.1720 C   0  0  0  0  0  0  0  0  0  0  0  0
  -22.2830  -12.9260   22.0530 N   0  0  0  0  0  0  0  0  0  0  0  0
  -22.5910  -14.6340   20.6690 O   0  0  0  0  0  0  0  0  0  0  0  0
  -22.6210  -12.0820   22.4890 H   0  0  0  0  0  0  0  0  0  0  0  0
  -21.3730  -13.2820   22.3110 H   0  0  0  0  0  0  0  0  0  0  0  0
  -25.6520  -15.1910   20.2730 N   0  0  0  0  0  0  0  0  0  0  0  0
  -24.8670  -15.8340   20.2870 H   0  0  0  0  0  0  0  0  0  0  0  0
  -26.5040  -15.6060   19.9170 H   0  0  0  0  0  0  0  0  0  0  0  0
  -28.4630  -23.1170   19.8640 C   0  0  0  0  0  2  0  0  0  0  0  0
  -29.0180  -24.0640   20.9590 C   0  0  0  0  0  2  0  0  0  0  0  0
  -28.1780  -25.3850   21.1740 C   0  0  0  0  0  2  0  0  0  0  0  0
  -28.2600  -26.4540   20.1890 O   0  0  0  0  0  0  0  0  0  0  0  0
  -24.5430  -31.7790   23.1900 C   0  0  0  0  0  0  0  0  0  0  0  0
  -27.1400  -27.2740   20.1500 C   0  0  0  0  0  0  0  0  0  0  0  0
  -23.3230  -30.3910   21.5400 C   0  0  0  0  0  3  0  0  0  0  0  0
  -24.7680  -28.8310   20.1190 C   0  0  0  0  0  0  0  0  0  0  0  0
  -25.8530  -30.7190   21.3470 C   0  0  0  0  0  2  0  0  0  0  0  0
  -25.9300  -29.3410   20.7140 C   0  0  0  0  0  0  0  0  0  0  0  0
  -27.1230  -28.5690   20.7240 C   0  0  0  0  0  3  0  0  0  0  0  0
  -25.9660  -26.7960   19.5320 C   0  0  0  0  0  3  0  0  0  0  0  0
  -24.7820  -27.5580   19.5210 C   0  0  0  0  0  3  0  0  0  0  0  0
  -23.5310  -29.7020   20.1640 C   0  0  0  0  0  2  0  0  0  0  0  0
  -24.5900  -30.9780   22.0860 N   0  0  0  0  0  0  0  0  0  0  0  0
  -23.4640  -32.0690   23.7300 O   0  0  0  0  0  0  0  0  0  0  0  0
  -22.6500  -29.3880   22.5060 C   0  0  0  0  0  0  0  0  0  0  0  0
  -21.3210  -29.2430   22.3940 N   0  0  0  0  0  0  0  0  0  0  0  0
  -23.3230  -28.7430   23.3130 O   0  0  0  0  0  0  0  0  0  0  0  0
  -20.8360  -29.8250   21.7260 H   0  0  0  0  0  0  0  0  0  0  0  0
  -17.9320  -28.1080   22.9200 C   0  0  0  0  0  0  0  0  0  0  0  0
  -20.4980  -28.3140   23.1660 C   0  0  0  0  0  3  0  0  0  0  0  0
  -20.5660  -26.8900   22.5710 C   0  0  0  0  0  2  0  0  0  0  0  0
  -19.4480  -26.6100   21.5620 C   0  0  0  0  0  2  0  0  0  0  0  0
  -18.0740  -26.7670   22.2210 C   0  0  0  0  0  2  0  0  0  0  0  0
  -19.0700  -28.8420   23.3490 C   0  0  0  0  0  0  0  0  0  0  0  0
  -18.8860  -30.0990   23.9590 C   0  0  0  0  0  3  0  0  0  0  0  0
  -17.5950  -30.6290   24.1440 C   0  0  0  0  0  3  0  0  0  0  0  0
  -16.4720  -29.8900   23.7310 C   0  0  0  0  0  3  0  0  0  0  0  0
  -16.6400  -28.6330   23.1240 C   0  0  0  0  0  3  0  0  0  0  0  0
  -25.8340  -32.3940   23.8120 C   0  0  0  0  0  3  0  0  0  0  0  0
  -25.5430  -33.7920   24.1530 N   0  0  0  0  0  0  0  0  0  0  0  0
  -25.8890  -34.8460   23.4020 C   0  0  0  0  0  0  0  0  0  0  0  0
  -26.5590  -34.7420   22.3710 O   0  0  0  0  0  0  0  0  0  0  0  0
  -24.9480  -33.9480   24.9550 H   0  0  0  0  0  0  0  0  0  0  0  0
  -24.1850  -36.6630   23.0490 C   0  0  0  0  0  1  0  0  0  0  0  0
  -25.4140  -36.2360   23.8660 C   0  0  0  0  0  3  0  0  0  0  0  0
  -27.5520  -37.0870   24.7270 C   0  0  0  0  0  1  0  0  0  0  0  0
  -26.4620  -37.2770   23.7740 N   0  0  0  0  0  0  0  0  0  0  0  0
  -26.0650  -38.2020   23.9240 H   0  0  0  0  0  0  0  0  0  0  0  0
  -26.3470  -31.6100   25.0800 C   0  0  1  0  0  0  0  0  0  0  0  0
  -25.2490  -31.3830   26.1460 C   0  0  0  0  0  1  0  0  0  0  0  0
  -26.9150  -30.2280   24.6790 C   0  0  0  0  0  1  0  0  0  0  0  0
  -27.5080  -32.3880   25.7450 C   0  0  0  0  0  1  0  0  0  0  0  0
  2  1  2  0
  2  9  1  0
  3  2  1  0
  4  3  2  0
  4  6  1  0
  5  4  1  0
  6  1  1  0
  8  7  1  0
  8  3  1  0
 10 19  1  0
 10  9  1  0
 11 19  1  0
 12 17  1  0
 13 14  1  0
 13 12  1  0
 15 14  1  0
 15 24  1  0
 15 16  1  0
 17 11  1  0
 17 16  1  0
 18 11  2  0
 19 20  1  0
 21 22  2  0
 22 41  1  0
 23 22  1  0
 23 26  1  0
 24 25  1  0
 24 21  1  0
 25 23  2  0
 26 27  1  0
 27 28  2  0
 29 32  1  0
 29 28  1  0
 30 29  2  0
 31 30  1  0
 31 26  2  0
 32 33  1  0
 33 34  1  0
 34 35  2  0
 36 35  1  0
 36 40  1  0
 37 36  2  0
 38 33  2  0
 38 37  1  0
 39 38  1  0
 41 42  1  0
 42 45  1  0
 42 44  1  0
 43 41  2  0
 46 47  1  0
 46 21  1  0
 48 46  1  0
 49  6  1  0
 49 50  1  0
 50 51  1  0
 52 51  1  0
 53 64  2  0
 54 52  1  0
 54 59  1  0
 55 63  1  0
 55 65  1  0
 56 62  1  0
 56 58  1  0
 57 63  1  0
 58 59  2  0
 58 57  1  0
 60 54  2  0
 61 60  1  0
 61 56  2  0
 62 55  1  0
 63 53  1  0
 65 67  2  0
 66 65  1  0
 68 66  1  0
 69 78  2  0
 69 74  1  0
 70 66  1  0
 70 74  1  0
 71 70  1  0
 72 73  1  0
 72 71  1  0
 73 69  1  0
 74 75  2  0
 75 76  1  0
 77 76  2  0
 78 77  1  0
 79 53  1  0
 79 80  1  0
 79 89  1  0
 80 83  1  0
 81 85  1  0
 81 80  1  0
 82 81  2  0
 85 84  1  0
 87 85  1  0
 87 88  1  0
 87 86  1  0
 89 92  1  1
 89 90  1  0
 91 89  1  0
M  ISO  4  11 100  19 100  51 101  52 101
M  END
>  <TORSDO>  (20) 
F 22

>  <SCORE>  (20) 
-12.944

>  <name>  (20) 
19

>  <ligand_id>  (20) 
19

>  <original_smiles>  (20) 
[H]c1c([H])c([H])c2c(c1[H])C([H])([H])C([H])([H])C([H])([H])C2([H])N([H])C(=O)C1([H])N(C(=O)C([H])(N([H])C(=O)C([H])(N([H])C([H])([H])[H])C([H])([H])[H])C(C([H])([H])[H])(C([H])([H])[H])C([H])([H])[H])C([H])([H])c2c([H])c(OC([H])([H])C([H])([H])C([H])([H])n3c([H])c(C([H])([H])C([H])([H])N([H])C(=O)N4C([H])([H])C([H])([H])C([H])([H])C([H])(n5nc(-c6c([H])c([H])c(Oc7c([H])c([H])c(F)c([H])c7F)c([H])c6[H])c(C(=O)N([H])[H])c5N([H])[H])C4([H])[H])c(C([H])([H])C([H])([H])[H])c3C([H])([H])[H])c([H])c([H])c2C1([H])[H]

>  <smiles>  (20) 
[H]c1c([H])c([H])c2c(c1[H])C([H])([H])C([H])([H])C([H])([H])C2([H])N([H])C(=O)C1([H])N(C(=O)C([H])(N([H])C(=O)C([H])(N([H])C([H])([H])[H])C([H])([H])[H])C(C([H])([H])[H])(C([H])([H])[H])C([H])([H])[H])C([H])([H])c2c([H])c(OC([H])([H])C([H])([H])C([H])([H])n3c([H])c(C([H])([H])C([H])([H])N([H])C(=O)N4C([H])([H])C([H])([H])C([H])([H])C([H])(n5nc(-c6c([H])c([H])c(Oc7c([H])c([H])c(F)c([H])c7F)c([H])c6[H])c(C(=O)N([H])[H])c5N([H])[H])C4([H])[H])c(C([H])([H])C([H])([H])[H])c3C([H])([H])[H])c([H])c([H])c2C1([H])[H]

$$$$
20:0:0
     RDKit          3D

 96104  0  0  1  0  0  0  0  0999 V2000
  -30.0260  -20.2810   19.4280 C   0  0  0  0  0  3  0  0  0  0  0  0
  -30.0090  -20.0150   20.8130 C   0  0  0  0  0  0  0  0  0  0  0  0
  -29.5960  -21.0660   21.6750 C   0  0  0  0  0  0  0  0  0  0  0  0
  -29.1470  -22.2900   21.0990 C   0  0  0  0  0  0  0  0  0  0  0  0
  -29.1260  -22.4090   19.6850 C   0  0  0  0  0  0  0  0  0  0  0  0
  -29.6270  -20.8730   23.1920 C   0  0  0  0  0  1  0  0  0  0  0  0
  -29.5980  -21.4360   18.8810 N   0  0  0  0  0  0  0  0  0  0  0  0
  -30.3550  -18.6200   21.3760 C   0  0  0  0  0  2  0  0  0  0  0  0
  -31.1140  -17.6250   20.4570 C   0  0  0  0  0  2  0  0  0  0  0  0
  -31.5400  -15.1690   20.3610 C   0  0  0  0  0  0  0  0  0  0  0  0
  -31.2360  -12.9060   19.4270 C   0  0  0  0  0  2  0  0  0  0  0  0
  -30.3830  -13.0040   18.1450 C   0  0  0  0  0  2  0  0  0  0  0  0
  -28.8790  -12.9630   18.4810 C   0  0  0  0  0  2  0  0  0  0  0  0
  -28.4950  -13.9490   19.6180 C   0  0  0  0  0  3  0  0  0  0  0  0
  -29.4640  -13.8120   20.8160 C   0  0  0  0  0  2  0  0  0  0  0  0
  -30.8390  -14.0040   20.3230 N   0  0  0  0  0  0  0  0  0  0  0  0
  -32.6630  -15.2990   19.8650 O   0  0  0  0  0  0  0  0  0  0  0  0
  -30.8630  -16.2290   20.8380 N   0  0  0  0  0  0  0  0  0  0  0  0
  -29.9750  -16.0230   21.2710 H   0  0  0  0  0  0  0  0  0  0  0  0
  -26.1120  -14.7360   20.1920 C   0  0  0  0  0  0  0  0  0  0  0  0
  -24.9740  -14.0490   20.5170 C   0  0  0  0  0  0  0  0  0  0  0  0
  -25.3370  -12.6670   20.5230 C   0  0  0  0  0  0  0  0  0  0  0  0
  -27.1020  -13.7790   20.0250 N   0  0  0  0  0  0  0  0  0  0  0  0
  -26.6350  -12.5300   20.2800 N   0  0  0  0  0  0  0  0  0  0  0  0
  -24.5140  -11.4630   20.6940 C   0  0  0  0  0  0  0  0  0  0  0  0
  -24.9200  -10.4040   21.5350 C   0  0  0  0  0  3  0  0  0  0  0  0
  -24.1040   -9.2630   21.6950 C   0  0  0  0  0  3  0  0  0  0  0  0
  -22.8670   -9.1740   21.0150 C   0  0  0  0  0  0  0  0  0  0  0  0
  -22.4780  -10.2210   20.1620 C   0  0  0  0  0  3  0  0  0  0  0  0
  -23.2920  -11.3540   19.9980 C   0  0  0  0  0  3  0  0  0  0  0  0
  -22.0210   -8.0940   21.0910 O   0  0  0  0  0  0  0  0  0  0  0  0
  -22.0490   -7.2310   22.1570 C   0  0  0  0  0  0  0  0  0  0  0  0
  -21.9310   -7.6890   23.4880 C   0  0  0  0  0  3  0  0  0  0  0  0
  -21.8930   -6.7610   24.5490 C   0  0  0  0  0  3  0  0  0  0  0  0
  -21.9640   -5.3810   24.2820 C   0  0  0  0  0  0  0  0  0  0  0  0
  -22.0740   -4.9240   22.9570 C   0  0  0  0  0  3  0  0  0  0  0  0
  -22.1140   -5.8480   21.8980 C   0  0  0  0  0  0  0  0  0  0  0  0
  -22.2000   -5.4020   20.6210 F   0  0  0  0  0  0  0  0  0  0  0  0
  -21.9200   -4.4910   25.3000 F   0  0  0  0  0  0  0  0  0  0  0  0
  -23.6030  -14.6290   20.7150 C   0  0  0  0  0  0  0  0  0  0  0  0
  -22.8080  -14.0350   21.5970 N   0  0  0  0  0  0  0  0  0  0  0  0
  -23.2480  -15.6460   20.1210 O   0  0  0  0  0  0  0  0  0  0  0  0
  -23.1060  -13.2120   22.0990 H   0  0  0  0  0  0  0  0  0  0  0  0
  -21.8870  -14.4100   21.7730 H   0  0  0  0  0  0  0  0  0  0  0  0
  -26.3870  -16.0870   20.0070 N   0  0  0  0  0  0  0  0  0  0  0  0
  -25.6650  -16.7970   20.0570 H   0  0  0  0  0  0  0  0  0  0  0  0
  -27.2820  -16.4530   19.7060 H   0  0  0  0  0  0  0  0  0  0  0  0
  -28.6680  -23.4450   21.9810 C   0  0  0  0  0  2  0  0  0  0  0  0
  -27.1600  -23.7260   21.8190 C   0  0  0  0  0  2  0  0  0  0  0  0
  -25.3560  -25.4820   21.5700 C   0  0  0  0  0  1  0  0  0  0  0  0
  -26.7700  -25.4600   23.6660 C   0  0  0  0  0  1  0  0  0  0  0  0
  -26.7450  -25.1740   22.1530 C   0  0  0  0  0  3  0  0  0  0  0  0
  -28.4690  -23.5860   18.9470 C   0  0  0  0  0  2  0  0  0  0  0  0
  -29.2490  -24.9260   18.9540 C   0  0  0  0  0  2  0  0  0  0  0  0
  -28.6300  -26.0330   19.8410 C   0  0  0  0  0  2  0  0  0  0  0  0
  -28.5090  -27.2880   19.1490 O   0  0  0  0  0  0  0  0  0  0  0  0
  -24.4440  -31.5700   23.1150 C   0  0  0  0  0  0  0  0  0  0  0  0
  -27.2870  -27.9020   19.3010 C   0  0  0  0  0  0  0  0  0  0  0  0
  -23.2680  -30.2850   21.3570 C   0  0  0  0  0  3  0  0  0  0  0  0
  -24.7620  -29.1180   19.6500 C   0  0  0  0  0  0  0  0  0  0  0  0
  -25.7220  -30.9390   21.0710 C   0  0  0  0  0  2  0  0  0  0  0  0
  -25.8990  -29.6860   20.2400 C   0  0  0  0  0  0  0  0  0  0  0  0
  -27.1670  -29.0880   20.0600 C   0  0  0  0  0  3  0  0  0  0  0  0
  -26.1370  -27.3460   18.7030 C   0  0  0  0  0  3  0  0  0  0  0  0
  -24.8750  -27.9490   18.8760 C   0  0  0  0  0  3  0  0  0  0  0  0
  -23.4450  -29.8230   19.8860 C   0  0  0  0  0  2  0  0  0  0  0  0
  -24.4980  -30.9390   21.9070 N   0  0  0  0  0  0  0  0  0  0  0  0
  -23.3820  -31.6500   23.7480 O   0  0  0  0  0  0  0  0  0  0  0  0
  -22.7870  -29.0810   22.1980 C   0  0  0  0  0  0  0  0  0  0  0  0
  -21.4960  -28.7360   22.0660 N   0  0  0  0  0  0  0  0  0  0  0  0
  -23.5710  -28.4650   22.9250 O   0  0  0  0  0  0  0  0  0  0  0  0
  -20.9140  -29.3020   21.4630 H   0  0  0  0  0  0  0  0  0  0  0  0
  -18.3780  -26.9290   22.3070 C   0  0  0  0  0  0  0  0  0  0  0  0
  -20.8330  -27.6120   22.7260 C   0  0  0  0  0  3  0  0  0  0  0  0
  -21.2150  -26.2700   22.0600 C   0  0  0  0  0  2  0  0  0  0  0  0
  -20.2270  -25.8370   20.9710 C   0  0  0  0  0  2  0  0  0  0  0  0
  -18.8190  -25.6860   21.5520 C   0  0  0  0  0  2  0  0  0  0  0  0
  -19.3230  -27.8420   22.8460 C   0  0  0  0  0  0  0  0  0  0  0  0
  -18.8600  -28.9970   23.5090 C   0  0  0  0  0  3  0  0  0  0  0  0
  -17.4810  -29.2470   23.6420 C   0  0  0  0  0  3  0  0  0  0  0  0
  -16.5490  -28.3340   23.1220 C   0  0  0  0  0  3  0  0  0  0  0  0
  -16.9970  -27.1770   22.4610 C   0  0  0  0  0  3  0  0  0  0  0  0
  -25.7030  -32.2410   23.7460 C   0  0  0  0  0  3  0  0  0  0  0  0
  -25.3420  -33.6200   24.0950 N   0  0  0  0  0  0  0  0  0  0  0  0
  -25.6950  -34.7010   23.3880 C   0  0  0  0  0  0  0  0  0  0  0  0
  -26.4310  -34.6420   22.3980 O   0  0  0  0  0  0  0  0  0  0  0  0
  -24.6960  -33.7380   24.8630 H   0  0  0  0  0  0  0  0  0  0  0  0
  -23.9620  -36.4720   22.9570 C   0  0  0  0  0  1  0  0  0  0  0  0
  -25.1450  -36.0630   23.8500 C   0  0  0  0  0  3  0  0  0  0  0  0
  -27.1930  -36.9590   24.8690 C   0  0  0  0  0  1  0  0  0  0  0  0
  -26.1620  -37.1390   23.8510 N   0  0  0  0  0  0  0  0  0  0  0  0
  -25.7250  -38.0460   23.9980 H   0  0  0  0  0  0  0  0  0  0  0  0
  -26.2510  -31.4700   25.0090 C   0  0  1  0  0  0  0  0  0  0  0  0
  -25.1740  -31.1970   26.0840 C   0  0  0  0  0  1  0  0  0  0  0  0
  -26.8640  -30.1110   24.5950 C   0  0  0  0  0  1  0  0  0  0  0  0
  -27.3880  -32.2860   25.6690 C   0  0  0  0  0  1  0  0  0  0  0  0
  1  2  1  0
  2  8  1  0
  2  3  2  0
  3  6  1  0
  4  3  1  0
  4 48  1  0
  5  4  2  0
  7  1  2  0
  7  5  1  0
  9 18  1  0
  9  8  1  0
 10 18  1  0
 11 16  1  0
 12 13  1  0
 12 11  1  0
 14 13  1  0
 14 23  1  0
 14 15  1  0
 16 10  1  0
 16 15  1  0
 17 10  2  0
 18 19  1  0
 20 21  2  0
 21 22  1  0
 21 40  1  0
 22 25  1  0
 23 20  1  0
 23 24  1  0
 24 22  2  0
 25 26  1  0
 26 27  2  0
 28 31  1  0
 28 27  1  0
 29 28  2  0
 30 29  1  0
 30 25  2  0
 31 32  1  0
 32 33  1  0
 33 34  2  0
 35 34  1  0
 35 39  1  0
 36 35  2  0
 37 32  2  0
 37 36  1  0
 38 37  1  0
 40 41  1  0
 41 44  1  0
 41 43  1  0
 42 40  2  0
 45 46  1  0
 45 20  1  0
 47 45  1  0
 49 48  1  0
 49 52  1  0
 50 52  1  0
 52 51  1  0
 53 54  1  0
 53  5  1  0
 54 55  1  0
 56 58  1  0
 56 55  1  0
 57 68  2  0
 58 63  1  0
 59 67  1  0
 59 69  1  0
 60 66  1  0
 60 62  1  0
 61 67  1  0
 62 61  1  0
 63 62  2  0
 64 65  1  0
 64 58  2  0
 65 60  2  0
 66 59  1  0
 67 57  1  0
 69 71  2  0
 70 69  1  0
 72 70  1  0
 73 82  2  0
 73 78  1  0
 74 70  1  0
 74 78  1  0
 75 74  1  0
 76 77  1  0
 76 75  1  0
 77 73  1  0
 78 79  2  0
 79 80  1  0
 81 80  2  0
 82 81  1  0
 83 57  1  0
 83 84  1  0
 83 93  1  0
 84 87  1  0
 85 89  1  0
 85 84  1  0
 86 85  2  0
 89 88  1  0
 89 91  1  0
 91 92  1  0
 91 90  1  0
 93 96  1  1
 93 94  1  0
 95 93  1  0
M  ISO  4  10 100  18 100  55 101  56 101
M  END
>  <TORSDO>  (21) 
F 24

>  <SCORE>  (21) 
-9.211

>  <name>  (21) 
20

>  <ligand_id>  (21) 
20

>  <original_smiles>  (21) 
[H]c1nc(C([H])([H])C([H])([H])C([H])([H])Oc2c([H])c([H])c3c(c2[H])C([H])([H])N(C(=O)C([H])(N([H])C(=O)C([H])(N([H])C([H])([H])[H])C([H])([H])[H])C(C([H])([H])[H])(C([H])([H])[H])C([H])([H])[H])C([H])(C(=O)N([H])C2([H])c4c([H])c([H])c([H])c([H])c4C([H])([H])C([H])([H])C2([H])[H])C3([H])[H])c(C([H])([H])C([H])([H])C([H])(C([H])([H])[H])C([H])([H])[H])c(C([H])([H])[H])c1C([H])([H])C([H])([H])N([H])C(=O)N1C([H])([H])C([H])([H])C([H])([H])C([H])(n2nc(-c3c([H])c([H])c(Oc4c([H])c([H])c(F)c([H])c4F)c([H])c3[H])c(C(=O)N([H])[H])c2N([H])[H])C1([H])[H]

>  <smiles>  (21) 
[H]c1nc(C([H])([H])C([H])([H])C([H])([H])Oc2c([H])c([H])c3c(c2[H])C([H])([H])N(C(=O)C([H])(N([H])C(=O)C([H])(N([H])C([H])([H])[H])C([H])([H])[H])C(C([H])([H])[H])(C([H])([H])[H])C([H])([H])[H])C([H])(C(=O)N([H])C2([H])c4c([H])c([H])c([H])c([H])c4C([H])([H])C([H])([H])C2([H])[H])C3([H])[H])c(C([H])([H])C([H])([H])C([H])(C([H])([H])[H])C([H])([H])[H])c(C([H])([H])[H])c1C([H])([H])C([H])([H])N([H])C(=O)N1C([H])([H])C([H])([H])C([H])([H])C([H])(n2nc(-c3c([H])c([H])c(Oc4c([H])c([H])c(F)c([H])c4F)c([H])c3[H])c(C(=O)N([H])[H])c2N([H])[H])C1([H])[H]

$$$$
21:0:0
     RDKit          3D

 93101  0  0  1  0  0  0  0  0999 V2000
  -28.4350  -22.3210   20.1460 C   0  0  0  0  0  3  0  0  0  0  0  0
  -30.5350  -21.7630   19.7410 C   0  0  0  0  0  3  0  0  0  0  0  0
  -29.7190  -22.8990   19.9290 C   0  0  0  0  0  0  0  0  0  0  0  0
  -28.4770  -20.9520   19.9870 C   0  0  0  0  0  0  0  0  0  0  0  0
  -29.8040  -20.5360   19.7830 N   0  0  0  0  0  0  0  0  0  0  0  0
  -30.1120  -24.8450   18.3590 C   0  0  0  0  0  1  0  0  0  0  0  0
  -30.0320  -24.4750   19.8450 C   0  0  0  0  0  3  0  0  0  0  0  0
  -29.0730  -25.5590   20.5930 C   0  0  0  0  0  2  0  0  0  0  0  0
  -29.2240  -27.0570   20.4330 O   0  0  0  0  0  0  0  0  0  0  0  0
  -24.8990  -31.9680   23.6230 C   0  0  0  0  0  0  0  0  0  0  0  0
  -28.0710  -27.8730   20.4010 C   0  0  0  0  0  0  0  0  0  0  0  0
  -23.9350  -30.6390   21.7770 C   0  0  0  0  0  3  0  0  0  0  0  0
  -25.6040  -29.3400   20.3350 C   0  0  0  0  0  0  0  0  0  0  0  0
  -26.4520  -31.1530   21.8290 C   0  0  0  0  0  2  0  0  0  0  0  0
  -26.6880  -29.8490   21.0670 C   0  0  0  0  0  0  0  0  0  0  0  0
  -27.9270  -29.1290   21.0870 C   0  0  0  0  0  3  0  0  0  0  0  0
  -26.9660  -27.4390   19.6400 C   0  0  0  0  0  3  0  0  0  0  0  0
  -25.7500  -28.1490   19.6100 C   0  0  0  0  0  3  0  0  0  0  0  0
  -24.3030  -30.1160   20.3630 C   0  0  0  0  0  2  0  0  0  0  0  0
  -25.1080  -31.2690   22.4690 N   0  0  0  0  0  0  0  0  0  0  0  0
  -23.7620  -32.1120   24.0950 O   0  0  0  0  0  0  0  0  0  0  0  0
  -23.2920  -29.4910   22.5900 C   0  0  0  0  0  0  0  0  0  0  0  0
  -21.9990  -29.2260   22.3450 N   0  0  0  0  0  0  0  0  0  0  0  0
  -23.9600  -28.8460   23.4030 O   0  0  0  0  0  0  0  0  0  0  0  0
  -21.5170  -29.8050   21.6720 H   0  0  0  0  0  0  0  0  0  0  0  0
  -18.7010  -27.7580   22.5060 C   0  0  0  0  0  0  0  0  0  0  0  0
  -21.2140  -28.1590   22.9630 C   0  0  0  0  0  3  0  0  0  0  0  0
  -21.4560  -26.8030   22.2580 C   0  0  0  0  0  2  0  0  0  0  0  0
  -20.4390  -26.5030   21.1510 C   0  0  0  0  0  2  0  0  0  0  0  0
  -19.0170  -26.5020   21.7140 C   0  0  0  0  0  2  0  0  0  0  0  0
  -19.7350  -28.5470   23.0770 C   0  0  0  0  0  0  0  0  0  0  0  0
  -19.3930  -29.7270   23.7710 C   0  0  0  0  0  3  0  0  0  0  0  0
  -18.0460  -30.1190   23.9030 C   0  0  0  0  0  3  0  0  0  0  0  0
  -17.0260  -29.3250   23.3540 C   0  0  0  0  0  3  0  0  0  0  0  0
  -17.3520  -28.1470   22.6580 C   0  0  0  0  0  3  0  0  0  0  0  0
  -26.0770  -32.6340   24.4010 C   0  0  0  0  0  3  0  0  0  0  0  0
  -25.7250  -34.0430   24.6240 N   0  0  0  0  0  0  0  0  0  0  0  0
  -26.1180  -35.0590   23.8440 C   0  0  0  0  0  0  0  0  0  0  0  0
  -26.8870  -34.9100   22.8900 O   0  0  0  0  0  0  0  0  0  0  0  0
  -25.0570  -34.2310   25.3570 H   0  0  0  0  0  0  0  0  0  0  0  0
  -24.4000  -36.7950   23.2530 C   0  0  0  0  0  1  0  0  0  0  0  0
  -25.5810  -36.4650   24.1790 C   0  0  0  0  0  3  0  0  0  0  0  0
  -27.6250  -37.4450   25.1210 C   0  0  0  0  0  1  0  0  0  0  0  0
  -26.6040  -37.5270   24.0780 N   0  0  0  0  0  0  0  0  0  0  0  0
  -26.1770  -38.4480   24.1270 H   0  0  0  0  0  0  0  0  0  0  0  0
  -26.3980  -31.9230   25.7750 C   0  0  1  0  0  0  0  0  0  0  0  0
  -25.1500  -31.6850   26.6560 C   0  0  0  0  0  1  0  0  0  0  0  0
  -27.0780  -30.5550   25.5420 C   0  0  0  0  0  1  0  0  0  0  0  0
  -27.4030  -32.7770   26.5870 C   0  0  0  0  0  1  0  0  0  0  0  0
  -27.3240  -19.9710   19.9790 C   0  0  0  0  0  2  0  0  0  0  0  0
  -25.1950  -19.1040   18.9260 C   0  0  0  0  0  1  0  0  0  0  0  0
  -26.1880  -21.2690   18.0540 C   0  0  0  0  0  1  0  0  0  0  0  0
  -26.4940  -19.8930   18.6760 C   0  0  0  0  0  3  0  0  0  0  0  0
  -30.1400  -19.0510   19.4690 C   0  0  0  0  0  2  0  0  0  0  0  0
  -31.4970  -18.2150   19.7320 C   0  0  0  0  0  2  0  0  0  0  0  0
  -32.1000  -15.6300   20.0590 C   0  0  0  0  0  0  0  0  0  0  0  0
  -31.9760  -13.2260   19.3950 C   0  0  0  0  0  2  0  0  0  0  0  0
  -31.0710  -13.1210   18.1480 C   0  0  0  0  0  2  0  0  0  0  0  0
  -29.5900  -12.9900   18.5580 C   0  0  0  0  0  2  0  0  0  0  0  0
  -29.1770  -14.0310   19.6350 C   0  0  0  0  0  3  0  0  0  0  0  0
  -30.2040  -14.1030   20.7860 C   0  0  0  0  0  2  0  0  0  0  0  0
  -31.5130  -14.3920   20.1820 N   0  0  0  0  0  0  0  0  0  0  0  0
  -33.2830  -15.7270   19.7150 O   0  0  0  0  0  0  0  0  0  0  0  0
  -31.2760  -16.7410   20.1200 N   0  0  0  0  0  0  0  0  0  0  0  0
  -30.3360  -16.5260   20.4160 H   0  0  0  0  0  0  0  0  0  0  0  0
  -26.8330  -14.7180   20.4130 C   0  0  0  0  0  0  0  0  0  0  0  0
  -25.7330  -13.9900   20.7670 C   0  0  0  0  0  0  0  0  0  0  0  0
  -26.1210  -12.6170   20.6700 C   0  0  0  0  0  0  0  0  0  0  0  0
  -27.8250  -13.7950   20.1250 N   0  0  0  0  0  0  0  0  0  0  0  0
  -27.4030  -12.5210   20.3410 N   0  0  0  0  0  0  0  0  0  0  0  0
  -25.3280  -11.3910   20.8140 C   0  0  0  0  0  0  0  0  0  0  0  0
  -25.5880  -10.4600   21.8450 C   0  0  0  0  0  3  0  0  0  0  0  0
  -24.8010   -9.2960   21.9730 C   0  0  0  0  0  3  0  0  0  0  0  0
  -23.7380   -9.0550   21.0700 C   0  0  0  0  0  0  0  0  0  0  0  0
  -23.5010   -9.9710   20.0290 C   0  0  0  0  0  3  0  0  0  0  0  0
  -24.2900  -11.1260   19.9000 C   0  0  0  0  0  3  0  0  0  0  0  0
  -22.9370   -7.9400   21.1030 O   0  0  0  0  0  0  0  0  0  0  0  0
  -22.4640   -7.4270   22.2840 C   0  0  0  0  0  0  0  0  0  0  0  0
  -21.6390   -8.1800   23.1480 C   0  0  0  0  0  3  0  0  0  0  0  0
  -21.1210   -7.5910   24.3180 C   0  0  0  0  0  3  0  0  0  0  0  0
  -21.4190   -6.2490   24.6220 C   0  0  0  0  0  0  0  0  0  0  0  0
  -22.2360   -5.4960   23.7610 C   0  0  0  0  0  3  0  0  0  0  0  0
  -22.7550   -6.0840   22.5940 C   0  0  0  0  0  0  0  0  0  0  0  0
  -23.5260   -5.3480   21.7560 F   0  0  0  0  0  0  0  0  0  0  0  0
  -20.9160   -5.6790   25.7410 F   0  0  0  0  0  0  0  0  0  0  0  0
  -24.3700  -14.5290   21.0830 C   0  0  0  0  0  0  0  0  0  0  0  0
  -23.6270  -13.8480   21.9470 N   0  0  0  0  0  0  0  0  0  0  0  0
  -23.9720  -15.5880   20.5960 O   0  0  0  0  0  0  0  0  0  0  0  0
  -23.9690  -12.9920   22.3630 H   0  0  0  0  0  0  0  0  0  0  0  0
  -22.7090  -14.1820   22.2010 H   0  0  0  0  0  0  0  0  0  0  0  0
  -27.0680  -16.0860   20.2910 N   0  0  0  0  0  0  0  0  0  0  0  0
  -26.3150  -16.7570   20.4020 H   0  0  0  0  0  0  0  0  0  0  0  0
  -27.9110  -16.4920   19.9110 H   0  0  0  0  0  0  0  0  0  0  0  0
  2  5  1  0
  2  3  2  0
  3  1  1  0
  4  1  2  0
  5  4  1  0
  7  6  1  0
  7  3  1  0
  7  8  1  0
  9  8  1  0
 10 21  2  0
 11  9  1  0
 11 16  1  0
 12 20  1  0
 12 22  1  0
 13 19  1  0
 13 15  1  0
 14 20  1  0
 15 16  2  0
 15 14  1  0
 17 11  2  0
 18 17  1  0
 18 13  2  0
 19 12  1  0
 20 10  1  0
 22 24  2  0
 23 22  1  0
 25 23  1  0
 26 35  2  0
 26 31  1  0
 27 23  1  0
 27 31  1  0
 28 27  1  0
 29 30  1  0
 29 28  1  0
 30 26  1  0
 31 32  2  0
 32 33  1  0
 34 33  2  0
 35 34  1  0
 36 10  1  0
 36 37  1  0
 36 46  1  0
 37 40  1  0
 38 42  1  0
 38 37  1  0
 39 38  2  0
 42 41  1  0
 44 45  1  0
 44 42  1  0
 44 43  1  0
 46 49  1  1
 46 47  1  0
 48 46  1  0
 50  4  1  0
 52 53  1  0
 53 51  1  0
 53 50  1  0
 54 55  1  0
 54  5  1  0
 55 64  1  0
 56 64  1  0
 56 62  1  0
 57 62  1  0
 58 59  1  0
 58 57  1  0
 60 59  1  0
 60 69  1  0
 60 61  1  0
 62 61  1  0
 63 56  2  0
 64 65  1  0
 66 67  2  0
 67 86  1  0
 68 67  1  0
 68 71  1  0
 69 70  1  0
 69 66  1  0
 70 68  2  0
 71 72  1  0
 72 73  2  0
 74 77  1  0
 74 73  1  0
 75 74  2  0
 76 75  1  0
 76 71  2  0
 77 78  1  0
 78 83  2  0
 78 79  1  0
 79 80  2  0
 80 81  1  0
 81 85  1  0
 82 81  2  0
 83 82  1  0
 84 83  1  0
 86 87  1  0
 87 90  1  0
 87 89  1  0
 88 86  2  0
 91 92  1  0
 91 66  1  0
 93 91  1  0
M  ISO  4   8 101   9 101  56 100  64 100
M  END
>  <TORSDO>  (22) 
F 22

>  <SCORE>  (22) 
-8.954

>  <name>  (22) 
21

>  <ligand_id>  (22) 
21

>  <original_smiles>  (22) 
[H]c1c([H])c([H])c2c(c1[H])C([H])([H])C([H])([H])C([H])([H])C2([H])N([H])C(=O)C1([H])N(C(=O)C([H])(N([H])C(=O)C([H])(N([H])C([H])([H])[H])C([H])([H])[H])C(C([H])([H])[H])(C([H])([H])[H])C([H])([H])[H])C([H])([H])c2c([H])c(OC([H])([H])C([H])(c3c([H])c(C([H])([H])C([H])(C([H])([H])[H])C([H])([H])[H])n(C([H])([H])C([H])([H])N([H])C(=O)N4C([H])([H])C([H])([H])C([H])([H])C([H])(n5nc(-c6c([H])c([H])c(Oc7c([H])c([H])c(F)c([H])c7F)c([H])c6[H])c(C(=O)N([H])[H])c5N([H])[H])C4([H])[H])c3[H])C([H])([H])[H])c([H])c([H])c2C1([H])[H]

>  <smiles>  (22) 
[H]c1c([H])c([H])c2c(c1[H])C([H])([H])C([H])([H])C([H])([H])C2([H])N([H])C(=O)C1([H])N(C(=O)C([H])(N([H])C(=O)C([H])(N([H])C([H])([H])[H])C([H])([H])[H])C(C([H])([H])[H])(C([H])([H])[H])C([H])([H])[H])C([H])([H])c2c([H])c(OC([H])([H])C([H])(c3c([H])c(C([H])([H])C([H])(C([H])([H])[H])C([H])([H])[H])n(C([H])([H])C([H])([H])N([H])C(=O)N4C([H])([H])C([H])([H])C([H])([H])C([H])(n5nc(-c6c([H])c([H])c(Oc7c([H])c([H])c(F)c([H])c7F)c([H])c6[H])c(C(=O)N([H])[H])c5N([H])[H])C4([H])[H])c3[H])C([H])([H])[H])c([H])c([H])c2C1([H])[H]

$$$$
22:0:0
     RDKit          3D

 94102  0  0  1  0  0  0  0  0999 V2000
  -30.5750  -22.8420   20.0540 C   0  0  0  0  0  3  0  0  0  0  0  0
  -29.8860  -22.8770   22.3770 C   0  0  0  0  0  3  0  0  0  0  0  0
  -30.1150  -23.5660   21.1700 C   0  0  0  0  0  0  0  0  0  0  0  0
  -30.9100  -21.4740   20.1670 C   0  0  0  0  0  0  0  0  0  0  0  0
  -30.2010  -21.5060   22.5080 C   0  0  0  0  0  0  0  0  0  0  0  0
  -30.7880  -20.8030   21.4170 C   0  0  0  0  0  0  0  0  0  0  0  0
  -31.4620  -20.7740   18.9330 C   0  0  0  0  0  1  0  0  0  0  0  0
  -31.0430  -20.8770   24.8570 C   0  0  0  0  0  1  0  0  0  0  0  0
  -29.8880  -20.8470   23.8500 C   0  0  0  0  0  2  0  0  0  0  0  0
  -29.9730  -25.0880   21.1010 C   0  0  0  0  0  2  0  0  0  0  0  0
  -28.9110  -25.6280   20.1240 C   0  0  0  0  0  2  0  0  0  0  0  0
  -28.8000  -27.0520   20.3080 O   0  0  0  0  0  0  0  0  0  0  0  0
  -24.5170  -31.9480   23.2160 C   0  0  0  0  0  0  0  0  0  0  0  0
  -27.5640  -27.6680   20.2590 C   0  0  0  0  0  0  0  0  0  0  0  0
  -23.4700  -30.4580   21.5440 C   0  0  0  0  0  3  0  0  0  0  0  0
  -25.0720  -29.0190   20.1820 C   0  0  0  0  0  0  0  0  0  0  0  0
  -25.9730  -30.9840   21.4330 C   0  0  0  0  0  2  0  0  0  0  0  0
  -26.1720  -29.6170   20.8070 C   0  0  0  0  0  0  0  0  0  0  0  0
  -27.4180  -28.9490   20.8440 C   0  0  0  0  0  3  0  0  0  0  0  0
  -26.4450  -27.0930   19.6140 C   0  0  0  0  0  3  0  0  0  0  0  0
  -25.2070  -27.7560   19.5810 C   0  0  0  0  0  3  0  0  0  0  0  0
  -23.7720  -29.7900   20.1770 C   0  0  0  0  0  2  0  0  0  0  0  0
  -24.6690  -31.1460   22.1230 N   0  0  0  0  0  0  0  0  0  0  0  0
  -23.4020  -32.1470   23.7140 O   0  0  0  0  0  0  0  0  0  0  0  0
  -22.8570  -29.3980   22.4860 C   0  0  0  0  0  0  0  0  0  0  0  0
  -21.5500  -29.1350   22.3230 N   0  0  0  0  0  0  0  0  0  0  0  0
  -23.5560  -28.8130   23.3190 O   0  0  0  0  0  0  0  0  0  0  0  0
  -21.0460  -29.6610   21.6220 H   0  0  0  0  0  0  0  0  0  0  0  0
  -18.2350  -27.7610   22.7390 C   0  0  0  0  0  0  0  0  0  0  0  0
  -20.7690  -28.1520   23.0730 C   0  0  0  0  0  3  0  0  0  0  0  0
  -20.9610  -26.7320   22.4920 C   0  0  0  0  0  2  0  0  0  0  0  0
  -19.9010  -26.3560   21.4520 C   0  0  0  0  0  2  0  0  0  0  0  0
  -18.4970  -26.4260   22.0640 C   0  0  0  0  0  2  0  0  0  0  0  0
  -19.3010  -28.5790   23.1980 C   0  0  0  0  0  0  0  0  0  0  0  0
  -19.0020  -29.8270   23.7860 C   0  0  0  0  0  3  0  0  0  0  0  0
  -17.6700  -30.2590   23.9240 C   0  0  0  0  0  3  0  0  0  0  0  0
  -16.6170  -29.4370   23.4840 C   0  0  0  0  0  3  0  0  0  0  0  0
  -16.9010  -28.1910   22.8960 C   0  0  0  0  0  3  0  0  0  0  0  0
  -25.7330  -32.6700   23.8760 C   0  0  0  0  0  3  0  0  0  0  0  0
  -25.3280  -34.0510   24.1620 N   0  0  0  0  0  0  0  0  0  0  0  0
  -25.5920  -35.1010   23.3730 C   0  0  0  0  0  0  0  0  0  0  0  0
  -26.2760  -35.0130   22.3500 O   0  0  0  0  0  0  0  0  0  0  0  0
  -24.7190  -34.1890   24.9570 H   0  0  0  0  0  0  0  0  0  0  0  0
  -23.7360  -36.7460   22.9650 C   0  0  0  0  0  1  0  0  0  0  0  0
  -25.0060  -36.4650   23.7850 C   0  0  0  0  0  3  0  0  0  0  0  0
  -27.0660  -37.5360   24.5800 C   0  0  0  0  0  1  0  0  0  0  0  0
  -25.9590  -37.5860   23.6290 N   0  0  0  0  0  0  0  0  0  0  0  0
  -25.4880  -38.4800   23.7400 H   0  0  0  0  0  0  0  0  0  0  0  0
  -26.2410  -31.9560   25.1870 C   0  0  1  0  0  0  0  0  0  0  0  0
  -25.1140  -31.6450   26.2020 C   0  0  0  0  0  1  0  0  0  0  0  0
  -26.9460  -30.6230   24.8390 C   0  0  0  0  0  1  0  0  0  0  0  0
  -27.2970  -32.8420   25.8900 C   0  0  0  0  0  1  0  0  0  0  0  0
  -31.4620  -19.4360   21.6220 C   0  0  0  0  0  2  0  0  0  0  0  0
  -30.1660  -17.9470   19.9310 C   0  0  0  0  0  1  0  0  0  0  0  0
  -30.6650  -18.1280   21.3780 C   0  0  0  0  0  3  0  0  0  0  0  0
  -31.5480  -16.9570   21.8700 C   0  0  0  0  0  2  0  0  0  0  0  0
  -31.6150  -14.7210   20.7790 C   0  0  0  0  0  0  0  0  0  0  0  0
  -31.3160  -12.5500   19.6530 C   0  0  0  0  0  2  0  0  0  0  0  0
  -30.4570  -12.7410   18.3870 C   0  0  0  0  0  2  0  0  0  0  0  0
  -28.9570  -12.6510   18.7280 C   0  0  0  0  0  2  0  0  0  0  0  0
  -28.5650  -13.5530   19.9260 C   0  0  0  0  0  3  0  0  0  0  0  0
  -29.5350  -13.3320   21.1080 C   0  0  0  0  0  2  0  0  0  0  0  0
  -30.9070  -13.5730   20.6230 N   0  0  0  0  0  0  0  0  0  0  0  0
  -32.7150  -14.9230   20.2580 O   0  0  0  0  0  0  0  0  0  0  0  0
  -31.0080  -15.6460   21.5300 N   0  0  0  0  0  0  0  0  0  0  0  0
  -30.1020  -15.4030   21.9040 H   0  0  0  0  0  0  0  0  0  0  0  0
  -26.1610  -14.2600   20.5210 C   0  0  0  0  0  0  0  0  0  0  0  0
  -25.0380  -13.5310   20.8130 C   0  0  0  0  0  0  0  0  0  0  0  0
  -25.4390  -12.1610   20.7660 C   0  0  0  0  0  0  0  0  0  0  0  0
  -27.1750  -13.3360   20.3240 N   0  0  0  0  0  0  0  0  0  0  0  0
  -26.7390  -12.0670   20.5240 N   0  0  0  0  0  0  0  0  0  0  0  0
  -24.6460  -10.9290   20.8860 C   0  0  0  0  0  0  0  0  0  0  0  0
  -24.9890   -9.9190   21.8100 C   0  0  0  0  0  3  0  0  0  0  0  0
  -24.2030   -8.7520   21.9200 C   0  0  0  0  0  3  0  0  0  0  0  0
  -23.0610   -8.5860   21.1030 C   0  0  0  0  0  0  0  0  0  0  0  0
  -22.7360   -9.5840   20.1680 C   0  0  0  0  0  3  0  0  0  0  0  0
  -23.5220  -10.7430   20.0560 C   0  0  0  0  0  3  0  0  0  0  0  0
  -22.2550   -7.4740   21.1210 O   0  0  0  0  0  0  0  0  0  0  0  0
  -22.0670   -6.7380   22.2630 C   0  0  0  0  0  0  0  0  0  0  0  0
  -21.5540   -7.3140   23.4450 C   0  0  0  0  0  3  0  0  0  0  0  0
  -21.3130   -6.5080   24.5750 C   0  0  0  0  0  3  0  0  0  0  0  0
  -21.5760   -5.1260   24.5220 C   0  0  0  0  0  0  0  0  0  0  0  0
  -22.0820   -4.5480   23.3450 C   0  0  0  0  0  3  0  0  0  0  0  0
  -22.3260   -5.3530   22.2180 C   0  0  0  0  0  0  0  0  0  0  0  0
  -22.7930   -4.7890   21.0780 F   0  0  0  0  0  0  0  0  0  0  0  0
  -21.3370   -4.3490   25.6050 F   0  0  0  0  0  0  0  0  0  0  0  0
  -23.6520  -14.0660   21.0280 C   0  0  0  0  0  0  0  0  0  0  0  0
  -22.8650  -13.4030   21.8680 N   0  0  0  0  0  0  0  0  0  0  0  0
  -23.2750  -15.1060   20.4900 O   0  0  0  0  0  0  0  0  0  0  0  0
  -23.1820  -12.5610   22.3240 H   0  0  0  0  0  0  0  0  0  0  0  0
  -21.9330  -13.7420   22.0580 H   0  0  0  0  0  0  0  0  0  0  0  0
  -26.3990  -15.6260   20.3900 N   0  0  0  0  0  0  0  0  0  0  0  0
  -25.6600  -16.3150   20.4760 H   0  0  0  0  0  0  0  0  0  0  0  0
  -27.2920  -16.0310   20.1390 H   0  0  0  0  0  0  0  0  0  0  0  0
  1  4  2  0
  1  3  1  0
  2  5  1  0
  3  2  2  0
  4  6  1  0
  5  9  1  0
  6 53  1  0
  6  5  2  0
  7  4  1  0
  9  8  1  0
 10  3  1  0
 11 12  1  0
 11 10  1  0
 13 24  2  0
 14 12  1  0
 14 19  1  0
 15 23  1  0
 15 25  1  0
 16 18  1  0
 17 23  1  0
 18 19  2  0
 18 17  1  0
 20 14  2  0
 21 20  1  0
 21 16  2  0
 22 16  1  0
 22 15  1  0
 23 13  1  0
 25 27  2  0
 26 25  1  0
 28 26  1  0
 29 38  2  0
 29 34  1  0
 30 26  1  0
 30 34  1  0
 31 30  1  0
 32 33  1  0
 32 31  1  0
 33 29  1  0
 34 35  2  0
 35 36  1  0
 37 36  2  0
 38 37  1  0
 39 13  1  0
 39 40  1  0
 39 49  1  0
 40 43  1  0
 41 45  1  0
 41 40  1  0
 42 41  2  0
 45 44  1  0
 47 48  1  0
 47 45  1  0
 47 46  1  0
 49 52  1  1
 49 50  1  0
 51 49  1  0
 55 54  1  0
 55 53  1  0
 55 56  1  0
 57 65  1  0
 58 63  1  0
 59 60  1  0
 59 58  1  0
 61 60  1  0
 61 70  1  0
 61 62  1  0
 63 57  1  0
 63 62  1  0
 64 57  2  0
 65 56  1  0
 65 66  1  0
 67 68  2  0
 68 87  1  0
 69 68  1  0
 69 72  1  0
 70 67  1  0
 70 71  1  0
 71 69  2  0
 72 73  1  0
 73 74  2  0
 75 78  1  0
 75 74  1  0
 76 75  2  0
 77 76  1  0
 77 72  2  0
 78 79  1  0
 79 80  1  0
 80 81  2  0
 82 81  1  0
 82 86  1  0
 83 82  2  0
 84 79  2  0
 84 83  1  0
 85 84  1  0
 87 88  1  0
 88 91  1  0
 88 90  1  0
 89 87  2  0
 92 93  1  0
 92 67  1  0
 94 92  1  0
M  ISO  4  11 101  12 101  57 100  65 100
M  END
>  <TORSDO>  (23) 
F 22

>  <SCORE>  (23) 
-11.618

>  <name>  (23) 
22

>  <ligand_id>  (23) 
22

>  <original_smiles>  (23) 
[H]c1c([H])c([H])c2c(c1[H])C([H])([H])C([H])([H])C([H])([H])C2([H])N([H])C(=O)C1([H])N(C(=O)C([H])(N([H])C(=O)C([H])(N([H])C([H])([H])[H])C([H])([H])[H])C(C([H])([H])[H])(C([H])([H])[H])C([H])([H])[H])C([H])([H])c2c([H])c(OC([H])([H])C([H])([H])c3c([H])c(C([H])([H])[H])c(C([H])([H])C([H])(C([H])([H])[H])C([H])([H])N([H])C(=O)N4C([H])([H])C([H])([H])C([H])([H])C([H])(n5nc(-c6c([H])c([H])c(Oc7c([H])c([H])c(F)c([H])c7F)c([H])c6[H])c(C(=O)N([H])[H])c5N([H])[H])C4([H])[H])c(C([H])([H])C([H])([H])[H])c3[H])c([H])c([H])c2C1([H])[H]

>  <smiles>  (23) 
[H]c1c([H])c([H])c2c(c1[H])C([H])([H])C([H])([H])C([H])([H])C2([H])N([H])C(=O)C1([H])N(C(=O)C([H])(N([H])C(=O)C([H])(N([H])C([H])([H])[H])C([H])([H])[H])C(C([H])([H])[H])(C([H])([H])[H])C([H])([H])[H])C([H])([H])c2c([H])c(OC([H])([H])C([H])([H])c3c([H])c(C([H])([H])[H])c(C([H])([H])C([H])(C([H])([H])[H])C([H])([H])N([H])C(=O)N4C([H])([H])C([H])([H])C([H])([H])C([H])(n5nc(-c6c([H])c([H])c(Oc7c([H])c([H])c(F)c([H])c7F)c([H])c6[H])c(C(=O)N([H])[H])c5N([H])[H])C4([H])[H])c(C([H])([H])C([H])([H])[H])c3[H])c([H])c([H])c2C1([H])[H]

$$$$
23:0:0
     RDKit          3D

 94102  0  0  1  0  0  0  0  0999 V2000
  -30.0320  -21.2880   18.7560 C   0  0  0  0  0  3  0  0  0  0  0  0
  -30.8200  -20.2680   19.2270 C   0  0  0  0  0  0  0  0  0  0  0  0
  -31.7600  -22.2170   19.7920 C   0  0  0  0  0  3  0  0  0  0  0  0
  -32.7320  -23.2060   20.3430 C   0  0  0  0  0  1  0  0  0  0  0  0
  -30.6480  -22.4680   19.0820 N   0  0  0  0  0  0  0  0  0  0  0  0
  -31.8600  -20.8830   19.8800 N   0  0  0  0  0  0  0  0  0  0  0  0
  -32.6330  -20.3990   20.3220 H   0  0  0  0  0  0  0  0  0  0  0  0
  -31.7990  -18.3450   17.9960 C   0  0  0  0  0  1  0  0  0  0  0  0
  -30.7090  -18.7920   18.9880 C   0  0  0  0  0  3  0  0  0  0  0  0
  -31.9750  -17.6040   20.9210 C   0  0  0  0  0  1  0  0  0  0  0  0
  -30.6090  -17.9080   20.2690 C   0  0  0  0  0  3  0  0  0  0  0  0
  -29.7760  -16.6440   19.9130 C   0  0  0  0  0  2  0  0  0  0  0  0
  -30.6550  -14.4210   20.4140 C   0  0  0  0  0  0  0  0  0  0  0  0
  -30.3220  -12.2770   19.2830 C   0  0  0  0  0  2  0  0  0  0  0  0
  -29.3710  -12.5310   18.0930 C   0  0  0  0  0  2  0  0  0  0  0  0
  -27.9000  -12.4120   18.5350 C   0  0  0  0  0  2  0  0  0  0  0  0
  -27.5920  -13.2300   19.8190 C   0  0  0  0  0  3  0  0  0  0  0  0
  -28.6570  -12.9730   20.9130 C   0  0  0  0  0  2  0  0  0  0  0  0
  -29.9850  -13.2430   20.3380 N   0  0  0  0  0  0  0  0  0  0  0  0
  -31.7710  -14.5950   19.9230 O   0  0  0  0  0  0  0  0  0  0  0  0
  -29.8930  -15.4630   20.7790 N   0  0  0  0  0  0  0  0  0  0  0  0
  -29.0480  -15.2090   21.2700 H   0  0  0  0  0  0  0  0  0  0  0  0
  -25.2030  -13.8550   20.5470 C   0  0  0  0  0  0  0  0  0  0  0  0
  -24.1330  -13.0880   20.9270 C   0  0  0  0  0  0  0  0  0  0  0  0
  -24.5860  -11.7340   20.8900 C   0  0  0  0  0  0  0  0  0  0  0  0
  -26.2410  -12.9670   20.3070 N   0  0  0  0  0  0  0  0  0  0  0  0
  -25.8720  -11.6870   20.5680 N   0  0  0  0  0  0  0  0  0  0  0  0
  -23.8560  -10.4760   21.0860 C   0  0  0  0  0  0  0  0  0  0  0  0
  -24.3050   -9.4970   22.0000 C   0  0  0  0  0  3  0  0  0  0  0  0
  -23.5760   -8.3020   22.1850 C   0  0  0  0  0  3  0  0  0  0  0  0
  -22.3840   -8.0790   21.4560 C   0  0  0  0  0  0  0  0  0  0  0  0
  -21.9540   -9.0460   20.5310 C   0  0  0  0  0  3  0  0  0  0  0  0
  -22.6840  -10.2320   20.3450 C   0  0  0  0  0  3  0  0  0  0  0  0
  -21.6250   -6.9370   21.5500 O   0  0  0  0  0  0  0  0  0  0  0  0
  -21.6100   -6.1750   22.6910 C   0  0  0  0  0  0  0  0  0  0  0  0
  -21.2440   -6.7150   23.9440 C   0  0  0  0  0  3  0  0  0  0  0  0
  -21.1750   -5.8810   25.0770 C   0  0  0  0  0  3  0  0  0  0  0  0
  -21.4630   -4.5070   24.9590 C   0  0  0  0  0  0  0  0  0  0  0  0
  -21.8240   -3.9680   23.7110 C   0  0  0  0  0  3  0  0  0  0  0  0
  -21.8950   -4.7990   22.5810 C   0  0  0  0  0  0  0  0  0  0  0  0
  -22.2210   -4.2700   21.3770 F   0  0  0  0  0  0  0  0  0  0  0  0
  -21.3900   -3.7040   26.0450 F   0  0  0  0  0  0  0  0  0  0  0  0
  -22.7420  -13.5740   21.2170 C   0  0  0  0  0  0  0  0  0  0  0  0
  -22.0220  -12.8790   22.0900 N   0  0  0  0  0  0  0  0  0  0  0  0
  -22.3030  -14.6020   20.7050 O   0  0  0  0  0  0  0  0  0  0  0  0
  -22.3910  -12.0470   22.5260 H   0  0  0  0  0  0  0  0  0  0  0  0
  -21.0880  -13.1840   22.3290 H   0  0  0  0  0  0  0  0  0  0  0  0
  -25.3760  -15.2240   20.3700 N   0  0  0  0  0  0  0  0  0  0  0  0
  -24.6140  -15.8850   20.4860 H   0  0  0  0  0  0  0  0  0  0  0  0
  -26.2260  -15.6550   20.0290 H   0  0  0  0  0  0  0  0  0  0  0  0
  -30.2130  -23.8000   18.6350 C   0  0  0  0  0  2  0  0  0  0  0  0
  -29.7410  -24.7450   19.7570 C   0  0  0  0  0  2  0  0  0  0  0  0
  -28.5430  -25.5890   19.2980 C   0  0  0  0  0  2  0  0  0  0  0  0
  -28.3860  -26.7370   20.1280 O   0  0  0  0  0  0  0  0  0  0  0  0
  -24.5730  -31.8660   23.2150 C   0  0  0  0  0  0  0  0  0  0  0  0
  -27.1930  -27.4330   20.0990 C   0  0  0  0  0  0  0  0  0  0  0  0
  -23.3540  -30.4740   21.5730 C   0  0  0  0  0  3  0  0  0  0  0  0
  -24.7950  -28.9390   20.1370 C   0  0  0  0  0  0  0  0  0  0  0  0
  -25.8800  -30.8250   21.3670 C   0  0  0  0  0  2  0  0  0  0  0  0
  -25.9560  -29.4550   20.7260 C   0  0  0  0  0  0  0  0  0  0  0  0
  -27.1510  -28.7030   20.7160 C   0  0  0  0  0  3  0  0  0  0  0  0
  -26.0100  -26.9330   19.5010 C   0  0  0  0  0  3  0  0  0  0  0  0
  -24.8160  -27.6760   19.5260 C   0  0  0  0  0  3  0  0  0  0  0  0
  -23.5540  -29.7990   20.1910 C   0  0  0  0  0  2  0  0  0  0  0  0
  -24.6200  -31.0700   22.1100 N   0  0  0  0  0  0  0  0  0  0  0  0
  -23.4940  -32.1410   23.7590 O   0  0  0  0  0  0  0  0  0  0  0  0
  -22.7060  -29.4500   22.5320 C   0  0  0  0  0  0  0  0  0  0  0  0
  -21.3810  -29.2680   22.4060 N   0  0  0  0  0  0  0  0  0  0  0  0
  -23.3900  -28.8220   23.3440 O   0  0  0  0  0  0  0  0  0  0  0  0
  -20.8910  -29.8270   21.7210 H   0  0  0  0  0  0  0  0  0  0  0  0
  -18.0080  -28.0670   22.8900 C   0  0  0  0  0  0  0  0  0  0  0  0
  -20.5650  -28.3300   23.1740 C   0  0  0  0  0  3  0  0  0  0  0  0
  -20.6730  -26.8980   22.6030 C   0  0  0  0  0  2  0  0  0  0  0  0
  -19.5760  -26.5700   21.5850 C   0  0  0  0  0  2  0  0  0  0  0  0
  -18.1920  -26.7160   22.2210 C   0  0  0  0  0  2  0  0  0  0  0  0
  -19.1240  -28.8320   23.3240 C   0  0  0  0  0  0  0  0  0  0  0  0
  -18.9010  -30.0980   23.9080 C   0  0  0  0  0  3  0  0  0  0  0  0
  -17.5960  -30.5990   24.0630 C   0  0  0  0  0  3  0  0  0  0  0  0
  -16.4940  -29.8310   23.6470 C   0  0  0  0  0  3  0  0  0  0  0  0
  -16.7010  -28.5660   23.0670 C   0  0  0  0  0  3  0  0  0  0  0  0
  -25.8640  -32.4910   23.8290 C   0  0  0  0  0  3  0  0  0  0  0  0
  -25.5590  -33.8850   24.1730 N   0  0  0  0  0  0  0  0  0  0  0  0
  -25.8870  -34.9420   23.4180 C   0  0  0  0  0  0  0  0  0  0  0  0
  -26.5510  -34.8460   22.3820 O   0  0  0  0  0  0  0  0  0  0  0  0
  -24.9690  -34.0350   24.9780 H   0  0  0  0  0  0  0  0  0  0  0  0
  -24.1580  -36.7360   23.0870 C   0  0  0  0  0  1  0  0  0  0  0  0
  -25.4030  -36.3270   23.8870 C   0  0  0  0  0  3  0  0  0  0  0  0
  -27.5460  -37.2040   24.7070 C   0  0  0  0  0  1  0  0  0  0  0  0
  -26.4360  -37.3810   23.7750 N   0  0  0  0  0  0  0  0  0  0  0  0
  -26.0320  -38.3000   23.9340 H   0  0  0  0  0  0  0  0  0  0  0  0
  -26.3930  -31.7070   25.0920 C   0  0  1  0  0  0  0  0  0  0  0  0
  -25.3100  -31.4570   26.1690 C   0  0  0  0  0  1  0  0  0  0  0  0
  -26.9710  -30.3320   24.6780 C   0  0  0  0  0  1  0  0  0  0  0  0
  -27.5520  -32.4920   25.7490 C   0  0  0  0  0  1  0  0  0  0  0  0
  1  5  1  0
  1  2  2  0
  2  6  1  0
  3  6  1  0
  3  4  1  0
  5  3  1  0
  6  7  1  0
  9  8  1  0
  9  2  1  0
  9 11  1  0
 11 10  1  0
 12 11  1  0
 12 21  1  0
 13 21  1  0
 14 19  1  0
 15 16  1  0
 15 14  1  0
 17 16  1  0
 17 26  1  0
 17 18  1  0
 19 13  1  0
 19 18  1  0
 20 13  2  0
 21 22  1  0
 23 24  2  0
 24 43  1  0
 25 24  1  0
 25 28  1  0
 26 23  1  0
 26 27  1  0
 27 25  2  0
 28 29  1  0
 29 30  2  0
 31 34  1  0
 31 30  1  0
 32 31  2  0
 33 32  1  0
 33 28  2  0
 34 35  1  0
 35 36  1  0
 36 37  2  0
 38 37  1  0
 38 42  1  0
 39 38  2  0
 40 35  2  0
 40 39  1  0
 41 40  1  0
 43 44  1  0
 44 47  1  0
 44 46  1  0
 45 43  2  0
 48 49  1  0
 48 23  1  0
 50 48  1  0
 51  5  1  0
 51 52  1  0
 53 52  1  0
 53 54  1  0
 55 66  2  0
 56 54  1  0
 56 61  1  0
 57 65  1  0
 57 67  1  0
 58 64  1  0
 58 60  1  0
 59 65  1  0
 60 59  1  0
 61 60  2  0
 62 63  1  0
 62 56  2  0
 63 58  2  0
 64 57  1  0
 65 55  1  0
 67 69  2  0
 68 67  1  0
 70 68  1  0
 71 80  2  0
 71 76  1  0
 72 68  1  0
 72 76  1  0
 73 72  1  0
 74 75  1  0
 74 73  1  0
 75 71  1  0
 76 77  2  0
 77 78  1  0
 79 78  2  0
 80 79  1  0
 81 55  1  0
 81 82  1  0
 81 91  1  0
 82 85  1  0
 83 87  1  0
 83 82  1  0
 84 83  2  0
 87 86  1  0
 89 87  1  0
 89 90  1  0
 89 88  1  0
 91 94  1  1
 91 92  1  0
 93 91  1  0
M  ISO  4  13 100  21 100  53 101  54 101
M  END
>  <TORSDO>  (24) 
F 22

>  <SCORE>  (24) 
-12.930

>  <name>  (24) 
23

>  <ligand_id>  (24) 
23

>  <original_smiles>  (24) 
[H]c1c([H])c([H])c2c(c1[H])C([H])([H])C([H])([H])C([H])([H])C2([H])N([H])C(=O)C1([H])N(C(=O)C([H])(N([H])C(=O)C([H])(N([H])C([H])([H])[H])C([H])([H])[H])C(C([H])([H])[H])(C([H])([H])[H])C([H])([H])[H])C([H])([H])c2c([H])c(OC([H])([H])C([H])([H])C([H])([H])n3c([H])c(C([H])(C([H])([H])[H])C([H])(C([H])([H])[H])C([H])([H])N([H])C(=O)N4C([H])([H])C([H])([H])C([H])([H])C([H])(n5nc(-c6c([H])c([H])c(Oc7c([H])c([H])c(F)c([H])c7F)c([H])c6[H])c(C(=O)N([H])[H])c5N([H])[H])C4([H])[H])[n+]([H])c3C([H])([H])[H])c([H])c([H])c2C1([H])[H]

>  <smiles>  (24) 
[H]c1c([H])c([H])c2c(c1[H])C([H])([H])C([H])([H])C([H])([H])C2([H])N([H])C(=O)C1([H])N(C(=O)C([H])(N([H])C(=O)C([H])(N([H])C([H])([H])[H])C([H])([H])[H])C(C([H])([H])[H])(C([H])([H])[H])C([H])([H])[H])C([H])([H])c2c([H])c(OC([H])([H])C([H])([H])C([H])([H])n3c([H])c(C([H])(C([H])([H])[H])C([H])(C([H])([H])[H])C([H])([H])N([H])C(=O)N4C([H])([H])C([H])([H])C([H])([H])C([H])(n5nc(-c6c([H])c([H])c(Oc7c([H])c([H])c(F)c([H])c7F)c([H])c6[H])c(C(=O)N([H])[H])c5N([H])[H])C4([H])[H])[n+]([H])c3C([H])([H])[H])c([H])c([H])c2C1([H])[H]

$$$$
24:0:0
     RDKit          3D

 97105  0  0  1  0  0  0  0  0999 V2000
  -28.7890  -21.6470   20.6650 C   0  0  0  0  0  3  0  0  0  0  0  0
  -31.1130  -21.3460   20.0340 C   0  0  0  0  0  3  0  0  0  0  0  0
  -30.0460  -22.2170   20.3950 C   0  0  0  0  0  0  0  0  0  0  0  0
  -28.5860  -20.2570   20.5660 C   0  0  0  0  0  0  0  0  0  0  0  0
  -30.9630  -19.9220   19.9990 C   0  0  0  0  0  0  0  0  0  0  0  0
  -29.6630  -19.3880   20.2520 C   0  0  0  0  0  0  0  0  0  0  0  0
  -27.1960  -19.7150   20.8510 C   0  0  0  0  0  1  0  0  0  0  0  0
  -29.3970  -17.8830   20.2640 C   0  0  0  0  0  1  0  0  0  0  0  0
  -30.2940  -23.7240   20.6340 C   0  0  0  0  0  2  0  0  0  0  0  0
  -29.1310  -24.7520   20.3890 C   0  0  0  0  0  2  0  0  0  0  0  0
  -29.4210  -26.1790   20.9510 C   0  0  0  0  0  2  0  0  0  0  0  0
  -29.0690  -27.2960   20.1160 O   0  0  0  0  0  0  0  0  0  0  0  0
  -25.0770  -31.9230   23.9000 C   0  0  0  0  0  0  0  0  0  0  0  0
  -27.8740  -27.9540   20.3240 C   0  0  0  0  0  0  0  0  0  0  0  0
  -23.9330  -30.7280   22.0620 C   0  0  0  0  0  3  0  0  0  0  0  0
  -25.4460  -29.4070   20.4830 C   0  0  0  0  0  0  0  0  0  0  0  0
  -26.4560  -31.1480   21.9700 C   0  0  0  0  0  2  0  0  0  0  0  0
  -26.5830  -29.8680   21.1630 C   0  0  0  0  0  0  0  0  0  0  0  0
  -27.8020  -29.1490   21.0800 C   0  0  0  0  0  3  0  0  0  0  0  0
  -26.7230  -27.5070   19.6490 C   0  0  0  0  0  3  0  0  0  0  0  0
  -25.5120  -28.2260   19.7210 C   0  0  0  0  0  3  0  0  0  0  0  0
  -24.1860  -30.2340   20.6110 C   0  0  0  0  0  2  0  0  0  0  0  0
  -25.1740  -31.2740   22.7050 N   0  0  0  0  0  0  0  0  0  0  0  0
  -23.9790  -32.1020   24.4460 O   0  0  0  0  0  0  0  0  0  0  0  0
  -23.2810  -29.5820   22.8670 C   0  0  0  0  0  0  0  0  0  0  0  0
  -21.9960  -29.3110   22.5890 N   0  0  0  0  0  0  0  0  0  0  0  0
  -23.9330  -28.9400   23.6970 O   0  0  0  0  0  0  0  0  0  0  0  0
  -21.5300  -29.8900   21.9030 H   0  0  0  0  0  0  0  0  0  0  0  0
  -18.7400  -27.7390   22.5420 C   0  0  0  0  0  0  0  0  0  0  0  0
  -21.1920  -28.2450   23.1860 C   0  0  0  0  0  3  0  0  0  0  0  0
  -21.5320  -26.8730   22.5610 C   0  0  0  0  0  2  0  0  0  0  0  0
  -20.6210  -26.5020   21.3860 C   0  0  0  0  0  2  0  0  0  0  0  0
  -19.1580  -26.4600   21.8340 C   0  0  0  0  0  2  0  0  0  0  0  0
  -19.6980  -28.5860   23.1610 C   0  0  0  0  0  0  0  0  0  0  0  0
  -19.2620  -29.7800   23.7740 C   0  0  0  0  0  3  0  0  0  0  0  0
  -17.9000  -30.1310   23.7800 C   0  0  0  0  0  3  0  0  0  0  0  0
  -16.9540  -29.2820   23.1800 C   0  0  0  0  0  3  0  0  0  0  0  0
  -17.3740  -28.0890   22.5640 C   0  0  0  0  0  3  0  0  0  0  0  0
  -26.3390  -32.4870   24.6280 C   0  0  0  0  0  3  0  0  0  0  0  0
  -26.0510  -33.8800   24.9930 N   0  0  0  0  0  0  0  0  0  0  0  0
  -26.4880  -34.9500   24.3170 C   0  0  0  0  0  0  0  0  0  0  0  0
  -27.2430  -34.8660   23.3440 O   0  0  0  0  0  0  0  0  0  0  0  0
  -25.3880  -34.0240   25.7400 H   0  0  0  0  0  0  0  0  0  0  0  0
  -24.8780  -36.8340   23.8860 C   0  0  0  0  0  1  0  0  0  0  0  0
  -26.0130  -36.3350   24.7940 C   0  0  0  0  0  3  0  0  0  0  0  0
  -28.0890  -37.0800   25.8750 C   0  0  0  0  0  1  0  0  0  0  0  0
  -27.0920  -37.3450   24.8400 N   0  0  0  0  0  0  0  0  0  0  0  0
  -26.7110  -38.2750   24.9970 H   0  0  0  0  0  0  0  0  0  0  0  0
  -26.7490  -31.6490   25.9010 C   0  0  1  0  0  0  0  0  0  0  0  0
  -25.5700  -31.3400   26.8520 C   0  0  0  0  0  1  0  0  0  0  0  0
  -27.3860  -30.3020   25.4840 C   0  0  0  0  0  1  0  0  0  0  0  0
  -27.8210  -32.4170   26.7080 C   0  0  0  0  0  1  0  0  0  0  0  0
  -32.1770  -18.9530   19.7950 C   0  0  0  0  0  3  0  0  0  0  0  0
  -31.7940  -17.5540   19.2000 C   0  0  0  0  0  2  0  0  0  0  0  0
  -32.6730  -15.3300   20.1080 C   0  0  0  0  0  0  0  0  0  0  0  0
  -32.5510  -12.8760   19.8190 C   0  0  0  0  0  2  0  0  0  0  0  0
  -31.7060  -12.5890   18.5580 C   0  0  0  0  0  2  0  0  0  0  0  0
  -30.2020  -12.5480   18.9030 C   0  0  0  0  0  2  0  0  0  0  0  0
  -29.7510  -13.7720   19.7420 C   0  0  0  0  0  3  0  0  0  0  0  0
  -30.7080  -13.9890   20.9390 C   0  0  0  0  0  2  0  0  0  0  0  0
  -32.0740  -14.1410   20.4060 N   0  0  0  0  0  0  0  0  0  0  0  0
  -33.8180  -15.4110   19.6560 O   0  0  0  0  0  0  0  0  0  0  0  0
  -31.8420  -16.3970   20.1340 N   0  0  0  0  0  0  0  0  0  0  0  0
  -30.9710  -16.2030   20.6050 H   0  0  0  0  0  0  0  0  0  0  0  0
  -27.4110  -14.6340   20.3860 C   0  0  0  0  0  0  0  0  0  0  0  0
  -26.2550  -13.9780   20.7110 C   0  0  0  0  0  0  0  0  0  0  0  0
  -26.5660  -12.5850   20.6730 C   0  0  0  0  0  0  0  0  0  0  0  0
  -28.3620  -13.6460   20.1750 N   0  0  0  0  0  0  0  0  0  0  0  0
  -27.8540  -12.4080   20.4040 N   0  0  0  0  0  0  0  0  0  0  0  0
  -25.7020  -11.4060   20.8210 C   0  0  0  0  0  0  0  0  0  0  0  0
  -25.9090  -10.4640   21.8520 C   0  0  0  0  0  3  0  0  0  0  0  0
  -25.0540   -9.3480   21.9840 C   0  0  0  0  0  3  0  0  0  0  0  0
  -23.9770   -9.1690   21.0830 C   0  0  0  0  0  0  0  0  0  0  0  0
  -23.7920  -10.0980   20.0430 C   0  0  0  0  0  3  0  0  0  0  0  0
  -24.6470  -11.2040   19.9100 C   0  0  0  0  0  3  0  0  0  0  0  0
  -23.1120   -8.1020   21.1190 O   0  0  0  0  0  0  0  0  0  0  0  0
  -22.6810   -7.5650   22.3060 C   0  0  0  0  0  0  0  0  0  0  0  0
  -21.9990   -8.3390   23.2690 C   0  0  0  0  0  3  0  0  0  0  0  0
  -21.5130   -7.7320   24.4440 C   0  0  0  0  0  3  0  0  0  0  0  0
  -21.6980   -6.3510   24.6520 C   0  0  0  0  0  0  0  0  0  0  0  0
  -22.3720   -5.5780   23.6900 C   0  0  0  0  0  3  0  0  0  0  0  0
  -22.8590   -6.1840   22.5190 C   0  0  0  0  0  0  0  0  0  0  0  0
  -23.4890   -5.4290   21.5850 F   0  0  0  0  0  0  0  0  0  0  0  0
  -21.2240   -5.7650   25.7770 F   0  0  0  0  0  0  0  0  0  0  0  0
  -24.9080  -14.6010   20.9480 C   0  0  0  0  0  0  0  0  0  0  0  0
  -24.0990  -14.0010   21.8120 N   0  0  0  0  0  0  0  0  0  0  0  0
  -24.5860  -15.6550   20.3990 O   0  0  0  0  0  0  0  0  0  0  0  0
  -24.3720  -13.1480   22.2770 H   0  0  0  0  0  0  0  0  0  0  0  0
  -23.1940  -14.4020   22.0120 H   0  0  0  0  0  0  0  0  0  0  0  0
  -27.7300  -15.9800   20.2330 N   0  0  0  0  0  0  0  0  0  0  0  0
  -27.0320  -16.7090   20.3150 H   0  0  0  0  0  0  0  0  0  0  0  0
  -28.6240  -16.3240   19.9080 H   0  0  0  0  0  0  0  0  0  0  0  0
  -33.3460  -19.5610   18.9800 C   0  0  0  0  0  2  0  0  0  0  0  0
  -34.8490  -21.5040   18.6980 C   0  0  0  0  0  1  0  0  0  0  0  0
  -33.9190  -20.7830   19.5900 N   0  0  0  0  0  4  0  0  0  0  0  0
  -33.1720  -21.4080   19.8510 H   0  0  0  0  0  0  0  0  0  0  0  0
  -34.4080  -20.5310   20.4330 H   0  0  0  0  0  0  0  0  0  0  0  0
  2  3  1  0
  3  9  1  0
  3  1  2  0
  4  1  1  0
  4  7  1  0
  5  2  2  0
  5  6  1  0
  6  8  1  0
  6  4  2  0
 10  9  1  0
 10 11  1  0
 12 14  1  0
 12 11  1  0
 13 24  2  0
 14 19  1  0
 15 23  1  0
 15 25  1  0
 16 22  1  0
 16 18  1  0
 17 23  1  0
 18 17  1  0
 19 18  2  0
 20 21  1  0
 20 14  2  0
 21 16  2  0
 22 15  1  0
 23 13  1  0
 25 27  2  0
 26 25  1  0
 28 26  1  0
 29 38  2  0
 29 34  1  0
 30 26  1  0
 31 30  1  0
 32 33  1  0
 32 31  1  0
 33 29  1  0
 34 30  1  0
 34 35  2  0
 35 36  1  0
 37 36  2  0
 38 37  1  0
 39 13  1  0
 39 40  1  0
 39 49  1  0
 40 43  1  0
 41 45  1  0
 41 40  1  0
 42 41  2  0
 45 44  1  0
 45 47  1  0
 47 48  1  0
 47 46  1  0
 49 52  1  1
 49 50  1  0
 51 49  1  0
 53 93  1  0
 53  5  1  0
 54 53  1  0
 54 63  1  0
 55 63  1  0
 55 61  1  0
 56 61  1  0
 57 58  1  0
 57 56  1  0
 59 58  1  0
 59 68  1  0
 59 60  1  0
 61 60  1  0
 62 55  2  0
 63 64  1  0
 65 66  2  0
 66 85  1  0
 67 66  1  0
 67 70  1  0
 68 65  1  0
 68 69  1  0
 69 67  2  0
 70 71  1  0
 71 72  2  0
 73 76  1  0
 73 72  1  0
 74 73  2  0
 75 74  1  0
 75 70  2  0
 76 77  1  0
 77 82  2  0
 77 78  1  0
 78 79  2  0
 79 80  1  0
 80 84  1  0
 81 80  2  0
 82 81  1  0
 83 82  1  0
 85 86  1  0
 86 89  1  0
 86 88  1  0
 87 85  2  0
 90 91  1  0
 90 65  1  0
 92 90  1  0
 93 95  1  0
 94 95  1  0
 95 96  1  0
 95 97  1  0
M  ISO  4  11 101  12 101  55 100  63 100
M  END
>  <TORSDO>  (25) 
F 23

>  <SCORE>  (25) 
-8.203

>  <name>  (25) 
24

>  <ligand_id>  (25) 
24

>  <original_smiles>  (25) 
[H]c1c([H])c([H])c2c(c1[H])C([H])([H])C([H])([H])C([H])([H])C2([H])N([H])C(=O)C1([H])N(C(=O)C([H])(N([H])C(=O)C([H])(N([H])C([H])([H])[H])C([H])([H])[H])C(C([H])([H])[H])(C([H])([H])[H])C([H])([H])[H])C([H])([H])c2c([H])c(OC([H])([H])C([H])([H])C([H])([H])c3c([H])c(C([H])([H])[H])c(C([H])([H])[H])c(C([H])(C([H])([H])N([H])C(=O)N4C([H])([H])C([H])([H])C([H])([H])C([H])(n5nc(-c6c([H])c([H])c(Oc7c([H])c([H])c(F)c([H])c7F)c([H])c6[H])c(C(=O)N([H])[H])c5N([H])[H])C4([H])[H])C([H])([H])[N+]([H])([H])C([H])([H])[H])c3[H])c([H])c([H])c2C1([H])[H]

>  <smiles>  (25) 
[H]c1c([H])c([H])c2c(c1[H])C([H])([H])C([H])([H])C([H])([H])C2([H])N([H])C(=O)C1([H])N(C(=O)C([H])(N([H])C(=O)C([H])(N([H])C([H])([H])[H])C([H])([H])[H])C(C([H])([H])[H])(C([H])([H])[H])C([H])([H])[H])C([H])([H])c2c([H])c(OC([H])([H])C([H])([H])C([H])([H])c3c([H])c(C([H])([H])[H])c(C([H])([H])[H])c(C([H])(C([H])([H])N([H])C(=O)N4C([H])([H])C([H])([H])C([H])([H])C([H])(n5nc(-c6c([H])c([H])c(Oc7c([H])c([H])c(F)c([H])c7F)c([H])c6[H])c(C(=O)N([H])[H])c5N([H])[H])C4([H])[H])C([H])([H])[N+]([H])([H])C([H])([H])[H])c3[H])c([H])c([H])c2C1([H])[H]

$$$$
25:0:0
     RDKit          3D

 92100  0  0  1  0  0  0  0  0999 V2000
  -29.3270  -22.7890   19.8550 C   0  0  0  0  0  3  0  0  0  0  0  0
  -28.6490  -24.1230   19.7700 C   0  0  0  0  0  0  0  0  0  0  0  0
  -27.2690  -24.0280   20.1490 C   0  0  0  0  0  0  0  0  0  0  0  0
  -28.6750  -21.4960   20.2150 C   0  0  0  0  0  0  0  0  0  0  0  0
  -26.6840  -22.7530   20.4410 C   0  0  0  0  0  0  0  0  0  0  0  0
  -27.3560  -21.5740   20.4550 N   0  0  0  0  0  0  0  0  0  0  0  0
  -26.2960  -25.8430   21.6550 C   0  0  0  0  0  1  0  0  0  0  0  0
  -26.4010  -25.2890   20.2280 C   0  0  0  0  0  2  0  0  0  0  0  0
  -24.8310  -22.9500   22.2120 C   0  0  0  0  0  1  0  0  0  0  0  0
  -25.2000  -22.5550   20.7720 C   0  0  0  0  0  2  0  0  0  0  0  0
  -29.2630  -25.5310   19.0900 C   0  0  0  0  0  2  0  0  0  0  0  0
  -29.0990  -27.0530   19.4710 O   0  0  0  0  0  0  0  0  0  0  0  0
  -24.4880  -31.5830   22.9750 C   0  0  0  0  0  0  0  0  0  0  0  0
  -27.9230  -27.8970   19.3970 C   0  0  0  0  0  0  0  0  0  0  0  0
  -23.5980  -30.3060   21.0640 C   0  0  0  0  0  3  0  0  0  0  0  0
  -25.3410  -29.2590   19.4830 C   0  0  0  0  0  0  0  0  0  0  0  0
  -26.0760  -30.9990   21.1040 C   0  0  0  0  0  2  0  0  0  0  0  0
  -26.4020  -29.7640   20.2410 C   0  0  0  0  0  0  0  0  0  0  0  0
  -27.6860  -29.0980   20.1880 C   0  0  0  0  0  3  0  0  0  0  0  0
  -26.8320  -27.5260   18.5810 C   0  0  0  0  0  3  0  0  0  0  0  0
  -25.5690  -28.1580   18.6380 C   0  0  0  0  0  3  0  0  0  0  0  0
  -23.9760  -29.9230   19.6070 C   0  0  0  0  0  2  0  0  0  0  0  0
  -24.7350  -30.9780   21.7730 N   0  0  0  0  0  0  0  0  0  0  0  0
  -23.3540  -31.5910   23.4780 O   0  0  0  0  0  0  0  0  0  0  0  0
  -23.0760  -29.0520   21.8080 C   0  0  0  0  0  0  0  0  0  0  0  0
  -21.7890  -28.7130   21.6120 N   0  0  0  0  0  0  0  0  0  0  0  0
  -23.8280  -28.3950   22.5340 O   0  0  0  0  0  0  0  0  0  0  0  0
  -21.2280  -29.3030   21.0120 H   0  0  0  0  0  0  0  0  0  0  0  0
  -18.6000  -27.0140   21.8670 C   0  0  0  0  0  0  0  0  0  0  0  0
  -21.1130  -27.5440   22.1820 C   0  0  0  0  0  3  0  0  0  0  0  0
  -21.3780  -26.2800   21.3310 C   0  0  0  0  0  2  0  0  0  0  0  0
  -20.2990  -26.0280   20.2740 C   0  0  0  0  0  2  0  0  0  0  0  0
  -18.9270  -25.8620   20.9330 C   0  0  0  0  0  2  0  0  0  0  0  0
  -19.6250  -27.8130   22.4420 C   0  0  0  0  0  0  0  0  0  0  0  0
  -19.2600  -28.8940   23.2750 C   0  0  0  0  0  3  0  0  0  0  0  0
  -17.9070  -29.1720   23.5440 C   0  0  0  0  0  3  0  0  0  0  0  0
  -16.8990  -28.3680   22.9830 C   0  0  0  0  0  3  0  0  0  0  0  0
  -17.2470  -27.2910   22.1490 C   0  0  0  0  0  3  0  0  0  0  0  0
  -25.6170  -32.3080   23.7690 C   0  0  0  0  0  3  0  0  0  0  0  0
  -25.1140  -33.6390   24.1460 N   0  0  0  0  0  0  0  0  0  0  0  0
  -25.3990  -34.7780   23.5000 C   0  0  0  0  0  0  0  0  0  0  0  0
  -26.1780  -34.8240   22.5470 O   0  0  0  0  0  0  0  0  0  0  0  0
  -24.4290  -33.6670   24.8870 H   0  0  0  0  0  0  0  0  0  0  0  0
  -23.5310  -36.4080   23.0670 C   0  0  0  0  0  1  0  0  0  0  0  0
  -24.7120  -36.0700   23.9910 C   0  0  0  0  0  3  0  0  0  0  0  0
  -26.6360  -37.1000   25.1170 C   0  0  0  0  0  1  0  0  0  0  0  0
  -25.6260  -37.2310   24.0700 N   0  0  0  0  0  0  0  0  0  0  0  0
  -25.1060  -38.0890   24.2350 H   0  0  0  0  0  0  0  0  0  0  0  0
  -26.0730  -31.5130   25.0530 C   0  0  1  0  0  0  0  0  0  0  0  0
  -24.9060  -31.1000   25.9800 C   0  0  0  0  0  1  0  0  0  0  0  0
  -26.8370  -30.2280   24.6610 C   0  0  0  0  0  1  0  0  0  0  0  0
  -27.0530  -32.3790   25.8780 C   0  0  0  0  0  1  0  0  0  0  0  0
  -29.2790  -20.0060   20.6830 C   0  0  0  0  0  3  0  0  0  0  0  0
  -29.2080  -18.4830   19.9190 C   0  0  0  0  0  3  0  0  0  0  0  0
  -30.3480  -15.9250   20.3060 C   0  0  0  0  0  0  0  0  0  0  0  0
  -30.4630  -13.5450   19.4290 C   0  0  0  0  0  2  0  0  0  0  0  0
  -29.5610  -13.4230   18.1750 C   0  0  0  0  0  2  0  0  0  0  0  0
  -28.1100  -13.1020   18.5790 C   0  0  0  0  0  2  0  0  0  0  0  0
  -27.6150  -14.0030   19.7390 C   0  0  0  0  0  3  0  0  0  0  0  0
  -28.6370  -14.0980   20.8940 C   0  0  0  0  0  2  0  0  0  0  0  0
  -29.8890  -14.6040   20.3140 N   0  0  0  0  0  0  0  0  0  0  0  0
  -31.5150  -16.1020   19.9360 O   0  0  0  0  0  0  0  0  0  0  0  0
  -29.4550  -17.0180   20.5290 N   0  0  0  0  0  0  0  0  0  0  0  0
  -28.6160  -16.6770   20.9800 H   0  0  0  0  0  0  0  0  0  0  0  0
  -25.2190  -14.4280   20.5310 C   0  0  0  0  0  0  0  0  0  0  0  0
  -24.1880  -13.5840   20.8470 C   0  0  0  0  0  0  0  0  0  0  0  0
  -24.7050  -12.2600   20.7020 C   0  0  0  0  0  0  0  0  0  0  0  0
  -26.2920  -13.6140   20.2160 N   0  0  0  0  0  0  0  0  0  0  0  0
  -25.9930  -12.3000   20.3830 N   0  0  0  0  0  0  0  0  0  0  0  0
  -24.0290  -10.9580   20.7970 C   0  0  0  0  0  0  0  0  0  0  0  0
  -24.4950   -9.9400   21.6550 C   0  0  0  0  0  3  0  0  0  0  0  0
  -23.8160   -8.7060   21.7410 C   0  0  0  0  0  3  0  0  0  0  0  0
  -22.6540   -8.4800   20.9660 C   0  0  0  0  0  0  0  0  0  0  0  0
  -22.2080   -9.4890   20.0920 C   0  0  0  0  0  3  0  0  0  0  0  0
  -22.8890  -10.7140   20.0030 C   0  0  0  0  0  3  0  0  0  0  0  0
  -21.9410   -7.3050   20.9640 O   0  0  0  0  0  0  0  0  0  0  0  0
  -21.8980   -6.4900   22.0680 C   0  0  0  0  0  0  0  0  0  0  0  0
  -21.4160   -6.9460   23.3130 C   0  0  0  0  0  3  0  0  0  0  0  0
  -21.3170   -6.0560   24.4000 C   0  0  0  0  0  3  0  0  0  0  0  0
  -21.6970   -4.7090   24.2450 C   0  0  0  0  0  0  0  0  0  0  0  0
  -22.1720   -4.2510   23.0030 C   0  0  0  0  0  3  0  0  0  0  0  0
  -22.2720   -5.1400   21.9190 C   0  0  0  0  0  0  0  0  0  0  0  0
  -22.7100   -4.6880   20.7190 F   0  0  0  0  0  0  0  0  0  0  0  0
  -21.5980   -3.8510   25.2870 F   0  0  0  0  0  0  0  0  0  0  0  0
  -22.7760  -13.9850   21.1600 C   0  0  0  0  0  0  0  0  0  0  0  0
  -22.0950  -13.2130   21.9970 N   0  0  0  0  0  0  0  0  0  0  0  0
  -22.2860  -15.0170   20.7020 O   0  0  0  0  0  0  0  0  0  0  0  0
  -22.5080  -12.3810   22.3900 H   0  0  0  0  0  0  0  0  0  0  0  0
  -21.1470  -13.4540   22.2470 H   0  0  0  0  0  0  0  0  0  0  0  0
  -25.3240  -15.8130   20.4620 N   0  0  0  0  0  0  0  0  0  0  0  0
  -24.5230  -16.4130   20.6290 H   0  0  0  0  0  0  0  0  0  0  0  0
  -26.1370  -16.3170   20.1340 H   0  0  0  0  0  0  0  0  0  0  0  0
  1  4  1  0
  2  1  2  0
  2  3  1  0
  3  8  1  0
  3  5  2  0
  4  6  2  0
  4 53  1  0
  5  6  1  0
  5 10  1  0
  8  7  1  0
 10  9  1  0
 11 12  1  0
 11  2  1  0
 13 24  2  0
 14 12  1  0
 14 19  1  0
 15 23  1  0
 15 25  1  0
 16 22  1  0
 16 18  1  0
 17 23  1  0
 18 17  1  0
 19 18  2  0
 20 21  1  0
 20 14  2  0
 21 16  2  0
 22 15  1  0
 23 13  1  0
 25 27  2  0
 26 25  1  0
 28 26  1  0
 29 38  2  0
 29 34  1  0
 30 26  1  0
 30 34  1  0
 31 30  1  0
 32 33  1  0
 32 31  1  0
 33 29  1  0
 34 35  2  0
 35 36  1  0
 37 36  2  0
 38 37  1  0
 39 13  1  0
 39 40  1  0
 39 49  1  0
 40 43  1  0
 41 45  1  0
 41 40  1  0
 42 41  2  0
 45 44  1  0
 45 47  1  0
 47 48  1  0
 47 46  1  0
 49 52  1  1
 49 50  1  0
 51 49  1  0
 54 63  1  0
 54 53  2  0
 55 61  1  0
 55 63  1  0
 56 61  1  0
 57 58  1  0
 57 56  1  0
 59 58  1  0
 59 68  1  0
 59 60  1  0
 61 60  1  0
 62 55  2  0
 63 64  1  0
 65 66  2  0
 66 85  1  0
 67 70  1  0
 67 66  1  0
 68 69  1  0
 68 65  1  0
 69 67  2  0
 70 71  1  0
 71 72  2  0
 73 72  1  0
 74 73  2  0
 75 74  1  0
 75 70  2  0
 76 73  1  0
 76 77  1  0
 77 78  1  0
 78 79  2  0
 80 79  1  0
 80 84  1  0
 81 80  2  0
 82 77  2  0
 82 81  1  0
 83 82  1  0
 85 86  1  0
 86 89  1  0
 86 88  1  0
 87 85  2  0
 90 65  1  0
 90 91  1  0
 92 90  1  0
M  ISO  4  11 101  12 101  55 100  63 100
M  END
>  <TORSDO>  (26) 
F 21

>  <SCORE>  (26) 
-8.990

>  <name>  (26) 
25

>  <ligand_id>  (26) 
25

>  <original_smiles>  (26) 
[H]c1c([H])c([H])c2c(c1[H])C([H])([H])C([H])([H])C([H])([H])C2([H])N([H])C(=O)C1([H])N(C(=O)C([H])(N([H])C(=O)C([H])(N([H])C([H])([H])[H])C([H])([H])[H])C(C([H])([H])[H])(C([H])([H])[H])C([H])([H])[H])C([H])([H])c2c([H])c(OC([H])([H])c3c([H])c(C([H])([H])C([H])([H])N([H])C(=O)N4C([H])([H])C([H])([H])C([H])([H])C([H])(n5nc(-c6c([H])c([H])c(Oc7c([H])c([H])c(F)c([H])c7F)c([H])c6[H])c(C(=O)N([H])[H])c5N([H])[H])C4([H])[H])nc(C([H])([H])C([H])([H])[H])c3C([H])([H])C([H])([H])[H])c([H])c([H])c2C1([H])[H]

>  <smiles>  (26) 
[H]c1c([H])c([H])c2c(c1[H])C([H])([H])C([H])([H])C([H])([H])C2([H])N([H])C(=O)C1([H])N(C(=O)C([H])(N([H])C(=O)C([H])(N([H])C([H])([H])[H])C([H])([H])[H])C(C([H])([H])[H])(C([H])([H])[H])C([H])([H])[H])C([H])([H])c2c([H])c(OC([H])([H])c3c([H])c(C([H])([H])C([H])([H])N([H])C(=O)N4C([H])([H])C([H])([H])C([H])([H])C([H])(n5nc(-c6c([H])c([H])c(Oc7c([H])c([H])c(F)c([H])c7F)c([H])c6[H])c(C(=O)N([H])[H])c5N([H])[H])C4([H])[H])nc(C([H])([H])C([H])([H])[H])c3C([H])([H])C([H])([H])[H])c([H])c([H])c2C1([H])[H]

$$$$
26:0:0
     RDKit          3D

 93101  0  0  1  0  0  0  0  0999 V2000
  -31.6540  -21.1350   18.3920 C   0  0  0  0  0  3  0  0  0  0  0  0
  -31.1390  -19.8830   18.7630 C   0  0  0  0  0  3  0  0  0  0  0  0
  -31.0350  -22.0790   19.1480 C   0  0  0  0  0  0  0  0  0  0  0  0
  -30.1780  -20.0330   19.7310 C   0  0  0  0  0  0  0  0  0  0  0  0
  -31.4600  -23.5160   19.1800 C   0  0  0  0  0  1  0  0  0  0  0  0
  -29.9870  -21.4840   19.8790 N   0  0  0  0  0  0  0  0  0  0  0  0
  -28.0880  -18.5620   19.9520 C   0  0  0  0  0  1  0  0  0  0  0  0
  -29.5410  -18.7490   20.4040 C   0  0  0  0  0  3  0  0  0  0  0  0
  -30.3650  -17.3480   20.1670 C   0  0  0  0  0  2  0  0  0  0  0  0
  -30.5850  -14.7670   20.3570 C   0  0  0  0  0  0  0  0  0  0  0  0
  -30.3460  -12.4950   19.3480 C   0  0  0  0  0  2  0  0  0  0  0  0
  -29.4080  -12.5680   18.1240 C   0  0  0  0  0  2  0  0  0  0  0  0
  -27.9360  -12.4190   18.5510 C   0  0  0  0  0  2  0  0  0  0  0  0
  -27.5680  -13.3000   19.7730 C   0  0  0  0  0  3  0  0  0  0  0  0
  -28.6300  -13.2150   20.8910 C   0  0  0  0  0  2  0  0  0  0  0  0
  -29.9240  -13.5590   20.2920 N   0  0  0  0  0  0  0  0  0  0  0  0
  -31.7750  -14.8220   20.0450 O   0  0  0  0  0  0  0  0  0  0  0  0
  -29.8660  -15.9440   20.5270 N   0  0  0  0  0  0  0  0  0  0  0  0
  -28.8830  -15.8490   20.7340 H   0  0  0  0  0  0  0  0  0  0  0  0
  -25.1780  -13.8930   20.4870 C   0  0  0  0  0  0  0  0  0  0  0  0
  -24.1100  -13.1220   20.8560 C   0  0  0  0  0  0  0  0  0  0  0  0
  -24.5700  -11.7700   20.8370 C   0  0  0  0  0  0  0  0  0  0  0  0
  -26.2220  -13.0130   20.2620 N   0  0  0  0  0  0  0  0  0  0  0  0
  -25.8640  -11.7310   20.5350 N   0  0  0  0  0  0  0  0  0  0  0  0
  -23.8380  -10.5110   21.0310 C   0  0  0  0  0  0  0  0  0  0  0  0
  -24.2680   -9.5450   21.9670 C   0  0  0  0  0  3  0  0  0  0  0  0
  -23.5400   -8.3500   22.1490 C   0  0  0  0  0  3  0  0  0  0  0  0
  -22.3650   -8.1130   21.3960 C   0  0  0  0  0  0  0  0  0  0  0  0
  -21.9540   -9.0670   20.4490 C   0  0  0  0  0  3  0  0  0  0  0  0
  -22.6840  -10.2530   20.2650 C   0  0  0  0  0  3  0  0  0  0  0  0
  -21.6080   -6.9700   21.4890 O   0  0  0  0  0  0  0  0  0  0  0  0
  -21.5680   -6.2240   22.6400 C   0  0  0  0  0  0  0  0  0  0  0  0
  -21.1690   -6.7810   23.8750 C   0  0  0  0  0  3  0  0  0  0  0  0
  -21.0750   -5.9630   25.0180 C   0  0  0  0  0  3  0  0  0  0  0  0
  -21.3720   -4.5890   24.9280 C   0  0  0  0  0  0  0  0  0  0  0  0
  -21.7650   -4.0340   23.6970 C   0  0  0  0  0  3  0  0  0  0  0  0
  -21.8610   -4.8490   22.5570 C   0  0  0  0  0  0  0  0  0  0  0  0
  -22.2180   -4.3050   21.3700 F   0  0  0  0  0  0  0  0  0  0  0  0
  -21.2730   -3.8010   26.0230 F   0  0  0  0  0  0  0  0  0  0  0  0
  -22.7110  -13.6020   21.1110 C   0  0  0  0  0  0  0  0  0  0  0  0
  -21.9750  -12.9150   21.9770 N   0  0  0  0  0  0  0  0  0  0  0  0
  -22.2810  -14.6220   20.5750 O   0  0  0  0  0  0  0  0  0  0  0  0
  -22.3360  -12.0920   22.4360 H   0  0  0  0  0  0  0  0  0  0  0  0
  -21.0330  -13.2160   22.1820 H   0  0  0  0  0  0  0  0  0  0  0  0
  -25.3410  -15.2630   20.2950 N   0  0  0  0  0  0  0  0  0  0  0  0
  -24.5670  -15.9110   20.3800 H   0  0  0  0  0  0  0  0  0  0  0  0
  -26.1710  -15.6940   19.9130 H   0  0  0  0  0  0  0  0  0  0  0  0
  -29.0380  -22.3330   20.7240 C   0  0  0  0  0  2  0  0  0  0  0  0
  -28.1800  -23.7590   18.6120 C   0  0  0  0  0  1  0  0  0  0  0  0
  -28.2720  -23.6740   20.1460 C   0  0  0  0  0  3  0  0  0  0  0  0
  -27.8420  -25.2040   22.2340 C   0  0  0  0  0  1  0  0  0  0  0  0
  -28.5070  -25.1270   20.8470 C   0  0  0  0  0  3  0  0  0  0  0  0
  -28.3960  -26.4480   20.1420 O   0  0  0  0  0  0  0  0  0  0  0  0
  -24.6500  -31.8570   23.2120 C   0  0  0  0  0  0  0  0  0  0  0  0
  -27.2530  -27.2680   20.1760 C   0  0  0  0  0  0  0  0  0  0  0  0
  -23.4430  -30.4510   21.5780 C   0  0  0  0  0  3  0  0  0  0  0  0
  -24.8880  -28.8850   20.1600 C   0  0  0  0  0  0  0  0  0  0  0  0
  -25.9800  -30.7680   21.3840 C   0  0  0  0  0  2  0  0  0  0  0  0
  -26.0590  -29.3810   20.7470 C   0  0  0  0  0  0  0  0  0  0  0  0
  -27.2480  -28.5880   20.7350 C   0  0  0  0  0  3  0  0  0  0  0  0
  -26.0600  -26.8200   19.5770 C   0  0  0  0  0  3  0  0  0  0  0  0
  -24.8930  -27.6120   19.5650 C   0  0  0  0  0  3  0  0  0  0  0  0
  -23.6540  -29.7640   20.2010 C   0  0  0  0  0  2  0  0  0  0  0  0
  -24.7100  -31.0460   22.1120 N   0  0  0  0  0  0  0  0  0  0  0  0
  -23.5680  -32.1330   23.7490 O   0  0  0  0  0  0  0  0  0  0  0  0
  -22.7840  -29.4380   22.5480 C   0  0  0  0  0  0  0  0  0  0  0  0
  -21.4610  -29.2500   22.4170 N   0  0  0  0  0  0  0  0  0  0  0  0
  -23.4650  -28.8230   23.3750 O   0  0  0  0  0  0  0  0  0  0  0  0
  -20.9740  -29.7920   21.7150 H   0  0  0  0  0  0  0  0  0  0  0  0
  -18.0900  -28.0190   22.8960 C   0  0  0  0  0  0  0  0  0  0  0  0
  -20.6440  -28.3130   23.1910 C   0  0  0  0  0  3  0  0  0  0  0  0
  -20.7680  -26.8770   22.6310 C   0  0  0  0  0  2  0  0  0  0  0  0
  -19.6800  -26.5310   21.6090 C   0  0  0  0  0  2  0  0  0  0  0  0
  -18.2910  -26.6650   22.2380 C   0  0  0  0  0  2  0  0  0  0  0  0
  -19.1960  -28.7990   23.3300 C   0  0  0  0  0  0  0  0  0  0  0  0
  -18.9560  -30.0670   23.9040 C   0  0  0  0  0  3  0  0  0  0  0  0
  -17.6440  -30.5530   24.0530 C   0  0  0  0  0  3  0  0  0  0  0  0
  -16.5530  -29.7690   23.6390 C   0  0  0  0  0  3  0  0  0  0  0  0
  -16.7770  -28.5050   23.0640 C   0  0  0  0  0  3  0  0  0  0  0  0
  -25.9320  -32.4930   23.8320 C   0  0  0  0  0  3  0  0  0  0  0  0
  -25.6170  -33.8890   24.1680 N   0  0  0  0  0  0  0  0  0  0  0  0
  -25.9440  -34.9470   23.4130 C   0  0  0  0  0  0  0  0  0  0  0  0
  -26.6130  -34.8510   22.3810 O   0  0  0  0  0  0  0  0  0  0  0  0
  -25.0270  -34.0420   24.9720 H   0  0  0  0  0  0  0  0  0  0  0  0
  -24.2060  -36.7340   23.0700 C   0  0  0  0  0  1  0  0  0  0  0  0
  -25.4510  -36.3320   23.8770 C   0  0  0  0  0  3  0  0  0  0  0  0
  -27.5850  -37.2190   24.7070 C   0  0  0  0  0  1  0  0  0  0  0  0
  -26.4790  -37.3900   23.7680 N   0  0  0  0  0  0  0  0  0  0  0  0
  -26.0700  -38.3080   23.9220 H   0  0  0  0  0  0  0  0  0  0  0  0
  -26.4540  -31.7240   25.1070 C   0  0  1  0  0  0  0  0  0  0  0  0
  -25.3660  -31.4840   26.1790 C   0  0  0  0  0  1  0  0  0  0  0  0
  -27.0360  -30.3470   24.7160 C   0  0  0  0  0  1  0  0  0  0  0  0
  -27.6060  -32.5200   25.7650 C   0  0  0  0  0  1  0  0  0  0  0  0
  1  2  1  0
  1  3  2  0
  2  4  2  0
  3  5  1  0
  3  6  1  0
  4  6  1  0
  4  8  1  0
  6 48  1  0
  8  7  1  0
  9  8  1  0
  9 18  1  0
 10 18  1  0
 11 16  1  0
 12 13  1  0
 12 11  1  0
 14 13  1  0
 14 23  1  0
 14 15  1  0
 16 10  1  0
 16 15  1  0
 17 10  2  0
 18 19  1  0
 20 21  2  0
 21 40  1  0
 22 21  1  0
 22 25  1  0
 23 20  1  0
 23 24  1  0
 24 22  2  0
 25 26  1  0
 26 27  2  0
 28 31  1  0
 28 27  1  0
 29 28  2  0
 30 29  1  0
 30 25  2  0
 31 32  1  0
 32 33  1  0
 33 34  2  0
 35 34  1  0
 35 39  1  0
 36 35  2  0
 37 32  2  0
 37 36  1  0
 38 37  1  0
 40 41  1  0
 41 44  1  0
 41 43  1  0
 42 40  2  0
 45 46  1  0
 45 20  1  0
 47 45  1  0
 50 49  1  0
 50 48  1  0
 50 52  1  0
 52 51  1  0
 53 55  1  0
 53 52  1  0
 54 65  2  0
 55 60  1  0
 56 64  1  0
 56 66  1  0
 57 63  1  0
 57 59  1  0
 58 64  1  0
 59 58  1  0
 60 59  2  0
 61 55  2  0
 62 61  1  0
 62 57  2  0
 63 56  1  0
 64 54  1  0
 66 68  2  0
 67 66  1  0
 69 67  1  0
 70 79  2  0
 70 75  1  0
 71 67  1  0
 71 75  1  0
 72 71  1  0
 73 74  1  0
 73 72  1  0
 74 70  1  0
 75 76  2  0
 76 77  1  0
 78 77  2  0
 79 78  1  0
 80 54  1  0
 80 81  1  0
 80 90  1  0
 81 84  1  0
 82 86  1  0
 82 81  1  0
 83 82  2  0
 86 85  1  0
 88 86  1  0
 88 89  1  0
 88 87  1  0
 90 93  1  1
 90 91  1  0
 92 90  1  0
M  ISO  4  10 100  18 100  52 101  53 101
M  END
>  <TORSDO>  (27) 
F 21

>  <SCORE>  (27) 
-13.569

>  <name>  (27) 
26

>  <ligand_id>  (27) 
26

>  <original_smiles>  (27) 
[H]c1c([H])c([H])c2c(c1[H])C([H])([H])C([H])([H])C([H])([H])C2([H])N([H])C(=O)C1([H])N(C(=O)C([H])(N([H])C(=O)C([H])(N([H])C([H])([H])[H])C([H])([H])[H])C(C([H])([H])[H])(C([H])([H])[H])C([H])([H])[H])C([H])([H])c2c([H])c(OC([H])(C([H])([H])[H])C([H])(C([H])([H])[H])C([H])([H])n3c(C([H])([H])[H])c([H])c([H])c3C([H])(C([H])([H])[H])C([H])([H])N([H])C(=O)N3C([H])([H])C([H])([H])C([H])([H])C([H])(n4nc(-c5c([H])c([H])c(Oc6c([H])c([H])c(F)c([H])c6F)c([H])c5[H])c(C(=O)N([H])[H])c4N([H])[H])C3([H])[H])c([H])c([H])c2C1([H])[H]

>  <smiles>  (27) 
[H]c1c([H])c([H])c2c(c1[H])C([H])([H])C([H])([H])C([H])([H])C2([H])N([H])C(=O)C1([H])N(C(=O)C([H])(N([H])C(=O)C([H])(N([H])C([H])([H])[H])C([H])([H])[H])C(C([H])([H])[H])(C([H])([H])[H])C([H])([H])[H])C([H])([H])c2c([H])c(OC([H])(C([H])([H])[H])C([H])(C([H])([H])[H])C([H])([H])n3c(C([H])([H])[H])c([H])c([H])c3C([H])(C([H])([H])[H])C([H])([H])N([H])C(=O)N3C([H])([H])C([H])([H])C([H])([H])C([H])(n4nc(-c5c([H])c([H])c(Oc6c([H])c([H])c(F)c([H])c6F)c([H])c5[H])c(C(=O)N([H])[H])c4N([H])[H])C3([H])[H])c([H])c([H])c2C1([H])[H]

$$$$
27:0:0
     RDKit          3D

 93101  0  0  1  0  0  0  0  0999 V2000
  -28.1730  -20.6520   20.5530 C   0  0  0  0  0  3  0  0  0  0  0  0
  -28.6620  -19.3720   20.1840 C   0  0  0  0  0  0  0  0  0  0  0  0
  -29.0040  -21.5060   21.3020 C   0  0  0  0  0  0  0  0  0  0  0  0
  -29.9870  -19.0390   20.6020 C   0  0  0  0  0  0  0  0  0  0  0  0
  -30.2660  -21.1390   21.6380 N   0  0  0  0  0  0  0  0  0  0  0  0
  -30.7420  -19.9330   21.2950 N   0  0  0  0  0  0  0  0  0  0  0  0
  -28.1140  -18.4770   17.8760 C   0  0  0  0  0  1  0  0  0  0  0  0
  -26.2720  -18.6820   19.5890 C   0  0  0  0  0  1  0  0  0  0  0  0
  -27.7750  -18.4260   19.3760 C   0  0  0  0  0  3  0  0  0  0  0  0
  -28.4890  -22.8510   21.8280 C   0  0  0  0  0  2  0  0  0  0  0  0
  -28.5410  -24.0320   20.8270 C   0  0  0  0  0  2  0  0  0  0  0  0
  -28.5840  -25.4140   21.5240 C   0  0  0  0  0  2  0  0  0  0  0  0
  -28.5510  -26.4890   20.5780 O   0  0  0  0  0  0  0  0  0  0  0  0
  -24.7550  -31.8320   23.3960 C   0  0  0  0  0  0  0  0  0  0  0  0
  -27.3970  -27.2340   20.5700 C   0  0  0  0  0  0  0  0  0  0  0  0
  -23.5600  -30.3780   21.7880 C   0  0  0  0  0  3  0  0  0  0  0  0
  -25.0220  -28.7560   20.4630 C   0  0  0  0  0  0  0  0  0  0  0  0
  -26.0930  -30.6940   21.6280 C   0  0  0  0  0  2  0  0  0  0  0  0
  -26.1710  -29.2940   21.0550 C   0  0  0  0  0  0  0  0  0  0  0  0
  -27.3630  -28.5370   21.1110 C   0  0  0  0  0  3  0  0  0  0  0  0
  -26.2360  -26.7010   19.9820 C   0  0  0  0  0  3  0  0  0  0  0  0
  -25.0490  -27.4570   19.9220 C   0  0  0  0  0  3  0  0  0  0  0  0
  -23.7910  -29.6360   20.4430 C   0  0  0  0  0  2  0  0  0  0  0  0
  -24.8200  -30.9850   22.3280 N   0  0  0  0  0  0  0  0  0  0  0  0
  -23.6680  -32.1440   23.9020 O   0  0  0  0  0  0  0  0  0  0  0  0
  -22.8720  -29.4090   22.7770 C   0  0  0  0  0  0  0  0  0  0  0  0
  -21.5690  -29.1610   22.5650 N   0  0  0  0  0  0  0  0  0  0  0  0
  -23.5120  -28.8800   23.6910 O   0  0  0  0  0  0  0  0  0  0  0  0
  -21.1090  -29.6540   21.8130 H   0  0  0  0  0  0  0  0  0  0  0  0
  -18.2260  -27.8330   22.8520 C   0  0  0  0  0  0  0  0  0  0  0  0
  -20.7290  -28.2480   23.3400 C   0  0  0  0  0  3  0  0  0  0  0  0
  -20.9480  -26.7780   22.9130 C   0  0  0  0  0  2  0  0  0  0  0  0
  -19.9770  -26.3230   21.8210 C   0  0  0  0  0  2  0  0  0  0  0  0
  -18.5290  -26.4470   22.3060 C   0  0  0  0  0  2  0  0  0  0  0  0
  -19.2620  -28.6860   23.3180 C   0  0  0  0  0  0  0  0  0  0  0  0
  -18.9310  -29.9790   23.7740 C   0  0  0  0  0  3  0  0  0  0  0  0
  -17.5950  -30.4200   23.7800 C   0  0  0  0  0  3  0  0  0  0  0  0
  -16.5700  -29.5650   23.3390 C   0  0  0  0  0  3  0  0  0  0  0  0
  -16.8860  -28.2760   22.8780 C   0  0  0  0  0  3  0  0  0  0  0  0
  -26.0430  -32.4620   24.0180 C   0  0  0  0  0  3  0  0  0  0  0  0
  -25.7460  -33.8710   24.3100 N   0  0  0  0  0  0  0  0  0  0  0  0
  -26.0750  -34.8970   23.5160 C   0  0  0  0  0  0  0  0  0  0  0  0
  -26.7340  -34.7600   22.4830 O   0  0  0  0  0  0  0  0  0  0  0  0
  -25.1660  -34.0530   25.1160 H   0  0  0  0  0  0  0  0  0  0  0  0
  -24.3430  -36.6810   23.1300 C   0  0  0  0  0  1  0  0  0  0  0  0
  -25.5980  -36.3020   23.9350 C   0  0  0  0  0  3  0  0  0  0  0  0
  -27.7470  -37.2120   24.7000 C   0  0  0  0  0  1  0  0  0  0  0  0
  -26.6290  -37.3490   23.7700 N   0  0  0  0  0  0  0  0  0  0  0  0
  -26.2250  -38.2750   23.8940 H   0  0  0  0  0  0  0  0  0  0  0  0
  -26.5370  -31.7180   25.3180 C   0  0  1  0  0  0  0  0  0  0  0  0
  -25.4140  -31.4590   26.3480 C   0  0  0  0  0  1  0  0  0  0  0  0
  -27.1760  -30.3570   24.9600 C   0  0  0  0  0  1  0  0  0  0  0  0
  -27.6390  -32.5530   26.0140 C   0  0  0  0  0  1  0  0  0  0  0  0
  -30.7100  -17.7150   20.2730 C   0  0  0  0  0  2  0  0  0  0  0  0
  -31.2050  -16.9020   21.5080 C   0  0  0  0  0  2  0  0  0  0  0  0
  -31.7080  -14.4740   20.8070 C   0  0  0  0  0  0  0  0  0  0  0  0
  -31.4160  -12.3050   19.6450 C   0  0  0  0  0  2  0  0  0  0  0  0
  -30.5550  -12.5460   18.3870 C   0  0  0  0  0  2  0  0  0  0  0  0
  -29.0530  -12.4770   18.7260 C   0  0  0  0  0  2  0  0  0  0  0  0
  -28.6910  -13.3570   19.9480 C   0  0  0  0  0  3  0  0  0  0  0  0
  -29.6480  -13.0680   21.1250 C   0  0  0  0  0  2  0  0  0  0  0  0
  -31.0260  -13.3070   20.6510 N   0  0  0  0  0  0  0  0  0  0  0  0
  -32.8460  -14.6630   20.3600 O   0  0  0  0  0  0  0  0  0  0  0  0
  -30.9740  -15.4520   21.3780 N   0  0  0  0  0  0  0  0  0  0  0  0
  -30.0790  -15.1310   21.7220 H   0  0  0  0  0  0  0  0  0  0  0  0
  -26.3170  -14.1580   20.5420 C   0  0  0  0  0  0  0  0  0  0  0  0
  -25.1700  -13.4690   20.8390 C   0  0  0  0  0  0  0  0  0  0  0  0
  -25.5210  -12.0850   20.7890 C   0  0  0  0  0  0  0  0  0  0  0  0
  -27.2940  -13.1940   20.3410 N   0  0  0  0  0  0  0  0  0  0  0  0
  -26.8130  -11.9430   20.5380 N   0  0  0  0  0  0  0  0  0  0  0  0
  -24.6880  -10.8830   20.9060 C   0  0  0  0  0  0  0  0  0  0  0  0
  -24.9740   -9.8680   21.8460 C   0  0  0  0  0  3  0  0  0  0  0  0
  -24.1430   -8.7310   21.9490 C   0  0  0  0  0  3  0  0  0  0  0  0
  -23.0130   -8.5990   21.1070 C   0  0  0  0  0  0  0  0  0  0  0  0
  -22.7500   -9.5970   20.1530 C   0  0  0  0  0  3  0  0  0  0  0  0
  -23.5810  -10.7250   20.0480 C   0  0  0  0  0  3  0  0  0  0  0  0
  -22.1660   -7.5140   21.1190 O   0  0  0  0  0  0  0  0  0  0  0  0
  -21.9040   -6.8190   22.2710 C   0  0  0  0  0  0  0  0  0  0  0  0
  -21.3530   -7.4450   23.4100 C   0  0  0  0  0  3  0  0  0  0  0  0
  -21.0340   -6.6780   24.5490 C   0  0  0  0  0  3  0  0  0  0  0  0
  -21.2550   -5.2900   24.5480 C   0  0  0  0  0  0  0  0  0  0  0  0
  -21.7970   -4.6630   23.4130 C   0  0  0  0  0  3  0  0  0  0  0  0
  -22.1210   -5.4260   22.2770 C   0  0  0  0  0  0  0  0  0  0  0  0
  -22.6250   -4.8150   21.1770 F   0  0  0  0  0  0  0  0  0  0  0  0
  -20.9420   -4.5520   25.6400 F   0  0  0  0  0  0  0  0  0  0  0  0
  -23.8060  -14.0530   21.0630 C   0  0  0  0  0  0  0  0  0  0  0  0
  -22.9920  -13.4090   21.8960 N   0  0  0  0  0  0  0  0  0  0  0  0
  -23.4710  -15.1120   20.5360 O   0  0  0  0  0  0  0  0  0  0  0  0
  -23.2780  -12.5520   22.3470 H   0  0  0  0  0  0  0  0  0  0  0  0
  -22.0740  -13.7810   22.0930 H   0  0  0  0  0  0  0  0  0  0  0  0
  -26.6010  -15.5120   20.4080 N   0  0  0  0  0  0  0  0  0  0  0  0
  -25.8620  -16.2040   20.4370 H   0  0  0  0  0  0  0  0  0  0  0  0
  -27.4770  -15.8780   20.0600 H   0  0  0  0  0  0  0  0  0  0  0  0
  1  3  1  0
  2  1  2  0
  2  4  1  0
  3  5  2  0
  3 10  1  0
  4  6  2  0
  6  5  1  0
  7  9  1  0
  9  8  1  0
  9  2  1  0
 11 12  1  0
 11 10  1  0
 13 12  1  0
 14 25  2  0
 15 13  1  0
 15 20  1  0
 16 24  1  0
 16 26  1  0
 17 19  1  0
 18 24  1  0
 19 20  2  0
 19 18  1  0
 21 15  2  0
 22 21  1  0
 22 17  2  0
 23 17  1  0
 23 16  1  0
 24 14  1  0
 26 28  2  0
 27 26  1  0
 29 27  1  0
 30 39  2  0
 30 35  1  0
 31 27  1  0
 32 31  1  0
 33 34  1  0
 33 32  1  0
 34 30  1  0
 35 31  1  0
 35 36  2  0
 36 37  1  0
 38 37  2  0
 39 38  1  0
 40 14  1  0
 40 41  1  0
 40 50  1  0
 41 44  1  0
 42 46  1  0
 42 41  1  0
 43 42  2  0
 46 45  1  0
 48 49  1  0
 48 46  1  0
 48 47  1  0
 50 53  1  1
 50 51  1  0
 52 50  1  0
 54  4  1  0
 54 55  1  0
 56 64  1  0
 57 62  1  0
 58 59  1  0
 58 57  1  0
 60 59  1  0
 60 69  1  0
 60 61  1  0
 62 56  1  0
 62 61  1  0
 63 56  2  0
 64 55  1  0
 64 65  1  0
 66 67  2  0
 67 86  1  0
 68 67  1  0
 68 71  1  0
 69 70  1  0
 69 66  1  0
 70 68  2  0
 71 72  1  0
 72 73  2  0
 74 77  1  0
 74 73  1  0
 75 74  2  0
 76 75  1  0
 76 71  2  0
 77 78  1  0
 78 83  2  0
 78 79  1  0
 79 80  2  0
 81 80  1  0
 81 85  1  0
 82 81  2  0
 83 82  1  0
 84 83  1  0
 86 87  1  0
 87 90  1  0
 87 89  1  0
 88 86  2  0
 91 92  1  0
 91 66  1  0
 93 91  1  0
M  ISO  4  12 101  13 101  56 100  64 100
M  END
>  <TORSDO>  (28) 
F 22

>  <SCORE>  (28) 
-12.173

>  <name>  (28) 
27

>  <ligand_id>  (28) 
27

>  <original_smiles>  (28) 
[H]c1c([H])c([H])c2c(c1[H])C([H])([H])C([H])([H])C([H])([H])C2([H])N([H])C(=O)C1([H])N(C(=O)C([H])(N([H])C(=O)C([H])(N([H])C([H])([H])[H])C([H])([H])[H])C(C([H])([H])[H])(C([H])([H])[H])C([H])([H])[H])C([H])([H])c2c([H])c(OC([H])([H])C([H])([H])C([H])([H])c3nnc(C([H])([H])C([H])([H])N([H])C(=O)N4C([H])([H])C([H])([H])C([H])([H])C([H])(n5nc(-c6c([H])c([H])c(Oc7c([H])c([H])c(F)c([H])c7F)c([H])c6[H])c(C(=O)N([H])[H])c5N([H])[H])C4([H])[H])c(C([H])(C([H])([H])[H])C([H])([H])[H])c3[H])c([H])c([H])c2C1([H])[H]

>  <smiles>  (28) 
[H]c1c([H])c([H])c2c(c1[H])C([H])([H])C([H])([H])C([H])([H])C2([H])N([H])C(=O)C1([H])N(C(=O)C([H])(N([H])C(=O)C([H])(N([H])C([H])([H])[H])C([H])([H])[H])C(C([H])([H])[H])(C([H])([H])[H])C([H])([H])[H])C([H])([H])c2c([H])c(OC([H])([H])C([H])([H])C([H])([H])c3nnc(C([H])([H])C([H])([H])N([H])C(=O)N4C([H])([H])C([H])([H])C([H])([H])C([H])(n5nc(-c6c([H])c([H])c(Oc7c([H])c([H])c(F)c([H])c7F)c([H])c6[H])c(C(=O)N([H])[H])c5N([H])[H])C4([H])[H])c(C([H])(C([H])([H])[H])C([H])([H])[H])c3[H])c([H])c([H])c2C1([H])[H]

$$$$
28:0:0
     RDKit          3D

 89 96  0  0  1  0  0  0  0  0999 V2000
  -30.3730  -23.2510   19.7940 C   0  0  0  0  0  1  0  0  0  0  0  0
  -28.3110  -22.6480   18.5660 C   0  0  0  0  0  1  0  0  0  0  0  0
  -28.8960  -22.8460   19.9720 C   0  0  2  0  0  0  0  0  0  0  0  0
  -28.0900  -24.3440   20.5340 C   0  0  0  0  0  2  0  0  0  0  0  0
  -28.2900  -25.9390   20.2510 O   0  0  0  0  0  0  0  0  0  0  0  0
  -24.6630  -31.8530   23.2010 C   0  0  0  0  0  0  0  0  0  0  0  0
  -27.2480  -26.9920   20.2380 C   0  0  0  0  0  0  0  0  0  0  0  0
  -23.4770  -30.4390   21.5700 C   0  0  0  0  0  3  0  0  0  0  0  0
  -24.9330  -28.8290   20.1710 C   0  0  0  0  0  0  0  0  0  0  0  0
  -26.0400  -30.6700   21.4230 C   0  0  0  0  0  2  0  0  0  0  0  0
  -26.1180  -29.2560   20.7850 C   0  0  0  0  0  0  0  0  0  0  0  0
  -27.2730  -28.3600   20.7890 C   0  0  0  0  0  3  0  0  0  0  0  0
  -26.0310  -26.7000   19.5840 C   0  0  0  0  0  3  0  0  0  0  0  0
  -24.9120  -27.5700   19.5500 C   0  0  0  0  0  3  0  0  0  0  0  0
  -23.7110  -29.7420   20.2010 C   0  0  0  0  0  2  0  0  0  0  0  0
  -24.7470  -31.0130   22.1180 N   0  0  0  0  0  0  0  0  0  0  0  0
  -23.5710  -32.1420   23.7170 O   0  0  0  0  0  0  0  0  0  0  0  0
  -22.7860  -29.4470   22.5420 C   0  0  0  0  0  0  0  0  0  0  0  0
  -21.4550  -29.2830   22.4200 N   0  0  0  0  0  0  0  0  0  0  0  0
  -23.4530  -28.8260   23.3730 O   0  0  0  0  0  0  0  0  0  0  0  0
  -20.9710  -29.8360   21.7260 H   0  0  0  0  0  0  0  0  0  0  0  0
  -18.0730  -28.0780   22.9350 C   0  0  0  0  0  0  0  0  0  0  0  0
  -20.6320  -28.3510   23.1980 C   0  0  0  0  0  3  0  0  0  0  0  0
  -20.7360  -26.9140   22.6360 C   0  0  0  0  0  2  0  0  0  0  0  0
  -19.6350  -26.5800   21.6240 C   0  0  0  0  0  2  0  0  0  0  0  0
  -18.2530  -26.7250   22.2650 C   0  0  0  0  0  2  0  0  0  0  0  0
  -19.1890  -28.8480   23.3580 C   0  0  0  0  0  0  0  0  0  0  0  0
  -18.9650  -30.1110   23.9460 C   0  0  0  0  0  3  0  0  0  0  0  0
  -17.6580  -30.6070   24.1130 C   0  0  0  0  0  3  0  0  0  0  0  0
  -16.5560  -29.8350   23.7030 C   0  0  0  0  0  3  0  0  0  0  0  0
  -16.7640  -28.5730   23.1200 C   0  0  0  0  0  3  0  0  0  0  0  0
  -25.9310  -32.5030   23.8300 C   0  0  0  0  0  3  0  0  0  0  0  0
  -25.6060  -33.9010   24.1630 N   0  0  0  0  0  0  0  0  0  0  0  0
  -25.9310  -34.9630   23.4150 C   0  0  0  0  0  0  0  0  0  0  0  0
  -26.5990  -34.8700   22.3820 O   0  0  0  0  0  0  0  0  0  0  0  0
  -25.0120  -34.0460   24.9660 H   0  0  0  0  0  0  0  0  0  0  0  0
  -24.1900  -36.7530   23.0850 C   0  0  0  0  0  1  0  0  0  0  0  0
  -25.4400  -36.3480   23.8850 C   0  0  0  0  0  3  0  0  0  0  0  0
  -27.5750  -37.2440   24.7040 C   0  0  0  0  0  1  0  0  0  0  0  0
  -26.4640  -37.4090   23.7700 N   0  0  0  0  0  0  0  0  0  0  0  0
  -26.0530  -38.3260   23.9230 H   0  0  0  0  0  0  0  0  0  0  0  0
  -26.4420  -31.7420   25.1170 C   0  0  1  0  0  0  0  0  0  0  0  0
  -25.3440  -31.5120   26.1820 C   0  0  0  0  0  1  0  0  0  0  0  0
  -27.0320  -30.3630   24.7450 C   0  0  0  0  0  1  0  0  0  0  0  0
  -27.5880  -32.5460   25.7780 C   0  0  0  0  0  1  0  0  0  0  0  0
  -28.9390  -21.1890   20.6790 C   0  0  0  0  0  3  0  0  0  0  0  0
  -29.4890  -22.2360   23.0130 C   0  0  0  0  0  1  0  0  0  0  0  0
  -29.8220  -21.1780   21.9510 C   0  0  0  0  0  2  0  0  0  0  0  0
  -27.8800  -19.1550   19.2700 C   0  0  0  0  0  1  0  0  0  0  0  0
  -29.1900  -19.5640   19.9540 C   0  0  0  0  0  3  0  0  0  0  0  0
  -29.8580  -18.0520   20.6270 C   0  0  0  0  0  2  0  0  0  0  0  0
  -30.4130  -15.2030   20.1940 C   0  0  0  0  0  0  0  0  0  0  0  0
  -30.3530  -12.7910   19.2650 C   0  0  0  0  0  2  0  0  0  0  0  0
  -29.4010  -12.6190   18.0550 C   0  0  0  0  0  2  0  0  0  0  0  0
  -27.9570  -12.3610   18.5240 C   0  0  0  0  0  2  0  0  0  0  0  0
  -27.5380  -13.3120   19.6730 C   0  0  0  0  0  3  0  0  0  0  0  0
  -28.6110  -13.4240   20.7740 C   0  0  0  0  0  2  0  0  0  0  0  0
  -29.8310  -13.9150   20.1150 N   0  0  0  0  0  0  0  0  0  0  0  0
  -31.6370  -15.2120   20.0140 O   0  0  0  0  0  0  0  0  0  0  0  0
  -29.6380  -16.4500   20.2740 N   0  0  0  0  0  0  0  0  0  0  0  0
  -28.6530  -16.2280   20.2450 H   0  0  0  0  0  0  0  0  0  0  0  0
  -25.1770  -13.8710   20.4620 C   0  0  0  0  0  0  0  0  0  0  0  0
  -24.1220  -13.0920   20.8480 C   0  0  0  0  0  0  0  0  0  0  0  0
  -24.5930  -11.7440   20.8140 C   0  0  0  0  0  0  0  0  0  0  0  0
  -26.2180  -12.9980   20.2050 N   0  0  0  0  0  0  0  0  0  0  0  0
  -25.8800  -11.7120   20.4860 N   0  0  0  0  0  0  0  0  0  0  0  0
  -23.8720  -10.4790   21.0160 C   0  0  0  0  0  0  0  0  0  0  0  0
  -24.3200   -9.5100   21.9400 C   0  0  0  0  0  3  0  0  0  0  0  0
  -23.5980   -8.3130   22.1300 C   0  0  0  0  0  3  0  0  0  0  0  0
  -22.4100   -8.0760   21.3970 C   0  0  0  0  0  0  0  0  0  0  0  0
  -21.9820   -9.0340   20.4600 C   0  0  0  0  0  3  0  0  0  0  0  0
  -22.7050  -10.2220   20.2690 C   0  0  0  0  0  3  0  0  0  0  0  0
  -21.6570   -6.9310   21.4970 O   0  0  0  0  0  0  0  0  0  0  0  0
  -21.6390   -6.1810   22.6450 C   0  0  0  0  0  0  0  0  0  0  0  0
  -21.2520   -6.7280   23.8870 C   0  0  0  0  0  3  0  0  0  0  0  0
  -21.1810   -5.9040   25.0290 C   0  0  0  0  0  3  0  0  0  0  0  0
  -21.4840   -4.5340   24.9280 C   0  0  0  0  0  0  0  0  0  0  0  0
  -21.8640   -3.9850   23.6900 C   0  0  0  0  0  3  0  0  0  0  0  0
  -21.9380   -4.8070   22.5510 C   0  0  0  0  0  0  0  0  0  0  0  0
  -22.2830   -4.2680   21.3570 F   0  0  0  0  0  0  0  0  0  0  0  0
  -21.4090   -3.7400   26.0220 F   0  0  0  0  0  0  0  0  0  0  0  0
  -22.7270  -13.5660   21.1320 C   0  0  0  0  0  0  0  0  0  0  0  0
  -22.0110  -12.8720   22.0100 N   0  0  0  0  0  0  0  0  0  0  0  0
  -22.2810  -14.5870   20.6110 O   0  0  0  0  0  0  0  0  0  0  0  0
  -22.3860  -12.0460   22.4520 H   0  0  0  0  0  0  0  0  0  0  0  0
  -21.0740  -13.1700   22.2430 H   0  0  0  0  0  0  0  0  0  0  0  0
  -25.3290  -15.2430   20.2780 N   0  0  0  0  0  0  0  0  0  0  0  0
  -24.5540  -15.8870   20.3960 H   0  0  0  0  0  0  0  0  0  0  0  0
  -26.1550  -15.6840   19.8990 H   0  0  0  0  0  0  0  0  0  0  0  0
  3  1  1  6
  2  3  1  0
  3  4  1  0
  3 46  1  0
  5  4  1  0
  6 17  2  0
  7  5  1  0
  7 12  1  0
  8 16  1  0
  8 18  1  0
  9 15  1  0
  9 11  1  0
 10 16  1  0
 11 12  2  0
 11 10  1  0
 13  7  2  0
 14 13  1  0
 14  9  2  0
 15  8  1  0
 16  6  1  0
 18 20  2  0
 19 18  1  0
 21 19  1  0
 22 31  2  0
 22 27  1  0
 23 19  1  0
 23 27  1  0
 24 23  1  0
 25 26  1  0
 25 24  1  0
 26 22  1  0
 27 28  2  0
 28 29  1  0
 30 29  2  0
 31 30  1  0
 32  6  1  0
 32 33  1  0
 32 42  1  0
 33 36  1  0
 34 38  1  0
 34 33  1  0
 35 34  2  0
 38 37  1  0
 40 38  1  0
 40 41  1  0
 40 39  1  0
 42 45  1  1
 42 43  1  0
 44 42  1  0
 46 48  1  0
 48 47  1  0
 50 49  1  0
 50 51  1  0
 50 46  1  0
 52 60  1  0
 53 58  1  0
 54 55  1  0
 54 53  1  0
 56 55  1  0
 56 65  1  0
 56 57  1  0
 58 52  1  0
 58 57  1  0
 59 52  2  0
 60 51  1  0
 61 60  1  0
 62 63  2  0
 63 82  1  0
 64 63  1  0
 64 67  1  0
 65 62  1  0
 65 66  1  0
 66 64  2  0
 67 68  1  0
 68 69  2  0
 70 73  1  0
 70 69  1  0
 71 70  2  0
 72 71  1  0
 72 67  2  0
 73 74  1  0
 74 75  1  0
 75 76  2  0
 77 76  1  0
 77 81  1  0
 78 77  2  0
 79 74  2  0
 79 78  1  0
 80 79  1  0
 82 83  1  0
 83 86  1  0
 83 85  1  0
 84 82  2  0
 87 88  1  0
 87 62  1  0
 89 87  1  0
M  ISO  4   4 101   5 101  52 100  60 100
M  END
>  <TORSDO>  (29) 
F 21

>  <SCORE>  (29) 
-15.844

>  <name>  (29) 
28

>  <ligand_id>  (29) 
28

>  <original_smiles>  (29) 
[H]c1c([H])c([H])c2c(c1[H])C([H])([H])C([H])([H])C([H])([H])C2([H])N([H])C(=O)C1([H])N(C(=O)C([H])(N([H])C(=O)C([H])(N([H])C([H])([H])[H])C([H])([H])[H])C(C([H])([H])[H])(C([H])([H])[H])C([H])([H])[H])C([H])([H])c2c([H])c(OC([H])([H])C(C([H])([H])[H])(C([H])([H])[H])C([H])(C([H])([H])C([H])([H])[H])C([H])(C([H])([H])[H])C([H])([H])N([H])C(=O)N3C([H])([H])C([H])([H])C([H])([H])C([H])(n4nc(-c5c([H])c([H])c(Oc6c([H])c([H])c(F)c([H])c6F)c([H])c5[H])c(C(=O)N([H])[H])c4N([H])[H])C3([H])[H])c([H])c([H])c2C1([H])[H]

>  <smiles>  (29) 
[H]c1c([H])c([H])c2c(c1[H])C([H])([H])C([H])([H])C([H])([H])C2([H])N([H])C(=O)C1([H])N(C(=O)C([H])(N([H])C(=O)C([H])(N([H])C([H])([H])[H])C([H])([H])[H])C(C([H])([H])[H])(C([H])([H])[H])C([H])([H])[H])C([H])([H])c2c([H])c(OC([H])([H])C(C([H])([H])[H])(C([H])([H])[H])C([H])(C([H])([H])C([H])([H])[H])C([H])(C([H])([H])[H])C([H])([H])N([H])C(=O)N3C([H])([H])C([H])([H])C([H])([H])C([H])(n4nc(-c5c([H])c([H])c(Oc6c([H])c([H])c(F)c([H])c6F)c([H])c5[H])c(C(=O)N([H])[H])c4N([H])[H])C3([H])[H])c([H])c([H])c2C1([H])[H]

$$$$
29:0:0
     RDKit          3D

 96104  0  0  1  0  0  0  0  0999 V2000
  -28.7340  -22.0660   21.8470 C   0  0  0  0  0  3  0  0  0  0  0  0
  -30.7540  -20.9620   22.5210 C   0  0  0  0  0  3  0  0  0  0  0  0
  -29.6870  -21.8080   22.8360 C   0  0  0  0  0  0  0  0  0  0  0  0
  -28.7190  -21.3700   20.6170 C   0  0  0  0  0  0  0  0  0  0  0  0
  -30.7730  -20.2410   21.3070 C   0  0  0  0  0  0  0  0  0  0  0  0
  -29.6040  -20.1910   20.4710 C   0  0  0  0  0  0  0  0  0  0  0  0
  -32.7970  -18.7450   21.8950 C   0  0  0  0  0  1  0  0  0  0  0  0
  -33.0990  -20.8740   20.5790 C   0  0  0  0  0  1  0  0  0  0  0  0
  -32.1450  -19.7050   20.8750 C   0  0  0  0  0  3  0  0  0  0  0  0
  -29.8380  -18.9630   18.1930 C   0  0  0  0  0  1  0  0  0  0  0  0
  -29.3320  -18.8360   19.6370 C   0  0  0  0  0  3  0  0  0  0  0  0
  -29.8750  -17.4220   20.2730 C   0  0  0  0  0  2  0  0  0  0  0  0
  -30.4510  -14.9170   19.6750 C   0  0  0  0  0  0  0  0  0  0  0  0
  -30.3200  -12.5340   18.9170 C   0  0  0  0  0  2  0  0  0  0  0  0
  -29.3020  -12.3930   17.7650 C   0  0  0  0  0  2  0  0  0  0  0  0
  -27.8730  -12.2080   18.3150 C   0  0  0  0  0  2  0  0  0  0  0  0
  -27.5220  -13.2300   19.4280 C   0  0  0  0  0  3  0  0  0  0  0  0
  -28.6460  -13.3310   20.4780 C   0  0  0  0  0  2  0  0  0  0  0  0
  -29.8800  -13.6690   19.7560 N   0  0  0  0  0  0  0  0  0  0  0  0
  -31.6360  -15.0400   19.3600 O   0  0  0  0  0  0  0  0  0  0  0  0
  -29.6110  -16.0130   19.7600 N   0  0  0  0  0  0  0  0  0  0  0  0
  -28.6370  -15.7550   19.7960 H   0  0  0  0  0  0  0  0  0  0  0  0
  -25.2180  -13.8300   20.3840 C   0  0  0  0  0  0  0  0  0  0  0  0
  -24.1770  -13.0580   20.8220 C   0  0  0  0  0  0  0  0  0  0  0  0
  -24.6150  -11.7030   20.7140 C   0  0  0  0  0  0  0  0  0  0  0  0
  -26.2240  -12.9440   20.0330 N   0  0  0  0  0  0  0  0  0  0  0  0
  -25.8750  -11.6590   20.2960 N   0  0  0  0  0  0  0  0  0  0  0  0
  -23.8910  -10.4440   20.9280 C   0  0  0  0  0  0  0  0  0  0  0  0
  -24.3520   -9.4710   21.8440 C   0  0  0  0  0  3  0  0  0  0  0  0
  -23.6270   -8.2760   22.0450 C   0  0  0  0  0  3  0  0  0  0  0  0
  -22.4270   -8.0450   21.3320 C   0  0  0  0  0  0  0  0  0  0  0  0
  -21.9840   -9.0060   20.4050 C   0  0  0  0  0  3  0  0  0  0  0  0
  -22.7100  -10.1920   20.2020 C   0  0  0  0  0  3  0  0  0  0  0  0
  -21.6700   -6.9040   21.4440 O   0  0  0  0  0  0  0  0  0  0  0  0
  -21.6170   -6.1890   22.6140 C   0  0  0  0  0  0  0  0  0  0  0  0
  -21.1870   -6.7730   23.8260 C   0  0  0  0  0  3  0  0  0  0  0  0
  -21.0820   -5.9840   24.9890 C   0  0  0  0  0  3  0  0  0  0  0  0
  -21.3970   -4.6130   24.9420 C   0  0  0  0  0  0  0  0  0  0  0  0
  -21.8190   -4.0290   23.7340 C   0  0  0  0  0  3  0  0  0  0  0  0
  -21.9260   -4.8150   22.5740 C   0  0  0  0  0  0  0  0  0  0  0  0
  -22.3140   -4.2420   21.4090 F   0  0  0  0  0  0  0  0  0  0  0  0
  -21.2880   -3.8540   26.0570 F   0  0  0  0  0  0  0  0  0  0  0  0
  -22.8140  -13.5420   21.2250 C   0  0  0  0  0  0  0  0  0  0  0  0
  -22.1590  -12.8360   22.1400 N   0  0  0  0  0  0  0  0  0  0  0  0
  -22.3430  -14.5810   20.7630 O   0  0  0  0  0  0  0  0  0  0  0  0
  -22.5540  -11.9930   22.5300 H   0  0  0  0  0  0  0  0  0  0  0  0
  -21.2500  -13.1430   22.4570 H   0  0  0  0  0  0  0  0  0  0  0  0
  -25.3870  -15.2030   20.2280 N   0  0  0  0  0  0  0  0  0  0  0  0
  -24.6450  -15.8690   20.4150 H   0  0  0  0  0  0  0  0  0  0  0  0
  -26.2060  -15.6330   19.8190 H   0  0  0  0  0  0  0  0  0  0  0  0
  -30.6520  -23.6690   24.2700 C   0  0  0  0  0  1  0  0  0  0  0  0
  -29.6330  -22.5270   24.1710 C   0  0  0  0  0  2  0  0  0  0  0  0
  -27.7600  -22.0870   19.5910 C   0  0  0  0  0  2  0  0  0  0  0  0
  -28.0640  -23.6530   19.2050 C   0  0  0  0  0  3  0  0  0  0  0  0
  -26.9800  -24.8430   19.3610 C   0  0  0  0  0  3  0  0  0  0  0  0
  -27.3530  -26.3020   19.2230 O   0  0  0  0  0  0  0  0  0  0  0  0
  -24.6890  -31.7070   23.3130 C   0  0  0  0  0  0  0  0  0  0  0  0
  -26.3600  -27.2960   19.4240 C   0  0  0  0  0  0  0  0  0  0  0  0
  -23.1410  -30.6330   21.7200 C   0  0  0  0  0  3  0  0  0  0  0  0
  -24.2160  -29.1460   19.9350 C   0  0  0  0  0  0  0  0  0  0  0  0
  -25.6570  -30.7270   21.2130 C   0  0  0  0  0  2  0  0  0  0  0  0
  -25.5030  -29.4340   20.4090 C   0  0  0  0  0  0  0  0  0  0  0  0
  -26.5770  -28.5230   20.1430 C   0  0  0  0  0  3  0  0  0  0  0  0
  -25.0520  -27.0880   18.9310 C   0  0  0  0  0  3  0  0  0  0  0  0
  -23.9960  -27.9830   19.1840 C   0  0  0  0  0  3  0  0  0  0  0  0
  -23.1000  -30.1180   20.2570 C   0  0  0  0  0  2  0  0  0  0  0  0
  -24.5240  -31.0330   22.1360 N   0  0  0  0  0  0  0  0  0  0  0  0
  -23.7200  -32.0120   24.0230 O   0  0  0  0  0  0  0  0  0  0  0  0
  -22.5040  -29.5730   22.6490 C   0  0  0  0  0  0  0  0  0  0  0  0
  -21.1750  -29.3970   22.5530 N   0  0  0  0  0  0  0  0  0  0  0  0
  -23.2040  -28.9100   23.4180 O   0  0  0  0  0  0  0  0  0  0  0  0
  -20.6680  -29.9900   21.9090 H   0  0  0  0  0  0  0  0  0  0  0  0
  -17.8590  -27.9880   22.9100 C   0  0  0  0  0  0  0  0  0  0  0  0
  -20.3790  -28.4220   23.3000 C   0  0  0  0  0  3  0  0  0  0  0  0
  -20.6020  -26.9910   22.7610 C   0  0  0  0  0  2  0  0  0  0  0  0
  -19.5770  -26.5780   21.7010 C   0  0  0  0  0  2  0  0  0  0  0  0
  -18.1570  -26.6420   22.2720 C   0  0  0  0  0  2  0  0  0  0  0  0
  -18.9030  -28.8300   23.3780 C   0  0  0  0  0  0  0  0  0  0  0  0
  -18.5730  -30.0840   23.9370 C   0  0  0  0  0  3  0  0  0  0  0  0
  -17.2320  -30.5020   24.0290 C   0  0  0  0  0  3  0  0  0  0  0  0
  -16.2020  -29.6580   23.5800 C   0  0  0  0  0  3  0  0  0  0  0  0
  -16.5150  -28.4040   23.0250 C   0  0  0  0  0  3  0  0  0  0  0  0
  -26.1010  -32.1420   23.8120 C   0  0  0  0  0  3  0  0  0  0  0  0
  -25.9750  -33.4920   24.3800 N   0  0  0  0  0  0  0  0  0  0  0  0
  -26.3500  -34.6200   23.7630 C   0  0  0  0  0  0  0  0  0  0  0  0
  -26.9080  -34.6250   22.6610 O   0  0  0  0  0  0  0  0  0  0  0  0
  -25.4800  -33.5710   25.2570 H   0  0  0  0  0  0  0  0  0  0  0  0
  -24.8130  -36.6140   23.8670 C   0  0  0  0  0  1  0  0  0  0  0  0
  -26.0600  -35.9550   24.4770 C   0  0  0  0  0  3  0  0  0  0  0  0
  -28.3410  -36.4770   25.2220 C   0  0  0  0  0  1  0  0  0  0  0  0
  -27.1930  -36.9060   24.4300 N   0  0  0  0  0  0  0  0  0  0  0  0
  -26.9080  -37.8230   24.7590 H   0  0  0  0  0  0  0  0  0  0  0  0
  -26.7190  -31.1500   24.8730 C   0  0  1  0  0  0  0  0  0  0  0  0
  -25.7690  -30.8300   26.0510 C   0  0  0  0  0  1  0  0  0  0  0  0
  -27.1080  -29.8100   24.2080 C   0  0  0  0  0  1  0  0  0  0  0  0
  -28.0220  -31.7510   25.4520 C   0  0  0  0  0  1  0  0  0  0  0  0
  1  3  1  0
  2  3  2  0
  3 52  1  0
  4  1  2  0
  5  2  1  0
  6  4  1  0
  6  5  2  0
  8  9  1  0
  9  5  1  0
  9  7  1  0
 11 10  1  0
 11 12  1  0
 11  6  1  0
 13 19  1  0
 13 21  1  0
 14 19  1  0
 15 16  1  0
 15 14  1  0
 17 16  1  0
 17 26  1  0
 17 18  1  0
 19 18  1  0
 20 13  2  0
 21 22  1  0
 21 12  1  0
 23 24  2  0
 24 43  1  0
 25 24  1  0
 25 28  1  0
 26 27  1  0
 26 23  1  0
 27 25  2  0
 28 29  1  0
 29 30  2  0
 31 34  1  0
 31 30  1  0
 32 31  2  0
 33 32  1  0
 33 28  2  0
 34 35  1  0
 35 36  1  0
 36 37  2  0
 38 37  1  0
 38 42  1  0
 39 38  2  0
 40 35  2  0
 40 39  1  0
 41 40  1  0
 43 44  1  0
 44 47  1  0
 44 46  1  0
 45 43  2  0
 48 23  1  0
 48 49  1  0
 50 48  1  0
 52 51  1  0
 53  4  1  0
 54 55  2  0
 54 53  1  0
 56 55  1  0
 56 58  1  0
 57 68  2  0
 58 63  1  0
 59 67  1  0
 59 69  1  0
 60 66  1  0
 60 62  1  0
 61 67  1  0
 62 61  1  0
 63 62  2  0
 64 65  1  0
 64 58  2  0
 65 60  2  0
 66 59  1  0
 67 57  1  0
 69 71  2  0
 70 69  1  0
 72 70  1  0
 73 82  2  0
 73 78  1  0
 74 70  1  0
 74 78  1  0
 75 74  1  0
 76 77  1  0
 76 75  1  0
 77 73  1  0
 78 79  2  0
 79 80  1  0
 81 80  2  0
 82 81  1  0
 83 57  1  0
 83 84  1  0
 83 93  1  0
 84 87  1  0
 85 84  1  0
 85 89  1  0
 86 85  2  0
 89 88  1  0
 91 89  1  0
 91 92  1  0
 91 90  1  0
 93 96  1  1
 93 94  1  0
 95 93  1  0
M  ISO  4  13 100  21 100  55 101  56 101
M  END
>  <TORSDO>  (30) 
F 23

>  <SCORE>  (30) 
-10.736

>  <name>  (30) 
29

>  <ligand_id>  (30) 
29

>  <original_smiles>  (30) 
[H]c1c([H])c([H])c2c(c1[H])C([H])([H])C([H])([H])C([H])([H])C2([H])N([H])C(=O)C1([H])N(C(=O)C([H])(N([H])C(=O)C([H])(N([H])C([H])([H])[H])C([H])([H])[H])C(C([H])([H])[H])(C([H])([H])[H])C([H])([H])[H])C([H])([H])c2c([H])c(OC([H])([H])C([H])([H])C([H])([H])c3c([H])c(C([H])([H])C([H])([H])[H])c([H])c(C([H])(C([H])([H])[H])C([H])([H])[H])c3C([H])(C([H])([H])[H])C([H])([H])N([H])C(=O)N3C([H])([H])C([H])([H])C([H])([H])C([H])(n4nc(-c5c([H])c([H])c(Oc6c([H])c([H])c(F)c([H])c6F)c([H])c5[H])c(C(=O)N([H])[H])c4N([H])[H])C3([H])[H])c([H])c([H])c2C1([H])[H]

>  <smiles>  (30) 
[H]c1c([H])c([H])c2c(c1[H])C([H])([H])C([H])([H])C([H])([H])C2([H])N([H])C(=O)C1([H])N(C(=O)C([H])(N([H])C(=O)C([H])(N([H])C([H])([H])[H])C([H])([H])[H])C(C([H])([H])[H])(C([H])([H])[H])C([H])([H])[H])C([H])([H])c2c([H])c(OC([H])([H])C([H])([H])C([H])([H])c3c([H])c(C([H])([H])C([H])([H])[H])c([H])c(C([H])(C([H])([H])[H])C([H])([H])[H])c3C([H])(C([H])([H])[H])C([H])([H])N([H])C(=O)N3C([H])([H])C([H])([H])C([H])([H])C([H])(n4nc(-c5c([H])c([H])c(Oc6c([H])c([H])c(F)c([H])c6F)c([H])c5[H])c(C(=O)N([H])[H])c4N([H])[H])C3([H])[H])c([H])c([H])c2C1([H])[H]

$$$$
30:0:0
     RDKit          3D

 90 98  0  0  1  0  0  0  0  0999 V2000
  -30.2440  -20.0510   19.8390 C   0  0  0  0  0  3  0  0  0  0  0  0
  -29.9440  -21.2520   20.5850 C   0  0  0  0  0  0  0  0  0  0  0  0
  -30.7990  -18.8910   20.4950 C   0  0  0  0  0  0  0  0  0  0  0  0
  -30.2350  -21.1490   21.9720 C   0  0  0  0  0  0  0  0  0  0  0  0
  -29.8340  -22.2110   22.9800 C   0  0  0  0  0  1  0  0  0  0  0  0
  -31.1280  -18.9710   21.8080 N   0  0  0  0  0  0  0  0  0  0  0  0
  -30.8350  -20.0620   22.5240 N   0  0  0  0  0  0  0  0  0  0  0  0
  -29.1690  -22.4870   19.9630 C   0  0  0  0  0  2  0  0  0  0  0  0
  -29.4960  -24.0300   20.2850 C   0  0  0  0  0  3  0  0  0  0  0  0
  -28.3430  -25.0800   19.9260 C   0  0  0  0  0  3  0  0  0  0  0  0
  -28.4990  -26.5410   20.1540 O   0  0  0  0  0  0  0  0  0  0  0  0
  -24.6380  -31.8220   23.2090 C   0  0  0  0  0  0  0  0  0  0  0  0
  -27.3590  -27.3660   20.0920 C   0  0  0  0  0  0  0  0  0  0  0  0
  -23.4630  -30.4210   21.5460 C   0  0  0  0  0  3  0  0  0  0  0  0
  -24.9500  -28.9240   20.1000 C   0  0  0  0  0  0  0  0  0  0  0  0
  -25.9940  -30.7990   21.3680 C   0  0  0  0  0  2  0  0  0  0  0  0
  -26.1070  -29.4300   20.7050 C   0  0  0  0  0  0  0  0  0  0  0  0
  -27.3100  -28.6620   20.6960 C   0  0  0  0  0  3  0  0  0  0  0  0
  -26.1760  -26.9220   19.4500 C   0  0  0  0  0  3  0  0  0  0  0  0
  -24.9880  -27.6740   19.4640 C   0  0  0  0  0  3  0  0  0  0  0  0
  -23.6930  -29.7670   20.1580 C   0  0  0  0  0  2  0  0  0  0  0  0
  -24.7170  -31.0300   22.0990 N   0  0  0  0  0  0  0  0  0  0  0  0
  -23.5480  -32.0680   23.7480 O   0  0  0  0  0  0  0  0  0  0  0  0
  -22.8200  -29.3800   22.4920 C   0  0  0  0  0  0  0  0  0  0  0  0
  -21.5030  -29.1550   22.3410 N   0  0  0  0  0  0  0  0  0  0  0  0
  -23.5060  -28.7760   23.3220 O   0  0  0  0  0  0  0  0  0  0  0  0
  -21.0070  -29.6950   21.6470 H   0  0  0  0  0  0  0  0  0  0  0  0
  -18.1720  -27.8040   22.7420 C   0  0  0  0  0  0  0  0  0  0  0  0
  -20.7050  -28.1860   23.0940 C   0  0  0  0  0  3  0  0  0  0  0  0
  -20.8930  -26.7560   22.5370 C   0  0  0  0  0  2  0  0  0  0  0  0
  -19.8410  -26.3730   21.4900 C   0  0  0  0  0  2  0  0  0  0  0  0
  -18.4350  -26.4580   22.0870 C   0  0  0  0  0  2  0  0  0  0  0  0
  -19.2380  -28.6220   23.2010 C   0  0  0  0  0  0  0  0  0  0  0  0
  -18.9400  -29.8780   23.7720 C   0  0  0  0  0  3  0  0  0  0  0  0
  -17.6080  -30.3180   23.8900 C   0  0  0  0  0  3  0  0  0  0  0  0
  -16.5560  -29.4980   23.4480 C   0  0  0  0  0  3  0  0  0  0  0  0
  -16.8380  -28.2430   22.8790 C   0  0  0  0  0  3  0  0  0  0  0  0
  -25.9080  -32.4700   23.8410 C   0  0  0  0  0  3  0  0  0  0  0  0
  -26.4260  -31.7040   25.1200 C   0  0  1  0  0  0  0  0  0  0  0  0
  -25.3300  -31.4540   26.1810 C   0  0  0  0  0  1  0  0  0  0  0  0
  -27.0290  -30.3340   24.7320 C   0  0  0  0  0  1  0  0  0  0  0  0
  -27.5610  -32.5120   25.7900 C   0  0  0  0  0  1  0  0  0  0  0  0
  -25.5770  -33.8640   24.1710 N   0  0  0  0  0  0  0  0  0  0  0  0
  -25.9110  -34.9240   23.4230 C   0  0  0  0  0  0  0  0  0  0  0  0
  -26.6010  -34.8320   22.4040 O   0  0  0  0  0  0  0  0  0  0  0  0
  -24.9670  -34.0080   24.9620 H   0  0  0  0  0  0  0  0  0  0  0  0
  -24.1730  -36.7030   23.0470 C   0  0  0  0  0  1  0  0  0  0  0  0
  -25.4020  -36.3050   23.8790 C   0  0  0  0  0  3  0  0  0  0  0  0
  -27.5080  -37.2090   24.7610 C   0  0  0  0  0  1  0  0  0  0  0  0
  -26.4240  -37.3690   23.7940 N   0  0  0  0  0  0  0  0  0  0  0  0
  -26.0040  -38.2830   23.9390 H   0  0  0  0  0  0  0  0  0  0  0  0
  -31.1350  -17.5090   19.7930 C   0  0  0  0  0  2  0  0  0  0  0  0
  -31.0940  -14.9510   20.0590 C   0  0  0  0  0  0  0  0  0  0  0  0
  -30.8630  -12.6420   19.1150 C   0  0  0  0  0  2  0  0  0  0  0  0
  -29.9010  -12.6150   17.9070 C   0  0  0  0  0  2  0  0  0  0  0  0
  -28.4350  -12.4540   18.3640 C   0  0  0  0  0  2  0  0  0  0  0  0
  -28.0770  -13.4110   19.5270 C   0  0  0  0  0  3  0  0  0  0  0  0
  -29.1520  -13.3260   20.6370 C   0  0  0  0  0  2  0  0  0  0  0  0
  -30.4210  -13.7370   20.0190 N   0  0  0  0  0  0  0  0  0  0  0  0
  -32.2910  -14.9450   19.7550 O   0  0  0  0  0  0  0  0  0  0  0  0
  -28.9980  -16.4320   20.3620 C   0  0  0  0  0  1  0  0  0  0  0  0
  -30.4400  -16.1940   20.1670 N   0  0  0  0  0  0  0  0  0  0  0  0
  -25.7200  -14.1230   20.2710 C   0  0  0  0  0  0  0  0  0  0  0  0
  -24.6280  -13.3960   20.6560 C   0  0  0  0  0  0  0  0  0  0  0  0
  -25.0390  -12.0280   20.6290 C   0  0  0  0  0  0  0  0  0  0  0  0
  -26.7270  -13.1980   20.0350 N   0  0  0  0  0  0  0  0  0  0  0  0
  -26.3230  -11.9350   20.3110 N   0  0  0  0  0  0  0  0  0  0  0  0
  -24.2680  -10.7980   20.8290 C   0  0  0  0  0  0  0  0  0  0  0  0
  -24.6630   -9.8260   21.7760 C   0  0  0  0  0  3  0  0  0  0  0  0
  -23.8960   -8.6570   21.9620 C   0  0  0  0  0  3  0  0  0  0  0  0
  -22.7200   -8.4520   21.2010 C   0  0  0  0  0  0  0  0  0  0  0  0
  -22.3460   -9.4110   20.2420 C   0  0  0  0  0  3  0  0  0  0  0  0
  -23.1140  -10.5710   20.0540 C   0  0  0  0  0  3  0  0  0  0  0  0
  -21.9290   -7.3330   21.2940 O   0  0  0  0  0  0  0  0  0  0  0  0
  -21.8340   -6.6150   22.4590 C   0  0  0  0  0  0  0  0  0  0  0  0
  -21.3830   -7.2010   23.6630 C   0  0  0  0  0  3  0  0  0  0  0  0
  -21.2340   -6.4110   24.8190 C   0  0  0  0  0  3  0  0  0  0  0  0
  -21.5270   -5.0350   24.7730 C   0  0  0  0  0  0  0  0  0  0  0  0
  -21.9690   -4.4470   23.5750 C   0  0  0  0  0  3  0  0  0  0  0  0
  -22.1190   -5.2350   22.4200 C   0  0  0  0  0  0  0  0  0  0  0  0
  -22.5260   -4.6600   21.2620 F   0  0  0  0  0  0  0  0  0  0  0  0
  -21.3780   -4.2720   25.8800 F   0  0  0  0  0  0  0  0  0  0  0  0
  -23.2530  -13.9310   20.9380 C   0  0  0  0  0  0  0  0  0  0  0  0
  -22.5120  -13.2760   21.8250 N   0  0  0  0  0  0  0  0  0  0  0  0
  -22.8470  -14.9650   20.4090 O   0  0  0  0  0  0  0  0  0  0  0  0
  -22.8530  -12.4370   22.2690 H   0  0  0  0  0  0  0  0  0  0  0  0
  -21.5930  -13.6210   22.0620 H   0  0  0  0  0  0  0  0  0  0  0  0
  -25.9290  -15.4840   20.0800 N   0  0  0  0  0  0  0  0  0  0  0  0
  -25.1950  -16.1730   20.2040 H   0  0  0  0  0  0  0  0  0  0  0  0
  -26.8030  -15.8860   19.7720 H   0  0  0  0  0  0  0  0  0  0  0  0
  1  3  2  0
  1  2  1  0
  2  4  2  0
  3  6  1  0
  4  7  1  0
  4  5  1  0
  6  7  2  0
  8  9  1  0
  8  2  1  0
 10 11  1  0
 10  9  2  0
 12 23  2  0
 13 11  1  0
 13 18  1  0
 14 22  1  0
 14 24  1  0
 15 21  1  0
 15 17  1  0
 16 22  1  0
 17 16  1  0
 18 17  2  0
 19 20  1  0
 19 13  2  0
 20 15  2  0
 21 14  1  0
 22 12  1  0
 24 26  2  0
 25 24  1  0
 27 25  1  0
 28 37  2  0
 28 33  1  0
 29 25  1  0
 29 33  1  0
 30 29  1  0
 31 32  1  0
 31 30  1  0
 32 28  1  0
 33 34  2  0
 34 35  1  0
 36 35  2  0
 37 36  1  0
 38 12  1  0
 38 43  1  0
 38 39  1  0
 39 42  1  1
 39 40  1  0
 41 39  1  0
 43 46  1  0
 44 48  1  0
 44 43  1  0
 45 44  2  0
 48 47  1  0
 50 48  1  0
 50 51  1  0
 50 49  1  0
 52 62  1  0
 52  3  1  0
 53 62  1  0
 54 59  1  0
 55 56  1  0
 55 54  1  0
 57 56  1  0
 57 66  1  0
 57 58  1  0
 59 53  1  0
 59 58  1  0
 60 53  2  0
 62 61  1  0
 63 64  2  0
 64 83  1  0
 65 64  1  0
 65 68  1  0
 66 63  1  0
 66 67  1  0
 67 65  2  0
 68 69  1  0
 69 70  2  0
 71 74  1  0
 71 70  1  0
 72 71  2  0
 73 72  1  0
 73 68  2  0
 74 75  1  0
 75 76  1  0
 76 77  2  0
 78 77  1  0
 78 82  1  0
 79 78  2  0
 80 75  2  0
 80 79  1  0
 81 80  1  0
 83 84  1  0
 84 87  1  0
 84 86  1  0
 85 83  2  0
 88 89  1  0
 88 63  1  0
 90 88  1  0
M  ISO  4  10 101  11 101  53 100  62 100
M  END
>  <TORSDO>  (31) 
F 20

>  <SCORE>  (31) 
-13.688

>  <name>  (31) 
30

>  <ligand_id>  (31) 
30

>  <original_smiles>  (31) 
[H]c1c([H])c([H])c2c(c1[H])C([H])([H])C([H])([H])C([H])([H])C2([H])N([H])C(=O)C1([H])N(C(=O)C([H])(N([H])C(=O)C([H])(N([H])C([H])([H])[H])C([H])([H])[H])C(C([H])([H])[H])(C([H])([H])[H])C([H])([H])[H])C([H])([H])c2c([H])c(OC([H])([H])C([H])([H])C([H])([H])c3c(C([H])([H])[H])nnc(C([H])([H])N(C(=O)N4C([H])([H])C([H])([H])C([H])([H])C([H])(n5nc(-c6c([H])c([H])c(Oc7c([H])c([H])c(F)c([H])c7F)c([H])c6[H])c(C(=O)N([H])[H])c5N([H])[H])C4([H])[H])C([H])([H])[H])c3[H])c([H])c([H])c2C1([H])[H]

>  <smiles>  (31) 
[H]c1c([H])c([H])c2c(c1[H])C([H])([H])C([H])([H])C([H])([H])C2([H])N([H])C(=O)C1([H])N(C(=O)C([H])(N([H])C(=O)C([H])(N([H])C([H])([H])[H])C([H])([H])[H])C(C([H])([H])[H])(C([H])([H])[H])C([H])([H])[H])C([H])([H])c2c([H])c(OC([H])([H])C([H])([H])C([H])([H])c3c(C([H])([H])[H])nnc(C([H])([H])N(C(=O)N4C([H])([H])C([H])([H])C([H])([H])C([H])(n5nc(-c6c([H])c([H])c(Oc7c([H])c([H])c(F)c([H])c7F)c([H])c6[H])c(C(=O)N([H])[H])c5N([H])[H])C4([H])[H])C([H])([H])[H])c3[H])c([H])c([H])c2C1([H])[H]

$$$$
31:0:0
     RDKit          3D

 93101  0  0  1  0  0  0  0  0999 V2000
  -28.1190  -23.3400   20.2610 C   0  0  0  0  0  3  0  0  0  0  0  0
  -29.2600  -22.5070   20.2200 C   0  0  0  0  0  0  0  0  0  0  0  0
  -26.8490  -22.8110   19.9880 C   0  0  0  0  0  0  0  0  0  0  0  0
  -28.9880  -21.0870   19.8960 C   0  0  0  0  0  0  0  0  0  0  0  0
  -26.6660  -21.5050   19.7110 N   0  0  0  0  0  0  0  0  0  0  0  0
  -27.7110  -20.6800   19.6660 N   0  0  0  0  0  0  0  0  0  0  0  0
  -24.3050  -22.9530   19.9170 C   0  0  0  0  0  1  0  0  0  0  0  0
  -25.7390  -24.6770   18.6950 C   0  0  0  0  0  1  0  0  0  0  0  0
  -25.6320  -23.7260   19.8980 C   0  0  0  0  0  3  0  0  0  0  0  0
  -30.6100  -23.2960   20.4470 C   0  0  0  0  0  2  0  0  0  0  0  0
  -30.6110  -24.8530   20.9650 C   0  0  0  0  0  3  0  0  0  0  0  0
  -29.9720  -26.0910   20.1390 C   0  0  0  0  0  3  0  0  0  0  0  0
  -29.9190  -27.4840   20.7160 O   0  0  0  0  0  0  0  0  0  0  0  0
  -25.2090  -31.9260   24.0120 C   0  0  0  0  0  0  0  0  0  0  0  0
  -28.7200  -28.2360   20.6440 C   0  0  0  0  0  0  0  0  0  0  0  0
  -24.3820  -30.6780   22.0510 C   0  0  0  0  0  3  0  0  0  0  0  0
  -26.1710  -29.5680   20.5900 C   0  0  0  0  0  0  0  0  0  0  0  0
  -26.8630  -31.3150   22.2270 C   0  0  0  0  0  2  0  0  0  0  0  0
  -27.1970  -30.0770   21.3930 C   0  0  0  0  0  0  0  0  0  0  0  0
  -28.4720  -29.4230   21.4150 C   0  0  0  0  0  3  0  0  0  0  0  0
  -27.6650  -27.8070   19.8060 C   0  0  0  0  0  3  0  0  0  0  0  0
  -26.4100  -28.4440   19.7860 C   0  0  0  0  0  3  0  0  0  0  0  0
  -24.8260  -30.2690   20.6210 C   0  0  0  0  0  2  0  0  0  0  0  0
  -25.4950  -31.3170   22.8240 N   0  0  0  0  0  0  0  0  0  0  0  0
  -24.0490  -31.9790   24.4470 O   0  0  0  0  0  0  0  0  0  0  0  0
  -23.7740  -29.4450   22.7630 C   0  0  0  0  0  0  0  0  0  0  0  0
  -22.5210  -29.1000   22.4150 N   0  0  0  0  0  0  0  0  0  0  0  0
  -24.4300  -28.8090   23.5910 O   0  0  0  0  0  0  0  0  0  0  0  0
  -22.0440  -29.6760   21.7360 H   0  0  0  0  0  0  0  0  0  0  0  0
  -19.3370  -27.3890   22.2690 C   0  0  0  0  0  0  0  0  0  0  0  0
  -21.7730  -27.9510   22.9270 C   0  0  0  0  0  3  0  0  0  0  0  0
  -22.1640  -26.6540   22.1820 C   0  0  0  0  0  2  0  0  0  0  0  0
  -21.2540  -26.3460   20.9880 C   0  0  0  0  0  2  0  0  0  0  0  0
  -19.8000  -26.1990   21.4460 C   0  0  0  0  0  2  0  0  0  0  0  0
  -20.2640  -28.2200   22.9520 C   0  0  0  0  0  0  0  0  0  0  0  0
  -19.7830  -29.3330   23.6770 C   0  0  0  0  0  3  0  0  0  0  0  0
  -18.4060  -29.6200   23.7260 C   0  0  0  0  0  3  0  0  0  0  0  0
  -17.4910  -28.7840   23.0620 C   0  0  0  0  0  3  0  0  0  0  0  0
  -17.9550  -27.6710   22.3400 C   0  0  0  0  0  3  0  0  0  0  0  0
  -26.3210  -32.6030   24.8710 C   0  0  0  0  0  3  0  0  0  0  0  0
  -25.9280  -34.0040   25.0850 N   0  0  0  0  0  0  0  0  0  0  0  0
  -26.3750  -35.0400   24.3630 C   0  0  0  0  0  0  0  0  0  0  0  0
  -27.2270  -34.9200   23.4780 O   0  0  0  0  0  0  0  0  0  0  0  0
  -25.1930  -34.1700   25.7560 H   0  0  0  0  0  0  0  0  0  0  0  0
  -24.6980  -36.7710   23.6410 C   0  0  0  0  0  1  0  0  0  0  0  0
  -25.7860  -36.4300   24.6720 C   0  0  0  0  0  3  0  0  0  0  0  0
  -27.7260  -37.4010   25.8220 C   0  0  0  0  0  1  0  0  0  0  0  0
  -26.7980  -37.5080   24.6980 N   0  0  0  0  0  0  0  0  0  0  0  0
  -26.3530  -38.4200   24.7410 H   0  0  0  0  0  0  0  0  0  0  0  0
  -26.5630  -31.8790   26.2540 C   0  0  1  0  0  0  0  0  0  0  0  0
  -25.2650  -31.6090   27.0500 C   0  0  0  0  0  1  0  0  0  0  0  0
  -27.2750  -30.5230   26.0440 C   0  0  0  0  0  1  0  0  0  0  0  0
  -27.4980  -32.7370   27.1370 C   0  0  0  0  0  1  0  0  0  0  0  0
  -29.9470  -19.8720   19.5610 C   0  0  0  0  0  2  0  0  0  0  0  0
  -30.3710  -18.8040   20.7240 C   0  0  0  0  0  2  0  0  0  0  0  0
  -30.9640  -16.2250   20.6260 C   0  0  0  0  0  0  0  0  0  0  0  0
  -31.0720  -13.8440   19.8660 C   0  0  0  0  0  2  0  0  0  0  0  0
  -30.2450  -13.6760   18.5730 C   0  0  0  0  0  2  0  0  0  0  0  0
  -28.7640  -13.4000   18.9050 C   0  0  0  0  0  2  0  0  0  0  0  0
  -28.1990  -14.3740   19.9740 C   0  0  0  0  0  3  0  0  0  0  0  0
  -29.1560  -14.5250   21.1750 C   0  0  0  0  0  2  0  0  0  0  0  0
  -30.4570  -14.9450   20.6420 N   0  0  0  0  0  0  0  0  0  0  0  0
  -32.1660  -16.4050   20.4140 O   0  0  0  0  0  0  0  0  0  0  0  0
  -30.0820  -17.2970   20.6540 N   0  0  0  0  0  0  0  0  0  0  0  0
  -29.1090  -17.0410   20.7450 H   0  0  0  0  0  0  0  0  0  0  0  0
  -25.7610  -14.8230   20.6300 C   0  0  0  0  0  0  0  0  0  0  0  0
  -24.7140  -13.9850   20.9040 C   0  0  0  0  0  0  0  0  0  0  0  0
  -25.2360  -12.6570   20.8140 C   0  0  0  0  0  0  0  0  0  0  0  0
  -26.8500  -14.0020   20.3890 N   0  0  0  0  0  0  0  0  0  0  0  0
  -26.5400  -12.6910   20.5630 N   0  0  0  0  0  0  0  0  0  0  0  0
  -24.5560  -11.3580   20.8940 C   0  0  0  0  0  0  0  0  0  0  0  0
  -24.9230  -10.3900   21.8540 C   0  0  0  0  0  3  0  0  0  0  0  0
  -24.2420   -9.1560   21.9230 C   0  0  0  0  0  3  0  0  0  0  0  0
  -23.1780   -8.8820   21.0310 C   0  0  0  0  0  0  0  0  0  0  0  0
  -22.8320   -9.8390   20.0620 C   0  0  0  0  0  3  0  0  0  0  0  0
  -23.5150  -11.0650   19.9900 C   0  0  0  0  0  3  0  0  0  0  0  0
  -22.4760   -7.7010   21.0080 O   0  0  0  0  0  0  0  0  0  0  0  0
  -22.2220   -6.9920   22.1540 C   0  0  0  0  0  0  0  0  0  0  0  0
  -21.5030   -7.5510   23.2330 C   0  0  0  0  0  3  0  0  0  0  0  0
  -21.2050   -6.7650   24.3630 C   0  0  0  0  0  3  0  0  0  0  0  0
  -21.6150   -5.4200   24.4140 C   0  0  0  0  0  0  0  0  0  0  0  0
  -22.3280   -4.8600   23.3400 C   0  0  0  0  0  3  0  0  0  0  0  0
  -22.6270   -5.6430   22.2110 C   0  0  0  0  0  0  0  0  0  0  0  0
  -23.2950   -5.0920   21.1690 F   0  0  0  0  0  0  0  0  0  0  0  0
  -21.3230   -4.6620   25.4980 F   0  0  0  0  0  0  0  0  0  0  0  0
  -23.2870  -14.3880   21.1370 C   0  0  0  0  0  0  0  0  0  0  0  0
  -22.5550  -13.6160   21.9330 N   0  0  0  0  0  0  0  0  0  0  0  0
  -22.8270  -15.4210   20.6520 O   0  0  0  0  0  0  0  0  0  0  0  0
  -22.9400  -12.7800   22.3480 H   0  0  0  0  0  0  0  0  0  0  0  0
  -21.5970  -13.8670   22.1330 H   0  0  0  0  0  0  0  0  0  0  0  0
  -25.8720  -16.2070   20.5410 N   0  0  0  0  0  0  0  0  0  0  0  0
  -25.0750  -16.8210   20.6670 H   0  0  0  0  0  0  0  0  0  0  0  0
  -26.7140  -16.7050   20.2830 H   0  0  0  0  0  0  0  0  0  0  0  0
  2  1  1  0
  2 10  1  0
  3  1  2  0
  4  2  2  0
  5  3  1  0
  6  5  2  0
  6  4  1  0
  8  9  1  0
  9  7  1  0
  9  3  1  0
 10 11  1  0
 12 13  1  0
 12 11  2  0
 14 25  2  0
 15 13  1  0
 15 20  1  0
 16 26  1  0
 16 24  1  0
 17 23  1  0
 17 19  1  0
 18 24  1  0
 19 20  2  0
 19 18  1  0
 21 15  2  0
 22 21  1  0
 22 17  2  0
 23 16  1  0
 24 14  1  0
 26 28  2  0
 27 26  1  0
 29 27  1  0
 30 39  2  0
 30 35  1  0
 31 27  1  0
 31 35  1  0
 32 31  1  0
 33 34  1  0
 33 32  1  0
 34 30  1  0
 35 36  2  0
 36 37  1  0
 38 37  2  0
 39 38  1  0
 40 14  1  0
 40 41  1  0
 40 50  1  0
 41 44  1  0
 42 46  1  0
 42 41  1  0
 43 42  2  0
 46 45  1  0
 46 48  1  0
 48 49  1  0
 48 47  1  0
 50 51  1  1
 50 53  1  0
 52 50  1  0
 54  4  1  0
 54 55  1  0
 56 62  1  0
 56 64  1  0
 57 62  1  0
 58 59  1  0
 58 57  1  0
 60 59  1  0
 60 69  1  0
 60 61  1  0
 62 61  1  0
 63 56  2  0
 64 55  1  0
 64 65  1  0
 66 67  2  0
 67 86  1  0
 68 71  1  0
 68 67  1  0
 69 70  1  0
 69 66  1  0
 70 68  2  0
 71 72  1  0
 72 73  2  0
 74 73  1  0
 75 74  2  0
 76 75  1  0
 76 71  2  0
 77 74  1  0
 77 78  1  0
 78 83  2  0
 78 79  1  0
 79 80  2  0
 80 81  1  0
 81 85  1  0
 82 81  2  0
 83 82  1  0
 84 83  1  0
 86 87  1  0
 87 90  1  0
 87 89  1  0
 88 86  2  0
 91 66  1  0
 91 92  1  0
 93 91  1  0
M  ISO  4  12 101  13 101  56 100  64 100
M  END
>  <TORSDO>  (32) 
F 22

>  <SCORE>  (32) 
-8.745

>  <name>  (32) 
31

>  <ligand_id>  (32) 
31

>  <original_smiles>  (32) 
[H]c1c([H])c([H])c2c(c1[H])C([H])([H])C([H])([H])C([H])([H])C2([H])N([H])C(=O)C1([H])N(C(=O)C([H])(N([H])C(=O)C([H])(N([H])C([H])([H])[H])C([H])([H])[H])C(C([H])([H])[H])(C([H])([H])[H])C([H])([H])[H])C([H])([H])c2c([H])c(OC([H])([H])C([H])([H])C([H])([H])c3c(C([H])([H])C([H])([H])N([H])C(=O)N4C([H])([H])C([H])([H])C([H])([H])C([H])(n5nc(-c6c([H])c([H])c(Oc7c([H])c([H])c(F)c([H])c7F)c([H])c6[H])c(C(=O)N([H])[H])c5N([H])[H])C4([H])[H])nnc(C([H])(C([H])([H])[H])C([H])([H])[H])c3[H])c([H])c([H])c2C1([H])[H]

>  <smiles>  (32) 
[H]c1c([H])c([H])c2c(c1[H])C([H])([H])C([H])([H])C([H])([H])C2([H])N([H])C(=O)C1([H])N(C(=O)C([H])(N([H])C(=O)C([H])(N([H])C([H])([H])[H])C([H])([H])[H])C(C([H])([H])[H])(C([H])([H])[H])C([H])([H])[H])C([H])([H])c2c([H])c(OC([H])([H])C([H])([H])C([H])([H])c3c(C([H])([H])C([H])([H])N([H])C(=O)N4C([H])([H])C([H])([H])C([H])([H])C([H])(n5nc(-c6c([H])c([H])c(Oc7c([H])c([H])c(F)c([H])c7F)c([H])c6[H])c(C(=O)N([H])[H])c5N([H])[H])C4([H])[H])nnc(C([H])(C([H])([H])[H])C([H])([H])[H])c3[H])c([H])c([H])c2C1([H])[H]

$$$$
32:0:0
     RDKit          3D

 93101  0  0  1  0  0  0  0  0999 V2000
  -29.9360  -21.5060   21.0350 C   0  0  0  0  0  0  0  0  0  0  0  0
  -28.4600  -23.1740   20.0910 C   0  0  0  0  0  0  0  0  0  0  0  0
  -29.3770  -20.3640   20.3210 C   0  0  0  0  0  0  0  0  0  0  0  0
  -27.9450  -22.0460   19.3280 C   0  0  0  0  0  0  0  0  0  0  0  0
  -31.1420  -21.3660   21.9400 C   0  0  0  0  0  1  0  0  0  0  0  0
  -29.4750  -22.8270   20.9530 N   0  0  0  0  0  0  0  0  0  0  0  0
  -28.3530  -20.7240   19.4860 N   0  0  0  0  0  0  0  0  0  0  0  0
  -25.4280  -22.2200   19.0050 C   0  0  0  0  0  1  0  0  0  0  0  0
  -26.8450  -21.2120   17.1400 C   0  0  0  0  0  1  0  0  0  0  0  0
  -26.7970  -22.2100   18.3160 C   0  0  0  0  0  3  0  0  0  0  0  0
  -31.4760  -18.7380   20.3020 C   0  0  0  0  0  1  0  0  0  0  0  0
  -29.9530  -18.8120   20.1650 C   0  0  0  0  0  3  0  0  0  0  0  0
  -29.3770  -17.4780   20.9520 C   0  0  0  0  0  2  0  0  0  0  0  0
  -30.4800  -14.8810   20.4750 C   0  0  0  0  0  0  0  0  0  0  0  0
  -30.3990  -12.5860   19.4230 C   0  0  0  0  0  2  0  0  0  0  0  0
  -29.4620  -12.6780   18.1940 C   0  0  0  0  0  2  0  0  0  0  0  0
  -27.9860  -12.4710   18.5960 C   0  0  0  0  0  2  0  0  0  0  0  0
  -27.6010  -13.2940   19.8530 C   0  0  0  0  0  3  0  0  0  0  0  0
  -28.6550  -13.1930   20.9740 C   0  0  0  0  0  2  0  0  0  0  0  0
  -29.9380  -13.6090   20.3920 N   0  0  0  0  0  0  0  0  0  0  0  0
  -31.6880  -15.0310   20.2530 O   0  0  0  0  0  0  0  0  0  0  0  0
  -29.5630  -15.9450   20.6050 N   0  0  0  0  0  0  0  0  0  0  0  0
  -28.6480  -15.5140   20.5950 H   0  0  0  0  0  0  0  0  0  0  0  0
  -25.2150  -13.8730   20.5660 C   0  0  0  0  0  0  0  0  0  0  0  0
  -24.1520  -13.0970   20.9280 C   0  0  0  0  0  0  0  0  0  0  0  0
  -24.6180  -11.7440   20.8980 C   0  0  0  0  0  0  0  0  0  0  0  0
  -26.2590  -12.9970   20.3340 N   0  0  0  0  0  0  0  0  0  0  0  0
  -25.9120  -11.7100   20.5940 N   0  0  0  0  0  0  0  0  0  0  0  0
  -23.8900  -10.4840   21.0770 C   0  0  0  0  0  0  0  0  0  0  0  0
  -24.3110   -9.5090   22.0090 C   0  0  0  0  0  3  0  0  0  0  0  0
  -23.5780   -8.3130   22.1730 C   0  0  0  0  0  3  0  0  0  0  0  0
  -22.4110   -8.0850   21.4050 C   0  0  0  0  0  0  0  0  0  0  0  0
  -22.0140   -9.0480   20.4590 C   0  0  0  0  0  3  0  0  0  0  0  0
  -22.7470  -10.2330   20.2920 C   0  0  0  0  0  3  0  0  0  0  0  0
  -21.6500   -6.9430   21.4790 O   0  0  0  0  0  0  0  0  0  0  0  0
  -21.5860   -6.1990   22.6290 C   0  0  0  0  0  0  0  0  0  0  0  0
  -21.1140   -6.7450   23.8440 C   0  0  0  0  0  3  0  0  0  0  0  0
  -20.9960   -5.9250   24.9840 C   0  0  0  0  0  3  0  0  0  0  0  0
  -21.3390   -4.5610   24.9100 C   0  0  0  0  0  0  0  0  0  0  0  0
  -21.7990   -4.0160   23.6990 C   0  0  0  0  0  3  0  0  0  0  0  0
  -21.9200   -4.8320   22.5620 C   0  0  0  0  0  0  0  0  0  0  0  0
  -22.3440   -4.2960   21.3910 F   0  0  0  0  0  0  0  0  0  0  0  0
  -21.2230   -3.7720   26.0040 F   0  0  0  0  0  0  0  0  0  0  0  0
  -22.7500  -13.5740   21.1890 C   0  0  0  0  0  0  0  0  0  0  0  0
  -22.0180  -12.8760   22.0460 N   0  0  0  0  0  0  0  0  0  0  0  0
  -22.3170  -14.6040   20.6720 O   0  0  0  0  0  0  0  0  0  0  0  0
  -22.3780  -12.0350   22.4790 H   0  0  0  0  0  0  0  0  0  0  0  0
  -21.0840  -13.1830   22.2760 H   0  0  0  0  0  0  0  0  0  0  0  0
  -25.3710  -15.2470   20.3960 N   0  0  0  0  0  0  0  0  0  0  0  0
  -24.5820  -15.8820   20.4600 H   0  0  0  0  0  0  0  0  0  0  0  0
  -26.2150  -15.7140   20.0970 H   0  0  0  0  0  0  0  0  0  0  0  0
  -27.6920  -24.6480   20.0850 C   0  0  0  0  0  2  0  0  0  0  0  0
  -28.1050  -26.0970   20.4490 O   0  0  0  0  0  0  0  0  0  0  0  0
  -24.5310  -31.9290   23.2760 C   0  0  0  0  0  0  0  0  0  0  0  0
  -27.0780  -27.1150   20.3630 C   0  0  0  0  0  0  0  0  0  0  0  0
  -23.3330  -30.5080   21.6690 C   0  0  0  0  0  3  0  0  0  0  0  0
  -24.7690  -28.8910   20.3000 C   0  0  0  0  0  0  0  0  0  0  0  0
  -25.8950  -30.7320   21.5220 C   0  0  0  0  0  2  0  0  0  0  0  0
  -25.9570  -29.3300   20.8960 C   0  0  0  0  0  0  0  0  0  0  0  0
  -27.1130  -28.4620   20.9120 C   0  0  0  0  0  3  0  0  0  0  0  0
  -25.8480  -26.7830   19.7360 C   0  0  0  0  0  3  0  0  0  0  0  0
  -24.7260  -27.6300   19.7050 C   0  0  0  0  0  3  0  0  0  0  0  0
  -23.5580  -29.8060   20.3120 C   0  0  0  0  0  2  0  0  0  0  0  0
  -24.6080  -31.0800   22.2080 N   0  0  0  0  0  0  0  0  0  0  0  0
  -23.4410  -32.2320   23.7860 O   0  0  0  0  0  0  0  0  0  0  0  0
  -22.6330  -29.5260   22.6410 C   0  0  0  0  0  0  0  0  0  0  0  0
  -21.3090  -29.3510   22.4860 N   0  0  0  0  0  0  0  0  0  0  0  0
  -23.2850  -28.9260   23.5000 O   0  0  0  0  0  0  0  0  0  0  0  0
  -20.8420  -29.8780   21.7640 H   0  0  0  0  0  0  0  0  0  0  0  0
  -17.9180  -28.1590   22.9320 C   0  0  0  0  0  0  0  0  0  0  0  0
  -20.4650  -28.4410   23.2660 C   0  0  0  0  0  3  0  0  0  0  0  0
  -20.5890  -26.9870   22.7500 C   0  0  0  0  0  2  0  0  0  0  0  0
  -19.5180  -26.6200   21.7190 C   0  0  0  0  0  2  0  0  0  0  0  0
  -18.1180  -26.7860   22.3140 C   0  0  0  0  0  2  0  0  0  0  0  0
  -19.0200  -28.9450   23.3630 C   0  0  0  0  0  0  0  0  0  0  0  0
  -18.7760  -30.2280   23.8990 C   0  0  0  0  0  3  0  0  0  0  0  0
  -17.4620  -30.7260   24.0070 C   0  0  0  0  0  3  0  0  0  0  0  0
  -16.3750  -29.9370   23.5880 C   0  0  0  0  0  3  0  0  0  0  0  0
  -16.6050  -28.6560   23.0590 C   0  0  0  0  0  3  0  0  0  0  0  0
  -25.8090  -32.5730   23.8990 C   0  0  0  0  0  3  0  0  0  0  0  0
  -26.2970  -31.8250   25.1990 C   0  0  1  0  0  0  0  0  0  0  0  0
  -25.1810  -31.6080   26.2500 C   0  0  0  0  0  1  0  0  0  0  0  0
  -26.8830  -30.4400   24.8460 C   0  0  0  0  0  1  0  0  0  0  0  0
  -27.4370  -32.6260   25.8660 C   0  0  0  0  0  1  0  0  0  0  0  0
  -25.4920  -33.9770   24.2070 N   0  0  0  0  0  0  0  0  0  0  0  0
  -25.8440  -35.0220   23.4470 C   0  0  0  0  0  0  0  0  0  0  0  0
  -26.5220  -34.9010   22.4240 O   0  0  0  0  0  0  0  0  0  0  0  0
  -24.8860  -34.1410   25.0000 H   0  0  0  0  0  0  0  0  0  0  0  0
  -24.1380  -36.8260   23.0480 C   0  0  0  0  0  1  0  0  0  0  0  0
  -25.3630  -36.4220   23.8830 C   0  0  0  0  0  3  0  0  0  0  0  0
  -27.4900  -37.2930   24.7450 C   0  0  0  0  0  1  0  0  0  0  0  0
  -26.4110  -37.4600   23.7800 N   0  0  0  0  0  0  0  0  0  0  0  0
  -26.0130  -38.3890   23.9010 H   0  0  0  0  0  0  0  0  0  0  0  0
  1  5  1  0
  2  6  2  0
  3  1  2  0
  4  7  2  0
  4  2  1  0
  6  1  1  0
  7  3  1  0
  9 10  1  0
 10  8  1  0
 10  4  1  0
 12 11  1  0
 12  3  1  0
 12 13  1  0
 14 22  1  0
 15 20  1  0
 16 17  1  0
 16 15  1  0
 18 17  1  0
 18 27  1  0
 18 19  1  0
 20 14  1  0
 20 19  1  0
 21 14  2  0
 22 13  1  0
 23 22  1  0
 24 25  2  0
 25 44  1  0
 26 25  1  0
 26 29  1  0
 27 24  1  0
 27 28  1  0
 28 26  2  0
 29 30  1  0
 30 31  2  0
 32 35  1  0
 32 31  1  0
 33 32  2  0
 34 33  1  0
 34 29  2  0
 35 36  1  0
 36 37  1  0
 37 38  2  0
 39 38  1  0
 39 43  1  0
 40 39  2  0
 41 36  2  0
 41 40  1  0
 42 41  1  0
 44 45  1  0
 45 48  1  0
 45 47  1  0
 46 44  2  0
 49 50  1  0
 49 24  1  0
 51 49  1  0
 52  2  1  0
 52 53  1  0
 54 65  2  0
 55 53  1  0
 55 60  1  0
 56 64  1  0
 56 66  1  0
 57 63  1  0
 57 59  1  0
 58 64  1  0
 59 60  2  0
 59 58  1  0
 61 55  2  0
 62 61  1  0
 62 57  2  0
 63 56  1  0
 64 54  1  0
 66 68  2  0
 67 66  1  0
 69 67  1  0
 70 79  2  0
 70 75  1  0
 71 67  1  0
 71 75  1  0
 72 71  1  0
 73 74  1  0
 73 72  1  0
 74 70  1  0
 75 76  2  0
 76 77  1  0
 78 77  2  0
 79 78  1  0
 80 54  1  0
 80 85  1  0
 80 81  1  0
 81 84  1  1
 81 82  1  0
 83 81  1  0
 85 88  1  0
 86 90  1  0
 86 85  1  0
 87 86  2  0
 90 89  1  0
 92 90  1  0
 92 93  1  0
 92 91  1  0
M  ISO  4  14 100  22 100  52 101  53 101
M  END
>  <TORSDO>  (33) 
F 20

>  <SCORE>  (33) 
-13.692

>  <name>  (33) 
32

>  <ligand_id>  (33) 
32

>  <original_smiles>  (33) 
[H]c1c([H])c([H])c2c(c1[H])C([H])([H])C([H])([H])C([H])([H])C2([H])N([H])C(=O)C1([H])N(C(=O)C([H])(N([H])C(=O)C([H])(N([H])C([H])([H])[H])C([H])([H])[H])C(C([H])([H])[H])(C([H])([H])[H])C([H])([H])[H])C([H])([H])c2c([H])c(OC([H])([H])c3nc(C([H])([H])[H])c(C([H])(C([H])([H])[H])C([H])([H])N([H])C(=O)N4C([H])([H])C([H])([H])C([H])([H])C([H])(n5nc(-c6c([H])c([H])c(Oc7c([H])c([H])c(F)c([H])c7F)c([H])c6[H])c(C(=O)N([H])[H])c5N([H])[H])C4([H])[H])nc3C([H])(C([H])([H])[H])C([H])([H])[H])c([H])c([H])c2C1([H])[H]

>  <smiles>  (33) 
[H]c1c([H])c([H])c2c(c1[H])C([H])([H])C([H])([H])C([H])([H])C2([H])N([H])C(=O)C1([H])N(C(=O)C([H])(N([H])C(=O)C([H])(N([H])C([H])([H])[H])C([H])([H])[H])C(C([H])([H])[H])(C([H])([H])[H])C([H])([H])[H])C([H])([H])c2c([H])c(OC([H])([H])c3nc(C([H])([H])[H])c(C([H])(C([H])([H])[H])C([H])([H])N([H])C(=O)N4C([H])([H])C([H])([H])C([H])([H])C([H])(n5nc(-c6c([H])c([H])c(Oc7c([H])c([H])c(F)c([H])c7F)c([H])c6[H])c(C(=O)N([H])[H])c5N([H])[H])C4([H])[H])nc3C([H])(C([H])([H])[H])C([H])([H])[H])c([H])c([H])c2C1([H])[H]

$$$$
33:0:0
     RDKit          3D

 88 95  0  0  1  0  0  0  0  0999 V2000
  -28.6500  -21.8640   20.2900 C   0  0  0  0  0  2  0  0  0  0  0  0
  -30.7420  -20.7720   19.2850 C   0  0  0  0  0  1  0  0  0  0  0  0
  -30.4960  -20.8710   21.7550 C   0  0  0  0  0  1  0  0  0  0  0  0
  -29.7410  -20.5960   20.4400 C   0  0  1  0  0  0  0  0  0  0  0  0
  -29.2700  -18.9680   20.4040 C   0  0  0  0  0  2  0  0  0  0  0  0
  -30.9370  -17.6400   21.9640 C   0  0  0  0  0  1  0  0  0  0  0  0
  -30.2710  -17.6130   20.5710 C   0  0  0  0  0  3  0  0  0  0  0  0
  -30.5350  -14.9290   20.1720 C   0  0  0  0  0  0  0  0  0  0  0  0
  -30.3480  -12.6090   19.1890 C   0  0  0  0  0  2  0  0  0  0  0  0
  -29.3770  -12.5930   17.9880 C   0  0  0  0  0  2  0  0  0  0  0  0
  -27.9270  -12.3890   18.4650 C   0  0  0  0  0  2  0  0  0  0  0  0
  -27.5630  -13.3010   19.6660 C   0  0  0  0  0  3  0  0  0  0  0  0
  -28.6530  -13.2940   20.7580 C   0  0  0  0  0  2  0  0  0  0  0  0
  -29.9070  -13.6920   20.1090 N   0  0  0  0  0  0  0  0  0  0  0  0
  -31.7320  -14.9790   19.8700 O   0  0  0  0  0  0  0  0  0  0  0  0
  -29.7990  -16.1220   20.3860 N   0  0  0  0  0  0  0  0  0  0  0  0
  -28.8060  -15.9770   20.4980 H   0  0  0  0  0  0  0  0  0  0  0  0
  -25.2050  -13.8690   20.4780 C   0  0  0  0  0  0  0  0  0  0  0  0
  -24.1530  -13.0890   20.8710 C   0  0  0  0  0  0  0  0  0  0  0  0
  -24.6200  -11.7390   20.8160 C   0  0  0  0  0  0  0  0  0  0  0  0
  -26.2430  -12.9960   20.2030 N   0  0  0  0  0  0  0  0  0  0  0  0
  -25.9020  -11.7090   20.4720 N   0  0  0  0  0  0  0  0  0  0  0  0
  -23.9000  -10.4750   21.0120 C   0  0  0  0  0  0  0  0  0  0  0  0
  -24.3530   -9.5020   21.9280 C   0  0  0  0  0  3  0  0  0  0  0  0
  -23.6330   -8.3030   22.1160 C   0  0  0  0  0  3  0  0  0  0  0  0
  -22.4440   -8.0690   21.3850 C   0  0  0  0  0  0  0  0  0  0  0  0
  -22.0080   -9.0310   20.4560 C   0  0  0  0  0  3  0  0  0  0  0  0
  -22.7290  -10.2210   20.2680 C   0  0  0  0  0  3  0  0  0  0  0  0
  -21.6930   -6.9220   21.4820 O   0  0  0  0  0  0  0  0  0  0  0  0
  -21.6630   -6.1750   22.6320 C   0  0  0  0  0  0  0  0  0  0  0  0
  -21.2450   -6.7210   23.8650 C   0  0  0  0  0  3  0  0  0  0  0  0
  -21.1650   -5.9010   25.0080 C   0  0  0  0  0  3  0  0  0  0  0  0
  -21.4930   -4.5350   24.9180 C   0  0  0  0  0  0  0  0  0  0  0  0
  -21.9010   -3.9880   23.6890 C   0  0  0  0  0  3  0  0  0  0  0  0
  -21.9840   -4.8050   22.5480 C   0  0  0  0  0  0  0  0  0  0  0  0
  -22.3590   -4.2680   21.3620 F   0  0  0  0  0  0  0  0  0  0  0  0
  -21.4080   -3.7420   26.0130 F   0  0  0  0  0  0  0  0  0  0  0  0
  -22.7630  -13.5620   21.1820 C   0  0  0  0  0  0  0  0  0  0  0  0
  -22.0630  -12.8610   22.0660 N   0  0  0  0  0  0  0  0  0  0  0  0
  -22.3080  -14.5860   20.6750 O   0  0  0  0  0  0  0  0  0  0  0  0
  -22.4420  -12.0300   22.4950 H   0  0  0  0  0  0  0  0  0  0  0  0
  -21.1310  -13.1610   22.3180 H   0  0  0  0  0  0  0  0  0  0  0  0
  -25.3560  -15.2420   20.3040 N   0  0  0  0  0  0  0  0  0  0  0  0
  -24.5920  -15.8920   20.4500 H   0  0  0  0  0  0  0  0  0  0  0  0
  -26.1810  -15.6860   19.9220 H   0  0  0  0  0  0  0  0  0  0  0  0
  -29.0360  -23.4980   20.3960 C   0  0  0  0  0  3  0  0  0  0  0  0
  -27.9910  -24.7570   20.0930 C   0  0  0  0  0  3  0  0  0  0  0  0
  -28.2620  -26.2630   20.2930 O   0  0  0  0  0  0  0  0  0  0  0  0
  -24.6340  -31.9070   23.2620 C   0  0  0  0  0  0  0  0  0  0  0  0
  -27.1950  -27.2200   20.2260 C   0  0  0  0  0  0  0  0  0  0  0  0
  -23.4240  -30.5190   21.6210 C   0  0  0  0  0  3  0  0  0  0  0  0
  -24.8640  -28.9440   20.1970 C   0  0  0  0  0  0  0  0  0  0  0  0
  -25.9770  -30.7850   21.4520 C   0  0  0  0  0  2  0  0  0  0  0  0
  -26.0440  -29.3960   20.8010 C   0  0  0  0  0  0  0  0  0  0  0  0
  -27.2110  -28.5500   20.7990 C   0  0  0  0  0  3  0  0  0  0  0  0
  -25.9860  -26.8570   19.5900 C   0  0  0  0  0  3  0  0  0  0  0  0
  -24.8450  -27.6870   19.5780 C   0  0  0  0  0  3  0  0  0  0  0  0
  -23.6390  -29.8420   20.2420 C   0  0  0  0  0  2  0  0  0  0  0  0
  -24.6980  -31.0900   22.1680 N   0  0  0  0  0  0  0  0  0  0  0  0
  -23.5500  -32.1970   23.7910 O   0  0  0  0  0  0  0  0  0  0  0  0
  -22.7420  -29.5140   22.5820 C   0  0  0  0  0  0  0  0  0  0  0  0
  -21.4130  -29.3510   22.4540 N   0  0  0  0  0  0  0  0  0  0  0  0
  -23.4090  -28.8840   23.4060 O   0  0  0  0  0  0  0  0  0  0  0  0
  -20.9310  -29.9110   21.7630 H   0  0  0  0  0  0  0  0  0  0  0  0
  -18.0250  -28.1770   22.9500 C   0  0  0  0  0  0  0  0  0  0  0  0
  -20.5850  -28.4210   23.2230 C   0  0  0  0  0  3  0  0  0  0  0  0
  -20.6770  -26.9880   22.6490 C   0  0  0  0  0  2  0  0  0  0  0  0
  -19.5750  -26.6720   21.6330 C   0  0  0  0  0  2  0  0  0  0  0  0
  -18.1930  -26.8270   22.2740 C   0  0  0  0  0  2  0  0  0  0  0  0
  -19.1470  -28.9330   23.3820 C   0  0  0  0  0  0  0  0  0  0  0  0
  -18.9350  -30.1950   23.9750 C   0  0  0  0  0  3  0  0  0  0  0  0
  -17.6340  -30.7050   24.1400 C   0  0  0  0  0  3  0  0  0  0  0  0
  -16.5250  -29.9470   23.7240 C   0  0  0  0  0  3  0  0  0  0  0  0
  -16.7210  -28.6850   23.1370 C   0  0  0  0  0  3  0  0  0  0  0  0
  -25.9180  -32.5320   23.8890 C   0  0  0  0  0  3  0  0  0  0  0  0
  -25.6150  -33.9330   24.2220 N   0  0  0  0  0  0  0  0  0  0  0  0
  -25.9330  -34.9860   23.4590 C   0  0  0  0  0  0  0  0  0  0  0  0
  -26.5780  -34.8820   22.4120 O   0  0  0  0  0  0  0  0  0  0  0  0
  -25.0380  -34.0890   25.0360 H   0  0  0  0  0  0  0  0  0  0  0  0
  -24.1880  -36.7770   23.1640 C   0  0  0  0  0  1  0  0  0  0  0  0
  -25.4610  -36.3770   23.9280 C   0  0  0  0  0  3  0  0  0  0  0  0
  -27.6220  -37.2720   24.6760 C   0  0  0  0  0  1  0  0  0  0  0  0
  -26.4860  -37.4320   23.7720 N   0  0  0  0  0  0  0  0  0  0  0  0
  -26.0820  -38.3520   23.9300 H   0  0  0  0  0  0  0  0  0  0  0  0
  -26.4230  -31.7590   25.1690 C   0  0  1  0  0  0  0  0  0  0  0  0
  -25.3240  -31.5340   26.2330 C   0  0  0  0  0  1  0  0  0  0  0  0
  -26.9960  -30.3750   24.7840 C   0  0  0  0  0  1  0  0  0  0  0  0
  -27.5760  -32.5450   25.8350 C   0  0  0  0  0  1  0  0  0  0  0  0
  1 46  1  0
  1  4  1  0
  4  2  1  6
  4  3  1  0
  5  4  1  0
  5  7  1  0
  7  6  1  0
  8 16  1  0
  9 14  1  0
 10 11  1  0
 10  9  1  0
 12 11  1  0
 12 21  1  0
 12 13  1  0
 14  8  1  0
 14 13  1  0
 15  8  2  0
 16 17  1  0
 16  7  1  0
 18 19  2  0
 19 38  1  0
 20 19  1  0
 20 23  1  0
 21 22  1  0
 21 18  1  0
 22 20  2  0
 23 24  1  0
 24 25  2  0
 26 29  1  0
 26 25  1  0
 27 26  2  0
 28 27  1  0
 28 23  2  0
 29 30  1  0
 30 31  1  0
 31 32  2  0
 33 32  1  0
 33 37  1  0
 34 33  2  0
 35 30  2  0
 35 34  1  0
 36 35  1  0
 38 39  1  0
 39 42  1  0
 39 41  1  0
 40 38  2  0
 43 44  1  0
 43 18  1  0
 45 43  1  0
 47 48  1  0
 47 46  2  0
 49 60  2  0
 50 48  1  0
 50 55  1  0
 51 59  1  0
 51 61  1  0
 52 58  1  0
 52 54  1  0
 53 59  1  0
 54 53  1  0
 55 54  2  0
 56 50  2  0
 57 56  1  0
 57 52  2  0
 58 51  1  0
 59 49  1  0
 61 63  2  0
 62 61  1  0
 64 62  1  0
 65 74  2  0
 65 70  1  0
 66 62  1  0
 66 70  1  0
 67 66  1  0
 68 69  1  0
 68 67  1  0
 69 65  1  0
 70 71  2  0
 71 72  1  0
 73 72  2  0
 74 73  1  0
 75 49  1  0
 75 76  1  0
 75 85  1  0
 76 79  1  0
 77 81  1  0
 77 76  1  0
 78 77  2  0
 81 80  1  0
 83 81  1  0
 83 84  1  0
 83 82  1  0
 85 88  1  1
 85 86  1  0
 87 85  1  0
M  ISO  4   8 100  16 100  47 101  48 101
M  END
>  <TORSDO>  (34) 
F 21

>  <SCORE>  (34) 
-14.004

>  <name>  (34) 
33

>  <ligand_id>  (34) 
33

>  <original_smiles>  (34) 
[H]c1c([H])c([H])c2c(c1[H])C([H])([H])C([H])([H])C([H])([H])C2([H])N([H])C(=O)C1([H])N(C(=O)C([H])(N([H])C(=O)C([H])(N([H])C([H])([H])[H])C([H])([H])[H])C(C([H])([H])[H])(C([H])([H])[H])C([H])([H])[H])C([H])([H])c2c([H])c(OC([H])([H])C([H])([H])C([H])([H])C(C([H])([H])[H])(C([H])([H])[H])C([H])([H])C([H])(N([H])C(=O)N3C([H])([H])C([H])([H])C([H])([H])C([H])(n4nc(-c5c([H])c([H])c(Oc6c([H])c([H])c(F)c([H])c6F)c([H])c5[H])c(C(=O)N([H])[H])c4N([H])[H])C3([H])[H])C([H])([H])[H])c([H])c([H])c2C1([H])[H]

>  <smiles>  (34) 
[H]c1c([H])c([H])c2c(c1[H])C([H])([H])C([H])([H])C([H])([H])C2([H])N([H])C(=O)C1([H])N(C(=O)C([H])(N([H])C(=O)C([H])(N([H])C([H])([H])[H])C([H])([H])[H])C(C([H])([H])[H])(C([H])([H])[H])C([H])([H])[H])C([H])([H])c2c([H])c(OC([H])([H])C([H])([H])C([H])([H])C(C([H])([H])[H])(C([H])([H])[H])C([H])([H])C([H])(N([H])C(=O)N3C([H])([H])C([H])([H])C([H])([H])C([H])(n4nc(-c5c([H])c([H])c(Oc6c([H])c([H])c(F)c([H])c6F)c([H])c5[H])c(C(=O)N([H])[H])c4N([H])[H])C3([H])[H])C([H])([H])[H])c([H])c([H])c2C1([H])[H]

$$$$
34:0:0
     RDKit          3D

 92100  0  0  1  0  0  0  0  0999 V2000
  -30.1530  -21.9490   20.4270 C   0  0  0  0  0  3  0  0  0  0  0  0
  -30.3020  -20.6010   20.8310 C   0  0  0  0  0  3  0  0  0  0  0  0
  -28.9540  -22.3600   19.7940 C   0  0  0  0  0  0  0  0  0  0  0  0
  -29.2520  -19.6900   20.5980 C   0  0  0  0  0  0  0  0  0  0  0  0
  -27.9680  -21.3640   19.5950 C   0  0  0  0  0  0  0  0  0  0  0  0
  -28.1120  -20.0730   19.9840 N   0  0  0  0  0  0  0  0  0  0  0  0
  -25.7020  -22.4360   19.9640 C   0  0  0  0  0  1  0  0  0  0  0  0
  -26.6230  -21.7060   18.9750 C   0  0  0  0  0  2  0  0  0  0  0  0
  -29.3150  -18.2210   21.0540 C   0  0  0  0  0  2  0  0  0  0  0  0
  -29.7760  -17.2090   19.9720 C   0  0  0  0  0  2  0  0  0  0  0  0
  -30.5560  -14.8100   19.9570 C   0  0  0  0  0  0  0  0  0  0  0  0
  -30.3190  -12.5840   18.9320 C   0  0  0  0  0  2  0  0  0  0  0  0
  -29.3050  -12.7030   17.7730 C   0  0  0  0  0  2  0  0  0  0  0  0
  -27.8600  -12.5320   18.2860 C   0  0  0  0  0  2  0  0  0  0  0  0
  -27.5570  -13.4150   19.5260 C   0  0  0  0  0  3  0  0  0  0  0  0
  -28.6730  -13.2620   20.5880 C   0  0  0  0  0  2  0  0  0  0  0  0
  -29.9600  -13.5870   19.9450 N   0  0  0  0  0  0  0  0  0  0  0  0
  -31.6350  -15.0410   19.4030 O   0  0  0  0  0  0  0  0  0  0  0  0
  -29.7770  -15.8020   20.4270 N   0  0  0  0  0  0  0  0  0  0  0  0
  -28.9360  -15.4890   20.8870 H   0  0  0  0  0  0  0  0  0  0  0  0
  -25.2120  -13.9970   20.4130 C   0  0  0  0  0  0  0  0  0  0  0  0
  -24.1690  -13.2100   20.8230 C   0  0  0  0  0  0  0  0  0  0  0  0
  -24.6220  -11.8600   20.7050 C   0  0  0  0  0  0  0  0  0  0  0  0
  -26.2370  -13.1240   20.0790 N   0  0  0  0  0  0  0  0  0  0  0  0
  -25.8880  -11.8330   20.3100 N   0  0  0  0  0  0  0  0  0  0  0  0
  -23.9080  -10.5910   20.8920 C   0  0  0  0  0  0  0  0  0  0  0  0
  -24.3890   -9.5940   21.7690 C   0  0  0  0  0  3  0  0  0  0  0  0
  -23.6730   -8.3900   21.9440 C   0  0  0  0  0  3  0  0  0  0  0  0
  -22.4630   -8.1740   21.2420 C   0  0  0  0  0  0  0  0  0  0  0  0
  -22.0020   -9.1600   20.3530 C   0  0  0  0  0  3  0  0  0  0  0  0
  -22.7190  -10.3560   20.1750 C   0  0  0  0  0  3  0  0  0  0  0  0
  -21.7150   -7.0240   21.3310 O   0  0  0  0  0  0  0  0  0  0  0  0
  -21.7160   -6.2530   22.4660 C   0  0  0  0  0  0  0  0  0  0  0  0
  -21.3420   -6.7760   23.7230 C   0  0  0  0  0  3  0  0  0  0  0  0
  -21.2880   -5.9310   24.8490 C   0  0  0  0  0  3  0  0  0  0  0  0
  -21.5960   -4.5630   24.7200 C   0  0  0  0  0  0  0  0  0  0  0  0
  -21.9610   -4.0390   23.4660 C   0  0  0  0  0  3  0  0  0  0  0  0
  -22.0170   -4.8820   22.3430 C   0  0  0  0  0  0  0  0  0  0  0  0
  -22.3490   -4.3670   21.1340 F   0  0  0  0  0  0  0  0  0  0  0  0
  -21.5370   -3.7500   25.7990 F   0  0  0  0  0  0  0  0  0  0  0  0
  -22.7940  -13.6750   21.2130 C   0  0  0  0  0  0  0  0  0  0  0  0
  -22.1290  -12.9440   22.1010 N   0  0  0  0  0  0  0  0  0  0  0  0
  -22.3210  -14.7180   20.7640 O   0  0  0  0  0  0  0  0  0  0  0  0
  -22.5270  -12.0970   22.4810 H   0  0  0  0  0  0  0  0  0  0  0  0
  -21.2100  -13.2320   22.4050 H   0  0  0  0  0  0  0  0  0  0  0  0
  -25.3690  -15.3730   20.2780 N   0  0  0  0  0  0  0  0  0  0  0  0
  -24.6160  -16.0260   20.4660 H   0  0  0  0  0  0  0  0  0  0  0  0
  -26.1970  -15.8230   19.9100 H   0  0  0  0  0  0  0  0  0  0  0  0
  -28.7280  -23.6440   19.3150 O   0  0  0  0  0  0  0  0  0  0  0  0
  -29.1220  -24.7890   20.0870 C   0  0  0  0  0  2  0  0  0  0  0  0
  -29.5020  -25.9950   19.1870 C   0  0  0  0  0  2  0  0  0  0  0  0
  -29.2050  -27.2760   19.7830 O   0  0  0  0  0  0  0  0  0  0  0  0
  -24.6600  -31.6780   23.0510 C   0  0  0  0  0  0  0  0  0  0  0  0
  -27.9250  -27.8070   19.7760 C   0  0  0  0  0  0  0  0  0  0  0  0
  -23.6850  -30.2730   21.2640 C   0  0  0  0  0  3  0  0  0  0  0  0
  -25.3580  -29.0250   19.7990 C   0  0  0  0  0  0  0  0  0  0  0  0
  -26.1550  -30.9380   21.1960 C   0  0  0  0  0  2  0  0  0  0  0  0
  -26.4260  -29.6360   20.4670 C   0  0  0  0  0  0  0  0  0  0  0  0
  -27.7070  -29.0350   20.4500 C   0  0  0  0  0  3  0  0  0  0  0  0
  -26.8250  -27.2020   19.1220 C   0  0  0  0  0  3  0  0  0  0  0  0
  -25.5540  -27.8080   19.1270 C   0  0  0  0  0  3  0  0  0  0  0  0
  -24.0200  -29.7280   19.8500 C   0  0  0  0  0  2  0  0  0  0  0  0
  -24.8480  -30.9760   21.8970 N   0  0  0  0  0  0  0  0  0  0  0  0
  -23.5360  -31.7800   23.5630 O   0  0  0  0  0  0  0  0  0  0  0  0
  -23.1280  -29.1130   22.1210 C   0  0  0  0  0  0  0  0  0  0  0  0
  -21.8290  -28.8170   21.9590 N   0  0  0  0  0  0  0  0  0  0  0  0
  -23.8630  -28.4850   22.8870 O   0  0  0  0  0  0  0  0  0  0  0  0
  -21.2890  -29.3880   21.3240 H   0  0  0  0  0  0  0  0  0  0  0  0
  -18.5730  -27.2970   22.3370 C   0  0  0  0  0  0  0  0  0  0  0  0
  -21.1040  -27.7380   22.6290 C   0  0  0  0  0  3  0  0  0  0  0  0
  -21.3180  -26.3880   21.9050 C   0  0  0  0  0  2  0  0  0  0  0  0
  -20.2350  -26.0820   20.8650 C   0  0  0  0  0  2  0  0  0  0  0  0
  -18.8530  -26.0440   21.5250 C   0  0  0  0  0  2  0  0  0  0  0  0
  -19.6300  -28.1010   22.8400 C   0  0  0  0  0  0  0  0  0  0  0  0
  -19.3130  -29.2760   23.5590 C   0  0  0  0  0  3  0  0  0  0  0  0
  -17.9740  -29.6490   23.7740 C   0  0  0  0  0  3  0  0  0  0  0  0
  -16.9320  -28.8410   23.2860 C   0  0  0  0  0  3  0  0  0  0  0  0
  -17.2330  -27.6660   22.5750 C   0  0  0  0  0  3  0  0  0  0  0  0
  -25.8390  -32.4050   23.7680 C   0  0  0  0  0  3  0  0  0  0  0  0
  -25.3840  -33.7620   24.1010 N   0  0  0  0  0  0  0  0  0  0  0  0
  -25.6700  -34.8570   23.3820 C   0  0  0  0  0  0  0  0  0  0  0  0
  -26.4110  -34.8360   22.3970 O   0  0  0  0  0  0  0  0  0  0  0  0
  -24.7270  -33.8450   24.8620 H   0  0  0  0  0  0  0  0  0  0  0  0
  -23.8040  -36.4860   22.9510 C   0  0  0  0  0  1  0  0  0  0  0  0
  -25.0290  -36.1860   23.8290 C   0  0  0  0  0  3  0  0  0  0  0  0
  -27.0210  -37.2460   24.7940 C   0  0  0  0  0  1  0  0  0  0  0  0
  -25.9630  -37.3310   23.7900 N   0  0  0  0  0  0  0  0  0  0  0  0
  -25.4650  -38.2070   23.9290 H   0  0  0  0  0  0  0  0  0  0  0  0
  -26.3430  -31.6520   25.0590 C   0  0  1  0  0  0  0  0  0  0  0  0
  -25.2110  -31.2940   26.0510 C   0  0  0  0  0  1  0  0  0  0  0  0
  -27.0670  -30.3410   24.6780 C   0  0  0  0  0  1  0  0  0  0  0  0
  -27.3770  -32.5270   25.8080 C   0  0  0  0  0  1  0  0  0  0  0  0
  1  2  1  0
  3  1  2  0
  4  2  2  0
  4  9  1  0
  5  3  1  0
  5  6  2  0
  6  4  1  0
  8  5  1  0
  8  7  1  0
 10 19  1  0
 10  9  1  0
 11 19  1  0
 12 17  1  0
 13 14  1  0
 13 12  1  0
 15 14  1  0
 15 24  1  0
 15 16  1  0
 17 11  1  0
 17 16  1  0
 18 11  2  0
 19 20  1  0
 21 22  2  0
 22 41  1  0
 23 22  1  0
 23 26  1  0
 24 25  1  0
 24 21  1  0
 25 23  2  0
 26 27  1  0
 27 28  2  0
 29 32  1  0
 29 28  1  0
 30 29  2  0
 31 30  1  0
 31 26  2  0
 32 33  1  0
 33 34  1  0
 34 35  2  0
 36 35  1  0
 36 40  1  0
 37 36  2  0
 38 33  2  0
 38 37  1  0
 39 38  1  0
 41 42  1  0
 42 45  1  0
 42 44  1  0
 43 41  2  0
 46 21  1  0
 46 47  1  0
 48 46  1  0
 49  3  1  0
 49 50  1  0
 51 52  1  0
 51 50  1  0
 53 64  2  0
 54 52  1  0
 54 59  1  0
 55 63  1  0
 55 65  1  0
 56 62  1  0
 56 58  1  0
 57 63  1  0
 58 57  1  0
 59 58  2  0
 60 61  1  0
 60 54  2  0
 61 56  2  0
 62 55  1  0
 63 53  1  0
 65 67  2  0
 66 65  1  0
 68 66  1  0
 69 78  2  0
 69 74  1  0
 70 66  1  0
 70 74  1  0
 71 70  1  0
 72 73  1  0
 72 71  1  0
 73 69  1  0
 74 75  2  0
 75 76  1  0
 77 76  2  0
 78 77  1  0
 79 53  1  0
 79 80  1  0
 79 89  1  0
 80 83  1  0
 81 85  1  0
 81 80  1  0
 82 81  2  0
 85 84  1  0
 87 85  1  0
 87 88  1  0
 87 86  1  0
 89 92  1  1
 89 90  1  0
 91 89  1  0
M  ISO  4  11 100  19 100  51 101  52 101
M  END
>  <TORSDO>  (35) 
F 22

>  <SCORE>  (35) 
-11.303

>  <name>  (35) 
34

>  <ligand_id>  (35) 
34

>  <original_smiles>  (35) 
[H]c1c(C([H])([H])C([H])([H])N([H])C(=O)N2C([H])([H])C([H])([H])C([H])([H])C([H])(n3nc(-c4c([H])c([H])c(Oc5c([H])c([H])c(F)c([H])c5F)c([H])c4[H])c(C(=O)N([H])[H])c3N([H])[H])C2([H])[H])nc(C([H])([H])C([H])([H])[H])c(OC([H])([H])C([H])([H])Oc2c([H])c([H])c3c(c2[H])C([H])([H])N(C(=O)C([H])(N([H])C(=O)C([H])(N([H])C([H])([H])[H])C([H])([H])[H])C(C([H])([H])[H])(C([H])([H])[H])C([H])([H])[H])C([H])(C(=O)N([H])C2([H])c4c([H])c([H])c([H])c([H])c4C([H])([H])C([H])([H])C2([H])[H])C3([H])[H])c1[H]

>  <smiles>  (35) 
[H]c1c(C([H])([H])C([H])([H])N([H])C(=O)N2C([H])([H])C([H])([H])C([H])([H])C([H])(n3nc(-c4c([H])c([H])c(Oc5c([H])c([H])c(F)c([H])c5F)c([H])c4[H])c(C(=O)N([H])[H])c3N([H])[H])C2([H])[H])nc(C([H])([H])C([H])([H])[H])c(OC([H])([H])C([H])([H])Oc2c([H])c([H])c3c(c2[H])C([H])([H])N(C(=O)C([H])(N([H])C(=O)C([H])(N([H])C([H])([H])[H])C([H])([H])[H])C(C([H])([H])[H])(C([H])([H])[H])C([H])([H])[H])C([H])(C(=O)N([H])C2([H])c4c([H])c([H])c([H])c([H])c4C([H])([H])C([H])([H])C2([H])[H])C3([H])[H])c1[H]

$$$$
35:0:0
     RDKit          3D

 91 99  0  0  1  0  0  0  0  0999 V2000
  -28.5150  -19.5880   18.7580 C   0  0  0  0  0  3  0  0  0  0  0  0
  -28.1490  -21.7450   18.4520 C   0  0  0  0  0  3  0  0  0  0  0  0
  -27.9010  -20.5280   17.9060 C   0  0  0  0  0  0  0  0  0  0  0  0
  -29.1770  -20.1910   19.7970 C   0  0  0  0  0  0  0  0  0  0  0  0
  -28.8760  -21.6730   19.6400 N   0  0  0  0  0  0  0  0  0  0  0  0
  -25.6630  -19.8620   16.9940 C   0  0  0  0  0  1  0  0  0  0  0  0
  -27.7810  -19.1870   15.7680 C   0  0  0  0  0  1  0  0  0  0  0  0
  -27.1070  -20.2500   16.6500 C   0  0  0  0  0  3  0  0  0  0  0  0
  -29.9060  -19.1200   20.7960 C   0  0  0  0  0  2  0  0  0  0  0  0
  -30.5710  -17.6390   20.2500 C   0  0  0  0  0  2  0  0  0  0  0  0
  -30.9860  -14.9380   20.5540 C   0  0  0  0  0  0  0  0  0  0  0  0
  -30.8280  -12.5900   19.6120 C   0  0  0  0  0  2  0  0  0  0  0  0
  -29.9350  -12.5800   18.3490 C   0  0  0  0  0  2  0  0  0  0  0  0
  -28.4560  -12.4020   18.7350 C   0  0  0  0  0  2  0  0  0  0  0  0
  -28.0360  -13.3290   19.9060 C   0  0  0  0  0  3  0  0  0  0  0  0
  -29.0560  -13.3120   21.0670 C   0  0  0  0  0  2  0  0  0  0  0  0
  -30.3570  -13.6940   20.5020 N   0  0  0  0  0  0  0  0  0  0  0  0
  -32.1860  -14.9680   20.2620 O   0  0  0  0  0  0  0  0  0  0  0  0
  -30.2540  -16.1510   20.7120 N   0  0  0  0  0  0  0  0  0  0  0  0
  -29.2930  -16.0030   20.9820 H   0  0  0  0  0  0  0  0  0  0  0  0
  -25.6460  -13.9520   20.5680 C   0  0  0  0  0  0  0  0  0  0  0  0
  -24.5550  -13.1990   20.9050 C   0  0  0  0  0  0  0  0  0  0  0  0
  -24.9950  -11.8390   20.8890 C   0  0  0  0  0  0  0  0  0  0  0  0
  -26.6790  -13.0550   20.3620 N   0  0  0  0  0  0  0  0  0  0  0  0
  -26.2940  -11.7780   20.6210 N   0  0  0  0  0  0  0  0  0  0  0  0
  -24.2360  -10.5920   21.0560 C   0  0  0  0  0  0  0  0  0  0  0  0
  -24.6020   -9.6270   22.0210 C   0  0  0  0  0  3  0  0  0  0  0  0
  -23.8440   -8.4460   22.1750 C   0  0  0  0  0  3  0  0  0  0  0  0
  -22.7070   -8.2200   21.3630 C   0  0  0  0  0  0  0  0  0  0  0  0
  -22.3610   -9.1730   20.3880 C   0  0  0  0  0  3  0  0  0  0  0  0
  -23.1190  -10.3460   20.2330 C   0  0  0  0  0  3  0  0  0  0  0  0
  -21.9270   -7.0910   21.4250 O   0  0  0  0  0  0  0  0  0  0  0  0
  -21.7760   -6.3840   22.5910 C   0  0  0  0  0  0  0  0  0  0  0  0
  -21.2320   -6.9710   23.7530 C   0  0  0  0  0  3  0  0  0  0  0  0
  -21.0300   -6.1890   24.9080 C   0  0  0  0  0  3  0  0  0  0  0  0
  -21.3600   -4.8220   24.9000 C   0  0  0  0  0  0  0  0  0  0  0  0
  -21.8960   -4.2330   23.7410 C   0  0  0  0  0  3  0  0  0  0  0  0
  -22.1000   -5.0120   22.5880 C   0  0  0  0  0  0  0  0  0  0  0  0
  -22.5970   -4.4350   21.4680 F   0  0  0  0  0  0  0  0  0  0  0  0
  -21.1590   -4.0680   26.0070 F   0  0  0  0  0  0  0  0  0  0  0  0
  -23.1590  -13.7040   21.1280 C   0  0  0  0  0  0  0  0  0  0  0  0
  -22.3900  -13.0240   21.9710 N   0  0  0  0  0  0  0  0  0  0  0  0
  -22.7610  -14.7370   20.5920 O   0  0  0  0  0  0  0  0  0  0  0  0
  -22.7260  -12.1890   22.4270 H   0  0  0  0  0  0  0  0  0  0  0  0
  -21.4510  -13.3460   22.1630 H   0  0  0  0  0  0  0  0  0  0  0  0
  -25.8400  -15.3200   20.3940 N   0  0  0  0  0  0  0  0  0  0  0  0
  -25.0780  -15.9850   20.4760 H   0  0  0  0  0  0  0  0  0  0  0  0
  -26.6960  -15.7400   20.0580 H   0  0  0  0  0  0  0  0  0  0  0  0
  -29.1530  -23.0970   20.3010 C   0  0  0  0  0  3  0  0  0  0  0  0
  -28.2570  -24.5040   19.8810 C   0  0  0  0  0  3  0  0  0  0  0  0
  -28.4670  -26.0340   20.1590 O   0  0  0  0  0  0  0  0  0  0  0  0
  -24.6380  -31.6130   23.1070 C   0  0  0  0  0  0  0  0  0  0  0  0
  -27.3990  -27.0080   20.0520 C   0  0  0  0  0  0  0  0  0  0  0  0
  -23.5090  -30.2110   21.4250 C   0  0  0  0  0  3  0  0  0  0  0  0
  -25.0260  -28.7030   19.9990 C   0  0  0  0  0  0  0  0  0  0  0  0
  -26.0580  -30.5450   21.3160 C   0  0  0  0  0  2  0  0  0  0  0  0
  -26.1810  -29.1650   20.6430 C   0  0  0  0  0  0  0  0  0  0  0  0
  -27.3650  -28.3320   20.6560 C   0  0  0  0  0  3  0  0  0  0  0  0
  -26.2210  -26.6630   19.3500 C   0  0  0  0  0  3  0  0  0  0  0  0
  -25.0600  -27.4670   19.3370 C   0  0  0  0  0  3  0  0  0  0  0  0
  -23.7740  -29.5640   20.0400 C   0  0  0  0  0  2  0  0  0  0  0  0
  -24.7540  -30.8120   22.0040 N   0  0  0  0  0  0  0  0  0  0  0  0
  -23.5360  -31.8600   23.6170 O   0  0  0  0  0  0  0  0  0  0  0  0
  -22.8410  -29.1700   22.3590 C   0  0  0  0  0  0  0  0  0  0  0  0
  -21.5220  -28.9590   22.2010 N   0  0  0  0  0  0  0  0  0  0  0  0
  -23.5140  -28.5550   23.1910 O   0  0  0  0  0  0  0  0  0  0  0  0
  -21.0350  -29.5090   21.5080 H   0  0  0  0  0  0  0  0  0  0  0  0
  -18.1710  -27.6440   22.6110 C   0  0  0  0  0  0  0  0  0  0  0  0
  -20.7130  -27.9880   22.9430 C   0  0  0  0  0  3  0  0  0  0  0  0
  -20.8750  -26.5660   22.3570 C   0  0  0  0  0  2  0  0  0  0  0  0
  -19.8080  -26.2170   21.3140 C   0  0  0  0  0  2  0  0  0  0  0  0
  -18.4070  -26.3090   21.9250 C   0  0  0  0  0  2  0  0  0  0  0  0
  -19.2520  -28.4390   23.0740 C   0  0  0  0  0  0  0  0  0  0  0  0
  -18.9760  -29.6860   23.6760 C   0  0  0  0  0  3  0  0  0  0  0  0
  -17.6500  -30.1400   23.8190 C   0  0  0  0  0  3  0  0  0  0  0  0
  -16.5840  -29.3420   23.3710 C   0  0  0  0  0  3  0  0  0  0  0  0
  -16.8440  -28.0970   22.7720 C   0  0  0  0  0  3  0  0  0  0  0  0
  -25.8870  -32.2760   23.7660 C   0  0  0  0  0  3  0  0  0  0  0  0
  -25.5320  -33.6640   24.1020 N   0  0  0  0  0  0  0  0  0  0  0  0
  -25.8800  -34.7380   23.3810 C   0  0  0  0  0  0  0  0  0  0  0  0
  -26.5990  -34.6650   22.3810 O   0  0  0  0  0  0  0  0  0  0  0  0
  -24.8970  -33.7920   24.8760 H   0  0  0  0  0  0  0  0  0  0  0  0
  -24.1480  -36.5200   22.9730 C   0  0  0  0  0  1  0  0  0  0  0  0
  -25.3490  -36.1100   23.8420 C   0  0  0  0  0  3  0  0  0  0  0  0
  -27.4160  -37.0100   24.8140 C   0  0  0  0  0  1  0  0  0  0  0  0
  -26.3700  -37.1790   23.8110 N   0  0  0  0  0  0  0  0  0  0  0  0
  -25.9430  -38.0910   23.9500 H   0  0  0  0  0  0  0  0  0  0  0  0
  -26.3870  -31.5100   25.0530 C   0  0  1  0  0  0  0  0  0  0  0  0
  -25.2730  -31.2460   26.0930 C   0  0  0  0  0  1  0  0  0  0  0  0
  -27.0080  -30.1450   24.6770 C   0  0  0  0  0  1  0  0  0  0  0  0
  -27.5050  -32.3260   25.7460 C   0  0  0  0  0  1  0  0  0  0  0  0
  1  4  2  0
  2  5  1  0
  3  2  2  0
  3  1  1  0
  4  9  1  0
  5  4  1  0
  5 49  1  0
  7  8  1  0
  8  6  1  0
  8  3  1  0
 10 19  1  0
 10  9  1  0
 11 19  1  0
 12 17  1  0
 13 14  1  0
 13 12  1  0
 15 14  1  0
 15 24  1  0
 15 16  1  0
 17 11  1  0
 17 16  1  0
 18 11  2  0
 19 20  1  0
 21 22  2  0
 22 41  1  0
 23 22  1  0
 23 26  1  0
 24 21  1  0
 24 25  1  0
 25 23  2  0
 26 27  1  0
 27 28  2  0
 29 32  1  0
 29 28  1  0
 30 29  2  0
 31 30  1  0
 31 26  2  0
 32 33  1  0
 33 34  1  0
 34 35  2  0
 36 35  1  0
 36 40  1  0
 37 36  2  0
 38 33  2  0
 38 37  1  0
 39 38  1  0
 41 42  1  0
 42 45  1  0
 42 44  1  0
 43 41  2  0
 46 47  1  0
 46 21  1  0
 48 46  1  0
 50 51  1  0
 50 49  2  0
 52 63  2  0
 53 51  1  0
 53 58  1  0
 54 62  1  0
 54 64  1  0
 55 61  1  0
 55 57  1  0
 56 62  1  0
 57 58  2  0
 57 56  1  0
 59 53  2  0
 60 59  1  0
 60 55  2  0
 61 54  1  0
 62 52  1  0
 64 66  2  0
 65 64  1  0
 67 65  1  0
 68 77  2  0
 68 73  1  0
 69 65  1  0
 69 73  1  0
 70 69  1  0
 71 72  1  0
 71 70  1  0
 72 68  1  0
 73 74  2  0
 74 75  1  0
 76 75  2  0
 77 76  1  0
 78 52  1  0
 78 79  1  0
 78 88  1  0
 79 82  1  0
 80 84  1  0
 80 79  1  0
 81 80  2  0
 84 83  1  0
 86 84  1  0
 86 87  1  0
 86 85  1  0
 88 91  1  1
 88 89  1  0
 90 88  1  0
M  ISO  4  11 100  19 100  50 101  51 101
M  END
>  <TORSDO>  (36) 
F 21

>  <SCORE>  (36) 
-13.490

>  <name>  (36) 
35

>  <ligand_id>  (36) 
35

>  <original_smiles>  (36) 
[H]c1c([H])c([H])c2c(c1[H])C([H])([H])C([H])([H])C([H])([H])C2([H])N([H])C(=O)C1([H])N(C(=O)C([H])(N([H])C(=O)C([H])(N([H])C([H])([H])[H])C([H])([H])[H])C(C([H])([H])[H])(C([H])([H])[H])C([H])([H])[H])C([H])([H])c2c([H])c(OC([H])([H])C([H])([H])n3c([H])c(C([H])(C([H])([H])[H])C([H])([H])[H])c([H])c3C([H])([H])C([H])([H])N([H])C(=O)N3C([H])([H])C([H])([H])C([H])([H])C([H])(n4nc(-c5c([H])c([H])c(Oc6c([H])c([H])c(F)c([H])c6F)c([H])c5[H])c(C(=O)N([H])[H])c4N([H])[H])C3([H])[H])c([H])c([H])c2C1([H])[H]

>  <smiles>  (36) 
[H]c1c([H])c([H])c2c(c1[H])C([H])([H])C([H])([H])C([H])([H])C2([H])N([H])C(=O)C1([H])N(C(=O)C([H])(N([H])C(=O)C([H])(N([H])C([H])([H])[H])C([H])([H])[H])C(C([H])([H])[H])(C([H])([H])[H])C([H])([H])[H])C([H])([H])c2c([H])c(OC([H])([H])C([H])([H])n3c([H])c(C([H])(C([H])([H])[H])C([H])([H])[H])c([H])c3C([H])([H])C([H])([H])N([H])C(=O)N3C([H])([H])C([H])([H])C([H])([H])C([H])(n4nc(-c5c([H])c([H])c(Oc6c([H])c([H])c(F)c([H])c6F)c([H])c5[H])c(C(=O)N([H])[H])c4N([H])[H])C3([H])[H])c([H])c([H])c2C1([H])[H]

$$$$
36:0:0
     RDKit          3D

 89 97  0  0  1  0  0  0  0  0999 V2000
  -30.1310  -20.4600   20.0310 C   0  0  0  0  0  2  0  0  0  0  0  0
  -29.5060  -18.4210   21.4100 C   0  0  0  0  0  2  0  0  0  0  0  0
  -31.5130  -17.4210   21.1440 C   0  0  0  0  0  2  0  0  0  0  0  0
  -30.0440  -18.8060   20.2180 C   0  0  0  0  0  3  0  0  0  0  0  0
  -30.9610  -17.6180   19.9100 C   0  0  0  0  0  3  0  0  0  0  0  0
  -30.5280  -17.3820   23.4650 C   0  0  0  0  0  1  0  0  0  0  0  0
  -30.5130  -17.7220   22.0550 N   0  0  0  0  0  0  0  0  0  0  0  0
  -31.4370  -14.9690   19.4320 C   0  0  0  0  0  0  0  0  0  0  0  0
  -31.1530  -12.5880   18.5790 C   0  0  0  0  0  2  0  0  0  0  0  0
  -30.1250  -12.5130   17.4270 C   0  0  0  0  0  2  0  0  0  0  0  0
  -28.6910  -12.3880   17.9800 C   0  0  0  0  0  2  0  0  0  0  0  0
  -28.4080  -13.3830   19.1360 C   0  0  0  0  0  3  0  0  0  0  0  0
  -29.5490  -13.4060   20.1730 C   0  0  0  0  0  2  0  0  0  0  0  0
  -30.7750  -13.7440   19.4380 N   0  0  0  0  0  0  0  0  0  0  0  0
  -32.6440  -14.9520   19.1590 O   0  0  0  0  0  0  0  0  0  0  0  0
  -30.6970  -16.1920   19.4050 N   0  0  0  0  0  0  0  0  0  0  0  0
  -29.7170  -16.0160   19.2470 H   0  0  0  0  0  0  0  0  0  0  0  0
  -26.1430  -14.1030   20.0800 C   0  0  0  0  0  0  0  0  0  0  0  0
  -25.0630  -13.3930   20.5300 C   0  0  0  0  0  0  0  0  0  0  0  0
  -25.4390  -12.0170   20.4580 C   0  0  0  0  0  0  0  0  0  0  0  0
  -27.1040  -13.1640   19.7500 N   0  0  0  0  0  0  0  0  0  0  0  0
  -26.6960  -11.9020   20.0450 N   0  0  0  0  0  0  0  0  0  0  0  0
  -24.6510  -10.8010   20.7010 C   0  0  0  0  0  0  0  0  0  0  0  0
  -25.0160   -9.8720   21.7000 C   0  0  0  0  0  3  0  0  0  0  0  0
  -24.2310   -8.7210   21.9300 C   0  0  0  0  0  3  0  0  0  0  0  0
  -23.0660   -8.4930   21.1610 C   0  0  0  0  0  0  0  0  0  0  0  0
  -22.7180   -9.4100   20.1530 C   0  0  0  0  0  3  0  0  0  0  0  0
  -23.5030  -10.5520   19.9220 C   0  0  0  0  0  3  0  0  0  0  0  0
  -22.2570   -7.3910   21.2970 O   0  0  0  0  0  0  0  0  0  0  0  0
  -22.0390   -6.8030   22.5170 C   0  0  0  0  0  0  0  0  0  0  0  0
  -21.5020   -7.5230   23.6060 C   0  0  0  0  0  3  0  0  0  0  0  0
  -21.2310   -6.8630   24.8210 C   0  0  0  0  0  3  0  0  0  0  0  0
  -21.4850   -5.4840   24.9460 C   0  0  0  0  0  0  0  0  0  0  0  0
  -22.0130   -4.7650   23.8610 C   0  0  0  0  0  3  0  0  0  0  0  0
  -22.2860   -5.4210   22.6480 C   0  0  0  0  0  0  0  0  0  0  0  0
  -22.7760   -4.7180   21.5990 F   0  0  0  0  0  0  0  0  0  0  0  0
  -21.2160   -4.8480   26.1100 F   0  0  0  0  0  0  0  0  0  0  0  0
  -23.7250  -13.9560   20.9090 C   0  0  0  0  0  0  0  0  0  0  0  0
  -23.0420  -13.3300   21.8600 N   0  0  0  0  0  0  0  0  0  0  0  0
  -23.2980  -14.9880   20.3930 O   0  0  0  0  0  0  0  0  0  0  0  0
  -23.4010  -12.4970   22.3020 H   0  0  0  0  0  0  0  0  0  0  0  0
  -22.1440  -13.6930   22.1520 H   0  0  0  0  0  0  0  0  0  0  0  0
  -26.3770  -15.4640   19.9000 N   0  0  0  0  0  0  0  0  0  0  0  0
  -25.6670  -16.1580   20.1020 H   0  0  0  0  0  0  0  0  0  0  0  0
  -27.2330  -15.8680   19.5480 H   0  0  0  0  0  0  0  0  0  0  0  0
  -28.9480  -21.5650   19.5230 C   0  0  0  0  0  2  0  0  0  0  0  0
  -28.1940  -22.9260   20.2220 C   0  0  0  0  0  2  0  0  0  0  0  0
  -28.6700  -24.5220   20.5180 C   0  0  0  0  0  2  0  0  0  0  0  0
  -28.4170  -25.9170   19.8630 O   0  0  0  0  0  0  0  0  0  0  0  0
  -24.6780  -31.4950   23.0230 C   0  0  0  0  0  0  0  0  0  0  0  0
  -27.2980  -26.8130   19.9840 C   0  0  0  0  0  0  0  0  0  0  0  0
  -23.4970  -30.1160   21.3540 C   0  0  0  0  0  3  0  0  0  0  0  0
  -24.9610  -28.5450   19.9430 C   0  0  0  0  0  0  0  0  0  0  0  0
  -26.0500  -30.3870   21.2180 C   0  0  0  0  0  2  0  0  0  0  0  0
  -26.1330  -28.9960   20.5640 C   0  0  0  0  0  0  0  0  0  0  0  0
  -27.3040  -28.1490   20.5580 C   0  0  0  0  0  3  0  0  0  0  0  0
  -26.0970  -26.4510   19.3440 C   0  0  0  0  0  3  0  0  0  0  0  0
  -24.9540  -27.2850   19.3210 C   0  0  0  0  0  3  0  0  0  0  0  0
  -23.7360  -29.4470   19.9750 C   0  0  0  0  0  2  0  0  0  0  0  0
  -24.7620  -30.6890   21.9210 N   0  0  0  0  0  0  0  0  0  0  0  0
  -23.5850  -31.7730   23.5430 O   0  0  0  0  0  0  0  0  0  0  0  0
  -22.8090  -29.1000   22.2990 C   0  0  0  0  0  0  0  0  0  0  0  0
  -21.4800  -28.9410   22.1620 N   0  0  0  0  0  0  0  0  0  0  0  0
  -23.4720  -28.4560   23.1150 O   0  0  0  0  0  0  0  0  0  0  0  0
  -21.0030  -29.5110   21.4780 H   0  0  0  0  0  0  0  0  0  0  0  0
  -18.0890  -27.7550   22.6260 C   0  0  0  0  0  0  0  0  0  0  0  0
  -20.6480  -27.9950   22.9100 C   0  0  0  0  0  3  0  0  0  0  0  0
  -20.7450  -26.5730   22.3110 C   0  0  0  0  0  2  0  0  0  0  0  0
  -19.6450  -26.2760   21.2860 C   0  0  0  0  0  2  0  0  0  0  0  0
  -18.2610  -26.4160   21.9250 C   0  0  0  0  0  2  0  0  0  0  0  0
  -19.2100  -28.5030   23.0740 C   0  0  0  0  0  0  0  0  0  0  0  0
  -18.9940  -29.7550   23.6880 C   0  0  0  0  0  3  0  0  0  0  0  0
  -17.6910  -30.2590   23.8590 C   0  0  0  0  0  3  0  0  0  0  0  0
  -16.5840  -29.5090   23.4260 C   0  0  0  0  0  3  0  0  0  0  0  0
  -16.7840  -28.2580   22.8150 C   0  0  0  0  0  3  0  0  0  0  0  0
  -25.9490  -32.1230   23.6760 C   0  0  0  0  0  3  0  0  0  0  0  0
  -26.4740  -31.3060   24.9200 C   0  0  1  0  0  0  0  0  0  0  0  0
  -25.3830  -31.0040   25.9730 C   0  0  0  0  0  1  0  0  0  0  0  0
  -27.0830  -29.9560   24.4740 C   0  0  0  0  0  1  0  0  0  0  0  0
  -27.6090  -32.0910   25.6190 C   0  0  0  0  0  1  0  0  0  0  0  0
  -25.6160  -33.5000   24.0700 N   0  0  0  0  0  0  0  0  0  0  0  0
  -25.9640  -34.5970   23.3830 C   0  0  0  0  0  0  0  0  0  0  0  0
  -26.6640  -34.5540   22.3690 O   0  0  0  0  0  0  0  0  0  0  0  0
  -24.9970  -33.6080   24.8600 H   0  0  0  0  0  0  0  0  0  0  0  0
  -24.2340  -36.4020   23.0830 C   0  0  0  0  0  1  0  0  0  0  0  0
  -25.4560  -35.9570   23.9030 C   0  0  0  0  0  3  0  0  0  0  0  0
  -27.5600  -36.8090   24.8430 C   0  0  0  0  0  1  0  0  0  0  0  0
  -26.4850  -37.0200   23.8760 N   0  0  0  0  0  0  0  0  0  0  0  0
  -26.0680  -37.9290   24.0580 H   0  0  0  0  0  0  0  0  0  0  0  0
  2  7  1  0
  3  7  1  0
  4  1  1  0
  4  2  1  0
  5 16  1  0
  5  4  1  0
  5  3  1  0
  7  6  1  0
  8 14  1  0
  9 14  1  0
 10 11  1  0
 10  9  1  0
 12 11  1  0
 12 21  1  0
 12 13  1  0
 14 13  1  0
 15  8  2  0
 16  8  1  0
 17 16  1  0
 18 19  2  0
 19 38  1  0
 20 19  1  0
 20 23  1  0
 21 22  1  0
 21 18  1  0
 22 20  2  0
 23 24  1  0
 24 25  2  0
 26 29  1  0
 26 25  1  0
 27 26  2  0
 28 27  1  0
 28 23  2  0
 29 30  1  0
 30 35  2  0
 30 31  1  0
 31 32  2  0
 32 33  1  0
 33 37  1  0
 34 33  2  0
 35 34  1  0
 36 35  1  0
 38 39  1  0
 39 42  1  0
 39 41  1  0
 40 38  2  0
 43 18  1  0
 43 44  1  0
 45 43  1  0
 46  1  1  0
 46 47  1  0
 47 48  1  0
 49 51  1  0
 49 48  1  0
 50 61  2  0
 51 56  1  0
 52 60  1  0
 52 62  1  0
 53 59  1  0
 53 55  1  0
 54 60  1  0
 55 54  1  0
 56 55  2  0
 57 51  2  0
 58 57  1  0
 58 53  2  0
 59 52  1  0
 60 50  1  0
 62 64  2  0
 63 62  1  0
 65 63  1  0
 66 75  2  0
 66 71  1  0
 67 63  1  0
 67 71  1  0
 68 67  1  0
 69 70  1  0
 69 68  1  0
 70 66  1  0
 71 72  2  0
 72 73  1  0
 74 73  2  0
 75 74  1  0
 76 50  1  0
 76 81  1  0
 76 77  1  0
 77 80  1  1
 77 78  1  0
 79 77  1  0
 81 84  1  0
 82 86  1  0
 82 81  1  0
 83 82  2  0
 86 85  1  0
 88 86  1  0
 88 89  1  0
 88 87  1  0
M  ISO  4   8 100  16 100  48 101  49 101
M  END
>  <TORSDO>  (37) 
F 20

>  <SCORE>  (37) 
-11.806

>  <name>  (37) 
36

>  <ligand_id>  (37) 
36

>  <original_smiles>  (37) 
[H]c1c([H])c([H])c2c(c1[H])C([H])([H])C([H])([H])C([H])([H])C2([H])N([H])C(=O)C1([H])N(C(=O)C([H])(N([H])C(=O)C([H])(N([H])C([H])([H])[H])C([H])([H])[H])C(C([H])([H])[H])(C([H])([H])[H])C([H])([H])[H])C([H])([H])c2c([H])c(OC([H])([H])C([H])([H])C([H])([H])C([H])([H])c3c(N([H])C(=O)N4C([H])([H])C([H])([H])C([H])([H])C([H])(n5nc(-c6c([H])c([H])c(Oc7c([H])c([H])c(F)c([H])c7F)c([H])c6[H])c(C(=O)N([H])[H])c5N([H])[H])C4([H])[H])c([H])n(C([H])([H])[H])c3[H])c([H])c([H])c2C1([H])[H]

>  <smiles>  (37) 
[H]c1c([H])c([H])c2c(c1[H])C([H])([H])C([H])([H])C([H])([H])C2([H])N([H])C(=O)C1([H])N(C(=O)C([H])(N([H])C(=O)C([H])(N([H])C([H])([H])[H])C([H])([H])[H])C(C([H])([H])[H])(C([H])([H])[H])C([H])([H])[H])C([H])([H])c2c([H])c(OC([H])([H])C([H])([H])C([H])([H])C([H])([H])c3c(N([H])C(=O)N4C([H])([H])C([H])([H])C([H])([H])C([H])(n5nc(-c6c([H])c([H])c(Oc7c([H])c([H])c(F)c([H])c7F)c([H])c6[H])c(C(=O)N([H])[H])c5N([H])[H])C4([H])[H])c([H])n(C([H])([H])[H])c3[H])c([H])c([H])c2C1([H])[H]

$$$$
37:0:0
     RDKit          3D

 95103  0  0  1  0  0  0  0  0999 V2000
  -30.9470  -19.8960   19.5240 C   0  0  0  0  0  3  0  0  0  0  0  0
  -30.9670  -18.6990   20.2110 C   0  0  0  0  0  0  0  0  0  0  0  0
  -30.9140  -20.4010   21.6760 C   0  0  0  0  0  3  0  0  0  0  0  0
  -30.9490  -20.9250   20.4360 N   0  0  0  0  0  0  0  0  0  0  0  0
  -30.9490  -19.0600   21.5360 N   0  0  0  0  0  0  0  0  0  0  0  0
  -30.9850  -18.4140   22.3130 H   0  0  0  0  0  0  0  0  0  0  0  0
  -32.3120  -21.1030   23.6470 C   0  0  0  0  0  1  0  0  0  0  0  0
  -29.8320  -20.6230   23.9380 C   0  0  0  0  0  1  0  0  0  0  0  0
  -30.9240  -21.1380   22.9860 C   0  0  0  0  0  3  0  0  0  0  0  0
  -30.4280  -17.2430   18.2550 C   0  0  0  0  0  1  0  0  0  0  0  0
  -31.0680  -17.2850   19.6560 C   0  0  0  0  0  3  0  0  0  0  0  0
  -31.2960  -15.0320   20.6620 C   0  0  0  0  0  0  0  0  0  0  0  0
  -31.1000  -12.6590   20.0570 C   0  0  0  0  0  2  0  0  0  0  0  0
  -30.3210  -12.5660   18.7280 C   0  0  0  0  0  2  0  0  0  0  0  0
  -28.8040  -12.5030   18.9920 C   0  0  0  0  0  2  0  0  0  0  0  0
  -28.3170  -13.5920   19.9880 C   0  0  0  0  0  3  0  0  0  0  0  0
  -29.2360  -13.6850   21.2290 C   0  0  0  0  0  2  0  0  0  0  0  0
  -30.6150  -13.8600   20.7590 N   0  0  0  0  0  0  0  0  0  0  0  0
  -32.5100  -15.0590   20.4570 O   0  0  0  0  0  0  0  0  0  0  0  0
  -30.5550  -16.1500   20.4680 N   0  0  0  0  0  0  0  0  0  0  0  0
  -29.5590  -16.0630   20.5800 H   0  0  0  0  0  0  0  0  0  0  0  0
  -25.9240  -14.3410   20.5500 C   0  0  0  0  0  0  0  0  0  0  0  0
  -24.7790  -13.6370   20.8120 C   0  0  0  0  0  0  0  0  0  0  0  0
  -25.1450  -12.2570   20.7600 C   0  0  0  0  0  0  0  0  0  0  0  0
  -26.9180  -13.3950   20.3600 N   0  0  0  0  0  0  0  0  0  0  0  0
  -26.4490  -12.1340   20.5450 N   0  0  0  0  0  0  0  0  0  0  0  0
  -24.3160  -11.0470   20.8450 C   0  0  0  0  0  0  0  0  0  0  0  0
  -24.6350   -9.9970   21.7330 C   0  0  0  0  0  3  0  0  0  0  0  0
  -23.8170   -8.8500   21.8120 C   0  0  0  0  0  3  0  0  0  0  0  0
  -22.6630   -8.7460   20.9970 C   0  0  0  0  0  0  0  0  0  0  0  0
  -22.3630   -9.7830   20.0970 C   0  0  0  0  0  3  0  0  0  0  0  0
  -23.1820  -10.9230   20.0180 C   0  0  0  0  0  3  0  0  0  0  0  0
  -21.8210   -7.6590   20.9870 O   0  0  0  0  0  0  0  0  0  0  0  0
  -21.6890   -6.8390   22.0770 C   0  0  0  0  0  0  0  0  0  0  0  0
  -21.2570   -7.3260   23.3310 C   0  0  0  0  0  3  0  0  0  0  0  0
  -21.0690   -6.4360   24.4070 C   0  0  0  0  0  3  0  0  0  0  0  0
  -21.3010   -5.0580   24.2290 C   0  0  0  0  0  0  0  0  0  0  0  0
  -21.7260   -4.5700   22.9800 C   0  0  0  0  0  3  0  0  0  0  0  0
  -21.9160   -5.4580   21.9070 C   0  0  0  0  0  0  0  0  0  0  0  0
  -22.3030   -4.9800   20.7000 F   0  0  0  0  0  0  0  0  0  0  0  0
  -21.1140   -4.2010   25.2580 F   0  0  0  0  0  0  0  0  0  0  0  0
  -23.4020  -14.2060   20.9960 C   0  0  0  0  0  0  0  0  0  0  0  0
  -22.5670  -13.5460   21.7910 N   0  0  0  0  0  0  0  0  0  0  0  0
  -23.0740  -15.2690   20.4710 O   0  0  0  0  0  0  0  0  0  0  0  0
  -22.8400  -12.6840   22.2400 H   0  0  0  0  0  0  0  0  0  0  0  0
  -21.6360  -13.9100   21.9500 H   0  0  0  0  0  0  0  0  0  0  0  0
  -26.1930  -15.7010   20.4370 N   0  0  0  0  0  0  0  0  0  0  0  0
  -25.4530  -16.3910   20.5060 H   0  0  0  0  0  0  0  0  0  0  0  0
  -27.0670  -16.0930   20.1150 H   0  0  0  0  0  0  0  0  0  0  0  0
  -31.0780  -22.3770   20.1120 C   0  0  0  0  0  3  0  0  0  0  0  0
  -29.7660  -23.2140   20.1310 C   0  0  0  0  0  3  0  0  0  0  0  0
  -29.3770  -24.8080   18.1930 C   0  0  0  0  0  1  0  0  0  0  0  0
  -29.8990  -24.6990   19.6370 C   0  0  0  0  0  3  0  0  0  0  0  0
  -29.1910  -25.7360   20.5560 C   0  0  0  0  0  2  0  0  0  0  0  0
  -29.2350  -27.1020   20.0680 O   0  0  0  0  0  0  0  0  0  0  0  0
  -24.8710  -31.6550   23.3910 C   0  0  0  0  0  0  0  0  0  0  0  0
  -28.0180  -27.7570   20.0560 C   0  0  0  0  0  0  0  0  0  0  0  0
  -23.8490  -30.2670   21.6180 C   0  0  0  0  0  3  0  0  0  0  0  0
  -25.4830  -29.0190   20.1050 C   0  0  0  0  0  0  0  0  0  0  0  0
  -26.3250  -30.9070   21.5060 C   0  0  0  0  0  2  0  0  0  0  0  0
  -26.5700  -29.6090   20.7630 C   0  0  0  0  0  0  0  0  0  0  0  0
  -27.8420  -28.9890   20.7320 C   0  0  0  0  0  3  0  0  0  0  0  0
  -26.9190  -27.1990   19.3700 C   0  0  0  0  0  3  0  0  0  0  0  0
  -25.6540  -27.8160   19.3990 C   0  0  0  0  0  3  0  0  0  0  0  0
  -24.1510  -29.7290   20.1940 C   0  0  0  0  0  2  0  0  0  0  0  0
  -25.0310  -30.9550   22.2320 N   0  0  0  0  0  0  0  0  0  0  0  0
  -23.7580  -31.7680   23.9240 O   0  0  0  0  0  0  0  0  0  0  0  0
  -23.2970  -29.1090   22.4790 C   0  0  0  0  0  0  0  0  0  0  0  0
  -22.0280  -28.7400   22.2440 N   0  0  0  0  0  0  0  0  0  0  0  0
  -24.0100  -28.5470   23.3150 O   0  0  0  0  0  0  0  0  0  0  0  0
  -21.5080  -29.2550   21.5470 H   0  0  0  0  0  0  0  0  0  0  0  0
  -18.8830  -26.9610   22.3460 C   0  0  0  0  0  0  0  0  0  0  0  0
  -21.3110  -27.6500   22.9060 C   0  0  0  0  0  3  0  0  0  0  0  0
  -21.7270  -26.2770   22.3270 C   0  0  0  0  0  2  0  0  0  0  0  0
  -20.8150  -25.8000   21.1920 C   0  0  0  0  0  2  0  0  0  0  0  0
  -19.3670  -25.6830   21.6770 C   0  0  0  0  0  2  0  0  0  0  0  0
  -19.7980  -27.8910   22.9070 C   0  0  0  0  0  0  0  0  0  0  0  0
  -19.2980  -29.0790   23.4840 C   0  0  0  0  0  3  0  0  0  0  0  0
  -17.9160  -29.3420   23.5080 C   0  0  0  0  0  3  0  0  0  0  0  0
  -17.0140  -28.4100   22.9660 C   0  0  0  0  0  3  0  0  0  0  0  0
  -17.4980  -27.2210   22.3910 C   0  0  0  0  0  3  0  0  0  0  0  0
  -26.0710  -32.3660   24.0900 C   0  0  0  0  0  3  0  0  0  0  0  0
  -25.6640  -33.7510   24.3680 N   0  0  0  0  0  0  0  0  0  0  0  0
  -26.0030  -34.8090   23.6190 C   0  0  0  0  0  0  0  0  0  0  0  0
  -26.7610  -34.7270   22.6480 O   0  0  0  0  0  0  0  0  0  0  0  0
  -25.0010  -33.8870   25.1170 H   0  0  0  0  0  0  0  0  0  0  0  0
  -24.2120  -36.4940   23.0930 C   0  0  0  0  0  1  0  0  0  0  0  0
  -25.4060  -36.1760   24.0070 C   0  0  0  0  0  3  0  0  0  0  0  0
  -27.4200  -37.1900   24.9780 C   0  0  0  0  0  1  0  0  0  0  0  0
  -26.3870  -37.2820   23.9500 N   0  0  0  0  0  0  0  0  0  0  0  0
  -25.9230  -38.1810   24.0490 H   0  0  0  0  0  0  0  0  0  0  0  0
  -26.5380  -31.6460   25.4130 C   0  0  1  0  0  0  0  0  0  0  0  0
  -25.3880  -31.3690   26.4100 C   0  0  0  0  0  1  0  0  0  0  0  0
  -27.2170  -30.2960   25.0870 C   0  0  0  0  0  1  0  0  0  0  0  0
  -27.5990  -32.5100   26.1350 C   0  0  0  0  0  1  0  0  0  0  0  0
  1  2  2  0
  1  4  1  0
  2  5  1  0
  3  9  1  0
  4  3  1  0
  5  3  1  0
  5  6  1  0
  9  7  1  0
  9  8  1  0
 11 10  1  0
 11  2  1  0
 11 20  1  0
 12 18  1  0
 13 18  1  0
 14 15  1  0
 14 13  1  0
 16 15  1  0
 16 25  1  0
 16 17  1  0
 18 17  1  0
 19 12  2  0
 20 21  1  0
 20 12  1  0
 22 23  2  0
 23 42  1  0
 24 23  1  0
 24 27  1  0
 25 26  1  0
 25 22  1  0
 26 24  2  0
 27 28  1  0
 28 29  2  0
 30 29  1  0
 31 30  2  0
 32 31  1  0
 32 27  2  0
 33 30  1  0
 33 34  1  0
 34 35  1  0
 35 36  2  0
 37 36  1  0
 37 41  1  0
 38 37  2  0
 39 34  2  0
 39 38  1  0
 40 39  1  0
 42 43  1  0
 43 46  1  0
 43 45  1  0
 44 42  2  0
 47 48  1  0
 47 22  1  0
 49 47  1  0
 50 51  2  0
 50  4  1  0
 53 52  1  0
 53 51  1  0
 53 54  1  0
 55 54  1  0
 56 67  2  0
 57 55  1  0
 57 62  1  0
 58 66  1  0
 58 68  1  0
 59 65  1  0
 59 61  1  0
 60 66  1  0
 61 60  1  0
 62 61  2  0
 63 64  1  0
 63 57  2  0
 64 59  2  0
 65 58  1  0
 66 56  1  0
 68 70  2  0
 69 68  1  0
 71 69  1  0
 72 81  2  0
 72 77  1  0
 73 69  1  0
 73 77  1  0
 74 73  1  0
 75 76  1  0
 75 74  1  0
 76 72  1  0
 77 78  2  0
 78 79  1  0
 80 79  2  0
 81 80  1  0
 82 56  1  0
 82 83  1  0
 82 92  1  0
 83 86  1  0
 84 88  1  0
 84 83  1  0
 85 84  2  0
 88 87  1  0
 90 88  1  0
 90 91  1  0
 90 89  1  0
 92 95  1  1
 92 93  1  0
 94 92  1  0
M  ISO  4  12 100  20 100  54 101  55 101
M  END
>  <TORSDO>  (38) 
F 22

>  <SCORE>  (38) 
-10.688

>  <name>  (38) 
37

>  <ligand_id>  (38) 
37

>  <original_smiles>  (38) 
[H]c1c([H])c([H])c2c(c1[H])C([H])([H])C([H])([H])C([H])([H])C2([H])N([H])C(=O)C1([H])N(C(=O)C([H])(N([H])C(=O)C([H])(N([H])C([H])([H])[H])C([H])([H])[H])C(C([H])([H])[H])(C([H])([H])[H])C([H])([H])[H])C([H])([H])c2c([H])c(OC([H])([H])C([H])(C([H])([H])[H])C([H])([H])C([H])([H])n3c([H])c(C([H])(N([H])C(=O)N4C([H])([H])C([H])([H])C([H])([H])C([H])(n5nc(-c6c([H])c([H])c(Oc7c([H])c([H])c(F)c([H])c7F)c([H])c6[H])c(C(=O)N([H])[H])c5N([H])[H])C4([H])[H])C([H])([H])[H])[n+]([H])c3C([H])(C([H])([H])[H])C([H])([H])[H])c([H])c([H])c2C1([H])[H]

>  <smiles>  (38) 
[H]c1c([H])c([H])c2c(c1[H])C([H])([H])C([H])([H])C([H])([H])C2([H])N([H])C(=O)C1([H])N(C(=O)C([H])(N([H])C(=O)C([H])(N([H])C([H])([H])[H])C([H])([H])[H])C(C([H])([H])[H])(C([H])([H])[H])C([H])([H])[H])C([H])([H])c2c([H])c(OC([H])([H])C([H])(C([H])([H])[H])C([H])([H])C([H])([H])n3c([H])c(C([H])(N([H])C(=O)N4C([H])([H])C([H])([H])C([H])([H])C([H])(n5nc(-c6c([H])c([H])c(Oc7c([H])c([H])c(F)c([H])c7F)c([H])c6[H])c(C(=O)N([H])[H])c5N([H])[H])C4([H])[H])C([H])([H])[H])[n+]([H])c3C([H])(C([H])([H])[H])C([H])([H])[H])c([H])c([H])c2C1([H])[H]

$$$$
38:0:0
     RDKit          3D

 92100  0  0  1  0  0  0  0  0999 V2000
  -30.4570  -15.0000   20.3540 C   0  0  0  0  0  0  0  0  0  0  0  0
  -30.3360  -12.6210   19.4740 C   0  0  0  0  0  2  0  0  0  0  0  0
  -29.4110  -12.5310   18.2380 C   0  0  0  0  0  2  0  0  0  0  0  0
  -27.9520  -12.3160   18.6750 C   0  0  0  0  0  2  0  0  0  0  0  0
  -27.5290  -13.2720   19.8200 C   0  0  0  0  0  3  0  0  0  0  0  0
  -28.5800  -13.3440   20.9490 C   0  0  0  0  0  2  0  0  0  0  0  0
  -29.8450  -13.7450   20.3240 N   0  0  0  0  0  0  0  0  0  0  0  0
  -31.6680  -15.0120   20.1020 O   0  0  0  0  0  0  0  0  0  0  0  0
  -29.2420  -18.9030   20.2560 C   0  0  0  0  0  3  0  0  0  0  0  0
  -29.6930  -20.3230   20.3740 C   0  0  0  0  0  0  0  0  0  0  0  0
  -31.0850  -20.4060   20.7600 C   0  0  0  0  0  0  0  0  0  0  0  0
  -31.8000  -19.2000   21.0500 C   0  0  0  0  0  0  0  0  0  0  0  0
  -30.0720  -17.6880   20.5020 C   0  0  0  0  0  0  0  0  0  0  0  0
  -33.2220  -19.1730   21.5970 C   0  0  0  0  0  1  0  0  0  0  0  0
  -31.3190  -17.9510   20.9110 N   0  0  0  0  0  0  0  0  0  0  0  0
  -29.6890  -16.2060   20.4120 N   0  0  0  0  0  0  0  0  0  0  0  0
  -28.6960  -16.0420   20.4280 H   0  0  0  0  0  0  0  0  0  0  0  0
  -25.1570  -13.8480   20.5830 C   0  0  0  0  0  0  0  0  0  0  0  0
  -24.0930  -13.0700   20.9480 C   0  0  0  0  0  0  0  0  0  0  0  0
  -24.5530  -11.7180   20.8980 C   0  0  0  0  0  0  0  0  0  0  0  0
  -26.1960  -12.9700   20.3240 N   0  0  0  0  0  0  0  0  0  0  0  0
  -25.8440  -11.6840   20.5830 N   0  0  0  0  0  0  0  0  0  0  0  0
  -23.8230  -10.4550   21.0730 C   0  0  0  0  0  0  0  0  0  0  0  0
  -24.2470   -9.4820   22.0040 C   0  0  0  0  0  3  0  0  0  0  0  0
  -23.5160   -8.2860   22.1700 C   0  0  0  0  0  3  0  0  0  0  0  0
  -22.3490   -8.0530   21.4020 C   0  0  0  0  0  0  0  0  0  0  0  0
  -21.9460   -9.0170   20.4610 C   0  0  0  0  0  3  0  0  0  0  0  0
  -22.6770  -10.2050   20.2930 C   0  0  0  0  0  3  0  0  0  0  0  0
  -21.5910   -6.9110   21.4770 O   0  0  0  0  0  0  0  0  0  0  0  0
  -21.5120   -6.1740   22.6320 C   0  0  0  0  0  0  0  0  0  0  0  0
  -21.0370   -6.7310   23.8390 C   0  0  0  0  0  3  0  0  0  0  0  0
  -20.9050   -5.9200   24.9840 C   0  0  0  0  0  3  0  0  0  0  0  0
  -21.2390   -4.5530   24.9230 C   0  0  0  0  0  0  0  0  0  0  0  0
  -21.7060   -3.9960   23.7200 C   0  0  0  0  0  3  0  0  0  0  0  0
  -21.8390   -4.8040   22.5770 C   0  0  0  0  0  0  0  0  0  0  0  0
  -22.2710   -4.2570   21.4150 F   0  0  0  0  0  0  0  0  0  0  0  0
  -21.1040   -3.7720   26.0200 F   0  0  0  0  0  0  0  0  0  0  0  0
  -22.6980  -13.5480   21.2270 C   0  0  0  0  0  0  0  0  0  0  0  0
  -21.9720  -12.8450   22.0880 N   0  0  0  0  0  0  0  0  0  0  0  0
  -22.2620  -14.5790   20.7170 O   0  0  0  0  0  0  0  0  0  0  0  0
  -22.3370  -12.0110   22.5220 H   0  0  0  0  0  0  0  0  0  0  0  0
  -21.0360  -13.1490   22.3200 H   0  0  0  0  0  0  0  0  0  0  0  0
  -25.3200  -15.2190   20.4190 N   0  0  0  0  0  0  0  0  0  0  0  0
  -24.5460  -15.8650   20.5330 H   0  0  0  0  0  0  0  0  0  0  0  0
  -26.1490  -15.6620   20.0450 H   0  0  0  0  0  0  0  0  0  0  0  0
  -31.4740  -22.5640   22.1400 C   0  0  0  0  0  1  0  0  0  0  0  0
  -32.1520  -22.4950   19.5900 C   0  0  0  0  0  1  0  0  0  0  0  0
  -31.8650  -21.7360   20.9040 C   0  0  0  0  0  3  0  0  0  0  0  0
  -28.7420  -21.6800   20.0930 C   0  0  0  0  0  2  0  0  0  0  0  0
  -28.7750  -23.3710   20.4470 C   0  0  0  0  0  3  0  0  0  0  0  0
  -27.8870  -24.6400   19.7750 C   0  0  0  0  0  3  0  0  0  0  0  0
  -28.0920  -26.1710   20.0260 O   0  0  0  0  0  0  0  0  0  0  0  0
  -24.4840  -31.8380   23.0640 C   0  0  0  0  0  0  0  0  0  0  0  0
  -27.0320  -27.1520   19.9580 C   0  0  0  0  0  0  0  0  0  0  0  0
  -23.2680  -30.4570   21.4240 C   0  0  0  0  0  3  0  0  0  0  0  0
  -24.7040  -28.8980   19.9650 C   0  0  0  0  0  0  0  0  0  0  0  0
  -25.8200  -30.7240   21.2370 C   0  0  0  0  0  2  0  0  0  0  0  0
  -25.8870  -29.3390   20.5690 C   0  0  0  0  0  0  0  0  0  0  0  0
  -27.0510  -28.4800   20.5520 C   0  0  0  0  0  3  0  0  0  0  0  0
  -25.8250  -26.8190   19.3070 C   0  0  0  0  0  3  0  0  0  0  0  0
  -24.6840  -27.6520   19.3190 C   0  0  0  0  0  3  0  0  0  0  0  0
  -23.4760  -29.7930   20.0360 C   0  0  0  0  0  2  0  0  0  0  0  0
  -24.5440  -31.0280   21.9630 N   0  0  0  0  0  0  0  0  0  0  0  0
  -23.4040  -32.1180   23.6060 O   0  0  0  0  0  0  0  0  0  0  0  0
  -22.6000  -29.4400   22.3840 C   0  0  0  0  0  0  0  0  0  0  0  0
  -21.2670  -29.2910   22.2890 N   0  0  0  0  0  0  0  0  0  0  0  0
  -23.2840  -28.7890   23.1780 O   0  0  0  0  0  0  0  0  0  0  0  0
  -20.7720  -29.8680   21.6220 H   0  0  0  0  0  0  0  0  0  0  0  0
  -17.8770  -28.1510   22.8760 C   0  0  0  0  0  0  0  0  0  0  0  0
  -20.4500  -28.3520   23.0620 C   0  0  0  0  0  3  0  0  0  0  0  0
  -20.5010  -26.9340   22.4460 C   0  0  0  0  0  2  0  0  0  0  0  0
  -19.3580  -26.6630   21.4620 C   0  0  0  0  0  2  0  0  0  0  0  0
  -18.0020  -26.8180   22.1570 C   0  0  0  0  0  2  0  0  0  0  0  0
  -19.0270  -28.8780   23.2870 C   0  0  0  0  0  0  0  0  0  0  0  0
  -18.8550  -30.1280   23.9220 C   0  0  0  0  0  3  0  0  0  0  0  0
  -17.5670  -30.6500   24.1490 C   0  0  0  0  0  3  0  0  0  0  0  0
  -16.4340  -29.9180   23.7540 C   0  0  0  0  0  3  0  0  0  0  0  0
  -16.5900  -28.6720   23.1230 C   0  0  0  0  0  3  0  0  0  0  0  0
  -25.7700  -32.4690   23.6840 C   0  0  0  0  0  3  0  0  0  0  0  0
  -26.3000  -31.6800   24.9440 C   0  0  1  0  0  0  0  0  0  0  0  0
  -25.2190  -31.4290   26.0210 C   0  0  0  0  0  1  0  0  0  0  0  0
  -26.8780  -30.3060   24.5320 C   0  0  0  0  0  1  0  0  0  0  0  0
  -27.4610  -32.4650   25.6010 C   0  0  0  0  0  1  0  0  0  0  0  0
  -25.4550  -33.8600   24.0460 N   0  0  0  0  0  0  0  0  0  0  0  0
  -25.8000  -34.9350   23.3250 C   0  0  0  0  0  0  0  0  0  0  0  0
  -26.4820  -34.8590   22.2990 O   0  0  0  0  0  0  0  0  0  0  0  0
  -24.8480  -33.9910   24.8410 H   0  0  0  0  0  0  0  0  0  0  0  0
  -24.0980  -36.7580   22.9900 C   0  0  0  0  0  1  0  0  0  0  0  0
  -25.3140  -36.3120   23.8170 C   0  0  0  0  0  3  0  0  0  0  0  0
  -27.4310  -37.1510   24.7360 C   0  0  0  0  0  1  0  0  0  0  0  0
  -26.3590  -37.3580   23.7670 N   0  0  0  0  0  0  0  0  0  0  0  0
  -25.9580  -38.2770   23.9310 H   0  0  0  0  0  0  0  0  0  0  0  0
  1 16  1  0
  2  7  1  0
  3  4  1  0
  3  2  1  0
  5  4  1  0
  5 21  1  0
  5  6  1  0
  7  1  1  0
  7  6  1  0
  8  1  2  0
  9 10  2  0
  9 13  1  0
 10 11  1  0
 11 48  1  0
 11 12  2  0
 12 14  1  0
 13 15  2  0
 15 12  1  0
 16 17  1  0
 16 13  1  0
 18 19  2  0
 19 38  1  0
 20 19  1  0
 20 23  1  0
 21 22  1  0
 21 18  1  0
 22 20  2  0
 23 24  1  0
 24 25  2  0
 26 29  1  0
 26 25  1  0
 27 26  2  0
 28 27  1  0
 28 23  2  0
 29 30  1  0
 30 31  1  0
 31 32  2  0
 33 32  1  0
 33 37  1  0
 34 33  2  0
 35 30  2  0
 35 34  1  0
 36 35  1  0
 38 39  1  0
 39 42  1  0
 39 41  1  0
 40 38  2  0
 43 44  1  0
 43 18  1  0
 45 43  1  0
 47 48  1  0
 48 46  1  0
 49 10  1  0
 49 50  1  0
 51 52  1  0
 51 50  2  0
 53 64  2  0
 54 52  1  0
 54 59  1  0
 55 63  1  0
 55 65  1  0
 56 62  1  0
 56 58  1  0
 57 63  1  0
 58 57  1  0
 59 58  2  0
 60 61  1  0
 60 54  2  0
 61 56  2  0
 62 55  1  0
 63 53  1  0
 65 67  2  0
 66 65  1  0
 68 66  1  0
 69 78  2  0
 69 74  1  0
 70 66  1  0
 70 74  1  0
 71 70  1  0
 72 73  1  0
 72 71  1  0
 73 69  1  0
 74 75  2  0
 75 76  1  0
 77 76  2  0
 78 77  1  0
 79 53  1  0
 79 84  1  0
 79 80  1  0
 80 83  1  1
 80 81  1  0
 82 80  1  0
 84 87  1  0
 85 89  1  0
 85 84  1  0
 86 85  2  0
 89 88  1  0
 91 89  1  0
 91 92  1  0
 91 90  1  0
M  ISO  4   1 100  16 100  51 101  52 101
M  END
>  <TORSDO>  (39) 
F 19

>  <SCORE>  (39) 
-14.539

>  <name>  (39) 
38

>  <ligand_id>  (39) 
38

>  <original_smiles>  (39) 
[H]c1c([H])c([H])c2c(c1[H])C([H])([H])C([H])([H])C([H])([H])C2([H])N([H])C(=O)C1([H])N(C(=O)C([H])(N([H])C(=O)C([H])(N([H])C([H])([H])[H])C([H])([H])[H])C(C([H])([H])[H])(C([H])([H])[H])C([H])([H])[H])C([H])([H])c2c([H])c(OC([H])([H])C([H])([H])C([H])([H])c3c([H])c(N([H])C(=O)N4C([H])([H])C([H])([H])C([H])([H])C([H])(n5nc(-c6c([H])c([H])c(Oc7c([H])c([H])c(F)c([H])c7F)c([H])c6[H])c(C(=O)N([H])[H])c5N([H])[H])C4([H])[H])nc(C([H])([H])[H])c3C([H])(C([H])([H])[H])C([H])([H])[H])c([H])c([H])c2C1([H])[H]

>  <smiles>  (39) 
[H]c1c([H])c([H])c2c(c1[H])C([H])([H])C([H])([H])C([H])([H])C2([H])N([H])C(=O)C1([H])N(C(=O)C([H])(N([H])C(=O)C([H])(N([H])C([H])([H])[H])C([H])([H])[H])C(C([H])([H])[H])(C([H])([H])[H])C([H])([H])[H])C([H])([H])c2c([H])c(OC([H])([H])C([H])([H])C([H])([H])c3c([H])c(N([H])C(=O)N4C([H])([H])C([H])([H])C([H])([H])C([H])(n5nc(-c6c([H])c([H])c(Oc7c([H])c([H])c(F)c([H])c7F)c([H])c6[H])c(C(=O)N([H])[H])c5N([H])[H])C4([H])[H])nc(C([H])([H])[H])c3C([H])(C([H])([H])[H])C([H])([H])[H])c([H])c([H])c2C1([H])[H]

$$$$
39:0:0
     RDKit          3D

 94102  0  0  1  0  0  0  0  0999 V2000
  -30.5190  -14.9460   20.0470 C   0  0  0  0  0  0  0  0  0  0  0  0
  -30.4000  -12.6110   19.1770 C   0  0  0  0  0  2  0  0  0  0  0  0
  -29.4210  -12.5520   17.9870 C   0  0  0  0  0  2  0  0  0  0  0  0
  -27.9800  -12.3230   18.4820 C   0  0  0  0  0  2  0  0  0  0  0  0
  -27.5900  -13.2650   19.6520 C   0  0  0  0  0  3  0  0  0  0  0  0
  -28.6880  -13.3240   20.7370 C   0  0  0  0  0  2  0  0  0  0  0  0
  -29.9410  -13.6980   20.0680 N   0  0  0  0  0  0  0  0  0  0  0  0
  -31.6920  -15.0550   19.6750 O   0  0  0  0  0  0  0  0  0  0  0  0
  -29.1470  -18.5670   19.9970 C   0  0  0  0  0  3  0  0  0  0  0  0
  -29.4810  -19.9690   20.1830 C   0  0  0  0  0  0  0  0  0  0  0  0
  -30.7710  -20.1960   20.7790 C   0  0  0  0  0  0  0  0  0  0  0  0
  -30.0490  -17.4780   20.3060 C   0  0  0  0  0  0  0  0  0  0  0  0
  -31.6350  -19.0830   20.9600 C   0  0  0  0  0  0  0  0  0  0  0  0
  -31.2710  -17.8040   20.7530 N   0  0  0  0  0  0  0  0  0  0  0  0
  -29.6970  -16.0540   20.1830 N   0  0  0  0  0  0  0  0  0  0  0  0
  -28.7140  -15.8480   20.2500 H   0  0  0  0  0  0  0  0  0  0  0  0
  -25.2310  -13.7610   20.5280 C   0  0  0  0  0  0  0  0  0  0  0  0
  -24.2120  -12.9440   20.9350 C   0  0  0  0  0  0  0  0  0  0  0  0
  -24.7150  -11.6100   20.8420 C   0  0  0  0  0  0  0  0  0  0  0  0
  -26.2870  -12.9230   20.2110 N   0  0  0  0  0  0  0  0  0  0  0  0
  -25.9870  -11.6220   20.4630 N   0  0  0  0  0  0  0  0  0  0  0  0
  -24.0390  -10.3190   21.0360 C   0  0  0  0  0  0  0  0  0  0  0  0
  -24.4660   -9.4020   22.0190 C   0  0  0  0  0  3  0  0  0  0  0  0
  -23.7870   -8.1770   22.1990 C   0  0  0  0  0  3  0  0  0  0  0  0
  -22.6680   -7.8610   21.3940 C   0  0  0  0  0  0  0  0  0  0  0  0
  -22.2610   -8.7690   20.3990 C   0  0  0  0  0  3  0  0  0  0  0  0
  -22.9410   -9.9850   20.2180 C   0  0  0  0  0  3  0  0  0  0  0  0
  -21.9630   -6.6850   21.4790 O   0  0  0  0  0  0  0  0  0  0  0  0
  -21.7780   -6.0430   22.6770 C   0  0  0  0  0  0  0  0  0  0  0  0
  -21.1350   -6.6680   23.7670 C   0  0  0  0  0  3  0  0  0  0  0  0
  -20.9050   -5.9470   24.9570 C   0  0  0  0  0  3  0  0  0  0  0  0
  -21.3080   -4.6020   25.0560 C   0  0  0  0  0  0  0  0  0  0  0  0
  -21.9440   -3.9770   23.9690 C   0  0  0  0  0  3  0  0  0  0  0  0
  -22.1760   -4.6950   22.7820 C   0  0  0  0  0  0  0  0  0  0  0  0
  -22.7710   -4.0800   21.7310 F   0  0  0  0  0  0  0  0  0  0  0  0
  -21.0790   -3.9080   26.1940 F   0  0  0  0  0  0  0  0  0  0  0  0
  -22.8180  -13.3680   21.2920 C   0  0  0  0  0  0  0  0  0  0  0  0
  -22.1690  -12.6410   22.1940 N   0  0  0  0  0  0  0  0  0  0  0  0
  -22.3140  -14.3800   20.8080 O   0  0  0  0  0  0  0  0  0  0  0  0
  -22.5890  -11.8200   22.6050 H   0  0  0  0  0  0  0  0  0  0  0  0
  -21.2380  -12.9100   22.4800 H   0  0  0  0  0  0  0  0  0  0  0  0
  -25.3380  -15.1410   20.3760 N   0  0  0  0  0  0  0  0  0  0  0  0
  -24.5500  -15.7580   20.5360 H   0  0  0  0  0  0  0  0  0  0  0  0
  -26.1320  -15.6170   19.9680 H   0  0  0  0  0  0  0  0  0  0  0  0
  -32.2170  -22.1990   20.1720 C   0  0  0  0  0  1  0  0  0  0  0  0
  -31.8850  -21.6460   22.6400 C   0  0  0  0  0  1  0  0  0  0  0  0
  -31.2790  -21.5800   21.2210 C   0  0  0  0  0  3  0  0  0  0  0  0
  -33.9090  -18.2550   21.1000 C   0  0  0  0  0  1  0  0  0  0  0  0
  -32.9470  -19.2820   21.3390 O   0  0  0  0  0  0  0  0  0  0  0  0
  -28.4680  -21.1050   19.6530 C   0  0  0  0  0  2  0  0  0  0  0  0
  -28.4870  -22.6760   20.0540 C   0  0  0  0  0  3  0  0  0  0  0  0
  -27.5300  -23.7790   19.3750 C   0  0  0  0  0  3  0  0  0  0  0  0
  -27.4480  -25.2260   20.0710 C   0  0  0  0  0  2  0  0  0  0  0  0
  -27.4060  -26.5010   19.3110 O   0  0  0  0  0  0  0  0  0  0  0  0
  -24.5060  -31.7820   23.3310 C   0  0  0  0  0  0  0  0  0  0  0  0
  -26.3740  -27.4150   19.5450 C   0  0  0  0  0  0  0  0  0  0  0  0
  -23.0300  -30.7050   21.6710 C   0  0  0  0  0  3  0  0  0  0  0  0
  -24.1880  -29.2120   19.9450 C   0  0  0  0  0  0  0  0  0  0  0  0
  -25.5620  -30.8210   21.2710 C   0  0  0  0  0  2  0  0  0  0  0  0
  -25.4480  -29.5280   20.4700 C   0  0  0  0  0  0  0  0  0  0  0  0
  -26.5480  -28.6460   20.2520 C   0  0  0  0  0  3  0  0  0  0  0  0
  -25.0960  -27.1430   19.0170 C   0  0  0  0  0  3  0  0  0  0  0  0
  -24.0130  -28.0260   19.2100 C   0  0  0  0  0  3  0  0  0  0  0  0
  -23.0520  -30.1820   20.2100 C   0  0  0  0  0  2  0  0  0  0  0  0
  -24.3910  -31.1120   22.1470 N   0  0  0  0  0  0  0  0  0  0  0  0
  -23.5070  -32.0880   23.9980 O   0  0  0  0  0  0  0  0  0  0  0  0
  -22.3560  -29.6430   22.5720 C   0  0  0  0  0  0  0  0  0  0  0  0
  -21.0210  -29.5320   22.4820 N   0  0  0  0  0  0  0  0  0  0  0  0
  -23.0350  -28.9240   23.3110 O   0  0  0  0  0  0  0  0  0  0  0  0
  -20.5360  -30.1600   21.8570 H   0  0  0  0  0  0  0  0  0  0  0  0
  -17.6310  -28.3420   22.8980 C   0  0  0  0  0  0  0  0  0  0  0  0
  -20.1880  -28.5700   23.2050 C   0  0  0  0  0  3  0  0  0  0  0  0
  -20.2850  -27.1640   22.5710 C   0  0  0  0  0  2  0  0  0  0  0  0
  -19.1920  -26.8920   21.5330 C   0  0  0  0  0  2  0  0  0  0  0  0
  -17.8040  -27.0220   22.1690 C   0  0  0  0  0  2  0  0  0  0  0  0
  -18.7500  -29.0770   23.3700 C   0  0  0  0  0  0  0  0  0  0  0  0
  -18.5340  -30.3160   24.0120 C   0  0  0  0  0  3  0  0  0  0  0  0
  -17.2310  -30.8190   24.1860 C   0  0  0  0  0  3  0  0  0  0  0  0
  -16.1260  -30.0810   23.7300 C   0  0  0  0  0  3  0  0  0  0  0  0
  -16.3260  -28.8440   23.0910 C   0  0  0  0  0  3  0  0  0  0  0  0
  -25.8950  -32.2170   23.8920 C   0  0  0  0  0  3  0  0  0  0  0  0
  -25.7690  -33.6020   24.3650 N   0  0  0  0  0  0  0  0  0  0  0  0
  -26.1980  -34.6800   23.6940 C   0  0  0  0  0  0  0  0  0  0  0  0
  -26.8100  -34.6000   22.6260 O   0  0  0  0  0  0  0  0  0  0  0  0
  -25.2220  -33.7470   25.2030 H   0  0  0  0  0  0  0  0  0  0  0  0
  -24.7040  -36.7010   23.5790 C   0  0  0  0  0  1  0  0  0  0  0  0
  -25.9000  -36.0640   24.3040 C   0  0  0  0  0  3  0  0  0  0  0  0
  -28.1420  -36.5920   25.1540 C   0  0  0  0  0  1  0  0  0  0  0  0
  -27.0570  -36.9860   24.2600 N   0  0  0  0  0  0  0  0  0  0  0  0
  -26.7730  -37.9310   24.5030 H   0  0  0  0  0  0  0  0  0  0  0  0
  -26.4190  -31.2800   25.0500 C   0  0  1  0  0  0  0  0  0  0  0  0
  -25.3950  -31.0700   26.1900 C   0  0  0  0  0  1  0  0  0  0  0  0
  -26.7980  -29.8860   24.4960 C   0  0  0  0  0  1  0  0  0  0  0  0
  -27.7080  -31.8760   25.6610 C   0  0  0  0  0  1  0  0  0  0  0  0
  1  7  1  0
  1 15  1  0
  2  7  1  0
  3  4  1  0
  3  2  1  0
  5  4  1  0
  5 20  1  0
  5  6  1  0
  7  6  1  0
  8  1  2  0
  9 10  1  0
  9 12  2  0
 10 11  2  0
 11 13  1  0
 11 47  1  0
 12 14  1  0
 13 49  1  0
 14 13  2  0
 15 16  1  0
 15 12  1  0
 17 18  2  0
 18 37  1  0
 19 18  1  0
 19 22  1  0
 20 21  1  0
 20 17  1  0
 21 19  2  0
 22 23  1  0
 23 24  2  0
 25 28  1  0
 25 24  1  0
 26 25  2  0
 27 26  1  0
 27 22  2  0
 28 29  1  0
 29 34  2  0
 29 30  1  0
 30 31  2  0
 31 32  1  0
 32 36  1  0
 33 32  2  0
 34 33  1  0
 35 34  1  0
 37 38  1  0
 38 41  1  0
 38 40  1  0
 39 37  2  0
 42 17  1  0
 42 43  1  0
 44 42  1  0
 45 47  1  0
 47 46  1  0
 48 49  1  0
 50 51  1  0
 50 10  1  0
 52 51  2  0
 52 53  1  0
 54 56  1  0
 54 53  1  0
 55 66  2  0
 56 61  1  0
 57 65  1  0
 57 67  1  0
 58 64  1  0
 58 60  1  0
 59 65  1  0
 60 59  1  0
 61 60  2  0
 62 63  1  0
 62 56  2  0
 63 58  2  0
 64 57  1  0
 65 55  1  0
 67 69  2  0
 68 67  1  0
 70 68  1  0
 71 80  2  0
 71 76  1  0
 72 68  1  0
 72 76  1  0
 73 72  1  0
 74 75  1  0
 74 73  1  0
 75 71  1  0
 76 77  2  0
 77 78  1  0
 79 78  2  0
 80 79  1  0
 81 55  1  0
 81 82  1  0
 81 91  1  0
 82 85  1  0
 83 87  1  0
 83 82  1  0
 84 83  2  0
 87 86  1  0
 89 87  1  0
 89 90  1  0
 89 88  1  0
 91 94  1  1
 91 92  1  0
 93 91  1  0
M  ISO  4   1 100  15 100  53 101  54 101
M  END
>  <TORSDO>  (40) 
F 21

>  <SCORE>  (40) 
-11.827

>  <name>  (40) 
39

>  <ligand_id>  (40) 
39

>  <original_smiles>  (40) 
[H]c1c([H])c([H])c2c(c1[H])C([H])([H])C([H])([H])C([H])([H])C2([H])N([H])C(=O)C1([H])N(C(=O)C([H])(N([H])C(=O)C([H])(N([H])C([H])([H])[H])C([H])([H])[H])C(C([H])([H])[H])(C([H])([H])[H])C([H])([H])[H])C([H])([H])c2c([H])c(OC([H])([H])C([H])([H])C([H])([H])C([H])([H])c3c([H])c(N([H])C(=O)N4C([H])([H])C([H])([H])C([H])([H])C([H])(n5nc(-c6c([H])c([H])c(Oc7c([H])c([H])c(F)c([H])c7F)c([H])c6[H])c(C(=O)N([H])[H])c5N([H])[H])C4([H])[H])nc(OC([H])([H])[H])c3C([H])(C([H])([H])[H])C([H])([H])[H])c([H])c([H])c2C1([H])[H]

>  <smiles>  (40) 
[H]c1c([H])c([H])c2c(c1[H])C([H])([H])C([H])([H])C([H])([H])C2([H])N([H])C(=O)C1([H])N(C(=O)C([H])(N([H])C(=O)C([H])(N([H])C([H])([H])[H])C([H])([H])[H])C(C([H])([H])[H])(C([H])([H])[H])C([H])([H])[H])C([H])([H])c2c([H])c(OC([H])([H])C([H])([H])C([H])([H])C([H])([H])c3c([H])c(N([H])C(=O)N4C([H])([H])C([H])([H])C([H])([H])C([H])(n5nc(-c6c([H])c([H])c(Oc7c([H])c([H])c(F)c([H])c7F)c([H])c6[H])c(C(=O)N([H])[H])c5N([H])[H])C4([H])[H])nc(OC([H])([H])[H])c3C([H])(C([H])([H])[H])C([H])([H])[H])c([H])c([H])c2C1([H])[H]

$$$$
40:0:0
     RDKit          3D

 90 98  0  0  1  0  0  0  0  0999 V2000
  -28.7920  -17.9740   20.6440 C   0  0  0  0  0  3  0  0  0  0  0  0
  -31.1940  -19.1280   20.3790 C   0  0  0  0  0  0  0  0  0  0  0  0
  -30.0240  -19.9480   20.3960 C   0  0  0  0  0  0  0  0  0  0  0  0
  -29.9560  -17.1430   20.6230 C   0  0  0  0  0  0  0  0  0  0  0  0
  -32.5780  -19.7250   20.2040 C   0  0  0  0  0  1  0  0  0  0  0  0
  -28.8120  -19.3420   20.5240 N   0  0  0  0  0  0  0  0  0  0  0  0
  -31.1590  -17.7670   20.4900 N   0  0  0  0  0  0  0  0  0  0  0  0
  -30.5720  -14.6480   20.4030 C   0  0  0  0  0  0  0  0  0  0  0  0
  -30.3390  -12.4360   19.3010 C   0  0  0  0  0  2  0  0  0  0  0  0
  -29.3900  -12.5990   18.0910 C   0  0  0  0  0  2  0  0  0  0  0  0
  -27.9190  -12.4420   18.5240 C   0  0  0  0  0  2  0  0  0  0  0  0
  -27.5700  -13.2830   19.7800 C   0  0  0  0  0  3  0  0  0  0  0  0
  -28.6310  -13.0970   20.8880 C   0  0  0  0  0  2  0  0  0  0  0  0
  -29.9420  -13.4360   20.3120 N   0  0  0  0  0  0  0  0  0  0  0  0
  -31.7370  -14.7890   20.0200 O   0  0  0  0  0  0  0  0  0  0  0  0
  -29.7760  -15.7050   20.7570 N   0  0  0  0  0  0  0  0  0  0  0  0
  -28.8480  -15.4260   21.0310 H   0  0  0  0  0  0  0  0  0  0  0  0
  -25.1760  -13.8840   20.4950 C   0  0  0  0  0  0  0  0  0  0  0  0
  -24.1100  -13.1100   20.8670 C   0  0  0  0  0  0  0  0  0  0  0  0
  -24.5720  -11.7590   20.8340 C   0  0  0  0  0  0  0  0  0  0  0  0
  -26.2210  -13.0040   20.2620 N   0  0  0  0  0  0  0  0  0  0  0  0
  -25.8620  -11.7210   20.5260 N   0  0  0  0  0  0  0  0  0  0  0  0
  -23.8460  -10.4950   21.0230 C   0  0  0  0  0  0  0  0  0  0  0  0
  -24.2750   -9.5310   21.9600 C   0  0  0  0  0  3  0  0  0  0  0  0
  -23.5510   -8.3320   22.1360 C   0  0  0  0  0  3  0  0  0  0  0  0
  -22.3830   -8.0910   21.3750 C   0  0  0  0  0  0  0  0  0  0  0  0
  -21.9730   -9.0440   20.4260 C   0  0  0  0  0  3  0  0  0  0  0  0
  -22.6970  -10.2350   20.2480 C   0  0  0  0  0  3  0  0  0  0  0  0
  -21.6300   -6.9440   21.4610 O   0  0  0  0  0  0  0  0  0  0  0  0
  -21.5630   -6.2130   22.6190 C   0  0  0  0  0  0  0  0  0  0  0  0
  -21.1130   -6.7770   23.8320 C   0  0  0  0  0  3  0  0  0  0  0  0
  -20.9930   -5.9710   24.9830 C   0  0  0  0  0  3  0  0  0  0  0  0
  -21.3140   -4.6020   24.9200 C   0  0  0  0  0  0  0  0  0  0  0  0
  -21.7560   -4.0370   23.7110 C   0  0  0  0  0  3  0  0  0  0  0  0
  -21.8770   -4.8400   22.5630 C   0  0  0  0  0  0  0  0  0  0  0  0
  -22.2840   -4.2850   21.3960 F   0  0  0  0  0  0  0  0  0  0  0  0
  -21.1910   -3.8260   26.0220 F   0  0  0  0  0  0  0  0  0  0  0  0
  -22.7110  -13.5860   21.1370 C   0  0  0  0  0  0  0  0  0  0  0  0
  -21.9860  -12.8920   22.0080 N   0  0  0  0  0  0  0  0  0  0  0  0
  -22.2710  -14.6070   20.6110 O   0  0  0  0  0  0  0  0  0  0  0  0
  -22.3550  -12.0670   22.4550 H   0  0  0  0  0  0  0  0  0  0  0  0
  -21.0470  -13.1940   22.2320 H   0  0  0  0  0  0  0  0  0  0  0  0
  -25.3390  -15.2540   20.3160 N   0  0  0  0  0  0  0  0  0  0  0  0
  -24.5610  -15.8990   20.4100 H   0  0  0  0  0  0  0  0  0  0  0  0
  -26.1590  -15.6820   19.9080 H   0  0  0  0  0  0  0  0  0  0  0  0
  -30.1310  -21.5040   20.2020 C   0  0  0  0  0  3  0  0  0  0  0  0
  -28.9030  -22.4890   20.3580 C   0  0  0  0  0  3  0  0  0  0  0  0
  -29.2610  -24.0430   20.2900 C   0  0  0  0  0  3  0  0  0  0  0  0
  -28.0700  -25.0640   20.1090 C   0  0  0  0  0  3  0  0  0  0  0  0
  -28.3270  -26.5170   20.1950 O   0  0  0  0  0  0  0  0  0  0  0  0
  -24.6560  -31.9360   23.2400 C   0  0  0  0  0  0  0  0  0  0  0  0
  -27.2100  -27.3650   20.1650 C   0  0  0  0  0  0  0  0  0  0  0  0
  -23.4290  -30.5420   21.6150 C   0  0  0  0  0  3  0  0  0  0  0  0
  -24.8550  -28.9860   20.1820 C   0  0  0  0  0  0  0  0  0  0  0  0
  -25.9690  -30.8470   21.4080 C   0  0  0  0  0  2  0  0  0  0  0  0
  -26.0340  -29.4700   20.7620 C   0  0  0  0  0  0  0  0  0  0  0  0
  -27.2160  -28.6710   20.7440 C   0  0  0  0  0  3  0  0  0  0  0  0
  -26.0010  -26.9350   19.5660 C   0  0  0  0  0  3  0  0  0  0  0  0
  -24.8390  -27.7230   19.5780 C   0  0  0  0  0  3  0  0  0  0  0  0
  -23.6250  -29.8680   20.2350 C   0  0  0  0  0  2  0  0  0  0  0  0
  -24.7050  -31.1250   22.1440 N   0  0  0  0  0  0  0  0  0  0  0  0
  -23.5780  -32.2220   23.7820 O   0  0  0  0  0  0  0  0  0  0  0  0
  -22.7700  -29.5280   22.5800 C   0  0  0  0  0  0  0  0  0  0  0  0
  -21.4430  -29.3540   22.4610 N   0  0  0  0  0  0  0  0  0  0  0  0
  -23.4510  -28.9020   23.3970 O   0  0  0  0  0  0  0  0  0  0  0  0
  -20.9540  -29.9110   21.7740 H   0  0  0  0  0  0  0  0  0  0  0  0
  -18.0630  -28.1740   22.9750 C   0  0  0  0  0  0  0  0  0  0  0  0
  -20.6230  -28.4240   23.2380 C   0  0  0  0  0  3  0  0  0  0  0  0
  -20.7180  -26.9880   22.6730 C   0  0  0  0  0  2  0  0  0  0  0  0
  -19.6130  -26.6640   21.6630 C   0  0  0  0  0  2  0  0  0  0  0  0
  -18.2330  -26.8180   22.3100 C   0  0  0  0  0  2  0  0  0  0  0  0
  -19.1860  -28.9350   23.3960 C   0  0  0  0  0  0  0  0  0  0  0  0
  -18.9730  -30.2030   23.9790 C   0  0  0  0  0  3  0  0  0  0  0  0
  -17.6700  -30.7100   24.1440 C   0  0  0  0  0  3  0  0  0  0  0  0
  -16.5620  -29.9460   23.7400 C   0  0  0  0  0  3  0  0  0  0  0  0
  -16.7590  -28.6800   23.1600 C   0  0  0  0  0  3  0  0  0  0  0  0
  -25.9470  -32.5610   23.8490 C   0  0  0  0  0  3  0  0  0  0  0  0
  -26.4840  -31.7750   25.1080 C   0  0  1  0  0  0  0  0  0  0  0  0
  -25.4090  -31.5250   26.1910 C   0  0  0  0  0  1  0  0  0  0  0  0
  -27.0590  -30.4010   24.6880 C   0  0  0  0  0  1  0  0  0  0  0  0
  -27.6470  -32.5590   25.7590 C   0  0  0  0  0  1  0  0  0  0  0  0
  -25.6410  -33.9550   24.2020 N   0  0  0  0  0  0  0  0  0  0  0  0
  -25.9410  -35.0170   23.4420 C   0  0  0  0  0  0  0  0  0  0  0  0
  -26.5740  -34.9270   22.3860 O   0  0  0  0  0  0  0  0  0  0  0  0
  -25.0770  -34.0990   25.0260 H   0  0  0  0  0  0  0  0  0  0  0  0
  -24.1800  -36.7930   23.1750 C   0  0  0  0  0  1  0  0  0  0  0  0
  -25.4610  -36.3980   23.9280 C   0  0  0  0  0  3  0  0  0  0  0  0
  -27.6240  -37.2970   24.6640 C   0  0  0  0  0  1  0  0  0  0  0  0
  -26.4770  -37.4620   23.7740 N   0  0  0  0  0  0  0  0  0  0  0  0
  -26.0690  -38.3760   23.9510 H   0  0  0  0  0  0  0  0  0  0  0  0
  2  3  2  0
  2  7  1  0
  3  6  1  0
  4  1  1  0
  4 16  1  0
  5  2  1  0
  6  1  2  0
  7  4  2  0
  8 16  1  0
  9 14  1  0
 10 11  1  0
 10  9  1  0
 12 11  1  0
 12 21  1  0
 12 13  1  0
 14  8  1  0
 14 13  1  0
 15  8  2  0
 16 17  1  0
 18 19  2  0
 19 38  1  0
 20 19  1  0
 20 23  1  0
 21 18  1  0
 21 22  1  0
 22 20  2  0
 23 24  1  0
 24 25  2  0
 26 29  1  0
 26 25  1  0
 27 26  2  0
 28 27  1  0
 28 23  2  0
 29 30  1  0
 30 31  1  0
 31 32  2  0
 33 32  1  0
 33 37  1  0
 34 33  2  0
 35 30  2  0
 35 34  1  0
 36 35  1  0
 38 39  1  0
 39 42  1  0
 39 41  1  0
 40 38  2  0
 43 44  1  0
 43 18  1  0
 45 43  1  0
 46 47  2  0
 46  3  1  0
 48 47  1  0
 49 50  1  0
 49 48  2  0
 51 62  2  0
 52 50  1  0
 52 57  1  0
 53 61  1  0
 53 63  1  0
 54 60  1  0
 54 56  1  0
 55 61  1  0
 56 55  1  0
 57 56  2  0
 58 59  1  0
 58 52  2  0
 59 54  2  0
 60 53  1  0
 61 51  1  0
 63 65  2  0
 64 63  1  0
 66 64  1  0
 67 76  2  0
 67 72  1  0
 68 64  1  0
 68 72  1  0
 69 68  1  0
 70 71  1  0
 70 69  1  0
 71 67  1  0
 72 73  2  0
 73 74  1  0
 75 74  2  0
 76 75  1  0
 77 51  1  0
 77 82  1  0
 77 78  1  0
 78 81  1  1
 78 79  1  0
 80 78  1  0
 82 85  1  0
 83 87  1  0
 83 82  1  0
 84 83  2  0
 87 86  1  0
 89 87  1  0
 89 90  1  0
 89 88  1  0
M  ISO  4   8 100  16 100  49 101  50 101
M  END
>  <TORSDO>  (41) 
F 20

>  <SCORE>  (41) 
-13.903

>  <name>  (41) 
40

>  <ligand_id>  (41) 
40

>  <original_smiles>  (41) 
[H]c1nc(C([H])([H])C([H])([H])C([H])([H])C([H])([H])Oc2c([H])c([H])c3c(c2[H])C([H])([H])N(C(=O)C([H])(N([H])C(=O)C([H])(N([H])C([H])([H])[H])C([H])([H])[H])C(C([H])([H])[H])(C([H])([H])[H])C([H])([H])[H])C([H])(C(=O)N([H])C2([H])c4c([H])c([H])c([H])c([H])c4C([H])([H])C([H])([H])C2([H])[H])C3([H])[H])c(C([H])([H])[H])nc1N([H])C(=O)N1C([H])([H])C([H])([H])C([H])([H])C([H])(n2nc(-c3c([H])c([H])c(Oc4c([H])c([H])c(F)c([H])c4F)c([H])c3[H])c(C(=O)N([H])[H])c2N([H])[H])C1([H])[H]

>  <smiles>  (41) 
[H]c1nc(C([H])([H])C([H])([H])C([H])([H])C([H])([H])Oc2c([H])c([H])c3c(c2[H])C([H])([H])N(C(=O)C([H])(N([H])C(=O)C([H])(N([H])C([H])([H])[H])C([H])([H])[H])C(C([H])([H])[H])(C([H])([H])[H])C([H])([H])[H])C([H])(C(=O)N([H])C2([H])c4c([H])c([H])c([H])c([H])c4C([H])([H])C([H])([H])C2([H])[H])C3([H])[H])c(C([H])([H])[H])nc1N([H])C(=O)N1C([H])([H])C([H])([H])C([H])([H])C([H])(n2nc(-c3c([H])c([H])c(Oc4c([H])c([H])c(F)c([H])c4F)c([H])c3[H])c(C(=O)N([H])[H])c2N([H])[H])C1([H])[H]

$$$$
41:0:0
     RDKit          3D

 92100  0  0  1  0  0  0  0  0999 V2000
  -27.7500  -19.4580   18.3250 C   0  0  0  0  0  3  0  0  0  0  0  0
  -27.5770  -18.1030   17.9320 C   0  0  0  0  0  0  0  0  0  0  0  0
  -28.3790  -19.3970   19.5420 C   0  0  0  0  0  0  0  0  0  0  0  0
  -26.8600  -17.5540   16.7340 C   0  0  0  0  0  1  0  0  0  0  0  0
  -28.1190  -17.2670   18.7980 N   0  0  0  0  0  0  0  0  0  0  0  0
  -28.6030  -18.0480   19.7890 N   0  0  0  0  0  0  0  0  0  0  0  0
  -28.7610  -20.5000   20.4940 C   0  0  0  0  0  2  0  0  0  0  0  0
  -28.4350  -21.9150   19.9630 C   0  0  0  0  0  2  0  0  0  0  0  0
  -28.6440  -23.0750   20.9570 C   0  0  0  0  0  2  0  0  0  0  0  0
  -28.5270  -24.4530   20.2620 C   0  0  0  0  0  2  0  0  0  0  0  0
  -28.4010  -25.6420   21.2350 C   0  0  0  0  0  2  0  0  0  0  0  0
  -28.5470  -26.9060   20.5710 O   0  0  0  0  0  0  0  0  0  0  0  0
  -24.5330  -32.0440   23.3850 C   0  0  0  0  0  0  0  0  0  0  0  0
  -27.3850  -27.6350   20.4780 C   0  0  0  0  0  0  0  0  0  0  0  0
  -23.4360  -30.6260   21.6800 C   0  0  0  0  0  3  0  0  0  0  0  0
  -24.9820  -29.1050   20.3410 C   0  0  0  0  0  0  0  0  0  0  0  0
  -25.9620  -31.0210   21.6190 C   0  0  0  0  0  2  0  0  0  0  0  0
  -26.1000  -29.6500   20.9910 C   0  0  0  0  0  0  0  0  0  0  0  0
  -27.3070  -28.9220   21.0520 C   0  0  0  0  0  3  0  0  0  0  0  0
  -26.2570  -27.1010   19.8190 C   0  0  0  0  0  3  0  0  0  0  0  0
  -25.0560  -27.8330   19.7490 C   0  0  0  0  0  3  0  0  0  0  0  0
  -23.7280  -29.9480   20.3150 C   0  0  0  0  0  2  0  0  0  0  0  0
  -24.6580  -31.2450   22.2890 N   0  0  0  0  0  0  0  0  0  0  0  0
  -23.4200  -32.3040   23.8650 O   0  0  0  0  0  0  0  0  0  0  0  0
  -22.7450  -29.5990   22.6050 C   0  0  0  0  0  0  0  0  0  0  0  0
  -21.4290  -29.4180   22.4200 N   0  0  0  0  0  0  0  0  0  0  0  0
  -23.3930  -28.9680   23.4460 O   0  0  0  0  0  0  0  0  0  0  0  0
  -20.9700  -29.9780   21.7150 H   0  0  0  0  0  0  0  0  0  0  0  0
  -18.0290  -28.2480   22.7740 C   0  0  0  0  0  0  0  0  0  0  0  0
  -20.5770  -28.4780   23.1460 C   0  0  0  0  0  3  0  0  0  0  0  0
  -20.6890  -27.0530   22.5550 C   0  0  0  0  0  2  0  0  0  0  0  0
  -19.6230  -26.7540   21.4970 C   0  0  0  0  0  2  0  0  0  0  0  0
  -18.2200  -26.9050   22.0890 C   0  0  0  0  0  2  0  0  0  0  0  0
  -19.1370  -28.9930   23.2560 C   0  0  0  0  0  0  0  0  0  0  0  0
  -18.9080  -30.2520   23.8520 C   0  0  0  0  0  3  0  0  0  0  0  0
  -17.6020  -30.7640   23.9750 C   0  0  0  0  0  3  0  0  0  0  0  0
  -16.5080  -30.0140   23.5120 C   0  0  0  0  0  3  0  0  0  0  0  0
  -16.7210  -28.7580   22.9170 C   0  0  0  0  0  3  0  0  0  0  0  0
  -25.7750  -32.6910   24.0750 C   0  0  0  0  0  3  0  0  0  0  0  0
  -25.4480  -34.0960   24.3510 N   0  0  0  0  0  0  0  0  0  0  0  0
  -25.8230  -35.1280   23.5840 C   0  0  0  0  0  0  0  0  0  0  0  0
  -26.5510  -35.0000   22.5940 O   0  0  0  0  0  0  0  0  0  0  0  0
  -24.8150  -34.2720   25.1170 H   0  0  0  0  0  0  0  0  0  0  0  0
  -24.1090  -36.8980   23.0840 C   0  0  0  0  0  1  0  0  0  0  0  0
  -25.3070  -36.5270   23.9740 C   0  0  0  0  0  3  0  0  0  0  0  0
  -27.3920  -37.4440   24.8900 C   0  0  0  0  0  1  0  0  0  0  0  0
  -26.3420  -37.5810   23.8850 N   0  0  0  0  0  0  0  0  0  0  0  0
  -25.9270  -38.5030   23.9850 H   0  0  0  0  0  0  0  0  0  0  0  0
  -26.2100  -31.9480   25.3960 C   0  0  1  0  0  0  0  0  0  0  0  0
  -25.0480  -31.7260   26.3930 C   0  0  0  0  0  1  0  0  0  0  0  0
  -26.8240  -30.5680   25.0680 C   0  0  0  0  0  1  0  0  0  0  0  0
  -27.3110  -32.7600   26.1180 C   0  0  0  0  0  1  0  0  0  0  0  0
  -29.2350  -17.3910   20.9240 C   0  0  0  0  0  2  0  0  0  0  0  0
  -30.6110  -16.7850   20.5670 C   0  0  0  0  0  2  0  0  0  0  0  0
  -31.1730  -14.4560   20.0650 C   0  0  0  0  0  0  0  0  0  0  0  0
  -30.6640  -12.4240   18.7570 C   0  0  0  0  0  2  0  0  0  0  0  0
  -29.6920  -12.7610   17.6110 C   0  0  0  0  0  2  0  0  0  0  0  0
  -28.2300  -12.6940   18.0930 C   0  0  0  0  0  2  0  0  0  0  0  0
  -27.9990  -13.4620   19.4210 C   0  0  0  0  0  3  0  0  0  0  0  0
  -29.0770  -13.1020   20.4670 C   0  0  0  0  0  2  0  0  0  0  0  0
  -30.4020  -13.3510   19.8690 N   0  0  0  0  0  0  0  0  0  0  0  0
  -32.1930  -14.6890   19.4090 O   0  0  0  0  0  0  0  0  0  0  0  0
  -30.9300  -15.1370   22.3670 C   0  0  0  0  0  1  0  0  0  0  0  0
  -30.6910  -15.3630   20.9410 N   0  0  0  0  0  0  0  0  0  0  0  0
  -25.6500  -14.1570   20.2160 C   0  0  0  0  0  0  0  0  0  0  0  0
  -24.5650  -13.4270   20.6190 C   0  0  0  0  0  0  0  0  0  0  0  0
  -24.9670  -12.0570   20.5610 C   0  0  0  0  0  0  0  0  0  0  0  0
  -26.6500  -13.2370   19.9400 N   0  0  0  0  0  0  0  0  0  0  0  0
  -26.2400  -11.9680   20.1980 N   0  0  0  0  0  0  0  0  0  0  0  0
  -24.1920  -10.8260   20.7680 C   0  0  0  0  0  0  0  0  0  0  0  0
  -24.5630   -9.8740   21.7450 C   0  0  0  0  0  3  0  0  0  0  0  0
  -23.7930   -8.7070   21.9370 C   0  0  0  0  0  3  0  0  0  0  0  0
  -22.6390   -8.4820   21.1520 C   0  0  0  0  0  0  0  0  0  0  0  0
  -22.2870   -9.4210   20.1660 C   0  0  0  0  0  3  0  0  0  0  0  0
  -23.0570  -10.5800   19.9720 C   0  0  0  0  0  3  0  0  0  0  0  0
  -21.8470   -7.3650   21.2510 O   0  0  0  0  0  0  0  0  0  0  0  0
  -21.6640   -6.7150   22.4450 C   0  0  0  0  0  0  0  0  0  0  0  0
  -21.1330   -7.3740   23.5770 C   0  0  0  0  0  3  0  0  0  0  0  0
  -20.8960   -6.6530   24.7640 C   0  0  0  0  0  3  0  0  0  0  0  0
  -21.1780   -5.2760   24.8210 C   0  0  0  0  0  0  0  0  0  0  0  0
  -21.7020   -4.6170   23.6940 C   0  0  0  0  0  3  0  0  0  0  0  0
  -21.9410   -5.3350   22.5080 C   0  0  0  0  0  0  0  0  0  0  0  0
  -22.4270   -4.6900   21.4200 F   0  0  0  0  0  0  0  0  0  0  0  0
  -20.9430   -4.5820   25.9570 F   0  0  0  0  0  0  0  0  0  0  0  0
  -23.2010  -13.9630   20.9460 C   0  0  0  0  0  0  0  0  0  0  0  0
  -22.4920  -13.3100   21.8570 N   0  0  0  0  0  0  0  0  0  0  0  0
  -22.7740  -14.9950   20.4270 O   0  0  0  0  0  0  0  0  0  0  0  0
  -22.8540  -12.4770   22.2960 H   0  0  0  0  0  0  0  0  0  0  0  0
  -21.5810  -13.6540   22.1250 H   0  0  0  0  0  0  0  0  0  0  0  0
  -25.8600  -15.5220   20.0450 N   0  0  0  0  0  0  0  0  0  0  0  0
  -25.1080  -16.1890   20.1770 H   0  0  0  0  0  0  0  0  0  0  0  0
  -26.6790  -15.9350   19.5990 H   0  0  0  0  0  0  0  0  0  0  0  0
  1  3  2  0
  2  1  1  0
  2  5  2  0
  3  6  1  0
  3  7  1  0
  4  2  1  0
  5  6  1  0
  6 53  1  0
  8  7  1  0
  8  9  1  0
 10  9  1  0
 10 11  1  0
 12 11  1  0
 13 24  2  0
 14 12  1  0
 14 19  1  0
 15 23  1  0
 15 25  1  0
 16 18  1  0
 17 23  1  0
 18 19  2  0
 18 17  1  0
 20 14  2  0
 21 20  1  0
 21 16  2  0
 22 16  1  0
 22 15  1  0
 23 13  1  0
 25 27  2  0
 26 25  1  0
 28 26  1  0
 29 38  2  0
 29 34  1  0
 30 26  1  0
 30 34  1  0
 31 30  1  0
 32 33  1  0
 32 31  1  0
 33 29  1  0
 34 35  2  0
 35 36  1  0
 37 36  2  0
 38 37  1  0
 39 13  1  0
 39 40  1  0
 39 49  1  0
 40 43  1  0
 41 45  1  0
 41 40  1  0
 42 41  2  0
 45 44  1  0
 47 45  1  0
 47 48  1  0
 47 46  1  0
 49 52  1  1
 49 50  1  0
 51 49  1  0
 54 53  1  0
 54 64  1  0
 55 64  1  0
 56 61  1  0
 57 58  1  0
 57 56  1  0
 59 58  1  0
 59 68  1  0
 59 60  1  0
 61 55  1  0
 61 60  1  0
 62 55  2  0
 64 63  1  0
 65 66  2  0
 66 85  1  0
 67 66  1  0
 67 70  1  0
 68 69  1  0
 68 65  1  0
 69 67  2  0
 70 71  1  0
 71 72  2  0
 73 76  1  0
 73 72  1  0
 74 73  2  0
 75 74  1  0
 75 70  2  0
 76 77  1  0
 77 82  2  0
 77 78  1  0
 78 79  2  0
 79 80  1  0
 80 84  1  0
 81 80  2  0
 82 81  1  0
 83 82  1  0
 85 86  1  0
 86 89  1  0
 86 88  1  0
 87 85  2  0
 90 91  1  0
 90 65  1  0
 92 90  1  0
M  ISO  4  11 101  12 101  55 100  64 100
M  END
>  <TORSDO>  (42) 
F 23

>  <SCORE>  (42) 
-8.605

>  <name>  (42) 
41

>  <ligand_id>  (42) 
41

>  <original_smiles>  (42) 
[H]c1c([H])c([H])c2c(c1[H])C([H])([H])C([H])([H])C([H])([H])C2([H])N([H])C(=O)C1([H])N(C(=O)C([H])(N([H])C(=O)C([H])(N([H])C([H])([H])[H])C([H])([H])[H])C(C([H])([H])[H])(C([H])([H])[H])C([H])([H])[H])C([H])([H])c2c([H])c(OC([H])([H])C([H])([H])C([H])([H])C([H])([H])C([H])([H])c3c([H])c(C([H])([H])[H])nn3C([H])([H])C([H])([H])N(C(=O)N3C([H])([H])C([H])([H])C([H])([H])C([H])(n4nc(-c5c([H])c([H])c(Oc6c([H])c([H])c(F)c([H])c6F)c([H])c5[H])c(C(=O)N([H])[H])c4N([H])[H])C3([H])[H])C([H])([H])[H])c([H])c([H])c2C1([H])[H]

>  <smiles>  (42) 
[H]c1c([H])c([H])c2c(c1[H])C([H])([H])C([H])([H])C([H])([H])C2([H])N([H])C(=O)C1([H])N(C(=O)C([H])(N([H])C(=O)C([H])(N([H])C([H])([H])[H])C([H])([H])[H])C(C([H])([H])[H])(C([H])([H])[H])C([H])([H])[H])C([H])([H])c2c([H])c(OC([H])([H])C([H])([H])C([H])([H])C([H])([H])C([H])([H])c3c([H])c(C([H])([H])[H])nn3C([H])([H])C([H])([H])N(C(=O)N3C([H])([H])C([H])([H])C([H])([H])C([H])(n4nc(-c5c([H])c([H])c(Oc6c([H])c([H])c(F)c([H])c6F)c([H])c5[H])c(C(=O)N([H])[H])c4N([H])[H])C3([H])[H])C([H])([H])[H])c([H])c([H])c2C1([H])[H]

$$$$
42:0:0
     RDKit          3D

 94102  0  0  1  0  0  0  0  0999 V2000
  -28.7920  -19.5710   19.1530 C   0  0  0  0  0  3  0  0  0  0  0  0
  -26.7080  -18.8330   19.3000 C   0  0  0  0  0  3  0  0  0  0  0  0
  -27.9760  -20.5640   18.6480 C   0  0  0  0  0  0  0  0  0  0  0  0
  -26.6280  -20.0500   18.6720 C   0  0  0  0  0  0  0  0  0  0  0  0
  -28.0170  -18.4980   19.5460 N   0  0  0  0  0  0  0  0  0  0  0  0
  -24.6870  -21.5990   19.1760 C   0  0  0  0  0  1  0  0  0  0  0  0
  -24.2760  -19.5130   17.9000 C   0  0  0  0  0  1  0  0  0  0  0  0
  -25.5140  -21.3380   16.7830 C   0  0  0  0  0  1  0  0  0  0  0  0
  -25.3120  -20.6350   18.1450 C   0  0  2  0  0  0  0  0  0  0  0  0
  -28.4790  -21.9250   18.1610 C   0  0  0  0  0  2  0  0  0  0  0  0
  -28.0740  -23.0710   19.1240 C   0  0  0  0  0  2  0  0  0  0  0  0
  -28.6580  -24.4780   18.8830 C   0  0  0  0  0  2  0  0  0  0  0  0
  -28.4140  -25.3710   20.1240 C   0  0  0  0  0  2  0  0  0  0  0  0
  -28.4770  -26.7900   19.8900 O   0  0  0  0  0  0  0  0  0  0  0  0
  -24.5860  -31.7880   23.1490 C   0  0  0  0  0  0  0  0  0  0  0  0
  -27.2820  -27.4790   19.9230 C   0  0  0  0  0  0  0  0  0  0  0  0
  -23.3930  -30.4170   21.4670 C   0  0  0  0  0  3  0  0  0  0  0  0
  -24.8550  -28.9320   20.0040 C   0  0  0  0  0  0  0  0  0  0  0  0
  -25.9120  -30.8120   21.2780 C   0  0  0  0  0  2  0  0  0  0  0  0
  -26.0110  -29.4630   20.5890 C   0  0  0  0  0  0  0  0  0  0  0  0
  -27.2280  -28.7490   20.5320 C   0  0  0  0  0  3  0  0  0  0  0  0
  -26.1030  -26.9480   19.3510 C   0  0  0  0  0  3  0  0  0  0  0  0
  -24.8900  -27.6660   19.3820 C   0  0  0  0  0  3  0  0  0  0  0  0
  -23.6070  -29.7720   20.0740 C   0  0  0  0  0  2  0  0  0  0  0  0
  -24.6470  -31.0230   22.0230 N   0  0  0  0  0  0  0  0  0  0  0  0
  -23.5030  -32.0340   23.7020 O   0  0  0  0  0  0  0  0  0  0  0  0
  -22.7480  -29.3650   22.3930 C   0  0  0  0  0  0  0  0  0  0  0  0
  -21.4210  -29.1990   22.2710 N   0  0  0  0  0  0  0  0  0  0  0  0
  -23.4390  -28.7120   23.1800 O   0  0  0  0  0  0  0  0  0  0  0  0
  -20.9290  -29.7780   21.5990 H   0  0  0  0  0  0  0  0  0  0  0  0
  -18.0410  -28.0250   22.7720 C   0  0  0  0  0  0  0  0  0  0  0  0
  -20.6040  -28.2420   23.0170 C   0  0  0  0  0  3  0  0  0  0  0  0
  -20.6860  -26.8240   22.4010 C   0  0  0  0  0  2  0  0  0  0  0  0
  -19.5750  -26.5040   21.4030 C   0  0  0  0  0  2  0  0  0  0  0  0
  -18.1830  -26.7170   22.0070 C   0  0  0  0  0  2  0  0  0  0  0  0
  -19.1750  -28.7530   23.2170 C   0  0  0  0  0  0  0  0  0  0  0  0
  -18.9800  -29.9920   23.8670 C   0  0  0  0  0  3  0  0  0  0  0  0
  -17.6860  -30.4820   24.1080 C   0  0  0  0  0  3  0  0  0  0  0  0
  -16.5670  -29.7500   23.6790 C   0  0  0  0  0  3  0  0  0  0  0  0
  -16.7440  -28.5280   23.0040 C   0  0  0  0  0  3  0  0  0  0  0  0
  -25.8610  -32.4130   23.7920 C   0  0  0  0  0  3  0  0  0  0  0  0
  -25.5440  -33.8020   24.1420 N   0  0  0  0  0  0  0  0  0  0  0  0
  -25.8870  -34.8690   23.4040 C   0  0  0  0  0  0  0  0  0  0  0  0
  -26.5720  -34.7850   22.3800 O   0  0  0  0  0  0  0  0  0  0  0  0
  -24.9410  -33.9380   24.9390 H   0  0  0  0  0  0  0  0  0  0  0  0
  -24.1510  -36.6590   23.0680 C   0  0  0  0  0  1  0  0  0  0  0  0
  -25.3910  -36.2480   23.8810 C   0  0  0  0  0  3  0  0  0  0  0  0
  -27.5140  -37.1290   24.7380 C   0  0  0  0  0  1  0  0  0  0  0  0
  -26.4190  -37.3070   23.7890 N   0  0  0  0  0  0  0  0  0  0  0  0
  -26.0070  -38.2210   23.9540 H   0  0  0  0  0  0  0  0  0  0  0  0
  -26.3780  -31.6200   25.0560 C   0  0  1  0  0  0  0  0  0  0  0  0
  -25.2850  -31.3650   26.1170 C   0  0  0  0  0  1  0  0  0  0  0  0
  -26.9600  -30.2480   24.6410 C   0  0  0  0  0  1  0  0  0  0  0  0
  -27.5270  -32.4020   25.7360 C   0  0  0  0  0  1  0  0  0  0  0  0
  -28.4080  -17.1730   20.0230 C   0  0  0  0  0  2  0  0  0  0  0  0
  -29.8290  -16.9680   20.5830 C   0  0  0  0  0  2  0  0  0  0  0  0
  -30.7040  -14.6090   20.5310 C   0  0  0  0  0  0  0  0  0  0  0  0
  -30.4560  -12.4700   19.3420 C   0  0  0  0  0  2  0  0  0  0  0  0
  -29.5000  -12.6680   18.1470 C   0  0  0  0  0  2  0  0  0  0  0  0
  -28.0350  -12.4900   18.5880 C   0  0  0  0  0  2  0  0  0  0  0  0
  -27.6860  -13.3510   19.8260 C   0  0  0  0  0  3  0  0  0  0  0  0
  -28.7250  -13.1090   20.9450 C   0  0  0  0  0  2  0  0  0  0  0  0
  -30.0640  -13.4170   20.3990 N   0  0  0  0  0  0  0  0  0  0  0  0
  -31.8200  -14.8510   20.0580 O   0  0  0  0  0  0  0  0  0  0  0  0
  -29.9200  -15.5700   21.0360 N   0  0  0  0  0  0  0  0  0  0  0  0
  -29.0900  -15.2120   21.4850 H   0  0  0  0  0  0  0  0  0  0  0  0
  -25.2930  -13.9970   20.5330 C   0  0  0  0  0  0  0  0  0  0  0  0
  -24.2060  -13.2350   20.8720 C   0  0  0  0  0  0  0  0  0  0  0  0
  -24.6420  -11.8810   20.7970 C   0  0  0  0  0  0  0  0  0  0  0  0
  -26.3220  -13.1020   20.2830 N   0  0  0  0  0  0  0  0  0  0  0  0
  -25.9310  -11.8230   20.4980 N   0  0  0  0  0  0  0  0  0  0  0  0
  -23.8940  -10.6260   20.9310 C   0  0  0  0  0  0  0  0  0  0  0  0
  -24.3310   -9.6000   21.7950 C   0  0  0  0  0  3  0  0  0  0  0  0
  -23.5860   -8.4080   21.9230 C   0  0  0  0  0  3  0  0  0  0  0  0
  -22.3930   -8.2340   21.1830 C   0  0  0  0  0  0  0  0  0  0  0  0
  -21.9760   -9.2510   20.3050 C   0  0  0  0  0  3  0  0  0  0  0  0
  -22.7220  -10.4350   20.1770 C   0  0  0  0  0  3  0  0  0  0  0  0
  -21.6200   -7.1000   21.2210 O   0  0  0  0  0  0  0  0  0  0  0  0
  -21.6120   -6.2730   22.3140 C   0  0  0  0  0  0  0  0  0  0  0  0
  -21.2720   -6.7430   23.6020 C   0  0  0  0  0  3  0  0  0  0  0  0
  -21.2040   -5.8440   24.6840 C   0  0  0  0  0  3  0  0  0  0  0  0
  -21.4700   -4.4750   24.4810 C   0  0  0  0  0  0  0  0  0  0  0  0
  -21.8030   -4.0040   23.2000 C   0  0  0  0  0  3  0  0  0  0  0  0
  -21.8680   -4.9000   22.1180 C   0  0  0  0  0  0  0  0  0  0  0  0
  -22.1680   -4.4380   20.8800 F   0  0  0  0  0  0  0  0  0  0  0  0
  -21.3990   -3.6090   25.5200 F   0  0  0  0  0  0  0  0  0  0  0  0
  -22.8190  -13.7340   21.1510 C   0  0  0  0  0  0  0  0  0  0  0  0
  -22.0730  -13.0250   21.9950 N   0  0  0  0  0  0  0  0  0  0  0  0
  -22.4010  -14.7800   20.6600 O   0  0  0  0  0  0  0  0  0  0  0  0
  -22.4250  -12.1780   22.4170 H   0  0  0  0  0  0  0  0  0  0  0  0
  -21.1390  -13.3370   22.2170 H   0  0  0  0  0  0  0  0  0  0  0  0
  -25.4760  -15.3650   20.3950 N   0  0  0  0  0  0  0  0  0  0  0  0
  -24.6940  -16.0060   20.4830 H   0  0  0  0  0  0  0  0  0  0  0  0
  -26.2900  -15.7880   19.9720 H   0  0  0  0  0  0  0  0  0  0  0  0
  1  5  1  0
  2  5  1  0
  3  4  1  0
  3  1  2  0
  4  2  2  0
  5 55  1  0
  9  7  1  6
  8  9  1  0
  9  4  1  0
  9  6  1  0
 10  3  1  0
 10 11  1  0
 12 11  1  0
 12 13  1  0
 14 16  1  0
 14 13  1  0
 15 26  2  0
 16 21  1  0
 17 25  1  0
 17 27  1  0
 18 24  1  0
 18 20  1  0
 19 25  1  0
 20 19  1  0
 21 20  2  0
 22 23  1  0
 22 16  2  0
 23 18  2  0
 24 17  1  0
 25 15  1  0
 27 29  2  0
 28 27  1  0
 30 28  1  0
 31 40  2  0
 31 36  1  0
 32 28  1  0
 32 36  1  0
 33 32  1  0
 34 35  1  0
 34 33  1  0
 35 31  1  0
 36 37  2  0
 37 38  1  0
 39 38  2  0
 40 39  1  0
 41 15  1  0
 41 42  1  0
 41 51  1  0
 42 45  1  0
 43 47  1  0
 43 42  1  0
 44 43  2  0
 47 46  1  0
 49 47  1  0
 49 50  1  0
 49 48  1  0
 51 54  1  1
 51 52  1  0
 53 51  1  0
 55 56  1  0
 56 65  1  0
 57 65  1  0
 58 63  1  0
 59 60  1  0
 59 58  1  0
 61 60  1  0
 61 70  1  0
 61 62  1  0
 63 57  1  0
 63 62  1  0
 64 57  2  0
 65 66  1  0
 67 68  2  0
 68 87  1  0
 69 68  1  0
 69 72  1  0
 70 71  1  0
 70 67  1  0
 71 69  2  0
 72 73  1  0
 73 74  2  0
 75 78  1  0
 75 74  1  0
 76 75  2  0
 77 76  1  0
 77 72  2  0
 78 79  1  0
 79 80  1  0
 80 81  2  0
 82 81  1  0
 82 86  1  0
 83 82  2  0
 84 79  2  0
 84 83  1  0
 85 84  1  0
 87 88  1  0
 88 91  1  0
 88 90  1  0
 89 87  2  0
 92 93  1  0
 92 67  1  0
 94 92  1  0
M  ISO  4  13 101  14 101  57 100  65 100
M  END
>  <TORSDO>  (43) 
F 23

>  <SCORE>  (43) 
-10.743

>  <name>  (43) 
42

>  <ligand_id>  (43) 
42

>  <original_smiles>  (43) 
[H]c1c([H])c([H])c2c(c1[H])C([H])([H])C([H])([H])C([H])([H])C2([H])N([H])C(=O)C1([H])N(C(=O)C([H])(N([H])C(=O)C([H])(N([H])C([H])([H])[H])C([H])([H])[H])C(C([H])([H])[H])(C([H])([H])[H])C([H])([H])[H])C([H])([H])c2c([H])c(OC([H])([H])C([H])([H])C([H])([H])C([H])([H])c3c(C(C([H])([H])[H])(C([H])([H])[H])C([H])([H])[H])c([H])n(C([H])([H])C([H])([H])N([H])C(=O)N4C([H])([H])C([H])([H])C([H])([H])C([H])(n5nc(-c6c([H])c([H])c(Oc7c([H])c([H])c(F)c([H])c7F)c([H])c6[H])c(C(=O)N([H])[H])c5N([H])[H])C4([H])[H])c3[H])c([H])c([H])c2C1([H])[H]

>  <smiles>  (43) 
[H]c1c([H])c([H])c2c(c1[H])C([H])([H])C([H])([H])C([H])([H])C2([H])N([H])C(=O)C1([H])N(C(=O)C([H])(N([H])C(=O)C([H])(N([H])C([H])([H])[H])C([H])([H])[H])C(C([H])([H])[H])(C([H])([H])[H])C([H])([H])[H])C([H])([H])c2c([H])c(OC([H])([H])C([H])([H])C([H])([H])C([H])([H])c3c(C(C([H])([H])[H])(C([H])([H])[H])C([H])([H])[H])c([H])n(C([H])([H])C([H])([H])N([H])C(=O)N4C([H])([H])C([H])([H])C([H])([H])C([H])(n5nc(-c6c([H])c([H])c(Oc7c([H])c([H])c(F)c([H])c7F)c([H])c6[H])c(C(=O)N([H])[H])c5N([H])[H])C4([H])[H])c3[H])c([H])c([H])c2C1([H])[H]

$$$$
43:0:0
     RDKit          3D

 94102  0  0  1  0  0  0  0  0999 V2000
  -29.0750  -20.3160   20.4470 C   0  0  0  0  0  3  0  0  0  0  0  0
  -30.1060  -19.3390   20.6160 C   0  0  0  0  0  0  0  0  0  0  0  0
  -29.6610  -21.4010   19.8420 C   0  0  0  0  0  0  0  0  0  0  0  0
  -31.2650  -19.8300   20.1910 N   0  0  0  0  0  0  0  0  0  0  0  0
  -31.0000  -21.0720   19.7030 N   0  0  0  0  0  0  0  0  0  0  0  0
  -32.5250  -21.1710   17.7570 C   0  0  0  0  0  1  0  0  0  0  0  0
  -33.2600  -22.0270   20.0420 C   0  0  0  0  0  1  0  0  0  0  0  0
  -32.0810  -21.8310   19.0750 C   0  0  0  0  0  3  0  0  0  0  0  0
  -28.5360  -17.5460   21.4410 C   0  0  0  0  0  1  0  0  0  0  0  0
  -30.7510  -17.8610   22.5480 C   0  0  0  0  0  1  0  0  0  0  0  0
  -30.0180  -17.9100   21.1940 C   0  0  2  0  0  0  0  0  0  0  0  0
  -30.6440  -16.8620   20.2200 C   0  0  0  0  0  2  0  0  0  0  0  0
  -30.9220  -14.3940   19.9390 C   0  0  0  0  0  0  0  0  0  0  0  0
  -30.4810  -12.2470   18.8120 C   0  0  0  0  0  2  0  0  0  0  0  0
  -29.4840  -12.4990   17.6620 C   0  0  0  0  0  2  0  0  0  0  0  0
  -28.0340  -12.3910   18.1720 C   0  0  0  0  0  2  0  0  0  0  0  0
  -27.7910  -13.2260   19.4580 C   0  0  0  0  0  3  0  0  0  0  0  0
  -28.9030  -12.9810   20.5060 C   0  0  0  0  0  2  0  0  0  0  0  0
  -30.2040  -13.2390   19.8650 N   0  0  0  0  0  0  0  0  0  0  0  0
  -32.0090  -14.5390   19.3770 O   0  0  0  0  0  0  0  0  0  0  0  0
  -30.2980  -15.4480   20.4980 N   0  0  0  0  0  0  0  0  0  0  0  0
  -29.4180  -15.2680   20.9570 H   0  0  0  0  0  0  0  0  0  0  0  0
  -25.4530  -13.8840   20.3090 C   0  0  0  0  0  0  0  0  0  0  0  0
  -24.3880  -13.1360   20.7280 C   0  0  0  0  0  0  0  0  0  0  0  0
  -24.8080  -11.7720   20.6510 C   0  0  0  0  0  0  0  0  0  0  0  0
  -26.4600  -12.9790   20.0090 N   0  0  0  0  0  0  0  0  0  0  0  0
  -26.0770  -11.7030   20.2700 N   0  0  0  0  0  0  0  0  0  0  0  0
  -24.0580  -10.5270   20.8640 C   0  0  0  0  0  0  0  0  0  0  0  0
  -24.4700   -9.5690   21.8170 C   0  0  0  0  0  3  0  0  0  0  0  0
  -23.7210   -8.3890   22.0160 C   0  0  0  0  0  3  0  0  0  0  0  0
  -22.5460   -8.1580   21.2610 C   0  0  0  0  0  0  0  0  0  0  0  0
  -22.1550   -9.1030   20.2980 C   0  0  0  0  0  3  0  0  0  0  0  0
  -22.9030  -10.2740   20.0960 C   0  0  0  0  0  3  0  0  0  0  0  0
  -21.7710   -7.0280   21.3690 O   0  0  0  0  0  0  0  0  0  0  0  0
  -21.6440   -6.3520   22.5560 C   0  0  0  0  0  0  0  0  0  0  0  0
  -21.1490   -6.9780   23.7210 C   0  0  0  0  0  3  0  0  0  0  0  0
  -20.9690   -6.2290   24.9010 C   0  0  0  0  0  3  0  0  0  0  0  0
  -21.2740   -4.8550   24.9170 C   0  0  0  0  0  0  0  0  0  0  0  0
  -21.7620   -4.2280   23.7560 C   0  0  0  0  0  3  0  0  0  0  0  0
  -21.9430   -4.9740   22.5780 C   0  0  0  0  0  0  0  0  0  0  0  0
  -22.3940   -4.3620   21.4570 F   0  0  0  0  0  0  0  0  0  0  0  0
  -21.0940   -4.1330   26.0470 F   0  0  0  0  0  0  0  0  0  0  0  0
  -23.0220  -13.6460   21.0900 C   0  0  0  0  0  0  0  0  0  0  0  0
  -22.3330  -12.9630   21.9980 N   0  0  0  0  0  0  0  0  0  0  0  0
  -22.5770  -14.6840   20.6030 O   0  0  0  0  0  0  0  0  0  0  0  0
  -22.7060  -12.1200   22.4100 H   0  0  0  0  0  0  0  0  0  0  0  0
  -21.4200  -13.2870   22.2860 H   0  0  0  0  0  0  0  0  0  0  0  0
  -25.6490  -15.2520   20.1380 N   0  0  0  0  0  0  0  0  0  0  0  0
  -24.9100  -15.9300   20.2840 H   0  0  0  0  0  0  0  0  0  0  0  0
  -26.4950  -15.6640   19.7660 H   0  0  0  0  0  0  0  0  0  0  0  0
  -29.0010  -22.6520   19.2850 C   0  0  0  0  0  2  0  0  0  0  0  0
  -29.2190  -24.0390   19.9730 C   0  0  0  0  0  2  0  0  0  0  0  0
  -28.1100  -25.0490   19.5500 C   0  0  0  0  0  2  0  0  0  0  0  0
  -28.2530  -26.4420   19.9370 O   0  0  0  0  0  0  0  0  0  0  0  0
  -24.5140  -31.6360   23.1320 C   0  0  0  0  0  0  0  0  0  0  0  0
  -27.0970  -27.2230   19.9150 C   0  0  0  0  0  0  0  0  0  0  0  0
  -23.2780  -30.2600   21.4960 C   0  0  0  0  0  3  0  0  0  0  0  0
  -24.7040  -28.7610   20.0050 C   0  0  0  0  0  0  0  0  0  0  0  0
  -25.8040  -30.6210   21.2530 C   0  0  0  0  0  2  0  0  0  0  0  0
  -25.8780  -29.2610   20.5820 C   0  0  0  0  0  0  0  0  0  0  0  0
  -27.0750  -28.4990   20.5370 C   0  0  0  0  0  3  0  0  0  0  0  0
  -25.9000  -26.7670   19.3080 C   0  0  0  0  0  3  0  0  0  0  0  0
  -24.7120  -27.5140   19.3660 C   0  0  0  0  0  3  0  0  0  0  0  0
  -23.4590  -29.6130   20.0990 C   0  0  0  0  0  2  0  0  0  0  0  0
  -24.5520  -30.8530   22.0180 N   0  0  0  0  0  0  0  0  0  0  0  0
  -23.4430  -31.8930   23.7020 O   0  0  0  0  0  0  0  0  0  0  0  0
  -22.6540  -29.2140   22.4490 C   0  0  0  0  0  0  0  0  0  0  0  0
  -21.3370  -28.9840   22.3110 N   0  0  0  0  0  0  0  0  0  0  0  0
  -23.3510  -28.6140   23.2710 O   0  0  0  0  0  0  0  0  0  0  0  0
  -20.8330  -29.5260   21.6230 H   0  0  0  0  0  0  0  0  0  0  0  0
  -18.0120  -27.6370   22.7510 C   0  0  0  0  0  0  0  0  0  0  0  0
  -20.5480  -28.0180   23.0760 C   0  0  0  0  0  3  0  0  0  0  0  0
  -20.7300  -26.5850   22.5240 C   0  0  0  0  0  2  0  0  0  0  0  0
  -19.6690  -26.1970   21.4910 C   0  0  0  0  0  2  0  0  0  0  0  0
  -18.2670  -26.2870   22.0990 C   0  0  0  0  0  2  0  0  0  0  0  0
  -19.0840  -28.4560   23.1940 C   0  0  0  0  0  0  0  0  0  0  0  0
  -18.7930  -29.7160   23.7600 C   0  0  0  0  0  3  0  0  0  0  0  0
  -17.4630  -30.1600   23.8870 C   0  0  0  0  0  3  0  0  0  0  0  0
  -16.4050  -29.3390   23.4590 C   0  0  0  0  0  3  0  0  0  0  0  0
  -16.6810  -28.0790   22.8970 C   0  0  0  0  0  3  0  0  0  0  0  0
  -25.8090  -32.2660   23.7330 C   0  0  0  0  0  3  0  0  0  0  0  0
  -25.4970  -33.6530   24.0970 N   0  0  0  0  0  0  0  0  0  0  0  0
  -25.7820  -34.7210   23.3390 C   0  0  0  0  0  0  0  0  0  0  0  0
  -26.4060  -34.6400   22.2770 O   0  0  0  0  0  0  0  0  0  0  0  0
  -24.9330  -33.7880   24.9230 H   0  0  0  0  0  0  0  0  0  0  0  0
  -24.0050  -36.4870   23.1000 C   0  0  0  0  0  1  0  0  0  0  0  0
  -25.2970  -36.0960   23.8370 C   0  0  0  0  0  3  0  0  0  0  0  0
  -27.4570  -37.0120   24.5610 C   0  0  0  0  0  1  0  0  0  0  0  0
  -26.3040  -37.1670   23.6780 N   0  0  0  0  0  0  0  0  0  0  0  0
  -25.8900  -38.0790   23.8530 H   0  0  0  0  0  0  0  0  0  0  0  0
  -26.3620  -31.4720   24.9790 C   0  0  1  0  0  0  0  0  0  0  0  0
  -25.2980  -31.2030   26.0680 C   0  0  0  0  0  1  0  0  0  0  0  0
  -26.9490  -30.1090   24.5430 C   0  0  0  0  0  1  0  0  0  0  0  0
  -27.5190  -32.2680   25.6310 C   0  0  0  0  0  1  0  0  0  0  0  0
  1  2  1  0
  2 11  1  0
  3  1  2  0
  4  2  2  0
  5  3  1  0
  5  4  1  0
  6  8  1  0
  8  5  1  0
  8  7  1  0
 11  9  1  1
 11 10  1  0
 12 21  1  0
 12 11  1  0
 13 21  1  0
 14 19  1  0
 15 16  1  0
 15 14  1  0
 17 16  1  0
 17 26  1  0
 17 18  1  0
 19 13  1  0
 19 18  1  0
 20 13  2  0
 21 22  1  0
 23 24  2  0
 24 43  1  0
 25 24  1  0
 25 28  1  0
 26 27  1  0
 26 23  1  0
 27 25  2  0
 28 29  1  0
 29 30  2  0
 31 34  1  0
 31 30  1  0
 32 31  2  0
 33 32  1  0
 33 28  2  0
 34 35  1  0
 35 40  2  0
 35 36  1  0
 36 37  2  0
 37 38  1  0
 38 42  1  0
 39 38  2  0
 40 39  1  0
 41 40  1  0
 43 44  1  0
 44 47  1  0
 44 46  1  0
 45 43  2  0
 48 49  1  0
 48 23  1  0
 50 48  1  0
 51  3  1  0
 51 52  1  0
 53 54  1  0
 53 52  1  0
 55 66  2  0
 56 54  1  0
 56 61  1  0
 57 65  1  0
 57 67  1  0
 58 64  1  0
 58 60  1  0
 59 65  1  0
 60 59  1  0
 61 60  2  0
 62 63  1  0
 62 56  2  0
 63 58  2  0
 64 57  1  0
 65 55  1  0
 67 69  2  0
 68 67  1  0
 70 68  1  0
 71 80  2  0
 71 76  1  0
 72 68  1  0
 72 76  1  0
 73 72  1  0
 74 75  1  0
 74 73  1  0
 75 71  1  0
 76 77  2  0
 77 78  1  0
 79 78  2  0
 80 79  1  0
 81 55  1  0
 81 82  1  0
 81 91  1  0
 82 85  1  0
 83 87  1  0
 83 82  1  0
 84 83  2  0
 87 86  1  0
 89 87  1  0
 89 90  1  0
 89 88  1  0
 91 94  1  1
 91 92  1  0
 93 91  1  0
M  ISO  4  13 100  21 100  53 101  54 101
M  END
>  <TORSDO>  (44) 
F 22

>  <SCORE>  (44) 
-11.646

>  <name>  (44) 
43

>  <ligand_id>  (44) 
43

>  <original_smiles>  (44) 
[H]c1c([H])c([H])c2c(c1[H])C([H])([H])C([H])([H])C([H])([H])C2([H])N([H])C(=O)C1([H])N(C(=O)C([H])(N([H])C(=O)C([H])(N([H])C([H])([H])[H])C([H])([H])[H])C(C([H])([H])[H])(C([H])([H])[H])C([H])([H])[H])C([H])([H])c2c([H])c(OC([H])([H])C([H])([H])C([H])([H])c3c([H])c(C(C([H])([H])[H])(C([H])([H])[H])C([H])([H])N([H])C(=O)N4C([H])([H])C([H])([H])C([H])([H])C([H])(n5nc(-c6c([H])c([H])c(Oc7c([H])c([H])c(F)c([H])c7F)c([H])c6[H])c(C(=O)N([H])[H])c5N([H])[H])C4([H])[H])nn3C([H])(C([H])([H])[H])C([H])([H])[H])c([H])c([H])c2C1([H])[H]

>  <smiles>  (44) 
[H]c1c([H])c([H])c2c(c1[H])C([H])([H])C([H])([H])C([H])([H])C2([H])N([H])C(=O)C1([H])N(C(=O)C([H])(N([H])C(=O)C([H])(N([H])C([H])([H])[H])C([H])([H])[H])C(C([H])([H])[H])(C([H])([H])[H])C([H])([H])[H])C([H])([H])c2c([H])c(OC([H])([H])C([H])([H])C([H])([H])c3c([H])c(C(C([H])([H])[H])(C([H])([H])[H])C([H])([H])N([H])C(=O)N4C([H])([H])C([H])([H])C([H])([H])C([H])(n5nc(-c6c([H])c([H])c(Oc7c([H])c([H])c(F)c([H])c7F)c([H])c6[H])c(C(=O)N([H])[H])c5N([H])[H])C4([H])[H])nn3C([H])(C([H])([H])[H])C([H])([H])[H])c([H])c([H])c2C1([H])[H]

$$$$
44:0:0
     RDKit          3D

 93101  0  0  1  0  0  0  0  0999 V2000
  -30.5450  -24.2140   20.3700 C   0  0  0  0  0  3  0  0  0  0  0  0
  -31.8300  -23.6830   20.5170 C   0  0  0  0  0  3  0  0  0  0  0  0
  -29.3890  -23.4100   20.2070 C   0  0  0  0  0  0  0  0  0  0  0  0
  -31.9860  -22.3020   20.4790 C   0  0  0  0  0  0  0  0  0  0  0  0
  -29.6790  -21.9020   20.1240 C   0  0  0  0  0  0  0  0  0  0  0  0
  -30.9540  -21.4730   20.2800 N   0  0  0  0  0  0  0  0  0  0  0  0
  -33.3740  -20.8940   22.0590 C   0  0  0  0  0  1  0  0  0  0  0  0
  -33.3370  -21.6580   20.7270 C   0  0  0  0  0  2  0  0  0  0  0  0
  -27.4110  -20.7350   19.6860 C   0  0  0  0  0  1  0  0  0  0  0  0
  -28.8640  -20.4700   20.1110 C   0  0  0  0  0  3  0  0  0  0  0  0
  -28.6250  -18.4590   18.3170 C   0  0  0  0  0  1  0  0  0  0  0  0
  -29.4940  -18.9850   19.4730 C   0  0  0  0  0  3  0  0  0  0  0  0
  -30.0470  -17.6160   20.3320 C   0  0  0  0  0  2  0  0  0  0  0  0
  -30.5740  -14.8840   19.9030 C   0  0  0  0  0  0  0  0  0  0  0  0
  -30.4330  -12.5070   19.0090 C   0  0  0  0  0  2  0  0  0  0  0  0
  -29.4330  -12.4030   17.8360 C   0  0  0  0  0  2  0  0  0  0  0  0
  -27.9980  -12.1840   18.3560 C   0  0  0  0  0  2  0  0  0  0  0  0
  -27.6430  -13.1360   19.5280 C   0  0  0  0  0  3  0  0  0  0  0  0
  -28.7600  -13.2000   20.5890 C   0  0  0  0  0  2  0  0  0  0  0  0
  -29.9830  -13.6200   19.8900 N   0  0  0  0  0  0  0  0  0  0  0  0
  -31.7780  -14.9400   19.6260 O   0  0  0  0  0  0  0  0  0  0  0  0
  -29.7850  -16.0680   20.0310 N   0  0  0  0  0  0  0  0  0  0  0  0
  -28.8030  -15.8380   20.0950 H   0  0  0  0  0  0  0  0  0  0  0  0
  -25.3270  -13.7250   20.4410 C   0  0  0  0  0  0  0  0  0  0  0  0
  -24.2820  -12.9550   20.8680 C   0  0  0  0  0  0  0  0  0  0  0  0
  -24.7250  -11.5990   20.7760 C   0  0  0  0  0  0  0  0  0  0  0  0
  -26.3390  -12.8400   20.1120 N   0  0  0  0  0  0  0  0  0  0  0  0
  -25.9920  -11.5550   20.3810 N   0  0  0  0  0  0  0  0  0  0  0  0
  -23.9950  -10.3420   20.9850 C   0  0  0  0  0  0  0  0  0  0  0  0
  -24.4190   -9.3910   21.9380 C   0  0  0  0  0  3  0  0  0  0  0  0
  -23.6880   -8.2000   22.1350 C   0  0  0  0  0  3  0  0  0  0  0  0
  -22.5190   -7.9520   21.3780 C   0  0  0  0  0  0  0  0  0  0  0  0
  -22.1150   -8.8890   20.4120 C   0  0  0  0  0  3  0  0  0  0  0  0
  -22.8460  -10.0720   20.2140 C   0  0  0  0  0  3  0  0  0  0  0  0
  -21.7610   -6.8100   21.4820 O   0  0  0  0  0  0  0  0  0  0  0  0
  -21.6560   -6.1200   22.6630 C   0  0  0  0  0  0  0  0  0  0  0  0
  -21.1220   -6.7130   23.8280 C   0  0  0  0  0  3  0  0  0  0  0  0
  -20.9700   -5.9490   25.0010 C   0  0  0  0  0  3  0  0  0  0  0  0
  -21.3380   -4.5900   25.0090 C   0  0  0  0  0  0  0  0  0  0  0  0
  -21.8630   -3.9950   23.8490 C   0  0  0  0  0  3  0  0  0  0  0  0
  -22.0180   -4.7580   22.6780 C   0  0  0  0  0  0  0  0  0  0  0  0
  -22.5040   -4.1740   21.5560 F   0  0  0  0  0  0  0  0  0  0  0  0
  -21.1850   -3.8530   26.1340 F   0  0  0  0  0  0  0  0  0  0  0  0
  -22.9090  -13.4420   21.2360 C   0  0  0  0  0  0  0  0  0  0  0  0
  -22.2220  -12.7310   22.1220 N   0  0  0  0  0  0  0  0  0  0  0  0
  -22.4590  -14.4890   20.7720 O   0  0  0  0  0  0  0  0  0  0  0  0
  -22.5980  -11.8840   22.5220 H   0  0  0  0  0  0  0  0  0  0  0  0
  -21.3030  -13.0370   22.4060 H   0  0  0  0  0  0  0  0  0  0  0  0
  -25.4970  -15.0980   20.2810 N   0  0  0  0  0  0  0  0  0  0  0  0
  -24.7500  -15.7610   20.4560 H   0  0  0  0  0  0  0  0  0  0  0  0
  -26.3140  -15.5310   19.8680 H   0  0  0  0  0  0  0  0  0  0  0  0
  -28.0900  -24.4320   20.1790 C   0  0  0  0  0  2  0  0  0  0  0  0
  -28.2750  -25.9980   20.2870 O   0  0  0  0  0  0  0  0  0  0  0  0
  -24.7160  -31.7870   23.1930 C   0  0  0  0  0  0  0  0  0  0  0  0
  -27.2190  -26.9880   20.2110 C   0  0  0  0  0  0  0  0  0  0  0  0
  -23.4980  -30.4050   21.5540 C   0  0  0  0  0  3  0  0  0  0  0  0
  -24.9220  -28.7870   20.1470 C   0  0  0  0  0  0  0  0  0  0  0  0
  -26.0560  -30.6170   21.4010 C   0  0  0  0  0  2  0  0  0  0  0  0
  -26.1070  -29.2170   20.7570 C   0  0  0  0  0  0  0  0  0  0  0  0
  -27.2550  -28.3350   20.7650 C   0  0  0  0  0  3  0  0  0  0  0  0
  -26.0080  -26.6590   19.5660 C   0  0  0  0  0  3  0  0  0  0  0  0
  -24.8880  -27.5240   19.5350 C   0  0  0  0  0  3  0  0  0  0  0  0
  -23.7130  -29.7110   20.1820 C   0  0  0  0  0  2  0  0  0  0  0  0
  -24.7780  -30.9580   22.1040 N   0  0  0  0  0  0  0  0  0  0  0  0
  -23.6320  -32.0950   23.7130 O   0  0  0  0  0  0  0  0  0  0  0  0
  -22.7920  -29.4210   22.5200 C   0  0  0  0  0  0  0  0  0  0  0  0
  -21.4650  -29.2600   22.3710 N   0  0  0  0  0  0  0  0  0  0  0  0
  -23.4420  -28.8020   23.3660 O   0  0  0  0  0  0  0  0  0  0  0  0
  -20.9970  -29.8080   21.6630 H   0  0  0  0  0  0  0  0  0  0  0  0
  -18.0670  -28.0830   22.8230 C   0  0  0  0  0  0  0  0  0  0  0  0
  -20.6210  -28.3380   23.1390 C   0  0  0  0  0  3  0  0  0  0  0  0
  -20.7280  -26.8970   22.5910 C   0  0  0  0  0  2  0  0  0  0  0  0
  -19.6460  -26.5620   21.5590 C   0  0  0  0  0  2  0  0  0  0  0  0
  -18.2510  -26.7230   22.1710 C   0  0  0  0  0  2  0  0  0  0  0  0
  -19.1790  -28.8470   23.2630 C   0  0  0  0  0  0  0  0  0  0  0  0
  -18.9530  -30.1190   23.8340 C   0  0  0  0  0  3  0  0  0  0  0  0
  -17.6470  -30.6270   23.9670 C   0  0  0  0  0  3  0  0  0  0  0  0
  -16.5490  -29.8600   23.5420 C   0  0  0  0  0  3  0  0  0  0  0  0
  -16.7590  -28.5890   22.9780 C   0  0  0  0  0  3  0  0  0  0  0  0
  -26.0020  -32.4010   23.8270 C   0  0  0  0  0  3  0  0  0  0  0  0
  -25.7210  -33.8140   24.1290 N   0  0  0  0  0  0  0  0  0  0  0  0
  -26.0440  -34.8440   23.3350 C   0  0  0  0  0  0  0  0  0  0  0  0
  -26.6730  -34.7040   22.2840 O   0  0  0  0  0  0  0  0  0  0  0  0
  -25.1570  -33.9980   24.9450 H   0  0  0  0  0  0  0  0  0  0  0  0
  -24.3030  -36.6390   23.0450 C   0  0  0  0  0  1  0  0  0  0  0  0
  -25.6000  -36.2540   23.7760 C   0  0  0  0  0  3  0  0  0  0  0  0
  -27.7860  -37.1640   24.4260 C   0  0  0  0  0  1  0  0  0  0  0  0
  -26.6250  -37.2950   23.5480 N   0  0  0  0  0  0  0  0  0  0  0  0
  -26.2330  -38.2240   23.6770 H   0  0  0  0  0  0  0  0  0  0  0  0
  -26.4730  -31.6440   25.1300 C   0  0  1  0  0  0  0  0  0  0  0  0
  -25.3540  -31.4550   26.1820 C   0  0  0  0  0  1  0  0  0  0  0  0
  -27.0290  -30.2450   24.7840 C   0  0  0  0  0  1  0  0  0  0  0  0
  -27.6290  -32.4250   25.7990 C   0  0  0  0  0  1  0  0  0  0  0  0
  1  2  1  0
  3  1  2  0
  4  2  2  0
  4  8  1  0
  5  3  1  0
  5  6  2  0
  6  4  1  0
  8  7  1  0
 10  9  1  0
 10  5  1  0
 12 11  1  0
 12 10  1  0
 12 13  1  0
 14 22  1  0
 15 20  1  0
 16 17  1  0
 16 15  1  0
 18 17  1  0
 18 27  1  0
 18 19  1  0
 20 14  1  0
 20 19  1  0
 21 14  2  0
 22 23  1  0
 22 13  1  0
 24 25  2  0
 25 44  1  0
 26 25  1  0
 26 29  1  0
 27 28  1  0
 27 24  1  0
 28 26  2  0
 29 30  1  0
 30 31  2  0
 32 35  1  0
 32 31  1  0
 33 32  2  0
 34 33  1  0
 34 29  2  0
 35 36  1  0
 36 41  2  0
 36 37  1  0
 37 38  2  0
 38 39  1  0
 39 43  1  0
 40 39  2  0
 41 40  1  0
 42 41  1  0
 44 45  1  0
 45 48  1  0
 45 47  1  0
 46 44  2  0
 49 24  1  0
 49 50  1  0
 51 49  1  0
 52  3  1  0
 52 53  1  0
 54 65  2  0
 55 53  1  0
 55 60  1  0
 56 64  1  0
 56 66  1  0
 57 63  1  0
 57 59  1  0
 58 64  1  0
 59 60  2  0
 59 58  1  0
 61 55  2  0
 62 61  1  0
 62 57  2  0
 63 56  1  0
 64 54  1  0
 66 68  2  0
 67 66  1  0
 69 67  1  0
 70 79  2  0
 70 75  1  0
 71 67  1  0
 71 75  1  0
 72 71  1  0
 73 74  1  0
 73 72  1  0
 74 70  1  0
 75 76  2  0
 76 77  1  0
 78 77  2  0
 79 78  1  0
 80 54  1  0
 80 81  1  0
 80 90  1  0
 81 84  1  0
 82 86  1  0
 82 81  1  0
 83 82  2  0
 86 85  1  0
 88 89  1  0
 88 86  1  0
 88 87  1  0
 90 93  1  1
 90 91  1  0
 92 90  1  0
M  ISO  4  14 100  22 100  52 101  53 101
M  END
>  <TORSDO>  (45) 
F 21

>  <SCORE>  (45) 
-13.816

>  <name>  (45) 
44

>  <ligand_id>  (45) 
44

>  <original_smiles>  (45) 
[H]c1c(C([H])([H])C([H])([H])[H])nc(C([H])(C([H])([H])[H])C([H])(C([H])([H])[H])C([H])([H])N([H])C(=O)N2C([H])([H])C([H])([H])C([H])([H])C([H])(n3nc(-c4c([H])c([H])c(Oc5c([H])c([H])c(F)c([H])c5F)c([H])c4[H])c(C(=O)N([H])[H])c3N([H])[H])C2([H])[H])c(C([H])([H])Oc2c([H])c([H])c3c(c2[H])C([H])([H])N(C(=O)C([H])(N([H])C(=O)C([H])(N([H])C([H])([H])[H])C([H])([H])[H])C(C([H])([H])[H])(C([H])([H])[H])C([H])([H])[H])C([H])(C(=O)N([H])C2([H])c4c([H])c([H])c([H])c([H])c4C([H])([H])C([H])([H])C2([H])[H])C3([H])[H])c1[H]

>  <smiles>  (45) 
[H]c1c(C([H])([H])C([H])([H])[H])nc(C([H])(C([H])([H])[H])C([H])(C([H])([H])[H])C([H])([H])N([H])C(=O)N2C([H])([H])C([H])([H])C([H])([H])C([H])(n3nc(-c4c([H])c([H])c(Oc5c([H])c([H])c(F)c([H])c5F)c([H])c4[H])c(C(=O)N([H])[H])c3N([H])[H])C2([H])[H])c(C([H])([H])Oc2c([H])c([H])c3c(c2[H])C([H])([H])N(C(=O)C([H])(N([H])C(=O)C([H])(N([H])C([H])([H])[H])C([H])([H])[H])C(C([H])([H])[H])(C([H])([H])[H])C([H])([H])[H])C([H])(C(=O)N([H])C2([H])c4c([H])c([H])c([H])c([H])c4C([H])([H])C([H])([H])C2([H])[H])C3([H])[H])c1[H]

$$$$
45:0:0
     RDKit          3D

 93101  0  0  1  0  0  0  0  0999 V2000
  -29.5710  -20.5030   20.1710 C   0  0  0  0  0  3  0  0  0  0  0  0
  -28.7030  -21.5750   19.8120 C   0  0  0  0  0  0  0  0  0  0  0  0
  -27.7450  -21.3160   18.7970 C   0  0  0  0  0  0  0  0  0  0  0  0
  -29.4620  -19.2420   19.5240 C   0  0  0  0  0  0  0  0  0  0  0  0
  -27.7430  -20.0440   18.1740 C   0  0  0  0  0  0  0  0  0  0  0  0
  -26.7060  -22.3560   18.3840 C   0  0  0  0  0  1  0  0  0  0  0  0
  -26.7910  -19.7010   17.0410 C   0  0  0  0  0  1  0  0  0  0  0  0
  -28.5680  -19.0420   18.5360 N   0  0  0  0  0  0  0  0  0  0  0  0
  -28.7200  -22.9100   20.5980 C   0  0  0  0  0  2  0  0  0  0  0  0
  -28.7490  -24.2650   19.8070 C   0  0  0  0  0  2  0  0  0  0  0  0
  -28.4450  -25.5000   20.7120 C   0  0  0  0  0  2  0  0  0  0  0  0
  -28.5050  -26.8000   20.0800 O   0  0  0  0  0  0  0  0  0  0  0  0
  -24.6080  -31.8490   23.3250 C   0  0  0  0  0  0  0  0  0  0  0  0
  -27.3450  -27.5510   20.1110 C   0  0  0  0  0  0  0  0  0  0  0  0
  -23.4550  -30.5320   21.5780 C   0  0  0  0  0  3  0  0  0  0  0  0
  -24.9540  -29.0650   20.1210 C   0  0  0  0  0  0  0  0  0  0  0  0
  -25.9850  -30.8990   21.4720 C   0  0  0  0  0  2  0  0  0  0  0  0
  -26.0930  -29.5590   20.7670 C   0  0  0  0  0  0  0  0  0  0  0  0
  -27.2970  -28.8130   20.7530 C   0  0  0  0  0  3  0  0  0  0  0  0
  -26.1900  -27.0720   19.4620 C   0  0  0  0  0  3  0  0  0  0  0  0
  -24.9980  -27.8240   19.4610 C   0  0  0  0  0  3  0  0  0  0  0  0
  -23.7060  -29.9210   20.1720 C   0  0  0  0  0  2  0  0  0  0  0  0
  -24.7000  -31.1050   22.1850 N   0  0  0  0  0  0  0  0  0  0  0  0
  -23.5110  -32.0920   23.8460 O   0  0  0  0  0  0  0  0  0  0  0  0
  -22.7750  -29.4650   22.4680 C   0  0  0  0  0  0  0  0  0  0  0  0
  -21.4480  -29.3180   22.3200 N   0  0  0  0  0  0  0  0  0  0  0  0
  -23.4390  -28.7760   23.2470 O   0  0  0  0  0  0  0  0  0  0  0  0
  -20.9750  -29.9300   21.6700 H   0  0  0  0  0  0  0  0  0  0  0  0
  -18.0420  -28.1950   22.7560 C   0  0  0  0  0  0  0  0  0  0  0  0
  -20.6090  -28.3460   23.0200 C   0  0  0  0  0  3  0  0  0  0  0  0
  -20.6580  -26.9640   22.3280 C   0  0  0  0  0  2  0  0  0  0  0  0
  -19.5380  -26.7610   21.3030 C   0  0  0  0  0  2  0  0  0  0  0  0
  -18.1670  -26.9000   21.9700 C   0  0  0  0  0  2  0  0  0  0  0  0
  -19.1880  -28.8820   23.2350 C   0  0  0  0  0  0  0  0  0  0  0  0
  -19.0180  -30.0990   23.9290 C   0  0  0  0  0  3  0  0  0  0  0  0
  -17.7330  -30.6290   24.1490 C   0  0  0  0  0  3  0  0  0  0  0  0
  -16.6000  -29.9350   23.6870 C   0  0  0  0  0  3  0  0  0  0  0  0
  -16.7560  -28.7200   22.9970 C   0  0  0  0  0  3  0  0  0  0  0  0
  -25.8740  -32.4480   24.0150 C   0  0  0  0  0  3  0  0  0  0  0  0
  -25.5790  -33.8490   24.3440 N   0  0  0  0  0  0  0  0  0  0  0  0
  -25.9700  -34.9000   23.6110 C   0  0  0  0  0  0  0  0  0  0  0  0
  -26.6880  -34.7920   22.6140 O   0  0  0  0  0  0  0  0  0  0  0  0
  -24.9490  -34.0090   25.1160 H   0  0  0  0  0  0  0  0  0  0  0  0
  -24.2960  -36.7300   23.1900 C   0  0  0  0  0  1  0  0  0  0  0  0
  -25.4890  -36.2950   24.0570 C   0  0  0  0  0  3  0  0  0  0  0  0
  -27.5930  -37.1340   25.0010 C   0  0  0  0  0  1  0  0  0  0  0  0
  -26.5460  -37.3270   24.0020 N   0  0  0  0  0  0  0  0  0  0  0  0
  -26.1500  -38.2550   24.1330 H   0  0  0  0  0  0  0  0  0  0  0  0
  -26.3140  -31.6540   25.3060 C   0  0  1  0  0  0  0  0  0  0  0  0
  -25.1660  -31.4270   26.3150 C   0  0  0  0  0  1  0  0  0  0  0  0
  -26.8900  -30.2690   24.9250 C   0  0  0  0  0  1  0  0  0  0  0  0
  -27.4440  -32.4190   26.0330 C   0  0  0  0  0  1  0  0  0  0  0  0
  -30.3510  -18.0160   19.8420 C   0  0  0  0  0  2  0  0  0  0  0  0
  -30.8920  -17.5190   22.3170 C   0  0  0  0  0  1  0  0  0  0  0  0
  -29.9690  -17.1980   21.1270 C   0  0  0  0  0  3  0  0  0  0  0  0
  -30.6120  -14.7540   20.4510 C   0  0  0  0  0  0  0  0  0  0  0  0
  -30.4520  -12.5320   19.3690 C   0  0  0  0  0  2  0  0  0  0  0  0
  -29.5190  -12.6520   18.1440 C   0  0  0  0  0  2  0  0  0  0  0  0
  -28.0420  -12.4810   18.5530 C   0  0  0  0  0  2  0  0  0  0  0  0
  -27.6570  -13.3480   19.7820 C   0  0  0  0  0  3  0  0  0  0  0  0
  -28.6980  -13.1830   20.9130 C   0  0  0  0  0  2  0  0  0  0  0  0
  -30.0170  -13.5320   20.3570 N   0  0  0  0  0  0  0  0  0  0  0  0
  -31.7420  -14.9810   20.0080 O   0  0  0  0  0  0  0  0  0  0  0  0
  -29.8060  -15.7290   20.9350 N   0  0  0  0  0  0  0  0  0  0  0  0
  -28.9010  -15.3810   21.2130 H   0  0  0  0  0  0  0  0  0  0  0  0
  -25.2400  -13.9260   20.4460 C   0  0  0  0  0  0  0  0  0  0  0  0
  -24.1790  -13.1410   20.8090 C   0  0  0  0  0  0  0  0  0  0  0  0
  -24.6630  -11.7960   20.8030 C   0  0  0  0  0  0  0  0  0  0  0  0
  -26.3020  -13.0580   20.2430 N   0  0  0  0  0  0  0  0  0  0  0  0
  -25.9580  -11.7740   20.5150 N   0  0  0  0  0  0  0  0  0  0  0  0
  -23.9560  -10.5250   21.0000 C   0  0  0  0  0  0  0  0  0  0  0  0
  -24.3910   -9.5770   21.9540 C   0  0  0  0  0  3  0  0  0  0  0  0
  -23.6840   -8.3700   22.1360 C   0  0  0  0  0  3  0  0  0  0  0  0
  -22.5290   -8.1000   21.3650 C   0  0  0  0  0  0  0  0  0  0  0  0
  -22.1130   -9.0360   20.4030 C   0  0  0  0  0  3  0  0  0  0  0  0
  -22.8200  -10.2360   20.2180 C   0  0  0  0  0  3  0  0  0  0  0  0
  -21.7940   -6.9420   21.4560 O   0  0  0  0  0  0  0  0  0  0  0  0
  -21.7480   -6.2080   22.6140 C   0  0  0  0  0  0  0  0  0  0  0  0
  -21.2850   -6.7610   23.8280 C   0  0  0  0  0  3  0  0  0  0  0  0
  -21.1860   -5.9510   24.9770 C   0  0  0  0  0  3  0  0  0  0  0  0
  -21.5430   -4.5910   24.9140 C   0  0  0  0  0  0  0  0  0  0  0  0
  -22.0000   -4.0380   23.7050 C   0  0  0  0  0  3  0  0  0  0  0  0
  -22.0980   -4.8440   22.5570 C   0  0  0  0  0  0  0  0  0  0  0  0
  -22.5190   -4.3020   21.3890 F   0  0  0  0  0  0  0  0  0  0  0  0
  -21.4430   -3.8120   26.0160 F   0  0  0  0  0  0  0  0  0  0  0  0
  -22.7700  -13.5980   21.0550 C   0  0  0  0  0  0  0  0  0  0  0  0
  -22.0460  -12.9080   21.9290 N   0  0  0  0  0  0  0  0  0  0  0  0
  -22.3180  -14.6030   20.5080 O   0  0  0  0  0  0  0  0  0  0  0  0
  -22.4230  -12.0950   22.3940 H   0  0  0  0  0  0  0  0  0  0  0  0
  -21.1010  -13.1980   22.1380 H   0  0  0  0  0  0  0  0  0  0  0  0
  -25.3850  -15.2970   20.2560 N   0  0  0  0  0  0  0  0  0  0  0  0
  -24.6090  -15.9390   20.3630 H   0  0  0  0  0  0  0  0  0  0  0  0
  -26.2370  -15.7550   19.9550 H   0  0  0  0  0  0  0  0  0  0  0  0
  2  1  1  0
  2  9  1  0
  3  2  2  0
  4 53  1  0
  4  1  2  0
  5  8  2  0
  5  3  1  0
  6  3  1  0
  7  5  1  0
  8  4  1  0
 10  9  1  0
 10 11  1  0
 12 14  1  0
 12 11  1  0
 13 24  2  0
 14 19  1  0
 15 23  1  0
 15 25  1  0
 16 22  1  0
 16 18  1  0
 17 23  1  0
 18 17  1  0
 19 18  2  0
 20 14  2  0
 21 20  1  0
 21 16  2  0
 22 15  1  0
 23 13  1  0
 25 27  2  0
 26 25  1  0
 28 26  1  0
 29 38  2  0
 29 34  1  0
 30 26  1  0
 30 34  1  0
 31 30  1  0
 32 33  1  0
 32 31  1  0
 33 29  1  0
 34 35  2  0
 35 36  1  0
 37 36  2  0
 38 37  1  0
 39 13  1  0
 39 40  1  0
 39 49  1  0
 40 43  1  0
 41 45  1  0
 41 40  1  0
 42 41  2  0
 45 44  1  0
 47 45  1  0
 47 48  1  0
 47 46  1  0
 49 52  1  1
 49 50  1  0
 51 49  1  0
 53 55  1  0
 55 54  1  0
 56 64  1  0
 57 62  1  0
 58 59  1  0
 58 57  1  0
 60 59  1  0
 60 69  1  0
 60 61  1  0
 62 56  1  0
 62 61  1  0
 63 56  2  0
 64 55  1  0
 64 65  1  0
 66 67  2  0
 67 86  1  0
 68 67  1  0
 68 71  1  0
 69 66  1  0
 69 70  1  0
 70 68  2  0
 71 72  1  0
 72 73  2  0
 74 77  1  0
 74 73  1  0
 75 74  2  0
 76 75  1  0
 76 71  2  0
 77 78  1  0
 78 79  1  0
 79 80  2  0
 81 80  1  0
 81 85  1  0
 82 81  2  0
 83 78  2  0
 83 82  1  0
 84 83  1  0
 86 87  1  0
 87 90  1  0
 87 89  1  0
 88 86  2  0
 91 92  1  0
 91 66  1  0
 93 91  1  0
M  ISO  4  11 101  12 101  56 100  64 100
M  END
>  <TORSDO>  (46) 
F 21

>  <SCORE>  (46) 
-13.515

>  <name>  (46) 
45

>  <ligand_id>  (46) 
45

>  <original_smiles>  (46) 
[H]c1c([H])c([H])c2c(c1[H])C([H])([H])C([H])([H])C([H])([H])C2([H])N([H])C(=O)C1([H])N(C(=O)C([H])(N([H])C(=O)C([H])(N([H])C([H])([H])[H])C([H])([H])[H])C(C([H])([H])[H])(C([H])([H])[H])C([H])([H])[H])C([H])([H])c2c([H])c(OC([H])([H])C([H])([H])C([H])([H])c3c([H])c(C([H])([H])C([H])(N([H])C(=O)N4C([H])([H])C([H])([H])C([H])([H])C([H])(n5nc(-c6c([H])c([H])c(Oc7c([H])c([H])c(F)c([H])c7F)c([H])c6[H])c(C(=O)N([H])[H])c5N([H])[H])C4([H])[H])C([H])([H])[H])nc(C([H])([H])[H])c3C([H])([H])[H])c([H])c([H])c2C1([H])[H]

>  <smiles>  (46) 
[H]c1c([H])c([H])c2c(c1[H])C([H])([H])C([H])([H])C([H])([H])C2([H])N([H])C(=O)C1([H])N(C(=O)C([H])(N([H])C(=O)C([H])(N([H])C([H])([H])[H])C([H])([H])[H])C(C([H])([H])[H])(C([H])([H])[H])C([H])([H])[H])C([H])([H])c2c([H])c(OC([H])([H])C([H])([H])C([H])([H])c3c([H])c(C([H])([H])C([H])(N([H])C(=O)N4C([H])([H])C([H])([H])C([H])([H])C([H])(n5nc(-c6c([H])c([H])c(Oc7c([H])c([H])c(F)c([H])c7F)c([H])c6[H])c(C(=O)N([H])[H])c5N([H])[H])C4([H])[H])C([H])([H])[H])nc(C([H])([H])[H])c3C([H])([H])[H])c([H])c([H])c2C1([H])[H]

$$$$
46:0:0
     RDKit          3D

 92100  0  0  1  0  0  0  0  0999 V2000
  -29.6660  -23.0060   22.5560 C   0  0  0  0  0  3  0  0  0  0  0  0
  -30.1910  -22.1570   23.5400 C   0  0  0  0  0  0  0  0  0  0  0  0
  -29.2790  -22.5400   21.2710 C   0  0  0  0  0  0  0  0  0  0  0  0
  -30.3500  -20.8030   23.2320 C   0  0  0  0  0  0  0  0  0  0  0  0
  -29.4730  -21.0810   21.0710 C   0  0  0  0  0  0  0  0  0  0  0  0
  -30.5860  -22.7100   24.8990 C   0  0  0  0  0  1  0  0  0  0  0  0
  -30.9550  -19.8130   24.2080 C   0  0  0  0  0  1  0  0  0  0  0  0
  -29.9810  -20.3040   22.0490 N   0  0  0  0  0  0  0  0  0  0  0  0
  -28.7610  -23.7040   20.2810 C   0  0  0  0  0  2  0  0  0  0  0  0
  -28.3020  -25.1770   20.8720 C   0  0  0  0  0  2  0  0  0  0  0  0
  -28.3600  -26.4860   20.1450 O   0  0  0  0  0  0  0  0  0  0  0  0
  -24.6190  -31.9150   23.2560 C   0  0  0  0  0  0  0  0  0  0  0  0
  -27.2500  -27.3540   20.1910 C   0  0  0  0  0  0  0  0  0  0  0  0
  -23.4210  -30.5160   21.6150 C   0  0  0  0  0  3  0  0  0  0  0  0
  -24.8790  -28.9700   20.1850 C   0  0  0  0  0  0  0  0  0  0  0  0
  -25.9600  -30.8480   21.4210 C   0  0  0  0  0  2  0  0  0  0  0  0
  -26.0510  -29.4650   20.7760 C   0  0  0  0  0  0  0  0  0  0  0  0
  -27.2430  -28.6730   20.7590 C   0  0  0  0  0  3  0  0  0  0  0  0
  -26.0550  -26.9150   19.5860 C   0  0  0  0  0  3  0  0  0  0  0  0
  -24.8850  -27.7020   19.5820 C   0  0  0  0  0  3  0  0  0  0  0  0
  -23.6360  -29.8400   20.2350 C   0  0  0  0  0  2  0  0  0  0  0  0
  -24.6880  -31.1110   22.1540 N   0  0  0  0  0  0  0  0  0  0  0  0
  -23.5330  -32.1840   23.7920 O   0  0  0  0  0  0  0  0  0  0  0  0
  -22.7650  -29.4960   22.5750 C   0  0  0  0  0  0  0  0  0  0  0  0
  -21.4410  -29.2990   22.4400 N   0  0  0  0  0  0  0  0  0  0  0  0
  -23.4470  -28.8810   23.3980 O   0  0  0  0  0  0  0  0  0  0  0  0
  -20.9490  -29.8450   21.7490 H   0  0  0  0  0  0  0  0  0  0  0  0
  -18.0820  -28.0340   22.8940 C   0  0  0  0  0  0  0  0  0  0  0  0
  -20.6290  -28.3500   23.2050 C   0  0  0  0  0  3  0  0  0  0  0  0
  -20.7720  -26.9160   22.6450 C   0  0  0  0  0  2  0  0  0  0  0  0
  -19.6950  -26.5620   21.6150 C   0  0  0  0  0  2  0  0  0  0  0  0
  -18.2990  -26.6840   22.2330 C   0  0  0  0  0  2  0  0  0  0  0  0
  -19.1760  -28.8250   23.3360 C   0  0  0  0  0  0  0  0  0  0  0  0
  -18.9220  -30.0880   23.9100 C   0  0  0  0  0  3  0  0  0  0  0  0
  -17.6040  -30.5620   24.0510 C   0  0  0  0  0  3  0  0  0  0  0  0
  -16.5230  -29.7690   23.6270 C   0  0  0  0  0  3  0  0  0  0  0  0
  -16.7620  -28.5090   23.0540 C   0  0  0  0  0  3  0  0  0  0  0  0
  -25.8960  -32.5560   23.8820 C   0  0  0  0  0  3  0  0  0  0  0  0
  -25.5840  -33.9570   24.2010 N   0  0  0  0  0  0  0  0  0  0  0  0
  -25.9220  -35.0060   23.4400 C   0  0  0  0  0  0  0  0  0  0  0  0
  -26.6010  -34.8970   22.4140 O   0  0  0  0  0  0  0  0  0  0  0  0
  -24.9820  -34.1170   24.9970 H   0  0  0  0  0  0  0  0  0  0  0  0
  -24.1980  -36.8000   23.0660 C   0  0  0  0  0  1  0  0  0  0  0  0
  -25.4340  -36.3990   23.8880 C   0  0  0  0  0  3  0  0  0  0  0  0
  -27.5640  -37.2850   24.7280 C   0  0  0  0  0  1  0  0  0  0  0  0
  -26.4680  -37.4500   23.7750 N   0  0  0  0  0  0  0  0  0  0  0  0
  -26.0630  -38.3720   23.9160 H   0  0  0  0  0  0  0  0  0  0  0  0
  -26.4060  -31.7950   25.1660 C   0  0  1  0  0  0  0  0  0  0  0  0
  -25.3060  -31.5610   26.2290 C   0  0  0  0  0  1  0  0  0  0  0  0
  -26.9910  -30.4140   24.7840 C   0  0  0  0  0  1  0  0  0  0  0  0
  -27.5550  -32.5920   25.8270 C   0  0  0  0  0  1  0  0  0  0  0  0
  -29.0370  -20.1000   19.9230 C   0  0  0  0  0  2  0  0  0  0  0  0
  -29.7390  -18.6300   19.6440 C   0  0  0  0  0  2  0  0  0  0  0  0
  -30.0040  -17.4300   20.7070 C   0  0  0  0  0  2  0  0  0  0  0  0
  -30.6120  -14.8600   20.0810 C   0  0  0  0  0  0  0  0  0  0  0  0
  -30.4230  -12.5880   19.0330 C   0  0  0  0  0  2  0  0  0  0  0  0
  -29.4430  -12.6600   17.8390 C   0  0  0  0  0  2  0  0  0  0  0  0
  -27.9880  -12.4750   18.3130 C   0  0  0  0  0  2  0  0  0  0  0  0
  -27.6480  -13.3540   19.5460 C   0  0  0  0  0  3  0  0  0  0  0  0
  -28.7360  -13.2450   20.6330 C   0  0  0  0  0  2  0  0  0  0  0  0
  -30.0100  -13.6230   20.0060 N   0  0  0  0  0  0  0  0  0  0  0  0
  -31.7940  -14.9960   19.7500 O   0  0  0  0  0  0  0  0  0  0  0  0
  -29.7890  -15.9490   20.3460 N   0  0  0  0  0  0  0  0  0  0  0  0
  -28.8340  -15.6550   20.4830 H   0  0  0  0  0  0  0  0  0  0  0  0
  -25.2830  -13.9500   20.3420 C   0  0  0  0  0  0  0  0  0  0  0  0
  -24.2280  -13.1790   20.7460 C   0  0  0  0  0  0  0  0  0  0  0  0
  -24.6900  -11.8270   20.7070 C   0  0  0  0  0  0  0  0  0  0  0  0
  -26.3180  -13.0690   20.0750 N   0  0  0  0  0  0  0  0  0  0  0  0
  -25.9710  -11.7880   20.3600 N   0  0  0  0  0  0  0  0  0  0  0  0
  -23.9700  -10.5650   20.9220 C   0  0  0  0  0  0  0  0  0  0  0  0
  -24.4150   -9.6120   21.8640 C   0  0  0  0  0  3  0  0  0  0  0  0
  -23.6940   -8.4150   22.0660 C   0  0  0  0  0  3  0  0  0  0  0  0
  -22.5160   -8.1640   21.3230 C   0  0  0  0  0  0  0  0  0  0  0  0
  -22.0910   -9.1060   20.3690 C   0  0  0  0  0  3  0  0  0  0  0  0
  -22.8110  -10.2930   20.1670 C   0  0  0  0  0  3  0  0  0  0  0  0
  -21.7660   -7.0170   21.4320 O   0  0  0  0  0  0  0  0  0  0  0  0
  -21.7130   -6.3010   22.6010 C   0  0  0  0  0  0  0  0  0  0  0  0
  -21.2730   -6.8820   23.8110 C   0  0  0  0  0  3  0  0  0  0  0  0
  -21.1670   -6.0910   24.9730 C   0  0  0  0  0  3  0  0  0  0  0  0
  -21.4900   -4.7220   24.9260 C   0  0  0  0  0  0  0  0  0  0  0  0
  -21.9230   -4.1410   23.7210 C   0  0  0  0  0  3  0  0  0  0  0  0
  -22.0300   -4.9290   22.5610 C   0  0  0  0  0  0  0  0  0  0  0  0
  -22.4270   -4.3590   21.3970 F   0  0  0  0  0  0  0  0  0  0  0  0
  -21.3820   -3.9610   26.0400 F   0  0  0  0  0  0  0  0  0  0  0  0
  -22.8390  -13.6580   21.0570 C   0  0  0  0  0  0  0  0  0  0  0  0
  -22.1370  -12.9660   21.9470 N   0  0  0  0  0  0  0  0  0  0  0  0
  -22.3860  -14.6800   20.5440 O   0  0  0  0  0  0  0  0  0  0  0  0
  -22.5190  -12.1360   22.3790 H   0  0  0  0  0  0  0  0  0  0  0  0
  -21.2070  -13.2680   22.2000 H   0  0  0  0  0  0  0  0  0  0  0  0
  -25.4400  -15.3210   20.1530 N   0  0  0  0  0  0  0  0  0  0  0  0
  -24.6710  -15.9700   20.2750 H   0  0  0  0  0  0  0  0  0  0  0  0
  -26.2640  -15.7550   19.7590 H   0  0  0  0  0  0  0  0  0  0  0  0
  1  2  1  0
  2  6  1  0
  3  1  2  0
  4  2  2  0
  4  7  1  0
  5  3  1  0
  5  8  2  0
  8  4  1  0
  9 10  1  0
  9  3  1  0
 11 13  1  0
 11 10  1  0
 12 23  2  0
 13 18  1  0
 14 22  1  0
 14 24  1  0
 15 21  1  0
 15 17  1  0
 16 22  1  0
 17 16  1  0
 18 17  2  0
 19 13  2  0
 20 19  1  0
 20 15  2  0
 21 14  1  0
 22 12  1  0
 24 26  2  0
 25 24  1  0
 27 25  1  0
 28 37  2  0
 28 33  1  0
 29 25  1  0
 29 33  1  0
 30 29  1  0
 31 32  1  0
 31 30  1  0
 32 28  1  0
 33 34  2  0
 34 35  1  0
 36 35  2  0
 37 36  1  0
 38 12  1  0
 38 39  1  0
 38 48  1  0
 39 42  1  0
 40 44  1  0
 40 39  1  0
 41 40  2  0
 44 43  1  0
 46 44  1  0
 46 47  1  0
 46 45  1  0
 48 51  1  1
 48 49  1  0
 50 48  1  0
 52  5  1  0
 53 52  1  0
 53 54  1  0
 55 63  1  0
 56 61  1  0
 57 58  1  0
 57 56  1  0
 59 58  1  0
 59 68  1  0
 59 60  1  0
 61 55  1  0
 61 60  1  0
 62 55  2  0
 63 64  1  0
 63 54  1  0
 65 66  2  0
 66 85  1  0
 67 66  1  0
 67 70  1  0
 68 65  1  0
 68 69  1  0
 69 67  2  0
 70 71  1  0
 71 72  2  0
 73 76  1  0
 73 72  1  0
 74 73  2  0
 75 74  1  0
 75 70  2  0
 76 77  1  0
 77 78  1  0
 78 79  2  0
 80 79  1  0
 80 84  1  0
 81 80  2  0
 82 77  2  0
 82 81  1  0
 83 82  1  0
 85 86  1  0
 86 89  1  0
 86 88  1  0
 87 85  2  0
 90 91  1  0
 90 65  1  0
 92 90  1  0
M  ISO  4  10 101  11 101  55 100  63 100
M  END
>  <TORSDO>  (47) 
F 21

>  <SCORE>  (47) 
-13.018

>  <name>  (47) 
46

>  <ligand_id>  (47) 
46

>  <original_smiles>  (47) 
[H]c1c([H])c([H])c2c(c1[H])C([H])([H])C([H])([H])C([H])([H])C2([H])N([H])C(=O)C1([H])N(C(=O)C([H])(N([H])C(=O)C([H])(N([H])C([H])([H])[H])C([H])([H])[H])C(C([H])([H])[H])(C([H])([H])[H])C([H])([H])[H])C([H])([H])c2c([H])c(OC([H])([H])C([H])([H])c3c(C([H])([H])C([H])([H])C([H])([H])N([H])C(=O)N4C([H])([H])C([H])([H])C([H])([H])C([H])(n5nc(-c6c([H])c([H])c(Oc7c([H])c([H])c(F)c([H])c7F)c([H])c6[H])c(C(=O)N([H])[H])c5N([H])[H])C4([H])[H])nc(C([H])([H])[H])c(C([H])([H])[H])c3[H])c([H])c([H])c2C1([H])[H]

>  <smiles>  (47) 
[H]c1c([H])c([H])c2c(c1[H])C([H])([H])C([H])([H])C([H])([H])C2([H])N([H])C(=O)C1([H])N(C(=O)C([H])(N([H])C(=O)C([H])(N([H])C([H])([H])[H])C([H])([H])[H])C(C([H])([H])[H])(C([H])([H])[H])C([H])([H])[H])C([H])([H])c2c([H])c(OC([H])([H])C([H])([H])c3c(C([H])([H])C([H])([H])C([H])([H])N([H])C(=O)N4C([H])([H])C([H])([H])C([H])([H])C([H])(n5nc(-c6c([H])c([H])c(Oc7c([H])c([H])c(F)c([H])c7F)c([H])c6[H])c(C(=O)N([H])[H])c5N([H])[H])C4([H])[H])nc(C([H])([H])[H])c(C([H])([H])[H])c3[H])c([H])c([H])c2C1([H])[H]

$$$$
47:0:0
     RDKit          3D

 94102  0  0  1  0  0  0  0  0999 V2000
  -30.6240  -21.8600   19.9190 C   0  0  0  0  0  3  0  0  0  0  0  0
  -30.5630  -22.8960   20.8160 C   0  0  0  0  0  0  0  0  0  0  0  0
  -30.4580  -22.2260   22.0670 C   0  0  0  0  0  0  0  0  0  0  0  0
  -30.3880  -22.8400   23.4350 C   0  0  0  0  0  1  0  0  0  0  0  0
  -30.4610  -20.9050   21.9420 N   0  0  0  0  0  0  0  0  0  0  0  0
  -30.5450  -20.6650   20.6150 N   0  0  0  0  0  0  0  0  0  0  0  0
  -30.6420  -24.3990   20.5780 C   0  0  0  0  0  2  0  0  0  0  0  0
  -29.8460  -24.9070   19.3510 C   0  0  0  0  0  2  0  0  0  0  0  0
  -27.6110  -24.3560   20.4940 C   0  0  0  0  0  1  0  0  0  0  0  0
  -28.3840  -25.3540   19.6020 C   0  0  0  0  0  3  0  0  0  0  0  0
  -28.3640  -26.6900   20.1420 O   0  0  0  0  0  0  0  0  0  0  0  0
  -24.6120  -31.8660   23.2840 C   0  0  0  0  0  0  0  0  0  0  0  0
  -27.1880  -27.4260   20.1240 C   0  0  0  0  0  0  0  0  0  0  0  0
  -23.3900  -30.5260   21.6060 C   0  0  0  0  0  3  0  0  0  0  0  0
  -24.8210  -28.9920   20.1590 C   0  0  0  0  0  0  0  0  0  0  0  0
  -25.9280  -30.8310   21.4380 C   0  0  0  0  0  2  0  0  0  0  0  0
  -25.9870  -29.4730   20.7670 C   0  0  0  0  0  0  0  0  0  0  0  0
  -27.1700  -28.6970   20.7470 C   0  0  0  0  0  3  0  0  0  0  0  0
  -25.9950  -26.9680   19.5110 C   0  0  0  0  0  3  0  0  0  0  0  0
  -24.8190  -27.7360   19.5340 C   0  0  0  0  0  3  0  0  0  0  0  0
  -23.5960  -29.8750   20.2140 C   0  0  0  0  0  2  0  0  0  0  0  0
  -24.6610  -31.0870   22.1680 N   0  0  0  0  0  0  0  0  0  0  0  0
  -23.5310  -32.1510   23.8200 O   0  0  0  0  0  0  0  0  0  0  0  0
  -22.7110  -29.4960   22.5360 C   0  0  0  0  0  0  0  0  0  0  0  0
  -21.3820  -29.3530   22.4040 N   0  0  0  0  0  0  0  0  0  0  0  0
  -23.3760  -28.8310   23.3350 O   0  0  0  0  0  0  0  0  0  0  0  0
  -20.9080  -29.9390   21.7310 H   0  0  0  0  0  0  0  0  0  0  0  0
  -17.9740  -28.2540   22.8830 C   0  0  0  0  0  0  0  0  0  0  0  0
  -20.5390  -28.4180   23.1480 C   0  0  0  0  0  3  0  0  0  0  0  0
  -20.5910  -27.0030   22.5270 C   0  0  0  0  0  2  0  0  0  0  0  0
  -19.4740  -26.7480   21.5100 C   0  0  0  0  0  2  0  0  0  0  0  0
  -18.1010  -26.9210   22.1660 C   0  0  0  0  0  2  0  0  0  0  0  0
  -19.1180  -28.9640   23.3300 C   0  0  0  0  0  0  0  0  0  0  0  0
  -18.9450  -30.2160   23.9610 C   0  0  0  0  0  3  0  0  0  0  0  0
  -17.6580  -30.7560   24.1470 C   0  0  0  0  0  3  0  0  0  0  0  0
  -16.5280  -30.0410   23.7160 C   0  0  0  0  0  3  0  0  0  0  0  0
  -16.6850  -28.7920   23.0910 C   0  0  0  0  0  3  0  0  0  0  0  0
  -25.9050  -32.4580   23.9260 C   0  0  0  0  0  3  0  0  0  0  0  0
  -25.6210  -33.8560   24.2830 N   0  0  0  0  0  0  0  0  0  0  0  0
  -25.9880  -34.9160   23.5510 C   0  0  0  0  0  0  0  0  0  0  0  0
  -26.6720  -34.8180   22.5290 O   0  0  0  0  0  0  0  0  0  0  0  0
  -25.0200  -34.0060   25.0790 H   0  0  0  0  0  0  0  0  0  0  0  0
  -24.3110  -36.7550   23.1980 C   0  0  0  0  0  1  0  0  0  0  0  0
  -25.5230  -36.3030   24.0290 C   0  0  0  0  0  3  0  0  0  0  0  0
  -27.6570  -37.1140   24.9320 C   0  0  0  0  0  1  0  0  0  0  0  0
  -26.5830  -37.3340   23.9670 N   0  0  0  0  0  0  0  0  0  0  0  0
  -26.1960  -38.2600   24.1290 H   0  0  0  0  0  0  0  0  0  0  0  0
  -26.3990  -31.6500   25.1890 C   0  0  1  0  0  0  0  0  0  0  0  0
  -25.2930  -31.4060   26.2410 C   0  0  0  0  0  1  0  0  0  0  0  0
  -26.9630  -30.2730   24.7690 C   0  0  0  0  0  1  0  0  0  0  0  0
  -27.5580  -32.4100   25.8760 C   0  0  0  0  0  1  0  0  0  0  0  0
  -30.6620  -19.3110   20.0420 C   0  0  0  0  0  2  0  0  0  0  0  0
  -28.8010  -18.1480   21.4020 C   0  0  0  0  0  1  0  0  0  0  0  0
  -31.2160  -17.7560   22.0280 C   0  0  0  0  0  1  0  0  0  0  0  0
  -30.2420  -18.0310   20.8600 C   0  0  2  0  0  0  0  0  0  0  0  0
  -30.3080  -16.8280   19.8720 C   0  0  0  0  0  2  0  0  0  0  0  0
  -30.7630  -14.3970   20.0920 C   0  0  0  0  0  0  0  0  0  0  0  0
  -30.3470  -12.2730   18.9340 C   0  0  0  0  0  2  0  0  0  0  0  0
  -29.3680  -12.5590   17.7780 C   0  0  0  0  0  2  0  0  0  0  0  0
  -27.9050  -12.4620   18.2600 C   0  0  0  0  0  2  0  0  0  0  0  0
  -27.6470  -13.2440   19.5780 C   0  0  0  0  0  3  0  0  0  0  0  0
  -28.7490  -12.9710   20.6260 C   0  0  0  0  0  2  0  0  0  0  0  0
  -30.0550  -13.2390   20.0050 N   0  0  0  0  0  0  0  0  0  0  0  0
  -31.9010  -14.5180   19.6320 O   0  0  0  0  0  0  0  0  0  0  0  0
  -30.0520  -15.4850   20.4360 N   0  0  0  0  0  0  0  0  0  0  0  0
  -29.1370  -15.3230   20.8240 H   0  0  0  0  0  0  0  0  0  0  0  0
  -25.2860  -13.8590   20.3990 C   0  0  0  0  0  0  0  0  0  0  0  0
  -24.2290  -13.0890   20.8080 C   0  0  0  0  0  0  0  0  0  0  0  0
  -24.6780  -11.7340   20.7420 C   0  0  0  0  0  0  0  0  0  0  0  0
  -26.3130  -12.9720   20.1140 N   0  0  0  0  0  0  0  0  0  0  0  0
  -25.9540  -11.6890   20.3810 N   0  0  0  0  0  0  0  0  0  0  0  0
  -23.9510  -10.4750   20.9500 C   0  0  0  0  0  0  0  0  0  0  0  0
  -24.3960   -9.5110   21.8800 C   0  0  0  0  0  3  0  0  0  0  0  0
  -23.6710   -8.3160   22.0770 C   0  0  0  0  0  3  0  0  0  0  0  0
  -22.4850   -8.0760   21.3430 C   0  0  0  0  0  0  0  0  0  0  0  0
  -22.0590   -9.0290   20.4000 C   0  0  0  0  0  3  0  0  0  0  0  0
  -22.7850  -10.2140   20.2030 C   0  0  0  0  0  3  0  0  0  0  0  0
  -21.7300   -6.9330   21.4480 O   0  0  0  0  0  0  0  0  0  0  0  0
  -21.6770   -6.2090   22.6130 C   0  0  0  0  0  0  0  0  0  0  0  0
  -21.2560   -6.7850   23.8300 C   0  0  0  0  0  3  0  0  0  0  0  0
  -21.1490   -5.9880   24.9880 C   0  0  0  0  0  3  0  0  0  0  0  0
  -21.4520   -4.6140   24.9270 C   0  0  0  0  0  0  0  0  0  0  0  0
  -21.8660   -4.0380   23.7140 C   0  0  0  0  0  3  0  0  0  0  0  0
  -21.9750   -4.8330   22.5590 C   0  0  0  0  0  0  0  0  0  0  0  0
  -22.3530   -4.2660   21.3880 F   0  0  0  0  0  0  0  0  0  0  0  0
  -21.3430   -3.8460   26.0370 F   0  0  0  0  0  0  0  0  0  0  0  0
  -22.8480  -13.5710   21.1440 C   0  0  0  0  0  0  0  0  0  0  0  0
  -22.1530  -12.8750   22.0350 N   0  0  0  0  0  0  0  0  0  0  0  0
  -22.3920  -14.6020   20.6480 O   0  0  0  0  0  0  0  0  0  0  0  0
  -22.5320  -12.0440   22.4660 H   0  0  0  0  0  0  0  0  0  0  0  0
  -21.2260  -13.1790   22.2940 H   0  0  0  0  0  0  0  0  0  0  0  0
  -25.4540  -15.2300   20.2280 N   0  0  0  0  0  0  0  0  0  0  0  0
  -24.6980  -15.8910   20.3760 H   0  0  0  0  0  0  0  0  0  0  0  0
  -26.2930  -15.6680   19.8670 H   0  0  0  0  0  0  0  0  0  0  0  0
  1  6  1  0
  1  2  2  0
  2  3  1  0
  3  4  1  0
  5  3  2  0
  6  5  1  0
  7  2  1  0
  8 10  1  0
  8  7  1  0
 10 11  1  0
 10  9  1  0
 12 23  2  0
 13 11  1  0
 13 18  1  0
 14 22  1  0
 14 24  1  0
 15 21  1  0
 15 17  1  0
 16 22  1  0
 17 16  1  0
 18 17  2  0
 19 20  1  0
 19 13  2  0
 20 15  2  0
 21 14  1  0
 22 12  1  0
 24 26  2  0
 25 24  1  0
 27 25  1  0
 28 37  2  0
 28 33  1  0
 29 25  1  0
 29 33  1  0
 30 29  1  0
 31 32  1  0
 31 30  1  0
 32 28  1  0
 33 34  2  0
 34 35  1  0
 36 35  2  0
 37 36  1  0
 38 12  1  0
 38 39  1  0
 38 48  1  0
 39 42  1  0
 40 44  1  0
 40 39  1  0
 41 40  2  0
 44 43  1  0
 46 44  1  0
 46 47  1  0
 46 45  1  0
 48 51  1  1
 48 49  1  0
 50 48  1  0
 52  6  1  0
 52 55  1  0
 55 53  1  1
 55 54  1  0
 56 65  1  0
 56 55  1  0
 57 65  1  0
 58 63  1  0
 59 60  1  0
 59 58  1  0
 61 60  1  0
 61 70  1  0
 61 62  1  0
 63 57  1  0
 63 62  1  0
 64 57  2  0
 65 66  1  0
 67 68  2  0
 68 87  1  0
 69 68  1  0
 69 72  1  0
 70 71  1  0
 70 67  1  0
 71 69  2  0
 72 73  1  0
 73 74  2  0
 75 78  1  0
 75 74  1  0
 76 75  2  0
 77 76  1  0
 77 72  2  0
 78 79  1  0
 79 80  1  0
 80 81  2  0
 82 81  1  0
 82 86  1  0
 83 82  2  0
 84 79  2  0
 84 83  1  0
 85 84  1  0
 87 88  1  0
 88 91  1  0
 88 90  1  0
 89 87  2  0
 92 93  1  0
 92 67  1  0
 94 92  1  0
M  ISO  4  10 101  11 101  57 100  65 100
M  END
>  <TORSDO>  (48) 
F 22

>  <SCORE>  (48) 
-12.429

>  <name>  (48) 
47

>  <ligand_id>  (48) 
47

>  <original_smiles>  (48) 
[H]c1c([H])c([H])c2c(c1[H])C([H])([H])C([H])([H])C([H])([H])C2([H])N([H])C(=O)C1([H])N(C(=O)C([H])(N([H])C(=O)C([H])(N([H])C([H])([H])[H])C([H])([H])[H])C(C([H])([H])[H])(C([H])([H])[H])C([H])([H])[H])C([H])([H])c2c([H])c(OC([H])(C([H])([H])[H])C([H])([H])C([H])([H])c3c(C([H])([H])[H])nn(C([H])([H])C(C([H])([H])[H])(C([H])([H])[H])C([H])([H])N([H])C(=O)N4C([H])([H])C([H])([H])C([H])([H])C([H])(n5nc(-c6c([H])c([H])c(Oc7c([H])c([H])c(F)c([H])c7F)c([H])c6[H])c(C(=O)N([H])[H])c5N([H])[H])C4([H])[H])c3[H])c([H])c([H])c2C1([H])[H]

>  <smiles>  (48) 
[H]c1c([H])c([H])c2c(c1[H])C([H])([H])C([H])([H])C([H])([H])C2([H])N([H])C(=O)C1([H])N(C(=O)C([H])(N([H])C(=O)C([H])(N([H])C([H])([H])[H])C([H])([H])[H])C(C([H])([H])[H])(C([H])([H])[H])C([H])([H])[H])C([H])([H])c2c([H])c(OC([H])(C([H])([H])[H])C([H])([H])C([H])([H])c3c(C([H])([H])[H])nn(C([H])([H])C(C([H])([H])[H])(C([H])([H])[H])C([H])([H])N([H])C(=O)N4C([H])([H])C([H])([H])C([H])([H])C([H])(n5nc(-c6c([H])c([H])c(Oc7c([H])c([H])c(F)c([H])c7F)c([H])c6[H])c(C(=O)N([H])[H])c5N([H])[H])C4([H])[H])c3[H])c([H])c([H])c2C1([H])[H]

$$$$
48:0:0
     RDKit          3D

 92100  0  0  1  0  0  0  0  0999 V2000
  -28.5020  -20.1290   20.1410 C   0  0  0  0  0  3  0  0  0  0  0  0
  -29.6550  -19.3040   20.2180 C   0  0  0  0  0  0  0  0  0  0  0  0
  -30.9730  -21.2130   20.1540 C   0  0  0  0  0  0  0  0  0  0  0  0
  -29.8160  -22.0330   20.0240 C   0  0  0  0  0  0  0  0  0  0  0  0
  -32.3760  -21.7890   20.1600 C   0  0  0  0  0  1  0  0  0  0  0  0
  -28.5770  -21.4810   20.0400 N   0  0  0  0  0  0  0  0  0  0  0  0
  -30.8950  -19.8580   20.2400 N   0  0  0  0  0  0  0  0  0  0  0  0
  -29.9520  -17.3520   18.6530 C   0  0  0  0  0  1  0  0  0  0  0  0
  -29.5420  -17.7740   20.0750 C   0  0  0  0  0  3  0  0  0  0  0  0
  -30.2780  -16.9320   21.1630 C   0  0  0  0  0  2  0  0  0  0  0  0
  -30.6490  -14.4970   20.5590 C   0  0  0  0  0  0  0  0  0  0  0  0
  -30.3640  -12.3570   19.3620 C   0  0  0  0  0  2  0  0  0  0  0  0
  -29.4360  -12.5900   18.1500 C   0  0  0  0  0  2  0  0  0  0  0  0
  -27.9560  -12.4530   18.5560 C   0  0  0  0  0  2  0  0  0  0  0  0
  -27.6070  -13.2670   19.8300 C   0  0  0  0  0  3  0  0  0  0  0  0
  -28.6450  -13.0140   20.9470 C   0  0  0  0  0  2  0  0  0  0  0  0
  -29.9800  -13.3220   20.4040 N   0  0  0  0  0  0  0  0  0  0  0  0
  -31.7780  -14.6930   20.0980 O   0  0  0  0  0  0  0  0  0  0  0  0
  -29.9310  -15.4940   21.1060 N   0  0  0  0  0  0  0  0  0  0  0  0
  -29.0150  -15.2400   21.4450 H   0  0  0  0  0  0  0  0  0  0  0  0
  -25.1980  -13.8860   20.4870 C   0  0  0  0  0  0  0  0  0  0  0  0
  -24.1220  -13.1190   20.8430 C   0  0  0  0  0  0  0  0  0  0  0  0
  -24.5790  -11.7670   20.8280 C   0  0  0  0  0  0  0  0  0  0  0  0
  -26.2450  -13.0000   20.2830 N   0  0  0  0  0  0  0  0  0  0  0  0
  -25.8750  -11.7200   20.5430 N   0  0  0  0  0  0  0  0  0  0  0  0
  -23.8470  -10.5070   21.0140 C   0  0  0  0  0  0  0  0  0  0  0  0
  -24.2620   -9.5450   21.9600 C   0  0  0  0  0  3  0  0  0  0  0  0
  -23.5320   -8.3490   22.1340 C   0  0  0  0  0  3  0  0  0  0  0  0
  -22.3720   -8.1080   21.3600 C   0  0  0  0  0  0  0  0  0  0  0  0
  -21.9760   -9.0580   20.4030 C   0  0  0  0  0  3  0  0  0  0  0  0
  -22.7060  -10.2460   20.2290 C   0  0  0  0  0  3  0  0  0  0  0  0
  -21.6160   -6.9640   21.4420 O   0  0  0  0  0  0  0  0  0  0  0  0
  -21.5470   -6.2260   22.5980 C   0  0  0  0  0  0  0  0  0  0  0  0
  -21.0970   -6.7870   23.8130 C   0  0  0  0  0  3  0  0  0  0  0  0
  -20.9760   -5.9760   24.9590 C   0  0  0  0  0  3  0  0  0  0  0  0
  -21.2940   -4.6050   24.8900 C   0  0  0  0  0  0  0  0  0  0  0  0
  -21.7360   -4.0460   23.6790 C   0  0  0  0  0  3  0  0  0  0  0  0
  -21.8590   -4.8540   22.5350 C   0  0  0  0  0  0  0  0  0  0  0  0
  -22.2650   -4.3050   21.3640 F   0  0  0  0  0  0  0  0  0  0  0  0
  -21.1710   -3.8240   25.9880 F   0  0  0  0  0  0  0  0  0  0  0  0
  -22.7210  -13.6010   21.0880 C   0  0  0  0  0  0  0  0  0  0  0  0
  -21.9760  -12.9100   21.9430 N   0  0  0  0  0  0  0  0  0  0  0  0
  -22.2950  -14.6260   20.5560 O   0  0  0  0  0  0  0  0  0  0  0  0
  -22.3330  -12.0810   22.3950 H   0  0  0  0  0  0  0  0  0  0  0  0
  -21.0340  -13.2140   22.1500 H   0  0  0  0  0  0  0  0  0  0  0  0
  -25.3700  -15.2550   20.3010 N   0  0  0  0  0  0  0  0  0  0  0  0
  -24.5990  -15.9090   20.3810 H   0  0  0  0  0  0  0  0  0  0  0  0
  -26.2220  -15.6870   19.9700 H   0  0  0  0  0  0  0  0  0  0  0  0
  -29.8740  -23.5470   19.7540 C   0  0  0  0  0  2  0  0  0  0  0  0
  -29.4110  -24.4480   20.9300 C   0  0  0  0  0  2  0  0  0  0  0  0
  -28.1350  -25.2830   20.6670 C   0  0  0  0  0  2  0  0  0  0  0  0
  -28.3660  -26.6580   20.2860 O   0  0  0  0  0  0  0  0  0  0  0  0
  -24.5640  -31.9150   23.2660 C   0  0  0  0  0  0  0  0  0  0  0  0
  -27.2180  -27.4300   20.2400 C   0  0  0  0  0  0  0  0  0  0  0  0
  -23.3680  -30.4990   21.6300 C   0  0  0  0  0  3  0  0  0  0  0  0
  -24.8280  -28.9550   20.2230 C   0  0  0  0  0  0  0  0  0  0  0  0
  -25.8980  -30.8520   21.4450 C   0  0  0  0  0  2  0  0  0  0  0  0
  -25.9870  -29.4780   20.8120 C   0  0  0  0  0  0  0  0  0  0  0  0
  -27.1870  -28.7250   20.8130 C   0  0  0  0  0  3  0  0  0  0  0  0
  -26.0400  -26.9350   19.6320 C   0  0  0  0  0  3  0  0  0  0  0  0
  -24.8520  -27.6850   19.6270 C   0  0  0  0  0  3  0  0  0  0  0  0
  -23.5840  -29.8150   20.2570 C   0  0  0  0  0  2  0  0  0  0  0  0
  -24.6280  -31.1040   22.1720 N   0  0  0  0  0  0  0  0  0  0  0  0
  -23.4780  -32.1920   23.7960 O   0  0  0  0  0  0  0  0  0  0  0  0
  -22.7110  -29.4840   22.5940 C   0  0  0  0  0  0  0  0  0  0  0  0
  -21.3890  -29.2930   22.4520 N   0  0  0  0  0  0  0  0  0  0  0  0
  -23.3880  -28.8720   23.4230 O   0  0  0  0  0  0  0  0  0  0  0  0
  -20.9050  -29.8400   21.7540 H   0  0  0  0  0  0  0  0  0  0  0  0
  -18.0130  -28.0910   22.9230 C   0  0  0  0  0  0  0  0  0  0  0  0
  -20.5670  -28.3610   23.2230 C   0  0  0  0  0  3  0  0  0  0  0  0
  -20.6810  -26.9240   22.6630 C   0  0  0  0  0  2  0  0  0  0  0  0
  -19.5920  -26.5860   21.6400 C   0  0  0  0  0  2  0  0  0  0  0  0
  -18.2020  -26.7350   22.2670 C   0  0  0  0  0  2  0  0  0  0  0  0
  -19.1230  -28.8610   23.3580 C   0  0  0  0  0  0  0  0  0  0  0  0
  -18.8940  -30.1320   23.9300 C   0  0  0  0  0  3  0  0  0  0  0  0
  -17.5860  -30.6310   24.0730 C   0  0  0  0  0  3  0  0  0  0  0  0
  -16.4900  -29.8570   23.6560 C   0  0  0  0  0  3  0  0  0  0  0  0
  -16.7030  -28.5900   23.0870 C   0  0  0  0  0  3  0  0  0  0  0  0
  -25.8450  -32.5510   23.8890 C   0  0  0  0  0  3  0  0  0  0  0  0
  -25.5360  -33.9530   24.1980 N   0  0  0  0  0  0  0  0  0  0  0  0
  -25.8850  -34.9950   23.4320 C   0  0  0  0  0  0  0  0  0  0  0  0
  -26.5710  -34.8770   22.4120 O   0  0  0  0  0  0  0  0  0  0  0  0
  -24.9290  -34.1190   24.9860 H   0  0  0  0  0  0  0  0  0  0  0  0
  -24.1780  -36.7930   23.0150 C   0  0  0  0  0  1  0  0  0  0  0  0
  -25.3940  -36.3890   23.8630 C   0  0  0  0  0  3  0  0  0  0  0  0
  -27.5110  -37.2680   24.7430 C   0  0  0  0  0  1  0  0  0  0  0  0
  -26.4360  -37.4350   23.7680 N   0  0  0  0  0  0  0  0  0  0  0  0
  -26.0330  -38.3590   23.8960 H   0  0  0  0  0  0  0  0  0  0  0  0
  -26.3510  -31.7930   25.1770 C   0  0  1  0  0  0  0  0  0  0  0  0
  -25.2500  -31.5680   26.2380 C   0  0  0  0  0  1  0  0  0  0  0  0
  -26.9360  -30.4120   24.8020 C   0  0  0  0  0  1  0  0  0  0  0  0
  -27.4980  -32.5940   25.8380 C   0  0  0  0  0  1  0  0  0  0  0  0
  1  2  1  0
  2  7  2  0
  3  5  1  0
  3  7  1  0
  4  6  1  0
  4  3  2  0
  6  1  2  0
  9  8  1  0
  9  2  1  0
  9 10  1  0
 11 19  1  0
 12 17  1  0
 13 14  1  0
 13 12  1  0
 15 14  1  0
 15 24  1  0
 15 16  1  0
 17 11  1  0
 17 16  1  0
 18 11  2  0
 19 10  1  0
 19 20  1  0
 21 22  2  0
 22 41  1  0
 23 22  1  0
 23 26  1  0
 24 21  1  0
 24 25  1  0
 25 23  2  0
 26 27  1  0
 27 28  2  0
 29 32  1  0
 29 28  1  0
 30 29  2  0
 31 30  1  0
 31 26  2  0
 32 33  1  0
 33 34  1  0
 34 35  2  0
 36 35  1  0
 36 40  1  0
 37 36  2  0
 38 33  2  0
 38 37  1  0
 39 38  1  0
 41 42  1  0
 42 45  1  0
 42 44  1  0
 43 41  2  0
 46 47  1  0
 46 21  1  0
 48 46  1  0
 49  4  1  0
 49 50  1  0
 51 50  1  0
 52 51  1  0
 53 64  2  0
 54 52  1  0
 54 59  1  0
 55 63  1  0
 55 65  1  0
 56 62  1  0
 56 58  1  0
 57 63  1  0
 58 59  2  0
 58 57  1  0
 60 54  2  0
 61 60  1  0
 61 56  2  0
 62 55  1  0
 63 53  1  0
 65 67  2  0
 66 65  1  0
 68 66  1  0
 69 78  2  0
 69 74  1  0
 70 66  1  0
 70 74  1  0
 71 70  1  0
 72 73  1  0
 72 71  1  0
 73 69  1  0
 74 75  2  0
 75 76  1  0
 77 76  2  0
 78 77  1  0
 79 53  1  0
 79 80  1  0
 79 89  1  0
 80 83  1  0
 81 85  1  0
 81 80  1  0
 82 81  2  0
 85 84  1  0
 87 85  1  0
 87 88  1  0
 87 86  1  0
 89 92  1  1
 89 90  1  0
 91 89  1  0
M  ISO  4  11 100  19 100  51 101  52 101
M  END
>  <TORSDO>  (49) 
F 21

>  <SCORE>  (49) 
-13.674

>  <name>  (49) 
48

>  <ligand_id>  (49) 
48

>  <original_smiles>  (49) 
[H]c1nc(C([H])([H])C([H])([H])C([H])([H])Oc2c([H])c([H])c3c(c2[H])C([H])([H])N(C(=O)C([H])(N([H])C(=O)C([H])(N([H])C([H])([H])[H])C([H])([H])[H])C(C([H])([H])[H])(C([H])([H])[H])C([H])([H])[H])C([H])(C(=O)N([H])C2([H])c4c([H])c([H])c([H])c([H])c4C([H])([H])C([H])([H])C2([H])[H])C3([H])[H])c(C([H])([H])[H])nc1C([H])(C([H])([H])[H])C([H])([H])N([H])C(=O)N1C([H])([H])C([H])([H])C([H])([H])C([H])(n2nc(-c3c([H])c([H])c(Oc4c([H])c([H])c(F)c([H])c4F)c([H])c3[H])c(C(=O)N([H])[H])c2N([H])[H])C1([H])[H]

>  <smiles>  (49) 
[H]c1nc(C([H])([H])C([H])([H])C([H])([H])Oc2c([H])c([H])c3c(c2[H])C([H])([H])N(C(=O)C([H])(N([H])C(=O)C([H])(N([H])C([H])([H])[H])C([H])([H])[H])C(C([H])([H])[H])(C([H])([H])[H])C([H])([H])[H])C([H])(C(=O)N([H])C2([H])c4c([H])c([H])c([H])c([H])c4C([H])([H])C([H])([H])C2([H])[H])C3([H])[H])c(C([H])([H])[H])nc1C([H])(C([H])([H])[H])C([H])([H])N([H])C(=O)N1C([H])([H])C([H])([H])C([H])([H])C([H])(n2nc(-c3c([H])c([H])c(Oc4c([H])c([H])c(F)c([H])c4F)c([H])c3[H])c(C(=O)N([H])[H])c2N([H])[H])C1([H])[H]

$$$$
49:0:0
     RDKit          3D

 90 98  0  0  1  0  0  0  0  0999 V2000
  -28.9930  -21.7360   21.6070 C   0  0  0  0  0  0  0  0  0  0  0  0
  -29.4020  -21.5280   20.3100 C   0  0  0  0  0  0  0  0  0  0  0  0
  -28.3570  -22.9280   22.2540 C   0  0  0  0  0  1  0  0  0  0  0  0
  -29.1950  -20.5920   22.3620 N   0  0  0  0  0  0  0  0  0  0  0  0
  -29.6580  -19.6550   21.6120 N   0  0  0  0  0  0  0  0  0  0  0  0
  -29.8120  -20.1320   20.3500 N   0  0  0  0  0  0  0  0  0  0  0  0
  -29.3010  -22.5820   19.1530 C   0  0  0  0  0  2  0  0  0  0  0  0
  -29.4720  -24.1850   19.4300 C   0  0  0  0  0  3  0  0  0  0  0  0
  -28.2830  -25.2460   19.1750 C   0  0  0  0  0  3  0  0  0  0  0  0
  -28.4560  -26.7220   19.4160 O   0  0  0  0  0  0  0  0  0  0  0  0
  -24.6180  -31.6940   23.0630 C   0  0  0  0  0  0  0  0  0  0  0  0
  -27.3070  -27.5470   19.4870 C   0  0  0  0  0  0  0  0  0  0  0  0
  -23.4120  -30.3770   21.3610 C   0  0  0  0  0  3  0  0  0  0  0  0
  -24.8680  -29.0480   19.7300 C   0  0  0  0  0  0  0  0  0  0  0  0
  -25.9210  -30.8500   21.0910 C   0  0  0  0  0  2  0  0  0  0  0  0
  -26.0410  -29.5370   20.3180 C   0  0  0  0  0  0  0  0  0  0  0  0
  -27.2630  -28.8010   20.1850 C   0  0  0  0  0  3  0  0  0  0  0  0
  -26.1010  -27.1270   18.8790 C   0  0  0  0  0  3  0  0  0  0  0  0
  -24.9010  -27.8510   19.0020 C   0  0  0  0  0  3  0  0  0  0  0  0
  -23.5910  -29.8440   19.9170 C   0  0  0  0  0  2  0  0  0  0  0  0
  -24.6710  -30.9890   21.8950 N   0  0  0  0  0  0  0  0  0  0  0  0
  -23.5500  -31.8580   23.6700 O   0  0  0  0  0  0  0  0  0  0  0  0
  -22.8540  -29.2430   22.2560 C   0  0  0  0  0  0  0  0  0  0  0  0
  -21.5490  -28.9500   22.1250 N   0  0  0  0  0  0  0  0  0  0  0  0
  -23.5970  -28.6340   23.0290 O   0  0  0  0  0  0  0  0  0  0  0  0
  -21.0010  -29.5000   21.4790 H   0  0  0  0  0  0  0  0  0  0  0  0
  -18.3210  -27.3610   22.5060 C   0  0  0  0  0  0  0  0  0  0  0  0
  -20.8300  -27.8920   22.8390 C   0  0  0  0  0  3  0  0  0  0  0  0
  -21.1020  -26.5080   22.2040 C   0  0  0  0  0  2  0  0  0  0  0  0
  -20.0580  -26.1110   21.1550 C   0  0  0  0  0  2  0  0  0  0  0  0
  -18.6590  -26.0730   21.7750 C   0  0  0  0  0  2  0  0  0  0  0  0
  -19.3410  -28.2230   22.9920 C   0  0  0  0  0  0  0  0  0  0  0  0
  -18.9700  -29.4240   23.6340 C   0  0  0  0  0  3  0  0  0  0  0  0
  -17.6150  -29.7670   23.7960 C   0  0  0  0  0  3  0  0  0  0  0  0
  -16.6100  -28.9040   23.3280 C   0  0  0  0  0  3  0  0  0  0  0  0
  -16.9640  -27.7020   22.6870 C   0  0  0  0  0  3  0  0  0  0  0  0
  -25.8940  -32.3470   23.6780 C   0  0  0  0  0  3  0  0  0  0  0  0
  -25.5500  -33.7230   24.0640 N   0  0  0  0  0  0  0  0  0  0  0  0
  -25.8350  -34.8110   23.3360 C   0  0  0  0  0  0  0  0  0  0  0  0
  -26.4830  -34.7630   22.2870 O   0  0  0  0  0  0  0  0  0  0  0  0
  -24.9770  -33.8350   24.8870 H   0  0  0  0  0  0  0  0  0  0  0  0
  -24.0440  -36.5590   23.0870 C   0  0  0  0  0  1  0  0  0  0  0  0
  -25.3180  -36.1680   23.8530 C   0  0  0  0  0  3  0  0  0  0  0  0
  -27.4420  -37.0960   24.6640 C   0  0  0  0  0  1  0  0  0  0  0  0
  -26.3140  -37.2570   23.7500 N   0  0  0  0  0  0  0  0  0  0  0  0
  -25.8810  -38.1570   23.9340 H   0  0  0  0  0  0  0  0  0  0  0  0
  -26.4600  -31.5510   24.9180 C   0  0  1  0  0  0  0  0  0  0  0  0
  -25.3960  -31.2350   25.9940 C   0  0  0  0  0  1  0  0  0  0  0  0
  -27.0870  -30.2100   24.4670 C   0  0  0  0  0  1  0  0  0  0  0  0
  -27.5920  -32.3630   25.5900 C   0  0  0  0  0  1  0  0  0  0  0  0
  -30.2120  -19.0450   19.3700 C   0  0  0  0  0  2  0  0  0  0  0  0
  -31.1260  -17.8000   19.9000 C   0  0  0  0  0  2  0  0  0  0  0  0
  -31.3710  -15.1890   19.7590 C   0  0  0  0  0  0  0  0  0  0  0  0
  -31.1140  -12.8400   18.9490 C   0  0  0  0  0  2  0  0  0  0  0  0
  -30.1460  -12.8180   17.7460 C   0  0  0  0  0  2  0  0  0  0  0  0
  -28.6850  -12.7090   18.2270 C   0  0  0  0  0  2  0  0  0  0  0  0
  -28.3530  -13.7010   19.3730 C   0  0  0  0  0  3  0  0  0  0  0  0
  -29.4410  -13.6990   20.4690 C   0  0  0  0  0  2  0  0  0  0  0  0
  -30.7210  -13.9780   19.8100 N   0  0  0  0  0  0  0  0  0  0  0  0
  -32.5510  -15.2420   19.4050 O   0  0  0  0  0  0  0  0  0  0  0  0
  -30.6340  -16.3510   19.9130 N   0  0  0  0  0  0  0  0  0  0  0  0
  -29.6590  -16.2140   20.1380 H   0  0  0  0  0  0  0  0  0  0  0  0
  -26.0360  -14.3900   20.2300 C   0  0  0  0  0  0  0  0  0  0  0  0
  -24.9510  -13.6600   20.6320 C   0  0  0  0  0  0  0  0  0  0  0  0
  -25.3430  -12.2890   20.5460 C   0  0  0  0  0  0  0  0  0  0  0  0
  -27.0210  -13.4660   19.9220 N   0  0  0  0  0  0  0  0  0  0  0  0
  -26.6140  -12.1950   20.1750 N   0  0  0  0  0  0  0  0  0  0  0  0
  -24.5620  -11.0600   20.7400 C   0  0  0  0  0  0  0  0  0  0  0  0
  -24.9250  -10.1000   21.7080 C   0  0  0  0  0  3  0  0  0  0  0  0
  -24.1460   -8.9350   21.8890 C   0  0  0  0  0  3  0  0  0  0  0  0
  -22.9910   -8.7250   21.1000 C   0  0  0  0  0  0  0  0  0  0  0  0
  -22.6490   -9.6730   20.1190 C   0  0  0  0  0  3  0  0  0  0  0  0
  -23.4270  -10.8280   19.9380 C   0  0  0  0  0  3  0  0  0  0  0  0
  -22.1890   -7.6120   21.1870 O   0  0  0  0  0  0  0  0  0  0  0  0
  -21.9850   -6.9650   22.3790 C   0  0  0  0  0  0  0  0  0  0  0  0
  -21.4120   -7.6170   23.4930 C   0  0  0  0  0  3  0  0  0  0  0  0
  -21.1550   -6.8950   24.6750 C   0  0  0  0  0  3  0  0  0  0  0  0
  -21.4600   -5.5220   24.7440 C   0  0  0  0  0  0  0  0  0  0  0  0
  -22.0260   -4.8700   23.6330 C   0  0  0  0  0  3  0  0  0  0  0  0
  -22.2840   -5.5890   22.4540 C   0  0  0  0  0  0  0  0  0  0  0  0
  -22.8090   -4.9510   21.3800 F   0  0  0  0  0  0  0  0  0  0  0  0
  -21.2060   -4.8270   25.8770 F   0  0  0  0  0  0  0  0  0  0  0  0
  -23.5950  -14.1990   20.9830 C   0  0  0  0  0  0  0  0  0  0  0  0
  -22.8800  -13.5220   21.8740 N   0  0  0  0  0  0  0  0  0  0  0  0
  -23.1830  -15.2540   20.5020 O   0  0  0  0  0  0  0  0  0  0  0  0
  -23.2290  -12.6660   22.2790 H   0  0  0  0  0  0  0  0  0  0  0  0
  -21.9720  -13.8640   22.1550 H   0  0  0  0  0  0  0  0  0  0  0  0
  -26.2620  -15.7540   20.0740 N   0  0  0  0  0  0  0  0  0  0  0  0
  -25.5350  -16.4430   20.2300 H   0  0  0  0  0  0  0  0  0  0  0  0
  -27.1060  -16.1540   19.6840 H   0  0  0  0  0  0  0  0  0  0  0  0
  1  3  1  0
  1  4  1  0
  2  6  1  0
  2  1  2  0
  5  4  2  0
  6  5  1  0
  7  8  1  0
  7  2  1  0
  9 10  1  0
  9  8  2  0
 10 12  1  0
 11 22  2  0
 12 17  1  0
 13 21  1  0
 13 23  1  0
 14 20  1  0
 14 16  1  0
 15 21  1  0
 16 15  1  0
 17 16  2  0
 18 19  1  0
 18 12  2  0
 19 14  2  0
 20 13  1  0
 21 11  1  0
 23 25  2  0
 24 23  1  0
 26 24  1  0
 27 36  2  0
 27 32  1  0
 28 24  1  0
 28 32  1  0
 29 28  1  0
 30 31  1  0
 30 29  1  0
 31 27  1  0
 32 33  2  0
 33 34  1  0
 35 34  2  0
 36 35  1  0
 37 11  1  0
 37 38  1  0
 37 47  1  0
 38 41  1  0
 39 43  1  0
 39 38  1  0
 40 39  2  0
 43 42  1  0
 45 43  1  0
 45 46  1  0
 45 44  1  0
 47 50  1  1
 47 48  1  0
 49 47  1  0
 51 52  1  0
 51  6  1  0
 52 61  1  0
 53 59  1  0
 53 61  1  0
 54 59  1  0
 55 56  1  0
 55 54  1  0
 57 56  1  0
 57 66  1  0
 57 58  1  0
 59 58  1  0
 60 53  2  0
 61 62  1  0
 63 64  2  0
 64 83  1  0
 65 64  1  0
 65 68  1  0
 66 67  1  0
 66 63  1  0
 67 65  2  0
 68 69  1  0
 69 70  2  0
 71 74  1  0
 71 70  1  0
 72 71  2  0
 73 72  1  0
 73 68  2  0
 74 75  1  0
 75 80  2  0
 75 76  1  0
 76 77  2  0
 77 78  1  0
 78 82  1  0
 79 78  2  0
 80 79  1  0
 81 80  1  0
 83 84  1  0
 84 87  1  0
 84 86  1  0
 85 83  2  0
 88 63  1  0
 88 89  1  0
 90 88  1  0
M  ISO  4   9 101  10 101  53 100  61 100
M  END
>  <TORSDO>  (50) 
F 21

>  <SCORE>  (50) 
-10.736

>  <name>  (50) 
49

>  <ligand_id>  (50) 
49

>  <original_smiles>  (50) 
[H]c1c([H])c([H])c2c(c1[H])C([H])([H])C([H])([H])C([H])([H])C2([H])N([H])C(=O)C1([H])N(C(=O)C([H])(N([H])C(=O)C([H])(N([H])C([H])([H])[H])C([H])([H])[H])C(C([H])([H])[H])(C([H])([H])[H])C([H])([H])[H])C([H])([H])c2c([H])c(OC([H])([H])C([H])([H])C([H])([H])c3c(C([H])([H])[H])nnn3C([H])([H])C([H])([H])N([H])C(=O)N3C([H])([H])C([H])([H])C([H])([H])C([H])(n4nc(-c5c([H])c([H])c(Oc6c([H])c([H])c(F)c([H])c6F)c([H])c5[H])c(C(=O)N([H])[H])c4N([H])[H])C3([H])[H])c([H])c([H])c2C1([H])[H]

>  <smiles>  (50) 
[H]c1c([H])c([H])c2c(c1[H])C([H])([H])C([H])([H])C([H])([H])C2([H])N([H])C(=O)C1([H])N(C(=O)C([H])(N([H])C(=O)C([H])(N([H])C([H])([H])[H])C([H])([H])[H])C(C([H])([H])[H])(C([H])([H])[H])C([H])([H])[H])C([H])([H])c2c([H])c(OC([H])([H])C([H])([H])C([H])([H])c3c(C([H])([H])[H])nnn3C([H])([H])C([H])([H])N([H])C(=O)N3C([H])([H])C([H])([H])C([H])([H])C([H])(n4nc(-c5c([H])c([H])c(Oc6c([H])c([H])c(F)c([H])c6F)c([H])c5[H])c(C(=O)N([H])[H])c4N([H])[H])C3([H])[H])c([H])c([H])c2C1([H])[H]

$$$$
50:0:0
     RDKit          3D

 94102  0  0  1  0  0  0  0  0999 V2000
  -27.7300  -21.9730   19.7670 C   0  0  0  0  0  3  0  0  0  0  0  0
  -28.9180  -21.3690   20.2310 C   0  0  0  0  0  0  0  0  0  0  0  0
  -26.7590  -21.2140   19.0850 C   0  0  0  0  0  0  0  0  0  0  0  0
  -29.0220  -19.9120   19.9880 C   0  0  0  0  0  0  0  0  0  0  0  0
  -26.9140  -19.8800   18.9190 N   0  0  0  0  0  0  0  0  0  0  0  0
  -28.0100  -19.2610   19.3570 N   0  0  0  0  0  0  0  0  0  0  0  0
  -25.5080  -21.4440   16.9160 C   0  0  0  0  0  1  0  0  0  0  0  0
  -25.5480  -23.3960   18.4540 C   0  0  0  0  0  1  0  0  0  0  0  0
  -24.2300  -21.3850   19.0900 C   0  0  0  0  0  1  0  0  0  0  0  0
  -25.5290  -21.8500   18.4040 C   0  0  2  0  0  0  0  0  0  0  0  0
  -29.9540  -22.4090   20.8180 C   0  0  0  0  0  2  0  0  0  0  0  0
  -29.5120  -23.9160   21.3030 C   0  0  0  0  0  3  0  0  0  0  0  0
  -28.9770  -25.1110   20.3440 C   0  0  0  0  0  3  0  0  0  0  0  0
  -28.9920  -26.5550   20.7920 O   0  0  0  0  0  0  0  0  0  0  0  0
  -24.8390  -31.9420   23.3770 C   0  0  0  0  0  0  0  0  0  0  0  0
  -27.8520  -27.3850   20.6290 C   0  0  0  0  0  0  0  0  0  0  0  0
  -23.8100  -30.4320   21.7200 C   0  0  0  0  0  3  0  0  0  0  0  0
  -25.4190  -28.9120   20.4280 C   0  0  0  0  0  0  0  0  0  0  0  0
  -26.3400  -30.8620   21.6780 C   0  0  0  0  0  2  0  0  0  0  0  0
  -26.5260  -29.4650   21.0810 C   0  0  0  0  0  0  0  0  0  0  0  0
  -27.7430  -28.7130   21.1740 C   0  0  0  0  0  3  0  0  0  0  0  0
  -26.7190  -26.9090   19.9300 C   0  0  0  0  0  3  0  0  0  0  0  0
  -25.5200  -27.6430   19.8420 C   0  0  0  0  0  3  0  0  0  0  0  0
  -24.1390  -29.7280   20.3760 C   0  0  0  0  0  2  0  0  0  0  0  0
  -25.0110  -31.1010   22.3150 N   0  0  0  0  0  0  0  0  0  0  0  0
  -23.7120  -32.1790   23.8380 O   0  0  0  0  0  0  0  0  0  0  0  0
  -23.1400  -29.4130   22.6750 C   0  0  0  0  0  0  0  0  0  0  0  0
  -21.8390  -29.1490   22.4690 N   0  0  0  0  0  0  0  0  0  0  0  0
  -23.7960  -28.8610   23.5610 O   0  0  0  0  0  0  0  0  0  0  0  0
  -21.3650  -29.6510   21.7310 H   0  0  0  0  0  0  0  0  0  0  0  0
  -18.4980  -27.8100   22.8400 C   0  0  0  0  0  0  0  0  0  0  0  0
  -21.0270  -28.1920   23.2220 C   0  0  0  0  0  3  0  0  0  0  0  0
  -21.2210  -26.7540   22.6870 C   0  0  0  0  0  2  0  0  0  0  0  0
  -20.1850  -26.3610   21.6290 C   0  0  0  0  0  2  0  0  0  0  0  0
  -18.7680  -26.4570   22.2030 C   0  0  0  0  0  2  0  0  0  0  0  0
  -19.5590  -28.6310   23.3040 C   0  0  0  0  0  0  0  0  0  0  0  0
  -19.2560  -29.8950   23.8570 C   0  0  0  0  0  3  0  0  0  0  0  0
  -17.9250  -30.3390   23.9510 C   0  0  0  0  0  3  0  0  0  0  0  0
  -16.8760  -29.5170   23.5040 C   0  0  0  0  0  3  0  0  0  0  0  0
  -17.1640  -28.2540   22.9540 C   0  0  0  0  0  3  0  0  0  0  0  0
  -26.0480  -32.6620   24.0500 C   0  0  0  0  0  3  0  0  0  0  0  0
  -25.6650  -34.0640   24.2750 N   0  0  0  0  0  0  0  0  0  0  0  0
  -25.9740  -35.0800   23.4570 C   0  0  0  0  0  0  0  0  0  0  0  0
  -26.6790  -34.9400   22.4550 O   0  0  0  0  0  0  0  0  0  0  0  0
  -25.0440  -34.2460   25.0490 H   0  0  0  0  0  0  0  0  0  0  0  0
  -24.1560  -36.7460   22.9610 C   0  0  0  0  0  1  0  0  0  0  0  0
  -25.4090  -36.4700   23.8070 C   0  0  0  0  0  3  0  0  0  0  0  0
  -27.4880  -37.5250   24.5750 C   0  0  0  0  0  1  0  0  0  0  0  0
  -26.3840  -37.5660   23.6200 N   0  0  0  0  0  0  0  0  0  0  0  0
  -25.9280  -38.4710   23.7010 H   0  0  0  0  0  0  0  0  0  0  0  0
  -26.4950  -31.9890   25.4060 C   0  0  1  0  0  0  0  0  0  0  0  0
  -25.3270  -31.7140   26.3790 C   0  0  0  0  0  1  0  0  0  0  0  0
  -27.2100  -30.6440   25.1380 C   0  0  0  0  0  1  0  0  0  0  0  0
  -27.5180  -32.8960   26.1290 C   0  0  0  0  0  1  0  0  0  0  0  0
  -30.2260  -18.9010   20.1560 C   0  0  0  0  0  2  0  0  0  0  0  0
  -30.1440  -17.6220   21.1740 C   0  0  0  0  0  2  0  0  0  0  0  0
  -30.5140  -15.0840   20.4900 C   0  0  0  0  0  0  0  0  0  0  0  0
  -30.3570  -12.8770   19.3190 C   0  0  0  0  0  2  0  0  0  0  0  0
  -29.4160  -12.9950   18.1010 C   0  0  0  0  0  2  0  0  0  0  0  0
  -27.9490  -12.7690   18.5210 C   0  0  0  0  0  2  0  0  0  0  0  0
  -27.5560  -13.5740   19.7870 C   0  0  0  0  0  3  0  0  0  0  0  0
  -28.6170  -13.4400   20.8990 C   0  0  0  0  0  2  0  0  0  0  0  0
  -29.9000  -13.8620   20.3250 N   0  0  0  0  0  0  0  0  0  0  0  0
  -31.7100  -15.2100   20.2170 O   0  0  0  0  0  0  0  0  0  0  0  0
  -29.7320  -16.1960   20.7770 N   0  0  0  0  0  0  0  0  0  0  0  0
  -28.7470  -15.9970   20.8790 H   0  0  0  0  0  0  0  0  0  0  0  0
  -25.1410  -14.0660   20.4970 C   0  0  0  0  0  0  0  0  0  0  0  0
  -24.0990  -13.2480   20.8350 C   0  0  0  0  0  0  0  0  0  0  0  0
  -24.6100  -11.9150   20.7860 C   0  0  0  0  0  0  0  0  0  0  0  0
  -26.2180  -13.2290   20.2580 N   0  0  0  0  0  0  0  0  0  0  0  0
  -25.9060  -11.9280   20.4970 N   0  0  0  0  0  0  0  0  0  0  0  0
  -23.9260  -10.6240   20.9410 C   0  0  0  0  0  0  0  0  0  0  0  0
  -24.3700   -9.6600   21.8700 C   0  0  0  0  0  3  0  0  0  0  0  0
  -23.6830   -8.4350   22.0150 C   0  0  0  0  0  3  0  0  0  0  0  0
  -22.5370   -8.1660   21.2290 C   0  0  0  0  0  0  0  0  0  0  0  0
  -22.1120   -9.1210   20.2880 C   0  0  0  0  0  3  0  0  0  0  0  0
  -22.8000  -10.3370   20.1420 C   0  0  0  0  0  3  0  0  0  0  0  0
  -21.8230   -6.9950   21.2820 O   0  0  0  0  0  0  0  0  0  0  0  0
  -21.7550   -6.2440   22.4270 C   0  0  0  0  0  0  0  0  0  0  0  0
  -21.2720   -6.7800   23.6410 C   0  0  0  0  0  3  0  0  0  0  0  0
  -21.1550   -5.9540   24.7770 C   0  0  0  0  0  3  0  0  0  0  0  0
  -21.5090   -4.5940   24.7000 C   0  0  0  0  0  0  0  0  0  0  0  0
  -21.9850   -4.0580   23.4910 C   0  0  0  0  0  3  0  0  0  0  0  0
  -22.1040   -4.8800   22.3570 C   0  0  0  0  0  0  0  0  0  0  0  0
  -22.5430   -4.3540   21.1880 F   0  0  0  0  0  0  0  0  0  0  0  0
  -21.3890   -3.7990   25.7890 F   0  0  0  0  0  0  0  0  0  0  0  0
  -22.6820  -13.6710   21.0920 C   0  0  0  0  0  0  0  0  0  0  0  0
  -21.9730  -12.9460   21.9490 N   0  0  0  0  0  0  0  0  0  0  0  0
  -22.2110  -14.6800   20.5690 O   0  0  0  0  0  0  0  0  0  0  0  0
  -22.3670  -12.1290   22.3920 H   0  0  0  0  0  0  0  0  0  0  0  0
  -21.0230  -13.2110   22.1640 H   0  0  0  0  0  0  0  0  0  0  0  0
  -25.2590  -15.4460   20.3530 N   0  0  0  0  0  0  0  0  0  0  0  0
  -24.4760  -16.0730   20.5030 H   0  0  0  0  0  0  0  0  0  0  0  0
  -26.1030  -15.9370   20.0850 H   0  0  0  0  0  0  0  0  0  0  0  0
  1  2  1  0
  2 11  1  0
  3  1  2  0
  4 55  1  0
  4  2  2  0
  5  3  1  0
  5  6  2  0
  6  4  1  0
 10  7  1  6
 10  8  1  0
 10  3  1  0
 10  9  1  0
 11 12  1  0
 13 14  1  0
 13 12  2  0
 15 26  2  0
 16 14  1  0
 16 21  1  0
 17 25  1  0
 17 27  1  0
 18 20  1  0
 19 25  1  0
 20 21  2  0
 20 19  1  0
 22 16  2  0
 23 22  1  0
 23 18  2  0
 24 18  1  0
 24 17  1  0
 25 15  1  0
 27 29  2  0
 28 27  1  0
 30 28  1  0
 31 40  2  0
 31 36  1  0
 32 28  1  0
 32 36  1  0
 33 32  1  0
 34 35  1  0
 34 33  1  0
 35 31  1  0
 36 37  2  0
 37 38  1  0
 39 38  2  0
 40 39  1  0
 41 15  1  0
 41 42  1  0
 41 51  1  0
 42 45  1  0
 43 47  1  0
 43 42  1  0
 44 43  2  0
 47 46  1  0
 49 50  1  0
 49 47  1  0
 49 48  1  0
 51 54  1  1
 51 52  1  0
 53 51  1  0
 55 56  1  0
 57 65  1  0
 58 63  1  0
 59 60  1  0
 59 58  1  0
 61 60  1  0
 61 70  1  0
 61 62  1  0
 63 57  1  0
 63 62  1  0
 64 57  2  0
 65 66  1  0
 65 56  1  0
 67 68  2  0
 68 87  1  0
 69 68  1  0
 69 72  1  0
 70 71  1  0
 70 67  1  0
 71 69  2  0
 72 73  1  0
 73 74  2  0
 75 78  1  0
 75 74  1  0
 76 75  2  0
 77 76  1  0
 77 72  2  0
 78 79  1  0
 79 80  1  0
 80 81  2  0
 82 81  1  0
 82 86  1  0
 83 82  2  0
 84 79  2  0
 84 83  1  0
 85 84  1  0
 87 88  1  0
 88 91  1  0
 88 90  1  0
 89 87  2  0
 92 67  1  0
 92 93  1  0
 94 92  1  0
M  ISO  4  13 101  14 101  57 100  65 100
M  END
>  <TORSDO>  (51) 
F 22

>  <SCORE>  (51) 
-12.014

>  <name>  (51) 
50

>  <ligand_id>  (51) 
50

>  <original_smiles>  (51) 
[H]c1c([H])c([H])c2c(c1[H])C([H])([H])C([H])([H])C([H])([H])C2([H])N([H])C(=O)C1([H])N(C(=O)C([H])(N([H])C(=O)C([H])(N([H])C([H])([H])[H])C([H])([H])[H])C(C([H])([H])[H])(C([H])([H])[H])C([H])([H])[H])C([H])([H])c2c([H])c(OC([H])([H])C([H])([H])C([H])([H])c3c(C([H])([H])C([H])([H])N([H])C(=O)N4C([H])([H])C([H])([H])C([H])([H])C([H])(n5nc(-c6c([H])c([H])c(Oc7c([H])c([H])c(F)c([H])c7F)c([H])c6[H])c(C(=O)N([H])[H])c5N([H])[H])C4([H])[H])nnc(C(C([H])([H])[H])(C([H])([H])[H])C([H])([H])[H])c3[H])c([H])c([H])c2C1([H])[H]

>  <smiles>  (51) 
[H]c1c([H])c([H])c2c(c1[H])C([H])([H])C([H])([H])C([H])([H])C2([H])N([H])C(=O)C1([H])N(C(=O)C([H])(N([H])C(=O)C([H])(N([H])C([H])([H])[H])C([H])([H])[H])C(C([H])([H])[H])(C([H])([H])[H])C([H])([H])[H])C([H])([H])c2c([H])c(OC([H])([H])C([H])([H])C([H])([H])c3c(C([H])([H])C([H])([H])N([H])C(=O)N4C([H])([H])C([H])([H])C([H])([H])C([H])(n5nc(-c6c([H])c([H])c(Oc7c([H])c([H])c(F)c([H])c7F)c([H])c6[H])c(C(=O)N([H])[H])c5N([H])[H])C4([H])[H])nnc(C(C([H])([H])[H])(C([H])([H])[H])C([H])([H])[H])c3[H])c([H])c([H])c2C1([H])[H]

$$$$
51:0:0
     RDKit          3D

 95103  0  0  1  0  0  0  0  0999 V2000
  -31.3650  -18.2970   19.2740 C   0  0  0  0  0  3  0  0  0  0  0  0
  -30.8080  -20.4520   19.1930 C   0  0  0  0  0  3  0  0  0  0  0  0
  -31.7030  -19.5500   18.6900 C   0  0  0  0  0  0  0  0  0  0  0  0
  -30.3260  -18.4380   20.1510 C   0  0  0  0  0  0  0  0  0  0  0  0
  -29.9520  -19.8470   20.0970 N   0  0  0  0  0  0  0  0  0  0  0  0
  -32.7200  -18.8640   16.5110 C   0  0  0  0  0  1  0  0  0  0  0  0
  -34.1810  -19.5480   18.4370 C   0  0  0  0  0  1  0  0  0  0  0  0
  -32.8330  -21.2650   17.2170 C   0  0  0  0  0  1  0  0  0  0  0  0
  -32.8450  -19.8080   17.7190 C   0  0  2  0  0  0  0  0  0  0  0  0
  -30.5520  -17.2960   22.4100 C   0  0  0  0  0  1  0  0  0  0  0  0
  -29.8220  -17.2650   21.0600 C   0  0  0  0  0  3  0  0  0  0  0  0
  -30.5820  -14.7290   20.3250 C   0  0  0  0  0  0  0  0  0  0  0  0
  -30.3780  -12.4960   19.2020 C   0  0  0  0  0  2  0  0  0  0  0  0
  -29.4050  -12.6140   18.0070 C   0  0  0  0  0  2  0  0  0  0  0  0
  -27.9410  -12.4420   18.4600 C   0  0  0  0  0  2  0  0  0  0  0  0
  -27.6010  -13.2880   19.7160 C   0  0  0  0  0  3  0  0  0  0  0  0
  -28.6820  -13.1240   20.8060 C   0  0  0  0  0  2  0  0  0  0  0  0
  -29.9670  -13.5030   20.2020 N   0  0  0  0  0  0  0  0  0  0  0  0
  -31.7770  -14.8540   20.0450 O   0  0  0  0  0  0  0  0  0  0  0  0
  -29.7430  -15.8060   20.5810 N   0  0  0  0  0  0  0  0  0  0  0  0
  -28.7900  -15.4820   20.6140 H   0  0  0  0  0  0  0  0  0  0  0  0
  -25.2250  -13.8960   20.4740 C   0  0  0  0  0  0  0  0  0  0  0  0
  -24.1600  -13.1280   20.8580 C   0  0  0  0  0  0  0  0  0  0  0  0
  -24.6160  -11.7740   20.8230 C   0  0  0  0  0  0  0  0  0  0  0  0
  -26.2610  -13.0090   20.2240 N   0  0  0  0  0  0  0  0  0  0  0  0
  -25.9040  -11.7290   20.4990 N   0  0  0  0  0  0  0  0  0  0  0  0
  -23.8870  -10.5160   21.0210 C   0  0  0  0  0  0  0  0  0  0  0  0
  -24.3140   -9.5540   21.9630 C   0  0  0  0  0  3  0  0  0  0  0  0
  -23.5850   -8.3600   22.1470 C   0  0  0  0  0  3  0  0  0  0  0  0
  -22.4140   -8.1200   21.3910 C   0  0  0  0  0  0  0  0  0  0  0  0
  -22.0050   -9.0700   20.4370 C   0  0  0  0  0  3  0  0  0  0  0  0
  -22.7350  -10.2550   20.2510 C   0  0  0  0  0  3  0  0  0  0  0  0
  -21.6540   -6.9780   21.4850 O   0  0  0  0  0  0  0  0  0  0  0  0
  -21.5920   -6.2490   22.6460 C   0  0  0  0  0  0  0  0  0  0  0  0
  -21.1440   -6.8160   23.8590 C   0  0  0  0  0  3  0  0  0  0  0  0
  -21.0310   -6.0130   25.0120 C   0  0  0  0  0  3  0  0  0  0  0  0
  -21.3550   -4.6440   24.9500 C   0  0  0  0  0  0  0  0  0  0  0  0
  -21.7950   -4.0770   23.7410 C   0  0  0  0  0  3  0  0  0  0  0  0
  -21.9110   -4.8770   22.5920 C   0  0  0  0  0  0  0  0  0  0  0  0
  -22.3160   -4.3210   21.4250 F   0  0  0  0  0  0  0  0  0  0  0  0
  -21.2370   -3.8710   26.0540 F   0  0  0  0  0  0  0  0  0  0  0  0
  -22.7690  -13.6110   21.1420 C   0  0  0  0  0  0  0  0  0  0  0  0
  -22.0420  -12.9180   22.0110 N   0  0  0  0  0  0  0  0  0  0  0  0
  -22.3320  -14.6400   20.6260 O   0  0  0  0  0  0  0  0  0  0  0  0
  -22.4070  -12.0860   22.4520 H   0  0  0  0  0  0  0  0  0  0  0  0
  -21.1080  -13.2250   22.2410 H   0  0  0  0  0  0  0  0  0  0  0  0
  -25.3910  -15.2660   20.2920 N   0  0  0  0  0  0  0  0  0  0  0  0
  -24.6150  -15.9110   20.4010 H   0  0  0  0  0  0  0  0  0  0  0  0
  -26.2120  -15.7030   19.8940 H   0  0  0  0  0  0  0  0  0  0  0  0
  -28.8510  -20.6840   20.7220 C   0  0  0  0  0  2  0  0  0  0  0  0
  -29.0560  -22.2690   21.1000 C   0  0  0  0  0  2  0  0  0  0  0  0
  -27.6280  -23.2530   19.1480 C   0  0  0  0  0  1  0  0  0  0  0  0
  -28.7050  -23.5840   20.1910 C   0  0  0  0  0  3  0  0  0  0  0  0
  -28.2890  -24.9640   20.9670 C   0  0  0  0  0  2  0  0  0  0  0  0
  -28.4220  -26.3540   20.4030 O   0  0  0  0  0  0  0  0  0  0  0  0
  -24.6020  -31.8630   23.2610 C   0  0  0  0  0  0  0  0  0  0  0  0
  -27.3050  -27.2200   20.3750 C   0  0  0  0  0  0  0  0  0  0  0  0
  -23.4480  -30.4300   21.6160 C   0  0  0  0  0  3  0  0  0  0  0  0
  -24.9420  -28.8490   20.2620 C   0  0  0  0  0  0  0  0  0  0  0  0
  -25.9930  -30.7470   21.4930 C   0  0  0  0  0  2  0  0  0  0  0  0
  -26.0960  -29.3510   20.8780 C   0  0  0  0  0  0  0  0  0  0  0  0
  -27.2850  -28.5510   20.9140 C   0  0  0  0  0  3  0  0  0  0  0  0
  -26.1260  -26.7760   19.7440 C   0  0  0  0  0  3  0  0  0  0  0  0
  -24.9610  -27.5690   19.6840 C   0  0  0  0  0  3  0  0  0  0  0  0
  -23.7040  -29.7260   20.2550 C   0  0  0  0  0  2  0  0  0  0  0  0
  -24.6980  -31.0330   22.1810 N   0  0  0  0  0  0  0  0  0  0  0  0
  -23.5030  -32.1460   23.7620 O   0  0  0  0  0  0  0  0  0  0  0  0
  -22.7620  -29.4320   22.5790 C   0  0  0  0  0  0  0  0  0  0  0  0
  -21.4360  -29.2590   22.4330 N   0  0  0  0  0  0  0  0  0  0  0  0
  -23.4210  -28.8140   23.4190 O   0  0  0  0  0  0  0  0  0  0  0  0
  -20.9620  -29.8100   21.7320 H   0  0  0  0  0  0  0  0  0  0  0  0
  -18.0430  -28.0890   22.8950 C   0  0  0  0  0  0  0  0  0  0  0  0
  -20.5990  -28.3350   23.2000 C   0  0  0  0  0  3  0  0  0  0  0  0
  -20.6990  -26.8960   22.6400 C   0  0  0  0  0  2  0  0  0  0  0  0
  -19.6100  -26.5710   21.6130 C   0  0  0  0  0  2  0  0  0  0  0  0
  -18.2200  -26.7320   22.2350 C   0  0  0  0  0  2  0  0  0  0  0  0
  -19.1590  -28.8480   23.3340 C   0  0  0  0  0  0  0  0  0  0  0  0
  -18.9390  -30.1190   23.9110 C   0  0  0  0  0  3  0  0  0  0  0  0
  -17.6350  -30.6270   24.0560 C   0  0  0  0  0  3  0  0  0  0  0  0
  -16.5320  -29.8650   23.6330 C   0  0  0  0  0  3  0  0  0  0  0  0
  -16.7370  -28.5990   23.0570 C   0  0  0  0  0  3  0  0  0  0  0  0
  -25.8640  -32.5160   23.9060 C   0  0  0  0  0  3  0  0  0  0  0  0
  -25.5390  -33.9190   24.2040 N   0  0  0  0  0  0  0  0  0  0  0  0
  -25.8900  -34.9610   23.4380 C   0  0  0  0  0  0  0  0  0  0  0  0
  -26.5890  -34.8440   22.4280 O   0  0  0  0  0  0  0  0  0  0  0  0
  -24.9250  -34.0840   24.9880 H   0  0  0  0  0  0  0  0  0  0  0  0
  -24.1750  -36.7490   23.0040 C   0  0  0  0  0  1  0  0  0  0  0  0
  -25.3890  -36.3550   23.8610 C   0  0  0  0  0  3  0  0  0  0  0  0
  -27.4920  -37.2570   24.7530 C   0  0  0  0  0  1  0  0  0  0  0  0
  -26.4240  -37.4080   23.7680 N   0  0  0  0  0  0  0  0  0  0  0  0
  -26.0120  -38.3290   23.8880 H   0  0  0  0  0  0  0  0  0  0  0  0
  -26.3480  -31.7710   25.2110 C   0  0  1  0  0  0  0  0  0  0  0  0
  -25.2270  -31.5490   26.2520 C   0  0  0  0  0  1  0  0  0  0  0  0
  -26.9470  -30.3880   24.8610 C   0  0  0  0  0  1  0  0  0  0  0  0
  -27.4770  -32.5820   25.8880 C   0  0  0  0  0  1  0  0  0  0  0  0
  1  4  2  0
  2  5  1  0
  3  2  2  0
  3  1  1  0
  4 11  1  0
  5  4  1  0
  5 50  1  0
  9  6  1  6
  8  9  1  0
  9  7  1  0
  9  3  1  0
 11 10  1  0
 12 20  1  0
 13 18  1  0
 14 15  1  0
 14 13  1  0
 16 15  1  0
 16 25  1  0
 16 17  1  0
 18 12  1  0
 18 17  1  0
 19 12  2  0
 20 21  1  0
 20 11  1  0
 22 23  2  0
 23 42  1  0
 24 23  1  0
 24 27  1  0
 25 22  1  0
 25 26  1  0
 26 24  2  0
 27 28  1  0
 28 29  2  0
 30 33  1  0
 30 29  1  0
 31 30  2  0
 32 31  1  0
 32 27  2  0
 33 34  1  0
 34 35  1  0
 35 36  2  0
 37 36  1  0
 37 41  1  0
 38 37  2  0
 39 34  2  0
 39 38  1  0
 40 39  1  0
 42 43  1  0
 43 46  1  0
 43 45  1  0
 44 42  2  0
 47 48  1  0
 47 22  1  0
 49 47  1  0
 50 51  1  0
 53 52  1  0
 53 54  1  0
 53 51  1  0
 55 54  1  0
 56 67  2  0
 57 55  1  0
 57 62  1  0
 58 66  1  0
 58 68  1  0
 59 61  1  0
 60 66  1  0
 61 62  2  0
 61 60  1  0
 63 57  2  0
 64 63  1  0
 64 59  2  0
 65 59  1  0
 65 58  1  0
 66 56  1  0
 68 70  2  0
 69 68  1  0
 71 69  1  0
 72 81  2  0
 72 77  1  0
 73 69  1  0
 73 77  1  0
 74 73  1  0
 75 76  1  0
 75 74  1  0
 76 72  1  0
 77 78  2  0
 78 79  1  0
 80 79  2  0
 81 80  1  0
 82 56  1  0
 82 83  1  0
 82 92  1  0
 83 86  1  0
 84 88  1  0
 84 83  1  0
 85 84  2  0
 88 87  1  0
 90 88  1  0
 90 91  1  0
 90 89  1  0
 92 95  1  1
 92 93  1  0
 94 92  1  0
M  ISO  4  12 100  20 100  54 101  55 101
M  END
>  <TORSDO>  (52) 
F 22

>  <SCORE>  (52) 
-13.371

>  <name>  (52) 
51

>  <ligand_id>  (52) 
51

>  <original_smiles>  (52) 
[H]c1c([H])c([H])c2c(c1[H])C([H])([H])C([H])([H])C([H])([H])C2([H])N([H])C(=O)C1([H])N(C(=O)C([H])(N([H])C(=O)C([H])(N([H])C([H])([H])[H])C([H])([H])[H])C(C([H])([H])[H])(C([H])([H])[H])C([H])([H])[H])C([H])([H])c2c([H])c(OC([H])([H])C([H])(C([H])([H])[H])C([H])([H])C([H])([H])n3c([H])c(C(C([H])([H])[H])(C([H])([H])[H])C([H])([H])[H])c([H])c3C([H])(N([H])C(=O)N3C([H])([H])C([H])([H])C([H])([H])C([H])(n4nc(-c5c([H])c([H])c(Oc6c([H])c([H])c(F)c([H])c6F)c([H])c5[H])c(C(=O)N([H])[H])c4N([H])[H])C3([H])[H])C([H])([H])[H])c([H])c([H])c2C1([H])[H]

>  <smiles>  (52) 
[H]c1c([H])c([H])c2c(c1[H])C([H])([H])C([H])([H])C([H])([H])C2([H])N([H])C(=O)C1([H])N(C(=O)C([H])(N([H])C(=O)C([H])(N([H])C([H])([H])[H])C([H])([H])[H])C(C([H])([H])[H])(C([H])([H])[H])C([H])([H])[H])C([H])([H])c2c([H])c(OC([H])([H])C([H])(C([H])([H])[H])C([H])([H])C([H])([H])n3c([H])c(C(C([H])([H])[H])(C([H])([H])[H])C([H])([H])[H])c([H])c3C([H])(N([H])C(=O)N3C([H])([H])C([H])([H])C([H])([H])C([H])(n4nc(-c5c([H])c([H])c(Oc6c([H])c([H])c(F)c([H])c6F)c([H])c5[H])c(C(=O)N([H])[H])c4N([H])[H])C3([H])[H])C([H])([H])[H])c([H])c([H])c2C1([H])[H]

$$$$
52:0:0
     RDKit          3D

 95103  0  0  1  0  0  0  0  0999 V2000
  -29.2770  -20.1710   20.6580 C   0  0  0  0  0  3  0  0  0  0  0  0
  -29.3380  -21.3570   18.7930 C   0  0  0  0  0  3  0  0  0  0  0  0
  -29.0420  -21.4800   20.1170 C   0  0  0  0  0  0  0  0  0  0  0  0
  -29.6550  -19.2890   19.6630 C   0  0  0  0  0  0  0  0  0  0  0  0
  -29.7250  -20.0520   18.4760 N   0  0  0  0  0  0  0  0  0  0  0  0
  -28.6130  -19.3570   16.4040 C   0  0  0  0  0  1  0  0  0  0  0  0
  -30.8700  -18.3940   16.8850 C   0  0  0  0  0  1  0  0  0  0  0  0
  -30.6880  -20.7750   16.2890 C   0  0  0  0  0  1  0  0  0  0  0  0
  -29.9750  -19.6390   17.0640 C   0  0  2  0  0  0  0  0  0  0  0  0
  -26.9760  -22.5290   21.0480 C   0  0  0  0  0  1  0  0  0  0  0  0
  -28.4870  -22.7320   20.8340 C   0  0  0  0  0  3  0  0  0  0  0  0
  -28.7820  -24.1190   20.1360 C   0  0  0  0  0  3  0  0  0  0  0  0
  -28.3700  -25.4000   20.9480 C   0  0  0  0  0  3  0  0  0  0  0  0
  -28.5010  -26.6900   20.2810 O   0  0  0  0  0  0  0  0  0  0  0  0
  -24.6310  -31.9370   23.2570 C   0  0  0  0  0  0  0  0  0  0  0  0
  -27.3550  -27.4690   20.2480 C   0  0  0  0  0  0  0  0  0  0  0  0
  -23.4640  -30.5120   21.6050 C   0  0  0  0  0  3  0  0  0  0  0  0
  -24.9530  -28.9790   20.2100 C   0  0  0  0  0  0  0  0  0  0  0  0
  -25.9940  -30.8930   21.4430 C   0  0  0  0  0  2  0  0  0  0  0  0
  -26.1030  -29.5160   20.8030 C   0  0  0  0  0  0  0  0  0  0  0  0
  -27.3130  -28.7730   20.8050 C   0  0  0  0  0  3  0  0  0  0  0  0
  -26.1860  -26.9560   19.6460 C   0  0  0  0  0  3  0  0  0  0  0  0
  -24.9910  -27.7000   19.6280 C   0  0  0  0  0  3  0  0  0  0  0  0
  -23.7010  -29.8300   20.2310 C   0  0  0  0  0  2  0  0  0  0  0  0
  -24.7130  -31.1300   22.1590 N   0  0  0  0  0  0  0  0  0  0  0  0
  -23.5370  -32.1970   23.7810 O   0  0  0  0  0  0  0  0  0  0  0  0
  -22.8060  -29.4920   22.5630 C   0  0  0  0  0  0  0  0  0  0  0  0
  -21.4830  -29.3020   22.4260 N   0  0  0  0  0  0  0  0  0  0  0  0
  -23.4860  -28.8710   23.3860 O   0  0  0  0  0  0  0  0  0  0  0  0
  -20.9940  -29.8600   21.7400 H   0  0  0  0  0  0  0  0  0  0  0  0
  -18.1070  -28.1020   22.9130 C   0  0  0  0  0  0  0  0  0  0  0  0
  -20.6640  -28.3600   23.1900 C   0  0  0  0  0  3  0  0  0  0  0  0
  -20.7650  -26.9310   22.6090 C   0  0  0  0  0  2  0  0  0  0  0  0
  -19.6660  -26.6130   21.5900 C   0  0  0  0  0  2  0  0  0  0  0  0
  -18.2830  -26.7540   22.2340 C   0  0  0  0  0  2  0  0  0  0  0  0
  -19.2250  -28.8630   23.3470 C   0  0  0  0  0  0  0  0  0  0  0  0
  -19.0050  -30.1240   23.9410 C   0  0  0  0  0  3  0  0  0  0  0  0
  -17.7000  -30.6250   24.1070 C   0  0  0  0  0  3  0  0  0  0  0  0
  -16.5960  -29.8610   23.6880 C   0  0  0  0  0  3  0  0  0  0  0  0
  -16.8000  -28.6020   23.0980 C   0  0  0  0  0  3  0  0  0  0  0  0
  -25.9000  -32.5870   23.8930 C   0  0  0  0  0  3  0  0  0  0  0  0
  -25.5720  -33.9870   24.2000 N   0  0  0  0  0  0  0  0  0  0  0  0
  -25.9100  -35.0330   23.4350 C   0  0  0  0  0  0  0  0  0  0  0  0
  -26.5960  -34.9240   22.4160 O   0  0  0  0  0  0  0  0  0  0  0  0
  -24.9670  -34.1460   24.9930 H   0  0  0  0  0  0  0  0  0  0  0  0
  -24.1770  -36.8080   23.0250 C   0  0  0  0  0  1  0  0  0  0  0  0
  -25.4020  -36.4220   23.8700 C   0  0  0  0  0  3  0  0  0  0  0  0
  -27.5100  -37.3280   24.7420 C   0  0  0  0  0  1  0  0  0  0  0  0
  -26.4290  -37.4820   23.7710 N   0  0  0  0  0  0  0  0  0  0  0  0
  -26.0120  -38.4000   23.9030 H   0  0  0  0  0  0  0  0  0  0  0  0
  -26.4030  -31.8360   25.1840 C   0  0  1  0  0  0  0  0  0  0  0  0
  -25.2980  -31.6020   26.2400 C   0  0  0  0  0  1  0  0  0  0  0  0
  -27.0050  -30.4610   24.8140 C   0  0  0  0  0  1  0  0  0  0  0  0
  -27.5340  -32.6500   25.8560 C   0  0  0  0  0  1  0  0  0  0  0  0
  -29.9050  -17.7730   19.7150 C   0  0  0  0  0  2  0  0  0  0  0  0
  -31.0750  -17.3810   21.9870 C   0  0  0  0  0  1  0  0  0  0  0  0
  -29.8900  -17.0140   21.0780 C   0  0  0  0  0  3  0  0  0  0  0  0
  -30.5320  -14.5850   20.3740 C   0  0  0  0  0  0  0  0  0  0  0  0
  -30.3010  -12.4330   19.1730 C   0  0  0  0  0  2  0  0  0  0  0  0
  -29.3240  -12.6530   17.9950 C   0  0  0  0  0  2  0  0  0  0  0  0
  -27.8590  -12.4780   18.4460 C   0  0  0  0  0  2  0  0  0  0  0  0
  -27.5410  -13.2620   19.7480 C   0  0  0  0  0  3  0  0  0  0  0  0
  -28.6220  -12.9980   20.8190 C   0  0  0  0  0  2  0  0  0  0  0  0
  -29.9250  -13.3700   20.2400 N   0  0  0  0  0  0  0  0  0  0  0  0
  -31.6400  -14.8310   19.8910 O   0  0  0  0  0  0  0  0  0  0  0  0
  -29.7480  -15.5360   20.9420 N   0  0  0  0  0  0  0  0  0  0  0  0
  -28.8690  -15.1720   21.2780 H   0  0  0  0  0  0  0  0  0  0  0  0
  -25.1480  -13.8420   20.4940 C   0  0  0  0  0  0  0  0  0  0  0  0
  -24.0940  -13.0560   20.8780 C   0  0  0  0  0  0  0  0  0  0  0  0
  -24.5700  -11.7090   20.8350 C   0  0  0  0  0  0  0  0  0  0  0  0
  -26.1980  -12.9710   20.2450 N   0  0  0  0  0  0  0  0  0  0  0  0
  -25.8550  -11.6840   20.5060 N   0  0  0  0  0  0  0  0  0  0  0  0
  -23.8620  -10.4370   21.0340 C   0  0  0  0  0  0  0  0  0  0  0  0
  -24.3180   -9.4780   21.9640 C   0  0  0  0  0  3  0  0  0  0  0  0
  -23.6140   -8.2690   22.1500 C   0  0  0  0  0  3  0  0  0  0  0  0
  -22.4390   -8.0110   21.4050 C   0  0  0  0  0  0  0  0  0  0  0  0
  -22.0010   -8.9600   20.4640 C   0  0  0  0  0  3  0  0  0  0  0  0
  -22.7060  -10.1620   20.2770 C   0  0  0  0  0  3  0  0  0  0  0  0
  -21.7030   -6.8570   21.5000 O   0  0  0  0  0  0  0  0  0  0  0  0
  -21.6750   -6.1150   22.6540 C   0  0  0  0  0  0  0  0  0  0  0  0
  -21.2370   -6.6610   23.8800 C   0  0  0  0  0  3  0  0  0  0  0  0
  -21.1570   -5.8440   25.0250 C   0  0  0  0  0  3  0  0  0  0  0  0
  -21.5050   -4.4810   24.9460 C   0  0  0  0  0  0  0  0  0  0  0  0
  -21.9340   -3.9350   23.7240 C   0  0  0  0  0  3  0  0  0  0  0  0
  -22.0150   -4.7490   22.5800 C   0  0  0  0  0  0  0  0  0  0  0  0
  -22.4110   -4.2110   21.4010 F   0  0  0  0  0  0  0  0  0  0  0  0
  -21.4210   -3.6950   26.0440 F   0  0  0  0  0  0  0  0  0  0  0  0
  -22.6960  -13.5160   21.1760 C   0  0  0  0  0  0  0  0  0  0  0  0
  -21.9870  -12.8070   22.0480 N   0  0  0  0  0  0  0  0  0  0  0  0
  -22.2380  -14.5390   20.6690 O   0  0  0  0  0  0  0  0  0  0  0  0
  -22.3680  -11.9830   22.4890 H   0  0  0  0  0  0  0  0  0  0  0  0
  -21.0490  -13.1010   22.2840 H   0  0  0  0  0  0  0  0  0  0  0  0
  -25.3000  -15.2130   20.3140 N   0  0  0  0  0  0  0  0  0  0  0  0
  -24.5320  -15.8670   20.4200 H   0  0  0  0  0  0  0  0  0  0  0  0
  -26.1390  -15.6500   19.9570 H   0  0  0  0  0  0  0  0  0  0  0  0
  2  3  2  0
  3  1  1  0
  3 11  1  0
  4 55  1  0
  4  1  2  0
  5  2  1  0
  5  4  1  0
  9  6  1  6
  7  9  1  0
  8  9  1  0
  9  5  1  0
 11 10  1  0
 12 11  1  0
 12 13  2  0
 14 13  1  0
 15 26  2  0
 16 14  1  0
 16 21  1  0
 17 25  1  0
 17 27  1  0
 18 24  1  0
 18 20  1  0
 19 25  1  0
 20 21  2  0
 20 19  1  0
 22 16  2  0
 23 22  1  0
 23 18  2  0
 24 17  1  0
 25 15  1  0
 27 29  2  0
 28 27  1  0
 30 28  1  0
 31 40  2  0
 31 36  1  0
 32 28  1  0
 32 36  1  0
 33 32  1  0
 34 35  1  0
 34 33  1  0
 35 31  1  0
 36 37  2  0
 37 38  1  0
 39 38  2  0
 40 39  1  0
 41 15  1  0
 41 42  1  0
 41 51  1  0
 42 45  1  0
 43 47  1  0
 43 42  1  0
 44 43  2  0
 47 46  1  0
 49 47  1  0
 49 50  1  0
 49 48  1  0
 51 54  1  1
 51 52  1  0
 53 51  1  0
 55 57  1  0
 57 56  1  0
 58 66  1  0
 59 64  1  0
 60 61  1  0
 60 59  1  0
 62 61  1  0
 62 71  1  0
 62 63  1  0
 64 58  1  0
 64 63  1  0
 65 58  2  0
 66 57  1  0
 66 67  1  0
 68 69  2  0
 69 88  1  0
 70 69  1  0
 70 73  1  0
 71 68  1  0
 71 72  1  0
 72 70  2  0
 73 74  1  0
 74 75  2  0
 76 79  1  0
 76 75  1  0
 77 76  2  0
 78 77  1  0
 78 73  2  0
 79 80  1  0
 80 81  1  0
 81 82  2  0
 83 82  1  0
 83 87  1  0
 84 83  2  0
 85 80  2  0
 85 84  1  0
 86 85  1  0
 88 89  1  0
 89 92  1  0
 89 91  1  0
 90 88  2  0
 93 94  1  0
 93 68  1  0
 95 93  1  0
M  ISO  4  13 101  14 101  58 100  66 100
M  END
>  <TORSDO>  (53) 
F 22

>  <SCORE>  (53) 
-13.499

>  <name>  (53) 
52

>  <ligand_id>  (53) 
52

>  <original_smiles>  (53) 
[H]c1c([H])c([H])c2c(c1[H])C([H])([H])C([H])([H])C([H])([H])C2([H])N([H])C(=O)C1([H])N(C(=O)C([H])(N([H])C(=O)C([H])(N([H])C([H])([H])[H])C([H])([H])[H])C(C([H])([H])[H])(C([H])([H])[H])C([H])([H])[H])C([H])([H])c2c([H])c(OC([H])([H])C([H])([H])C([H])(c3c([H])c(C([H])([H])C([H])(N([H])C(=O)N4C([H])([H])C([H])([H])C([H])([H])C([H])(n5nc(-c6c([H])c([H])c(Oc7c([H])c([H])c(F)c([H])c7F)c([H])c6[H])c(C(=O)N([H])[H])c5N([H])[H])C4([H])[H])C([H])([H])[H])n(C(C([H])([H])[H])(C([H])([H])[H])C([H])([H])[H])c3[H])C([H])([H])[H])c([H])c([H])c2C1([H])[H]

>  <smiles>  (53) 
[H]c1c([H])c([H])c2c(c1[H])C([H])([H])C([H])([H])C([H])([H])C2([H])N([H])C(=O)C1([H])N(C(=O)C([H])(N([H])C(=O)C([H])(N([H])C([H])([H])[H])C([H])([H])[H])C(C([H])([H])[H])(C([H])([H])[H])C([H])([H])[H])C([H])([H])c2c([H])c(OC([H])([H])C([H])([H])C([H])(c3c([H])c(C([H])([H])C([H])(N([H])C(=O)N4C([H])([H])C([H])([H])C([H])([H])C([H])(n5nc(-c6c([H])c([H])c(Oc7c([H])c([H])c(F)c([H])c7F)c([H])c6[H])c(C(=O)N([H])[H])c5N([H])[H])C4([H])[H])C([H])([H])[H])n(C(C([H])([H])[H])(C([H])([H])[H])C([H])([H])[H])c3[H])C([H])([H])[H])c([H])c([H])c2C1([H])[H]

$$$$
53:0:0
     RDKit          3D

 93101  0  0  1  0  0  0  0  0999 V2000
  -27.2220  -19.4830   19.3740 C   0  0  0  0  0  3  0  0  0  0  0  0
  -26.2040  -18.5250   19.2860 C   0  0  0  0  0  0  0  0  0  0  0  0
  -28.3980  -19.2650   20.1290 C   0  0  0  0  0  0  0  0  0  0  0  0
  -26.4050  -17.3190   19.9850 C   0  0  0  0  0  0  0  0  0  0  0  0
  -28.6740  -17.8250   20.3290 C   0  0  0  0  0  0  0  0  0  0  0  0
  -24.9350  -18.8580   18.5160 C   0  0  0  0  0  1  0  0  0  0  0  0
  -25.2720  -16.4050   20.4230 C   0  0  0  0  0  1  0  0  0  0  0  0
  -27.6370  -16.9450   20.3750 N   0  0  0  0  0  0  0  0  0  0  0  0
  -30.7150  -17.4910   21.8070 C   0  0  0  0  0  1  0  0  0  0  0  0
  -30.0190  -17.0060   20.5130 C   0  0  0  0  0  3  0  0  0  0  0  0
  -30.5950  -14.3810   20.2650 C   0  0  0  0  0  0  0  0  0  0  0  0
  -30.4840  -12.0600   19.3240 C   0  0  0  0  0  2  0  0  0  0  0  0
  -29.5480  -12.0190   18.0970 C   0  0  0  0  0  2  0  0  0  0  0  0
  -28.0850  -11.8090   18.5330 C   0  0  0  0  0  2  0  0  0  0  0  0
  -27.6740  -12.7500   19.6970 C   0  0  0  0  0  3  0  0  0  0  0  0
  -28.7240  -12.7510   20.8310 C   0  0  0  0  0  2  0  0  0  0  0  0
  -30.0090  -13.1330   20.2310 N   0  0  0  0  0  0  0  0  0  0  0  0
  -31.7620  -14.5180   19.8810 O   0  0  0  0  0  0  0  0  0  0  0  0
  -29.8050  -15.4780   20.5660 N   0  0  0  0  0  0  0  0  0  0  0  0
  -28.8520  -15.2750   20.8370 H   0  0  0  0  0  0  0  0  0  0  0  0
  -25.2560  -13.3010   20.3240 C   0  0  0  0  0  0  0  0  0  0  0  0
  -24.2120  -12.5340   20.7560 C   0  0  0  0  0  0  0  0  0  0  0  0
  -24.7100  -11.1960   20.8090 C   0  0  0  0  0  0  0  0  0  0  0  0
  -26.3330  -12.4480   20.1840 N   0  0  0  0  0  0  0  0  0  0  0  0
  -26.0070  -11.1740   20.5220 N   0  0  0  0  0  0  0  0  0  0  0  0
  -24.0080   -9.9310   21.0440 C   0  0  0  0  0  0  0  0  0  0  0  0
  -24.4350   -9.0270   22.0410 C   0  0  0  0  0  3  0  0  0  0  0  0
  -23.7320   -7.8250   22.2630 C   0  0  0  0  0  3  0  0  0  0  0  0
  -22.5900   -7.5160   21.4860 C   0  0  0  0  0  0  0  0  0  0  0  0
  -22.1820   -8.4090   20.4800 C   0  0  0  0  0  3  0  0  0  0  0  0
  -22.8870   -9.6030   20.2550 C   0  0  0  0  0  3  0  0  0  0  0  0
  -21.8640   -6.3560   21.6120 O   0  0  0  0  0  0  0  0  0  0  0  0
  -21.7590   -5.7010   22.8130 C   0  0  0  0  0  0  0  0  0  0  0  0
  -21.2380   -6.3340   23.9630 C   0  0  0  0  0  3  0  0  0  0  0  0
  -21.0850   -5.6030   25.1590 C   0  0  0  0  0  3  0  0  0  0  0  0
  -21.4440   -4.2420   25.2030 C   0  0  0  0  0  0  0  0  0  0  0  0
  -21.9600   -3.6120   24.0580 C   0  0  0  0  0  3  0  0  0  0  0  0
  -22.1140   -4.3390   22.8650 C   0  0  0  0  0  0  0  0  0  0  0  0
  -22.5910   -3.7210   21.7570 F   0  0  0  0  0  0  0  0  0  0  0  0
  -21.2910   -3.5370   26.3490 F   0  0  0  0  0  0  0  0  0  0  0  0
  -22.8050  -12.9990   21.0010 C   0  0  0  0  0  0  0  0  0  0  0  0
  -22.0900  -12.3360   21.9000 N   0  0  0  0  0  0  0  0  0  0  0  0
  -22.3480  -13.9870   20.4280 O   0  0  0  0  0  0  0  0  0  0  0  0
  -22.4760  -11.5380   22.3830 H   0  0  0  0  0  0  0  0  0  0  0  0
  -21.1470  -12.6300   22.1080 H   0  0  0  0  0  0  0  0  0  0  0  0
  -25.3730  -14.6420   19.9980 N   0  0  0  0  0  0  0  0  0  0  0  0
  -24.5880  -15.2770   20.0560 H   0  0  0  0  0  0  0  0  0  0  0  0
  -26.2280  -15.0840   19.6860 H   0  0  0  0  0  0  0  0  0  0  0  0
  -29.0720  -20.4440   20.6020 O   0  0  0  0  0  0  0  0  0  0  0  0
  -28.4610  -21.8120   20.3140 C   0  0  0  0  0  2  0  0  0  0  0  0
  -28.8690  -23.2530   20.9530 C   0  0  0  0  0  3  0  0  0  0  0  0
  -28.0100  -24.5620   20.4770 C   0  0  0  0  0  3  0  0  0  0  0  0
  -28.2420  -26.0020   20.8910 O   0  0  0  0  0  0  0  0  0  0  0  0
  -24.6270  -31.7760   23.4920 C   0  0  0  0  0  0  0  0  0  0  0  0
  -27.1900  -26.9480   20.7460 C   0  0  0  0  0  0  0  0  0  0  0  0
  -23.4590  -30.3720   21.8400 C   0  0  0  0  0  3  0  0  0  0  0  0
  -24.9150  -28.7080   20.5500 C   0  0  0  0  0  0  0  0  0  0  0  0
  -26.0190  -30.5600   21.7910 C   0  0  0  0  0  2  0  0  0  0  0  0
  -26.0730  -29.1490   21.2000 C   0  0  0  0  0  0  0  0  0  0  0  0
  -27.2170  -28.2850   21.2780 C   0  0  0  0  0  3  0  0  0  0  0  0
  -26.0040  -26.5840   20.0600 C   0  0  0  0  0  3  0  0  0  0  0  0
  -24.8890  -27.4330   19.9650 C   0  0  0  0  0  3  0  0  0  0  0  0
  -23.7200  -29.6410   20.4970 C   0  0  0  0  0  2  0  0  0  0  0  0
  -24.7200  -30.9250   22.4310 N   0  0  0  0  0  0  0  0  0  0  0  0
  -23.5300  -32.1240   23.9510 O   0  0  0  0  0  0  0  0  0  0  0  0
  -22.6930  -29.4280   22.7970 C   0  0  0  0  0  0  0  0  0  0  0  0
  -21.3680  -29.3020   22.5960 N   0  0  0  0  0  0  0  0  0  0  0  0
  -23.2960  -28.8050   23.6770 O   0  0  0  0  0  0  0  0  0  0  0  0
  -20.9550  -29.8340   21.8410 H   0  0  0  0  0  0  0  0  0  0  0  0
  -17.9110  -28.2980   23.0020 C   0  0  0  0  0  0  0  0  0  0  0  0
  -20.4680  -28.4290   23.3510 C   0  0  0  0  0  3  0  0  0  0  0  0
  -20.5160  -26.9810   22.8120 C   0  0  0  0  0  2  0  0  0  0  0  0
  -19.4270  -26.6830   21.7750 C   0  0  0  0  0  2  0  0  0  0  0  0
  -18.0360  -26.9220   22.3720 C   0  0  0  0  0  2  0  0  0  0  0  0
  -19.0530  -29.0120   23.4470 C   0  0  0  0  0  0  0  0  0  0  0  0
  -18.8820  -30.2990   24.0030 C   0  0  0  0  0  3  0  0  0  0  0  0
  -17.6000  -30.8720   24.1120 C   0  0  0  0  0  3  0  0  0  0  0  0
  -16.4720  -30.1550   23.6710 C   0  0  0  0  0  3  0  0  0  0  0  0
  -16.6270  -28.8710   23.1240 C   0  0  0  0  0  3  0  0  0  0  0  0
  -25.8960  -32.3850   24.1620 C   0  0  0  0  0  3  0  0  0  0  0  0
  -25.6460  -33.8180   24.3800 N   0  0  0  0  0  0  0  0  0  0  0  0
  -26.0740  -34.7980   23.5720 C   0  0  0  0  0  0  0  0  0  0  0  0
  -26.7940  -34.5890   22.5920 O   0  0  0  0  0  0  0  0  0  0  0  0
  -25.0110  -34.0570   25.1280 H   0  0  0  0  0  0  0  0  0  0  0  0
  -24.4630  -36.6480   23.0120 C   0  0  0  0  0  1  0  0  0  0  0  0
  -25.6430  -36.2380   23.9090 C   0  0  0  0  0  3  0  0  0  0  0  0
  -27.7820  -37.0720   24.7800 C   0  0  0  0  0  1  0  0  0  0  0  0
  -26.7350  -37.2290   23.7740 N   0  0  0  0  0  0  0  0  0  0  0  0
  -26.3710  -38.1750   23.8400 H   0  0  0  0  0  0  0  0  0  0  0  0
  -26.2720  -31.6800   25.5240 C   0  0  1  0  0  0  0  0  0  0  0  0
  -25.0870  -31.5650   26.5130 C   0  0  0  0  0  1  0  0  0  0  0  0
  -26.8170  -30.2540   25.2700 C   0  0  0  0  0  1  0  0  0  0  0  0
  -27.4060  -32.4660   26.2280 C   0  0  0  0  0  1  0  0  0  0  0  0
  1  3  1  0
  2  1  2  0
  2  4  1  0
  3  5  2  0
  3 49  1  0
  4  8  2  0
  4  7  1  0
  5  8  1  0
  5 10  1  0
  6  2  1  0
 10 19  1  0
 10  9  1  0
 11 19  1  0
 12 17  1  0
 13 14  1  0
 13 12  1  0
 15 14  1  0
 15 24  1  0
 15 16  1  0
 17 11  1  0
 17 16  1  0
 18 11  2  0
 19 20  1  0
 21 22  2  0
 22 23  1  0
 22 41  1  0
 23 26  1  0
 24 21  1  0
 24 25  1  0
 25 23  2  0
 26 27  1  0
 27 28  2  0
 29 32  1  0
 29 28  1  0
 30 29  2  0
 31 30  1  0
 31 26  2  0
 32 33  1  0
 33 38  2  0
 33 34  1  0
 34 35  2  0
 35 36  1  0
 36 40  1  0
 37 36  2  0
 38 37  1  0
 39 38  1  0
 41 42  1  0
 42 45  1  0
 42 44  1  0
 43 41  2  0
 46 47  1  0
 46 21  1  0
 48 46  1  0
 50 49  1  0
 50 51  1  0
 52 53  1  0
 52 51  2  0
 54 65  2  0
 55 53  1  0
 55 60  1  0
 56 64  1  0
 56 66  1  0
 57 59  1  0
 58 64  1  0
 59 60  2  0
 59 58  1  0
 61 55  2  0
 62 61  1  0
 62 57  2  0
 63 57  1  0
 63 56  1  0
 64 54  1  0
 66 68  2  0
 67 66  1  0
 69 67  1  0
 70 79  2  0
 70 75  1  0
 71 67  1  0
 71 75  1  0
 72 71  1  0
 73 74  1  0
 73 72  1  0
 74 70  1  0
 75 76  2  0
 76 77  1  0
 78 77  2  0
 79 78  1  0
 80 54  1  0
 80 81  1  0
 80 90  1  0
 81 84  1  0
 82 86  1  0
 82 81  1  0
 83 82  2  0
 86 85  1  0
 88 89  1  0
 88 86  1  0
 88 87  1  0
 90 93  1  1
 90 91  1  0
 92 90  1  0
M  ISO  4  11 100  19 100  52 101  53 101
M  END
>  <TORSDO>  (54) 
F 21

>  <SCORE>  (54) 
-10.984

>  <name>  (54) 
53

>  <ligand_id>  (54) 
53

>  <original_smiles>  (54) 
[H]c1c([H])c([H])c2c(c1[H])C([H])([H])C([H])([H])C([H])([H])C2([H])N([H])C(=O)C1([H])N(C(=O)C([H])(N([H])C(=O)C([H])(N([H])C([H])([H])[H])C([H])([H])[H])C(C([H])([H])[H])(C([H])([H])[H])C([H])([H])[H])C([H])([H])c2c([H])c(OC([H])([H])C([H])([H])C([H])([H])Oc3c(C([H])(N([H])C(=O)N4C([H])([H])C([H])([H])C([H])([H])C([H])(n5nc(-c6c([H])c([H])c(Oc7c([H])c([H])c(F)c([H])c7F)c([H])c6[H])c(C(=O)N([H])[H])c5N([H])[H])C4([H])[H])C([H])([H])[H])nc(C([H])([H])[H])c(C([H])([H])[H])c3[H])c([H])c([H])c2C1([H])[H]

>  <smiles>  (54) 
[H]c1c([H])c([H])c2c(c1[H])C([H])([H])C([H])([H])C([H])([H])C2([H])N([H])C(=O)C1([H])N(C(=O)C([H])(N([H])C(=O)C([H])(N([H])C([H])([H])[H])C([H])([H])[H])C(C([H])([H])[H])(C([H])([H])[H])C([H])([H])[H])C([H])([H])c2c([H])c(OC([H])([H])C([H])([H])C([H])([H])Oc3c(C([H])(N([H])C(=O)N4C([H])([H])C([H])([H])C([H])([H])C([H])(n5nc(-c6c([H])c([H])c(Oc7c([H])c([H])c(F)c([H])c7F)c([H])c6[H])c(C(=O)N([H])[H])c5N([H])[H])C4([H])[H])C([H])([H])[H])nc(C([H])([H])[H])c(C([H])([H])[H])c3[H])c([H])c([H])c2C1([H])[H]

$$$$
54:0:0
     RDKit          3D

 99107  0  0  1  0  0  0  0  0999 V2000
  -31.4470  -22.3090   19.9790 C   0  0  0  0  0  3  0  0  0  0  0  0
  -30.2150  -22.9430   19.6390 C   0  0  0  0  0  0  0  0  0  0  0  0
  -31.3270  -21.6890   21.1930 C   0  0  0  0  0  0  0  0  0  0  0  0
  -29.3120  -22.6320   20.6550 C   0  0  0  0  0  0  0  0  0  0  0  0
  -30.0430  -21.9530   21.6590 N   0  0  0  0  0  0  0  0  0  0  0  0
  -27.1380  -23.7210   19.6780 C   0  0  0  0  0  1  0  0  0  0  0  0
  -27.3270  -23.5260   22.0810 C   0  0  0  0  0  1  0  0  0  0  0  0
  -27.0810  -21.4620   20.5910 C   0  0  0  0  0  1  0  0  0  0  0  0
  -27.7780  -22.8310   20.7710 C   0  0  2  0  0  0  0  0  0  0  0  0
  -29.9410  -23.7160   18.3390 C   0  0  0  0  0  2  0  0  0  0  0  0
  -30.8120  -24.9240   17.8600 C   0  0  0  0  0  2  0  0  0  0  0  0
  -29.8840  -25.8930   17.0590 C   0  0  0  0  0  2  0  0  0  0  0  0
  -29.6910  -27.2760   17.4680 O   0  0  0  0  0  0  0  0  0  0  0  0
  -25.0960  -29.3850   22.5270 C   0  0  0  0  0  0  0  0  0  0  0  0
  -28.3720  -27.6200   17.7710 C   0  0  0  0  0  0  0  0  0  0  0  0
  -24.1100  -28.3630   20.5120 C   0  0  0  0  0  3  0  0  0  0  0  0
  -25.6740  -28.1130   18.5140 C   0  0  0  0  0  0  0  0  0  0  0  0
  -26.3280  -29.6370   20.3700 C   0  0  0  0  0  2  0  0  0  0  0  0
  -26.7160  -28.7310   19.2170 C   0  0  0  0  0  0  0  0  0  0  0  0
  -28.0670  -28.4880   18.8520 C   0  0  0  0  0  3  0  0  0  0  0  0
  -27.2850  -27.0740   17.0390 C   0  0  0  0  0  3  0  0  0  0  0  0
  -25.9550  -27.2860   17.4210 C   0  0  0  0  0  3  0  0  0  0  0  0
  -24.2570  -28.3820   18.9690 C   0  0  0  0  0  2  0  0  0  0  0  0
  -25.2030  -29.1250   21.1950 N   0  0  0  0  0  0  0  0  0  0  0  0
  -24.0970  -29.0360   23.1730 O   0  0  0  0  0  0  0  0  0  0  0  0
  -23.9910  -26.8970   20.9880 C   0  0  0  0  0  0  0  0  0  0  0  0
  -22.8390  -26.2680   20.7030 N   0  0  0  0  0  0  0  0  0  0  0  0
  -24.9270  -26.3430   21.5710 O   0  0  0  0  0  0  0  0  0  0  0  0
  -22.1170  -26.7960   20.2350 H   0  0  0  0  0  0  0  0  0  0  0  0
  -20.3050  -23.7110   20.3550 C   0  0  0  0  0  0  0  0  0  0  0  0
  -22.5150  -24.8750   21.0180 C   0  0  0  0  0  3  0  0  0  0  0  0
  -23.2040  -23.9050   20.0300 C   0  0  0  0  0  2  0  0  0  0  0  0
  -22.3200  -23.5340   18.8360 C   0  0  0  0  0  2  0  0  0  0  0  0
  -21.0240  -22.8710   19.3130 C   0  0  0  0  0  2  0  0  0  0  0  0
  -21.0030  -24.6620   21.1450 C   0  0  0  0  0  0  0  0  0  0  0  0
  -20.2820  -25.4420   22.0750 C   0  0  0  0  0  3  0  0  0  0  0  0
  -18.8920  -25.2820   22.2260 C   0  0  0  0  0  3  0  0  0  0  0  0
  -18.2090  -24.3240   21.4550 C   0  0  0  0  0  3  0  0  0  0  0  0
  -18.9150  -23.5400   20.5250 C   0  0  0  0  0  3  0  0  0  0  0  0
  -26.2130  -30.1530   23.3020 C   0  0  0  0  0  3  0  0  0  0  0  0
  -26.8540  -29.3030   24.4670 C   0  0  1  0  0  0  0  0  0  0  0  0
  -25.8140  -28.6790   25.4290 C   0  0  0  0  0  1  0  0  0  0  0  0
  -27.7140  -28.1540   23.8890 C   0  0  0  0  0  1  0  0  0  0  0  0
  -27.8090  -30.1920   25.2990 C   0  0  0  0  0  1  0  0  0  0  0  0
  -25.6170  -31.3900   23.8230 N   0  0  0  0  0  0  0  0  0  0  0  0
  -25.8350  -32.6100   23.3180 C   0  0  0  0  0  0  0  0  0  0  0  0
  -26.6260  -32.8200   22.3940 O   0  0  0  0  0  0  0  0  0  0  0  0
  -24.9050  -31.2840   24.5320 H   0  0  0  0  0  0  0  0  0  0  0  0
  -23.8950  -34.1780   23.0030 C   0  0  0  0  0  1  0  0  0  0  0  0
  -25.0520  -33.7850   23.9340 C   0  0  0  0  0  3  0  0  0  0  0  0
  -26.8510  -34.7530   25.2930 C   0  0  0  0  0  1  0  0  0  0  0  0
  -25.8930  -34.9680   24.2120 N   0  0  0  0  0  0  0  0  0  0  0  0
  -25.3190  -35.7700   24.4550 H   0  0  0  0  0  0  0  0  0  0  0  0
  -32.3680  -20.9460   22.0160 C   0  0  0  0  0  2  0  0  0  0  0  0
  -34.1010  -19.6190   20.7740 C   0  0  0  0  0  1  0  0  0  0  0  0
  -33.2480  -18.8080   22.9670 C   0  0  0  0  0  1  0  0  0  0  0  0
  -32.8300  -19.4870   21.6390 C   0  0  1  0  0  0  0  0  0  0  0  0
  -31.7930  -18.6220   20.8250 C   0  0  0  0  0  2  0  0  0  0  0  0
  -32.3550  -16.1690   20.5550 C   0  0  0  0  0  0  0  0  0  0  0  0
  -32.1190  -13.9400   19.5180 C   0  0  0  0  0  2  0  0  0  0  0  0
  -31.2300  -14.0750   18.2640 C   0  0  0  0  0  2  0  0  0  0  0  0
  -29.7420  -13.9380   18.6400 C   0  0  0  0  0  2  0  0  0  0  0  0
  -29.3450  -14.8350   19.8430 C   0  0  0  0  0  3  0  0  0  0  0  0
  -30.3560  -14.6870   21.0050 C   0  0  0  0  0  2  0  0  0  0  0  0
  -31.7050  -14.9730   20.4840 N   0  0  0  0  0  0  0  0  0  0  0  0
  -33.4420  -16.3620   20.0060 O   0  0  0  0  0  0  0  0  0  0  0  0
  -31.6750  -17.1770   21.1370 N   0  0  0  0  0  0  0  0  0  0  0  0
  -30.8280  -16.9020   21.6120 H   0  0  0  0  0  0  0  0  0  0  0  0
  -26.9520  -15.4580   20.5570 C   0  0  0  0  0  0  0  0  0  0  0  0
  -25.8550  -14.6940   20.8470 C   0  0  0  0  0  0  0  0  0  0  0  0
  -26.2750  -13.3340   20.7150 C   0  0  0  0  0  0  0  0  0  0  0  0
  -27.9750  -14.5660   20.2730 N   0  0  0  0  0  0  0  0  0  0  0  0
  -27.5690  -13.2790   20.4250 N   0  0  0  0  0  0  0  0  0  0  0  0
  -25.5070  -12.0860   20.7950 C   0  0  0  0  0  0  0  0  0  0  0  0
  -25.8320  -11.0780   21.7300 C   0  0  0  0  0  3  0  0  0  0  0  0
  -25.0680   -9.8930   21.8010 C   0  0  0  0  0  3  0  0  0  0  0  0
  -23.9670   -9.7060   20.9350 C   0  0  0  0  0  0  0  0  0  0  0  0
  -23.6620  -10.7020   19.9890 C   0  0  0  0  0  3  0  0  0  0  0  0
  -24.4250  -11.8780   19.9160 C   0  0  0  0  0  3  0  0  0  0  0  0
  -23.1840   -8.5760   20.9120 O   0  0  0  0  0  0  0  0  0  0  0  0
  -22.8260   -7.9270   22.0660 C   0  0  0  0  0  0  0  0  0  0  0  0
  -22.0740   -8.5650   23.0760 C   0  0  0  0  0  3  0  0  0  0  0  0
  -21.6670   -7.8410   24.2150 C   0  0  0  0  0  3  0  0  0  0  0  0
  -22.0030   -6.4790   24.3400 C   0  0  0  0  0  0  0  0  0  0  0  0
  -22.7460   -5.8400   23.3330 C   0  0  0  0  0  3  0  0  0  0  0  0
  -23.1540   -6.5630   22.1970 C   0  0  0  0  0  0  0  0  0  0  0  0
  -23.8530   -5.9370   21.2190 F   0  0  0  0  0  0  0  0  0  0  0  0
  -21.6060   -5.7810   25.4300 F   0  0  0  0  0  0  0  0  0  0  0  0
  -24.4680  -15.1920   21.1380 C   0  0  0  0  0  0  0  0  0  0  0  0
  -23.6970  -14.4370   21.9120 N   0  0  0  0  0  0  0  0  0  0  0  0
  -24.0790  -16.2810   20.7170 O   0  0  0  0  0  0  0  0  0  0  0  0
  -24.0230  -13.5510   22.2680 H   0  0  0  0  0  0  0  0  0  0  0  0
  -22.7650  -14.7480   22.1470 H   0  0  0  0  0  0  0  0  0  0  0  0
  -27.1620  -16.8330   20.4910 N   0  0  0  0  0  0  0  0  0  0  0  0
  -26.4120  -17.4990   20.6410 H   0  0  0  0  0  0  0  0  0  0  0  0
  -28.0330  -17.2680   20.2180 H   0  0  0  0  0  0  0  0  0  0  0  0
  -29.5980  -21.5310   23.0010 C   0  0  0  0  0  2  0  0  0  0  0  0
  -29.8920  -21.7380   25.5240 C   0  0  0  0  0  1  0  0  0  0  0  0
  -30.3060  -22.2820   24.1480 C   0  0  0  0  0  2  0  0  0  0  0  0
  1  3  2  0
  2  1  1  0
  2  4  2  0
  3  5  1  0
  3 54  1  0
  4  9  1  0
  4  5  1  0
  5 97  1  0
  9  6  1  6
  8  9  1  0
  9  7  1  0
 10  2  1  0
 11 10  1  0
 12 13  1  0
 12 11  1  0
 13 15  1  0
 14 25  2  0
 15 20  1  0
 16 26  1  0
 16 24  1  0
 17 23  1  0
 17 19  1  0
 18 24  1  0
 19 18  1  0
 20 19  2  0
 21 22  1  0
 21 15  2  0
 22 17  2  0
 23 16  1  0
 24 14  1  0
 26 28  2  0
 27 26  1  0
 29 27  1  0
 30 39  2  0
 30 35  1  0
 31 27  1  0
 31 35  1  0
 32 31  1  0
 33 34  1  0
 33 32  1  0
 34 30  1  0
 35 36  2  0
 36 37  1  0
 38 37  2  0
 39 38  1  0
 40 14  1  0
 40 45  1  0
 40 41  1  0
 41 44  1  1
 41 42  1  0
 43 41  1  0
 45 48  1  0
 46 45  1  0
 46 50  1  0
 47 46  2  0
 50 49  1  0
 50 52  1  0
 52 53  1  0
 52 51  1  0
 57 55  1  6
 57 54  1  0
 57 56  1  0
 58 67  1  0
 58 57  1  0
 59 67  1  0
 60 65  1  0
 61 62  1  0
 61 60  1  0
 63 62  1  0
 63 72  1  0
 63 64  1  0
 65 59  1  0
 65 64  1  0
 66 59  2  0
 67 68  1  0
 69 70  2  0
 70 89  1  0
 71 74  1  0
 71 70  1  0
 72 73  1  0
 72 69  1  0
 73 71  2  0
 74 75  1  0
 75 76  2  0
 77 76  1  0
 78 77  2  0
 79 78  1  0
 79 74  2  0
 80 77  1  0
 80 81  1  0
 81 86  2  0
 81 82  1  0
 82 83  2  0
 83 84  1  0
 84 88  1  0
 85 84  2  0
 86 85  1  0
 87 86  1  0
 89 90  1  0
 90 93  1  0
 90 92  1  0
 91 89  2  0
 94 69  1  0
 94 95  1  0
 96 94  1  0
 97 99  1  0
 99 98  1  0
M  ISO  4  12 101  13 101  59 100  67 100
M  END
>  <TORSDO>  (55) 
F 25

>  <SCORE>  (55) 
-0.862

>  <name>  (55) 
54

>  <ligand_id>  (55) 
54

>  <original_smiles>  (55) 
[H]c1c([H])c([H])c2c(c1[H])C([H])([H])C([H])([H])C([H])([H])C2([H])N([H])C(=O)C1([H])N(C(=O)C([H])(N([H])C(=O)C([H])(N([H])C([H])([H])[H])C([H])([H])[H])C(C([H])([H])[H])(C([H])([H])[H])C([H])([H])[H])C([H])([H])c2c([H])c(OC([H])([H])C([H])([H])C([H])([H])c3c([H])c(C([H])([H])C(C([H])([H])[H])(C([H])([H])[H])C([H])([H])N([H])C(=O)N4C([H])([H])C([H])([H])C([H])([H])C([H])(n5nc(-c6c([H])c([H])c(Oc7c([H])c([H])c(F)c([H])c7F)c([H])c6[H])c(C(=O)N([H])[H])c5N([H])[H])C4([H])[H])n(C([H])([H])C([H])([H])C([H])([H])[H])c3C(C([H])([H])[H])(C([H])([H])[H])C([H])([H])[H])c([H])c([H])c2C1([H])[H]

>  <smiles>  (55) 
[H]c1c([H])c([H])c2c(c1[H])C([H])([H])C([H])([H])C([H])([H])C2([H])N([H])C(=O)C1([H])N(C(=O)C([H])(N([H])C(=O)C([H])(N([H])C([H])([H])[H])C([H])([H])[H])C(C([H])([H])[H])(C([H])([H])[H])C([H])([H])[H])C([H])([H])c2c([H])c(OC([H])([H])C([H])([H])C([H])([H])c3c([H])c(C([H])([H])C(C([H])([H])[H])(C([H])([H])[H])C([H])([H])N([H])C(=O)N4C([H])([H])C([H])([H])C([H])([H])C([H])(n5nc(-c6c([H])c([H])c(Oc7c([H])c([H])c(F)c([H])c7F)c([H])c6[H])c(C(=O)N([H])[H])c5N([H])[H])C4([H])[H])n(C([H])([H])C([H])([H])C([H])([H])[H])c3C(C([H])([H])[H])(C([H])([H])[H])C([H])([H])[H])c([H])c([H])c2C1([H])[H]

$$$$
55:0:0
     RDKit          3D

 92100  0  0  1  0  0  0  0  0999 V2000
  -29.5700  -23.2480   18.0280 C   0  0  0  0  0  3  0  0  0  0  0  0
  -29.3240  -22.6600   19.2910 C   0  0  0  0  0  0  0  0  0  0  0  0
  -29.8410  -22.4470   16.9060 C   0  0  0  0  0  0  0  0  0  0  0  0
  -29.4690  -21.1890   19.3320 C   0  0  0  0  0  0  0  0  0  0  0  0
  -29.9160  -21.1060   17.0050 N   0  0  0  0  0  0  0  0  0  0  0  0
  -29.7690  -20.5140   18.1890 N   0  0  0  0  0  0  0  0  0  0  0  0
  -29.4530  -24.4120   15.2770 C   0  0  0  0  0  1  0  0  0  0  0  0
  -30.0850  -23.0300   15.5200 C   0  0  0  0  0  2  0  0  0  0  0  0
  -29.0190  -23.7420   20.4040 C   0  0  0  0  0  2  0  0  0  0  0  0
  -28.0020  -24.9570   20.0330 C   0  0  0  0  0  2  0  0  0  0  0  0
  -28.2780  -26.4250   20.2110 O   0  0  0  0  0  0  0  0  0  0  0  0
  -24.5660  -31.8870   23.2270 C   0  0  0  0  0  0  0  0  0  0  0  0
  -27.1810  -27.3210   20.1430 C   0  0  0  0  0  0  0  0  0  0  0  0
  -23.3680  -30.5040   21.5740 C   0  0  0  0  0  3  0  0  0  0  0  0
  -24.8230  -28.9690   20.1340 C   0  0  0  0  0  0  0  0  0  0  0  0
  -25.9120  -30.8140   21.4040 C   0  0  0  0  0  2  0  0  0  0  0  0
  -25.9950  -29.4400   20.7410 C   0  0  0  0  0  0  0  0  0  0  0  0
  -27.1770  -28.6310   20.7320 C   0  0  0  0  0  3  0  0  0  0  0  0
  -25.9830  -26.9240   19.5020 C   0  0  0  0  0  3  0  0  0  0  0  0
  -24.8240  -27.7200   19.5020 C   0  0  0  0  0  3  0  0  0  0  0  0
  -23.5880  -29.8440   20.1890 C   0  0  0  0  0  2  0  0  0  0  0  0
  -24.6350  -31.0860   22.1240 N   0  0  0  0  0  0  0  0  0  0  0  0
  -23.4800  -32.1610   23.7600 O   0  0  0  0  0  0  0  0  0  0  0  0
  -22.7010  -29.4780   22.5230 C   0  0  0  0  0  0  0  0  0  0  0  0
  -21.3770  -29.2960   22.3860 N   0  0  0  0  0  0  0  0  0  0  0  0
  -23.3760  -28.8500   23.3440 O   0  0  0  0  0  0  0  0  0  0  0  0
  -20.8930  -29.8530   21.6960 H   0  0  0  0  0  0  0  0  0  0  0  0
  -18.0000  -28.0790   22.8530 C   0  0  0  0  0  0  0  0  0  0  0  0
  -20.5550  -28.3520   23.1460 C   0  0  0  0  0  3  0  0  0  0  0  0
  -20.6710  -26.9220   22.5680 C   0  0  0  0  0  2  0  0  0  0  0  0
  -19.5790  -26.5960   21.5440 C   0  0  0  0  0  2  0  0  0  0  0  0
  -18.1910  -26.7320   22.1750 C   0  0  0  0  0  2  0  0  0  0  0  0
  -19.1100  -28.8460   23.2950 C   0  0  0  0  0  0  0  0  0  0  0  0
  -18.8800  -30.1050   23.8890 C   0  0  0  0  0  3  0  0  0  0  0  0
  -17.5710  -30.5980   24.0470 C   0  0  0  0  0  3  0  0  0  0  0  0
  -16.4740  -29.8270   23.6210 C   0  0  0  0  0  3  0  0  0  0  0  0
  -16.6900  -28.5710   23.0300 C   0  0  0  0  0  3  0  0  0  0  0  0
  -25.8450  -32.5170   23.8580 C   0  0  0  0  0  3  0  0  0  0  0  0
  -25.5380  -33.9190   24.1800 N   0  0  0  0  0  0  0  0  0  0  0  0
  -25.8800  -34.9690   23.4230 C   0  0  0  0  0  0  0  0  0  0  0  0
  -26.5560  -34.8600   22.3960 O   0  0  0  0  0  0  0  0  0  0  0  0
  -24.9410  -34.0780   24.9790 H   0  0  0  0  0  0  0  0  0  0  0  0
  -24.1700  -36.7770   23.0440 C   0  0  0  0  0  1  0  0  0  0  0  0
  -25.3960  -36.3610   23.8730 C   0  0  0  0  0  3  0  0  0  0  0  0
  -27.5220  -37.2330   24.7400 C   0  0  0  0  0  1  0  0  0  0  0  0
  -26.4370  -37.4070   23.7770 N   0  0  0  0  0  0  0  0  0  0  0  0
  -26.0350  -38.3300   23.9170 H   0  0  0  0  0  0  0  0  0  0  0  0
  -26.3460  -31.7500   25.1430 C   0  0  1  0  0  0  0  0  0  0  0  0
  -25.2430  -31.5220   26.2020 C   0  0  0  0  0  1  0  0  0  0  0  0
  -26.9270  -30.3680   24.7640 C   0  0  0  0  0  1  0  0  0  0  0  0
  -27.4930  -32.5440   25.8130 C   0  0  0  0  0  1  0  0  0  0  0  0
  -29.5140  -20.1710   20.5430 C   0  0  0  0  0  2  0  0  0  0  0  0
  -29.1680  -18.5820   20.3170 C   0  0  0  0  0  3  0  0  0  0  0  0
  -30.2420  -17.4100   20.6290 C   0  0  0  0  0  3  0  0  0  0  0  0
  -30.5920  -14.8080   20.3670 C   0  0  0  0  0  0  0  0  0  0  0  0
  -30.4010  -12.5510   19.3190 C   0  0  0  0  0  2  0  0  0  0  0  0
  -29.4530  -12.6400   18.1040 C   0  0  0  0  0  2  0  0  0  0  0  0
  -27.9910  -12.4400   18.5420 C   0  0  0  0  0  2  0  0  0  0  0  0
  -27.6160  -13.3000   19.7780 C   0  0  0  0  0  3  0  0  0  0  0  0
  -28.6840  -13.2060   20.8880 C   0  0  0  0  0  2  0  0  0  0  0  0
  -29.9700  -13.5830   20.2870 N   0  0  0  0  0  0  0  0  0  0  0  0
  -31.7790  -14.9170   20.0530 O   0  0  0  0  0  0  0  0  0  0  0  0
  -29.8190  -15.9370   20.5940 N   0  0  0  0  0  0  0  0  0  0  0  0
  -28.8440  -15.7550   20.7790 H   0  0  0  0  0  0  0  0  0  0  0  0
  -25.2230  -13.8490   20.5180 C   0  0  0  0  0  0  0  0  0  0  0  0
  -24.1710  -13.0570   20.8870 C   0  0  0  0  0  0  0  0  0  0  0  0
  -24.6550  -11.7120   20.8470 C   0  0  0  0  0  0  0  0  0  0  0  0
  -26.2790  -12.9880   20.2740 N   0  0  0  0  0  0  0  0  0  0  0  0
  -25.9460  -11.6970   20.5340 N   0  0  0  0  0  0  0  0  0  0  0  0
  -23.9500  -10.4380   21.0340 C   0  0  0  0  0  0  0  0  0  0  0  0
  -24.3920   -9.4770   21.9680 C   0  0  0  0  0  3  0  0  0  0  0  0
  -23.6840   -8.2670   22.1420 C   0  0  0  0  0  3  0  0  0  0  0  0
  -22.5200   -8.0110   21.3780 C   0  0  0  0  0  0  0  0  0  0  0  0
  -22.0970   -8.9620   20.4320 C   0  0  0  0  0  3  0  0  0  0  0  0
  -22.8060  -10.1620   20.2570 C   0  0  0  0  0  3  0  0  0  0  0  0
  -21.7830   -6.8540   21.4600 O   0  0  0  0  0  0  0  0  0  0  0  0
  -21.7360   -6.1120   22.6130 C   0  0  0  0  0  0  0  0  0  0  0  0
  -21.2680   -6.6540   23.8300 C   0  0  0  0  0  3  0  0  0  0  0  0
  -21.1710   -5.8370   24.9740 C   0  0  0  0  0  3  0  0  0  0  0  0
  -21.5310   -4.4780   24.9010 C   0  0  0  0  0  0  0  0  0  0  0  0
  -21.9900   -3.9350   23.6890 C   0  0  0  0  0  3  0  0  0  0  0  0
  -22.0890   -4.7490   22.5470 C   0  0  0  0  0  0  0  0  0  0  0  0
  -22.5130   -4.2160   21.3760 F   0  0  0  0  0  0  0  0  0  0  0  0
  -21.4300   -3.6900   25.9970 F   0  0  0  0  0  0  0  0  0  0  0  0
  -22.7670  -13.5100   21.1630 C   0  0  0  0  0  0  0  0  0  0  0  0
  -22.0500  -12.7950   22.0220 N   0  0  0  0  0  0  0  0  0  0  0  0
  -22.3140  -14.5350   20.6530 O   0  0  0  0  0  0  0  0  0  0  0  0
  -22.4290  -11.9660   22.4570 H   0  0  0  0  0  0  0  0  0  0  0  0
  -21.1090  -13.0810   22.2500 H   0  0  0  0  0  0  0  0  0  0  0  0
  -25.3630  -15.2220   20.3430 N   0  0  0  0  0  0  0  0  0  0  0  0
  -24.5810  -15.8600   20.4470 H   0  0  0  0  0  0  0  0  0  0  0  0
  -26.1950  -15.6750   19.9880 H   0  0  0  0  0  0  0  0  0  0  0  0
  1  2  1  0
  2  4  2  0
  2  9  1  0
  3  5  1  0
  3  1  2  0
  4 52  1  0
  5  6  2  0
  6  4  1  0
  7  8  1  0
  8  3  1  0
 10 11  1  0
 10  9  1  0
 12 23  2  0
 13 11  1  0
 13 18  1  0
 14 22  1  0
 14 24  1  0
 15 21  1  0
 15 17  1  0
 16 22  1  0
 17 16  1  0
 18 17  2  0
 19 13  2  0
 20 19  1  0
 20 15  2  0
 21 14  1  0
 22 12  1  0
 24 26  2  0
 25 24  1  0
 27 25  1  0
 28 37  2  0
 28 33  1  0
 29 25  1  0
 29 33  1  0
 30 29  1  0
 31 32  1  0
 31 30  1  0
 32 28  1  0
 33 34  2  0
 34 35  1  0
 36 35  2  0
 37 36  1  0
 38 12  1  0
 38 39  1  0
 38 48  1  0
 39 42  1  0
 40 44  1  0
 40 39  1  0
 41 40  2  0
 44 43  1  0
 46 44  1  0
 46 47  1  0
 46 45  1  0
 48 51  1  1
 48 49  1  0
 50 48  1  0
 53 52  1  0
 53 54  2  0
 55 63  1  0
 56 61  1  0
 57 58  1  0
 57 56  1  0
 59 58  1  0
 59 68  1  0
 59 60  1  0
 61 55  1  0
 61 60  1  0
 62 55  2  0
 63 54  1  0
 63 64  1  0
 65 66  2  0
 66 85  1  0
 67 66  1  0
 67 70  1  0
 68 65  1  0
 68 69  1  0
 69 67  2  0
 70 71  1  0
 71 72  2  0
 73 76  1  0
 73 72  1  0
 74 73  2  0
 75 74  1  0
 75 70  2  0
 76 77  1  0
 77 78  1  0
 78 79  2  0
 80 79  1  0
 80 84  1  0
 81 80  2  0
 82 77  2  0
 82 81  1  0
 83 82  1  0
 85 86  1  0
 86 89  1  0
 86 88  1  0
 87 85  2  0
 90 91  1  0
 90 65  1  0
 92 90  1  0
M  ISO  4  10 101  11 101  55 100  63 100
M  END
>  <TORSDO>  (56) 
F 22

>  <SCORE>  (56) 
-13.070

>  <name>  (56) 
55

>  <ligand_id>  (56) 
55

>  <original_smiles>  (56) 
[H]c1c([H])c([H])c2c(c1[H])C([H])([H])C([H])([H])C([H])([H])C2([H])N([H])C(=O)C1([H])N(C(=O)C([H])(N([H])C(=O)C([H])(N([H])C([H])([H])[H])C([H])([H])[H])C(C([H])([H])[H])(C([H])([H])[H])C([H])([H])[H])C([H])([H])c2c([H])c(OC([H])([H])C([H])([H])c3c(C([H])([H])C([H])([H])C([H])([H])N([H])C(=O)N4C([H])([H])C([H])([H])C([H])([H])C([H])(n5nc(-c6c([H])c([H])c(Oc7c([H])c([H])c(F)c([H])c7F)c([H])c6[H])c(C(=O)N([H])[H])c5N([H])[H])C4([H])[H])nnc(C([H])([H])C([H])([H])[H])c3[H])c([H])c([H])c2C1([H])[H]

>  <smiles>  (56) 
[H]c1c([H])c([H])c2c(c1[H])C([H])([H])C([H])([H])C([H])([H])C2([H])N([H])C(=O)C1([H])N(C(=O)C([H])(N([H])C(=O)C([H])(N([H])C([H])([H])[H])C([H])([H])[H])C(C([H])([H])[H])(C([H])([H])[H])C([H])([H])[H])C([H])([H])c2c([H])c(OC([H])([H])C([H])([H])c3c(C([H])([H])C([H])([H])C([H])([H])N([H])C(=O)N4C([H])([H])C([H])([H])C([H])([H])C([H])(n5nc(-c6c([H])c([H])c(Oc7c([H])c([H])c(F)c([H])c7F)c([H])c6[H])c(C(=O)N([H])[H])c5N([H])[H])C4([H])[H])nnc(C([H])([H])C([H])([H])[H])c3[H])c([H])c([H])c2C1([H])[H]

$$$$
56:0:0
     RDKit          3D

 91 99  0  0  1  0  0  0  0  0999 V2000
  -28.9710  -21.6600   18.3440 C   0  0  0  0  0  3  0  0  0  0  0  0
  -29.0050  -20.5950   17.5010 C   0  0  0  0  0  0  0  0  0  0  0  0
  -29.0860  -19.4250   18.3020 C   0  0  0  0  0  0  0  0  0  0  0  0
  -29.1960  -19.7850   19.6300 C   0  0  0  0  0  0  0  0  0  0  0  0
  -28.9180  -20.6510   15.9980 C   0  0  0  0  0  1  0  0  0  0  0  0
  -29.0230  -18.0260   17.7330 C   0  0  0  0  0  1  0  0  0  0  0  0
  -29.0460  -21.2390   19.6590 N   0  0  0  0  0  0  0  0  0  0  0  0
  -29.3110  -18.7080   20.7750 C   0  0  0  0  0  2  0  0  0  0  0  0
  -30.3240  -17.4360   20.6120 C   0  0  0  0  0  2  0  0  0  0  0  0
  -30.6400  -14.8380   20.6430 C   0  0  0  0  0  0  0  0  0  0  0  0
  -30.4710  -12.5660   19.6190 C   0  0  0  0  0  2  0  0  0  0  0  0
  -29.5800  -12.6450   18.3610 C   0  0  0  0  0  2  0  0  0  0  0  0
  -28.0960  -12.4680   18.7340 C   0  0  0  0  0  2  0  0  0  0  0  0
  -27.6750  -13.3480   19.9420 C   0  0  0  0  0  3  0  0  0  0  0  0
  -28.6930  -13.2640   21.1020 C   0  0  0  0  0  2  0  0  0  0  0  0
  -30.0090  -13.6160   20.5560 N   0  0  0  0  0  0  0  0  0  0  0  0
  -31.8330  -14.9320   20.3440 O   0  0  0  0  0  0  0  0  0  0  0  0
  -29.8820  -15.9840   20.8380 N   0  0  0  0  0  0  0  0  0  0  0  0
  -28.9080  -15.8370   21.0520 H   0  0  0  0  0  0  0  0  0  0  0  0
  -25.2550  -13.9200   20.5690 C   0  0  0  0  0  0  0  0  0  0  0  0
  -24.1820  -13.1400   20.9030 C   0  0  0  0  0  0  0  0  0  0  0  0
  -24.6580  -11.7930   20.9040 C   0  0  0  0  0  0  0  0  0  0  0  0
  -26.3150  -13.0490   20.3830 N   0  0  0  0  0  0  0  0  0  0  0  0
  -25.9610  -11.7640   20.6470 N   0  0  0  0  0  0  0  0  0  0  0  0
  -23.9360  -10.5250   21.0750 C   0  0  0  0  0  0  0  0  0  0  0  0
  -24.3360   -9.5690   22.0360 C   0  0  0  0  0  3  0  0  0  0  0  0
  -23.6120   -8.3680   22.1950 C   0  0  0  0  0  3  0  0  0  0  0  0
  -22.4740   -8.1120   21.3930 C   0  0  0  0  0  0  0  0  0  0  0  0
  -22.0930   -9.0570   20.4220 C   0  0  0  0  0  3  0  0  0  0  0  0
  -22.8180  -10.2500   20.2620 C   0  0  0  0  0  3  0  0  0  0  0  0
  -21.7250   -6.9620   21.4590 O   0  0  0  0  0  0  0  0  0  0  0  0
  -21.6290   -6.2320   22.6170 C   0  0  0  0  0  0  0  0  0  0  0  0
  -21.1290   -6.7930   23.8120 C   0  0  0  0  0  3  0  0  0  0  0  0
  -20.9820   -5.9890   24.9600 C   0  0  0  0  0  3  0  0  0  0  0  0
  -21.3260   -4.6250   24.9120 C   0  0  0  0  0  0  0  0  0  0  0  0
  -21.8200   -4.0640   23.7220 C   0  0  0  0  0  3  0  0  0  0  0  0
  -21.9690   -4.8650   22.5770 C   0  0  0  0  0  0  0  0  0  0  0  0
  -22.4240   -4.3140   21.4260 F   0  0  0  0  0  0  0  0  0  0  0  0
  -21.1790   -3.8500   26.0130 F   0  0  0  0  0  0  0  0  0  0  0  0
  -22.7710  -13.6060   21.1120 C   0  0  0  0  0  0  0  0  0  0  0  0
  -22.0140  -12.9080   21.9500 N   0  0  0  0  0  0  0  0  0  0  0  0
  -22.3460  -14.6230   20.5670 O   0  0  0  0  0  0  0  0  0  0  0  0
  -22.3710  -12.0860   22.4150 H   0  0  0  0  0  0  0  0  0  0  0  0
  -21.0640  -13.2000   22.1330 H   0  0  0  0  0  0  0  0  0  0  0  0
  -25.4130  -15.2910   20.3830 N   0  0  0  0  0  0  0  0  0  0  0  0
  -24.6300  -15.9340   20.4460 H   0  0  0  0  0  0  0  0  0  0  0  0
  -26.2610  -15.7330   20.0550 H   0  0  0  0  0  0  0  0  0  0  0  0
  -28.8930  -22.2810   20.7480 C   0  0  0  0  0  2  0  0  0  0  0  0
  -29.1880  -23.8660   20.4460 C   0  0  0  0  0  3  0  0  0  0  0  0
  -28.0400  -24.9620   20.1390 C   0  0  0  0  0  3  0  0  0  0  0  0
  -28.3100  -26.4470   20.2080 O   0  0  0  0  0  0  0  0  0  0  0  0
  -24.6680  -31.9260   23.3020 C   0  0  0  0  0  0  0  0  0  0  0  0
  -27.2170  -27.3480   20.1710 C   0  0  0  0  0  0  0  0  0  0  0  0
  -23.4450  -30.5600   21.6540 C   0  0  0  0  0  3  0  0  0  0  0  0
  -24.8740  -29.0160   20.1940 C   0  0  0  0  0  0  0  0  0  0  0  0
  -25.9910  -30.8480   21.4630 C   0  0  0  0  0  2  0  0  0  0  0  0
  -26.0550  -29.4760   20.7900 C   0  0  0  0  0  0  0  0  0  0  0  0
  -27.2300  -28.6570   20.7630 C   0  0  0  0  0  3  0  0  0  0  0  0
  -26.0100  -26.9570   19.5490 C   0  0  0  0  0  3  0  0  0  0  0  0
  -24.8570  -27.7650   19.5600 C   0  0  0  0  0  3  0  0  0  0  0  0
  -23.6460  -29.9020   20.2630 C   0  0  0  0  0  2  0  0  0  0  0  0
  -24.7210  -31.1290   22.1950 N   0  0  0  0  0  0  0  0  0  0  0  0
  -23.5900  -32.2070   23.8470 O   0  0  0  0  0  0  0  0  0  0  0  0
  -22.7780  -29.5370   22.6040 C   0  0  0  0  0  0  0  0  0  0  0  0
  -21.4520  -29.3590   22.4710 N   0  0  0  0  0  0  0  0  0  0  0  0
  -23.4530  -28.9070   23.4220 O   0  0  0  0  0  0  0  0  0  0  0  0
  -20.9660  -29.9180   21.7840 H   0  0  0  0  0  0  0  0  0  0  0  0
  -18.0750  -28.1420   22.9390 C   0  0  0  0  0  0  0  0  0  0  0  0
  -20.6300  -28.4160   23.2320 C   0  0  0  0  0  3  0  0  0  0  0  0
  -20.7450  -26.9860   22.6540 C   0  0  0  0  0  2  0  0  0  0  0  0
  -19.6540  -26.6600   21.6290 C   0  0  0  0  0  2  0  0  0  0  0  0
  -18.2650  -26.7950   22.2610 C   0  0  0  0  0  2  0  0  0  0  0  0
  -19.1860  -28.9100   23.3800 C   0  0  0  0  0  0  0  0  0  0  0  0
  -18.9530  -30.1700   23.9720 C   0  0  0  0  0  3  0  0  0  0  0  0
  -17.6440  -30.6620   24.1290 C   0  0  0  0  0  3  0  0  0  0  0  0
  -16.5480  -29.8910   23.7050 C   0  0  0  0  0  3  0  0  0  0  0  0
  -16.7650  -28.6330   23.1160 C   0  0  0  0  0  3  0  0  0  0  0  0
  -25.9590  -32.5420   23.9260 C   0  0  0  0  0  3  0  0  0  0  0  0
  -25.6740  -33.9500   24.2390 N   0  0  0  0  0  0  0  0  0  0  0  0
  -26.0390  -34.9890   23.4770 C   0  0  0  0  0  0  0  0  0  0  0  0
  -26.7210  -34.8630   22.4550 O   0  0  0  0  0  0  0  0  0  0  0  0
  -25.0730  -34.1230   25.0310 H   0  0  0  0  0  0  0  0  0  0  0  0
  -24.3680  -36.8260   23.0740 C   0  0  0  0  0  1  0  0  0  0  0  0
  -25.5770  -36.3930   23.9170 C   0  0  0  0  0  3  0  0  0  0  0  0
  -27.7110  -37.2290   24.7990 C   0  0  0  0  0  1  0  0  0  0  0  0
  -26.6400  -37.4180   23.8240 N   0  0  0  0  0  0  0  0  0  0  0  0
  -26.2530  -38.3500   23.9540 H   0  0  0  0  0  0  0  0  0  0  0  0
  -26.4490  -31.7770   25.2170 C   0  0  1  0  0  0  0  0  0  0  0  0
  -25.3440  -31.5760   26.2790 C   0  0  0  0  0  1  0  0  0  0  0  0
  -27.0080  -30.3820   24.8510 C   0  0  0  0  0  1  0  0  0  0  0  0
  -27.6100  -32.5580   25.8780 C   0  0  0  0  0  1  0  0  0  0  0  0
  1  7  1  0
  2  3  1  0
  2  1  2  0
  3  4  2  0
  4  7  1  0
  4  8  1  0
  5  2  1  0
  6  3  1  0
  7 48  1  0
  9  8  1  0
  9 18  1  0
 10 18  1  0
 11 16  1  0
 12 13  1  0
 12 11  1  0
 14 13  1  0
 14 23  1  0
 14 15  1  0
 16 10  1  0
 16 15  1  0
 17 10  2  0
 18 19  1  0
 20 21  2  0
 21 22  1  0
 21 40  1  0
 22 25  1  0
 23 20  1  0
 23 24  1  0
 24 22  2  0
 25 26  1  0
 26 27  2  0
 28 31  1  0
 28 27  1  0
 29 28  2  0
 30 29  1  0
 30 25  2  0
 31 32  1  0
 32 33  1  0
 33 34  2  0
 35 34  1  0
 35 39  1  0
 36 35  2  0
 37 32  2  0
 37 36  1  0
 38 37  1  0
 40 41  1  0
 41 44  1  0
 41 43  1  0
 42 40  2  0
 45 46  1  0
 45 20  1  0
 47 45  1  0
 49 48  1  0
 50 51  1  0
 50 49  2  0
 52 63  2  0
 53 51  1  0
 53 58  1  0
 54 62  1  0
 54 64  1  0
 55 61  1  0
 55 57  1  0
 56 62  1  0
 57 56  1  0
 58 57  2  0
 59 60  1  0
 59 53  2  0
 60 55  2  0
 61 54  1  0
 62 52  1  0
 64 66  2  0
 65 64  1  0
 67 65  1  0
 68 77  2  0
 68 73  1  0
 69 65  1  0
 69 73  1  0
 70 69  1  0
 71 72  1  0
 71 70  1  0
 72 68  1  0
 73 74  2  0
 74 75  1  0
 76 75  2  0
 77 76  1  0
 78 52  1  0
 78 79  1  0
 78 88  1  0
 79 82  1  0
 80 84  1  0
 80 79  1  0
 81 80  2  0
 84 83  1  0
 86 84  1  0
 86 87  1  0
 86 85  1  0
 88 91  1  1
 88 89  1  0
 90 88  1  0
M  ISO  4  10 100  18 100  50 101  51 101
M  END
>  <TORSDO>  (57) 
F 21

>  <SCORE>  (57) 
-13.040

>  <name>  (57) 
56

>  <ligand_id>  (57) 
56

>  <original_smiles>  (57) 
[H]c1c([H])c([H])c2c(c1[H])C([H])([H])C([H])([H])C([H])([H])C2([H])N([H])C(=O)C1([H])N(C(=O)C([H])(N([H])C(=O)C([H])(N([H])C([H])([H])[H])C([H])([H])[H])C(C([H])([H])[H])(C([H])([H])[H])C([H])([H])[H])C([H])([H])c2c([H])c(OC([H])([H])C([H])([H])C([H])([H])n3c([H])c(C([H])([H])[H])c(C([H])([H])[H])c3C([H])([H])C([H])([H])N([H])C(=O)N3C([H])([H])C([H])([H])C([H])([H])C([H])(n4nc(-c5c([H])c([H])c(Oc6c([H])c([H])c(F)c([H])c6F)c([H])c5[H])c(C(=O)N([H])[H])c4N([H])[H])C3([H])[H])c([H])c([H])c2C1([H])[H]

>  <smiles>  (57) 
[H]c1c([H])c([H])c2c(c1[H])C([H])([H])C([H])([H])C([H])([H])C2([H])N([H])C(=O)C1([H])N(C(=O)C([H])(N([H])C(=O)C([H])(N([H])C([H])([H])[H])C([H])([H])[H])C(C([H])([H])[H])(C([H])([H])[H])C([H])([H])[H])C([H])([H])c2c([H])c(OC([H])([H])C([H])([H])C([H])([H])n3c([H])c(C([H])([H])[H])c(C([H])([H])[H])c3C([H])([H])C([H])([H])N([H])C(=O)N3C([H])([H])C([H])([H])C([H])([H])C([H])(n4nc(-c5c([H])c([H])c(Oc6c([H])c([H])c(F)c([H])c6F)c([H])c5[H])c(C(=O)N([H])[H])c4N([H])[H])C3([H])[H])c([H])c([H])c2C1([H])[H]

$$$$
57:0:0
     RDKit          3D

 91 99  0  0  1  0  0  0  0  0999 V2000
  -28.7700  -19.7400   20.5390 C   0  0  0  0  0  3  0  0  0  0  0  0
  -30.5750  -21.6830   19.8920 C   0  0  0  0  0  3  0  0  0  0  0  0
  -28.4380  -21.1450   20.7100 C   0  0  0  0  0  0  0  0  0  0  0  0
  -29.3390  -22.2240   20.3660 C   0  0  0  0  0  0  0  0  0  0  0  0
  -30.0360  -19.3050   20.0610 C   0  0  0  0  0  0  0  0  0  0  0  0
  -27.0900  -21.4610   21.3290 C   0  0  0  0  0  1  0  0  0  0  0  0
  -30.8920  -20.3380   19.7510 N   0  0  0  0  0  0  0  0  0  0  0  0
  -30.0040  -24.2050   21.8820 C   0  0  0  0  0  1  0  0  0  0  0  0
  -29.0790  -23.8250   20.7170 C   0  0  0  0  0  3  0  0  0  0  0  0
  -29.0170  -25.1110   19.6600 C   0  0  0  0  0  2  0  0  0  0  0  0
  -28.9240  -26.6040   20.0680 O   0  0  0  0  0  0  0  0  0  0  0  0
  -24.9020  -31.8070   23.2710 C   0  0  0  0  0  0  0  0  0  0  0  0
  -27.7820  -27.4690   20.0010 C   0  0  0  0  0  0  0  0  0  0  0  0
  -23.8020  -30.4600   21.5220 C   0  0  0  0  0  3  0  0  0  0  0  0
  -25.3540  -29.0560   20.0310 C   0  0  0  0  0  0  0  0  0  0  0  0
  -26.3320  -30.8770   21.4190 C   0  0  0  0  0  2  0  0  0  0  0  0
  -26.4920  -29.5380   20.6870 C   0  0  0  0  0  0  0  0  0  0  0  0
  -27.7020  -28.7570   20.6590 C   0  0  0  0  0  3  0  0  0  0  0  0
  -26.6120  -27.0770   19.3130 C   0  0  0  0  0  3  0  0  0  0  0  0
  -25.4240  -27.8400   19.3310 C   0  0  0  0  0  3  0  0  0  0  0  0
  -24.0800  -29.8820   20.1070 C   0  0  0  0  0  2  0  0  0  0  0  0
  -25.0290  -31.0680   22.1270 N   0  0  0  0  0  0  0  0  0  0  0  0
  -23.7960  -31.9970   23.7990 O   0  0  0  0  0  0  0  0  0  0  0  0
  -23.1650  -29.3600   22.4060 C   0  0  0  0  0  0  0  0  0  0  0  0
  -21.8520  -29.1260   22.2390 N   0  0  0  0  0  0  0  0  0  0  0  0
  -23.8570  -28.7220   23.2040 O   0  0  0  0  0  0  0  0  0  0  0  0
  -21.3490  -29.7030   21.5790 H   0  0  0  0  0  0  0  0  0  0  0  0
  -18.5380  -27.7130   22.5950 C   0  0  0  0  0  0  0  0  0  0  0  0
  -21.0720  -28.0960   22.9300 C   0  0  0  0  0  3  0  0  0  0  0  0
  -21.2630  -26.7100   22.2720 C   0  0  0  0  0  2  0  0  0  0  0  0
  -20.1970  -26.3890   21.2190 C   0  0  0  0  0  2  0  0  0  0  0  0
  -18.8010  -26.4210   21.8420 C   0  0  0  0  0  2  0  0  0  0  0  0
  -19.6050  -28.5070   23.0940 C   0  0  0  0  0  0  0  0  0  0  0  0
  -19.3070  -29.7110   23.7640 C   0  0  0  0  0  3  0  0  0  0  0  0
  -17.9730  -30.1260   23.9380 C   0  0  0  0  0  3  0  0  0  0  0  0
  -16.9220  -29.3320   23.4510 C   0  0  0  0  0  3  0  0  0  0  0  0
  -17.2030  -28.1250   22.7870 C   0  0  0  0  0  3  0  0  0  0  0  0
  -26.1360  -32.4690   23.9580 C   0  0  0  0  0  3  0  0  0  0  0  0
  -26.6530  -31.6610   25.2130 C   0  0  1  0  0  0  0  0  0  0  0  0
  -25.5450  -31.3310   26.2410 C   0  0  0  0  0  1  0  0  0  0  0  0
  -27.3040  -30.3280   24.7790 C   0  0  0  0  0  1  0  0  0  0  0  0
  -27.7540  -32.4710   25.9390 C   0  0  0  0  0  1  0  0  0  0  0  0
  -25.7520  -33.8350   24.3520 N   0  0  0  0  0  0  0  0  0  0  0  0
  -26.0590  -34.9420   23.6640 C   0  0  0  0  0  0  0  0  0  0  0  0
  -26.7610  -34.9240   22.6490 O   0  0  0  0  0  0  0  0  0  0  0  0
  -25.1320  -33.9180   25.1460 H   0  0  0  0  0  0  0  0  0  0  0  0
  -24.2610  -36.6750   23.3620 C   0  0  0  0  0  1  0  0  0  0  0  0
  -25.5010  -36.2830   24.1800 C   0  0  0  0  0  3  0  0  0  0  0  0
  -27.5700  -37.2220   25.1130 C   0  0  0  0  0  1  0  0  0  0  0  0
  -26.4880  -37.3850   24.1460 N   0  0  0  0  0  0  0  0  0  0  0  0
  -26.0360  -38.2780   24.3240 H   0  0  0  0  0  0  0  0  0  0  0  0
  -30.2130  -17.6200   18.1640 C   0  0  0  0  0  1  0  0  0  0  0  0
  -30.5190  -17.7820   19.6660 C   0  0  0  0  0  3  0  0  0  0  0  0
  -30.9180  -15.1990   20.2550 C   0  0  0  0  0  0  0  0  0  0  0  0
  -30.7640  -12.8340   19.3970 C   0  0  0  0  0  2  0  0  0  0  0  0
  -29.8610  -12.8010   18.1430 C   0  0  0  0  0  2  0  0  0  0  0  0
  -28.3880  -12.6190   18.5480 C   0  0  0  0  0  2  0  0  0  0  0  0
  -27.9710  -13.5740   19.6970 C   0  0  0  0  0  3  0  0  0  0  0  0
  -29.0000  -13.5980   20.8470 C   0  0  0  0  0  2  0  0  0  0  0  0
  -30.2960  -13.9560   20.2610 N   0  0  0  0  0  0  0  0  0  0  0  0
  -32.1180  -15.2310   19.9600 O   0  0  0  0  0  0  0  0  0  0  0  0
  -30.1760  -16.4010   20.3210 N   0  0  0  0  0  0  0  0  0  0  0  0
  -29.2200  -16.3080   20.6290 H   0  0  0  0  0  0  0  0  0  0  0  0
  -25.5840  -14.1900   20.3850 C   0  0  0  0  0  0  0  0  0  0  0  0
  -24.5040  -13.4330   20.7440 C   0  0  0  0  0  0  0  0  0  0  0  0
  -24.9530  -12.0760   20.7390 C   0  0  0  0  0  0  0  0  0  0  0  0
  -26.6210  -13.2980   20.1740 N   0  0  0  0  0  0  0  0  0  0  0  0
  -26.2480  -12.0210   20.4510 N   0  0  0  0  0  0  0  0  0  0  0  0
  -24.2060  -10.8240   20.9320 C   0  0  0  0  0  0  0  0  0  0  0  0
  -24.6000   -9.8690   21.8960 C   0  0  0  0  0  3  0  0  0  0  0  0
  -23.8540   -8.6860   22.0770 C   0  0  0  0  0  3  0  0  0  0  0  0
  -22.7000   -8.4470   21.2930 C   0  0  0  0  0  0  0  0  0  0  0  0
  -22.3250   -9.3890   20.3200 C   0  0  0  0  0  3  0  0  0  0  0  0
  -23.0720  -10.5650   20.1370 C   0  0  0  0  0  3  0  0  0  0  0  0
  -21.9320   -7.3100   21.3800 O   0  0  0  0  0  0  0  0  0  0  0  0
  -21.8500   -6.5830   22.5410 C   0  0  0  0  0  0  0  0  0  0  0  0
  -21.3720   -7.1520   23.7420 C   0  0  0  0  0  3  0  0  0  0  0  0
  -21.2390   -6.3520   24.8940 C   0  0  0  0  0  3  0  0  0  0  0  0
  -21.5730   -4.9850   24.8450 C   0  0  0  0  0  0  0  0  0  0  0  0
  -22.0430   -4.4160   23.6490 C   0  0  0  0  0  3  0  0  0  0  0  0
  -22.1770   -5.2130   22.4990 C   0  0  0  0  0  0  0  0  0  0  0  0
  -22.6110   -4.6560   21.3420 F   0  0  0  0  0  0  0  0  0  0  0  0
  -21.4370   -4.2130   25.9500 F   0  0  0  0  0  0  0  0  0  0  0  0
  -23.1080  -13.9290   20.9840 C   0  0  0  0  0  0  0  0  0  0  0  0
  -22.3610  -13.2600   21.8530 N   0  0  0  0  0  0  0  0  0  0  0  0
  -22.6920  -14.9480   20.4340 O   0  0  0  0  0  0  0  0  0  0  0  0
  -22.7120  -12.4380   22.3200 H   0  0  0  0  0  0  0  0  0  0  0  0
  -21.4230  -13.5790   22.0570 H   0  0  0  0  0  0  0  0  0  0  0  0
  -25.7670  -15.5560   20.1940 N   0  0  0  0  0  0  0  0  0  0  0  0
  -25.0090  -16.2230   20.2890 H   0  0  0  0  0  0  0  0  0  0  0  0
  -26.6200  -15.9770   19.8550 H   0  0  0  0  0  0  0  0  0  0  0  0
  1  3  1  0
  2  4  1  0
  3  6  1  0
  4  3  2  0
  4  9  1  0
  5  1  2  0
  7  2  2  0
  7  5  1  0
  9  8  1  0
 10 11  1  0
 10  9  1  0
 12 23  2  0
 13 11  1  0
 13 18  1  0
 14 22  1  0
 14 24  1  0
 15 21  1  0
 15 17  1  0
 16 22  1  0
 17 16  1  0
 18 17  2  0
 19 20  1  0
 19 13  2  0
 20 15  2  0
 21 14  1  0
 22 12  1  0
 24 26  2  0
 25 24  1  0
 27 25  1  0
 28 37  2  0
 28 33  1  0
 29 25  1  0
 29 33  1  0
 30 29  1  0
 31 32  1  0
 31 30  1  0
 32 28  1  0
 33 34  2  0
 34 35  1  0
 36 35  2  0
 37 36  1  0
 38 12  1  0
 38 43  1  0
 38 39  1  0
 39 42  1  1
 39 40  1  0
 41 39  1  0
 43 46  1  0
 44 48  1  0
 44 43  1  0
 45 44  2  0
 48 47  1  0
 50 48  1  0
 50 51  1  0
 50 49  1  0
 53 52  1  0
 53  5  1  0
 53 62  1  0
 54 60  1  0
 54 62  1  0
 55 60  1  0
 56 57  1  0
 56 55  1  0
 58 57  1  0
 58 67  1  0
 58 59  1  0
 60 59  1  0
 61 54  2  0
 62 63  1  0
 64 65  2  0
 65 84  1  0
 66 65  1  0
 66 69  1  0
 67 64  1  0
 67 68  1  0
 68 66  2  0
 69 70  1  0
 70 71  2  0
 72 75  1  0
 72 71  1  0
 73 72  2  0
 74 73  1  0
 74 69  2  0
 75 76  1  0
 76 77  1  0
 77 78  2  0
 79 78  1  0
 79 83  1  0
 80 79  2  0
 81 76  2  0
 81 80  1  0
 82 81  1  0
 84 85  1  0
 85 88  1  0
 85 87  1  0
 86 84  2  0
 89 90  1  0
 89 64  1  0
 91 89  1  0
M  ISO  4  10 101  11 101  54 100  62 100
M  END
>  <TORSDO>  (58) 
F 19

>  <SCORE>  (58) 
-12.322

>  <name>  (58) 
57

>  <ligand_id>  (58) 
57

>  <original_smiles>  (58) 
[H]c1nc(C([H])(N([H])C(=O)N2C([H])([H])C([H])([H])C([H])([H])C([H])(n3nc(-c4c([H])c([H])c(Oc5c([H])c([H])c(F)c([H])c5F)c([H])c4[H])c(C(=O)N([H])[H])c3N([H])[H])C2([H])[H])C([H])([H])[H])c([H])c(C([H])([H])[H])c1C([H])(C([H])([H])[H])C([H])([H])Oc1c([H])c([H])c2c(c1[H])C([H])([H])N(C(=O)C([H])(N([H])C(=O)C([H])(N([H])C([H])([H])[H])C([H])([H])[H])C(C([H])([H])[H])(C([H])([H])[H])C([H])([H])[H])C([H])(C(=O)N([H])C1([H])c3c([H])c([H])c([H])c([H])c3C([H])([H])C([H])([H])C1([H])[H])C2([H])[H]

>  <smiles>  (58) 
[H]c1nc(C([H])(N([H])C(=O)N2C([H])([H])C([H])([H])C([H])([H])C([H])(n3nc(-c4c([H])c([H])c(Oc5c([H])c([H])c(F)c([H])c5F)c([H])c4[H])c(C(=O)N([H])[H])c3N([H])[H])C2([H])[H])C([H])([H])[H])c([H])c(C([H])([H])[H])c1C([H])(C([H])([H])[H])C([H])([H])Oc1c([H])c([H])c2c(c1[H])C([H])([H])N(C(=O)C([H])(N([H])C(=O)C([H])(N([H])C([H])([H])[H])C([H])([H])[H])C(C([H])([H])[H])(C([H])([H])[H])C([H])([H])[H])C([H])(C(=O)N([H])C1([H])c3c([H])c([H])c([H])c([H])c3C([H])([H])C([H])([H])C1([H])[H])C2([H])[H]

$$$$
58:0:0
     RDKit          3D

 89 97  0  0  1  0  0  0  0  0999 V2000
  -29.9020  -23.5030   19.8420 C   0  0  0  0  0  0  0  0  0  0  0  0
  -28.9130  -23.8550   20.7390 C   0  0  0  0  0  0  0  0  0  0  0  0
  -29.7380  -21.3840   20.8650 C   0  0  0  0  0  0  0  0  0  0  0  0
  -30.5520  -24.4240   18.8550 C   0  0  0  0  0  1  0  0  0  0  0  0
  -30.3120  -22.1330   19.9020 N   0  0  0  0  0  0  0  0  0  0  0  0
  -28.5430  -22.4050   21.7210 S   0  0  0  0  0  0  0  0  0  0  0  0
  -28.1070  -25.1760   21.0160 C   0  0  0  0  0  2  0  0  0  0  0  0
  -28.3900  -26.4330   20.2670 O   0  0  0  0  0  0  0  0  0  0  0  0
  -24.6190  -31.8770   23.2170 C   0  0  0  0  0  0  0  0  0  0  0  0
  -27.2960  -27.3280   20.2200 C   0  0  0  0  0  0  0  0  0  0  0  0
  -23.4300  -30.4710   21.5640 C   0  0  0  0  0  3  0  0  0  0  0  0
  -24.9140  -28.9310   20.1500 C   0  0  0  0  0  0  0  0  0  0  0  0
  -25.9700  -30.8000   21.4160 C   0  0  0  0  0  2  0  0  0  0  0  0
  -26.0700  -29.4240   20.7710 C   0  0  0  0  0  0  0  0  0  0  0  0
  -27.2600  -28.6300   20.8140 C   0  0  0  0  0  3  0  0  0  0  0  0
  -26.1170  -26.8870   19.5810 C   0  0  0  0  0  3  0  0  0  0  0  0
  -24.9400  -27.6610   19.5480 C   0  0  0  0  0  3  0  0  0  0  0  0
  -23.6680  -29.8000   20.1810 C   0  0  0  0  0  2  0  0  0  0  0  0
  -24.6850  -31.0690   22.1180 N   0  0  0  0  0  0  0  0  0  0  0  0
  -23.5330  -32.1540   23.7480 O   0  0  0  0  0  0  0  0  0  0  0  0
  -22.7680  -29.4480   22.5200 C   0  0  0  0  0  0  0  0  0  0  0  0
  -21.4410  -29.2710   22.4040 N   0  0  0  0  0  0  0  0  0  0  0  0
  -23.4510  -28.8170   23.3310 O   0  0  0  0  0  0  0  0  0  0  0  0
  -20.9460  -29.8340   21.7310 H   0  0  0  0  0  0  0  0  0  0  0  0
  -18.0640  -28.0780   22.9240 C   0  0  0  0  0  0  0  0  0  0  0  0
  -20.6270  -28.3310   23.1790 C   0  0  0  0  0  3  0  0  0  0  0  0
  -20.7210  -26.9010   22.6020 C   0  0  0  0  0  2  0  0  0  0  0  0
  -19.6120  -26.5850   21.5920 C   0  0  0  0  0  2  0  0  0  0  0  0
  -18.2330  -26.7310   22.2440 C   0  0  0  0  0  2  0  0  0  0  0  0
  -19.1870  -28.8360   23.3470 C   0  0  0  0  0  0  0  0  0  0  0  0
  -18.9750  -30.1000   23.9410 C   0  0  0  0  0  3  0  0  0  0  0  0
  -17.6730  -30.6030   24.1190 C   0  0  0  0  0  3  0  0  0  0  0  0
  -16.5650  -29.8410   23.7140 C   0  0  0  0  0  3  0  0  0  0  0  0
  -16.7620  -28.5820   23.1210 C   0  0  0  0  0  3  0  0  0  0  0  0
  -25.9020  -32.5130   23.8400 C   0  0  0  0  0  3  0  0  0  0  0  0
  -26.4300  -31.7470   25.1170 C   0  0  1  0  0  0  0  0  0  0  0  0
  -25.3410  -31.4970   26.1880 C   0  0  0  0  0  1  0  0  0  0  0  0
  -27.0300  -30.3740   24.7300 C   0  0  0  0  0  1  0  0  0  0  0  0
  -27.5830  -32.5480   25.7690 C   0  0  0  0  0  1  0  0  0  0  0  0
  -25.5930  -33.9120   24.1740 N   0  0  0  0  0  0  0  0  0  0  0  0
  -25.9190  -34.9650   23.4120 C   0  0  0  0  0  0  0  0  0  0  0  0
  -26.5890  -34.8650   22.3810 O   0  0  0  0  0  0  0  0  0  0  0  0
  -25.0140  -34.0660   24.9870 H   0  0  0  0  0  0  0  0  0  0  0  0
  -24.1890  -36.7460   23.0520 C   0  0  0  0  0  1  0  0  0  0  0  0
  -25.4250  -36.3510   23.8720 C   0  0  0  0  0  3  0  0  0  0  0  0
  -27.5630  -37.2210   24.7040 C   0  0  0  0  0  1  0  0  0  0  0  0
  -26.4530  -37.4100   23.7740 N   0  0  0  0  0  0  0  0  0  0  0  0
  -26.0420  -38.3220   23.9590 H   0  0  0  0  0  0  0  0  0  0  0  0
  -30.2540  -19.9770   21.3350 C   0  0  0  0  0  2  0  0  0  0  0  0
  -29.6020  -18.5560   20.9410 C   0  0  0  0  0  3  0  0  0  0  0  0
  -30.5150  -17.2350   21.1650 C   0  0  0  0  0  3  0  0  0  0  0  0
  -30.6710  -14.7210   20.3980 C   0  0  0  0  0  0  0  0  0  0  0  0
  -30.4200  -12.4890   19.2800 C   0  0  0  0  0  2  0  0  0  0  0  0
  -29.4690  -12.5790   18.0650 C   0  0  0  0  0  2  0  0  0  0  0  0
  -28.0000  -12.4200   18.4950 C   0  0  0  0  0  2  0  0  0  0  0  0
  -27.6410  -13.2790   19.7350 C   0  0  0  0  0  3  0  0  0  0  0  0
  -28.7090  -13.1600   20.8470 C   0  0  0  0  0  2  0  0  0  0  0  0
  -30.0070  -13.5220   20.2630 N   0  0  0  0  0  0  0  0  0  0  0  0
  -31.8220  -14.8340   19.9740 O   0  0  0  0  0  0  0  0  0  0  0  0
  -29.9870  -15.8240   20.8880 N   0  0  0  0  0  0  0  0  0  0  0  0
  -29.0490  -15.6280   21.2010 H   0  0  0  0  0  0  0  0  0  0  0  0
  -25.2430  -13.8560   20.4400 C   0  0  0  0  0  0  0  0  0  0  0  0
  -24.1800  -13.0760   20.8140 C   0  0  0  0  0  0  0  0  0  0  0  0
  -24.6510  -11.7270   20.7920 C   0  0  0  0  0  0  0  0  0  0  0  0
  -26.2950  -12.9790   20.2210 N   0  0  0  0  0  0  0  0  0  0  0  0
  -25.9440  -11.6960   20.4880 N   0  0  0  0  0  0  0  0  0  0  0  0
  -23.9280  -10.4640   20.9880 C   0  0  0  0  0  0  0  0  0  0  0  0
  -24.3590   -9.5010   21.9270 C   0  0  0  0  0  3  0  0  0  0  0  0
  -23.6340   -8.3040   22.1140 C   0  0  0  0  0  3  0  0  0  0  0  0
  -22.4630   -8.0600   21.3570 C   0  0  0  0  0  0  0  0  0  0  0  0
  -22.0510   -9.0090   20.4070 C   0  0  0  0  0  3  0  0  0  0  0  0
  -22.7770  -10.1970   20.2200 C   0  0  0  0  0  3  0  0  0  0  0  0
  -21.7100   -6.9150   21.4500 O   0  0  0  0  0  0  0  0  0  0  0  0
  -21.6550   -6.1790   22.6070 C   0  0  0  0  0  0  0  0  0  0  0  0
  -21.2220   -6.7410   23.8270 C   0  0  0  0  0  3  0  0  0  0  0  0
  -21.1170   -5.9330   24.9770 C   0  0  0  0  0  3  0  0  0  0  0  0
  -21.4370   -4.5640   24.9080 C   0  0  0  0  0  0  0  0  0  0  0  0
  -21.8680   -4.0020   23.6940 C   0  0  0  0  0  3  0  0  0  0  0  0
  -21.9730   -4.8070   22.5460 C   0  0  0  0  0  0  0  0  0  0  0  0
  -22.3650   -4.2540   21.3710 F   0  0  0  0  0  0  0  0  0  0  0  0
  -21.3320   -3.7860   26.0110 F   0  0  0  0  0  0  0  0  0  0  0  0
  -22.7830  -13.5510   21.0820 C   0  0  0  0  0  0  0  0  0  0  0  0
  -22.0570  -12.8570   21.9530 N   0  0  0  0  0  0  0  0  0  0  0  0
  -22.3410  -14.5710   20.5580 O   0  0  0  0  0  0  0  0  0  0  0  0
  -22.4250  -12.0270   22.3950 H   0  0  0  0  0  0  0  0  0  0  0  0
  -21.1210  -13.1620   22.1830 H   0  0  0  0  0  0  0  0  0  0  0  0
  -25.4060  -15.2230   20.2480 N   0  0  0  0  0  0  0  0  0  0  0  0
  -24.6420  -15.8890   20.3340 H   0  0  0  0  0  0  0  0  0  0  0  0
  -26.2560  -15.6460   19.8950 H   0  0  0  0  0  0  0  0  0  0  0  0
  1  5  1  0
  1  2  2  0
  2  7  1  0
  2  6  1  0
  3 49  1  0
  3  6  1  0
  4  1  1  0
  5  3  2  0
  8  7  1  0
  9 20  2  0
 10  8  1  0
 10 15  1  0
 11 19  1  0
 11 21  1  0
 12 18  1  0
 12 14  1  0
 13 19  1  0
 14 15  2  0
 14 13  1  0
 16 10  2  0
 17 16  1  0
 17 12  2  0
 18 11  1  0
 19  9  1  0
 21 23  2  0
 22 21  1  0
 24 22  1  0
 25 34  2  0
 25 30  1  0
 26 22  1  0
 26 30  1  0
 27 26  1  0
 28 29  1  0
 28 27  1  0
 29 25  1  0
 30 31  2  0
 31 32  1  0
 33 32  2  0
 34 33  1  0
 35  9  1  0
 35 40  1  0
 35 36  1  0
 36 39  1  1
 36 37  1  0
 38 36  1  0
 40 43  1  0
 41 45  1  0
 41 40  1  0
 42 41  2  0
 45 44  1  0
 47 45  1  0
 47 48  1  0
 47 46  1  0
 50 51  2  0
 50 49  1  0
 52 60  1  0
 53 58  1  0
 54 55  1  0
 54 53  1  0
 56 55  1  0
 56 65  1  0
 56 57  1  0
 58 52  1  0
 58 57  1  0
 59 52  2  0
 60 51  1  0
 60 61  1  0
 62 63  2  0
 63 82  1  0
 64 63  1  0
 64 67  1  0
 65 62  1  0
 65 66  1  0
 66 64  2  0
 67 68  1  0
 68 69  2  0
 70 73  1  0
 70 69  1  0
 71 70  2  0
 72 71  1  0
 72 67  2  0
 73 74  1  0
 74 75  1  0
 75 76  2  0
 77 76  1  0
 77 81  1  0
 78 77  2  0
 79 74  2  0
 79 78  1  0
 80 79  1  0
 82 83  1  0
 83 86  1  0
 83 85  1  0
 84 82  2  0
 87 88  1  0
 87 62  1  0
 89 87  1  0
M  ISO  4   7 101   8 101  52 100  60 100
M  END
>  <TORSDO>  (59) 
F 20

>  <SCORE>  (59) 
-13.699

>  <name>  (59) 
58

>  <ligand_id>  (59) 
58

>  <original_smiles>  (59) 
[H]c1c([H])c([H])c2c(c1[H])C([H])([H])C([H])([H])C([H])([H])C2([H])N([H])C(=O)C1([H])N(C(=O)C([H])(N([H])C(=O)C([H])(N([H])C([H])([H])[H])C([H])([H])[H])C(C([H])([H])[H])(C([H])([H])[H])C([H])([H])[H])C([H])([H])c2c([H])c(OC([H])([H])c3sc(C([H])([H])C([H])([H])C([H])([H])N([H])C(=O)N4C([H])([H])C([H])([H])C([H])([H])C([H])(n5nc(-c6c([H])c([H])c(Oc7c([H])c([H])c(F)c([H])c7F)c([H])c6[H])c(C(=O)N([H])[H])c5N([H])[H])C4([H])[H])nc3C([H])([H])[H])c([H])c([H])c2C1([H])[H]

>  <smiles>  (59) 
[H]c1c([H])c([H])c2c(c1[H])C([H])([H])C([H])([H])C([H])([H])C2([H])N([H])C(=O)C1([H])N(C(=O)C([H])(N([H])C(=O)C([H])(N([H])C([H])([H])[H])C([H])([H])[H])C(C([H])([H])[H])(C([H])([H])[H])C([H])([H])[H])C([H])([H])c2c([H])c(OC([H])([H])c3sc(C([H])([H])C([H])([H])C([H])([H])N([H])C(=O)N4C([H])([H])C([H])([H])C([H])([H])C([H])(n5nc(-c6c([H])c([H])c(Oc7c([H])c([H])c(F)c([H])c7F)c([H])c6[H])c(C(=O)N([H])[H])c5N([H])[H])C4([H])[H])nc3C([H])([H])[H])c([H])c([H])c2C1([H])[H]

$$$$
59:0:0
     RDKit          3D

 95 93  0  0  1  0  0  0  0  0999 V2000
  -31.4120  -18.8270   20.9730 C   0  0  0  0  0  1  0  0  0  0  0  0
  -29.7880  -19.4080   20.0180 C   0  0  0  0  0 15  0  0  0  0  0  0
  -32.8220  -17.6440   20.1290 C   0  0  0  0  0  1  0  0  0  0  0  0
  -29.4330  -18.3150   18.3840 C   0  0  0  0  0  1  0  0  0  0  0  0
  -32.4310  -16.8090   18.4150 N   0  0  0  0  0 15  0  0  0  0  0  0
  -30.7500  -17.1340   17.5700 N   0  0  0  0  0 15  0  0  0  0  0  0
  -27.5820  -21.2060   19.7660 C   0  0  0  0  0  1  0  0  0  0  0  0
  -29.0740  -21.3940   20.0090 C   0  0  0  0  0  1  0  0  0  0  0  0
  -28.8320  -23.4490   20.7350 C   0  0  0  0  0 15  0  0  0  0  0  0
  -28.5200  -25.4040   20.5830 O   0  0  0  0  0  1  0  0  0  0  0  0
  -24.7060  -32.0950   23.4090 C   0  0  0  0  0  0  0  0  0  0  0  0
  -27.4870  -26.7190   20.6210 C   0  0  0  0  0  0  0  0  0  0  0  0
  -23.6230  -30.6360   21.7650 C   0  0  0  0  0  3  0  0  0  0  0  0
  -25.1670  -28.9200   20.4640 C   0  0  0  0  0  0  0  0  0  0  0  0
  -26.2190  -30.7370   21.7650 C   0  0  0  0  0  2  0  0  0  0  0  0
  -26.3460  -29.2530   21.1380 C   0  0  0  0  0  0  0  0  0  0  0  0
  -27.4720  -28.2030   21.1570 C   0  0  0  0  0  3  0  0  0  0  0  0
  -26.2450  -26.6920   19.8920 C   0  0  0  0  0  3  0  0  0  0  0  0
  -25.1750  -27.6670   19.8180 C   0  0  0  0  0  3  0  0  0  0  0  0
  -23.9500  -29.8860   20.4350 C   0  0  0  0  0  2  0  0  0  0  0  0
  -24.8760  -31.1980   22.3640 N   0  0  0  0  0  0  0  0  0  0  0  0
  -23.5850  -32.3920   23.8600 O   0  0  0  0  0  0  0  0  0  0  0  0
  -22.8600  -29.6920   22.7350 C   0  0  0  0  0  0  0  0  0  0  0  0
  -21.5370  -29.4960   22.5500 N   0  0  0  0  0  0  0  0  0  0  0  0
  -23.4800  -29.1230   23.6380 O   0  0  0  0  0  0  0  0  0  0  0  0
  -21.0790  -30.0050   21.8080 H   0  0  0  0  0  0  0  0  0  0  0  0
  -18.1740  -28.1470   22.9320 C   0  0  0  0  0  0  0  0  0  0  0  0
  -20.7040  -28.5510   23.3120 C   0  0  0  0  0  3  0  0  0  0  0  0
  -20.8990  -27.1070   22.7960 C   0  0  0  0  0  2  0  0  0  0  0  0
  -19.8680  -26.6990   21.7380 C   0  0  0  0  0  2  0  0  0  0  0  0
  -18.4490  -26.7930   22.3030 C   0  0  0  0  0  2  0  0  0  0  0  0
  -19.2310  -28.9810   23.3900 C   0  0  0  0  0  0  0  0  0  0  0  0
  -18.9140  -30.2420   23.9410 C   0  0  0  0  0  3  0  0  0  0  0  0
  -17.5770  -30.6710   24.0380 C   0  0  0  0  0  3  0  0  0  0  0  0
  -16.5360  -29.8390   23.5900 C   0  0  0  0  0  3  0  0  0  0  0  0
  -16.8360  -28.5790   23.0430 C   0  0  0  0  0  3  0  0  0  0  0  0
  -25.9130  -32.8030   24.0980 C   0  0  0  0  0  3  0  0  0  0  0  0
  -25.5660  -34.2250   24.3210 N   0  0  0  0  0  0  0  0  0  0  0  0
  -25.9430  -35.2520   23.5440 C   0  0  0  0  0  0  0  0  0  0  0  0
  -26.6650  -35.1000   22.5560 O   0  0  0  0  0  0  0  0  0  0  0  0
  -24.9220  -34.4120   25.0760 H   0  0  0  0  0  0  0  0  0  0  0  0
  -24.2370  -37.0440   23.0410 C   0  0  0  0  0  1  0  0  0  0  0  0
  -25.4450  -36.6660   23.9140 C   0  0  0  0  0  3  0  0  0  0  0  0
  -27.5470  -37.6070   24.7760 C   0  0  0  0  0  1  0  0  0  0  0  0
  -26.4840  -37.7140   23.7820 N   0  0  0  0  0  0  0  0  0  0  0  0
  -26.0710  -38.6400   23.8600 H   0  0  0  0  0  0  0  0  0  0  0  0
  -26.3080  -32.1420   25.4770 C   0  0  1  0  0  0  0  0  0  0  0  0
  -25.1210  -31.9840   26.4580 C   0  0  0  0  0  1  0  0  0  0  0  0
  -26.9210  -30.7410   25.2690 C   0  0  0  0  0  1  0  0  0  0  0  0
  -27.3950  -32.9950   26.1750 C   0  0  0  0  0  1  0  0  0  0  0  0
  -28.3780  -17.9530   16.0550 C   0  0  0  0  0  1  0  0  0  0  0  0
  -28.4850  -18.8400   17.3080 C   0  0  0  0  0  2  0  0  0  0  0  0
  -31.0530  -18.5710   23.4280 C   0  0  0  0  0  1  0  0  0  0  0  0
  -31.7320  -19.4080   22.3300 C   0  0  0  0  0  2  0  0  0  0  0  0
  -34.1950  -18.1750   20.2470 C   0  0  0  0  0  2  0  0  0  0  0  0
  -34.0500  -19.4740   19.4300 C   0  0  0  0  0  3  0  0  0  0  0  0
  -32.7040  -19.6430   18.6060 C   0  0  0  0  0  3  0  0  0  0  0  0
  -30.6380  -16.8110   20.2210 C   0  0  0  0  0  2  0  0  0  0  0  0
  -30.7790  -14.0830   19.3040 C   0  0  0  0  0  2  0  0  0  0  0  0
  -29.9340  -13.3940   18.1790 C   0  0  0  0  0  2  0  0  0  0  0  0
  -28.5480  -12.9510   18.6760 C   0  0  0  0  0  2  0  0  0  0  0  0
  -27.9620  -13.9830   19.6530 C   0  0  0  0  0  3  0  0  0  0  0  0
  -29.0240  -14.5600   20.6550 C   0  0  0  0  0  2  0  0  0  0  0  0
  -30.0860  -15.3740   19.8770 N   0  0  0  0  0  0  0  0  0  0  0  0
  -31.2350  -16.2120   21.1620 O   0  0  0  0  0  1  0  0  0  0  0  0
  -31.5060  -18.7130   18.8640 N   0  0  0  0  0  2  0  0  0  0  0  0
  -31.1590  -18.4170   17.9530 H   0  0  0  0  0  0  0  0  0  0  0  0
  -25.5730  -14.4310   20.4200 C   0  0  0  0  0  0  0  0  0  0  0  0
  -24.5100  -13.6320   20.7340 C   0  0  0  0  0  0  0  0  0  0  0  0
  -24.9940  -12.2860   20.6890 C   0  0  0  0  0  0  0  0  0  0  0  0
  -26.6500  -13.5900   20.2040 N   0  0  0  0  0  0  0  0  0  0  0  0
  -26.3060  -12.2850   20.4200 N   0  0  0  0  0  0  0  0  0  0  0  0
  -24.2590  -11.0140   20.8260 C   0  0  0  0  0  0  0  0  0  0  0  0
  -24.6440  -10.0310   21.7650 C   0  0  0  0  0  3  0  0  0  0  0  0
  -23.9040   -8.8340   21.9070 C   0  0  0  0  0  3  0  0  0  0  0  0
  -22.7560   -8.6070   21.1090 C   0  0  0  0  0  0  0  0  0  0  0  0
  -22.3830   -9.5790   20.1620 C   0  0  0  0  0  3  0  0  0  0  0  0
  -23.1260  -10.7660   20.0210 C   0  0  0  0  0  3  0  0  0  0  0  0
  -21.9950   -7.4630   21.1540 O   0  0  0  0  0  0  0  0  0  0  0  0
  -21.9070   -6.7010   22.2920 C   0  0  0  0  0  0  0  0  0  0  0  0
  -21.4570   -7.2370   23.5170 C   0  0  0  0  0  3  0  0  0  0  0  0
  -21.3230   -6.4050   24.6460 C   0  0  0  0  0  3  0  0  0  0  0  0
  -21.6240   -5.0330   24.5480 C   0  0  0  0  0  0  0  0  0  0  0  0
  -22.0670   -4.4950   23.3260 C   0  0  0  0  0  3  0  0  0  0  0  0
  -22.2080   -5.3260   22.2020 C   0  0  0  0  0  0  0  0  0  0  0  0
  -22.6170   -4.7970   21.0240 F   0  0  0  0  0  0  0  0  0  0  0  0
  -21.4850   -4.2290   25.6290 F   0  0  0  0  0  0  0  0  0  0  0  0
  -23.0910  -14.0870   20.9470 C   0  0  0  0  0  0  0  0  0  0  0  0
  -22.3320  -13.3850   21.7780 N   0  0  0  0  0  0  0  0  0  0  0  0
  -22.6650  -15.1100   20.4090 O   0  0  0  0  0  0  0  0  0  0  0  0
  -22.6880  -12.5580   22.2400 H   0  0  0  0  0  0  0  0  0  0  0  0
  -21.3830  -13.6750   21.9670 H   0  0  0  0  0  0  0  0  0  0  0  0
  -25.7120  -15.8070   20.2520 N   0  0  0  0  0  0  0  0  0  0  0  0
  -24.9220  -16.4390   20.3450 H   0  0  0  0  0  0  0  0  0  0  0  0
  -26.5650  -16.2660   19.9590 H   0  0  0  0  0  0  0  0  0  0  0  0
  1 54  1  0
  3 55  1  0
  7  8  1  0
 10 12  1  0
 11 22  2  0
 12 17  1  0
 13 21  1  0
 13 23  1  0
 14 16  1  0
 15 21  1  0
 16 17  2  0
 16 15  1  0
 18 12  2  0
 19 18  1  0
 19 14  2  0
 20 14  1  0
 20 13  1  0
 21 11  1  0
 23 25  2  0
 24 23  1  0
 26 24  1  0
 27 36  2  0
 27 32  1  0
 28 24  1  0
 28 32  1  0
 29 28  1  0
 30 31  1  0
 30 29  1  0
 31 27  1  0
 32 33  2  0
 33 34  1  0
 35 34  2  0
 36 35  1  0
 37 11  1  0
 37 38  1  0
 37 47  1  0
 38 41  1  0
 39 43  1  0
 39 38  1  0
 40 39  2  0
 43 42  1  0
 45 46  1  0
 45 43  1  0
 45 44  1  0
 47 50  1  1
 47 48  1  0
 49 47  1  0
 51 52  1  0
 52  4  1  0
 54 53  1  0
 56 55  1  0
 57 66  1  0
 57 56  2  0
 58 65  1  0
 59 64  1  0
 60 61  1  0
 60 59  1  0
 62 61  1  0
 62 71  1  0
 62 63  1  0
 64 58  1  0
 64 63  1  0
 67 66  1  0
 68 69  2  0
 69 88  1  0
 70 69  1  0
 70 73  1  0
 71 72  1  0
 71 68  1  0
 72 70  2  0
 73 74  1  0
 74 75  2  0
 76 79  1  0
 76 75  1  0
 77 76  2  0
 78 77  1  0
 78 73  2  0
 79 80  1  0
 80 81  1  0
 81 82  2  0
 83 82  1  0
 83 87  1  0
 84 83  2  0
 85 80  2  0
 85 84  1  0
 86 85  1  0
 88 89  1  0
 89 92  1  0
 89 91  1  0
 90 88  2  0
 93 94  1  0
 93 68  1  0
 95 93  1  0
M  ISO  4   9 101  10 101  58 100  66 100
M  END
>  <TORSDO>  (60) 
F 23

>  <SCORE>  (60) 
-12.402

>  <name>  (60) 
59

>  <ligand_id>  (60) 
59

>  <original_smiles>  (60) 
[H]c1c([H])c([H])c2c(c1[H])C([H])([H])C([H])([H])C([H])([H])C2([H])N([H])C(=O)C1([H])N(C(=O)C([H])(N([H])C(=O)C([H])(N([H])C([H])([H])[H])C([H])([H])[H])C(C([H])([H])[H])(C([H])([H])[H])C([H])([H])[H])C([H])([H])c2c([H])c(OC([H])([H])C([H])(c3c(C([H])([H])C([H])([H])[H])nnc(C([H])([H])C([H])([H])C([H])([H])N([H])C(=O)N4C([H])([H])C([H])([H])C([H])([H])C([H])(n5nc(-c6c([H])c([H])c(Oc7c([H])c([H])c(F)c([H])c7F)c([H])c6[H])c(C(=O)N([H])[H])c5N([H])[H])C4([H])[H])c3C([H])([H])C([H])([H])[H])C([H])([H])[H])c([H])c([H])c2C1([H])[H]

>  <smiles>  (60) 
[H]c1c([H])c([H])c2c(c1[H])C([H])([H])C([H])([H])C([H])([H])C2([H])N([H])C(=O)C1([H])N(C(=O)C([H])(N([H])C(=O)C([H])(N([H])C([H])([H])[H])C([H])([H])[H])C(C([H])([H])[H])(C([H])([H])[H])C([H])([H])[H])C([H])([H])c2c([H])c(OC([H])([H])C([H])(c3c(C([H])([H])C([H])([H])[H])nnc(C([H])([H])C([H])([H])C([H])([H])N([H])C(=O)N4C([H])([H])C([H])([H])C([H])([H])C([H])(n5nc(-c6c([H])c([H])c(Oc7c([H])c([H])c(F)c([H])c7F)c([H])c6[H])c(C(=O)N([H])[H])c5N([H])[H])C4([H])[H])c3C([H])([H])C([H])([H])[H])C([H])([H])[H])c([H])c([H])c2C1([H])[H]

$$$$
60:0:0
     RDKit          3D

 99107  0  0  1  0  0  0  0  0999 V2000
  -31.7470  -23.1040   19.0130 C   0  0  0  0  0  2  0  0  0  0  0  0
  -33.0350  -20.8280   18.8100 C   0  0  0  0  0  3  0  0  0  0  0  0
  -31.9170  -21.6160   19.1900 C   0  0  0  0  0  0  0  0  0  0  0  0
  -32.8720  -19.6470   19.4770 C   0  0  0  0  0  0  0  0  0  0  0  0
  -33.8430  -18.5150   19.5810 C   0  0  0  0  0  1  0  0  0  0  0  0
  -31.0510  -20.9160   19.9120 N   0  0  0  0  0  0  0  0  0  0  0  0
  -31.6410  -19.7110   20.1230 N   0  0  0  0  0  0  0  0  0  0  0  0
  -31.0020  -18.7810   21.0590 C   0  0  0  0  0  2  0  0  0  0  0  0
  -30.5510  -17.3660   18.9360 C   0  0  0  0  0  1  0  0  0  0  0  0
  -28.9630  -17.2820   20.8540 C   0  0  0  0  0  1  0  0  0  0  0  0
  -30.4580  -17.4290   20.4800 C   0  0  2  0  0  0  0  0  0  0  0  0
  -31.2390  -16.2650   21.1540 C   0  0  0  0  0  2  0  0  0  0  0  0
  -31.1370  -13.9800   20.1620 C   0  0  0  0  0  0  0  0  0  0  0  0
  -30.6890  -11.8000   19.1150 C   0  0  0  0  0  2  0  0  0  0  0  0
  -29.7440  -11.9900   17.9150 C   0  0  0  0  0  2  0  0  0  0  0  0
  -28.2680  -11.9690   18.3590 C   0  0  0  0  0  2  0  0  0  0  0  0
  -28.0020  -12.8990   19.5760 C   0  0  0  0  0  3  0  0  0  0  0  0
  -29.0500  -12.6600   20.6860 C   0  0  0  0  0  2  0  0  0  0  0  0
  -30.3870  -12.8500   20.0950 N   0  0  0  0  0  0  0  0  0  0  0  0
  -32.1880  -14.1330   19.5330 O   0  0  0  0  0  0  0  0  0  0  0  0
  -30.6400  -14.9450   20.9470 N   0  0  0  0  0  0  0  0  0  0  0  0
  -29.7910  -14.7340   21.4460 H   0  0  0  0  0  0  0  0  0  0  0  0
  -25.6680  -13.7030   20.3090 C   0  0  0  0  0  0  0  0  0  0  0  0
  -24.5500  -13.0220   20.7120 C   0  0  0  0  0  0  0  0  0  0  0  0
  -24.9020  -11.6380   20.6900 C   0  0  0  0  0  0  0  0  0  0  0  0
  -26.6370  -12.7400   20.0770 N   0  0  0  0  0  0  0  0  0  0  0  0
  -26.1780  -11.4920   20.3560 N   0  0  0  0  0  0  0  0  0  0  0  0
  -24.0830  -10.4380   20.9080 C   0  0  0  0  0  0  0  0  0  0  0  0
  -24.4520   -9.4550   21.8520 C   0  0  0  0  0  3  0  0  0  0  0  0
  -23.6400   -8.3200   22.0580 C   0  0  0  0  0  3  0  0  0  0  0  0
  -22.4430   -8.1570   21.3190 C   0  0  0  0  0  0  0  0  0  0  0  0
  -22.0910   -9.1300   20.3650 C   0  0  0  0  0  3  0  0  0  0  0  0
  -22.9040  -10.2560   20.1580 C   0  0  0  0  0  3  0  0  0  0  0  0
  -21.6040   -7.0760   21.4360 O   0  0  0  0  0  0  0  0  0  0  0  0
  -21.5100   -6.3610   22.6040 C   0  0  0  0  0  0  0  0  0  0  0  0
  -21.1270   -6.9660   23.8210 C   0  0  0  0  0  3  0  0  0  0  0  0
  -20.9720   -6.1780   24.9800 C   0  0  0  0  0  3  0  0  0  0  0  0
  -21.1930   -4.7890   24.9240 C   0  0  0  0  0  0  0  0  0  0  0  0
  -21.5680   -4.1830   23.7110 C   0  0  0  0  0  3  0  0  0  0  0  0
  -21.7220   -4.9690   22.5530 C   0  0  0  0  0  0  0  0  0  0  0  0
  -22.0620   -4.3780   21.3840 F   0  0  0  0  0  0  0  0  0  0  0  0
  -21.0360   -4.0300   26.0340 F   0  0  0  0  0  0  0  0  0  0  0  0
  -23.2010  -13.6120   21.0060 C   0  0  0  0  0  0  0  0  0  0  0  0
  -22.4380  -12.9910   21.9000 N   0  0  0  0  0  0  0  0  0  0  0  0
  -22.8300  -14.6580   20.4720 O   0  0  0  0  0  0  0  0  0  0  0  0
  -22.7450  -12.1460   22.3560 H   0  0  0  0  0  0  0  0  0  0  0  0
  -21.5320  -13.3720   22.1320 H   0  0  0  0  0  0  0  0  0  0  0  0
  -25.9410  -15.0520   20.1060 N   0  0  0  0  0  0  0  0  0  0  0  0
  -25.2350  -15.7730   20.2210 H   0  0  0  0  0  0  0  0  0  0  0  0
  -26.8170  -15.4090   19.7500 H   0  0  0  0  0  0  0  0  0  0  0  0
  -30.8530  -23.5520   17.9050 N   0  0  2  0  0  4  0  0  0  0  0  0
  -29.9350  -23.2310   18.1740 H   0  0  0  0  0  0  0  0  0  0  0  0
  -32.4840  -23.3490   15.9690 C   0  0  0  0  0  1  0  0  0  0  0  0
  -30.0010  -23.0820   15.5600 C   0  0  0  0  0  1  0  0  0  0  0  0
  -31.1410  -22.8960   16.5850 C   0  0  0  0  0  3  0  0  0  0  0  0
  -30.8190  -25.0450   17.8040 C   0  0  0  0  0  2  0  0  0  0  0  0
  -30.2510  -25.8030   19.0210 C   0  0  0  0  0  2  0  0  0  0  0  0
  -28.7220  -25.8290   19.1220 C   0  0  0  0  0  2  0  0  0  0  0  0
  -28.4370  -26.7260   20.1850 O   0  0  0  0  0  0  0  0  0  0  0  0
  -24.6210  -31.8500   23.2350 C   0  0  0  0  0  0  0  0  0  0  0  0
  -27.2390  -27.3970   20.1730 C   0  0  0  0  0  0  0  0  0  0  0  0
  -23.3990  -30.4430   21.6060 C   0  0  0  0  0  3  0  0  0  0  0  0
  -24.8390  -28.8820   20.1940 C   0  0  0  0  0  0  0  0  0  0  0  0
  -25.9210  -30.7900   21.3980 C   0  0  0  0  0  2  0  0  0  0  0  0
  -25.9970  -29.4130   20.7770 C   0  0  0  0  0  0  0  0  0  0  0  0
  -27.1940  -28.6700   20.7770 C   0  0  0  0  0  3  0  0  0  0  0  0
  -26.0630  -26.8630   19.5990 C   0  0  0  0  0  3  0  0  0  0  0  0
  -24.8650  -27.6030   19.6080 C   0  0  0  0  0  3  0  0  0  0  0  0
  -23.5980  -29.7430   20.2330 C   0  0  0  0  0  2  0  0  0  0  0  0
  -24.6650  -31.0430   22.1380 N   0  0  0  0  0  0  0  0  0  0  0  0
  -23.5430  -32.1340   23.7790 O   0  0  0  0  0  0  0  0  0  0  0  0
  -22.7470  -29.4330   22.5760 C   0  0  0  0  0  0  0  0  0  0  0  0
  -21.4240  -29.2540   22.4490 N   0  0  0  0  0  0  0  0  0  0  0  0
  -23.4300  -28.8140   23.3980 O   0  0  0  0  0  0  0  0  0  0  0  0
  -20.9370  -29.8070   21.7570 H   0  0  0  0  0  0  0  0  0  0  0  0
  -18.0480  -28.0680   22.9410 C   0  0  0  0  0  0  0  0  0  0  0  0
  -20.6030  -28.3280   23.2270 C   0  0  0  0  0  3  0  0  0  0  0  0
  -20.7080  -26.8880   22.6740 C   0  0  0  0  0  2  0  0  0  0  0  0
  -19.6150  -26.5510   21.6560 C   0  0  0  0  0  2  0  0  0  0  0  0
  -18.2280  -26.7090   22.2870 C   0  0  0  0  0  2  0  0  0  0  0  0
  -19.1640  -28.8360   23.3690 C   0  0  0  0  0  0  0  0  0  0  0  0
  -18.9450  -30.1070   23.9380 C   0  0  0  0  0  3  0  0  0  0  0  0
  -17.6400  -30.6160   24.0850 C   0  0  0  0  0  3  0  0  0  0  0  0
  -16.5370  -29.8460   23.6740 C   0  0  0  0  0  3  0  0  0  0  0  0
  -16.7420  -28.5740   23.1110 C   0  0  0  0  0  3  0  0  0  0  0  0
  -25.9140  -32.4770   23.8450 C   0  0  0  0  0  3  0  0  0  0  0  0
  -26.4460  -31.7020   25.1130 C   0  0  1  0  0  0  0  0  0  0  0  0
  -25.3630  -31.4600   26.1920 C   0  0  0  0  0  1  0  0  0  0  0  0
  -27.0230  -30.3260   24.7080 C   0  0  0  0  0  1  0  0  0  0  0  0
  -27.6020  -32.4940   25.7670 C   0  0  0  0  0  1  0  0  0  0  0  0
  -25.6140  -33.8740   24.1790 N   0  0  0  0  0  0  0  0  0  0  0  0
  -25.9450  -34.9260   23.4190 C   0  0  0  0  0  0  0  0  0  0  0  0
  -26.6090  -34.8210   22.3810 O   0  0  0  0  0  0  0  0  0  0  0  0
  -25.0240  -34.0310   24.9830 H   0  0  0  0  0  0  0  0  0  0  0  0
  -24.2200  -36.7240   23.0730 C   0  0  0  0  0  1  0  0  0  0  0  0
  -25.4620  -36.3150   23.8790 C   0  0  0  0  0  3  0  0  0  0  0  0
  -27.6010  -37.1940   24.7040 C   0  0  0  0  0  1  0  0  0  0  0  0
  -26.4960  -37.3670   23.7650 N   0  0  0  0  0  0  0  0  0  0  0  0
  -26.0920  -38.2860   23.9160 H   0  0  0  0  0  0  0  0  0  0  0  0
  1  3  1  0
  2  3  1  0
  2  4  2  0
  3  6  2  0
  4  5  1  0
  4  7  1  0
  6  7  1  0
  7  8  1  0
 11  9  1  6
 11 10  1  0
 11  8  1  0
 11 12  1  0
 13 21  1  0
 14 19  1  0
 15 16  1  0
 15 14  1  0
 17 16  1  0
 17 26  1  0
 17 18  1  0
 19 13  1  0
 19 18  1  0
 20 13  2  0
 21 12  1  0
 21 22  1  0
 23 24  2  0
 24 43  1  0
 25 24  1  0
 25 28  1  0
 26 23  1  0
 26 27  1  0
 27 25  2  0
 28 29  1  0
 29 30  2  0
 31 34  1  0
 31 30  1  0
 32 31  2  0
 33 32  1  0
 33 28  2  0
 34 35  1  0
 35 36  1  0
 36 37  2  0
 38 37  1  0
 38 42  1  0
 39 38  2  0
 40 35  2  0
 40 39  1  0
 41 40  1  0
 43 44  1  0
 44 47  1  0
 44 46  1  0
 45 43  2  0
 48 49  1  0
 48 23  1  0
 50 48  1  0
 51 52  1  1
 51  1  1  0
 53 55  1  0
 54 55  1  0
 55 51  1  0
 56 51  1  0
 56 57  1  0
 57 58  1  0
 58 59  1  0
 60 71  2  0
 61 59  1  0
 61 66  1  0
 62 70  1  0
 62 72  1  0
 63 69  1  0
 63 65  1  0
 64 70  1  0
 65 64  1  0
 66 65  2  0
 67 68  1  0
 67 61  2  0
 68 63  2  0
 69 62  1  0
 70 60  1  0
 72 74  2  0
 73 72  1  0
 75 73  1  0
 76 85  2  0
 76 81  1  0
 77 73  1  0
 77 81  1  0
 78 77  1  0
 79 80  1  0
 79 78  1  0
 80 76  1  0
 81 82  2  0
 82 83  1  0
 84 83  2  0
 85 84  1  0
 86 60  1  0
 86 91  1  0
 86 87  1  0
 87 90  1  1
 87 88  1  0
 89 87  1  0
 91 94  1  0
 92 96  1  0
 92 91  1  0
 93 92  2  0
 96 95  1  0
 98 96  1  0
 98 99  1  0
 98 97  1  0
M  ISO  4  13 100  21 100  58 101  59 101
M  END
>  <TORSDO>  (61) 
F 25

>  <SCORE>  (61) 
-12.043

>  <name>  (61) 
60

>  <ligand_id>  (61) 
60

>  <original_smiles>  (61) 
[H]c1c([H])c([H])c2c(c1[H])C([H])([H])C([H])([H])C([H])([H])C2([H])N([H])C(=O)C1([H])N(C(=O)C([H])(N([H])C(=O)C([H])(N([H])C([H])([H])[H])C([H])([H])[H])C(C([H])([H])[H])(C([H])([H])[H])C([H])([H])[H])C([H])([H])c2c([H])c(OC([H])([H])C([H])([H])C([H])([H])[N+]([H])(C([H])([H])c3nn(C([H])([H])C(C([H])([H])[H])(C([H])([H])[H])C([H])([H])N([H])C(=O)N4C([H])([H])C([H])([H])C([H])([H])C([H])(n5nc(-c6c([H])c([H])c(Oc7c([H])c([H])c(F)c([H])c7F)c([H])c6[H])c(C(=O)N([H])[H])c5N([H])[H])C4([H])[H])c(C([H])([H])[H])c3[H])C([H])(C([H])([H])[H])C([H])([H])[H])c([H])c([H])c2C1([H])[H]

>  <smiles>  (61) 
[H]c1c([H])c([H])c2c(c1[H])C([H])([H])C([H])([H])C([H])([H])C2([H])N([H])C(=O)C1([H])N(C(=O)C([H])(N([H])C(=O)C([H])(N([H])C([H])([H])[H])C([H])([H])[H])C(C([H])([H])[H])(C([H])([H])[H])C([H])([H])[H])C([H])([H])c2c([H])c(OC([H])([H])C([H])([H])C([H])([H])[N+]([H])(C([H])([H])c3nn(C([H])([H])C(C([H])([H])[H])(C([H])([H])[H])C([H])([H])N([H])C(=O)N4C([H])([H])C([H])([H])C([H])([H])C([H])(n5nc(-c6c([H])c([H])c(Oc7c([H])c([H])c(F)c([H])c7F)c([H])c6[H])c(C(=O)N([H])[H])c5N([H])[H])C4([H])[H])c(C([H])([H])[H])c3[H])C([H])(C([H])([H])[H])C([H])([H])[H])c([H])c([H])c2C1([H])[H]

$$$$
61:0:0
     RDKit          3D

 93 90  0  0  1  0  0  0  0  0999 V2000
  -25.0460  -15.6230   21.5130 C   0  0  0  0  0 15  0  0  0  0  0  0
  -26.5020  -13.7910   18.4710 C   0  0  0  0  0 15  0  0  0  0  0  0
  -25.7030  -15.7880   19.4050 C   0  0  0  0  0 15  0  0  0  0  0  0
  -25.5010  -13.8220   22.6910 C   0  0  0  0  0  1  0  0  0  0  0  0
  -26.8760  -11.8170   19.8280 C   0  0  0  0  0  2  0  0  0  0  0  0
  -25.1740  -13.7830   24.1640 C   0  0  0  0  0  1  0  0  0  0  0  0
  -26.3920  -12.0810   21.9330 N   0  0  0  0  0 15  0  0  0  0  0  0
  -26.9670   -9.3120   20.2140 C   0  0  0  0  0  1  0  0  0  0  0  0
  -27.8260  -10.5430   19.8870 C   0  0  0  0  0  3  0  0  0  0  0  0
  -29.2270  -10.4680   20.8340 C   0  0  0  0  0  2  0  0  0  0  0  0
  -29.9300  -11.3540   22.0590 C   0  0  0  0  0  2  0  0  0  0  0  0
  -31.5070  -13.2890   21.1170 C   0  0  0  0  0  0  0  0  0  0  0  0
  -31.1700  -12.1480   19.2030 C   0  0  0  0  0  2  0  0  0  0  0  0
  -30.1340  -11.7440   18.2160 C   0  0  0  0  0  3  0  0  0  0  0  0
  -28.7950  -12.4650   18.3360 C   0  0  0  0  0  3  0  0  0  0  0  0
  -28.4530  -13.4670   19.5590 C   0  0  0  0  0  0  0  0  0  0  0  0
  -29.4920  -13.7070   20.5250 C   0  0  0  0  0  3  0  0  0  0  0  0
  -30.7000  -13.0840   20.1980 N   0  0  0  0  0  0  0  0  0  0  0  0
  -32.4030  -14.1340   20.9380 O   0  0  0  0  0  0  0  0  0  0  0  0
  -31.2350  -12.2430   21.9870 N   0  0  0  0  0  0  0  0  0  0  0  0
  -31.9000  -12.1170   22.7380 H   0  0  0  0  0  0  0  0  0  0  0  0
  -26.3510  -13.9730   20.6730 C   0  0  0  0  0  0  0  0  0  0  0  0
  -24.5870  -13.4290   20.4550 C   0  0  0  0  0  0  0  0  0  0  0  0
  -24.3910  -12.1340   20.2680 C   0  0  0  0  0  2  0  0  0  0  0  0
  -27.2500  -13.5480   20.5610 N   0  0  0  0  0  0  0  0  0  0  0  0
  -25.3670  -13.3050   20.4640 N   0  0  0  0  0  2  0  0  0  0  0  0
  -23.9110  -10.6910   20.8000 C   0  0  0  0  0  3  0  0  0  0  0  0
  -24.2710   -9.7610   21.8620 C   0  0  0  0  0  3  0  0  0  0  0  0
  -23.5940   -8.5120   22.0920 C   0  0  0  0  0  3  0  0  0  0  0  0
  -22.4820   -8.1390   21.2990 C   0  0  0  0  0  0  0  0  0  0  0  0
  -22.1520   -8.9980   20.2410 C   0  0  0  0  0  3  0  0  0  0  0  0
  -22.8540  -10.2000   20.0000 C   0  0  0  0  0  3  0  0  0  0  0  0
  -21.7160   -6.9880   21.4160 O   0  0  0  0  0  0  0  0  0  0  0  0
  -21.5480   -6.2830   22.5890 C   0  0  0  0  0  0  0  0  0  0  0  0
  -21.0670   -6.8840   23.7740 C   0  0  0  0  0  3  0  0  0  0  0  0
  -20.8590   -6.1040   24.9320 C   0  0  0  0  0  3  0  0  0  0  0  0
  -21.1190   -4.7200   24.9090 C   0  0  0  0  0  0  0  0  0  0  0  0
  -21.5700   -4.1120   23.7250 C   0  0  0  0  0  3  0  0  0  0  0  0
  -21.7730   -4.8890   22.5690 C   0  0  0  0  0  0  0  0  0  0  0  0
  -22.1790   -4.2830   21.4280 F   0  0  0  0  0  0  0  0  0  0  0  0
  -20.9330   -3.9720   26.0240 F   0  0  0  0  0  0  0  0  0  0  0  0
  -23.0280  -13.8890   20.6330 C   0  0  0  0  0  0  0  0  0  0  0  0
  -22.2850  -13.2530   21.5600 N   0  0  0  0  0  0  0  0  0  0  0  0
  -22.5450  -14.7260   19.8930 O   0  0  0  0  0  0  0  0  0  0  0  0
  -22.6990  -12.5520   22.1560 H   0  0  0  0  0  0  0  0  0  0  0  0
  -21.3120  -13.4960   21.6860 H   0  0  0  0  0  0  0  0  0  0  0  0
  -27.2890  -15.0650   21.0750 N   0  0  0  0  0  4  0  0  0  0  0  0
  -26.5270  -15.6210   21.4670 H   0  0  0  0  0  0  0  0  0  0  0  0
  -27.6200  -15.5290   20.2440 H   0  0  0  0  0  0  0  0  0  0  0  0
  -26.1150  -17.8410   18.8490 C   0  0  0  0  0 15  0  0  0  0  0  0
  -27.1470  -19.8890   19.0190 C   0  0  0  0  0 15  0  0  0  0  0  0
  -27.2740  -22.1770   18.7810 C   0  0  0  0  0 15  0  0  0  0  0  0
  -28.1320  -24.0460   18.9580 O   0  0  0  0  0  1  0  0  0  0  0  0
  -25.8360  -30.8010   22.9420 C   0  0  0  0  0  0  0  0  0  0  0  0
  -27.7660  -25.6790   19.1490 C   0  0  0  0  0  0  0  0  0  0  0  0
  -24.6870  -29.7360   21.0760 C   0  0  0  0  0  3  0  0  0  0  0  0
  -26.0620  -28.2760   19.3920 C   0  0  0  0  0  0  0  0  0  0  0  0
  -27.2670  -29.5880   21.0940 C   0  0  0  0  0  2  0  0  0  0  0  0
  -27.2150  -28.2500   20.1720 C   0  0  0  0  0  0  0  0  0  0  0  0
  -28.0740  -26.9750   20.0240 C   0  0  0  0  0  3  0  0  0  0  0  0
  -26.7730  -26.1430   18.2780 C   0  0  0  0  0  3  0  0  0  0  0  0
  -25.9370  -27.2850   18.4130 C   0  0  0  0  0  3  0  0  0  0  0  0
  -24.9610  -29.3290   19.6010 C   0  0  0  0  0  2  0  0  0  0  0  0
  -25.9680  -30.0890   21.7590 N   0  0  0  0  0  0  0  0  0  0  0  0
  -24.7210  -31.0540   23.4410 O   0  0  0  0  0  0  0  0  0  0  0  0
  -23.9240  -28.6120   21.8330 C   0  0  0  0  0  0  0  0  0  0  0  0
  -22.5870  -28.5330   21.6860 N   0  0  0  0  0  0  0  0  0  0  0  0
  -24.5500  -27.8210   22.5420 O   0  0  0  0  0  0  0  0  0  0  0  0
  -22.1270  -29.2240   21.1090 H   0  0  0  0  0  0  0  0  0  0  0  0
  -19.1620  -27.3590   22.0050 C   0  0  0  0  0  0  0  0  0  0  0  0
  -21.7330  -27.4910   22.2720 C   0  0  0  0  0  3  0  0  0  0  0  0
  -21.7780  -26.1970   21.4260 C   0  0  0  0  0  2  0  0  0  0  0  0
  -20.6590  -26.1210   20.3840 C   0  0  0  0  0  2  0  0  0  0  0  0
  -19.2890  -26.1730   21.0630 C   0  0  0  0  0  2  0  0  0  0  0  0
  -20.3090  -27.9880   22.5610 C   0  0  0  0  0  0  0  0  0  0  0  0
  -20.1320  -29.1020   23.4090 C   0  0  0  0  0  3  0  0  0  0  0  0
  -18.8440  -29.5870   23.7020 C   0  0  0  0  0  3  0  0  0  0  0  0
  -17.7120  -28.9550   23.1570 C   0  0  0  0  0  3  0  0  0  0  0  0
  -17.8730  -27.8410   22.3150 C   0  0  0  0  0  3  0  0  0  0  0  0
  -27.0590  -31.3510   23.7350 C   0  0  0  0  0  3  0  0  0  0  0  0
  -26.6260  -32.5390   24.5080 N   0  0  0  0  0  0  0  0  0  0  0  0
  -26.9210  -33.8160   24.2250 C   0  0  0  0  0  0  0  0  0  0  0  0
  -27.6420  -34.1270   23.2730 O   0  0  0  0  0  0  0  0  0  0  0  0
  -25.9820  -32.3630   25.2660 H   0  0  0  0  0  0  0  0  0  0  0  0
  -25.1160  -35.5660   24.4550 C   0  0  0  0  0  1  0  0  0  0  0  0
  -26.3370  -34.9230   25.1330 C   0  0  0  0  0  3  0  0  0  0  0  0
  -28.3640  -35.5230   26.3880 C   0  0  0  0  0  1  0  0  0  0  0  0
  -27.3110  -35.9800   25.4860 N   0  0  0  0  0  0  0  0  0  0  0  0
  -26.8430  -36.7710   25.9190 H   0  0  0  0  0  0  0  0  0  0  0  0
  -27.6730  -30.2890   24.7310 C   0  0  1  0  0  0  0  0  0  0  0  0
  -26.6370  -29.6580   25.6940 C   0  0  0  0  0  1  0  0  0  0  0  0
  -28.3520  -29.1310   23.9720 C   0  0  0  0  0  1  0  0  0  0  0  0
  -28.7820  -30.9510   25.5850 C   0  0  0  0  0  1  0  0  0  0  0  0
  4  6  1  0
  5  9  1  0
  5 25  1  0
  9  8  1  0
  9 10  1  0
 10 11  1  0
 12 20  1  0
 13 18  1  0
 14 15  2  0
 14 13  1  0
 15 16  1  0
 16 17  2  0
 16 25  1  0
 18 17  1  0
 18 12  1  0
 19 12  2  0
 20 11  1  0
 20 21  1  0
 22 47  2  0
 23 26  1  0
 23 42  1  0
 24 23  2  0
 25 22  1  0
 26 22  1  0
 27 28  1  0
 28 29  2  0
 30 33  1  0
 30 29  1  0
 31 30  2  0
 32 31  1  0
 32 27  2  0
 33 34  1  0
 34 35  1  0
 35 36  2  0
 37 36  1  0
 37 41  1  0
 38 37  2  0
 39 34  2  0
 39 38  1  0
 40 39  1  0
 42 43  1  0
 43 46  1  0
 43 45  1  0
 44 42  2  0
 47 48  1  0
 49 47  1  0
 53 55  1  0
 54 65  2  0
 55 60  1  0
 56 64  1  0
 56 66  1  0
 57 63  1  0
 57 59  1  0
 58 64  1  0
 59 58  1  0
 60 59  2  0
 61 62  1  0
 61 55  2  0
 62 57  2  0
 63 56  1  0
 64 54  1  0
 66 68  2  0
 67 66  1  0
 69 67  1  0
 70 79  2  0
 70 75  1  0
 71 67  1  0
 71 75  1  0
 72 71  1  0
 73 74  1  0
 73 72  1  0
 74 70  1  0
 75 76  2  0
 76 77  1  0
 78 77  2  0
 79 78  1  0
 80 54  1  0
 80 81  1  0
 80 90  1  0
 81 84  1  0
 82 81  1  0
 82 86  1  0
 83 82  2  0
 86 85  1  0
 86 88  1  0
 88 89  1  0
 88 87  1  0
 90 93  1  1
 90 91  1  0
 92 90  1  0
M  ISO  4  12 100  20 100  52 101  53 101
M  END
>  <TORSDO>  (62) 
F 22

>  <SCORE>  (62) 
-2.142

>  <name>  (62) 
61

>  <ligand_id>  (62) 
61

>  <original_smiles>  (62) 
[H]c1c([H])c([H])c2c(c1[H])C([H])([H])C([H])([H])C([H])([H])C2([H])N([H])C(=O)C1([H])N(C(=O)C([H])(N([H])C(=O)C([H])(N([H])C([H])([H])[H])C([H])([H])[H])C(C([H])([H])[H])(C([H])([H])[H])C([H])([H])[H])C([H])([H])c2c([H])c(OC([H])([H])C([H])([H])C([H])([H])c3c([H])c(C([H])([H])[H])nc(C([H])(C([H])([H])[H])C([H])([H])C([H])([H])N([H])C(=O)N4C([H])([H])C([H])([H])C([H])([H])C([H])(n5nc(-c6c([H])c([H])c(Oc7c([H])c([H])c(F)c([H])c7F)c([H])c6[H])c(C(=O)N([H])[H])c5N([H])[H])C4([H])[H])c3[H])c([H])c([H])c2C1([H])[H]

>  <smiles>  (62) 
[H]c1c([H])c([H])c2c(c1[H])C([H])([H])C([H])([H])C([H])([H])C2([H])N([H])C(=O)C1([H])N(C(=O)C([H])(N([H])C(=O)C([H])(N([H])C([H])([H])[H])C([H])([H])[H])C(C([H])([H])[H])(C([H])([H])[H])C([H])([H])[H])C([H])([H])c2c([H])c(OC([H])([H])C([H])([H])C([H])([H])c3c([H])c(C([H])([H])[H])nc(C([H])(C([H])([H])[H])C([H])([H])C([H])([H])N([H])C(=O)N4C([H])([H])C([H])([H])C([H])([H])C([H])(n5nc(-c6c([H])c([H])c(Oc7c([H])c([H])c(F)c([H])c7F)c([H])c6[H])c(C(=O)N([H])[H])c5N([H])[H])C4([H])[H])c3[H])c([H])c([H])c2C1([H])[H]

$$$$
62:0:0
     RDKit          3D

 94102  0  0  1  0  0  0  0  0999 V2000
  -29.8610  -19.3370   19.4630 C   0  0  0  0  0  3  0  0  0  0  0  0
  -30.5380  -20.2670   20.2860 C   0  0  0  0  0  0  0  0  0  0  0  0
  -29.8880  -17.9410   19.7390 C   0  0  0  0  0  0  0  0  0  0  0  0
  -31.2600  -19.7010   21.3680 C   0  0  0  0  0  0  0  0  0  0  0  0
  -30.6340  -17.4580   20.8530 C   0  0  0  0  0  0  0  0  0  0  0  0
  -31.2970  -18.3650   21.6220 N   0  0  0  0  0  0  0  0  0  0  0  0
  -30.9360  -15.9180   22.9230 C   0  0  0  0  0  1  0  0  0  0  0  0
  -30.5700  -15.9800   21.4200 C   0  0  0  0  0  3  0  0  0  0  0  0
  -31.3010  -14.7910   20.6730 C   0  0  0  0  0  0  0  0  0  0  0  0
  -31.0670  -12.6110   19.4770 C   0  0  0  0  0  2  0  0  0  0  0  0
  -30.1210  -12.7810   18.2690 C   0  0  0  0  0  2  0  0  0  0  0  0
  -28.6450  -12.6210   18.6890 C   0  0  0  0  0  2  0  0  0  0  0  0
  -28.2920  -13.4460   19.9540 C   0  0  0  0  0  3  0  0  0  0  0  0
  -29.3470  -13.2260   21.0590 C   0  0  0  0  0  2  0  0  0  0  0  0
  -30.6640  -13.5880   20.5060 N   0  0  0  0  0  0  0  0  0  0  0  0
  -32.4230  -14.9780   20.1880 O   0  0  0  0  0  0  0  0  0  0  0  0
  -25.9140  -14.0520   20.7270 C   0  0  0  0  0  0  0  0  0  0  0  0
  -24.8330  -13.2800   21.0500 C   0  0  0  0  0  0  0  0  0  0  0  0
  -25.2650  -11.9250   20.9260 C   0  0  0  0  0  0  0  0  0  0  0  0
  -26.9390  -13.1660   20.4260 N   0  0  0  0  0  0  0  0  0  0  0  0
  -26.5530  -11.8780   20.6030 N   0  0  0  0  0  0  0  0  0  0  0  0
  -24.5120  -10.6690   21.0370 C   0  0  0  0  0  0  0  0  0  0  0  0
  -24.9050   -9.6510   21.9330 C   0  0  0  0  0  3  0  0  0  0  0  0
  -24.1540   -8.4590   22.0350 C   0  0  0  0  0  3  0  0  0  0  0  0
  -22.9950   -8.2800   21.2420 C   0  0  0  0  0  0  0  0  0  0  0  0
  -22.6220   -9.2890   20.3350 C   0  0  0  0  0  3  0  0  0  0  0  0
  -23.3740  -10.4710   20.2310 C   0  0  0  0  0  3  0  0  0  0  0  0
  -22.2200   -7.1470   21.2560 O   0  0  0  0  0  0  0  0  0  0  0  0
  -22.0670   -6.3930   22.3910 C   0  0  0  0  0  0  0  0  0  0  0  0
  -21.5630   -6.9440   23.5890 C   0  0  0  0  0  3  0  0  0  0  0  0
  -21.3560   -6.1180   24.7120 C   0  0  0  0  0  3  0  0  0  0  0  0
  -21.6450   -4.7420   24.6370 C   0  0  0  0  0  0  0  0  0  0  0  0
  -22.1430   -4.1910   23.4430 C   0  0  0  0  0  3  0  0  0  0  0  0
  -22.3500   -5.0140   22.3220 C   0  0  0  0  0  0  0  0  0  0  0  0
  -22.8090   -4.4730   21.1670 F   0  0  0  0  0  0  0  0  0  0  0  0
  -21.4410   -3.9460   25.7120 F   0  0  0  0  0  0  0  0  0  0  0  0
  -23.4480  -13.7680   21.3640 C   0  0  0  0  0  0  0  0  0  0  0  0
  -22.7140  -13.0390   22.1980 N   0  0  0  0  0  0  0  0  0  0  0  0
  -23.0240  -14.8290   20.9060 O   0  0  0  0  0  0  0  0  0  0  0  0
  -23.0700  -12.1780   22.5870 H   0  0  0  0  0  0  0  0  0  0  0  0
  -21.7840  -13.3430   22.4460 H   0  0  0  0  0  0  0  0  0  0  0  0
  -26.1050  -15.4260   20.6440 N   0  0  0  0  0  0  0  0  0  0  0  0
  -25.3460  -16.0830   20.7900 H   0  0  0  0  0  0  0  0  0  0  0  0
  -26.9520  -15.8650   20.3100 H   0  0  0  0  0  0  0  0  0  0  0  0
  -31.2050  -20.8770   23.6160 C   0  0  0  0  0  1  0  0  0  0  0  0
  -32.0370  -20.5440   22.3710 C   0  0  0  0  0  2  0  0  0  0  0  0
  -30.5690  -21.7850   19.9050 C   0  0  0  0  0  3  0  0  0  0  0  0
  -29.4350  -22.7450   20.4260 C   0  0  0  0  0  3  0  0  0  0  0  0
  -29.6760  -24.2930   20.1950 C   0  0  0  0  0  3  0  0  0  0  0  0
  -28.3990  -25.2080   20.2690 C   0  0  0  0  0  3  0  0  0  0  0  0
  -28.5770  -26.6660   20.2240 O   0  0  0  0  0  0  0  0  0  0  0  0
  -24.6620  -31.8850   23.2670 C   0  0  0  0  0  0  0  0  0  0  0  0
  -27.4190  -27.4520   20.1880 C   0  0  0  0  0  0  0  0  0  0  0  0
  -23.5120  -30.4920   21.5850 C   0  0  0  0  0  3  0  0  0  0  0  0
  -25.0150  -28.9930   20.1680 C   0  0  0  0  0  0  0  0  0  0  0  0
  -26.0460  -30.8670   21.4490 C   0  0  0  0  0  2  0  0  0  0  0  0
  -26.1630  -29.5030   20.7870 C   0  0  0  0  0  0  0  0  0  0  0  0
  -27.3680  -28.7450   20.7870 C   0  0  0  0  0  3  0  0  0  0  0  0
  -26.2420  -26.9860   19.5540 C   0  0  0  0  0  3  0  0  0  0  0  0
  -25.0550  -27.7370   19.5450 C   0  0  0  0  0  3  0  0  0  0  0  0
  -23.7620  -29.8410   20.2000 C   0  0  0  0  0  2  0  0  0  0  0  0
  -24.7580  -31.0970   22.1580 N   0  0  0  0  0  0  0  0  0  0  0  0
  -23.5640  -32.1360   23.7850 O   0  0  0  0  0  0  0  0  0  0  0  0
  -22.8510  -29.4490   22.5150 C   0  0  0  0  0  0  0  0  0  0  0  0
  -21.5330  -29.2410   22.3490 N   0  0  0  0  0  0  0  0  0  0  0  0
  -23.5210  -28.8290   23.3450 O   0  0  0  0  0  0  0  0  0  0  0  0
  -21.0510  -29.7940   21.6540 H   0  0  0  0  0  0  0  0  0  0  0  0
  -18.1760  -27.9510   22.7250 C   0  0  0  0  0  0  0  0  0  0  0  0
  -20.7140  -28.2800   23.0880 C   0  0  0  0  0  3  0  0  0  0  0  0
  -20.8760  -26.8530   22.5150 C   0  0  0  0  0  2  0  0  0  0  0  0
  -19.8210  -26.5020   21.4610 C   0  0  0  0  0  2  0  0  0  0  0  0
  -18.4140  -26.6090   22.0540 C   0  0  0  0  0  2  0  0  0  0  0  0
  -19.2570  -28.7430   23.1970 C   0  0  0  0  0  0  0  0  0  0  0  0
  -18.9820  -29.9980   23.7820 C   0  0  0  0  0  3  0  0  0  0  0  0
  -17.6590  -30.4630   23.9010 C   0  0  0  0  0  3  0  0  0  0  0  0
  -16.5920  -29.6690   23.4460 C   0  0  0  0  0  3  0  0  0  0  0  0
  -16.8510  -28.4150   22.8640 C   0  0  0  0  0  3  0  0  0  0  0  0
  -25.9230  -32.5280   23.9230 C   0  0  0  0  0  3  0  0  0  0  0  0
  -25.5940  -33.9240   24.2400 N   0  0  0  0  0  0  0  0  0  0  0  0
  -25.9450  -34.9780   23.4910 C   0  0  0  0  0  0  0  0  0  0  0  0
  -26.6490  -34.8770   22.4820 O   0  0  0  0  0  0  0  0  0  0  0  0
  -24.9720  -34.0760   25.0220 H   0  0  0  0  0  0  0  0  0  0  0  0
  -24.2160  -36.7570   23.0780 C   0  0  0  0  0  1  0  0  0  0  0  0
  -25.4340  -36.3630   23.9300 C   0  0  0  0  0  3  0  0  0  0  0  0
  -27.5360  -37.2630   24.8230 C   0  0  0  0  0  1  0  0  0  0  0  0
  -26.4620  -37.4240   23.8470 N   0  0  0  0  0  0  0  0  0  0  0  0
  -26.0460  -38.3410   23.9830 H   0  0  0  0  0  0  0  0  0  0  0  0
  -26.4090  -31.7630   25.2150 C   0  0  1  0  0  0  0  0  0  0  0  0
  -25.2880  -31.5160   26.2510 C   0  0  0  0  0  1  0  0  0  0  0  0
  -27.0140  -30.3890   24.8410 C   0  0  0  0  0  1  0  0  0  0  0  0
  -27.5350  -32.5660   25.9070 C   0  0  0  0  0  1  0  0  0  0  0  0
  -29.0910  -17.0260   18.8180 C   0  0  0  0  0  2  0  0  0  0  0  0
  -26.7710  -16.1540   18.2040 C   0  0  0  0  0  1  0  0  0  0  0  0
  -27.5750  -17.1850   19.0040 C   0  0  0  0  0  2  0  0  0  0  0  0
  1  3  2  0
  1  2  1  0
  2  4  2  0
  3  5  1  0
  4  6  1  0
  4 46  1  0
  5  8  1  0
  5  6  2  0
  8  7  1  0
  9  8  1  0
 10 15  1  0
 11 12  1  0
 11 10  1  0
 13 12  1  0
 13 20  1  0
 13 14  1  0
 15  9  1  0
 15 14  1  0
 16  9  2  0
 17 18  2  0
 18 37  1  0
 19 22  1  0
 19 18  1  0
 20 21  1  0
 20 17  1  0
 21 19  2  0
 22 23  1  0
 23 24  2  0
 25 28  1  0
 25 24  1  0
 26 25  2  0
 27 26  1  0
 27 22  2  0
 28 29  1  0
 29 30  1  0
 30 31  2  0
 32 31  1  0
 32 36  1  0
 33 32  2  0
 34 29  2  0
 34 33  1  0
 35 34  1  0
 37 38  1  0
 38 41  1  0
 38 40  1  0
 39 37  2  0
 42 17  1  0
 42 43  1  0
 44 42  1  0
 46 45  1  0
 47  2  1  0
 47 48  2  0
 49 50  2  0
 49 48  1  0
 51 50  1  0
 52 63  2  0
 53 51  1  0
 53 58  1  0
 54 62  1  0
 54 64  1  0
 55 61  1  0
 55 57  1  0
 56 62  1  0
 57 56  1  0
 58 57  2  0
 59 53  2  0
 60 59  1  0
 60 55  2  0
 61 54  1  0
 62 52  1  0
 64 66  2  0
 65 64  1  0
 67 65  1  0
 68 77  2  0
 68 73  1  0
 69 65  1  0
 69 73  1  0
 70 69  1  0
 71 72  1  0
 71 70  1  0
 72 68  1  0
 73 74  2  0
 74 75  1  0
 76 75  2  0
 77 76  1  0
 78 52  1  0
 78 79  1  0
 78 88  1  0
 79 82  1  0
 80 84  1  0
 80 79  1  0
 81 80  2  0
 84 83  1  0
 86 84  1  0
 86 87  1  0
 86 85  1  0
 88 91  1  1
 88 89  1  0
 90 88  1  0
 92 94  1  0
 92  3  1  0
 93 94  1  0
M  ISO  4   8 100   9 100  50 101  51 101
M  END
>  <TORSDO>  (63) 
F 24

>  <SCORE>  (63) 
-9.474

>  <name>  (63) 
62

>  <ligand_id>  (63) 
62

>  <original_smiles>  (63) 
[H]c1c([H])c([H])c2c(c1[H])C([H])([H])C([H])([H])C([H])([H])C2([H])N([H])C(=O)C1([H])N(C(=O)C([H])(N([H])C(=O)C([H])(N([H])C([H])([H])[H])C([H])([H])[H])C(C([H])([H])[H])(C([H])([H])[H])C([H])([H])[H])C([H])([H])c2c([H])c(OC([H])([H])C([H])([H])C([H])([H])C([H])([H])c3c(C([H])([H])C([H])([H])[H])nc(C([H])(C(=O)N4C([H])([H])C([H])([H])C([H])([H])C([H])(n5nc(-c6c([H])c([H])c(Oc7c([H])c([H])c(F)c([H])c7F)c([H])c6[H])c(C(=O)N([H])[H])c5N([H])[H])C4([H])[H])C([H])([H])[H])c(C([H])([H])C([H])([H])C([H])([H])[H])c3[H])c([H])c([H])c2C1([H])[H]

>  <smiles>  (63) 
[H]c1c([H])c([H])c2c(c1[H])C([H])([H])C([H])([H])C([H])([H])C2([H])N([H])C(=O)C1([H])N(C(=O)C([H])(N([H])C(=O)C([H])(N([H])C([H])([H])[H])C([H])([H])[H])C(C([H])([H])[H])(C([H])([H])[H])C([H])([H])[H])C([H])([H])c2c([H])c(OC([H])([H])C([H])([H])C([H])([H])C([H])([H])c3c(C([H])([H])C([H])([H])[H])nc(C([H])(C(=O)N4C([H])([H])C([H])([H])C([H])([H])C([H])(n5nc(-c6c([H])c([H])c(Oc7c([H])c([H])c(F)c([H])c7F)c([H])c6[H])c(C(=O)N([H])[H])c5N([H])[H])C4([H])[H])C([H])([H])[H])c(C([H])([H])C([H])([H])C([H])([H])[H])c3[H])c([H])c([H])c2C1([H])[H]

$$$$
63:0:0
     RDKit          3D

 94102  0  0  1  0  0  0  0  0999 V2000
  -29.3480  -20.5010   20.1250 C   0  0  0  0  0  3  0  0  0  0  0  0
  -29.6130  -21.6650   19.3700 C   0  0  0  0  0  0  0  0  0  0  0  0
  -30.5740  -21.5800   18.3290 C   0  0  0  0  0  0  0  0  0  0  0  0
  -30.0010  -19.2940   19.8120 C   0  0  0  0  0  0  0  0  0  0  0  0
  -31.2370  -20.3430   18.1350 C   0  0  0  0  0  0  0  0  0  0  0  0
  -30.8300  -22.7560   17.3870 C   0  0  0  0  0  1  0  0  0  0  0  0
  -30.9440  -19.2340   18.8470 N   0  0  0  0  0  0  0  0  0  0  0  0
  -31.5520  -19.5610   15.7450 C   0  0  0  0  0  1  0  0  0  0  0  0
  -32.2350  -20.1090   17.0080 C   0  0  0  0  0  2  0  0  0  0  0  0
  -28.5510  -17.3420   19.2380 C   0  0  0  0  0  1  0  0  0  0  0  0
  -29.4600  -17.9460   20.3230 C   0  0  0  0  0  3  0  0  0  0  0  0
  -30.5390  -16.9530   20.8500 C   0  0  0  0  0  2  0  0  0  0  0  0
  -30.7110  -14.4920   20.4360 C   0  0  0  0  0  0  0  0  0  0  0  0
  -30.3360  -12.3730   19.2440 C   0  0  0  0  0  2  0  0  0  0  0  0
  -29.3860  -12.6230   18.0580 C   0  0  0  0  0  2  0  0  0  0  0  0
  -27.9190  -12.4780   18.5030 C   0  0  0  0  0  2  0  0  0  0  0  0
  -27.6040  -13.2730   19.7990 C   0  0  0  0  0  3  0  0  0  0  0  0
  -28.6800  -13.0470   20.8880 C   0  0  0  0  0  2  0  0  0  0  0  0
  -29.9970  -13.3410   20.3000 N   0  0  0  0  0  0  0  0  0  0  0  0
  -31.8330  -14.6340   19.9480 O   0  0  0  0  0  0  0  0  0  0  0  0
  -30.0730  -15.5460   20.9720 N   0  0  0  0  0  0  0  0  0  0  0  0
  -29.1620  -15.3820   21.3710 H   0  0  0  0  0  0  0  0  0  0  0  0
  -25.2100  -13.8580   20.5390 C   0  0  0  0  0  0  0  0  0  0  0  0
  -24.1510  -13.0740   20.9110 C   0  0  0  0  0  0  0  0  0  0  0  0
  -24.6210  -11.7270   20.8610 C   0  0  0  0  0  0  0  0  0  0  0  0
  -26.2580  -12.9860   20.2880 N   0  0  0  0  0  0  0  0  0  0  0  0
  -25.9100  -11.6980   20.5400 N   0  0  0  0  0  0  0  0  0  0  0  0
  -23.9050  -10.4580   21.0440 C   0  0  0  0  0  0  0  0  0  0  0  0
  -24.3400   -9.4950   21.9800 C   0  0  0  0  0  3  0  0  0  0  0  0
  -23.6270   -8.2890   22.1500 C   0  0  0  0  0  3  0  0  0  0  0  0
  -22.4630   -8.0390   21.3860 C   0  0  0  0  0  0  0  0  0  0  0  0
  -22.0490   -8.9910   20.4380 C   0  0  0  0  0  3  0  0  0  0  0  0
  -22.7620  -10.1890   20.2640 C   0  0  0  0  0  3  0  0  0  0  0  0
  -21.7220   -6.8850   21.4660 O   0  0  0  0  0  0  0  0  0  0  0  0
  -21.6500   -6.1540   22.6250 C   0  0  0  0  0  0  0  0  0  0  0  0
  -21.1370   -6.7000   23.8220 C   0  0  0  0  0  3  0  0  0  0  0  0
  -21.0160   -5.8920   24.9690 C   0  0  0  0  0  3  0  0  0  0  0  0
  -21.3980   -4.5380   24.9210 C   0  0  0  0  0  0  0  0  0  0  0  0
  -21.9040   -3.9910   23.7290 C   0  0  0  0  0  3  0  0  0  0  0  0
  -22.0270   -4.7970   22.5830 C   0  0  0  0  0  0  0  0  0  0  0  0
  -22.4940   -4.2580   21.4320 F   0  0  0  0  0  0  0  0  0  0  0  0
  -21.2760   -3.7590   26.0210 F   0  0  0  0  0  0  0  0  0  0  0  0
  -22.7540  -13.5410   21.2010 C   0  0  0  0  0  0  0  0  0  0  0  0
  -22.0340  -12.8230   22.0570 N   0  0  0  0  0  0  0  0  0  0  0  0
  -22.3070  -14.5740   20.7040 O   0  0  0  0  0  0  0  0  0  0  0  0
  -22.4070  -11.9880   22.4810 H   0  0  0  0  0  0  0  0  0  0  0  0
  -21.0960  -13.1170   22.2900 H   0  0  0  0  0  0  0  0  0  0  0  0
  -25.3650  -15.2310   20.3720 N   0  0  0  0  0  0  0  0  0  0  0  0
  -24.5880  -15.8730   20.4860 H   0  0  0  0  0  0  0  0  0  0  0  0
  -26.2000  -15.6780   20.0200 H   0  0  0  0  0  0  0  0  0  0  0  0
  -28.6890  -22.8730   19.5460 C   0  0  0  0  0  2  0  0  0  0  0  0
  -29.2770  -24.2490   19.9690 C   0  0  0  0  0  2  0  0  0  0  0  0
  -28.1560  -25.2920   19.7670 C   0  0  0  0  0  2  0  0  0  0  0  0
  -28.3370  -26.6590   20.1850 O   0  0  0  0  0  0  0  0  0  0  0  0
  -24.5550  -31.9030   23.2540 C   0  0  0  0  0  0  0  0  0  0  0  0
  -27.1770  -27.4300   20.1660 C   0  0  0  0  0  0  0  0  0  0  0  0
  -23.3490  -30.5120   21.6100 C   0  0  0  0  0  3  0  0  0  0  0  0
  -24.7960  -28.9810   20.1860 C   0  0  0  0  0  0  0  0  0  0  0  0
  -25.8840  -30.8490   21.4250 C   0  0  0  0  0  2  0  0  0  0  0  0
  -25.9620  -29.4820   20.7770 C   0  0  0  0  0  0  0  0  0  0  0  0
  -27.1570  -28.7170   20.7620 C   0  0  0  0  0  3  0  0  0  0  0  0
  -25.9750  -26.9610   19.5710 C   0  0  0  0  0  3  0  0  0  0  0  0
  -24.7970  -27.7190   19.5840 C   0  0  0  0  0  3  0  0  0  0  0  0
  -23.5600  -29.8460   20.2290 C   0  0  0  0  0  2  0  0  0  0  0  0
  -24.6150  -31.1020   22.1540 N   0  0  0  0  0  0  0  0  0  0  0  0
  -23.4720  -32.1810   23.7870 O   0  0  0  0  0  0  0  0  0  0  0  0
  -22.6910  -29.4860   22.5610 C   0  0  0  0  0  0  0  0  0  0  0  0
  -21.3650  -29.3080   22.4260 N   0  0  0  0  0  0  0  0  0  0  0  0
  -23.3670  -28.8570   23.3790 O   0  0  0  0  0  0  0  0  0  0  0  0
  -20.8820  -29.8640   21.7350 H   0  0  0  0  0  0  0  0  0  0  0  0
  -17.9780  -28.1570   22.9340 C   0  0  0  0  0  0  0  0  0  0  0  0
  -20.5400  -28.3730   23.1910 C   0  0  0  0  0  3  0  0  0  0  0  0
  -20.6180  -26.9470   22.5990 C   0  0  0  0  0  2  0  0  0  0  0  0
  -19.5040  -26.6530   21.5890 C   0  0  0  0  0  2  0  0  0  0  0  0
  -18.1300  -26.8120   22.2440 C   0  0  0  0  0  2  0  0  0  0  0  0
  -19.1100  -28.8980   23.3650 C   0  0  0  0  0  0  0  0  0  0  0  0
  -18.9140  -30.1590   23.9690 C   0  0  0  0  0  3  0  0  0  0  0  0
  -17.6180  -30.6780   24.1470 C   0  0  0  0  0  3  0  0  0  0  0  0
  -16.5010  -29.9330   23.7340 C   0  0  0  0  0  3  0  0  0  0  0  0
  -16.6810  -28.6750   23.1330 C   0  0  0  0  0  3  0  0  0  0  0  0
  -25.8410  -32.5280   23.8770 C   0  0  0  0  0  3  0  0  0  0  0  0
  -25.5420  -33.9330   24.1890 N   0  0  0  0  0  0  0  0  0  0  0  0
  -25.8870  -34.9720   23.4180 C   0  0  0  0  0  0  0  0  0  0  0  0
  -26.5630  -34.8510   22.3930 O   0  0  0  0  0  0  0  0  0  0  0  0
  -24.9460  -34.1020   24.9850 H   0  0  0  0  0  0  0  0  0  0  0  0
  -24.1900  -36.7820   23.0130 C   0  0  0  0  0  1  0  0  0  0  0  0
  -25.4070  -36.3690   23.8560 C   0  0  0  0  0  3  0  0  0  0  0  0
  -27.5280  -37.2370   24.7380 C   0  0  0  0  0  1  0  0  0  0  0  0
  -26.4550  -37.4080   23.7610 N   0  0  0  0  0  0  0  0  0  0  0  0
  -26.0560  -38.3350   23.8870 H   0  0  0  0  0  0  0  0  0  0  0  0
  -26.3420  -31.7650   25.1630 C   0  0  1  0  0  0  0  0  0  0  0  0
  -25.2370  -31.5380   26.2200 C   0  0  0  0  0  1  0  0  0  0  0  0
  -26.9240  -30.3820   24.7860 C   0  0  0  0  0  1  0  0  0  0  0  0
  -27.4880  -32.5600   25.8310 C   0  0  0  0  0  1  0  0  0  0  0  0
  2 51  1  0
  2  1  2  0
  3  2  1  0
  4  1  1  0
  4 11  1  0
  5  3  2  0
  5  7  1  0
  6  3  1  0
  7  4  2  0
  8  9  1  0
  9  5  1  0
 11 10  1  0
 11 12  1  0
 12 21  1  0
 13 21  1  0
 14 19  1  0
 15 16  1  0
 15 14  1  0
 17 16  1  0
 17 26  1  0
 17 18  1  0
 19 13  1  0
 19 18  1  0
 20 13  2  0
 21 22  1  0
 23 24  2  0
 24 43  1  0
 25 24  1  0
 25 28  1  0
 26 23  1  0
 26 27  1  0
 27 25  2  0
 28 29  1  0
 29 30  2  0
 31 34  1  0
 31 30  1  0
 32 31  2  0
 33 32  1  0
 33 28  2  0
 34 35  1  0
 35 36  1  0
 36 37  2  0
 38 37  1  0
 38 42  1  0
 39 38  2  0
 40 35  2  0
 40 39  1  0
 41 40  1  0
 43 44  1  0
 44 47  1  0
 44 46  1  0
 45 43  2  0
 48 49  1  0
 48 23  1  0
 50 48  1  0
 51 52  1  0
 53 52  1  0
 53 54  1  0
 55 66  2  0
 56 54  1  0
 56 61  1  0
 57 65  1  0
 57 67  1  0
 58 64  1  0
 58 60  1  0
 59 65  1  0
 60 59  1  0
 61 60  2  0
 62 63  1  0
 62 56  2  0
 63 58  2  0
 64 57  1  0
 65 55  1  0
 67 69  2  0
 68 67  1  0
 70 68  1  0
 71 80  2  0
 71 76  1  0
 72 68  1  0
 72 76  1  0
 73 72  1  0
 74 75  1  0
 74 73  1  0
 75 71  1  0
 76 77  2  0
 77 78  1  0
 79 78  2  0
 80 79  1  0
 81 55  1  0
 81 82  1  0
 81 91  1  0
 82 85  1  0
 83 87  1  0
 83 82  1  0
 84 83  2  0
 87 86  1  0
 89 87  1  0
 89 90  1  0
 89 88  1  0
 91 94  1  1
 91 92  1  0
 93 91  1  0
M  ISO  4  13 100  21 100  53 101  54 101
M  END
>  <TORSDO>  (64) 
F 22

>  <SCORE>  (64) 
-13.327

>  <name>  (64) 
63

>  <ligand_id>  (64) 
63

>  <original_smiles>  (64) 
[H]c1c([H])c([H])c2c(c1[H])C([H])([H])C([H])([H])C([H])([H])C2([H])N([H])C(=O)C1([H])N(C(=O)C([H])(N([H])C(=O)C([H])(N([H])C([H])([H])[H])C([H])([H])[H])C(C([H])([H])[H])(C([H])([H])[H])C([H])([H])[H])C([H])([H])c2c([H])c(OC([H])([H])C([H])([H])C([H])([H])c3c([H])c(C([H])(C([H])([H])[H])C([H])([H])N([H])C(=O)N4C([H])([H])C([H])([H])C([H])([H])C([H])(n5nc(-c6c([H])c([H])c(Oc7c([H])c([H])c(F)c([H])c7F)c([H])c6[H])c(C(=O)N([H])[H])c5N([H])[H])C4([H])[H])nc(C([H])([H])C([H])([H])[H])c3C([H])([H])[H])c([H])c([H])c2C1([H])[H]

>  <smiles>  (64) 
[H]c1c([H])c([H])c2c(c1[H])C([H])([H])C([H])([H])C([H])([H])C2([H])N([H])C(=O)C1([H])N(C(=O)C([H])(N([H])C(=O)C([H])(N([H])C([H])([H])[H])C([H])([H])[H])C(C([H])([H])[H])(C([H])([H])[H])C([H])([H])[H])C([H])([H])c2c([H])c(OC([H])([H])C([H])([H])C([H])([H])c3c([H])c(C([H])(C([H])([H])[H])C([H])([H])N([H])C(=O)N4C([H])([H])C([H])([H])C([H])([H])C([H])(n5nc(-c6c([H])c([H])c(Oc7c([H])c([H])c(F)c([H])c7F)c([H])c6[H])c(C(=O)N([H])[H])c5N([H])[H])C4([H])[H])nc(C([H])([H])C([H])([H])[H])c3C([H])([H])[H])c([H])c([H])c2C1([H])[H]

$$$$
64:0:0
     RDKit          3D

 93101  0  0  1  0  0  0  0  0999 V2000
  -29.2050  -22.1050   21.7860 C   0  0  0  0  0  3  0  0  0  0  0  0
  -29.9850  -21.6090   22.8440 C   0  0  0  0  0  0  0  0  0  0  0  0
  -29.0000  -21.3600   20.6020 C   0  0  0  0  0  0  0  0  0  0  0  0
  -30.5530  -20.3320   22.7070 C   0  0  0  0  0  0  0  0  0  0  0  0
  -29.6410  -20.0310   20.5590 C   0  0  0  0  0  0  0  0  0  0  0  0
  -30.1900  -22.4570   24.0880 C   0  0  0  0  0  1  0  0  0  0  0  0
  -30.3650  -19.5880   21.6090 N   0  0  0  0  0  0  0  0  0  0  0  0
  -30.6280  -18.6660   24.6240 C   0  0  0  0  0  1  0  0  0  0  0  0
  -31.4150  -19.6750   23.7790 C   0  0  0  0  0  2  0  0  0  0  0  0
  -28.0650  -22.0920   19.5510 C   0  0  0  0  0  2  0  0  0  0  0  0
  -28.2840  -23.6730   19.1640 C   0  0  0  0  0  3  0  0  0  0  0  0
  -27.1390  -24.8050   19.3160 C   0  0  0  0  0  3  0  0  0  0  0  0
  -27.4230  -26.2720   19.1040 O   0  0  0  0  0  0  0  0  0  0  0  0
  -24.4880  -31.6260   23.0430 C   0  0  0  0  0  0  0  0  0  0  0  0
  -26.3780  -27.2120   19.2770 C   0  0  0  0  0  0  0  0  0  0  0  0
  -22.9910  -30.4380   21.4830 C   0  0  0  0  0  3  0  0  0  0  0  0
  -24.1370  -28.9590   19.7380 C   0  0  0  0  0  0  0  0  0  0  0  0
  -25.5000  -30.6440   20.9690 C   0  0  0  0  0  2  0  0  0  0  0  0
  -25.4070  -29.3260   20.2010 C   0  0  0  0  0  0  0  0  0  0  0  0
  -26.5260  -28.4660   19.9620 C   0  0  0  0  0  3  0  0  0  0  0  0
  -25.0820  -26.9200   18.7910 C   0  0  0  0  0  3  0  0  0  0  0  0
  -23.9790  -27.7640   19.0240 C   0  0  0  0  0  3  0  0  0  0  0  0
  -22.9730  -29.8850   20.0340 C   0  0  0  0  0  2  0  0  0  0  0  0
  -24.3540  -30.9170   21.8840 N   0  0  0  0  0  0  0  0  0  0  0  0
  -23.5060  -31.9030   23.7470 O   0  0  0  0  0  0  0  0  0  0  0  0
  -22.4110  -29.3690   22.4410 C   0  0  0  0  0  0  0  0  0  0  0  0
  -21.0940  -29.1170   22.3430 N   0  0  0  0  0  0  0  0  0  0  0  0
  -23.1440  -28.7710   23.2330 O   0  0  0  0  0  0  0  0  0  0  0  0
  -20.5570  -29.6580   21.6790 H   0  0  0  0  0  0  0  0  0  0  0  0
  -17.8390  -27.5960   22.7810 C   0  0  0  0  0  0  0  0  0  0  0  0
  -20.3490  -28.1210   23.1180 C   0  0  0  0  0  3  0  0  0  0  0  0
  -20.6130  -26.6910   22.5890 C   0  0  0  0  0  2  0  0  0  0  0  0
  -19.5810  -26.2330   21.5540 C   0  0  0  0  0  2  0  0  0  0  0  0
  -18.1720  -26.2550   22.1520 C   0  0  0  0  0  2  0  0  0  0  0  0
  -18.8610  -28.4780   23.2200 C   0  0  0  0  0  0  0  0  0  0  0  0
  -18.4970  -29.7280   23.7690 C   0  0  0  0  0  3  0  0  0  0  0  0
  -17.1440  -30.0960   23.8860 C   0  0  0  0  0  3  0  0  0  0  0  0
  -16.1350  -29.2120   23.4620 C   0  0  0  0  0  3  0  0  0  0  0  0
  -16.4840  -27.9650   22.9140 C   0  0  0  0  0  3  0  0  0  0  0  0
  -25.8780  -32.1440   23.5260 C   0  0  0  0  0  3  0  0  0  0  0  0
  -25.6950  -33.5180   24.0160 N   0  0  0  0  0  0  0  0  0  0  0  0
  -26.0650  -34.6210   23.3520 C   0  0  0  0  0  0  0  0  0  0  0  0
  -26.6680  -34.5810   22.2770 O   0  0  0  0  0  0  0  0  0  0  0  0
  -25.1590  -33.6270   24.8660 H   0  0  0  0  0  0  0  0  0  0  0  0
  -24.4690  -36.5640   23.2920 C   0  0  0  0  0  1  0  0  0  0  0  0
  -25.7130  -35.9830   23.9810 C   0  0  0  0  0  3  0  0  0  0  0  0
  -27.9480  -36.6190   24.7740 C   0  0  0  0  0  1  0  0  0  0  0  0
  -26.8190  -36.9640   23.9160 N   0  0  0  0  0  0  0  0  0  0  0  0
  -26.4930  -37.8920   24.1750 H   0  0  0  0  0  0  0  0  0  0  0  0
  -26.5200  -31.2370   24.6470 C   0  0  1  0  0  0  0  0  0  0  0  0
  -25.5750  -30.9550   25.8390 C   0  0  0  0  0  1  0  0  0  0  0  0
  -26.9630  -29.8740   24.0640 C   0  0  0  0  0  1  0  0  0  0  0  0
  -27.7940  -31.9160   25.1990 C   0  0  0  0  0  1  0  0  0  0  0  0
  -29.5580  -18.8440   19.5180 C   0  0  0  0  0  2  0  0  0  0  0  0
  -30.5540  -17.5540   19.6720 C   0  0  0  0  0  2  0  0  0  0  0  0
  -30.8200  -14.9420   19.6660 C   0  0  0  0  0  0  0  0  0  0  0  0
  -30.5800  -12.5900   18.8690 C   0  0  0  0  0  2  0  0  0  0  0  0
  -29.5640  -12.5460   17.7060 C   0  0  0  0  0  2  0  0  0  0  0  0
  -28.1260  -12.4010   18.2410 C   0  0  0  0  0  2  0  0  0  0  0  0
  -27.8180  -13.3810   19.4070 C   0  0  0  0  0  3  0  0  0  0  0  0
  -28.9490  -13.4040   20.4560 C   0  0  0  0  0  2  0  0  0  0  0  0
  -30.1940  -13.7170   19.7450 N   0  0  0  0  0  0  0  0  0  0  0  0
  -31.9930  -15.0050   19.2880 O   0  0  0  0  0  0  0  0  0  0  0  0
  -30.0720  -16.1020   19.7980 N   0  0  0  0  0  0  0  0  0  0  0  0
  -29.1030  -15.9750   20.0500 H   0  0  0  0  0  0  0  0  0  0  0  0
  -25.5250  -14.0160   20.3670 C   0  0  0  0  0  0  0  0  0  0  0  0
  -24.4700  -13.2610   20.8020 C   0  0  0  0  0  0  0  0  0  0  0  0
  -24.8820  -11.8990   20.6810 C   0  0  0  0  0  0  0  0  0  0  0  0
  -26.5140  -13.1140   20.0070 N   0  0  0  0  0  0  0  0  0  0  0  0
  -26.1380  -11.8330   20.2580 N   0  0  0  0  0  0  0  0  0  0  0  0
  -24.1310  -10.6530   20.8860 C   0  0  0  0  0  0  0  0  0  0  0  0
  -24.5720   -9.6670   21.7950 C   0  0  0  0  0  3  0  0  0  0  0  0
  -23.8210   -8.4860   21.9910 C   0  0  0  0  0  3  0  0  0  0  0  0
  -22.6160   -8.2840   21.2760 C   0  0  0  0  0  0  0  0  0  0  0  0
  -22.1950   -9.2590   20.3550 C   0  0  0  0  0  3  0  0  0  0  0  0
  -22.9460  -10.4300   20.1570 C   0  0  0  0  0  3  0  0  0  0  0  0
  -21.8370   -7.1580   21.3820 O   0  0  0  0  0  0  0  0  0  0  0  0
  -21.7480   -6.4510   22.5540 C   0  0  0  0  0  0  0  0  0  0  0  0
  -21.2960   -7.0470   23.7510 C   0  0  0  0  0  3  0  0  0  0  0  0
  -21.1530   -6.2680   24.9160 C   0  0  0  0  0  3  0  0  0  0  0  0
  -21.4530   -4.8930   24.8860 C   0  0  0  0  0  0  0  0  0  0  0  0
  -21.8980   -4.2960   23.6930 C   0  0  0  0  0  3  0  0  0  0  0  0
  -22.0420   -5.0720   22.5310 C   0  0  0  0  0  0  0  0  0  0  0  0
  -22.4510   -4.4870   21.3790 F   0  0  0  0  0  0  0  0  0  0  0  0
  -21.3090   -4.1420   26.0020 F   0  0  0  0  0  0  0  0  0  0  0  0
  -23.1200  -13.7700   21.2130 C   0  0  0  0  0  0  0  0  0  0  0  0
  -22.4500  -13.0670   22.1210 N   0  0  0  0  0  0  0  0  0  0  0  0
  -22.6700  -14.8240   20.7640 O   0  0  0  0  0  0  0  0  0  0  0  0
  -22.8300  -12.2120   22.5010 H   0  0  0  0  0  0  0  0  0  0  0  0
  -21.5460  -13.3870   22.4370 H   0  0  0  0  0  0  0  0  0  0  0  0
  -25.7190  -15.3870   20.2240 N   0  0  0  0  0  0  0  0  0  0  0  0
  -24.9930  -16.0600   20.4390 H   0  0  0  0  0  0  0  0  0  0  0  0
  -26.5410  -15.8140   19.8180 H   0  0  0  0  0  0  0  0  0  0  0  0
  1  2  1  0
  2  6  1  0
  3  1  2  0
  4  2  2  0
  4  9  1  0
  5  3  1  0
  5  7  2  0
  7  4  1  0
  9  8  1  0
 10  3  1  0
 11 12  2  0
 11 10  1  0
 13 15  1  0
 13 12  1  0
 14 25  2  0
 15 20  1  0
 16 24  1  0
 16 26  1  0
 17 23  1  0
 17 19  1  0
 18 24  1  0
 19 18  1  0
 20 19  2  0
 21 22  1  0
 21 15  2  0
 22 17  2  0
 23 16  1  0
 24 14  1  0
 26 28  2  0
 27 26  1  0
 29 27  1  0
 30 39  2  0
 30 35  1  0
 31 27  1  0
 31 35  1  0
 32 31  1  0
 33 34  1  0
 33 32  1  0
 34 30  1  0
 35 36  2  0
 36 37  1  0
 38 37  2  0
 39 38  1  0
 40 14  1  0
 40 41  1  0
 40 50  1  0
 41 44  1  0
 42 46  1  0
 42 41  1  0
 43 42  2  0
 46 45  1  0
 48 46  1  0
 48 49  1  0
 48 47  1  0
 50 53  1  1
 50 51  1  0
 52 50  1  0
 54 55  1  0
 54  5  1  0
 55 64  1  0
 56 62  1  0
 56 64  1  0
 57 62  1  0
 58 59  1  0
 58 57  1  0
 60 59  1  0
 60 69  1  0
 60 61  1  0
 62 61  1  0
 63 56  2  0
 64 65  1  0
 66 67  2  0
 67 86  1  0
 68 67  1  0
 68 71  1  0
 69 70  1  0
 69 66  1  0
 70 68  2  0
 71 72  1  0
 72 73  2  0
 74 77  1  0
 74 73  1  0
 75 74  2  0
 76 75  1  0
 76 71  2  0
 77 78  1  0
 78 79  1  0
 79 80  2  0
 81 80  1  0
 81 85  1  0
 82 81  2  0
 83 78  2  0
 83 82  1  0
 84 83  1  0
 86 87  1  0
 87 90  1  0
 87 89  1  0
 88 86  2  0
 91 66  1  0
 91 92  1  0
 93 91  1  0
M  ISO  4  12 101  13 101  56 100  64 100
M  END
>  <TORSDO>  (65) 
F 22

>  <SCORE>  (65) 
-11.440

>  <name>  (65) 
64

>  <ligand_id>  (65) 
64

>  <original_smiles>  (65) 
[H]c1c([H])c([H])c2c(c1[H])C([H])([H])C([H])([H])C([H])([H])C2([H])N([H])C(=O)C1([H])N(C(=O)C([H])(N([H])C(=O)C([H])(N([H])C([H])([H])[H])C([H])([H])[H])C(C([H])([H])[H])(C([H])([H])[H])C([H])([H])[H])C([H])([H])c2c([H])c(OC([H])([H])C([H])([H])C([H])([H])c3c(C([H])([H])C([H])([H])N([H])C(=O)N4C([H])([H])C([H])([H])C([H])([H])C([H])(n5nc(-c6c([H])c([H])c(Oc7c([H])c([H])c(F)c([H])c7F)c([H])c6[H])c(C(=O)N([H])[H])c5N([H])[H])C4([H])[H])nc(C([H])([H])C([H])([H])[H])c(C([H])([H])[H])c3[H])c([H])c([H])c2C1([H])[H]

>  <smiles>  (65) 
[H]c1c([H])c([H])c2c(c1[H])C([H])([H])C([H])([H])C([H])([H])C2([H])N([H])C(=O)C1([H])N(C(=O)C([H])(N([H])C(=O)C([H])(N([H])C([H])([H])[H])C([H])([H])[H])C(C([H])([H])[H])(C([H])([H])[H])C([H])([H])[H])C([H])([H])c2c([H])c(OC([H])([H])C([H])([H])C([H])([H])c3c(C([H])([H])C([H])([H])N([H])C(=O)N4C([H])([H])C([H])([H])C([H])([H])C([H])(n5nc(-c6c([H])c([H])c(Oc7c([H])c([H])c(F)c([H])c7F)c([H])c6[H])c(C(=O)N([H])[H])c5N([H])[H])C4([H])[H])nc(C([H])([H])C([H])([H])[H])c(C([H])([H])[H])c3[H])c([H])c([H])c2C1([H])[H]

$$$$
65:0:0
     RDKit          3D

 86 93  0  0  1  0  0  0  0  0999 V2000
  -28.5240  -23.0410   20.0460 C   0  0  0  0  0  2  0  0  0  0  0  0
  -29.5390  -21.6150   20.2700 C   0  0  0  0  0  2  0  0  0  0  0  0
  -28.2210  -19.6470   21.2930 C   0  0  0  0  0  1  0  0  0  0  0  0
  -28.3270  -19.8370   18.7930 C   0  0  0  0  0  1  0  0  0  0  0  0
  -29.1450  -19.9040   20.0910 C   0  0  1  0  0  0  0  0  0  0  0  0
  -31.3010  -18.6750   19.0590 C   0  0  0  0  0  1  0  0  0  0  0  0
  -30.1780  -18.4660   20.0820 C   0  0  0  0  0  3  0  0  0  0  0  0
  -29.7080  -16.7600   20.1230 C   0  0  0  0  0  2  0  0  0  0  0  0
  -30.5310  -15.2710   19.8200 C   0  0  0  0  0  0  0  0  0  0  0  0
  -30.4370  -12.8450   18.9310 C   0  0  0  0  0  2  0  0  0  0  0  0
  -29.4380  -12.7030   17.7580 C   0  0  0  0  0  2  0  0  0  0  0  0
  -28.0140  -12.4390   18.2840 C   0  0  0  0  0  2  0  0  0  0  0  0
  -27.6470  -13.3890   19.4520 C   0  0  0  0  0  3  0  0  0  0  0  0
  -28.7670  -13.4900   20.5090 C   0  0  0  0  0  2  0  0  0  0  0  0
  -29.9880  -13.9640   19.8320 N   0  0  0  0  0  0  0  0  0  0  0  0
  -31.7000  -15.3100   19.4120 O   0  0  0  0  0  0  0  0  0  0  0  0
  -25.3520  -13.9510   20.4230 C   0  0  0  0  0  0  0  0  0  0  0  0
  -24.3070  -13.1710   20.8380 C   0  0  0  0  0  0  0  0  0  0  0  0
  -24.7460  -11.8190   20.7110 C   0  0  0  0  0  0  0  0  0  0  0  0
  -26.3550  -13.0720   20.0480 N   0  0  0  0  0  0  0  0  0  0  0  0
  -26.0080  -11.7800   20.2930 N   0  0  0  0  0  0  0  0  0  0  0  0
  -24.0160  -10.5600   20.9080 C   0  0  0  0  0  0  0  0  0  0  0  0
  -24.4760   -9.5790   21.8110 C   0  0  0  0  0  3  0  0  0  0  0  0
  -23.7470   -8.3840   21.9970 C   0  0  0  0  0  3  0  0  0  0  0  0
  -22.5460   -8.1650   21.2820 C   0  0  0  0  0  0  0  0  0  0  0  0
  -22.1050   -9.1380   20.3670 C   0  0  0  0  0  3  0  0  0  0  0  0
  -22.8330  -10.3250   20.1800 C   0  0  0  0  0  3  0  0  0  0  0  0
  -21.7830   -7.0240   21.3790 O   0  0  0  0  0  0  0  0  0  0  0  0
  -21.7290   -6.2920   22.5370 C   0  0  0  0  0  0  0  0  0  0  0  0
  -21.2790   -6.8540   23.7540 C   0  0  0  0  0  3  0  0  0  0  0  0
  -21.1670   -6.0500   24.9040 C   0  0  0  0  0  3  0  0  0  0  0  0
  -21.4930   -4.6810   24.8450 C   0  0  0  0  0  0  0  0  0  0  0  0
  -21.9360   -4.1180   23.6330 C   0  0  0  0  0  3  0  0  0  0  0  0
  -22.0490   -4.9210   22.4840 C   0  0  0  0  0  0  0  0  0  0  0  0
  -22.4520   -4.3660   21.3190 F   0  0  0  0  0  0  0  0  0  0  0  0
  -21.3790   -3.9070   25.9480 F   0  0  0  0  0  0  0  0  0  0  0  0
  -22.9430  -13.6570   21.2380 C   0  0  0  0  0  0  0  0  0  0  0  0
  -22.2730  -12.9450   22.1360 N   0  0  0  0  0  0  0  0  0  0  0  0
  -22.4860  -14.7050   20.7890 O   0  0  0  0  0  0  0  0  0  0  0  0
  -22.6590  -12.0980   22.5250 H   0  0  0  0  0  0  0  0  0  0  0  0
  -21.3620  -13.2590   22.4420 H   0  0  0  0  0  0  0  0  0  0  0  0
  -25.5160  -15.3290   20.3050 N   0  0  0  0  0  0  0  0  0  0  0  0
  -24.7820  -15.9750   20.5730 H   0  0  0  0  0  0  0  0  0  0  0  0
  -26.3370  -15.7950   19.9380 H   0  0  0  0  0  0  0  0  0  0  0  0
  -28.5250  -24.6710   20.7130 C   0  0  0  0  0  2  0  0  0  0  0  0
  -28.4510  -26.1830   20.1720 O   0  0  0  0  0  0  0  0  0  0  0  0
  -24.6600  -31.8830   23.2190 C   0  0  0  0  0  0  0  0  0  0  0  0
  -27.3460  -27.1460   20.2320 C   0  0  0  0  0  0  0  0  0  0  0  0
  -23.4870  -30.4610   21.5800 C   0  0  0  0  0  3  0  0  0  0  0  0
  -24.9760  -28.8890   20.1730 C   0  0  0  0  0  0  0  0  0  0  0  0
  -26.0410  -30.7580   21.4210 C   0  0  0  0  0  2  0  0  0  0  0  0
  -26.1500  -29.3550   20.7810 C   0  0  0  0  0  0  0  0  0  0  0  0
  -27.3310  -28.5050   20.7870 C   0  0  0  0  0  3  0  0  0  0  0  0
  -26.1390  -26.7980   19.5850 C   0  0  0  0  0  3  0  0  0  0  0  0
  -24.9870  -27.6260   19.5540 C   0  0  0  0  0  3  0  0  0  0  0  0
  -23.7330  -29.7750   20.2070 C   0  0  0  0  0  2  0  0  0  0  0  0
  -24.7490  -31.0570   22.1310 N   0  0  0  0  0  0  0  0  0  0  0  0
  -23.5670  -32.1470   23.7460 O   0  0  0  0  0  0  0  0  0  0  0  0
  -22.8250  -29.4480   22.5480 C   0  0  0  0  0  0  0  0  0  0  0  0
  -21.5010  -29.2470   22.4210 N   0  0  0  0  0  0  0  0  0  0  0  0
  -23.5070  -28.8420   23.3790 O   0  0  0  0  0  0  0  0  0  0  0  0
  -21.0020  -29.7960   21.7340 H   0  0  0  0  0  0  0  0  0  0  0  0
  -18.1520  -27.9470   22.8990 C   0  0  0  0  0  0  0  0  0  0  0  0
  -20.6990  -28.2910   23.1890 C   0  0  0  0  0  3  0  0  0  0  0  0
  -20.8490  -26.8570   22.6310 C   0  0  0  0  0  2  0  0  0  0  0  0
  -19.7700  -26.4910   21.6060 C   0  0  0  0  0  2  0  0  0  0  0  0
  -18.3770  -26.6010   22.2340 C   0  0  0  0  0  2  0  0  0  0  0  0
  -19.2420  -28.7480   23.3330 C   0  0  0  0  0  0  0  0  0  0  0  0
  -18.9750  -30.0090   23.9100 C   0  0  0  0  0  3  0  0  0  0  0  0
  -17.6530  -30.4660   24.0630 C   0  0  0  0  0  3  0  0  0  0  0  0
  -16.5780  -29.6610   23.6460 C   0  0  0  0  0  3  0  0  0  0  0  0
  -16.8290  -28.4040   23.0680 C   0  0  0  0  0  3  0  0  0  0  0  0
  -25.9230  -32.5480   23.8480 C   0  0  0  0  0  3  0  0  0  0  0  0
  -25.5870  -33.9490   24.1550 N   0  0  0  0  0  0  0  0  0  0  0  0
  -25.9000  -34.9990   23.3850 C   0  0  0  0  0  0  0  0  0  0  0  0
  -26.5630  -34.8930   22.3510 O   0  0  0  0  0  0  0  0  0  0  0  0
  -24.9920  -34.1030   24.9560 H   0  0  0  0  0  0  0  0  0  0  0  0
  -24.1350  -36.7630   23.0380 C   0  0  0  0  0  1  0  0  0  0  0  0
  -25.3970  -36.3870   23.8300 C   0  0  0  0  0  3  0  0  0  0  0  0
  -27.5290  -37.3300   24.6130 C   0  0  0  0  0  1  0  0  0  0  0  0
  -26.4090  -37.4580   23.6830 N   0  0  0  0  0  0  0  0  0  0  0  0
  -25.9860  -38.3730   23.8170 H   0  0  0  0  0  0  0  0  0  0  0  0
  -26.4300  -31.8080   25.1470 C   0  0  1  0  0  0  0  0  0  0  0  0
  -25.3280  -31.5800   26.2060 C   0  0  0  0  0  1  0  0  0  0  0  0
  -27.0320  -30.4300   24.7960 C   0  0  0  0  0  1  0  0  0  0  0  0
  -27.5600  -32.6300   25.8100 C   0  0  0  0  0  1  0  0  0  0  0  0
  1  2  1  0
  1 45  1  0
  5  4  1  6
  5  2  1  0
  5  3  1  0
  7  6  1  0
  7  5  1  0
  7  8  1  0
  9 15  1  0
  9  8  1  0
 10 15  1  0
 11 12  1  0
 11 10  1  0
 13 12  1  0
 13 20  1  0
 13 14  1  0
 15 14  1  0
 16  9  2  0
 17 18  2  0
 18 37  1  0
 19 18  1  0
 19 22  1  0
 20 21  1  0
 20 17  1  0
 21 19  2  0
 22 23  1  0
 23 24  2  0
 25 28  1  0
 25 24  1  0
 26 25  2  0
 27 26  1  0
 27 22  2  0
 28 29  1  0
 29 30  1  0
 30 31  2  0
 32 31  1  0
 32 36  1  0
 33 32  2  0
 34 29  2  0
 34 33  1  0
 35 34  1  0
 37 38  1  0
 38 41  1  0
 38 40  1  0
 39 37  2  0
 42 17  1  0
 42 43  1  0
 44 42  1  0
 46 48  1  0
 46 45  1  0
 47 58  2  0
 48 53  1  0
 49 57  1  0
 49 59  1  0
 50 56  1  0
 50 52  1  0
 51 57  1  0
 52 53  2  0
 52 51  1  0
 54 48  2  0
 55 54  1  0
 55 50  2  0
 56 49  1  0
 57 47  1  0
 59 61  2  0
 60 59  1  0
 62 60  1  0
 63 72  2  0
 63 68  1  0
 64 60  1  0
 64 68  1  0
 65 64  1  0
 66 67  1  0
 66 65  1  0
 67 63  1  0
 68 69  2  0
 69 70  1  0
 71 70  2  0
 72 71  1  0
 73 47  1  0
 73 74  1  0
 73 83  1  0
 74 77  1  0
 75 79  1  0
 75 74  1  0
 76 75  2  0
 79 78  1  0
 81 82  1  0
 81 79  1  0
 81 80  1  0
 83 86  1  1
 83 84  1  0
 85 83  1  0
M  ISO  4   8 100   9 100  45 101  46 101
M  END
>  <TORSDO>  (66) 
F 21

>  <SCORE>  (66) 
-14.848

>  <name>  (66) 
65

>  <ligand_id>  (66) 
65

>  <original_smiles>  (66) 
[H]c1c([H])c([H])c2c(c1[H])C([H])([H])C([H])([H])C([H])([H])C2([H])N([H])C(=O)C1([H])N(C(=O)C([H])(N([H])C(=O)C([H])(N([H])C([H])([H])[H])C([H])([H])[H])C(C([H])([H])[H])(C([H])([H])[H])C([H])([H])[H])C([H])([H])c2c([H])c(OC([H])([H])C([H])([H])C([H])([H])C(C([H])([H])[H])(C([H])([H])[H])C([H])(C([H])([H])[H])C([H])([H])C(=O)N3C([H])([H])C([H])([H])C([H])([H])C([H])(n4nc(-c5c([H])c([H])c(Oc6c([H])c([H])c(F)c([H])c6F)c([H])c5[H])c(C(=O)N([H])[H])c4N([H])[H])C3([H])[H])c([H])c([H])c2C1([H])[H]

>  <smiles>  (66) 
[H]c1c([H])c([H])c2c(c1[H])C([H])([H])C([H])([H])C([H])([H])C2([H])N([H])C(=O)C1([H])N(C(=O)C([H])(N([H])C(=O)C([H])(N([H])C([H])([H])[H])C([H])([H])[H])C(C([H])([H])[H])(C([H])([H])[H])C([H])([H])[H])C([H])([H])c2c([H])c(OC([H])([H])C([H])([H])C([H])([H])C(C([H])([H])[H])(C([H])([H])[H])C([H])(C([H])([H])[H])C([H])([H])C(=O)N3C([H])([H])C([H])([H])C([H])([H])C([H])(n4nc(-c5c([H])c([H])c(Oc6c([H])c([H])c(F)c([H])c6F)c([H])c5[H])c(C(=O)N([H])[H])c4N([H])[H])C3([H])[H])c([H])c([H])c2C1([H])[H]

$$$$
66:0:0
     RDKit          3D

 94102  0  0  1  0  0  0  0  0999 V2000
  -27.1670  -22.7420   20.7420 C   0  0  0  0  0  3  0  0  0  0  0  0
  -26.4230  -21.7700   20.0580 C   0  0  0  0  0  0  0  0  0  0  0  0
  -28.5610  -22.6150   20.9630 C   0  0  0  0  0  0  0  0  0  0  0  0
  -27.0950  -20.6270   19.6140 C   0  0  0  0  0  0  0  0  0  0  0  0
  -29.1010  -21.2800   20.6710 C   0  0  0  0  0  0  0  0  0  0  0  0
  -24.9460  -22.0070   19.7850 C   0  0  0  0  0  1  0  0  0  0  0  0
  -28.3740  -20.4010   19.9430 N   0  0  0  0  0  0  0  0  0  0  0  0
  -26.9320  -19.6280   17.2870 C   0  0  0  0  0  1  0  0  0  0  0  0
  -26.4480  -19.5570   18.7410 C   0  0  0  0  0  2  0  0  0  0  0  0
  -31.0380  -21.3310   22.3250 C   0  0  0  0  0  1  0  0  0  0  0  0
  -30.4270  -20.5590   21.1300 C   0  0  0  0  0  3  0  0  0  0  0  0
  -30.2520  -18.9250   21.3990 C   0  0  0  0  0  3  0  0  0  0  0  0
  -31.1680  -17.6050   21.0860 C   0  0  0  0  0  3  0  0  0  0  0  0
  -31.2730  -15.0340   21.0420 C   0  0  0  0  0  0  0  0  0  0  0  0
  -31.0260  -12.8280   19.9260 C   0  0  0  0  0  2  0  0  0  0  0  0
  -30.2420  -13.0380   18.6140 C   0  0  0  0  0  2  0  0  0  0  0  0
  -28.7260  -12.9320   18.8690 C   0  0  0  0  0  2  0  0  0  0  0  0
  -28.2700  -13.7940   20.0790 C   0  0  0  0  0  3  0  0  0  0  0  0
  -29.1920  -13.5900   21.3010 C   0  0  0  0  0  2  0  0  0  0  0  0
  -30.5690  -13.8690   20.8720 N   0  0  0  0  0  0  0  0  0  0  0  0
  -32.4760  -15.0730   20.7760 O   0  0  0  0  0  0  0  0  0  0  0  0
  -30.5970  -16.2100   21.2910 N   0  0  0  0  0  0  0  0  0  0  0  0
  -29.6040  -16.1360   21.4710 H   0  0  0  0  0  0  0  0  0  0  0  0
  -25.8380  -14.4730   20.5410 C   0  0  0  0  0  0  0  0  0  0  0  0
  -24.7080  -13.7420   20.7750 C   0  0  0  0  0  0  0  0  0  0  0  0
  -25.1140  -12.3710   20.7610 C   0  0  0  0  0  0  0  0  0  0  0  0
  -26.8670  -13.5540   20.4050 N   0  0  0  0  0  0  0  0  0  0  0  0
  -26.4280  -12.2840   20.5980 N   0  0  0  0  0  0  0  0  0  0  0  0
  -24.3190  -11.1410   20.8350 C   0  0  0  0  0  0  0  0  0  0  0  0
  -24.5720  -10.1560   21.8180 C   0  0  0  0  0  3  0  0  0  0  0  0
  -23.7790   -8.9910   21.8810 C   0  0  0  0  0  3  0  0  0  0  0  0
  -22.7200   -8.7990   20.9620 C   0  0  0  0  0  0  0  0  0  0  0  0
  -22.4880   -9.7710   19.9710 C   0  0  0  0  0  3  0  0  0  0  0  0
  -23.2800  -10.9300   19.9050 C   0  0  0  0  0  3  0  0  0  0  0  0
  -21.9160   -7.6840   20.9340 O   0  0  0  0  0  0  0  0  0  0  0  0
  -21.5830   -7.0070   22.0800 C   0  0  0  0  0  0  0  0  0  0  0  0
  -20.9420   -7.6470   23.1630 C   0  0  0  0  0  3  0  0  0  0  0  0
  -20.5540   -6.8980   24.2920 C   0  0  0  0  0  3  0  0  0  0  0  0
  -20.8000   -5.5120   24.3360 C   0  0  0  0  0  0  0  0  0  0  0  0
  -21.4340   -4.8720   23.2550 C   0  0  0  0  0  3  0  0  0  0  0  0
  -21.8200   -5.6180   22.1280 C   0  0  0  0  0  0  0  0  0  0  0  0
  -22.4120   -4.9940   21.0800 F   0  0  0  0  0  0  0  0  0  0  0  0
  -20.4180   -4.7900   25.4160 F   0  0  0  0  0  0  0  0  0  0  0  0
  -23.3120  -14.2750   20.9050 C   0  0  0  0  0  0  0  0  0  0  0  0
  -22.4710  -13.6120   21.6890 N   0  0  0  0  0  0  0  0  0  0  0  0
  -22.9730  -15.3190   20.3470 O   0  0  0  0  0  0  0  0  0  0  0  0
  -22.7530  -12.7710   22.1690 H   0  0  0  0  0  0  0  0  0  0  0  0
  -21.5330  -13.9600   21.8200 H   0  0  0  0  0  0  0  0  0  0  0  0
  -26.0750  -15.8360   20.4050 N   0  0  0  0  0  0  0  0  0  0  0  0
  -25.3120  -16.5040   20.3990 H   0  0  0  0  0  0  0  0  0  0  0  0
  -26.9680  -16.2510   20.1730 H   0  0  0  0  0  0  0  0  0  0  0  0
  -29.2680  -23.9520   21.4730 C   0  0  0  0  0  3  0  0  0  0  0  0
  -28.6490  -25.3400   20.9020 C   0  0  0  0  0  3  0  0  0  0  0  0
  -29.0150  -26.7490   21.2460 O   0  0  0  0  0  0  0  0  0  0  0  0
  -25.1840  -32.0880   24.2660 C   0  0  0  0  0  0  0  0  0  0  0  0
  -27.9590  -27.6810   21.1260 C   0  0  0  0  0  0  0  0  0  0  0  0
  -24.0930  -30.8200   22.4550 C   0  0  0  0  0  3  0  0  0  0  0  0
  -25.6310  -29.3600   21.0350 C   0  0  0  0  0  0  0  0  0  0  0  0
  -26.6460  -31.1110   22.4810 C   0  0  0  0  0  2  0  0  0  0  0  0
  -26.7600  -29.7760   21.7520 C   0  0  0  0  0  0  0  0  0  0  0  0
  -27.9300  -28.9550   21.7860 C   0  0  0  0  0  3  0  0  0  0  0  0
  -26.8070  -27.3420   20.3700 C   0  0  0  0  0  3  0  0  0  0  0  0
  -25.6590  -28.1500   20.3340 C   0  0  0  0  0  3  0  0  0  0  0  0
  -24.4080  -30.2540   21.0480 C   0  0  0  0  0  2  0  0  0  0  0  0
  -25.3230  -31.3530   23.1250 N   0  0  0  0  0  0  0  0  0  0  0  0
  -24.0650  -32.3430   24.7340 O   0  0  0  0  0  0  0  0  0  0  0  0
  -23.3540  -29.7430   23.2870 C   0  0  0  0  0  0  0  0  0  0  0  0
  -22.0800  -29.4820   22.9470 N   0  0  0  0  0  0  0  0  0  0  0  0
  -23.9310  -29.1520   24.2030 O   0  0  0  0  0  0  0  0  0  0  0  0
  -21.6670  -30.0280   22.2030 H   0  0  0  0  0  0  0  0  0  0  0  0
  -18.7550  -28.0510   22.8750 C   0  0  0  0  0  0  0  0  0  0  0  0
  -21.2080  -28.4870   23.5760 C   0  0  0  0  0  3  0  0  0  0  0  0
  -21.5010  -27.0660   23.0390 C   0  0  0  0  0  2  0  0  0  0  0  0
  -20.6130  -26.6700   21.8540 C   0  0  0  0  0  2  0  0  0  0  0  0
  -19.1350  -26.7170   22.2530 C   0  0  0  0  0  2  0  0  0  0  0  0
  -19.7310  -28.8870   23.4820 C   0  0  0  0  0  0  0  0  0  0  0  0
  -19.3270  -30.1310   24.0140 C   0  0  0  0  0  3  0  0  0  0  0  0
  -17.9810  -30.5370   23.9540 C   0  0  0  0  0  3  0  0  0  0  0  0
  -17.0190  -29.6970   23.3650 C   0  0  0  0  0  3  0  0  0  0  0  0
  -17.4060  -28.4560   22.8310 C   0  0  0  0  0  3  0  0  0  0  0  0
  -26.4200  -32.6660   25.0200 C   0  0  0  0  0  3  0  0  0  0  0  0
  -26.1600  -34.0910   25.2750 N   0  0  0  0  0  0  0  0  0  0  0  0
  -26.6190  -35.0960   24.5170 C   0  0  0  0  0  0  0  0  0  0  0  0
  -27.3730  -34.9190   23.5570 O   0  0  0  0  0  0  0  0  0  0  0  0
  -25.5100  -34.3070   26.0170 H   0  0  0  0  0  0  0  0  0  0  0  0
  -25.0300  -36.9620   23.9440 C   0  0  0  0  0  1  0  0  0  0  0  0
  -26.1680  -36.5240   24.8810 C   0  0  0  0  0  3  0  0  0  0  0  0
  -28.2710  -37.3150   25.8720 C   0  0  0  0  0  1  0  0  0  0  0  0
  -27.2640  -37.5170   24.8340 N   0  0  0  0  0  0  0  0  0  0  0  0
  -26.8950  -38.4600   24.9320 H   0  0  0  0  0  0  0  0  0  0  0  0
  -26.7340  -31.9110   26.3700 C   0  0  1  0  0  0  0  0  0  0  0  0
  -25.4940  -31.7100   27.2750 C   0  0  0  0  0  1  0  0  0  0  0  0
  -27.3390  -30.5160   26.0900 C   0  0  0  0  0  1  0  0  0  0  0  0
  -27.7900  -32.6970   27.1790 C   0  0  0  0  0  1  0  0  0  0  0  0
  1  3  1  0
  2  1  2  0
  3 52  1  0
  4  7  2  0
  4  2  1  0
  5  3  2  0
  5 11  1  0
  6  2  1  0
  7  5  1  0
  8  9  1  0
  9  4  1  0
 11 12  1  0
 11 10  1  0
 13 22  1  0
 13 12  2  0
 14 22  1  0
 15 20  1  0
 16 17  1  0
 16 15  1  0
 18 17  1  0
 18 27  1  0
 18 19  1  0
 20 14  1  0
 20 19  1  0
 21 14  2  0
 22 23  1  0
 24 25  2  0
 25 44  1  0
 26 25  1  0
 26 29  1  0
 27 24  1  0
 27 28  1  0
 28 26  2  0
 29 30  1  0
 30 31  2  0
 32 31  1  0
 33 32  2  0
 34 33  1  0
 34 29  2  0
 35 32  1  0
 35 36  1  0
 36 41  2  0
 36 37  1  0
 37 38  2  0
 38 39  1  0
 39 43  1  0
 40 39  2  0
 41 40  1  0
 42 41  1  0
 44 45  1  0
 45 48  1  0
 45 47  1  0
 46 44  2  0
 49 24  1  0
 50 49  1  0
 51 49  1  0
 53 54  1  0
 53 52  2  0
 55 66  2  0
 56 54  1  0
 56 61  1  0
 57 65  1  0
 57 67  1  0
 58 64  1  0
 58 60  1  0
 59 65  1  0
 60 61  2  0
 60 59  1  0
 62 56  2  0
 63 62  1  0
 63 58  2  0
 64 57  1  0
 65 55  1  0
 67 69  2  0
 68 67  1  0
 70 68  1  0
 71 76  1  0
 72 68  1  0
 73 72  1  0
 74 75  1  0
 74 73  1  0
 75 71  1  0
 76 72  1  0
 76 77  2  0
 78 77  1  0
 79 78  2  0
 80 71  2  0
 80 79  1  0
 81 55  1  0
 81 82  1  0
 81 91  1  0
 82 85  1  0
 83 87  1  0
 83 82  1  0
 84 83  2  0
 87 86  1  0
 89 87  1  0
 89 90  1  0
 89 88  1  0
 91 94  1  1
 91 92  1  0
 93 91  1  0
M  ISO  4  14 100  22 100  53 101  54 101
M  END
>  <TORSDO>  (67) 
F 22

>  <SCORE>  (67) 
-8.421

>  <name>  (67) 
66

>  <ligand_id>  (67) 
66

>  <original_smiles>  (67) 
[H]c1c([H])c([H])c2c(c1[H])C([H])([H])C([H])([H])C([H])([H])C2([H])N([H])C(=O)C1([H])N(C(=O)C([H])(N([H])C(=O)C([H])(N([H])C([H])([H])[H])C([H])([H])[H])C(C([H])([H])[H])(C([H])([H])[H])C([H])([H])[H])C([H])([H])c2c([H])c(OC([H])([H])C([H])([H])c3c(C([H])(C([H])([H])[H])C([H])([H])C([H])([H])N([H])C(=O)N4C([H])([H])C([H])([H])C([H])([H])C([H])(n5nc(-c6c([H])c([H])c(Oc7c([H])c([H])c(F)c([H])c7F)c([H])c6[H])c(C(=O)N([H])[H])c5N([H])[H])C4([H])[H])nc(C([H])([H])C([H])([H])[H])c(C([H])([H])[H])c3[H])c([H])c([H])c2C1([H])[H]

>  <smiles>  (67) 
[H]c1c([H])c([H])c2c(c1[H])C([H])([H])C([H])([H])C([H])([H])C2([H])N([H])C(=O)C1([H])N(C(=O)C([H])(N([H])C(=O)C([H])(N([H])C([H])([H])[H])C([H])([H])[H])C(C([H])([H])[H])(C([H])([H])[H])C([H])([H])[H])C([H])([H])c2c([H])c(OC([H])([H])C([H])([H])c3c(C([H])(C([H])([H])[H])C([H])([H])C([H])([H])N([H])C(=O)N4C([H])([H])C([H])([H])C([H])([H])C([H])(n5nc(-c6c([H])c([H])c(Oc7c([H])c([H])c(F)c([H])c7F)c([H])c6[H])c(C(=O)N([H])[H])c5N([H])[H])C4([H])[H])nc(C([H])([H])C([H])([H])[H])c(C([H])([H])[H])c3[H])c([H])c([H])c2C1([H])[H]

$$$$
67:0:0
     RDKit          3D

 94 95  0  0  1  0  0  0  0  0999 V2000
  -24.2610  -12.1680   19.1800 C   0  0  0  0  0  1  0  0  0  0  0  0
  -25.9230  -12.9260   18.8390 C   0  0  0  0  0  2  0  0  0  0  0  0
  -23.6730  -11.1220   20.7450 C   0  0  0  0  0  2  0  0  0  0  0  0
  -26.8980  -11.3920   19.4200 C   0  0  0  0  0  3  0  0  0  0  0  0
  -24.9630  -10.2170   21.6310 N   0  0  1  0  0  4  0  0  0  0  0  0
  -26.6080  -10.2850   20.8480 N   0  0  0  0  0  0  0  0  0  0  0  0
  -27.7060   -9.2350   18.2420 C   0  0  0  0  0  1  0  0  0  0  0  0
  -28.0840  -10.6420   18.7450 C   0  0  0  0  0  3  0  0  0  0  0  0
  -29.3670  -10.5190   19.7210 C   0  0  0  0  0  2  0  0  0  0  0  0
  -29.9270  -11.7160   20.7280 C   0  0  0  0  0  1  0  0  0  0  0  0
  -31.5160  -14.4470   21.1550 C   0  0  0  0  0  3  0  0  0  0  0  0
  -32.1370  -12.2230   19.9970 C   0  0  0  0  0 15  0  0  0  0  0  0
  -30.8190  -12.3790   18.5390 C   0  0  0  0  0 15  0  0  0  0  0  0
  -29.0260  -13.1220   18.9510 C   0  0  0  0  0 15  0  0  0  0  0  0
  -28.4600  -13.6890   20.7570 C   0  0  0  0  0  2  0  0  0  0  0  0
  -29.6770  -13.5600   22.2460 C   0  0  0  0  0  2  0  0  0  0  0  0
  -31.3940  -13.2370   21.4910 N   0  0  0  0  0  0  0  0  0  0  0  0
  -32.3490  -15.1430   20.5730 O   0  0  0  0  0  1  0  0  0  0  0  0
  -30.7420  -13.7630   20.4040 N   0  0  0  0  0  0  0  0  0  0  0  0
  -30.6400  -14.1150   19.4660 H   0  0  0  0  0  0  0  0  0  0  0  0
  -26.0850  -14.3200   21.5550 C   0  0  0  0  0  3  0  0  0  0  0  0
  -25.0500  -13.5620   22.0160 C   0  0  0  0  0  3  0  0  0  0  0  0
  -25.7370  -12.4200   21.5890 C   0  0  0  0  0  2  0  0  0  0  0  0
  -27.1700  -13.5360   21.2940 N   0  0  0  0  0  0  0  0  0  0  0  0
  -26.9280  -12.6620   22.1730 N   0  0  0  0  0  2  0  0  0  0  0  0
  -24.9930   -9.9190   20.1510 C   0  0  0  0  0  0  0  0  0  0  0  0
  -25.2560   -8.5170   20.8420 C   0  0  0  0  0  3  0  0  0  0  0  0
  -24.4180   -7.7420   21.7430 C   0  0  0  0  0  2  0  0  0  0  0  0
  -23.1270   -7.5570   21.2870 C   0  0  0  0  0  0  0  0  0  0  0  0
  -22.8280   -8.4000   20.1750 C   0  0  0  0  0  3  0  0  0  0  0  0
  -23.6790   -9.4690   19.6610 C   0  0  0  0  0  2  0  0  0  0  0  0
  -22.3160   -6.4540   21.5770 O   0  0  0  0  0  0  0  0  0  0  0  0
  -22.1640   -5.7890   22.7910 C   0  0  0  0  0  0  0  0  0  0  0  0
  -21.4880   -6.3870   23.8790 C   0  0  0  0  0  3  0  0  0  0  0  0
  -21.1460   -5.6290   25.0250 C   0  0  0  0  0  3  0  0  0  0  0  0
  -21.4650   -4.2600   25.0980 C   0  0  0  0  0  0  0  0  0  0  0  0
  -22.1380   -3.6530   24.0260 C   0  0  0  0  0  3  0  0  0  0  0  0
  -22.4780   -4.4050   22.8810 C   0  0  0  0  0  0  0  0  0  0  0  0
  -23.0770   -3.7720   21.8450 F   0  0  0  0  0  0  0  0  0  0  0  0
  -21.1260   -3.5310   26.1910 F   0  0  0  0  0  0  0  0  0  0  0  0
  -23.5420  -13.8760   21.9730 C   0  0  0  0  0  0  0  0  0  0  0  0
  -22.7110  -13.0910   22.6460 N   0  0  0  0  0  0  0  0  0  0  0  0
  -23.0490  -14.5230   21.0510 O   0  0  0  0  0  0  0  0  0  0  0  0
  -21.7170  -13.2540   22.5730 H   0  0  0  0  0  0  0  0  0  0  0  0
  -23.0600  -12.4600   23.3520 H   0  0  0  0  0  0  0  0  0  0  0  0
  -26.2390  -15.6330   21.3660 N   0  0  0  0  0  0  0  0  0  0  0  0
  -25.5140  -16.3100   21.5670 H   0  0  0  0  0  0  0  0  0  0  0  0
  -27.1200  -16.0600   21.1110 H   0  0  0  0  0  0  0  0  0  0  0  0
  -22.0250  -10.7790   22.6980 C   0  0  0  0  0  1  0  0  0  0  0  0
  -22.2420  -10.7350   21.1720 C   0  0  0  0  0  2  0  0  0  0  0  0
  -26.4510  -15.3430   18.5940 C   0  0  0  0  0 15  0  0  0  0  0  0
  -27.2060  -17.8230   19.2520 C   0  0  0  0  0 15  0  0  0  0  0  0
  -27.6700  -20.4520   19.1850 C   0  0  0  0  0 15  0  0  0  0  0  0
  -28.4870  -22.6210   19.6810 O   0  0  0  0  0  1  0  0  0  0  0  0
  -26.7190  -30.5840   22.9580 C   0  0  0  0  0  0  0  0  0  0  0  0
  -28.3150  -24.4710   19.8040 C   0  0  0  0  0  0  0  0  0  0  0  0
  -25.5960  -29.3040   21.2290 C   0  0  0  0  0  3  0  0  0  0  0  0
  -26.9050  -27.4750   19.7920 C   0  0  0  0  0  0  0  0  0  0  0  0
  -28.1360  -28.8490   21.4140 C   0  0  0  0  0  2  0  0  0  0  0  0
  -28.0060  -27.3670   20.6270 C   0  0  0  0  0  0  0  0  0  0  0  0
  -28.6960  -25.9120   20.5940 C   0  0  0  0  0  3  0  0  0  0  0  0
  -27.4460  -25.1310   18.8820 C   0  0  0  0  0  3  0  0  0  0  0  0
  -26.7630  -26.4080   18.8930 C   0  0  0  0  0  3  0  0  0  0  0  0
  -25.9000  -28.6640   19.8370 C   0  0  0  0  0  2  0  0  0  0  0  0
  -26.8740  -29.6510   21.9140 N   0  0  0  0  0  0  0  0  0  0  0  0
  -25.5950  -30.9670   23.3440 O   0  0  0  0  0  0  0  0  0  0  0  0
  -24.7320  -28.3650   22.1140 C   0  0  0  0  0  0  0  0  0  0  0  0
  -23.3970  -28.3420   21.9360 N   0  0  0  0  0  0  0  0  0  0  0  0
  -25.2850  -27.6630   22.9640 O   0  0  0  0  0  0  0  0  0  0  0  0
  -22.9910  -28.9560   21.2440 H   0  0  0  0  0  0  0  0  0  0  0  0
  -19.9130  -27.3680   22.3150 C   0  0  0  0  0  0  0  0  0  0  0  0
  -22.4800  -27.4260   22.6310 C   0  0  0  0  0  3  0  0  0  0  0  0
  -22.4840  -26.0340   21.9580 C   0  0  0  0  0  2  0  0  0  0  0  0
  -21.3890  -25.8770   20.8990 C   0  0  0  0  0  2  0  0  0  0  0  0
  -20.0070  -26.0720   21.5270 C   0  0  0  0  0  2  0  0  0  0  0  0
  -21.0750  -28.0140   22.8180 C   0  0  0  0  0  0  0  0  0  0  0  0
  -20.9300  -29.2290   23.5210 C   0  0  0  0  0  3  0  0  0  0  0  0
  -19.6580  -29.8000   23.7190 C   0  0  0  0  0  3  0  0  0  0  0  0
  -18.5120  -29.1510   23.2260 C   0  0  0  0  0  3  0  0  0  0  0  0
  -18.6410  -27.9360   22.5310 C   0  0  0  0  0  3  0  0  0  0  0  0
  -27.9050  -31.2390   23.7360 C   0  0  0  0  0  3  0  0  0  0  0  0
  -27.4860  -32.5780   24.2450 N   0  0  0  0  0  0  0  0  0  0  0  0
  -27.8990  -33.7730   23.7930 C   0  0  0  0  0  0  0  0  0  0  0  0
  -28.7110  -33.8770   22.8720 O   0  0  0  0  0  0  0  0  0  0  0  0
  -26.7670  -32.5700   24.9520 H   0  0  0  0  0  0  0  0  0  0  0  0
  -26.2240  -35.6580   23.5860 C   0  0  0  0  0  1  0  0  0  0  0  0
  -27.3360  -35.0550   24.4590 C   0  0  0  0  0  3  0  0  0  0  0  0
  -29.3020  -35.7410   25.7740 C   0  0  0  0  0  1  0  0  0  0  0  0
  -28.3580  -36.0950   24.7160 N   0  0  0  0  0  0  0  0  0  0  0  0
  -27.9200  -36.9780   24.9640 H   0  0  0  0  0  0  0  0  0  0  0  0
  -28.3840  -30.3750   24.9690 C   0  0  1  0  0  0  0  0  0  0  0  0
  -27.2450  -29.9810   25.9420 C   0  0  0  0  0  1  0  0  0  0  0  0
  -29.0560  -29.0720   24.5080 C   0  0  0  0  0  1  0  0  0  0  0  0
  -29.4560  -31.1510   25.7700 C   0  0  0  0  0  1  0  0  0  0  0  0
  2  1  1  0
  3 50  1  0
  4  2  1  0
  4  6  1  0
  5  3  1  1
  6  5  1  0
  8  7  1  0
  8  4  1  0
  8  9  1  0
  9 10  1  0
 11 18  1  0
 11 17  1  0
 15 24  1  0
 15 16  1  0
 17 16  1  0
 19 11  1  0
 19 17  1  0
 20 19  1  0
 21 46  1  0
 21 22  1  0
 22 41  1  0
 23 22  1  0
 23 25  1  0
 24 21  1  0
 24 25  1  0
 26 31  1  0
 26 27  1  0
 26  6  1  0
 26  5  1  0
 27  5  1  0
 27 28  1  0
 29 32  1  0
 29 28  1  0
 30 29  2  0
 31 30  1  0
 32 33  1  0
 33 38  2  0
 33 34  1  0
 34 35  2  0
 35 36  1  0
 36 40  1  0
 37 36  2  0
 38 37  1  0
 39 38  1  0
 41 42  1  0
 42 45  1  0
 43 41  2  0
 44 42  1  0
 46 47  1  0
 48 46  1  0
 50 49  1  0
 54 56  1  0
 55 66  2  0
 56 61  1  0
 57 65  1  0
 57 67  1  0
 58 64  1  0
 58 60  1  0
 59 65  1  0
 60 59  1  0
 61 60  2  0
 62 63  1  0
 62 56  2  0
 63 58  2  0
 64 57  1  0
 65 55  1  0
 67 69  2  0
 68 67  1  0
 70 68  1  0
 71 80  2  0
 71 76  1  0
 72 68  1  0
 72 76  1  0
 73 72  1  0
 74 75  1  0
 74 73  1  0
 75 71  1  0
 76 77  2  0
 77 78  1  0
 79 78  2  0
 80 79  1  0
 81 55  1  0
 81 82  1  0
 81 91  1  0
 82 85  1  0
 83 82  1  0
 83 87  1  0
 84 83  2  0
 87 86  1  0
 87 89  1  0
 89 90  1  0
 89 88  1  0
 91 94  1  1
 91 92  1  0
 93 91  1  0
M  ISO  4  11 100  19 100  53 101  54 101
M  END
>  <TORSDO>  (68) 
F 23

>  <SCORE>  (68) 
-1.424

>  <name>  (68) 
67

>  <ligand_id>  (68) 
67

>  <original_smiles>  (68) 
[H]c1c([H])c([H])c2c(c1[H])C([H])([H])C([H])([H])C([H])([H])C2([H])N([H])C(=O)C1([H])N(C(=O)C([H])(N([H])C(=O)C([H])(N([H])C([H])([H])[H])C([H])([H])[H])C(C([H])([H])[H])(C([H])([H])[H])C([H])([H])[H])C([H])([H])c2c([H])c(OC([H])([H])C([H])([H])C([H])([H])c3c(C([H])(C([H])([H])[H])C([H])([H])C([H])([H])N([H])C(=O)N4C([H])([H])C([H])([H])C([H])([H])C([H])(n5nc(-c6c([H])c([H])c(Oc7c([H])c([H])c(F)c([H])c7F)c([H])c6[H])c(C(=O)N([H])[H])c5N([H])[H])C4([H])[H])nnc(C([H])([H])C([H])([H])[H])c3[H])c([H])c([H])c2C1([H])[H]

>  <smiles>  (68) 
[H]c1c([H])c([H])c2c(c1[H])C([H])([H])C([H])([H])C([H])([H])C2([H])N([H])C(=O)C1([H])N(C(=O)C([H])(N([H])C(=O)C([H])(N([H])C([H])([H])[H])C([H])([H])[H])C(C([H])([H])[H])(C([H])([H])[H])C([H])([H])[H])C([H])([H])c2c([H])c(OC([H])([H])C([H])([H])C([H])([H])c3c(C([H])(C([H])([H])[H])C([H])([H])C([H])([H])N([H])C(=O)N4C([H])([H])C([H])([H])C([H])([H])C([H])(n5nc(-c6c([H])c([H])c(Oc7c([H])c([H])c(F)c([H])c7F)c([H])c6[H])c(C(=O)N([H])[H])c5N([H])[H])C4([H])[H])nnc(C([H])([H])C([H])([H])[H])c3[H])c([H])c([H])c2C1([H])[H]

$$$$
68:0:0
     RDKit          3D

 92100  0  0  1  0  0  0  0  0999 V2000
  -31.2590  -21.4010   18.1380 C   0  0  0  0  0  3  0  0  0  0  0  0
  -30.3820  -22.3590   18.6980 C   0  0  0  0  0  3  0  0  0  0  0  0
  -31.1890  -20.2710   18.8960 C   0  0  0  0  0  0  0  0  0  0  0  0
  -29.7840  -21.8070   19.7950 C   0  0  0  0  0  0  0  0  0  0  0  0
  -32.0470  -19.0520   18.7470 C   0  0  0  0  0  1  0  0  0  0  0  0
  -30.2070  -20.4520   19.8810 N   0  0  0  0  0  0  0  0  0  0  0  0
  -28.8560  -22.5380   20.7480 C   0  0  0  0  0  2  0  0  0  0  0  0
  -29.0550  -24.1020   20.8370 C   0  0  0  0  0  2  0  0  0  0  0  0
  -28.0650  -25.0000   20.0380 C   0  0  0  0  0  2  0  0  0  0  0  0
  -28.2520  -26.4350   20.2300 O   0  0  0  0  0  0  0  0  0  0  0  0
  -24.4570  -31.7440   23.1450 C   0  0  0  0  0  0  0  0  0  0  0  0
  -27.1240  -27.2420   20.1310 C   0  0  0  0  0  0  0  0  0  0  0  0
  -23.2850  -30.3610   21.4660 C   0  0  0  0  0  3  0  0  0  0  0  0
  -24.7630  -28.8250   20.0640 C   0  0  0  0  0  0  0  0  0  0  0  0
  -25.8230  -30.6870   21.3430 C   0  0  0  0  0  2  0  0  0  0  0  0
  -25.9120  -29.3160   20.6940 C   0  0  0  0  0  0  0  0  0  0  0  0
  -27.0970  -28.5350   20.7230 C   0  0  0  0  0  3  0  0  0  0  0  0
  -25.9600  -26.7980   19.4600 C   0  0  0  0  0  3  0  0  0  0  0  0
  -24.7860  -27.5690   19.4360 C   0  0  0  0  0  3  0  0  0  0  0  0
  -23.5260  -29.6940   20.0860 C   0  0  0  0  0  2  0  0  0  0  0  0
  -24.5390  -30.9470   22.0430 N   0  0  0  0  0  0  0  0  0  0  0  0
  -23.3630  -32.0200   23.6580 O   0  0  0  0  0  0  0  0  0  0  0  0
  -22.6000  -29.3380   22.4000 C   0  0  0  0  0  0  0  0  0  0  0  0
  -21.2750  -29.1780   22.2510 N   0  0  0  0  0  0  0  0  0  0  0  0
  -23.2590  -28.6900   23.2200 O   0  0  0  0  0  0  0  0  0  0  0  0
  -20.8070  -29.7480   21.5620 H   0  0  0  0  0  0  0  0  0  0  0  0
  -17.8700  -28.0590   22.7040 C   0  0  0  0  0  0  0  0  0  0  0  0
  -20.4310  -28.2470   22.9990 C   0  0  0  0  0  3  0  0  0  0  0  0
  -20.5030  -26.8250   22.3970 C   0  0  0  0  0  2  0  0  0  0  0  0
  -19.4000  -26.5490   21.3690 C   0  0  0  0  0  2  0  0  0  0  0  0
  -18.0180  -26.7190   22.0040 C   0  0  0  0  0  2  0  0  0  0  0  0
  -19.0040  -28.7840   23.1560 C   0  0  0  0  0  0  0  0  0  0  0  0
  -18.8130  -30.0420   23.7670 C   0  0  0  0  0  3  0  0  0  0  0  0
  -17.5200  -30.5740   23.9340 C   0  0  0  0  0  3  0  0  0  0  0  0
  -16.3990  -29.8440   23.4970 C   0  0  0  0  0  3  0  0  0  0  0  0
  -16.5750  -28.5890   22.8880 C   0  0  0  0  0  3  0  0  0  0  0  0
  -25.7310  -32.3650   23.7980 C   0  0  0  0  0  3  0  0  0  0  0  0
  -25.4170  -33.7590   24.1410 N   0  0  0  0  0  0  0  0  0  0  0  0
  -25.7550  -34.8200   23.3960 C   0  0  0  0  0  0  0  0  0  0  0  0
  -26.4370  -34.7270   22.3710 O   0  0  0  0  0  0  0  0  0  0  0  0
  -24.8250  -33.9040   24.9450 H   0  0  0  0  0  0  0  0  0  0  0  0
  -24.0320  -36.6150   23.0320 C   0  0  0  0  0  1  0  0  0  0  0  0
  -25.2590  -36.2030   23.8600 C   0  0  0  0  0  3  0  0  0  0  0  0
  -27.3750  -37.0820   24.7400 C   0  0  0  0  0  1  0  0  0  0  0  0
  -26.2930  -37.2570   23.7770 N   0  0  0  0  0  0  0  0  0  0  0  0
  -25.8820  -38.1750   23.9280 H   0  0  0  0  0  0  0  0  0  0  0  0
  -26.2200  -31.5760   25.0730 C   0  0  1  0  0  0  0  0  0  0  0  0
  -25.1080  -31.3260   26.1170 C   0  0  0  0  0  1  0  0  0  0  0  0
  -26.8130  -30.2040   24.6720 C   0  0  0  0  0  1  0  0  0  0  0  0
  -27.3530  -32.3620   25.7730 C   0  0  0  0  0  1  0  0  0  0  0  0
  -29.8240  -19.4300   20.8940 C   0  0  0  0  0  2  0  0  0  0  0  0
  -28.0230  -17.6510   20.3940 C   0  0  0  0  0  1  0  0  0  0  0  0
  -29.5320  -17.9600   20.3700 C   0  0  0  0  0  3  0  0  0  0  0  0
  -30.3420  -16.8240   21.1110 C   0  0  0  0  0  2  0  0  0  0  0  0
  -30.6390  -14.3890   20.3410 C   0  0  0  0  0  0  0  0  0  0  0  0
  -30.3700  -12.1830   19.2410 C   0  0  0  0  0  2  0  0  0  0  0  0
  -29.4210  -12.3300   18.0340 C   0  0  0  0  0  2  0  0  0  0  0  0
  -27.9510  -12.1920   18.4780 C   0  0  0  0  0  2  0  0  0  0  0  0
  -27.6130  -13.0820   19.7050 C   0  0  0  0  0  3  0  0  0  0  0  0
  -28.6680  -12.8880   20.8160 C   0  0  0  0  0  2  0  0  0  0  0  0
  -29.9840  -13.1960   20.2370 N   0  0  0  0  0  0  0  0  0  0  0  0
  -31.7760  -14.5540   19.8890 O   0  0  0  0  0  0  0  0  0  0  0  0
  -29.9150  -15.4200   20.8490 N   0  0  0  0  0  0  0  0  0  0  0  0
  -28.9770  -15.1910   21.1420 H   0  0  0  0  0  0  0  0  0  0  0  0
  -25.2370  -13.7370   20.4440 C   0  0  0  0  0  0  0  0  0  0  0  0
  -24.1610  -12.9900   20.8320 C   0  0  0  0  0  0  0  0  0  0  0  0
  -24.5930  -11.6290   20.7930 C   0  0  0  0  0  0  0  0  0  0  0  0
  -26.2610  -12.8350   20.1990 N   0  0  0  0  0  0  0  0  0  0  0  0
  -25.8770  -11.5610   20.4680 N   0  0  0  0  0  0  0  0  0  0  0  0
  -23.8420  -10.3820   20.9930 C   0  0  0  0  0  0  0  0  0  0  0  0
  -24.2620   -9.4090   21.9260 C   0  0  0  0  0  3  0  0  0  0  0  0
  -23.5150   -8.2260   22.1130 C   0  0  0  0  0  3  0  0  0  0  0  0
  -22.3310   -8.0080   21.3680 C   0  0  0  0  0  0  0  0  0  0  0  0
  -21.9280   -8.9720   20.4250 C   0  0  0  0  0  3  0  0  0  0  0  0
  -22.6750  -10.1460   20.2380 C   0  0  0  0  0  3  0  0  0  0  0  0
  -21.5550   -6.8790   21.4640 O   0  0  0  0  0  0  0  0  0  0  0  0
  -21.5070   -6.1360   22.6150 C   0  0  0  0  0  0  0  0  0  0  0  0
  -21.0860   -6.6910   23.8430 C   0  0  0  0  0  3  0  0  0  0  0  0
  -20.9850   -5.8740   24.9870 C   0  0  0  0  0  3  0  0  0  0  0  0
  -21.2930   -4.5030   24.9030 C   0  0  0  0  0  0  0  0  0  0  0  0
  -21.7060   -3.9470   23.6800 C   0  0  0  0  0  3  0  0  0  0  0  0
  -21.8110   -4.7620   22.5390 C   0  0  0  0  0  0  0  0  0  0  0  0
  -22.1890   -4.2180   21.3580 F   0  0  0  0  0  0  0  0  0  0  0  0
  -21.1890   -3.7160   26.0010 F   0  0  0  0  0  0  0  0  0  0  0  0
  -22.7760  -13.4990   21.1170 C   0  0  0  0  0  0  0  0  0  0  0  0
  -22.0420  -12.8230   21.9950 N   0  0  0  0  0  0  0  0  0  0  0  0
  -22.3550  -14.5320   20.5990 O   0  0  0  0  0  0  0  0  0  0  0  0
  -22.3930  -11.9910   22.4460 H   0  0  0  0  0  0  0  0  0  0  0  0
  -21.1130  -13.1480   22.2220 H   0  0  0  0  0  0  0  0  0  0  0  0
  -25.4220  -15.1040   20.2560 N   0  0  0  0  0  0  0  0  0  0  0  0
  -24.6600  -15.7660   20.3530 H   0  0  0  0  0  0  0  0  0  0  0  0
  -26.2580  -15.5160   19.8610 H   0  0  0  0  0  0  0  0  0  0  0  0
  1  2  1  0
  1  3  2  0
  2  4  2  0
  3  6  1  0
  4  6  1  0
  4  7  1  0
  5  3  1  0
  6 51  1  0
  7  8  1  0
  9 10  1  0
  9  8  1  0
 11 22  2  0
 12 10  1  0
 12 17  1  0
 13 21  1  0
 13 23  1  0
 14 20  1  0
 14 16  1  0
 15 21  1  0
 16 17  2  0
 16 15  1  0
 18 12  2  0
 19 18  1  0
 19 14  2  0
 20 13  1  0
 21 11  1  0
 23 25  2  0
 24 23  1  0
 26 24  1  0
 27 36  2  0
 27 32  1  0
 28 24  1  0
 28 32  1  0
 29 28  1  0
 30 31  1  0
 30 29  1  0
 31 27  1  0
 32 33  2  0
 33 34  1  0
 35 34  2  0
 36 35  1  0
 37 11  1  0
 37 38  1  0
 37 47  1  0
 38 41  1  0
 39 43  1  0
 39 38  1  0
 40 39  2  0
 43 42  1  0
 45 43  1  0
 45 46  1  0
 45 44  1  0
 47 50  1  1
 47 48  1  0
 49 47  1  0
 53 52  1  0
 53 51  1  0
 53 54  1  0
 55 63  1  0
 56 61  1  0
 57 58  1  0
 57 56  1  0
 59 58  1  0
 59 68  1  0
 59 60  1  0
 61 55  1  0
 61 60  1  0
 62 55  2  0
 63 54  1  0
 63 64  1  0
 65 66  2  0
 66 85  1  0
 67 66  1  0
 67 70  1  0
 68 65  1  0
 68 69  1  0
 69 67  2  0
 70 71  1  0
 71 72  2  0
 73 76  1  0
 73 72  1  0
 74 73  2  0
 75 74  1  0
 75 70  2  0
 76 77  1  0
 77 78  1  0
 78 79  2  0
 80 79  1  0
 80 84  1  0
 81 80  2  0
 82 77  2  0
 82 81  1  0
 83 82  1  0
 85 86  1  0
 86 89  1  0
 86 88  1  0
 87 85  2  0
 90 91  1  0
 90 65  1  0
 92 90  1  0
M  ISO  4   9 101  10 101  55 100  63 100
M  END
>  <TORSDO>  (69) 
F 22

>  <SCORE>  (69) 
-12.985

>  <name>  (69) 
68

>  <ligand_id>  (69) 
68

>  <original_smiles>  (69) 
[H]c1c([H])c([H])c2c(c1[H])C([H])([H])C([H])([H])C([H])([H])C2([H])N([H])C(=O)C1([H])N(C(=O)C([H])(N([H])C(=O)C([H])(N([H])C([H])([H])[H])C([H])([H])[H])C(C([H])([H])[H])(C([H])([H])[H])C([H])([H])[H])C([H])([H])c2c([H])c(OC([H])([H])C([H])([H])C([H])([H])c3c([H])c([H])c(C([H])([H])[H])n3C([H])([H])C([H])(C([H])([H])[H])C([H])([H])N([H])C(=O)N3C([H])([H])C([H])([H])C([H])([H])C([H])(n4nc(-c5c([H])c([H])c(Oc6c([H])c([H])c(F)c([H])c6F)c([H])c5[H])c(C(=O)N([H])[H])c4N([H])[H])C3([H])[H])c([H])c([H])c2C1([H])[H]

>  <smiles>  (69) 
[H]c1c([H])c([H])c2c(c1[H])C([H])([H])C([H])([H])C([H])([H])C2([H])N([H])C(=O)C1([H])N(C(=O)C([H])(N([H])C(=O)C([H])(N([H])C([H])([H])[H])C([H])([H])[H])C(C([H])([H])[H])(C([H])([H])[H])C([H])([H])[H])C([H])([H])c2c([H])c(OC([H])([H])C([H])([H])C([H])([H])c3c([H])c([H])c(C([H])([H])[H])n3C([H])([H])C([H])(C([H])([H])[H])C([H])([H])N([H])C(=O)N3C([H])([H])C([H])([H])C([H])([H])C([H])(n4nc(-c5c([H])c([H])c(Oc6c([H])c([H])c(F)c([H])c6F)c([H])c5[H])c(C(=O)N([H])[H])c4N([H])[H])C3([H])[H])c([H])c([H])c2C1([H])[H]

$$$$
69:0:0
     RDKit          3D

 96104  0  0  1  0  0  0  0  0999 V2000
  -29.5950  -20.4880   21.1570 C   0  0  0  0  0  3  0  0  0  0  0  0
  -29.2300  -19.0910   18.8330 C   0  0  0  0  0  3  0  0  0  0  0  0
  -28.7830  -21.0520   20.1570 C   0  0  0  0  0  0  0  0  0  0  0  0
  -28.6090  -20.3520   18.9370 C   0  0  0  0  0  0  0  0  0  0  0  0
  -30.1670  -19.2150   20.9650 C   0  0  0  0  0  0  0  0  0  0  0  0
  -29.9690  -18.5340   19.8130 N   0  0  0  0  0  0  0  0  0  0  0  0
  -31.5690  -19.4750   23.1040 C   0  0  0  0  0  1  0  0  0  0  0  0
  -29.9770  -17.6100   22.8940 C   0  0  0  0  0  1  0  0  0  0  0  0
  -30.9540  -18.4840   22.0820 C   0  0  1  0  0  0  0  0  0  0  0  0
  -32.1440  -17.6260   21.5510 C   0  0  0  0  0  2  0  0  0  0  0  0
  -31.8460  -16.5400   20.4950 C   0  0  0  0  0  2  0  0  0  0  0  0
  -32.9040  -14.4640   19.7150 C   0  0  0  0  0  0  0  0  0  0  0  0
  -32.2260  -12.2240   18.9330 C   0  0  0  0  0  2  0  0  0  0  0  0
  -31.2630  -12.3170   17.7350 C   0  0  0  0  0  2  0  0  0  0  0  0
  -29.8080  -12.4690   18.2170 C   0  0  0  0  0  2  0  0  0  0  0  0
  -29.6430  -13.5790   19.2910 C   0  0  0  0  0  3  0  0  0  0  0  0
  -30.7040  -13.4130   20.4040 C   0  0  0  0  0  2  0  0  0  0  0  0
  -32.0370  -13.4180   19.7740 N   0  0  0  0  0  0  0  0  0  0  0  0
  -33.9010  -14.4790   18.9920 O   0  0  0  0  0  0  0  0  0  0  0  0
  -32.7670  -15.4120   20.6450 N   0  0  0  0  0  0  0  0  0  0  0  0
  -33.6800  -15.7340   20.9310 H   0  0  0  0  0  0  0  0  0  0  0  0
  -27.4750  -14.6690   20.1550 C   0  0  0  0  0  0  0  0  0  0  0  0
  -26.2780  -14.1300   20.5520 C   0  0  0  0  0  0  0  0  0  0  0  0
  -26.4230  -12.7160   20.4370 C   0  0  0  0  0  0  0  0  0  0  0  0
  -28.2860  -13.5900   19.8330 N   0  0  0  0  0  0  0  0  0  0  0  0
  -27.6550  -12.4060   20.0520 N   0  0  0  0  0  0  0  0  0  0  0  0
  -25.4400  -11.6370   20.6180 C   0  0  0  0  0  0  0  0  0  0  0  0
  -25.6900  -10.5470   21.4830 C   0  0  0  0  0  3  0  0  0  0  0  0
  -24.7180   -9.5370   21.6540 C   0  0  0  0  0  3  0  0  0  0  0  0
  -23.4870   -9.6070   20.9620 C   0  0  0  0  0  0  0  0  0  0  0  0
  -23.2550  -10.6800   20.0840 C   0  0  0  0  0  3  0  0  0  0  0  0
  -24.2230  -11.6860   19.9110 C   0  0  0  0  0  3  0  0  0  0  0  0
  -22.5020   -8.6500   21.0430 O   0  0  0  0  0  0  0  0  0  0  0  0
  -22.3110   -7.9130   22.1830 C   0  0  0  0  0  0  0  0  0  0  0  0
  -22.0510   -8.5200   23.4320 C   0  0  0  0  0  3  0  0  0  0  0  0
  -21.7870   -7.7210   24.5620 C   0  0  0  0  0  3  0  0  0  0  0  0
  -21.7820   -6.3180   24.4470 C   0  0  0  0  0  0  0  0  0  0  0  0
  -22.0370   -5.7110   23.2050 C   0  0  0  0  0  3  0  0  0  0  0  0
  -22.2980   -6.5070   22.0750 C   0  0  0  0  0  0  0  0  0  0  0  0
  -22.5220   -5.9170   20.8760 F   0  0  0  0  0  0  0  0  0  0  0  0
  -21.5210   -5.5510   25.5320 F   0  0  0  0  0  0  0  0  0  0  0  0
  -25.0400  -14.8890   20.9330 C   0  0  0  0  0  0  0  0  0  0  0  0
  -24.2230  -14.3250   21.8170 N   0  0  0  0  0  0  0  0  0  0  0  0
  -24.8140  -16.0120   20.4850 O   0  0  0  0  0  0  0  0  0  0  0  0
  -24.4240  -13.4140   22.2030 H   0  0  0  0  0  0  0  0  0  0  0  0
  -23.3830  -14.8050   22.1050 H   0  0  0  0  0  0  0  0  0  0  0  0
  -27.9320  -15.9750   20.0280 N   0  0  0  0  0  0  0  0  0  0  0  0
  -27.3570  -16.7710   20.2800 H   0  0  0  0  0  0  0  0  0  0  0  0
  -28.8780  -16.2320   19.7730 H   0  0  0  0  0  0  0  0  0  0  0  0
  -27.2930  -19.9580   16.7200 C   0  0  0  0  0  1  0  0  0  0  0  0
  -27.8220  -20.9540   17.7610 C   0  0  0  0  0  2  0  0  0  0  0  0
  -28.1220  -22.3860   20.4460 C   0  0  0  0  0  2  0  0  0  0  0  0
  -29.0320  -23.5660   20.1060 C   0  0  0  0  0  2  0  0  0  0  0  0
  -28.3110  -24.9050   20.2920 C   0  0  0  0  0  2  0  0  0  0  0  0
  -28.9370  -26.0050   19.4240 C   0  0  0  0  0  2  0  0  0  0  0  0
  -28.7550  -27.2760   20.0310 O   0  0  0  0  0  0  0  0  0  0  0  0
  -24.5770  -31.9020   23.3790 C   0  0  0  0  0  0  0  0  0  0  0  0
  -27.5020  -27.8470   20.0570 C   0  0  0  0  0  0  0  0  0  0  0  0
  -23.4630  -30.5340   21.6420 C   0  0  0  0  0  3  0  0  0  0  0  0
  -25.0110  -29.1710   20.1460 C   0  0  0  0  0  0  0  0  0  0  0  0
  -25.9620  -31.0560   21.4900 C   0  0  0  0  0  2  0  0  0  0  0  0
  -26.1270  -29.7360   20.7720 C   0  0  0  0  0  0  0  0  0  0  0  0
  -27.3720  -29.0780   20.7260 C   0  0  0  0  0  3  0  0  0  0  0  0
  -26.3640  -27.2810   19.4300 C   0  0  0  0  0  3  0  0  0  0  0  0
  -25.1210  -27.9390   19.4790 C   0  0  0  0  0  3  0  0  0  0  0  0
  -23.7170  -29.9470   20.2280 C   0  0  0  0  0  2  0  0  0  0  0  0
  -24.6840  -31.1750   22.2300 N   0  0  0  0  0  0  0  0  0  0  0  0
  -23.4790  -32.0800   23.9220 O   0  0  0  0  0  0  0  0  0  0  0  0
  -22.8640  -29.4240   22.5340 C   0  0  0  0  0  0  0  0  0  0  0  0
  -21.5620  -29.1540   22.3550 N   0  0  0  0  0  0  0  0  0  0  0  0
  -23.5690  -28.8080   23.3370 O   0  0  0  0  0  0  0  0  0  0  0  0
  -21.0500  -29.7110   21.6850 H   0  0  0  0  0  0  0  0  0  0  0  0
  -18.2780  -27.6810   22.6530 C   0  0  0  0  0  0  0  0  0  0  0  0
  -20.7910  -28.1230   23.0510 C   0  0  0  0  0  3  0  0  0  0  0  0
  -21.0330  -26.7300   22.4250 C   0  0  0  0  0  2  0  0  0  0  0  0
  -20.0030  -26.3660   21.3500 C   0  0  0  0  0  2  0  0  0  0  0  0
  -18.5880  -26.3780   21.9360 C   0  0  0  0  0  2  0  0  0  0  0  0
  -19.3130  -28.5070   23.1620 C   0  0  0  0  0  0  0  0  0  0  0  0
  -18.9720  -29.7260   23.7870 C   0  0  0  0  0  3  0  0  0  0  0  0
  -17.6260  -30.1190   23.9130 C   0  0  0  0  0  3  0  0  0  0  0  0
  -16.6030  -29.2880   23.4250 C   0  0  0  0  0  3  0  0  0  0  0  0
  -16.9300  -28.0710   22.8000 C   0  0  0  0  0  3  0  0  0  0  0  0
  -25.8220  -32.5610   24.0490 C   0  0  0  0  0  3  0  0  0  0  0  0
  -25.4960  -33.9710   24.2970 N   0  0  0  0  0  0  0  0  0  0  0  0
  -25.8900  -34.9910   23.5240 C   0  0  0  0  0  0  0  0  0  0  0  0
  -26.6370  -34.8440   22.5530 O   0  0  0  0  0  0  0  0  0  0  0  0
  -24.8410  -34.1580   25.0430 H   0  0  0  0  0  0  0  0  0  0  0  0
  -24.1910  -36.7610   22.9750 C   0  0  0  0  0  1  0  0  0  0  0  0
  -25.3720  -36.3950   23.8870 C   0  0  0  0  0  3  0  0  0  0  0  0
  -27.4490  -37.3120   24.8210 C   0  0  0  0  0  1  0  0  0  0  0  0
  -26.4100  -37.4460   23.8030 N   0  0  0  0  0  0  0  0  0  0  0  0
  -25.9960  -38.3700   23.8930 H   0  0  0  0  0  0  0  0  0  0  0  0
  -26.2640  -31.8480   25.3860 C   0  0  1  0  0  0  0  0  0  0  0  0
  -25.1040  -31.6190   26.3820 C   0  0  0  0  0  1  0  0  0  0  0  0
  -26.9040  -30.4750   25.0830 C   0  0  0  0  0  1  0  0  0  0  0  0
  -27.3460  -32.6940   26.1000 C   0  0  0  0  0  1  0  0  0  0  0  0
  2  4  2  0
  2  6  1  0
  3 52  1  0
  3  1  2  0
  4  3  1  0
  5  1  1  0
  5  9  1  0
  6  5  2  0
  9  8  1  1
  9  7  1  0
 10  9  1  0
 11 20  1  0
 11 10  1  0
 12 18  1  0
 12 20  1  0
 13 18  1  0
 14 15  1  0
 14 13  1  0
 16 15  1  0
 16 25  1  0
 16 17  1  0
 18 17  1  0
 19 12  2  0
 20 21  1  0
 22 23  2  0
 23 42  1  0
 24 23  1  0
 24 27  1  0
 25 26  1  0
 25 22  1  0
 26 24  2  0
 27 28  1  0
 28 29  2  0
 30 33  1  0
 30 29  1  0
 31 30  2  0
 32 31  1  0
 32 27  2  0
 33 34  1  0
 34 35  1  0
 35 36  2  0
 37 36  1  0
 37 41  1  0
 38 37  2  0
 39 34  2  0
 39 38  1  0
 40 39  1  0
 42 43  1  0
 43 46  1  0
 43 45  1  0
 44 42  2  0
 47 22  1  0
 47 48  1  0
 49 47  1  0
 50 51  1  0
 51  4  1  0
 53 54  1  0
 53 52  1  0
 55 56  1  0
 55 54  1  0
 56 58  1  0
 57 68  2  0
 58 63  1  0
 59 67  1  0
 59 69  1  0
 60 66  1  0
 60 62  1  0
 61 67  1  0
 62 61  1  0
 63 62  2  0
 64 65  1  0
 64 58  2  0
 65 60  2  0
 66 59  1  0
 67 57  1  0
 69 71  2  0
 70 69  1  0
 72 70  1  0
 73 82  2  0
 73 78  1  0
 74 70  1  0
 74 78  1  0
 75 74  1  0
 76 77  1  0
 76 75  1  0
 77 73  1  0
 78 79  2  0
 79 80  1  0
 81 80  2  0
 82 81  1  0
 83 57  1  0
 83 84  1  0
 83 93  1  0
 84 87  1  0
 85 89  1  0
 85 84  1  0
 86 85  2  0
 89 88  1  0
 91 89  1  0
 91 92  1  0
 91 90  1  0
 93 96  1  1
 93 94  1  0
 95 93  1  0
M  ISO  4  12 100  20 100  55 101  56 101
M  END
>  <TORSDO>  (70) 
F 24

>  <SCORE>  (70) 
-8.874

>  <name>  (70) 
69

>  <ligand_id>  (70) 
69

>  <original_smiles>  (70) 
[H]c1nc(C(C([H])([H])[H])(C([H])([H])[H])C([H])([H])C([H])([H])N([H])C(=O)N2C([H])([H])C([H])([H])C([H])([H])C([H])(n3nc(-c4c([H])c([H])c(Oc5c([H])c([H])c(F)c([H])c5F)c([H])c4[H])c(C(=O)N([H])[H])c3N([H])[H])C2([H])[H])c([H])c(C([H])([H])C([H])([H])C([H])([H])C([H])([H])Oc2c([H])c([H])c3c(c2[H])C([H])([H])N(C(=O)C([H])(N([H])C(=O)C([H])(N([H])C([H])([H])[H])C([H])([H])[H])C(C([H])([H])[H])(C([H])([H])[H])C([H])([H])[H])C([H])(C(=O)N([H])C2([H])c4c([H])c([H])c([H])c([H])c4C([H])([H])C([H])([H])C2([H])[H])C3([H])[H])c1C([H])([H])C([H])([H])[H]

>  <smiles>  (70) 
[H]c1nc(C(C([H])([H])[H])(C([H])([H])[H])C([H])([H])C([H])([H])N([H])C(=O)N2C([H])([H])C([H])([H])C([H])([H])C([H])(n3nc(-c4c([H])c([H])c(Oc5c([H])c([H])c(F)c([H])c5F)c([H])c4[H])c(C(=O)N([H])[H])c3N([H])[H])C2([H])[H])c([H])c(C([H])([H])C([H])([H])C([H])([H])C([H])([H])Oc2c([H])c([H])c3c(c2[H])C([H])([H])N(C(=O)C([H])(N([H])C(=O)C([H])(N([H])C([H])([H])[H])C([H])([H])[H])C(C([H])([H])[H])(C([H])([H])[H])C([H])([H])[H])C([H])(C(=O)N([H])C2([H])c4c([H])c([H])c([H])c([H])c4C([H])([H])C([H])([H])C2([H])[H])C3([H])[H])c1C([H])([H])C([H])([H])[H]

$$$$
70:0:0
     RDKit          3D

 92100  0  0  1  0  0  0  0  0999 V2000
  -29.1090  -20.2460   20.5890 C   0  0  0  0  0  3  0  0  0  0  0  0
  -29.4490  -21.4560   20.0370 C   0  0  0  0  0  0  0  0  0  0  0  0
  -30.5490  -21.1910   19.1600 C   0  0  0  0  0  0  0  0  0  0  0  0
  -30.7460  -19.8260   19.1340 C   0  0  0  0  0  0  0  0  0  0  0  0
  -31.2820  -22.2210   18.3340 C   0  0  0  0  0  1  0  0  0  0  0  0
  -31.6870  -19.0010   18.3010 C   0  0  0  0  0  1  0  0  0  0  0  0
  -29.8100  -19.2210   19.9690 N   0  0  0  0  0  0  0  0  0  0  0  0
  -28.0310  -17.5140   20.3800 C   0  0  0  0  0  1  0  0  0  0  0  0
  -29.5220  -17.7660   20.0850 C   0  0  0  0  0  3  0  0  0  0  0  0
  -30.4170  -16.9590   21.0690 C   0  0  0  0  0  2  0  0  0  0  0  0
  -30.7100  -14.5220   20.4400 C   0  0  0  0  0  0  0  0  0  0  0  0
  -30.3800  -12.3870   19.2460 C   0  0  0  0  0  2  0  0  0  0  0  0
  -29.4480  -12.6340   18.0420 C   0  0  0  0  0  2  0  0  0  0  0  0
  -27.9710  -12.4910   18.4590 C   0  0  0  0  0  2  0  0  0  0  0  0
  -27.6360  -13.2980   19.7410 C   0  0  0  0  0  3  0  0  0  0  0  0
  -28.6880  -13.0540   20.8500 C   0  0  0  0  0  2  0  0  0  0  0  0
  -30.0200  -13.3560   20.2950 N   0  0  0  0  0  0  0  0  0  0  0  0
  -31.8090  -14.7150   19.9180 O   0  0  0  0  0  0  0  0  0  0  0  0
  -30.0620  -15.5170   21.0760 N   0  0  0  0  0  0  0  0  0  0  0  0
  -29.1780  -15.2680   21.4930 H   0  0  0  0  0  0  0  0  0  0  0  0
  -25.2300  -13.9020   20.4320 C   0  0  0  0  0  0  0  0  0  0  0  0
  -24.1590  -13.1310   20.7930 C   0  0  0  0  0  0  0  0  0  0  0  0
  -24.6150  -11.7790   20.7490 C   0  0  0  0  0  0  0  0  0  0  0  0
  -26.2760  -13.0220   20.2060 N   0  0  0  0  0  0  0  0  0  0  0  0
  -25.9080  -11.7380   20.4520 N   0  0  0  0  0  0  0  0  0  0  0  0
  -23.8810  -10.5200   20.9200 C   0  0  0  0  0  0  0  0  0  0  0  0
  -24.2720   -9.5650   21.8840 C   0  0  0  0  0  3  0  0  0  0  0  0
  -23.5400   -8.3690   22.0440 C   0  0  0  0  0  3  0  0  0  0  0  0
  -22.4020   -8.1210   21.2380 C   0  0  0  0  0  0  0  0  0  0  0  0
  -22.0310   -9.0640   20.2650 C   0  0  0  0  0  3  0  0  0  0  0  0
  -22.7640  -10.2520   20.1040 C   0  0  0  0  0  3  0  0  0  0  0  0
  -21.6470   -6.9760   21.3040 O   0  0  0  0  0  0  0  0  0  0  0  0
  -21.5180   -6.2640   22.4700 C   0  0  0  0  0  0  0  0  0  0  0  0
  -20.9600   -6.8360   23.6340 C   0  0  0  0  0  3  0  0  0  0  0  0
  -20.7820   -6.0480   24.7900 C   0  0  0  0  0  3  0  0  0  0  0  0
  -21.1510   -4.6910   24.7790 C   0  0  0  0  0  0  0  0  0  0  0  0
  -21.7030   -4.1180   23.6200 C   0  0  0  0  0  3  0  0  0  0  0  0
  -21.8820   -4.9020   22.4670 C   0  0  0  0  0  0  0  0  0  0  0  0
  -22.3920   -4.3400   21.3460 F   0  0  0  0  0  0  0  0  0  0  0  0
  -20.9750   -3.9320   25.8870 F   0  0  0  0  0  0  0  0  0  0  0  0
  -22.7620  -13.6120   21.0650 C   0  0  0  0  0  0  0  0  0  0  0  0
  -22.0220  -12.9040   21.9120 N   0  0  0  0  0  0  0  0  0  0  0  0
  -22.3350  -14.6520   20.5620 O   0  0  0  0  0  0  0  0  0  0  0  0
  -22.3760  -12.0610   22.3390 H   0  0  0  0  0  0  0  0  0  0  0  0
  -21.0860  -13.2120   22.1340 H   0  0  0  0  0  0  0  0  0  0  0  0
  -25.3900  -15.2720   20.2560 N   0  0  0  0  0  0  0  0  0  0  0  0
  -24.6170  -15.9220   20.3570 H   0  0  0  0  0  0  0  0  0  0  0  0
  -26.2270  -15.7060   19.8930 H   0  0  0  0  0  0  0  0  0  0  0  0
  -28.6230  -22.7330   20.2250 C   0  0  0  0  0  2  0  0  0  0  0  0
  -29.2660  -24.1510   20.3700 C   0  0  0  0  0  2  0  0  0  0  0  0
  -28.1820  -25.2040   19.9940 C   0  0  0  0  0  2  0  0  0  0  0  0
  -28.3790  -26.6210   20.2450 O   0  0  0  0  0  0  0  0  0  0  0  0
  -24.5710  -31.9080   23.2150 C   0  0  0  0  0  0  0  0  0  0  0  0
  -27.2220  -27.4020   20.1960 C   0  0  0  0  0  0  0  0  0  0  0  0
  -23.3680  -30.4830   21.5950 C   0  0  0  0  0  3  0  0  0  0  0  0
  -24.8230  -28.9370   20.1890 C   0  0  0  0  0  0  0  0  0  0  0  0
  -25.8980  -30.8380   21.3930 C   0  0  0  0  0  2  0  0  0  0  0  0
  -25.9880  -29.4600   20.7640 C   0  0  0  0  0  0  0  0  0  0  0  0
  -27.1910  -28.7050   20.7580 C   0  0  0  0  0  3  0  0  0  0  0  0
  -26.0260  -26.9140   19.6070 C   0  0  0  0  0  3  0  0  0  0  0  0
  -24.8390  -27.6630   19.6090 C   0  0  0  0  0  3  0  0  0  0  0  0
  -23.5760  -29.7900   20.2250 C   0  0  0  0  0  2  0  0  0  0  0  0
  -24.6310  -31.0930   22.1240 N   0  0  0  0  0  0  0  0  0  0  0  0
  -23.4890  -32.1830   23.7530 O   0  0  0  0  0  0  0  0  0  0  0  0
  -22.7200  -29.4710   22.5680 C   0  0  0  0  0  0  0  0  0  0  0  0
  -21.3980  -29.2740   22.4340 N   0  0  0  0  0  0  0  0  0  0  0  0
  -23.4020  -28.8650   23.3990 O   0  0  0  0  0  0  0  0  0  0  0  0
  -20.9070  -29.8140   21.7360 H   0  0  0  0  0  0  0  0  0  0  0  0
  -18.0230  -28.0910   22.9600 C   0  0  0  0  0  0  0  0  0  0  0  0
  -20.5830  -28.3450   23.2160 C   0  0  0  0  0  3  0  0  0  0  0  0
  -20.6790  -26.9090   22.6520 C   0  0  0  0  0  2  0  0  0  0  0  0
  -19.5730  -26.5800   21.6450 C   0  0  0  0  0  2  0  0  0  0  0  0
  -18.1930  -26.7350   22.2960 C   0  0  0  0  0  2  0  0  0  0  0  0
  -19.1460  -28.8540   23.3780 C   0  0  0  0  0  0  0  0  0  0  0  0
  -18.9330  -30.1230   23.9580 C   0  0  0  0  0  3  0  0  0  0  0  0
  -17.6310  -30.6280   24.1290 C   0  0  0  0  0  3  0  0  0  0  0  0
  -16.5220  -29.8630   23.7270 C   0  0  0  0  0  3  0  0  0  0  0  0
  -16.7190  -28.5970   23.1470 C   0  0  0  0  0  3  0  0  0  0  0  0
  -25.8550  -32.5520   23.8220 C   0  0  0  0  0  3  0  0  0  0  0  0
  -25.5320  -33.9460   24.1520 N   0  0  0  0  0  0  0  0  0  0  0  0
  -25.8750  -35.0040   23.4060 C   0  0  0  0  0  0  0  0  0  0  0  0
  -26.5650  -34.9110   22.3880 O   0  0  0  0  0  0  0  0  0  0  0  0
  -24.9150  -34.0920   24.9380 H   0  0  0  0  0  0  0  0  0  0  0  0
  -24.1690  -36.8110   23.0060 C   0  0  0  0  0  1  0  0  0  0  0  0
  -25.3720  -36.3860   23.8650 C   0  0  0  0  0  3  0  0  0  0  0  0
  -27.4650  -37.2530   24.8100 C   0  0  0  0  0  1  0  0  0  0  0  0
  -26.4120  -37.4370   23.8150 N   0  0  0  0  0  0  0  0  0  0  0  0
  -26.0000  -38.3540   23.9560 H   0  0  0  0  0  0  0  0  0  0  0  0
  -26.3910  -31.7870   25.0940 C   0  0  1  0  0  0  0  0  0  0  0  0
  -25.3060  -31.5290   26.1660 C   0  0  0  0  0  1  0  0  0  0  0  0
  -26.9950  -30.4210   24.6980 C   0  0  0  0  0  1  0  0  0  0  0  0
  -27.5290  -32.6010   25.7560 C   0  0  0  0  0  1  0  0  0  0  0  0
  2 49  1  0
  2  1  2  0
  3  2  1  0
  4  3  2  0
  4  7  1  0
  5  3  1  0
  6  4  1  0
  7  9  1  0
  7  1  1  0
  9  8  1  0
  9 10  1  0
 10 19  1  0
 11 19  1  0
 12 17  1  0
 13 14  1  0
 13 12  1  0
 15 14  1  0
 15 24  1  0
 15 16  1  0
 17 11  1  0
 17 16  1  0
 18 11  2  0
 19 20  1  0
 21 22  2  0
 22 41  1  0
 23 22  1  0
 23 26  1  0
 24 21  1  0
 24 25  1  0
 25 23  2  0
 26 27  1  0
 27 28  2  0
 29 32  1  0
 29 28  1  0
 30 29  2  0
 31 30  1  0
 31 26  2  0
 32 33  1  0
 33 34  1  0
 34 35  2  0
 36 35  1  0
 36 40  1  0
 37 36  2  0
 38 33  2  0
 38 37  1  0
 39 38  1  0
 41 42  1  0
 42 45  1  0
 42 44  1  0
 43 41  2  0
 46 47  1  0
 46 21  1  0
 48 46  1  0
 49 50  1  0
 51 52  1  0
 51 50  1  0
 53 64  2  0
 54 52  1  0
 54 59  1  0
 55 63  1  0
 55 65  1  0
 56 62  1  0
 56 58  1  0
 57 63  1  0
 58 57  1  0
 59 58  2  0
 60 61  1  0
 60 54  2  0
 61 56  2  0
 62 55  1  0
 63 53  1  0
 65 67  2  0
 66 65  1  0
 68 66  1  0
 69 78  2  0
 69 74  1  0
 70 66  1  0
 70 74  1  0
 71 70  1  0
 72 73  1  0
 72 71  1  0
 73 69  1  0
 74 75  2  0
 75 76  1  0
 77 76  2  0
 78 77  1  0
 79 53  1  0
 79 80  1  0
 79 89  1  0
 80 83  1  0
 81 85  1  0
 81 80  1  0
 82 81  2  0
 85 84  1  0
 87 85  1  0
 87 88  1  0
 87 86  1  0
 89 92  1  1
 89 90  1  0
 91 89  1  0
M  ISO  4  11 100  19 100  51 101  52 101
M  END
>  <TORSDO>  (71) 
F 21

>  <SCORE>  (71) 
-13.562

>  <name>  (71) 
70

>  <ligand_id>  (71) 
70

>  <original_smiles>  (71) 
[H]c1c([H])c([H])c2c(c1[H])C([H])([H])C([H])([H])C([H])([H])C2([H])N([H])C(=O)C1([H])N(C(=O)C([H])(N([H])C(=O)C([H])(N([H])C([H])([H])[H])C([H])([H])[H])C(C([H])([H])[H])(C([H])([H])[H])C([H])([H])[H])C([H])([H])c2c([H])c(OC([H])([H])C([H])([H])C([H])([H])c3c(C([H])([H])[H])c(C([H])([H])[H])n(C([H])(C([H])([H])[H])C([H])([H])N([H])C(=O)N4C([H])([H])C([H])([H])C([H])([H])C([H])(n5nc(-c6c([H])c([H])c(Oc7c([H])c([H])c(F)c([H])c7F)c([H])c6[H])c(C(=O)N([H])[H])c5N([H])[H])C4([H])[H])c3[H])c([H])c([H])c2C1([H])[H]

>  <smiles>  (71) 
[H]c1c([H])c([H])c2c(c1[H])C([H])([H])C([H])([H])C([H])([H])C2([H])N([H])C(=O)C1([H])N(C(=O)C([H])(N([H])C(=O)C([H])(N([H])C([H])([H])[H])C([H])([H])[H])C(C([H])([H])[H])(C([H])([H])[H])C([H])([H])[H])C([H])([H])c2c([H])c(OC([H])([H])C([H])([H])C([H])([H])c3c(C([H])([H])[H])c(C([H])([H])[H])n(C([H])(C([H])([H])[H])C([H])([H])N([H])C(=O)N4C([H])([H])C([H])([H])C([H])([H])C([H])(n5nc(-c6c([H])c([H])c(Oc7c([H])c([H])c(F)c([H])c7F)c([H])c6[H])c(C(=O)N([H])[H])c5N([H])[H])C4([H])[H])c3[H])c([H])c([H])c2C1([H])[H]

$$$$
71:0:0
     RDKit          3D

 91 99  0  0  1  0  0  0  0  0999 V2000
  -29.3200  -21.5030   21.4400 C   0  0  0  0  0  3  0  0  0  0  0  0
  -30.1900  -20.6250   22.1390 C   0  0  0  0  0  0  0  0  0  0  0  0
  -28.9980  -20.8490   20.2790 C   0  0  0  0  0  0  0  0  0  0  0  0
  -30.7960  -20.7770   23.5030 C   0  0  0  0  0  1  0  0  0  0  0  0
  -30.4260  -19.5250   21.4550 N   0  0  0  0  0  0  0  0  0  0  0  0
  -29.7280  -19.6340   20.3020 N   0  0  0  0  0  0  0  0  0  0  0  0
  -27.9790  -21.2820   19.2350 C   0  0  0  0  0  2  0  0  0  0  0  0
  -28.0110  -22.7560   18.6620 C   0  0  0  0  0  2  0  0  0  0  0  0
  -27.4700  -24.0040   19.4630 C   0  0  0  0  0  2  0  0  0  0  0  0
  -27.5170  -25.3510   18.6440 C   0  0  0  0  0  2  0  0  0  0  0  0
  -27.6520  -26.6190   19.3460 O   0  0  0  0  0  0  0  0  0  0  0  0
  -24.9400  -31.7430   23.5370 C   0  0  0  0  0  0  0  0  0  0  0  0
  -26.5870  -27.4860   19.5570 C   0  0  0  0  0  0  0  0  0  0  0  0
  -23.3770  -30.7380   21.9070 C   0  0  0  0  0  3  0  0  0  0  0  0
  -24.4340  -29.2660   20.1030 C   0  0  0  0  0  0  0  0  0  0  0  0
  -25.8890  -30.8190   21.4180 C   0  0  0  0  0  2  0  0  0  0  0  0
  -25.7120  -29.5520   20.5950 C   0  0  0  0  0  0  0  0  0  0  0  0
  -26.7860  -28.6660   20.3240 C   0  0  0  0  0  3  0  0  0  0  0  0
  -25.2890  -27.2280   19.0660 C   0  0  0  0  0  3  0  0  0  0  0  0
  -24.2190  -28.1050   19.3390 C   0  0  0  0  0  3  0  0  0  0  0  0
  -23.3300  -30.2470   20.4350 C   0  0  0  0  0  2  0  0  0  0  0  0
  -24.7620  -31.1080   22.3430 N   0  0  0  0  0  0  0  0  0  0  0  0
  -23.9760  -32.0510   24.2530 O   0  0  0  0  0  0  0  0  0  0  0  0
  -22.7170  -29.6690   22.8090 C   0  0  0  0  0  0  0  0  0  0  0  0
  -21.3960  -29.4830   22.6570 N   0  0  0  0  0  0  0  0  0  0  0  0
  -23.3930  -29.0100   23.6030 O   0  0  0  0  0  0  0  0  0  0  0  0
  -20.9120  -30.0660   21.9880 H   0  0  0  0  0  0  0  0  0  0  0  0
  -18.0900  -28.0320   22.8430 C   0  0  0  0  0  0  0  0  0  0  0  0
  -20.5760  -28.5020   23.3690 C   0  0  0  0  0  3  0  0  0  0  0  0
  -20.8520  -27.0710   22.8550 C   0  0  0  0  0  2  0  0  0  0  0  0
  -19.8920  -26.6360   21.7420 C   0  0  0  0  0  2  0  0  0  0  0  0
  -18.4410  -26.6860   22.2330 C   0  0  0  0  0  2  0  0  0  0  0  0
  -19.0940  -28.8920   23.3600 C   0  0  0  0  0  0  0  0  0  0  0  0
  -18.7160  -30.1470   23.8830 C   0  0  0  0  0  3  0  0  0  0  0  0
  -17.3670  -30.5470   23.8950 C   0  0  0  0  0  3  0  0  0  0  0  0
  -16.3750  -29.6850   23.3940 C   0  0  0  0  0  3  0  0  0  0  0  0
  -16.7360  -28.4300   22.8740 C   0  0  0  0  0  3  0  0  0  0  0  0
  -26.3610  -32.1330   24.0530 C   0  0  0  0  0  3  0  0  0  0  0  0
  -26.2870  -33.5040   24.5740 N   0  0  0  0  0  0  0  0  0  0  0  0
  -26.7080  -34.5930   23.9150 C   0  0  0  0  0  0  0  0  0  0  0  0
  -27.2710  -34.5340   22.8180 O   0  0  0  0  0  0  0  0  0  0  0  0
  -25.7950  -33.6320   25.4460 H   0  0  0  0  0  0  0  0  0  0  0  0
  -25.2380  -36.6300   23.9360 C   0  0  0  0  0  1  0  0  0  0  0  0
  -26.4650  -35.9620   24.5770 C   0  0  0  0  0  3  0  0  0  0  0  0
  -28.7580  -36.4340   25.3120 C   0  0  0  0  0  1  0  0  0  0  0  0
  -27.6280  -36.8710   24.4950 N   0  0  0  0  0  0  0  0  0  0  0  0
  -27.3730  -37.8110   24.7870 H   0  0  0  0  0  0  0  0  0  0  0  0
  -26.9120  -31.1500   25.1590 C   0  0  1  0  0  0  0  0  0  0  0  0
  -25.9230  -30.9030   26.3210 C   0  0  0  0  0  1  0  0  0  0  0  0
  -27.2670  -29.7790   24.5400 C   0  0  0  0  0  1  0  0  0  0  0  0
  -28.2200  -31.7180   25.7600 C   0  0  0  0  0  1  0  0  0  0  0  0
  -29.7650  -18.4530   19.4070 C   0  0  0  0  0  2  0  0  0  0  0  0
  -30.9290  -17.4200   19.6870 C   0  0  0  0  0  2  0  0  0  0  0  0
  -31.2970  -14.9040   19.7500 C   0  0  0  0  0  0  0  0  0  0  0  0
  -31.0560  -12.5680   19.0010 C   0  0  0  0  0  2  0  0  0  0  0  0
  -30.0920  -12.5490   17.7950 C   0  0  0  0  0  2  0  0  0  0  0  0
  -28.6240  -12.4600   18.2630 C   0  0  0  0  0  2  0  0  0  0  0  0
  -28.2870  -13.4730   19.3910 C   0  0  0  0  0  3  0  0  0  0  0  0
  -29.3660  -13.4600   20.4970 C   0  0  0  0  0  2  0  0  0  0  0  0
  -30.6640  -13.7020   19.8520 N   0  0  0  0  0  0  0  0  0  0  0  0
  -32.4530  -15.0060   19.3310 O   0  0  0  0  0  0  0  0  0  0  0  0
  -30.5240  -16.0060   19.9240 N   0  0  0  0  0  0  0  0  0  0  0  0
  -29.5820  -15.8480   20.2480 H   0  0  0  0  0  0  0  0  0  0  0  0
  -25.9580  -14.1720   20.2280 C   0  0  0  0  0  0  0  0  0  0  0  0
  -24.8750  -13.4430   20.6380 C   0  0  0  0  0  0  0  0  0  0  0  0
  -25.2750  -12.0730   20.5730 C   0  0  0  0  0  0  0  0  0  0  0  0
  -26.9500  -13.2490   19.9360 N   0  0  0  0  0  0  0  0  0  0  0  0
  -26.5460  -11.9810   20.2020 N   0  0  0  0  0  0  0  0  0  0  0  0
  -24.5020  -10.8410   20.7820 C   0  0  0  0  0  0  0  0  0  0  0  0
  -24.8470   -9.9170   21.7930 C   0  0  0  0  0  3  0  0  0  0  0  0
  -24.0770   -8.7500   21.9880 C   0  0  0  0  0  3  0  0  0  0  0  0
  -22.9490   -8.4990   21.1710 C   0  0  0  0  0  0  0  0  0  0  0  0
  -22.6240   -9.4110   20.1520 C   0  0  0  0  0  3  0  0  0  0  0  0
  -23.3950  -10.5690   19.9550 C   0  0  0  0  0  3  0  0  0  0  0  0
  -22.1590   -7.3800   21.2710 O   0  0  0  0  0  0  0  0  0  0  0  0
  -21.8930   -6.7910   22.4820 C   0  0  0  0  0  0  0  0  0  0  0  0
  -21.2480   -7.4930   23.5240 C   0  0  0  0  0  3  0  0  0  0  0  0
  -20.9310   -6.8290   24.7260 C   0  0  0  0  0  3  0  0  0  0  0  0
  -21.2480   -5.4670   24.8850 C   0  0  0  0  0  0  0  0  0  0  0  0
  -21.8850   -4.7660   23.8460 C   0  0  0  0  0  3  0  0  0  0  0  0
  -22.2040   -5.4270   22.6460 C   0  0  0  0  0  0  0  0  0  0  0  0
  -22.7980   -4.7420   21.6400 F   0  0  0  0  0  0  0  0  0  0  0  0
  -20.9360   -4.8270   26.0370 F   0  0  0  0  0  0  0  0  0  0  0  0
  -23.5150  -13.9770   20.9790 C   0  0  0  0  0  0  0  0  0  0  0  0
  -22.8030  -13.3110   21.8810 N   0  0  0  0  0  0  0  0  0  0  0  0
  -23.0940  -15.0210   20.4810 O   0  0  0  0  0  0  0  0  0  0  0  0
  -23.1590  -12.4670   22.3050 H   0  0  0  0  0  0  0  0  0  0  0  0
  -21.8890  -13.6470   22.1470 H   0  0  0  0  0  0  0  0  0  0  0  0
  -26.1770  -15.5360   20.0560 N   0  0  0  0  0  0  0  0  0  0  0  0
  -25.4480  -16.2230   20.2160 H   0  0  0  0  0  0  0  0  0  0  0  0
  -27.0240  -15.9420   19.6790 H   0  0  0  0  0  0  0  0  0  0  0  0
  1  2  1  0
  2  4  1  0
  3  6  1  0
  3  1  2  0
  5  2  2  0
  6  5  1  0
  7  3  1  0
  8  7  1  0
  8  9  1  0
 10 11  1  0
 10  9  1  0
 11 13  1  0
 12 23  2  0
 13 18  1  0
 14 22  1  0
 14 24  1  0
 15 21  1  0
 15 17  1  0
 16 22  1  0
 17 16  1  0
 18 17  2  0
 19 20  1  0
 19 13  2  0
 20 15  2  0
 21 14  1  0
 22 12  1  0
 24 26  2  0
 25 24  1  0
 27 25  1  0
 28 37  2  0
 28 33  1  0
 29 25  1  0
 30 29  1  0
 31 32  1  0
 31 30  1  0
 32 28  1  0
 33 29  1  0
 33 34  2  0
 34 35  1  0
 36 35  2  0
 37 36  1  0
 38 12  1  0
 38 39  1  0
 38 48  1  0
 39 42  1  0
 40 39  1  0
 40 44  1  0
 41 40  2  0
 44 43  1  0
 46 44  1  0
 46 47  1  0
 46 45  1  0
 48 51  1  1
 48 49  1  0
 50 48  1  0
 52 53  1  0
 52  6  1  0
 53 62  1  0
 54 60  1  0
 54 62  1  0
 55 60  1  0
 56 57  1  0
 56 55  1  0
 58 57  1  0
 58 67  1  0
 58 59  1  0
 60 59  1  0
 61 54  2  0
 62 63  1  0
 64 65  2  0
 65 84  1  0
 66 65  1  0
 66 69  1  0
 67 68  1  0
 67 64  1  0
 68 66  2  0
 69 70  1  0
 70 71  2  0
 72 75  1  0
 72 71  1  0
 73 72  2  0
 74 73  1  0
 74 69  2  0
 75 76  1  0
 76 81  2  0
 76 77  1  0
 77 78  2  0
 78 79  1  0
 79 83  1  0
 80 79  2  0
 81 80  1  0
 82 81  1  0
 84 85  1  0
 85 88  1  0
 85 87  1  0
 86 84  2  0
 89 90  1  0
 89 64  1  0
 91 89  1  0
M  ISO  4  10 101  11 101  54 100  62 100
M  END
>  <TORSDO>  (72) 
F 22

>  <SCORE>  (72) 
-11.561

>  <name>  (72) 
71

>  <ligand_id>  (72) 
71

>  <original_smiles>  (72) 
[H]c1c([H])c([H])c2c(c1[H])C([H])([H])C([H])([H])C([H])([H])C2([H])N([H])C(=O)C1([H])N(C(=O)C([H])(N([H])C(=O)C([H])(N([H])C([H])([H])[H])C([H])([H])[H])C(C([H])([H])[H])(C([H])([H])[H])C([H])([H])[H])C([H])([H])c2c([H])c(OC([H])([H])C([H])([H])C([H])([H])C([H])([H])c3c([H])c(C([H])([H])[H])nn3C([H])([H])C([H])([H])N([H])C(=O)N3C([H])([H])C([H])([H])C([H])([H])C([H])(n4nc(-c5c([H])c([H])c(Oc6c([H])c([H])c(F)c([H])c6F)c([H])c5[H])c(C(=O)N([H])[H])c4N([H])[H])C3([H])[H])c([H])c([H])c2C1([H])[H]

>  <smiles>  (72) 
[H]c1c([H])c([H])c2c(c1[H])C([H])([H])C([H])([H])C([H])([H])C2([H])N([H])C(=O)C1([H])N(C(=O)C([H])(N([H])C(=O)C([H])(N([H])C([H])([H])[H])C([H])([H])[H])C(C([H])([H])[H])(C([H])([H])[H])C([H])([H])[H])C([H])([H])c2c([H])c(OC([H])([H])C([H])([H])C([H])([H])C([H])([H])c3c([H])c(C([H])([H])[H])nn3C([H])([H])C([H])([H])N([H])C(=O)N3C([H])([H])C([H])([H])C([H])([H])C([H])(n4nc(-c5c([H])c([H])c(Oc6c([H])c([H])c(F)c([H])c6F)c([H])c5[H])c(C(=O)N([H])[H])c4N([H])[H])C3([H])[H])c([H])c([H])c2C1([H])[H]

$$$$
72:0:0
     RDKit          3D

 92100  0  0  1  0  0  0  0  0999 V2000
  -29.1240  -22.3950   17.8330 C   0  0  0  0  0  3  0  0  0  0  0  0
  -28.5820  -22.7570   19.0730 C   0  0  0  0  0  3  0  0  0  0  0  0
  -29.8870  -21.2060   17.6930 C   0  0  0  0  0  0  0  0  0  0  0  0
  -28.8080  -21.9250   20.1680 C   0  0  0  0  0  0  0  0  0  0  0  0
  -30.1630  -20.4770   18.9070 C   0  0  0  0  0  0  0  0  0  0  0  0
  -28.1910  -22.2260   21.5180 C   0  0  0  0  0  1  0  0  0  0  0  0
  -29.5790  -20.8290   20.0790 N   0  0  0  0  0  0  0  0  0  0  0  0
  -30.3020  -20.7570   16.2590 C   0  0  0  0  0  2  0  0  0  0  0  0
  -30.9450  -21.8600   15.3160 C   0  0  0  0  0  3  0  0  0  0  0  0
  -30.1980  -22.2350   13.9930 C   0  0  0  0  0  3  0  0  0  0  0  0
  -30.9380  -22.9940   12.9950 O   0  0  0  0  0  0  0  0  0  0  0  0
  -30.6830  -28.9400    9.0560 C   0  0  0  0  0  0  0  0  0  0  0  0
  -31.0220  -24.3810   13.0120 C   0  0  0  0  0  0  0  0  0  0  0  0
  -31.5650  -29.2060   11.3510 C   0  0  0  0  0  3  0  0  0  0  0  0
  -31.2130  -27.2190   12.9190 C   0  0  0  0  0  0  0  0  0  0  0  0
  -29.8720  -27.3610   10.8120 C   0  0  0  0  0  2  0  0  0  0  0  0
  -30.5010  -26.5380   11.9240 C   0  0  0  0  0  0  0  0  0  0  0  0
  -30.4000  -25.1250   11.9720 C   0  0  0  0  0  3  0  0  0  0  0  0
  -31.7110  -25.0970   14.0160 C   0  0  0  0  0  3  0  0  0  0  0  0
  -31.8150  -26.5020   13.9670 C   0  0  0  0  0  3  0  0  0  0  0  0
  -31.2930  -28.7260   12.8030 C   0  0  0  0  0  2  0  0  0  0  0  0
  -30.7100  -28.4940   10.3450 N   0  0  0  0  0  0  0  0  0  0  0  0
  -31.3210  -29.9450    8.7100 O   0  0  0  0  0  0  0  0  0  0  0  0
  -33.0780  -29.0870   11.0630 C   0  0  0  0  0  0  0  0  0  0  0  0
  -33.7650  -30.2380   10.9770 N   0  0  0  0  0  0  0  0  0  0  0  0
  -33.6150  -27.9810   10.9490 O   0  0  0  0  0  0  0  0  0  0  0  0
  -33.2500  -31.1020   11.0760 H   0  0  0  0  0  0  0  0  0  0  0  0
  -36.3420  -32.4870    9.8040 C   0  0  0  0  0  0  0  0  0  0  0  0
  -35.2050  -30.3660   10.7510 C   0  0  0  0  0  3  0  0  0  0  0  0
  -35.9490  -30.6810   12.0690 C   0  0  0  0  0  2  0  0  0  0  0  0
  -36.1450  -32.1810   12.3090 C   0  0  0  0  0  2  0  0  0  0  0  0
  -36.9430  -32.8090   11.1620 C   0  0  0  0  0  2  0  0  0  0  0  0
  -35.5130  -31.3490    9.6160 C   0  0  0  0  0  0  0  0  0  0  0  0
  -34.9520  -31.1150    8.3410 C   0  0  0  0  0  3  0  0  0  0  0  0
  -35.2060  -31.9930    7.2710 C   0  0  0  0  0  3  0  0  0  0  0  0
  -36.0400  -33.1090    7.4590 C   0  0  0  0  0  3  0  0  0  0  0  0
  -36.6110  -33.3500    8.7220 C   0  0  0  0  0  3  0  0  0  0  0  0
  -29.8300  -28.2250    7.9600 C   0  0  0  0  0  3  0  0  0  0  0  0
  -29.3290  -29.2590    7.0460 N   0  0  0  0  0  0  0  0  0  0  0  0
  -28.1140  -29.8200    7.1250 C   0  0  0  0  0  0  0  0  0  0  0  0
  -27.2630  -29.4610    7.9430 O   0  0  0  0  0  0  0  0  0  0  0  0
  -29.9920  -29.6370    6.3860 H   0  0  0  0  0  0  0  0  0  0  0  0
  -28.5620  -32.2250    6.5410 C   0  0  0  0  0  1  0  0  0  0  0  0
  -27.7910  -30.9570    6.1380 C   0  0  0  0  0  3  0  0  0  0  0  0
  -25.6710  -30.5480    4.9660 C   0  0  0  0  0  1  0  0  0  0  0  0
  -26.3460  -31.2630    6.0460 N   0  0  0  0  0  0  0  0  0  0  0  0
  -26.1960  -32.2590    5.9080 H   0  0  0  0  0  0  0  0  0  0  0  0
  -30.6370  -27.1250    7.1660 C   0  0  1  0  0  0  0  0  0  0  0  0
  -31.1430  -27.6000    5.7850 C   0  0  0  0  0  1  0  0  0  0  0  0
  -31.8630  -26.6500    7.9800 C   0  0  0  0  0  1  0  0  0  0  0  0
  -29.7440  -25.8810    6.9450 C   0  0  0  0  0  1  0  0  0  0  0  0
  -31.0930  -19.2400   19.0640 C   0  0  0  0  0  2  0  0  0  0  0  0
  -30.3130  -17.8750   19.2710 C   0  0  0  0  0  2  0  0  0  0  0  0
  -30.9520  -16.7100   20.0930 C   0  0  0  0  0  2  0  0  0  0  0  0
  -32.4720  -14.7510   19.4900 C   0  0  0  0  0  0  0  0  0  0  0  0
  -34.5250  -13.8690   18.4380 C   0  0  0  0  0  2  0  0  0  0  0  0
  -35.2930  -15.0610   17.8270 C   0  0  0  0  0  2  0  0  0  0  0  0
  -34.7910  -15.3680   16.4020 C   0  0  0  0  0  2  0  0  0  0  0  0
  -33.2420  -15.4360   16.3110 C   0  0  0  0  0  3  0  0  0  0  0  0
  -32.5860  -14.2300   17.0240 C   0  0  0  0  0  2  0  0  0  0  0  0
  -33.0910  -14.2020   18.4050 N   0  0  0  0  0  0  0  0  0  0  0  0
  -32.9020  -14.6150   20.6390 O   0  0  0  0  0  0  0  0  0  0  0  0
  -31.4930  -15.6440   19.2100 N   0  0  0  0  0  0  0  0  0  0  0  0
  -31.2210  -15.6850   18.2400 H   0  0  0  0  0  0  0  0  0  0  0  0
  -31.9610  -16.5220   14.3620 C   0  0  0  0  0  0  0  0  0  0  0  0
  -31.9190  -16.2400   13.0230 C   0  0  0  0  0  0  0  0  0  0  0  0
  -32.7510  -15.0940   12.8370 C   0  0  0  0  0  0  0  0  0  0  0  0
  -32.7910  -15.5680   14.9270 N   0  0  0  0  0  0  0  0  0  0  0  0
  -33.2240  -14.6720   14.0030 N   0  0  0  0  0  0  0  0  0  0  0  0
  -33.1750  -14.4090   11.6070 C   0  0  0  0  0  0  0  0  0  0  0  0
  -32.8290  -13.0630   11.3540 C   0  0  0  0  0  3  0  0  0  0  0  0
  -33.2330  -12.4320   10.1580 C   0  0  0  0  0  3  0  0  0  0  0  0
  -33.9840  -13.1500    9.1960 C   0  0  0  0  0  0  0  0  0  0  0  0
  -34.3460  -14.4820    9.4640 C   0  0  0  0  0  3  0  0  0  0  0  0
  -33.9470  -15.1070   10.6590 C   0  0  0  0  0  3  0  0  0  0  0  0
  -34.4400  -12.6120    8.0170 O   0  0  0  0  0  0  0  0  0  0  0  0
  -33.6530  -11.7910    7.2500 C   0  0  0  0  0  0  0  0  0  0  0  0
  -32.5980  -12.2950    6.4600 C   0  0  0  0  0  3  0  0  0  0  0  0
  -31.8600  -11.4260    5.6330 C   0  0  0  0  0  3  0  0  0  0  0  0
  -32.1800  -10.0550    5.5880 C   0  0  0  0  0  0  0  0  0  0  0  0
  -33.2340   -9.5510    6.3700 C   0  0  0  0  0  3  0  0  0  0  0  0
  -33.9700  -10.4180    7.1990 C   0  0  0  0  0  0  0  0  0  0  0  0
  -34.9980   -9.9310    7.9350 F   0  0  0  0  0  0  0  0  0  0  0  0
  -31.4760   -9.2200    4.7890 F   0  0  0  0  0  0  0  0  0  0  0  0
  -31.2210  -17.0390   11.9620 C   0  0  0  0  0  0  0  0  0  0  0  0
  -30.2540  -16.4370   11.2770 N   0  0  0  0  0  0  0  0  0  0  0  0
  -31.4990  -18.2200   11.7630 O   0  0  0  0  0  0  0  0  0  0  0  0
  -30.0130  -15.4730   11.4500 H   0  0  0  0  0  0  0  0  0  0  0  0
  -29.7510  -16.9520   10.5680 H   0  0  0  0  0  0  0  0  0  0  0  0
  -31.3790  -17.5180   15.1410 N   0  0  0  0  0  0  0  0  0  0  0  0
  -30.7860  -18.2350   14.7410 H   0  0  0  0  0  0  0  0  0  0  0  0
  -31.4970  -17.6150   16.1390 H   0  0  0  0  0  0  0  0  0  0  0  0
  1  2  1  0
  2  4  2  0
  3  1  2  0
  3  5  1  0
  4  6  1  0
  5 52  1  0
  5  7  2  0
  7  4  1  0
  8  3  1  0
  9  8  1  0
 10  9  2  0
 11 13  1  0
 11 10  1  0
 12 22  1  0
 13 19  1  0
 14 24  1  0
 14 21  1  0
 15 20  1  0
 16 17  1  0
 17 18  1  0
 17 15  2  0
 18 13  2  0
 20 19  2  0
 21 15  1  0
 22 16  1  0
 22 14  1  0
 23 12  2  0
 25 24  1  0
 25 27  1  0
 26 24  2  0
 28 32  1  0
 29 25  1  0
 29 30  1  0
 30 31  1  0
 32 31  1  0
 33 28  1  0
 33 29  1  0
 34 33  2  0
 35 36  2  0
 35 34  1  0
 36 37  1  0
 37 28  2  0
 38 12  1  0
 39 40  1  0
 39 38  1  0
 40 41  2  0
 42 39  1  0
 44 43  1  0
 44 40  1  0
 45 46  1  0
 46 44  1  0
 47 46  1  0
 48 38  1  0
 48 50  1  1
 49 48  1  0
 51 48  1  0
 52 53  1  0
 53 54  1  0
 55 62  2  0
 57 56  1  0
 58 57  1  0
 59 68  1  0
 59 58  1  0
 59 60  1  0
 60 61  1  0
 61 56  1  0
 61 55  1  0
 63 55  1  0
 63 54  1  0
 64 63  1  0
 65 68  1  0
 65 90  1  0
 66 65  2  0
 67 66  1  0
 67 69  2  0
 69 68  1  0
 70 67  1  0
 71 70  1  0
 72 71  2  0
 73 74  2  0
 73 72  1  0
 74 75  1  0
 75 70  2  0
 76 73  1  0
 77 76  1  0
 78 77  2  0
 79 78  1  0
 80 79  2  0
 80 81  1  0
 81 82  2  0
 82 77  1  0
 82 83  1  0
 84 80  1  0
 85 66  1  0
 86 88  1  0
 86 85  1  0
 87 85  2  0
 89 86  1  0
 90 92  1  0
 91 90  1  0
M  ISO  4  10 101  11 101  55 100  63 100
M  END
>  <TORSDO>  (73) 
F 22

>  <SCORE>  (73) 
-4.190

>  <name>  (73) 
72

>  <ligand_id>  (73) 
72

>  <original_smiles>  (73) 
[H]c1c(C([H])([H])[H])nc(C([H])([H])C([H])([H])C([H])([H])N([H])C(=O)N2C([H])([H])C([H])([H])C([H])([H])C([H])(n3nc(-c4c([H])c([H])c(Oc5c([H])c([H])c(F)c([H])c5F)c([H])c4[H])c(C(=O)N([H])[H])c3N([H])[H])C2([H])[H])c(C([H])([H])C([H])([H])C([H])([H])Oc2c([H])c([H])c3c(c2[H])C([H])([H])N(C(=O)C([H])(N([H])C(=O)C([H])(N([H])C([H])([H])[H])C([H])([H])[H])C(C([H])([H])[H])(C([H])([H])[H])C([H])([H])[H])C([H])(C(=O)N([H])C2([H])c4c([H])c([H])c([H])c([H])c4C([H])([H])C([H])([H])C2([H])[H])C3([H])[H])c1[H]

>  <smiles>  (73) 
[H]c1c(C([H])([H])[H])nc(C([H])([H])C([H])([H])C([H])([H])N([H])C(=O)N2C([H])([H])C([H])([H])C([H])([H])C([H])(n3nc(-c4c([H])c([H])c(Oc5c([H])c([H])c(F)c([H])c5F)c([H])c4[H])c(C(=O)N([H])[H])c3N([H])[H])C2([H])[H])c(C([H])([H])C([H])([H])C([H])([H])Oc2c([H])c([H])c3c(c2[H])C([H])([H])N(C(=O)C([H])(N([H])C(=O)C([H])(N([H])C([H])([H])[H])C([H])([H])[H])C(C([H])([H])[H])(C([H])([H])[H])C([H])([H])[H])C([H])(C(=O)N([H])C2([H])c4c([H])c([H])c([H])c([H])c4C([H])([H])C([H])([H])C2([H])[H])C3([H])[H])c1[H]

$$$$
73:0:0
     RDKit          3D

 88 96  0  0  1  0  0  0  0  0999 V2000
  -31.1880  -20.7220   20.1620 C   0  0  0  0  0  3  0  0  0  0  0  0
  -30.0090  -19.9410   20.3020 C   0  0  0  0  0  0  0  0  0  0  0  0
  -32.4660  -20.1720   20.0460 C   0  0  0  0  0  0  0  0  0  0  0  0
  -30.3280  -18.3860   20.3290 C   0  0  0  0  0  0  0  0  0  0  0  0
  -33.6850  -21.0590   19.8770 C   0  0  0  0  0  1  0  0  0  0  0  0
  -32.6740  -18.8550   20.0750 N   0  0  0  0  0  0  0  0  0  0  0  0
  -31.6390  -18.0380   20.2200 N   0  0  0  0  0  0  0  0  0  0  0  0
  -28.7560  -21.1180   20.3650 C   0  0  0  0  0  2  0  0  0  0  0  0
  -28.9660  -22.9070   20.3080 C   0  0  0  0  0  3  0  0  0  0  0  0
  -27.9050  -24.3330   20.2360 C   0  0  0  0  0  3  0  0  0  0  0  0
  -28.1820  -25.9420   20.3000 O   0  0  0  0  0  0  0  0  0  0  0  0
  -24.6580  -31.8920   23.2520 C   0  0  0  0  0  0  0  0  0  0  0  0
  -27.1680  -27.0200   20.2460 C   0  0  0  0  0  0  0  0  0  0  0  0
  -23.4480  -30.4990   21.6240 C   0  0  0  0  0  3  0  0  0  0  0  0
  -24.8800  -28.8860   20.2020 C   0  0  0  0  0  0  0  0  0  0  0  0
  -26.0130  -30.7040   21.4630 C   0  0  0  0  0  2  0  0  0  0  0  0
  -26.0720  -29.2940   20.8140 C   0  0  0  0  0  0  0  0  0  0  0  0
  -27.2130  -28.3820   20.8110 C   0  0  0  0  0  3  0  0  0  0  0  0
  -25.9480  -26.7520   19.5870 C   0  0  0  0  0  3  0  0  0  0  0  0
  -24.8410  -27.6350   19.5690 C   0  0  0  0  0  3  0  0  0  0  0  0
  -23.6650  -29.8080   20.2500 C   0  0  0  0  0  2  0  0  0  0  0  0
  -24.7290  -31.0580   22.1670 N   0  0  0  0  0  0  0  0  0  0  0  0
  -23.5720  -32.1910   23.7770 O   0  0  0  0  0  0  0  0  0  0  0  0
  -22.7530  -29.5100   22.5940 C   0  0  0  0  0  0  0  0  0  0  0  0
  -21.4220  -29.3500   22.4680 N   0  0  0  0  0  0  0  0  0  0  0  0
  -23.4160  -28.8870   23.4260 O   0  0  0  0  0  0  0  0  0  0  0  0
  -20.9390  -29.9030   21.7750 H   0  0  0  0  0  0  0  0  0  0  0  0
  -18.0350  -28.1530   22.9720 C   0  0  0  0  0  0  0  0  0  0  0  0
  -20.5940  -28.4200   23.2450 C   0  0  0  0  0  3  0  0  0  0  0  0
  -20.6980  -26.9830   22.6840 C   0  0  0  0  0  2  0  0  0  0  0  0
  -19.6010  -26.6520   21.6680 C   0  0  0  0  0  2  0  0  0  0  0  0
  -18.2160  -26.8000   22.3050 C   0  0  0  0  0  2  0  0  0  0  0  0
  -19.1520  -28.9210   23.3980 C   0  0  0  0  0  0  0  0  0  0  0  0
  -18.9270  -30.1860   23.9850 C   0  0  0  0  0  3  0  0  0  0  0  0
  -17.6200  -30.6830   24.1450 C   0  0  0  0  0  3  0  0  0  0  0  0
  -16.5190  -29.9130   23.7340 C   0  0  0  0  0  3  0  0  0  0  0  0
  -16.7270  -28.6490   23.1540 C   0  0  0  0  0  3  0  0  0  0  0  0
  -25.9370  -32.5270   23.8790 C   0  0  0  0  0  3  0  0  0  0  0  0
  -26.4440  -31.7580   25.1620 C   0  0  1  0  0  0  0  0  0  0  0  0
  -25.3460  -31.5350   26.2290 C   0  0  0  0  0  1  0  0  0  0  0  0
  -27.0170  -30.3730   24.7850 C   0  0  0  0  0  1  0  0  0  0  0  0
  -27.6010  -32.5460   25.8210 C   0  0  0  0  0  1  0  0  0  0  0  0
  -25.6300  -33.9280   24.2150 N   0  0  0  0  0  0  0  0  0  0  0  0
  -25.9440  -34.9860   23.4550 C   0  0  0  0  0  0  0  0  0  0  0  0
  -26.5850  -34.8850   22.4060 O   0  0  0  0  0  0  0  0  0  0  0  0
  -25.0550  -34.0790   25.0300 H   0  0  0  0  0  0  0  0  0  0  0  0
  -24.1990  -36.7790   23.1750 C   0  0  0  0  0  1  0  0  0  0  0  0
  -25.4750  -36.3760   23.9310 C   0  0  0  0  0  3  0  0  0  0  0  0
  -27.6380  -37.2730   24.6720 C   0  0  0  0  0  1  0  0  0  0  0  0
  -26.4990  -37.4310   23.7720 N   0  0  0  0  0  0  0  0  0  0  0  0
  -26.0960  -38.3510   23.9310 H   0  0  0  0  0  0  0  0  0  0  0  0
  -29.6290  -16.8160   20.4770 C   0  0  0  0  0  2  0  0  0  0  0  0
  -30.4030  -15.2430   20.2710 C   0  0  0  0  0  0  0  0  0  0  0  0
  -30.3270  -12.8170   19.3670 C   0  0  0  0  0  2  0  0  0  0  0  0
  -29.3870  -12.6980   18.1400 C   0  0  0  0  0  2  0  0  0  0  0  0
  -27.9390  -12.4380   18.5880 C   0  0  0  0  0  2  0  0  0  0  0  0
  -27.5210  -13.3600   19.7600 C   0  0  0  0  0  3  0  0  0  0  0  0
  -28.5900  -13.4610   20.8690 C   0  0  0  0  0  2  0  0  0  0  0  0
  -29.8320  -13.9410   20.2430 N   0  0  0  0  0  0  0  0  0  0  0  0
  -31.6090  -15.1920   19.9870 O   0  0  0  0  0  0  0  0  0  0  0  0
  -25.1570  -13.8930   20.5560 C   0  0  0  0  0  0  0  0  0  0  0  0
  -24.1060  -13.1050   20.9320 C   0  0  0  0  0  0  0  0  0  0  0  0
  -24.5810  -11.7570   20.8810 C   0  0  0  0  0  0  0  0  0  0  0  0
  -26.2020  -13.0280   20.2840 N   0  0  0  0  0  0  0  0  0  0  0  0
  -25.8700  -11.7370   20.5490 N   0  0  0  0  0  0  0  0  0  0  0  0
  -23.8660  -10.4880   21.0690 C   0  0  0  0  0  0  0  0  0  0  0  0
  -24.3150   -9.5120   21.9860 C   0  0  0  0  0  3  0  0  0  0  0  0
  -23.5950   -8.3100   22.1640 C   0  0  0  0  0  3  0  0  0  0  0  0
  -22.4120   -8.0740   21.4240 C   0  0  0  0  0  0  0  0  0  0  0  0
  -21.9820   -9.0380   20.4960 C   0  0  0  0  0  3  0  0  0  0  0  0
  -22.7010  -10.2330   20.3170 C   0  0  0  0  0  3  0  0  0  0  0  0
  -21.6630   -6.9250   21.5130 O   0  0  0  0  0  0  0  0  0  0  0  0
  -21.6340   -6.1710   22.6580 C   0  0  0  0  0  0  0  0  0  0  0  0
  -21.2140   -6.7090   23.8940 C   0  0  0  0  0  3  0  0  0  0  0  0
  -21.1330   -5.8820   25.0310 C   0  0  0  0  0  3  0  0  0  0  0  0
  -21.4600   -4.5160   24.9340 C   0  0  0  0  0  0  0  0  0  0  0  0
  -21.8720   -3.9760   23.7030 C   0  0  0  0  0  3  0  0  0  0  0  0
  -21.9550   -4.8010   22.5670 C   0  0  0  0  0  0  0  0  0  0  0  0
  -22.3320   -4.2720   21.3790 F   0  0  0  0  0  0  0  0  0  0  0  0
  -21.3760   -3.7180   26.0240 F   0  0  0  0  0  0  0  0  0  0  0  0
  -22.7100  -13.5680   21.2260 C   0  0  0  0  0  0  0  0  0  0  0  0
  -22.0020  -12.8630   22.0990 N   0  0  0  0  0  0  0  0  0  0  0  0
  -22.2580  -14.5920   20.7160 O   0  0  0  0  0  0  0  0  0  0  0  0
  -22.3830  -12.0340   22.5330 H   0  0  0  0  0  0  0  0  0  0  0  0
  -21.0640  -13.1550   22.3390 H   0  0  0  0  0  0  0  0  0  0  0  0
  -25.3120  -15.2660   20.3930 N   0  0  0  0  0  0  0  0  0  0  0  0
  -24.5520  -15.9230   20.5260 H   0  0  0  0  0  0  0  0  0  0  0  0
  -26.1570  -15.7060   20.0530 H   0  0  0  0  0  0  0  0  0  0  0  0
  1  2  1  0
  2  4  2  0
  2  8  1  0
  3  6  1  0
  3  1  2  0
  4 52  1  0
  5  3  1  0
  6  7  2  0
  7  4  1  0
  9  8  1  0
 10 11  1  0
 10  9  2  0
 12 23  2  0
 13 11  1  0
 13 18  1  0
 14 22  1  0
 14 24  1  0
 15 21  1  0
 15 17  1  0
 16 22  1  0
 17 16  1  0
 18 17  2  0
 19 13  2  0
 20 19  1  0
 20 15  2  0
 21 14  1  0
 22 12  1  0
 24 26  2  0
 25 24  1  0
 27 25  1  0
 28 37  2  0
 28 33  1  0
 29 25  1  0
 29 33  1  0
 30 29  1  0
 31 32  1  0
 31 30  1  0
 32 28  1  0
 33 34  2  0
 34 35  1  0
 36 35  2  0
 37 36  1  0
 38 12  1  0
 38 43  1  0
 38 39  1  0
 39 42  1  1
 39 40  1  0
 41 39  1  0
 43 46  1  0
 44 48  1  0
 44 43  1  0
 45 44  2  0
 48 47  1  0
 50 51  1  0
 50 48  1  0
 50 49  1  0
 53 52  1  0
 54 59  1  0
 55 56  1  0
 55 54  1  0
 57 56  1  0
 57 64  1  0
 57 58  1  0
 59 53  1  0
 59 58  1  0
 60 53  2  0
 61 62  2  0
 62 81  1  0
 63 62  1  0
 63 66  1  0
 64 65  1  0
 64 61  1  0
 65 63  2  0
 66 67  1  0
 67 68  2  0
 69 72  1  0
 69 68  1  0
 70 69  2  0
 71 70  1  0
 71 66  2  0
 72 73  1  0
 73 74  1  0
 74 75  2  0
 76 75  1  0
 76 80  1  0
 77 76  2  0
 78 73  2  0
 78 77  1  0
 79 78  1  0
 81 82  1  0
 82 85  1  0
 82 84  1  0
 83 81  2  0
 86 87  1  0
 86 61  1  0
 88 86  1  0
M  ISO  4  10 101  11 101  52 100  53 100
M  END
>  <TORSDO>  (74) 
F 20

>  <SCORE>  (74) 
-16.190

>  <name>  (74) 
73

>  <ligand_id>  (74) 
73

>  <original_smiles>  (74) 
[H]c1c([H])c([H])c2c(c1[H])C([H])([H])C([H])([H])C([H])([H])C2([H])N([H])C(=O)C1([H])N(C(=O)C([H])(N([H])C(=O)C([H])(N([H])C([H])([H])[H])C([H])([H])[H])C(C([H])([H])[H])(C([H])([H])[H])C([H])([H])[H])C([H])([H])c2c([H])c(OC([H])([H])C([H])([H])C([H])([H])c3c(C([H])([H])C(=O)N4C([H])([H])C([H])([H])C([H])([H])C([H])(n5nc(-c6c([H])c([H])c(Oc7c([H])c([H])c(F)c([H])c7F)c([H])c6[H])c(C(=O)N([H])[H])c5N([H])[H])C4([H])[H])nnc(C([H])([H])[H])c3[H])c([H])c([H])c2C1([H])[H]

>  <smiles>  (74) 
[H]c1c([H])c([H])c2c(c1[H])C([H])([H])C([H])([H])C([H])([H])C2([H])N([H])C(=O)C1([H])N(C(=O)C([H])(N([H])C(=O)C([H])(N([H])C([H])([H])[H])C([H])([H])[H])C(C([H])([H])[H])(C([H])([H])[H])C([H])([H])[H])C([H])([H])c2c([H])c(OC([H])([H])C([H])([H])C([H])([H])c3c(C([H])([H])C(=O)N4C([H])([H])C([H])([H])C([H])([H])C([H])(n5nc(-c6c([H])c([H])c(Oc7c([H])c([H])c(F)c([H])c7F)c([H])c6[H])c(C(=O)N([H])[H])c5N([H])[H])C4([H])[H])nnc(C([H])([H])[H])c3[H])c([H])c([H])c2C1([H])[H]

$$$$
74:0:0
     RDKit          3D

100108  0  0  1  0  0  0  0  0999 V2000
  -28.3940  -22.1730   19.8660 C   0  0  0  0  0  3  0  0  0  0  0  0
  -26.0040  -22.2000   19.5140 C   0  0  0  0  0  3  0  0  0  0  0  0
  -27.1600  -21.4970   19.9040 C   0  0  0  0  0  0  0  0  0  0  0  0
  -28.4240  -23.5150   19.4450 C   0  0  0  0  0  0  0  0  0  0  0  0
  -26.1250  -23.5430   19.1070 C   0  0  0  0  0  0  0  0  0  0  0  0
  -27.3110  -24.1900   19.0870 N   0  0  0  0  0  0  0  0  0  0  0  0
  -27.0820  -20.0550   20.3840 C   0  0  0  0  0  2  0  0  0  0  0  0
  -27.3980  -18.8930   18.1360 C   0  0  0  0  0  1  0  0  0  0  0  0
  -27.9550  -19.0740   19.5640 C   0  0  0  0  0  3  0  0  0  0  0  0
  -28.1360  -17.7210   20.3000 C   0  0  0  0  0  2  0  0  0  0  0  0
  -29.3860  -16.9360   19.8480 C   0  0  0  0  0  2  0  0  0  0  0  0
  -30.6210  -14.9220   20.3160 C   0  0  0  0  0  0  0  0  0  0  0  0
  -30.4090  -12.7110   19.2590 C   0  0  0  0  0  2  0  0  0  0  0  0
  -29.4230  -12.8170   18.0790 C   0  0  0  0  0  2  0  0  0  0  0  0
  -27.9740  -12.6140   18.5620 C   0  0  0  0  0  2  0  0  0  0  0  0
  -27.6230  -13.4850   19.7990 C   0  0  0  0  0  3  0  0  0  0  0  0
  -28.7190  -13.3690   20.8810 C   0  0  0  0  0  2  0  0  0  0  0  0
  -30.0090  -13.7090   20.2590 N   0  0  0  0  0  0  0  0  0  0  0  0
  -31.6970  -15.1630   19.7600 O   0  0  0  0  0  0  0  0  0  0  0  0
  -29.8660  -15.9250   20.8130 N   0  0  0  0  0  0  0  0  0  0  0  0
  -25.2520  -13.9820   20.6730 C   0  0  0  0  0  0  0  0  0  0  0  0
  -24.2250  -13.1590   21.0460 C   0  0  0  0  0  0  0  0  0  0  0  0
  -24.7110  -11.8250   20.8910 C   0  0  0  0  0  0  0  0  0  0  0  0
  -26.3040  -13.1460   20.3290 N   0  0  0  0  0  0  0  0  0  0  0  0
  -25.9830  -11.8400   20.5130 N   0  0  0  0  0  0  0  0  0  0  0  0
  -24.0230  -10.5350   21.0270 C   0  0  0  0  0  0  0  0  0  0  0  0
  -24.4110   -9.5920   22.0050 C   0  0  0  0  0  3  0  0  0  0  0  0
  -23.7230   -8.3650   22.1270 C   0  0  0  0  0  3  0  0  0  0  0  0
  -22.6330   -8.0740   21.2690 C   0  0  0  0  0  0  0  0  0  0  0  0
  -22.2660   -9.0060   20.2840 C   0  0  0  0  0  3  0  0  0  0  0  0
  -22.9560  -10.2240   20.1590 C   0  0  0  0  0  3  0  0  0  0  0  0
  -21.9220   -6.8970   21.3000 O   0  0  0  0  0  0  0  0  0  0  0  0
  -21.6910   -6.2260   22.4730 C   0  0  0  0  0  0  0  0  0  0  0  0
  -20.9850   -6.8180   23.5450 C   0  0  0  0  0  3  0  0  0  0  0  0
  -20.7060   -6.0670   24.7030 C   0  0  0  0  0  3  0  0  0  0  0  0
  -21.1270   -4.7260   24.7930 C   0  0  0  0  0  0  0  0  0  0  0  0
  -21.8270   -4.1340   23.7270 C   0  0  0  0  0  3  0  0  0  0  0  0
  -22.1050   -4.8820   22.5700 C   0  0  0  0  0  0  0  0  0  0  0  0
  -22.7600   -4.3020   21.5340 F   0  0  0  0  0  0  0  0  0  0  0  0
  -20.8540   -4.0020   25.9030 F   0  0  0  0  0  0  0  0  0  0  0  0
  -22.8350  -13.5830   21.4290 C   0  0  0  0  0  0  0  0  0  0  0  0
  -22.1750  -12.8080   22.2830 N   0  0  0  0  0  0  0  0  0  0  0  0
  -22.3450  -14.6310   21.0110 O   0  0  0  0  0  0  0  0  0  0  0  0
  -22.5850  -11.9580   22.6410 H   0  0  0  0  0  0  0  0  0  0  0  0
  -21.2480  -13.0680   22.5860 H   0  0  0  0  0  0  0  0  0  0  0  0
  -25.3720  -15.3630   20.5780 N   0  0  0  0  0  0  0  0  0  0  0  0
  -24.5900  -15.9840   20.7530 H   0  0  0  0  0  0  0  0  0  0  0  0
  -26.1880  -15.8390   20.2150 H   0  0  0  0  0  0  0  0  0  0  0  0
  -30.1460  -16.3860   22.1810 C   0  0  0  0  0  2  0  0  0  0  0  0
  -30.9360  -18.3620   23.5950 C   0  0  0  0  0  1  0  0  0  0  0  0
  -30.9840  -17.6830   22.2240 C   0  0  0  0  0  2  0  0  0  0  0  0
  -29.7260  -24.2970   19.4210 C   0  0  0  0  0  2  0  0  0  0  0  0
  -30.0050  -25.0670   20.7250 C   0  0  0  0  0  2  0  0  0  0  0  0
  -28.8950  -26.0410   21.1520 C   0  0  0  0  0  2  0  0  0  0  0  0
  -28.8810  -27.1960   20.3190 O   0  0  0  0  0  0  0  0  0  0  0  0
  -24.8370  -32.0970   23.5050 C   0  0  0  0  0  0  0  0  0  0  0  0
  -27.6850  -27.8680   20.3410 C   0  0  0  0  0  0  0  0  0  0  0  0
  -23.7010  -30.7040   21.8040 C   0  0  0  0  0  3  0  0  0  0  0  0
  -25.2320  -29.2560   20.3630 C   0  0  0  0  0  0  0  0  0  0  0  0
  -26.2140  -31.1630   21.6550 C   0  0  0  0  0  2  0  0  0  0  0  0
  -26.3590  -29.8160   20.9780 C   0  0  0  0  0  0  0  0  0  0  0  0
  -27.5920  -29.1300   20.9630 C   0  0  0  0  0  3  0  0  0  0  0  0
  -26.5450  -27.3100   19.7270 C   0  0  0  0  0  3  0  0  0  0  0  0
  -25.3170  -27.9980   19.7380 C   0  0  0  0  0  3  0  0  0  0  0  0
  -23.9540  -30.0630   20.4110 C   0  0  0  0  0  2  0  0  0  0  0  0
  -24.9340  -31.3340   22.3800 N   0  0  0  0  0  0  0  0  0  0  0  0
  -23.7410  -32.3130   24.0400 O   0  0  0  0  0  0  0  0  0  0  0  0
  -23.0720  -29.6370   22.7270 C   0  0  0  0  0  0  0  0  0  0  0  0
  -21.7600  -29.4040   22.5620 N   0  0  0  0  0  0  0  0  0  0  0  0
  -23.7630  -29.0190   23.5420 O   0  0  0  0  0  0  0  0  0  0  0  0
  -21.2640  -29.9580   21.8770 H   0  0  0  0  0  0  0  0  0  0  0  0
  -18.4320  -28.0580   22.9350 C   0  0  0  0  0  0  0  0  0  0  0  0
  -20.9650  -28.4160   23.2880 C   0  0  0  0  0  3  0  0  0  0  0  0
  -21.1460  -27.0030   22.6880 C   0  0  0  0  0  2  0  0  0  0  0  0
  -20.0900  -26.6560   21.6350 C   0  0  0  0  0  2  0  0  0  0  0  0
  -18.6850  -26.7320   22.2390 C   0  0  0  0  0  2  0  0  0  0  0  0
  -19.5030  -28.8570   23.4140 C   0  0  0  0  0  0  0  0  0  0  0  0
  -19.2160  -30.0980   24.0230 C   0  0  0  0  0  3  0  0  0  0  0  0
  -17.8870  -30.5440   24.1570 C   0  0  0  0  0  3  0  0  0  0  0  0
  -16.8290  -29.7420   23.6960 C   0  0  0  0  0  3  0  0  0  0  0  0
  -17.1010  -28.5010   23.0930 C   0  0  0  0  0  3  0  0  0  0  0  0
  -26.0950  -32.7500   24.1620 C   0  0  0  0  0  3  0  0  0  0  0  0
  -25.7850  -34.1670   24.3910 N   0  0  0  0  0  0  0  0  0  0  0  0
  -26.1750  -35.1690   23.5930 C   0  0  0  0  0  0  0  0  0  0  0  0
  -26.9010  -34.9990   22.6100 O   0  0  0  0  0  0  0  0  0  0  0  0
  -25.1390  -34.3720   25.1390 H   0  0  0  0  0  0  0  0  0  0  0  0
  -24.4890  -36.9520   23.0360 C   0  0  0  0  0  1  0  0  0  0  0  0
  -25.6780  -36.5850   23.9390 C   0  0  0  0  0  3  0  0  0  0  0  0
  -27.7770  -37.4950   24.8290 C   0  0  0  0  0  1  0  0  0  0  0  0
  -26.7270  -37.6220   23.8230 N   0  0  0  0  0  0  0  0  0  0  0  0
  -26.3230  -38.5520   23.9020 H   0  0  0  0  0  0  0  0  0  0  0  0
  -26.5320  -32.0470   25.5060 C   0  0  1  0  0  0  0  0  0  0  0  0
  -25.3790  -31.8740   26.5200 C   0  0  0  0  0  1  0  0  0  0  0  0
  -27.1250  -30.6470   25.2220 C   0  0  0  0  0  1  0  0  0  0  0  0
  -27.6470  -32.8720   26.1900 C   0  0  0  0  0  1  0  0  0  0  0  0
  -24.8990  -24.3500   18.6880 C   0  0  0  0  0  2  0  0  0  0  0  0
  -25.6430  -24.9490   16.3070 C   0  0  0  0  0  1  0  0  0  0  0  0
  -24.2920  -22.8750   16.6910 C   0  0  0  0  0  1  0  0  0  0  0  0
  -23.2460  -25.1370   16.9650 C   0  0  0  0  0  1  0  0  0  0  0  0
  -24.5350  -24.3200   17.1750 C   0  0  1  0  0  0  0  0  0  0  0  0
  1  3  1  0
  2  3  2  0
  3  7  1  0
  4  1  2  0
  5  2  1  0
  6  5  2  0
  6  4  1  0
  9  8  1  0
  9 10  1  0
  9  7  1  0
 11 10  1  0
 11 20  1  0
 12 20  1  0
 13 18  1  0
 14 15  1  0
 14 13  1  0
 16 15  1  0
 16 24  1  0
 16 17  1  0
 18 12  1  0
 18 17  1  0
 19 12  2  0
 20 49  1  0
 21 22  2  0
 22 41  1  0
 23 26  1  0
 23 22  1  0
 24 25  1  0
 24 21  1  0
 25 23  2  0
 26 27  1  0
 27 28  2  0
 29 32  1  0
 29 28  1  0
 30 29  2  0
 31 30  1  0
 31 26  2  0
 32 33  1  0
 33 38  2  0
 33 34  1  0
 34 35  2  0
 35 36  1  0
 36 40  1  0
 37 36  2  0
 38 37  1  0
 39 38  1  0
 41 42  1  0
 42 45  1  0
 42 44  1  0
 43 41  2  0
 46 21  1  0
 46 47  1  0
 48 46  1  0
 49 51  1  0
 51 50  1  0
 52  4  1  0
 52 53  1  0
 53 54  1  0
 55 57  1  0
 55 54  1  0
 56 67  2  0
 57 62  1  0
 58 66  1  0
 58 68  1  0
 59 65  1  0
 59 61  1  0
 60 66  1  0
 61 60  1  0
 62 61  2  0
 63 64  1  0
 63 57  2  0
 64 59  2  0
 65 58  1  0
 66 56  1  0
 68 70  2  0
 69 68  1  0
 71 69  1  0
 72 81  2  0
 72 77  1  0
 73 69  1  0
 73 77  1  0
 74 73  1  0
 75 76  1  0
 75 74  1  0
 76 72  1  0
 77 78  2  0
 78 79  1  0
 80 79  2  0
 81 80  1  0
 82 56  1  0
 82 83  1  0
 82 92  1  0
 83 86  1  0
 84 88  1  0
 84 83  1  0
 85 84  2  0
 88 87  1  0
 90 91  1  0
 90 88  1  0
 90 89  1  0
 92 95  1  1
 92 93  1  0
 94 92  1  0
 96  5  1  0
100 97  1  6
 98100  1  0
 99100  1  0
100 96  1  0
M  ISO  4  12 100  20 100  54 101  55 101
M  END
>  <TORSDO>  (75) 
F 27

>  <SCORE>  (75) 
-9.778

>  <name>  (75) 
74

>  <ligand_id>  (75) 
74

>  <original_smiles>  (75) 
[H]c1c([H])c([H])c2c(c1[H])C([H])([H])C([H])([H])C([H])([H])C2([H])N([H])C(=O)C1([H])N(C(=O)C([H])(N([H])C(=O)C([H])(N([H])C([H])([H])[H])C([H])([H])[H])C(C([H])([H])[H])(C([H])([H])[H])C([H])([H])[H])C([H])([H])c2c([H])c(OC([H])([H])C([H])([H])C([H])([H])c3nc(C([H])([H])C(C([H])([H])[H])(C([H])([H])[H])C([H])([H])[H])c([H])c(C([H])([H])C([H])(C([H])([H])[H])C([H])([H])C([H])([H])N(C(=O)N4C([H])([H])C([H])([H])C([H])([H])C([H])(n5nc(-c6c([H])c([H])c(Oc7c([H])c([H])c(F)c([H])c7F)c([H])c6[H])c(C(=O)N([H])[H])c5N([H])[H])C4([H])[H])C([H])([H])C([H])([H])C([H])([H])[H])c3[H])c([H])c([H])c2C1([H])[H]

>  <smiles>  (75) 
[H]c1c([H])c([H])c2c(c1[H])C([H])([H])C([H])([H])C([H])([H])C2([H])N([H])C(=O)C1([H])N(C(=O)C([H])(N([H])C(=O)C([H])(N([H])C([H])([H])[H])C([H])([H])[H])C(C([H])([H])[H])(C([H])([H])[H])C([H])([H])[H])C([H])([H])c2c([H])c(OC([H])([H])C([H])([H])C([H])([H])c3nc(C([H])([H])C(C([H])([H])[H])(C([H])([H])[H])C([H])([H])[H])c([H])c(C([H])([H])C([H])(C([H])([H])[H])C([H])([H])C([H])([H])N(C(=O)N4C([H])([H])C([H])([H])C([H])([H])C([H])(n5nc(-c6c([H])c([H])c(Oc7c([H])c([H])c(F)c([H])c7F)c([H])c6[H])c(C(=O)N([H])[H])c5N([H])[H])C4([H])[H])C([H])([H])C([H])([H])C([H])([H])[H])c3[H])c([H])c([H])c2C1([H])[H]

$$$$
75:0:0
     RDKit          3D

 95103  0  0  1  0  0  0  0  0999 V2000
  -27.6890  -22.6180   20.8650 C   0  0  0  0  0  3  0  0  0  0  0  0
  -28.5080  -23.4770   21.5950 C   0  0  0  0  0  0  0  0  0  0  0  0
  -28.2400  -21.7810   19.8760 C   0  0  0  0  0  0  0  0  0  0  0  0
  -29.9100  -23.2610   21.4440 C   0  0  0  0  0  0  0  0  0  0  0  0
  -29.6180  -21.3180   20.0710 C   0  0  0  0  0  0  0  0  0  0  0  0
  -30.9350  -24.2310   22.0270 C   0  0  0  0  0  1  0  0  0  0  0  0
  -30.4190  -22.1710   20.7650 N   0  0  0  0  0  0  0  0  0  0  0  0
  -26.4260  -24.9930   22.2300 C   0  0  0  0  0  1  0  0  0  0  0  0
  -27.9010  -24.5490   22.5410 C   0  0  0  0  0  2  0  0  0  0  0  0
  -27.4050  -21.8270   18.5460 C   0  0  0  0  0  2  0  0  0  0  0  0
  -25.0800  -22.9060   18.1620 C   0  0  0  0  0  1  0  0  0  0  0  0
  -26.6130  -23.1950   18.2440 C   0  0  0  0  0  3  0  0  0  0  0  0
  -27.0660  -24.0760   17.0090 C   0  0  0  0  0  2  0  0  0  0  0  0
  -27.4800  -25.5820   17.3350 C   0  0  0  0  0  2  0  0  0  0  0  0
  -26.9510  -26.7530   16.5790 O   0  0  0  0  0  0  0  0  0  0  0  0
  -25.3280  -29.8160   22.8720 C   0  0  0  0  0  0  0  0  0  0  0  0
  -26.0460  -27.5200   17.3160 C   0  0  0  0  0  0  0  0  0  0  0  0
  -23.4280  -29.3610   21.3280 C   0  0  0  0  0  3  0  0  0  0  0  0
  -24.0720  -28.7950   18.9220 C   0  0  0  0  0  0  0  0  0  0  0  0
  -25.7460  -29.8710   20.4110 C   0  0  0  0  0  2  0  0  0  0  0  0
  -25.4260  -28.9810   19.2130 C   0  0  0  0  0  0  0  0  0  0  0  0
  -26.4230  -28.3640   18.4060 C   0  0  0  0  0  3  0  0  0  0  0  0
  -24.6740  -27.3960   17.0150 C   0  0  0  0  0  3  0  0  0  0  0  0
  -23.6960  -27.9900   17.8380 C   0  0  0  0  0  3  0  0  0  0  0  0
  -23.0630  -29.4790   19.8360 C   0  0  0  0  0  2  0  0  0  0  0  0
  -24.8630  -29.6640   21.5850 N   0  0  0  0  0  0  0  0  0  0  0  0
  -24.5350  -29.7190   23.8230 O   0  0  0  0  0  0  0  0  0  0  0  0
  -23.0610  -27.9430   21.8470 C   0  0  0  0  0  0  0  0  0  0  0  0
  -21.7880  -27.5500   21.6440 N   0  0  0  0  0  0  0  0  0  0  0  0
  -23.9010  -27.2150   22.3730 O   0  0  0  0  0  0  0  0  0  0  0  0
  -21.2440  -28.0350   20.9560 H   0  0  0  0  0  0  0  0  0  0  0  0
  -18.8480  -25.4740   21.6000 C   0  0  0  0  0  0  0  0  0  0  0  0
  -21.2170  -26.2990   22.1450 C   0  0  0  0  0  3  0  0  0  0  0  0
  -21.7190  -25.1010   21.3390 C   0  0  0  0  0  2  0  0  0  0  0  0
  -20.8320  -24.7400   20.1330 C   0  0  0  0  0  2  0  0  0  0  0  0
  -19.4290  -24.4160   20.6580 C   0  0  0  0  0  2  0  0  0  0  0  0
  -19.6950  -26.3620   22.3010 C   0  0  0  0  0  0  0  0  0  0  0  0
  -19.1180  -27.3030   23.2010 C   0  0  0  0  0  3  0  0  0  0  0  0
  -17.7390  -27.3580   23.3370 C   0  0  0  0  0  3  0  0  0  0  0  0
  -16.8810  -26.4970   22.6110 C   0  0  0  0  0  3  0  0  0  0  0  0
  -17.4510  -25.5490   21.7470 C   0  0  0  0  0  3  0  0  0  0  0  0
  -26.8170  -30.1470   23.1950 C   0  0  0  0  0  3  0  0  0  0  0  0
  -26.8030  -31.2170   24.2060 N   0  0  0  0  0  0  0  0  0  0  0  0
  -27.0500  -32.5110   23.9720 C   0  0  0  0  0  0  0  0  0  0  0  0
  -27.4120  -32.9350   22.8710 O   0  0  0  0  0  0  0  0  0  0  0  0
  -26.4690  -30.9540   25.1160 H   0  0  0  0  0  0  0  0  0  0  0  0
  -25.6040  -34.2640   25.0530 C   0  0  0  0  0  1  0  0  0  0  0  0
  -26.9210  -33.4870   25.1670 C   0  0  0  0  0  3  0  0  0  0  0  0
  -29.3050  -33.7940   25.6690 C   0  0  0  0  0  1  0  0  0  0  0  0
  -28.0500  -34.4340   25.2890 N   0  0  0  0  0  0  0  0  0  0  0  0
  -27.8440  -35.1480   25.9810 H   0  0  0  0  0  0  0  0  0  0  0  0
  -27.6710  -28.9050   23.6800 C   0  0  1  0  0  0  0  0  0  0  0  0
  -27.0140  -28.1120   24.8270 C   0  0  0  0  0  1  0  0  0  0  0  0
  -27.8940  -27.9200   22.5080 C   0  0  0  0  0  1  0  0  0  0  0  0
  -29.0690  -29.3630   24.1730 C   0  0  0  0  0  1  0  0  0  0  0  0
  -30.1550  -19.7920   20.1320 C   0  0  0  0  0  3  0  0  0  0  0  0
  -31.7080  -19.3920   20.0060 C   0  0  0  0  0  3  0  0  0  0  0  0
  -32.9200  -16.9200   19.9370 C   0  0  0  0  0  0  0  0  0  0  0  0
  -33.0790  -14.4700   19.2670 C   0  0  0  0  0  2  0  0  0  0  0  0
  -32.2330  -14.2120   17.9710 C   0  0  0  0  0  2  0  0  0  0  0  0
  -30.7410  -14.0170   18.3360 C   0  0  0  0  0  2  0  0  0  0  0  0
  -30.2380  -15.1060   19.3220 C   0  0  0  0  0  3  0  0  0  0  0  0
  -31.1760  -15.2510   20.5330 C   0  0  0  0  0  2  0  0  0  0  0  0
  -32.4890  -15.6170   20.0280 N   0  0  0  0  0  0  0  0  0  0  0  0
  -34.0280  -17.1340   19.4450 O   0  0  0  0  0  0  0  0  0  0  0  0
  -32.0720  -17.9400   20.3800 N   0  0  0  0  0  0  0  0  0  0  0  0
  -32.0120  -17.8060   21.3700 H   0  0  0  0  0  0  0  0  0  0  0  0
  -27.8740  -15.7650   20.0330 C   0  0  0  0  0  0  0  0  0  0  0  0
  -26.7700  -15.0070   20.3790 C   0  0  0  0  0  0  0  0  0  0  0  0
  -27.1930  -13.6520   20.3060 C   0  0  0  0  0  0  0  0  0  0  0  0
  -28.8750  -14.8480   19.7730 N   0  0  0  0  0  0  0  0  0  0  0  0
  -28.4820  -13.5750   20.0070 N   0  0  0  0  0  0  0  0  0  0  0  0
  -26.4270  -12.4030   20.4750 C   0  0  0  0  0  0  0  0  0  0  0  0
  -26.5840  -11.5830   21.6130 C   0  0  0  0  0  3  0  0  0  0  0  0
  -25.8250  -10.3980   21.7510 C   0  0  0  0  0  3  0  0  0  0  0  0
  -24.9010  -10.0280   20.7490 C   0  0  0  0  0  0  0  0  0  0  0  0
  -24.7710  -10.8330   19.6060 C   0  0  0  0  0  3  0  0  0  0  0  0
  -25.5290  -12.0080   19.4690 C   0  0  0  0  0  3  0  0  0  0  0  0
  -24.1430   -8.8810   20.7840 O   0  0  0  0  0  0  0  0  0  0  0  0
  -23.3510   -8.5750   21.8610 C   0  0  0  0  0  0  0  0  0  0  0  0
  -22.3500   -9.4580   22.3240 C   0  0  0  0  0  3  0  0  0  0  0  0
  -21.5140   -9.0740   23.3920 C   0  0  0  0  0  3  0  0  0  0  0  0
  -21.6720   -7.8100   23.9900 C   0  0  0  0  0  0  0  0  0  0  0  0
  -22.6650   -6.9300   23.5290 C   0  0  0  0  0  3  0  0  0  0  0  0
  -23.5020   -7.3110   22.4660 C   0  0  0  0  0  0  0  0  0  0  0  0
  -24.4460   -6.4540   22.0090 F   0  0  0  0  0  0  0  0  0  0  0  0
  -20.8630   -7.4390   25.0080 F   0  0  0  0  0  0  0  0  0  0  0  0
  -25.3920  -15.5250   20.6490 C   0  0  0  0  0  0  0  0  0  0  0  0
  -24.6640  -14.8480   21.5440 N   0  0  0  0  0  0  0  0  0  0  0  0
  -24.9740  -16.5470   20.1270 O   0  0  0  0  0  0  0  0  0  0  0  0
  -25.0250  -14.0210   21.9960 H   0  0  0  0  0  0  0  0  0  0  0  0
  -23.7300  -15.1590   21.7720 H   0  0  0  0  0  0  0  0  0  0  0  0
  -28.0890  -17.1210   19.8850 N   0  0  0  0  0  0  0  0  0  0  0  0
  -27.3650  -17.8260   19.9970 H   0  0  0  0  0  0  0  0  0  0  0  0
  -28.9850  -17.5080   19.6350 H   0  0  0  0  0  0  0  0  0  0  0  0
  1  2  1  0
  2  9  1  0
  3  5  1  0
  3  1  2  0
  4  2  2  0
  4  6  1  0
  5 56  1  0
  5  7  2  0
  7  4  1  0
  8  9  1  0
 10  3  1  0
 12 11  1  0
 12 10  1  0
 13 14  1  0
 13 12  1  0
 15 17  1  0
 15 14  1  0
 16 27  2  0
 17 22  1  0
 18 26  1  0
 18 28  1  0
 19 21  1  0
 19 25  1  0
 20 26  1  0
 21 20  1  0
 22 21  2  0
 23 17  2  0
 23 24  1  0
 24 19  2  0
 25 18  1  0
 26 16  1  0
 28 30  2  0
 29 28  1  0
 31 29  1  0
 32 41  2  0
 32 37  1  0
 33 29  1  0
 33 37  1  0
 34 33  1  0
 35 36  1  0
 35 34  1  0
 36 32  1  0
 37 38  2  0
 38 39  1  0
 40 39  2  0
 41 40  1  0
 42 16  1  0
 42 52  1  0
 42 43  1  0
 43 46  1  0
 44 43  1  0
 44 48  1  0
 45 44  2  0
 48 47  1  0
 48 50  1  0
 50 49  1  0
 50 51  1  0
 52 55  1  1
 52 53  1  0
 54 52  1  0
 57 56  2  0
 57 66  1  0
 58 64  1  0
 58 66  1  0
 59 64  1  0
 60 61  1  0
 60 59  1  0
 62 61  1  0
 62 71  1  0
 62 63  1  0
 64 63  1  0
 65 58  2  0
 66 67  1  0
 68 69  2  0
 69 88  1  0
 70 69  1  0
 70 73  1  0
 71 72  1  0
 71 68  1  0
 72 70  2  0
 73 74  1  0
 74 75  2  0
 76 79  1  0
 76 75  1  0
 77 76  2  0
 78 77  1  0
 78 73  2  0
 79 80  1  0
 80 81  2  0
 80 85  1  0
 81 82  1  0
 82 83  2  0
 83 87  1  0
 84 83  1  0
 85 84  2  0
 86 85  1  0
 88 89  1  0
 89 92  1  0
 89 91  1  0
 90 88  2  0
 93 94  1  0
 93 68  1  0
 95 93  1  0
M  ISO  4  14 101  15 101  58 100  66 100
M  END
>  <TORSDO>  (76) 
F 23

>  <SCORE>  (76) 
-4.901

>  <name>  (76) 
75

>  <ligand_id>  (76) 
75

>  <original_smiles>  (76) 
[H]c1c([H])c([H])c2c(c1[H])C([H])([H])C([H])([H])C([H])([H])C2([H])N([H])C(=O)C1([H])N(C(=O)C([H])(N([H])C(=O)C([H])(N([H])C([H])([H])[H])C([H])([H])[H])C(C([H])([H])[H])(C([H])([H])[H])C([H])([H])[H])C([H])([H])c2c([H])c(OC([H])([H])C([H])([H])C([H])(C([H])([H])[H])C([H])([H])c3c(C([H])([H])C([H])([H])N([H])C(=O)N4C([H])([H])C([H])([H])C([H])([H])C([H])(n5nc(-c6c([H])c([H])c(Oc7c([H])c([H])c(F)c([H])c7F)c([H])c6[H])c(C(=O)N([H])[H])c5N([H])[H])C4([H])[H])nc(C([H])([H])[H])c(C([H])([H])C([H])([H])[H])c3[H])c([H])c([H])c2C1([H])[H]

>  <smiles>  (76) 
[H]c1c([H])c([H])c2c(c1[H])C([H])([H])C([H])([H])C([H])([H])C2([H])N([H])C(=O)C1([H])N(C(=O)C([H])(N([H])C(=O)C([H])(N([H])C([H])([H])[H])C([H])([H])[H])C(C([H])([H])[H])(C([H])([H])[H])C([H])([H])[H])C([H])([H])c2c([H])c(OC([H])([H])C([H])([H])C([H])(C([H])([H])[H])C([H])([H])c3c(C([H])([H])C([H])([H])N([H])C(=O)N4C([H])([H])C([H])([H])C([H])([H])C([H])(n5nc(-c6c([H])c([H])c(Oc7c([H])c([H])c(F)c([H])c7F)c([H])c6[H])c(C(=O)N([H])[H])c5N([H])[H])C4([H])[H])nc(C([H])([H])[H])c(C([H])([H])C([H])([H])[H])c3[H])c([H])c([H])c2C1([H])[H]

$$$$
76:0:0
     RDKit          3D

 94 99  0  0  1  0  0  0  0  0999 V2000
  -27.6890  -17.3640   19.6320 C   0  0  0  0  0  3  0  0  0  0  0  0
  -26.7010  -16.2880   19.2690 C   0  0  0  0  0  0  0  0  0  0  0  0
  -25.9610  -18.5840   19.3470 C   0  0  0  0  0  3  0  0  0  0  0  0
  -24.9530  -19.6760   19.2980 C   0  0  0  0  0  1  0  0  0  0  0  0
  -27.2590  -18.8030   19.6940 N   0  0  0  0  0  0  0  0  0  0  0  0
  -25.6720  -17.2330   19.1240 N   0  0  0  0  0  0  0  0  0  0  0  0
  -24.7260  -16.9370   18.9140 H   0  0  0  0  0  0  0  0  0  0  0  0
  -26.5080  -14.4050   19.0060 C   0  0  0  0  0  1  0  0  0  0  0  0
  -28.0130  -12.9830   19.2320 C   0  0  0  0  0 15  0  0  0  0  0  0
  -29.9490  -14.3310   20.7500 C   0  0  0  0  0  1  0  0  0  0  0  0
  -31.1570  -13.0130   21.6020 C   0  0  0  0  0  0  0  0  0  0  0  0
  -30.3570  -12.0320   19.6370 C   0  0  0  0  0  2  0  0  0  0  0  0
  -30.1090  -13.4440   18.4900 C   0  0  0  0  0  2  0  0  0  0  0  0
  -28.8310  -14.8410   18.9260 C   0  0  0  0  0  1  0  0  0  0  0  0
  -27.7140  -14.1410   21.1620 C   0  0  0  0  0  2  0  0  0  0  0  0
  -28.6440  -12.6570   21.8750 C   0  0  0  0  0  2  0  0  0  0  0  0
  -30.0940  -12.1640   21.2360 N   0  0  0  0  0  0  0  0  0  0  0  0
  -31.9390  -13.0720   22.5120 O   0  0  0  0  0  0  0  0  0  0  0  0
  -32.3970  -14.9980   20.7360 C   0  0  0  0  0  1  0  0  0  0  0  0
  -31.3130  -14.0030   20.7920 N   0  0  0  0  0  0  0  0  0  0  0  0
  -25.1160  -13.9700   21.3980 C   0  0  0  0  0  0  0  0  0  0  0  0
  -24.0890  -13.0760   21.3740 C   0  0  0  0  0  0  0  0  0  0  0  0
  -24.6250  -11.7620   21.3030 C   0  0  0  0  0  0  0  0  0  0  0  0
  -26.3010  -13.3260   21.3390 N   0  0  0  0  0  0  0  0  0  0  0  0
  -25.9660  -11.9280   21.2960 N   0  0  0  0  0  0  0  0  0  0  0  0
  -23.8840  -10.4460   21.2410 C   0  0  0  0  0  0  0  0  0  0  0  0
  -24.0640   -9.4050   22.1880 C   0  0  0  0  0  3  0  0  0  0  0  0
  -23.2520   -8.2380   22.1860 C   0  0  0  0  0  3  0  0  0  0  0  0
  -22.2220   -8.0810   21.2280 C   0  0  0  0  0  0  0  0  0  0  0  0
  -22.0490   -9.0930   20.2670 C   0  0  0  0  0  3  0  0  0  0  0  0
  -22.8650  -10.2460   20.2700 C   0  0  0  0  0  3  0  0  0  0  0  0
  -21.4030   -6.9730   21.1310 O   0  0  0  0  0  0  0  0  0  0  0  0
  -21.0400   -6.2200   22.2240 C   0  0  0  0  0  0  0  0  0  0  0  0
  -20.3250   -6.7790   23.3060 C   0  0  0  0  0  3  0  0  0  0  0  0
  -19.9170   -5.9640   24.3830 C   0  0  0  0  0  3  0  0  0  0  0  0
  -20.2100   -4.5860   24.3750 C   0  0  0  0  0  0  0  0  0  0  0  0
  -20.9090   -4.0220   23.2930 C   0  0  0  0  0  3  0  0  0  0  0  0
  -21.3180   -4.8360   22.2210 C   0  0  0  0  0  0  0  0  0  0  0  0
  -21.9690   -4.2750   21.1720 F   0  0  0  0  0  0  0  0  0  0  0  0
  -19.8220   -3.8040   25.4090 F   0  0  0  0  0  0  0  0  0  0  0  0
  -22.6640  -13.4920   21.3600 C   0  0  0  0  0  0  0  0  0  0  0  0
  -21.8120  -12.7670   22.0670 N   0  0  0  0  0  0  0  0  0  0  0  0
  -22.3240  -14.5180   20.7740 O   0  0  0  0  0  0  0  0  0  0  0  0
  -22.1130  -11.9340   22.5530 H   0  0  0  0  0  0  0  0  0  0  0  0
  -20.8410  -13.0410   22.1240 H   0  0  0  0  0  0  0  0  0  0  0  0
  -25.1540  -15.3440   21.4190 N   0  0  0  0  0  0  0  0  0  0  0  0
  -25.9680  -15.8940   21.1880 H   0  0  0  0  0  0  0  0  0  0  0  0
  -24.3200  -15.9060   21.5430 H   0  0  0  0  0  0  0  0  0  0  0  0
  -27.9170  -20.3540   20.3190 C   0  0  0  0  0  2  0  0  0  0  0  0
  -28.0910  -22.1950   19.9090 C   0  0  0  0  0  2  0  0  0  0  0  0
  -26.7000  -23.8700   21.4450 C   0  0  0  0  0  1  0  0  0  0  0  0
  -29.0070  -23.4750   22.0900 C   0  0  0  0  0  1  0  0  0  0  0  0
  -28.1400  -23.8360   20.8750 C   0  0  1  0  0  0  0  0  0  0  0  0
  -28.6570  -25.5070   20.7220 O   0  0  0  0  0  0  0  0  0  0  0  0
  -25.0670  -31.8060   23.5130 C   0  0  0  0  0  0  0  0  0  0  0  0
  -27.8670  -26.8030   20.7090 C   0  0  0  0  0  0  0  0  0  0  0  0
  -24.0950  -30.3530   21.8050 C   0  0  0  0  0  3  0  0  0  0  0  0
  -25.6960  -28.8080   20.5040 C   0  0  0  0  0  0  0  0  0  0  0  0
  -26.6730  -30.5780   21.9330 C   0  0  0  0  0  2  0  0  0  0  0  0
  -26.8190  -29.1620   21.2620 C   0  0  0  0  0  0  0  0  0  0  0  0
  -27.9190  -28.1660   21.3540 C   0  0  0  0  0  3  0  0  0  0  0  0
  -26.7790  -26.7080   19.8480 C   0  0  0  0  0  3  0  0  0  0  0  0
  -25.7090  -27.6110   19.7890 C   0  0  0  0  0  3  0  0  0  0  0  0
  -24.4750  -29.7160   20.4500 C   0  0  0  0  0  2  0  0  0  0  0  0
  -25.2990  -30.9500   22.4640 N   0  0  0  0  0  0  0  0  0  0  0  0
  -23.9150  -32.0600   23.9090 O   0  0  0  0  0  0  0  0  0  0  0  0
  -23.3640  -29.3180   22.7000 C   0  0  0  0  0  0  0  0  0  0  0  0
  -22.0600  -29.0870   22.4550 N   0  0  0  0  0  0  0  0  0  0  0  0
  -23.9790  -28.7290   23.5930 O   0  0  0  0  0  0  0  0  0  0  0  0
  -21.6160  -29.6140   21.7160 H   0  0  0  0  0  0  0  0  0  0  0  0
  -18.6960  -27.7450   22.6910 C   0  0  0  0  0  0  0  0  0  0  0  0
  -21.2140  -28.1180   23.1590 C   0  0  0  0  0  3  0  0  0  0  0  0
  -21.4200  -26.6900   22.6000 C   0  0  0  0  0  2  0  0  0  0  0  0
  -20.4190  -26.3250   21.5000 C   0  0  0  0  0  2  0  0  0  0  0  0
  -18.9850  -26.4080   22.0290 C   0  0  0  0  0  2  0  0  0  0  0  0
  -19.7430  -28.5560   23.2060 C   0  0  0  0  0  0  0  0  0  0  0  0
  -19.4230  -29.8030   23.7860 C   0  0  0  0  0  3  0  0  0  0  0  0
  -18.0880  -30.2440   23.8520 C   0  0  0  0  0  3  0  0  0  0  0  0
  -17.0530  -29.4350   23.3510 C   0  0  0  0  0  3  0  0  0  0  0  0
  -17.3590  -28.1880   22.7780 C   0  0  0  0  0  3  0  0  0  0  0  0
  -26.2300  -32.5250   24.2550 C   0  0  0  0  0  3  0  0  0  0  0  0
  -25.8190  -33.9240   24.4860 N   0  0  0  0  0  0  0  0  0  0  0  0
  -26.2030  -34.9760   23.7480 C   0  0  0  0  0  0  0  0  0  0  0  0
  -27.0010  -34.8740   22.8130 O   0  0  0  0  0  0  0  0  0  0  0  0
  -25.1130  -34.0740   25.1920 H   0  0  0  0  0  0  0  0  0  0  0  0
  -24.4740  -36.7050   23.1310 C   0  0  0  0  0  1  0  0  0  0  0  0
  -25.6140  -36.3570   24.1040 C   0  0  0  0  0  3  0  0  0  0  0  0
  -27.5860  -37.3490   25.1800 C   0  0  0  0  0  1  0  0  0  0  0  0
  -26.6150  -37.4480   24.0940 N   0  0  0  0  0  0  0  0  0  0  0  0
  -26.1590  -38.3550   24.1550 H   0  0  0  0  0  0  0  0  0  0  0  0
  -26.5990  -31.8400   25.6290 C   0  0  1  0  0  0  0  0  0  0  0  0
  -25.3860  -31.6140   26.5610 C   0  0  0  0  0  1  0  0  0  0  0  0
  -27.2700  -30.4640   25.4130 C   0  0  0  0  0  1  0  0  0  0  0  0
  -27.6290  -32.7120   26.3820 C   0  0  0  0  0  1  0  0  0  0  0  0
  1  5  1  0
  2  1  2  0
  3  4  1  0
  3  5  1  0
  5 49  1  0
  6  2  1  0
  6  3  1  0
  7  6  1  0
  8  2  1  0
 10 20  1  0
 11 18  2  0
 12 17  1  0
 13 14  1  0
 13 12  1  0
 15 24  1  0
 15 16  1  0
 17 11  1  0
 17 16  1  0
 19 20  1  0
 20 11  1  0
 21 46  1  0
 22 21  2  0
 23 22  1  0
 24 21  1  0
 25 23  2  0
 25 24  1  0
 26 23  1  0
 26 27  1  0
 28 27  2  0
 29 28  1  0
 30 31  1  0
 30 29  2  0
 31 26  2  0
 32 29  1  0
 32 33  1  0
 33 34  1  0
 34 35  2  0
 36 35  1  0
 36 40  1  0
 37 36  2  0
 38 33  2  0
 38 37  1  0
 39 38  1  0
 41 22  1  0
 41 42  1  0
 42 45  1  0
 42 44  1  0
 43 41  2  0
 46 48  1  0
 47 46  1  0
 50 49  1  0
 50 53  1  0
 53 51  1  1
 53 52  1  0
 54 53  1  0
 55 66  2  0
 56 54  1  0
 56 61  1  0
 57 65  1  0
 57 67  1  0
 58 60  1  0
 59 65  1  0
 60 61  2  0
 60 59  1  0
 62 56  2  0
 63 62  1  0
 63 58  2  0
 64 58  1  0
 64 57  1  0
 65 55  1  0
 67 69  2  0
 68 67  1  0
 70 68  1  0
 71 80  2  0
 71 76  1  0
 72 68  1  0
 72 76  1  0
 73 72  1  0
 74 75  1  0
 74 73  1  0
 75 71  1  0
 76 77  2  0
 77 78  1  0
 79 78  2  0
 80 79  1  0
 81 55  1  0
 81 82  1  0
 81 91  1  0
 82 85  1  0
 83 87  1  0
 83 82  1  0
 84 83  2  0
 87 86  1  0
 89 87  1  0
 89 90  1  0
 89 88  1  0
 91 94  1  1
 91 92  1  0
 93 91  1  0
M  ISO  4  11 100  20 100  53 101  54 101
M  END
>  <TORSDO>  (77) 
F 22

>  <SCORE>  (77) 
-9.431

>  <name>  (77) 
76

>  <ligand_id>  (77) 
76

>  <original_smiles>  (77) 
[H]c1c([H])c([H])c2c(c1[H])C([H])([H])C([H])([H])C([H])([H])C2([H])N([H])C(=O)C1([H])N(C(=O)C([H])(N([H])C(=O)C([H])(N([H])C([H])([H])[H])C([H])([H])[H])C(C([H])([H])[H])(C([H])([H])[H])C([H])([H])[H])C([H])([H])c2c([H])c(OC(C([H])([H])[H])(C([H])([H])[H])C([H])([H])C([H])([H])n3c([H])c(C([H])([H])C([H])([H])C([H])([H])N(C(=O)N4C([H])([H])C([H])([H])C([H])([H])C([H])(n5nc(-c6c([H])c([H])c(Oc7c([H])c([H])c(F)c([H])c7F)c([H])c6[H])c(C(=O)N([H])[H])c5N([H])[H])C4([H])[H])C([H])([H])[H])[n+]([H])c3C([H])([H])[H])c([H])c([H])c2C1([H])[H]

>  <smiles>  (77) 
[H]c1c([H])c([H])c2c(c1[H])C([H])([H])C([H])([H])C([H])([H])C2([H])N([H])C(=O)C1([H])N(C(=O)C([H])(N([H])C(=O)C([H])(N([H])C([H])([H])[H])C([H])([H])[H])C(C([H])([H])[H])(C([H])([H])[H])C([H])([H])[H])C([H])([H])c2c([H])c(OC(C([H])([H])[H])(C([H])([H])[H])C([H])([H])C([H])([H])n3c([H])c(C([H])([H])C([H])([H])C([H])([H])N(C(=O)N4C([H])([H])C([H])([H])C([H])([H])C([H])(n5nc(-c6c([H])c([H])c(Oc7c([H])c([H])c(F)c([H])c7F)c([H])c6[H])c(C(=O)N([H])[H])c5N([H])[H])C4([H])[H])C([H])([H])[H])[n+]([H])c3C([H])([H])[H])c([H])c([H])c2C1([H])[H]

$$$$
77:0:0
     RDKit          3D

 93101  0  0  1  0  0  0  0  0999 V2000
  -30.7900  -22.7980   20.1070 C   0  0  0  0  0  3  0  0  0  0  0  0
  -31.7140  -21.7810   19.8370 C   0  0  0  0  0  0  0  0  0  0  0  0
  -31.2780  -20.4390   19.7600 C   0  0  0  0  0  0  0  0  0  0  0  0
  -29.4290  -22.5060   20.2820 C   0  0  0  0  0  0  0  0  0  0  0  0
  -29.9320  -20.1100   20.0890 C   0  0  0  0  0  0  0  0  0  0  0  0
  -33.1680  -22.1660   19.6040 C   0  0  0  0  0  1  0  0  0  0  0  0
  -32.2800  -19.3950   19.2740 C   0  0  0  0  0  1  0  0  0  0  0  0
  -29.0320  -21.1620   20.3160 N   0  0  0  0  0  0  0  0  0  0  0  0
  -28.4400  -23.7450   20.5250 C   0  0  0  0  0  2  0  0  0  0  0  0
  -28.2510  -25.0090   18.2170 C   0  0  0  0  0  1  0  0  0  0  0  0
  -28.6300  -25.1440   19.7030 C   0  0  0  0  0  3  0  0  0  0  0  0
  -28.3870  -26.5210   20.2680 O   0  0  0  0  0  0  0  0  0  0  0  0
  -24.6360  -31.9390   23.2360 C   0  0  0  0  0  0  0  0  0  0  0  0
  -27.2310  -27.3290   20.1970 C   0  0  0  0  0  0  0  0  0  0  0  0
  -23.4230  -30.5300   21.6140 C   0  0  0  0  0  3  0  0  0  0  0  0
  -24.8630  -28.9590   20.1900 C   0  0  0  0  0  0  0  0  0  0  0  0
  -25.9630  -30.8380   21.4130 C   0  0  0  0  0  2  0  0  0  0  0  0
  -26.0360  -29.4510   20.7730 C   0  0  0  0  0  0  0  0  0  0  0  0
  -27.2170  -28.6480   20.7630 C   0  0  0  0  0  3  0  0  0  0  0  0
  -26.0240  -26.8840   19.6170 C   0  0  0  0  0  3  0  0  0  0  0  0
  -24.8610  -27.6830   19.6030 C   0  0  0  0  0  3  0  0  0  0  0  0
  -23.6280  -29.8380   20.2380 C   0  0  0  0  0  2  0  0  0  0  0  0
  -24.6940  -31.1220   22.1440 N   0  0  0  0  0  0  0  0  0  0  0  0
  -23.5560  -32.2210   23.7760 O   0  0  0  0  0  0  0  0  0  0  0  0
  -22.7640  -29.5240   22.5870 C   0  0  0  0  0  0  0  0  0  0  0  0
  -21.4390  -29.3370   22.4620 N   0  0  0  0  0  0  0  0  0  0  0  0
  -23.4450  -28.9120   23.4150 O   0  0  0  0  0  0  0  0  0  0  0  0
  -20.9490  -29.8800   21.7650 H   0  0  0  0  0  0  0  0  0  0  0  0
  -18.0730  -28.1060   22.9570 C   0  0  0  0  0  0  0  0  0  0  0  0
  -20.6250  -28.4030   23.2430 C   0  0  0  0  0  3  0  0  0  0  0  0
  -20.7510  -26.9630   22.6950 C   0  0  0  0  0  2  0  0  0  0  0  0
  -19.6620  -26.6070   21.6780 C   0  0  0  0  0  2  0  0  0  0  0  0
  -18.2730  -26.7470   22.3070 C   0  0  0  0  0  2  0  0  0  0  0  0
  -19.1780  -28.8900   23.3810 C   0  0  0  0  0  0  0  0  0  0  0  0
  -18.9380  -30.1600   23.9490 C   0  0  0  0  0  3  0  0  0  0  0  0
  -17.6260  -30.6470   24.0970 C   0  0  0  0  0  3  0  0  0  0  0  0
  -16.5350  -29.8610   23.6880 C   0  0  0  0  0  3  0  0  0  0  0  0
  -16.7600  -28.5920   23.1230 C   0  0  0  0  0  3  0  0  0  0  0  0
  -25.9230  -32.5780   23.8470 C   0  0  0  0  0  3  0  0  0  0  0  0
  -26.4520  -31.8100   25.1210 C   0  0  1  0  0  0  0  0  0  0  0  0
  -25.3690  -31.5720   26.2000 C   0  0  0  0  0  1  0  0  0  0  0  0
  -27.0360  -30.4350   24.7270 C   0  0  0  0  0  1  0  0  0  0  0  0
  -27.6060  -32.6100   25.7710 C   0  0  0  0  0  1  0  0  0  0  0  0
  -25.6110  -33.9750   24.1830 N   0  0  0  0  0  0  0  0  0  0  0  0
  -25.9320  -35.0330   23.4250 C   0  0  0  0  0  0  0  0  0  0  0  0
  -26.5920  -34.9340   22.3870 O   0  0  0  0  0  0  0  0  0  0  0  0
  -25.0280  -34.1250   24.9930 H   0  0  0  0  0  0  0  0  0  0  0  0
  -24.1970  -36.8230   23.0900 C   0  0  0  0  0  1  0  0  0  0  0  0
  -25.4450  -36.4180   23.8910 C   0  0  0  0  0  3  0  0  0  0  0  0
  -27.5820  -37.3060   24.7110 C   0  0  0  0  0  1  0  0  0  0  0  0
  -26.4730  -37.4750   23.7750 N   0  0  0  0  0  0  0  0  0  0  0  0
  -26.0660  -38.3940   23.9290 H   0  0  0  0  0  0  0  0  0  0  0  0
  -29.4400  -18.5750   20.0160 C   0  0  0  0  0  2  0  0  0  0  0  0
  -31.2440  -17.5940   21.7850 C   0  0  0  0  0  1  0  0  0  0  0  0
  -29.9110  -17.3840   21.0430 C   0  0  0  0  0  0  0  0  0  0  0  0
  -30.4820  -14.8060   20.4220 C   0  0  0  0  0  0  0  0  0  0  0  0
  -30.3360  -12.5390   19.3680 C   0  0  0  0  0  2  0  0  0  0  0  0
  -29.3950  -12.6040   18.1460 C   0  0  0  0  0  2  0  0  0  0  0  0
  -27.9280  -12.3960   18.5730 C   0  0  0  0  0  2  0  0  0  0  0  0
  -27.5370  -13.2640   19.7990 C   0  0  0  0  0  3  0  0  0  0  0  0
  -28.5970  -13.1760   20.9180 C   0  0  0  0  0  2  0  0  0  0  0  0
  -29.8840  -13.5690   20.3280 N   0  0  0  0  0  0  0  0  0  0  0  0
  -31.6640  -14.9410   20.1000 O   0  0  0  0  0  0  0  0  0  0  0  0
  -29.6690  -15.8970   20.7100 N   0  0  0  0  0  4  0  0  0  0  0  0
  -28.7070  -15.6180   20.8370 H   0  0  0  0  0  0  0  0  0  0  0  0
  -25.1340  -13.8110   20.5140 C   0  0  0  0  0  0  0  0  0  0  0  0
  -24.0830  -13.0170   20.8860 C   0  0  0  0  0  0  0  0  0  0  0  0
  -24.5760  -11.6760   20.8630 C   0  0  0  0  0  0  0  0  0  0  0  0
  -26.1970  -12.9520   20.2860 N   0  0  0  0  0  0  0  0  0  0  0  0
  -25.8670  -11.6630   20.5590 N   0  0  0  0  0  0  0  0  0  0  0  0
  -23.8750  -10.3990   21.0550 C   0  0  0  0  0  0  0  0  0  0  0  0
  -24.3260   -9.4440   21.9910 C   0  0  0  0  0  3  0  0  0  0  0  0
  -23.6250   -8.2320   22.1710 C   0  0  0  0  0  3  0  0  0  0  0  0
  -22.4580   -7.9670   21.4150 C   0  0  0  0  0  0  0  0  0  0  0  0
  -22.0270   -8.9130   20.4680 C   0  0  0  0  0  3  0  0  0  0  0  0
  -22.7290  -10.1160   20.2860 C   0  0  0  0  0  3  0  0  0  0  0  0
  -21.7270   -6.8070   21.5050 O   0  0  0  0  0  0  0  0  0  0  0  0
  -21.7000   -6.0610   22.6560 C   0  0  0  0  0  0  0  0  0  0  0  0
  -21.2690   -6.6040   23.8870 C   0  0  0  0  0  3  0  0  0  0  0  0
  -21.1920   -5.7830   25.0300 C   0  0  0  0  0  3  0  0  0  0  0  0
  -21.5330   -4.4200   24.9430 C   0  0  0  0  0  0  0  0  0  0  0  0
  -21.9560   -3.8770   23.7180 C   0  0  0  0  0  3  0  0  0  0  0  0
  -22.0360   -4.6950   22.5770 C   0  0  0  0  0  0  0  0  0  0  0  0
  -22.4240   -4.1620   21.3930 F   0  0  0  0  0  0  0  0  0  0  0  0
  -21.4510   -3.6290   26.0380 F   0  0  0  0  0  0  0  0  0  0  0  0
  -22.6750  -13.4660   21.1470 C   0  0  0  0  0  0  0  0  0  0  0  0
  -21.9570  -12.7590   22.0120 N   0  0  0  0  0  0  0  0  0  0  0  0
  -22.2190  -14.4800   20.6200 O   0  0  0  0  0  0  0  0  0  0  0  0
  -22.3390  -11.9410   22.4640 H   0  0  0  0  0  0  0  0  0  0  0  0
  -21.0110  -13.0410   22.2280 H   0  0  0  0  0  0  0  0  0  0  0  0
  -25.2670  -15.1850   20.3300 N   0  0  0  0  0  0  0  0  0  0  0  0
  -24.4770  -15.8130   20.4220 H   0  0  0  0  0  0  0  0  0  0  0  0
  -26.0890  -15.6420   19.9560 H   0  0  0  0  0  0  0  0  0  0  0  0
  1  4  1  0
  2  1  2  0
  3  2  1  0
  3  5  2  0
  4  8  2  0
  4  9  1  0
  5  8  1  0
  6  2  1  0
  7  3  1  0
 11 10  1  0
 11 12  1  0
 11  9  1  0
 13 24  2  0
 14 12  1  0
 14 19  1  0
 15 23  1  0
 15 25  1  0
 16 22  1  0
 16 18  1  0
 17 23  1  0
 18 17  1  0
 19 18  2  0
 20 14  2  0
 21 20  1  0
 21 16  2  0
 22 15  1  0
 23 13  1  0
 25 27  2  0
 26 25  1  0
 28 26  1  0
 29 38  2  0
 29 34  1  0
 30 26  1  0
 30 34  1  0
 31 30  1  0
 32 33  1  0
 32 31  1  0
 33 29  1  0
 34 35  2  0
 35 36  1  0
 37 36  2  0
 38 37  1  0
 39 13  1  0
 39 44  1  0
 39 40  1  0
 40 43  1  1
 40 41  1  0
 42 40  1  0
 44 47  1  0
 45 49  1  0
 45 44  1  0
 46 45  2  0
 49 48  1  0
 51 49  1  0
 51 52  1  0
 51 50  1  0
 53  5  1  0
 53 55  1  0
 55 54  1  0
 56 64  1  0
 57 62  1  0
 58 59  1  0
 58 57  1  0
 60 59  1  0
 60 69  1  0
 60 61  1  0
 62 56  1  0
 62 61  1  0
 63 56  2  0
 64 65  1  0
 64 55  2  0
 66 67  2  0
 67 86  1  0
 68 67  1  0
 68 71  1  0
 69 66  1  0
 69 70  1  0
 70 68  2  0
 71 72  1  0
 72 73  2  0
 74 77  1  0
 74 73  1  0
 75 74  2  0
 76 75  1  0
 76 71  2  0
 77 78  1  0
 78 79  1  0
 79 80  2  0
 81 80  1  0
 81 85  1  0
 82 81  2  0
 83 78  2  0
 83 82  1  0
 84 83  1  0
 86 87  1  0
 87 90  1  0
 87 89  1  0
 88 86  2  0
 91 92  1  0
 91 66  1  0
 93 91  1  0
M  ISO  4  11 101  12 101  56 100  64 100
M  END
>  <TORSDO>  (78) 
F 20

>  <SCORE>  (78) 
-13.940

>  <name>  (78) 
77

>  <ligand_id>  (78) 
77

>  <original_smiles>  (78) 
[H]c1c([H])c([H])c2c(c1[H])C([H])([H])C([H])([H])C([H])([H])C2([H])N([H])C(=O)C1([H])N(C(=O)C([H])(N([H])C(=O)C([H])(N([H])C([H])([H])[H])C([H])([H])[H])C(C([H])([H])[H])(C([H])([H])[H])C([H])([H])[H])C([H])([H])c2c([H])c(OC([H])(C([H])([H])[H])C([H])([H])c3nc(C([H])([H])C([H])(N([H])C(=O)N4C([H])([H])C([H])([H])C([H])([H])C([H])(n5nc(-c6c([H])c([H])c(Oc7c([H])c([H])c(F)c([H])c7F)c([H])c6[H])c(C(=O)N([H])[H])c5N([H])[H])C4([H])[H])C([H])([H])[H])c(C([H])([H])[H])c(C([H])([H])[H])c3[H])c([H])c([H])c2C1([H])[H]

>  <smiles>  (78) 
[H]c1c([H])c([H])c2c(c1[H])C([H])([H])C([H])([H])C([H])([H])C2([H])N([H])C(=O)C1([H])N(C(=O)C([H])(N([H])C(=O)C([H])(N([H])C([H])([H])[H])C([H])([H])[H])C(C([H])([H])[H])(C([H])([H])[H])C([H])([H])[H])C([H])([H])c2c([H])c(OC([H])(C([H])([H])[H])C([H])([H])c3nc(C([H])([H])C([H])(N([H])C(=O)N4C([H])([H])C([H])([H])C([H])([H])C([H])(n5nc(-c6c([H])c([H])c(Oc7c([H])c([H])c(F)c([H])c7F)c([H])c6[H])c(C(=O)N([H])[H])c5N([H])[H])C4([H])[H])C([H])([H])[H])c(C([H])([H])[H])c(C([H])([H])[H])c3[H])c([H])c([H])c2C1([H])[H]

$$$$
78:0:0
     RDKit          3D

 94102  0  0  1  0  0  0  0  0999 V2000
  -31.9220  -21.4340   17.9590 C   0  0  0  0  0  3  0  0  0  0  0  0
  -31.1540  -22.0270   18.9610 C   0  0  0  0  0  3  0  0  0  0  0  0
  -31.6390  -20.1340   17.5360 C   0  0  0  0  0  0  0  0  0  0  0  0
  -30.1370  -21.3380   19.6680 C   0  0  0  0  0  0  0  0  0  0  0  0
  -30.6640  -19.3710   18.2280 C   0  0  0  0  0  0  0  0  0  0  0  0
  -30.0540  -19.8740   19.4320 C   0  0  0  0  0  0  0  0  0  0  0  0
  -29.1800  -18.2440   16.4950 C   0  0  0  0  0  1  0  0  0  0  0  0
  -30.2300  -18.0350   17.5950 C   0  0  0  0  0  2  0  0  0  0  0  0
  -33.6700  -18.8100   16.7840 C   0  0  0  0  0  1  0  0  0  0  0  0
  -32.4320  -19.6010   16.3450 C   0  0  0  0  0  2  0  0  0  0  0  0
  -29.2150  -22.3230   20.5260 C   0  0  0  0  0  2  0  0  0  0  0  0
  -29.3040  -23.9370   20.2070 C   0  0  0  0  0  3  0  0  0  0  0  0
  -28.2470  -25.0490   20.7090 C   0  0  0  0  0  3  0  0  0  0  0  0
  -28.4560  -26.5110   20.3880 O   0  0  0  0  0  0  0  0  0  0  0  0
  -24.6400  -31.9790   23.3030 C   0  0  0  0  0  0  0  0  0  0  0  0
  -27.3430  -27.3850   20.3380 C   0  0  0  0  0  0  0  0  0  0  0  0
  -23.4790  -30.5510   21.6600 C   0  0  0  0  0  3  0  0  0  0  0  0
  -24.9700  -29.0040   20.2690 C   0  0  0  0  0  0  0  0  0  0  0  0
  -26.0210  -30.8880   21.5150 C   0  0  0  0  0  2  0  0  0  0  0  0
  -26.1270  -29.5020   20.8820 C   0  0  0  0  0  0  0  0  0  0  0  0
  -27.3180  -28.7050   20.9020 C   0  0  0  0  0  3  0  0  0  0  0  0
  -26.1650  -26.9610   19.6820 C   0  0  0  0  0  3  0  0  0  0  0  0
  -24.9950  -27.7410   19.6580 C   0  0  0  0  0  3  0  0  0  0  0  0
  -23.7230  -29.8670   20.2900 C   0  0  0  0  0  2  0  0  0  0  0  0
  -24.7320  -31.1600   22.2150 N   0  0  0  0  0  0  0  0  0  0  0  0
  -23.5440  -32.2480   23.8190 O   0  0  0  0  0  0  0  0  0  0  0  0
  -22.8140  -29.5350   22.6190 C   0  0  0  0  0  0  0  0  0  0  0  0
  -21.4950  -29.3270   22.4630 N   0  0  0  0  0  0  0  0  0  0  0  0
  -23.4840  -28.9380   23.4650 O   0  0  0  0  0  0  0  0  0  0  0  0
  -21.0130  -29.8610   21.7550 H   0  0  0  0  0  0  0  0  0  0  0  0
  -18.1360  -28.0500   22.8880 C   0  0  0  0  0  0  0  0  0  0  0  0
  -20.6770  -28.3830   23.2280 C   0  0  0  0  0  3  0  0  0  0  0  0
  -20.8340  -26.9440   22.6850 C   0  0  0  0  0  2  0  0  0  0  0  0
  -19.7720  -26.5720   21.6450 C   0  0  0  0  0  2  0  0  0  0  0  0
  -18.3690  -26.6930   22.2450 C   0  0  0  0  0  2  0  0  0  0  0  0
  -19.2210  -28.8500   23.3350 C   0  0  0  0  0  0  0  0  0  0  0  0
  -18.9520  -30.1180   23.8960 C   0  0  0  0  0  3  0  0  0  0  0  0
  -17.6290  -30.5870   24.0140 C   0  0  0  0  0  3  0  0  0  0  0  0
  -16.5580  -29.7840   23.5830 C   0  0  0  0  0  3  0  0  0  0  0  0
  -16.8130  -28.5180   23.0260 C   0  0  0  0  0  3  0  0  0  0  0  0
  -25.9040  -32.6350   23.9400 C   0  0  0  0  0  3  0  0  0  0  0  0
  -25.5740  -34.0350   24.2430 N   0  0  0  0  0  0  0  0  0  0  0  0
  -25.9030  -35.0810   23.4720 C   0  0  0  0  0  0  0  0  0  0  0  0
  -26.5860  -34.9680   22.4500 O   0  0  0  0  0  0  0  0  0  0  0  0
  -24.9680  -34.1950   25.0340 H   0  0  0  0  0  0  0  0  0  0  0  0
  -24.1580  -36.8490   23.0730 C   0  0  0  0  0  1  0  0  0  0  0  0
  -25.3960  -36.4710   23.9020 C   0  0  0  0  0  3  0  0  0  0  0  0
  -27.5100  -37.3940   24.7420 C   0  0  0  0  0  1  0  0  0  0  0  0
  -26.4170  -37.5340   23.7830 N   0  0  0  0  0  0  0  0  0  0  0  0
  -26.0000  -38.4510   23.9090 H   0  0  0  0  0  0  0  0  0  0  0  0
  -26.4020  -31.8900   25.2390 C   0  0  1  0  0  0  0  0  0  0  0  0
  -25.2900  -31.6590   26.2890 C   0  0  0  0  0  1  0  0  0  0  0  0
  -27.0060  -30.5120   24.8840 C   0  0  0  0  0  1  0  0  0  0  0  0
  -27.5310  -32.7070   25.9100 C   0  0  0  0  0  1  0  0  0  0  0  0
  -29.4020  -18.7390   20.3330 C   0  0  0  0  0  2  0  0  0  0  0  0
  -30.3650  -17.4830   20.7590 C   0  0  0  0  0  2  0  0  0  0  0  0
  -30.6610  -14.8870   20.4340 C   0  0  0  0  0  0  0  0  0  0  0  0
  -30.4730  -12.6400   19.3570 C   0  0  0  0  0  2  0  0  0  0  0  0
  -29.5480  -12.7390   18.1250 C   0  0  0  0  0  2  0  0  0  0  0  0
  -28.0750  -12.5460   18.5360 C   0  0  0  0  0  2  0  0  0  0  0  0
  -27.6840  -13.4010   19.7720 C   0  0  0  0  0  3  0  0  0  0  0  0
  -28.7330  -13.2940   20.9010 C   0  0  0  0  0  2  0  0  0  0  0  0
  -30.0310  -13.6680   20.3270 N   0  0  0  0  0  0  0  0  0  0  0  0
  -31.8490  -14.9900   20.1160 O   0  0  0  0  0  0  0  0  0  0  0  0
  -29.9050  -16.0190   20.7030 N   0  0  0  0  0  0  0  0  0  0  0  0
  -28.9310  -15.8520   20.9120 H   0  0  0  0  0  0  0  0  0  0  0  0
  -25.2730  -13.9520   20.4470 C   0  0  0  0  0  0  0  0  0  0  0  0
  -24.2170  -13.1620   20.8090 C   0  0  0  0  0  0  0  0  0  0  0  0
  -24.7060  -11.8200   20.8060 C   0  0  0  0  0  0  0  0  0  0  0  0
  -26.3380  -13.0910   20.2420 N   0  0  0  0  0  0  0  0  0  0  0  0
  -26.0040  -11.8040   20.5210 N   0  0  0  0  0  0  0  0  0  0  0  0
  -24.0010  -10.5470   20.9980 C   0  0  0  0  0  0  0  0  0  0  0  0
  -24.4270   -9.6030   21.9580 C   0  0  0  0  0  3  0  0  0  0  0  0
  -23.7210   -8.3950   22.1380 C   0  0  0  0  0  3  0  0  0  0  0  0
  -22.5720   -8.1200   21.3570 C   0  0  0  0  0  0  0  0  0  0  0  0
  -22.1660   -9.0520   20.3860 C   0  0  0  0  0  3  0  0  0  0  0  0
  -22.8740  -10.2530   20.2060 C   0  0  0  0  0  3  0  0  0  0  0  0
  -21.8380   -6.9630   21.4450 O   0  0  0  0  0  0  0  0  0  0  0  0
  -21.7720   -6.2390   22.6090 C   0  0  0  0  0  0  0  0  0  0  0  0
  -21.2940   -6.8020   23.8130 C   0  0  0  0  0  3  0  0  0  0  0  0
  -21.1790   -6.0030   24.9660 C   0  0  0  0  0  3  0  0  0  0  0  0
  -21.5310   -4.6410   24.9190 C   0  0  0  0  0  0  0  0  0  0  0  0
  -22.0010   -4.0760   23.7200 C   0  0  0  0  0  3  0  0  0  0  0  0
  -22.1180   -4.8730   22.5680 C   0  0  0  0  0  0  0  0  0  0  0  0
  -22.5520   -4.3190   21.4100 F   0  0  0  0  0  0  0  0  0  0  0  0
  -21.4130   -3.8710   26.0250 F   0  0  0  0  0  0  0  0  0  0  0  0
  -22.8050  -13.6150   21.0460 C   0  0  0  0  0  0  0  0  0  0  0  0
  -22.0710  -12.9150   21.9040 N   0  0  0  0  0  0  0  0  0  0  0  0
  -22.3610  -14.6280   20.5060 O   0  0  0  0  0  0  0  0  0  0  0  0
  -22.4430  -12.0970   22.3630 H   0  0  0  0  0  0  0  0  0  0  0  0
  -21.1240  -13.2020   22.1060 H   0  0  0  0  0  0  0  0  0  0  0  0
  -25.4130  -15.3240   20.2510 N   0  0  0  0  0  0  0  0  0  0  0  0
  -24.6270  -15.9600   20.3310 H   0  0  0  0  0  0  0  0  0  0  0  0
  -26.2490  -15.7730   19.9010 H   0  0  0  0  0  0  0  0  0  0  0  0
  1  2  1  0
  2  4  2  0
  3  1  2  0
  3  5  1  0
  4 11  1  0
  5  6  2  0
  6  4  1  0
  6 55  1  0
  7  8  1  0
  8  5  1  0
 10  9  1  0
 10  3  1  0
 12 11  1  0
 12 13  2  0
 14 13  1  0
 15 26  2  0
 16 14  1  0
 16 21  1  0
 17 25  1  0
 17 27  1  0
 18 24  1  0
 18 20  1  0
 19 25  1  0
 20 21  2  0
 20 19  1  0
 22 16  2  0
 23 22  1  0
 23 18  2  0
 24 17  1  0
 25 15  1  0
 27 29  2  0
 28 27  1  0
 30 28  1  0
 31 40  2  0
 31 36  1  0
 32 28  1  0
 32 36  1  0
 33 32  1  0
 34 35  1  0
 34 33  1  0
 35 31  1  0
 36 37  2  0
 37 38  1  0
 39 38  2  0
 40 39  1  0
 41 15  1  0
 41 42  1  0
 41 51  1  0
 42 45  1  0
 43 47  1  0
 43 42  1  0
 44 43  2  0
 47 46  1  0
 49 47  1  0
 49 50  1  0
 49 48  1  0
 51 54  1  1
 51 52  1  0
 53 51  1  0
 55 56  1  0
 57 65  1  0
 58 63  1  0
 59 60  1  0
 59 58  1  0
 61 60  1  0
 61 70  1  0
 61 62  1  0
 63 57  1  0
 63 62  1  0
 64 57  2  0
 65 56  1  0
 65 66  1  0
 67 68  2  0
 68 87  1  0
 69 68  1  0
 69 72  1  0
 70 67  1  0
 70 71  1  0
 71 69  2  0
 72 73  1  0
 73 74  2  0
 75 78  1  0
 75 74  1  0
 76 75  2  0
 77 76  1  0
 77 72  2  0
 78 79  1  0
 79 80  1  0
 80 81  2  0
 82 81  1  0
 82 86  1  0
 83 82  2  0
 84 79  2  0
 84 83  1  0
 85 84  1  0
 87 88  1  0
 88 91  1  0
 88 90  1  0
 89 87  2  0
 92 93  1  0
 92 67  1  0
 94 92  1  0
M  ISO  4  13 101  14 101  57 100  65 100
M  END
>  <TORSDO>  (79) 
F 23

>  <SCORE>  (79) 
-12.541

>  <name>  (79) 
78

>  <ligand_id>  (79) 
78

>  <original_smiles>  (79) 
[H]c1c([H])c([H])c2c(c1[H])C([H])([H])C([H])([H])C([H])([H])C2([H])N([H])C(=O)C1([H])N(C(=O)C([H])(N([H])C(=O)C([H])(N([H])C([H])([H])[H])C([H])([H])[H])C(C([H])([H])[H])(C([H])([H])[H])C([H])([H])[H])C([H])([H])c2c([H])c(OC([H])([H])C([H])([H])C([H])([H])c3c([H])c([H])c(C([H])([H])C([H])([H])[H])c(C([H])([H])C([H])([H])[H])c3C([H])([H])C([H])([H])N([H])C(=O)N3C([H])([H])C([H])([H])C([H])([H])C([H])(n4nc(-c5c([H])c([H])c(Oc6c([H])c([H])c(F)c([H])c6F)c([H])c5[H])c(C(=O)N([H])[H])c4N([H])[H])C3([H])[H])c([H])c([H])c2C1([H])[H]

>  <smiles>  (79) 
[H]c1c([H])c([H])c2c(c1[H])C([H])([H])C([H])([H])C([H])([H])C2([H])N([H])C(=O)C1([H])N(C(=O)C([H])(N([H])C(=O)C([H])(N([H])C([H])([H])[H])C([H])([H])[H])C(C([H])([H])[H])(C([H])([H])[H])C([H])([H])[H])C([H])([H])c2c([H])c(OC([H])([H])C([H])([H])C([H])([H])c3c([H])c([H])c(C([H])([H])C([H])([H])[H])c(C([H])([H])C([H])([H])[H])c3C([H])([H])C([H])([H])N([H])C(=O)N3C([H])([H])C([H])([H])C([H])([H])C([H])(n4nc(-c5c([H])c([H])c(Oc6c([H])c([H])c(F)c([H])c6F)c([H])c5[H])c(C(=O)N([H])[H])c4N([H])[H])C3([H])[H])c([H])c([H])c2C1([H])[H]

$$$$
79:0:0
     RDKit          3D

 92100  0  0  1  0  0  0  0  0999 V2000
  -27.9230  -20.3360   19.5680 C   0  0  0  0  0  3  0  0  0  0  0  0
  -29.7700  -21.1540   20.4060 C   0  0  0  0  0  3  0  0  0  0  0  0
  -29.2260  -19.9340   19.9720 C   0  0  0  0  0  0  0  0  0  0  0  0
  -27.7280  -21.6890   19.6920 C   0  0  0  0  0  0  0  0  0  0  0  0
  -26.4880  -22.4220   19.2880 C   0  0  0  0  0  1  0  0  0  0  0  0
  -28.8840  -22.2770   20.2280 N   0  0  0  0  0  0  0  0  0  0  0  0
  -29.1440  -23.7540   22.1800 C   0  0  0  0  0  1  0  0  0  0  0  0
  -30.5310  -24.1860   20.1360 C   0  0  0  0  0  1  0  0  0  0  0  0
  -29.1320  -23.7590   20.6330 C   0  0  1  0  0  0  0  0  0  0  0  0
  -28.1030  -24.9260   20.1150 C   0  0  0  0  0  2  0  0  0  0  0  0
  -28.3130  -26.4110   20.2970 O   0  0  0  0  0  0  0  0  0  0  0  0
  -24.5760  -31.8890   23.2170 C   0  0  0  0  0  0  0  0  0  0  0  0
  -27.2070  -27.2950   20.1890 C   0  0  0  0  0  0  0  0  0  0  0  0
  -23.3790  -30.4850   21.5740 C   0  0  0  0  0  3  0  0  0  0  0  0
  -24.8400  -28.9370   20.1400 C   0  0  0  0  0  0  0  0  0  0  0  0
  -25.9140  -30.8020   21.3910 C   0  0  0  0  0  2  0  0  0  0  0  0
  -26.0040  -29.4180   20.7550 C   0  0  0  0  0  0  0  0  0  0  0  0
  -27.1890  -28.6080   20.7710 C   0  0  0  0  0  3  0  0  0  0  0  0
  -26.0250  -26.8920   19.5220 C   0  0  0  0  0  3  0  0  0  0  0  0
  -24.8610  -27.6860   19.5040 C   0  0  0  0  0  3  0  0  0  0  0  0
  -23.5920  -29.8020   20.1960 C   0  0  0  0  0  2  0  0  0  0  0  0
  -24.6430  -31.0770   22.1190 N   0  0  0  0  0  0  0  0  0  0  0  0
  -23.4910  -32.1630   23.7540 O   0  0  0  0  0  0  0  0  0  0  0  0
  -22.7150  -29.4740   22.5400 C   0  0  0  0  0  0  0  0  0  0  0  0
  -21.3870  -29.3020   22.4200 N   0  0  0  0  0  0  0  0  0  0  0  0
  -23.3940  -28.8440   23.3540 O   0  0  0  0  0  0  0  0  0  0  0  0
  -20.8980  -29.8700   21.7430 H   0  0  0  0  0  0  0  0  0  0  0  0
  -18.0100  -28.0980   22.9350 C   0  0  0  0  0  0  0  0  0  0  0  0
  -20.5700  -28.3600   23.1900 C   0  0  0  0  0  3  0  0  0  0  0  0
  -20.6730  -26.9300   22.6110 C   0  0  0  0  0  2  0  0  0  0  0  0
  -19.5630  -26.6060   21.6030 C   0  0  0  0  0  2  0  0  0  0  0  0
  -18.1840  -26.7480   22.2540 C   0  0  0  0  0  2  0  0  0  0  0  0
  -19.1310  -28.8580   23.3600 C   0  0  0  0  0  0  0  0  0  0  0  0
  -18.9160  -30.1170   23.9620 C   0  0  0  0  0  3  0  0  0  0  0  0
  -17.6130  -30.6210   24.1330 C   0  0  0  0  0  3  0  0  0  0  0  0
  -16.5070  -29.8580   23.7220 C   0  0  0  0  0  3  0  0  0  0  0  0
  -16.7060  -28.5970   23.1320 C   0  0  0  0  0  3  0  0  0  0  0  0
  -25.8560  -32.5260   23.8400 C   0  0  0  0  0  3  0  0  0  0  0  0
  -26.3730  -31.7560   25.1200 C   0  0  1  0  0  0  0  0  0  0  0  0
  -25.2750  -31.5190   26.1860 C   0  0  0  0  0  1  0  0  0  0  0  0
  -26.9610  -30.3820   24.7280 C   0  0  0  0  0  1  0  0  0  0  0  0
  -27.5190  -32.5580   25.7780 C   0  0  0  0  0  1  0  0  0  0  0  0
  -25.5380  -33.9230   24.1720 N   0  0  0  0  0  0  0  0  0  0  0  0
  -25.8720  -34.9820   23.4220 C   0  0  0  0  0  0  0  0  0  0  0  0
  -26.5410  -34.8850   22.3890 O   0  0  0  0  0  0  0  0  0  0  0  0
  -24.9260  -34.0660   24.9630 H   0  0  0  0  0  0  0  0  0  0  0  0
  -24.1400  -36.7800   23.0800 C   0  0  0  0  0  1  0  0  0  0  0  0
  -25.3850  -36.3690   23.8840 C   0  0  0  0  0  3  0  0  0  0  0  0
  -27.5230  -37.2540   24.7100 C   0  0  0  0  0  1  0  0  0  0  0  0
  -26.4180  -37.4220   23.7700 N   0  0  0  0  0  0  0  0  0  0  0  0
  -26.0160  -38.3440   23.9160 H   0  0  0  0  0  0  0  0  0  0  0  0
  -30.8500  -18.4340   18.6620 C   0  0  0  0  0  1  0  0  0  0  0  0
  -29.7400  -18.4310   19.7190 C   0  0  0  0  0  3  0  0  0  0  0  0
  -30.1080  -17.3660   20.8680 C   0  0  0  0  0  2  0  0  0  0  0  0
  -30.6000  -14.7740   20.4280 C   0  0  0  0  0  0  0  0  0  0  0  0
  -30.4050  -12.4970   19.4010 C   0  0  0  0  0  2  0  0  0  0  0  0
  -29.4710  -12.5500   18.1720 C   0  0  0  0  0  2  0  0  0  0  0  0
  -28.0030  -12.3810   18.6070 C   0  0  0  0  0  2  0  0  0  0  0  0
  -27.6220  -13.2890   19.8050 C   0  0  0  0  0  3  0  0  0  0  0  0
  -28.6720  -13.2040   20.9330 C   0  0  0  0  0  2  0  0  0  0  0  0
  -29.9700  -13.5540   20.3390 N   0  0  0  0  0  0  0  0  0  0  0  0
  -31.8000  -14.8820   20.1590 O   0  0  0  0  0  0  0  0  0  0  0  0
  -29.8050  -15.8860   20.6220 N   0  0  0  0  0  0  0  0  0  0  0  0
  -28.8240  -15.6580   20.6880 H   0  0  0  0  0  0  0  0  0  0  0  0
  -25.2290  -13.8910   20.5050 C   0  0  0  0  0  0  0  0  0  0  0  0
  -24.1580  -13.1170   20.8670 C   0  0  0  0  0  0  0  0  0  0  0  0
  -24.6220  -11.7670   20.8510 C   0  0  0  0  0  0  0  0  0  0  0  0
  -26.2750  -13.0090   20.2880 N   0  0  0  0  0  0  0  0  0  0  0  0
  -25.9160  -11.7290   20.5610 N   0  0  0  0  0  0  0  0  0  0  0  0
  -23.8960  -10.5050   21.0380 C   0  0  0  0  0  0  0  0  0  0  0  0
  -24.3180   -9.5450   21.9830 C   0  0  0  0  0  3  0  0  0  0  0  0
  -23.5910   -8.3470   22.1600 C   0  0  0  0  0  3  0  0  0  0  0  0
  -22.4300   -8.1000   21.3900 C   0  0  0  0  0  0  0  0  0  0  0  0
  -22.0270   -9.0510   20.4350 C   0  0  0  0  0  3  0  0  0  0  0  0
  -22.7530  -10.2400   20.2570 C   0  0  0  0  0  3  0  0  0  0  0  0
  -21.6790   -6.9540   21.4740 O   0  0  0  0  0  0  0  0  0  0  0  0
  -21.6140   -6.2200   22.6300 C   0  0  0  0  0  0  0  0  0  0  0  0
  -21.1620   -6.7810   23.8450 C   0  0  0  0  0  3  0  0  0  0  0  0
  -21.0470   -5.9730   24.9930 C   0  0  0  0  0  3  0  0  0  0  0  0
  -21.3720   -4.6040   24.9280 C   0  0  0  0  0  0  0  0  0  0  0  0
  -21.8160   -4.0430   23.7190 C   0  0  0  0  0  3  0  0  0  0  0  0
  -21.9350   -4.8470   22.5720 C   0  0  0  0  0  0  0  0  0  0  0  0
  -22.3430   -4.2970   21.4020 F   0  0  0  0  0  0  0  0  0  0  0  0
  -21.2530   -3.8250   26.0280 F   0  0  0  0  0  0  0  0  0  0  0  0
  -22.7580  -13.5950   21.1140 C   0  0  0  0  0  0  0  0  0  0  0  0
  -22.0200  -12.8990   21.9720 N   0  0  0  0  0  0  0  0  0  0  0  0
  -22.3260  -14.6190   20.5850 O   0  0  0  0  0  0  0  0  0  0  0  0
  -22.3860  -12.0690   22.4170 H   0  0  0  0  0  0  0  0  0  0  0  0
  -21.0790  -13.1980   22.1870 H   0  0  0  0  0  0  0  0  0  0  0  0
  -25.3970  -15.2580   20.3180 N   0  0  0  0  0  0  0  0  0  0  0  0
  -24.6260  -15.9120   20.4050 H   0  0  0  0  0  0  0  0  0  0  0  0
  -26.2400  -15.6880   19.9600 H   0  0  0  0  0  0  0  0  0  0  0  0
  1  4  2  0
  1  3  1  0
  3  2  2  0
  4  6  1  0
  5  4  1  0
  6  2  1  0
  6  9  1  0
  9  8  1  6
  9  7  1  0
 10 11  1  0
 10  9  1  0
 12 23  2  0
 13 11  1  0
 13 18  1  0
 14 22  1  0
 14 24  1  0
 15 21  1  0
 15 17  1  0
 16 22  1  0
 17 18  2  0
 17 16  1  0
 19 13  2  0
 20 19  1  0
 20 15  2  0
 21 14  1  0
 22 12  1  0
 24 26  2  0
 25 24  1  0
 27 25  1  0
 28 37  2  0
 28 33  1  0
 29 25  1  0
 29 33  1  0
 30 29  1  0
 31 32  1  0
 31 30  1  0
 32 28  1  0
 33 34  2  0
 34 35  1  0
 36 35  2  0
 37 36  1  0
 38 12  1  0
 38 43  1  0
 38 39  1  0
 39 42  1  1
 39 40  1  0
 41 39  1  0
 43 46  1  0
 44 48  1  0
 44 43  1  0
 45 44  2  0
 48 47  1  0
 50 48  1  0
 50 51  1  0
 50 49  1  0
 53 52  1  0
 53  3  1  0
 53 54  1  0
 55 63  1  0
 56 61  1  0
 57 58  1  0
 57 56  1  0
 59 58  1  0
 59 68  1  0
 59 60  1  0
 61 55  1  0
 61 60  1  0
 62 55  2  0
 63 64  1  0
 63 54  1  0
 65 66  2  0
 66 85  1  0
 67 66  1  0
 67 70  1  0
 68 65  1  0
 68 69  1  0
 69 67  2  0
 70 71  1  0
 71 72  2  0
 73 76  1  0
 73 72  1  0
 74 73  2  0
 75 74  1  0
 75 70  2  0
 76 77  1  0
 77 78  1  0
 78 79  2  0
 80 79  1  0
 80 84  1  0
 81 80  2  0
 82 77  2  0
 82 81  1  0
 83 82  1  0
 85 86  1  0
 86 89  1  0
 86 88  1  0
 87 85  2  0
 90 91  1  0
 90 65  1  0
 92 90  1  0
M  ISO  4  10 101  11 101  55 100  63 100
M  END
>  <TORSDO>  (80) 
F 20

>  <SCORE>  (80) 
-13.950

>  <name>  (80) 
79

>  <ligand_id>  (80) 
79

>  <original_smiles>  (80) 
[H]c1c([H])c([H])c2c(c1[H])C([H])([H])C([H])([H])C([H])([H])C2([H])N([H])C(=O)C1([H])N(C(=O)C([H])(N([H])C(=O)C([H])(N([H])C([H])([H])[H])C([H])([H])[H])C(C([H])([H])[H])(C([H])([H])[H])C([H])([H])[H])C([H])([H])c2c([H])c(OC([H])([H])C(n3c([H])c(C([H])(C([H])([H])[H])C([H])([H])N([H])C(=O)N4C([H])([H])C([H])([H])C([H])([H])C([H])(n5nc(-c6c([H])c([H])c(Oc7c([H])c([H])c(F)c([H])c7F)c([H])c6[H])c(C(=O)N([H])[H])c5N([H])[H])C4([H])[H])c([H])c3C([H])([H])[H])(C([H])([H])[H])C([H])([H])[H])c([H])c([H])c2C1([H])[H]

>  <smiles>  (80) 
[H]c1c([H])c([H])c2c(c1[H])C([H])([H])C([H])([H])C([H])([H])C2([H])N([H])C(=O)C1([H])N(C(=O)C([H])(N([H])C(=O)C([H])(N([H])C([H])([H])[H])C([H])([H])[H])C(C([H])([H])[H])(C([H])([H])[H])C([H])([H])[H])C([H])([H])c2c([H])c(OC([H])([H])C(n3c([H])c(C([H])(C([H])([H])[H])C([H])([H])N([H])C(=O)N4C([H])([H])C([H])([H])C([H])([H])C([H])(n5nc(-c6c([H])c([H])c(Oc7c([H])c([H])c(F)c([H])c7F)c([H])c6[H])c(C(=O)N([H])[H])c5N([H])[H])C4([H])[H])c([H])c3C([H])([H])[H])(C([H])([H])[H])C([H])([H])[H])c([H])c([H])c2C1([H])[H]

$$$$
80:0:0
     RDKit          3D

 93101  0  0  1  0  0  0  0  0999 V2000
  -29.1920  -19.3220   19.4640 C   0  0  0  0  0  3  0  0  0  0  0  0
  -28.8000  -21.4970   19.7050 C   0  0  0  0  0  3  0  0  0  0  0  0
  -28.5990  -20.4550   18.8470 C   0  0  0  0  0  0  0  0  0  0  0  0
  -29.7780  -19.6700   20.6500 C   0  0  0  0  0  0  0  0  0  0  0  0
  -29.5600  -21.1080   20.7980 N   0  0  0  0  0  0  0  0  0  0  0  0
  -27.2200  -19.1790   17.1710 C   0  0  0  0  0  1  0  0  0  0  0  0
  -28.9990  -20.7760   16.4220 C   0  0  0  0  0  1  0  0  0  0  0  0
  -26.8800  -21.6460   17.4500 C   0  0  0  0  0  1  0  0  0  0  0  0
  -27.9220  -20.5120   17.4890 C   0  0  2  0  0  0  0  0  0  0  0  0
  -30.6140  -18.6330   21.4640 C   0  0  0  0  0  2  0  0  0  0  0  0
  -30.1400  -17.1130   21.8500 C   0  0  0  0  0  2  0  0  0  0  0  0
  -30.5620  -14.8270   20.5410 C   0  0  0  0  0  0  0  0  0  0  0  0
  -30.2520  -12.7880   19.1170 C   0  0  0  0  0  2  0  0  0  0  0  0
  -29.2240  -13.0730   18.0020 C   0  0  0  0  0  2  0  0  0  0  0  0
  -27.7830  -12.8390   18.5030 C   0  0  0  0  0  2  0  0  0  0  0  0
  -27.5110  -13.4880   19.8860 C   0  0  0  0  0  3  0  0  0  0  0  0
  -28.6490  -13.1900   20.8830 C   0  0  0  0  0  2  0  0  0  0  0  0
  -29.8990  -13.6520   20.2620 N   0  0  0  0  0  0  0  0  0  0  0  0
  -31.7570  -14.9450   20.2580 O   0  0  0  0  0  0  0  0  0  0  0  0
  -29.8100  -15.9260   20.9350 N   0  0  0  0  0  0  0  0  0  0  0  0
  -28.8190  -15.7530   20.8720 H   0  0  0  0  0  0  0  0  0  0  0  0
  -25.1350  -13.9490   20.7370 C   0  0  0  0  0  0  0  0  0  0  0  0
  -24.1130  -13.1170   21.1080 C   0  0  0  0  0  0  0  0  0  0  0  0
  -24.6240  -11.7880   20.9920 C   0  0  0  0  0  0  0  0  0  0  0  0
  -26.2010  -13.1230   20.4170 N   0  0  0  0  0  0  0  0  0  0  0  0
  -25.9030  -11.8150   20.6350 N   0  0  0  0  0  0  0  0  0  0  0  0
  -23.9500  -10.4920   21.1410 C   0  0  0  0  0  0  0  0  0  0  0  0
  -24.3540   -9.5560   22.1190 C   0  0  0  0  0  3  0  0  0  0  0  0
  -23.6780   -8.3250   22.2550 C   0  0  0  0  0  3  0  0  0  0  0  0
  -22.5820   -8.0190   21.4140 C   0  0  0  0  0  0  0  0  0  0  0  0
  -22.1980   -8.9450   20.4280 C   0  0  0  0  0  3  0  0  0  0  0  0
  -22.8760  -10.1670   20.2890 C   0  0  0  0  0  3  0  0  0  0  0  0
  -21.8830   -6.8380   21.4570 O   0  0  0  0  0  0  0  0  0  0  0  0
  -21.6910   -6.1580   22.6330 C   0  0  0  0  0  0  0  0  0  0  0  0
  -20.9250   -6.6960   23.6890 C   0  0  0  0  0  3  0  0  0  0  0  0
  -20.6970   -5.9340   24.8520 C   0  0  0  0  0  3  0  0  0  0  0  0
  -21.2230   -4.6330   24.9580 C   0  0  0  0  0  0  0  0  0  0  0  0
  -21.9790   -4.0920   23.9040 C   0  0  0  0  0  3  0  0  0  0  0  0
  -22.2100   -4.8510   22.7440 C   0  0  0  0  0  0  0  0  0  0  0  0
  -22.9220   -4.3180   21.7220 F   0  0  0  0  0  0  0  0  0  0  0  0
  -20.9970   -3.8990   26.0710 F   0  0  0  0  0  0  0  0  0  0  0  0
  -22.7090  -13.5290   21.4500 C   0  0  0  0  0  0  0  0  0  0  0  0
  -22.0300  -12.7580   22.2920 N   0  0  0  0  0  0  0  0  0  0  0  0
  -22.2220  -14.5680   21.0070 O   0  0  0  0  0  0  0  0  0  0  0  0
  -22.4370  -11.9190   22.6790 H   0  0  0  0  0  0  0  0  0  0  0  0
  -21.0880  -13.0120   22.5570 H   0  0  0  0  0  0  0  0  0  0  0  0
  -25.2410  -15.3310   20.6170 N   0  0  0  0  0  0  0  0  0  0  0  0
  -24.4480  -15.9460   20.7650 H   0  0  0  0  0  0  0  0  0  0  0  0
  -26.0460  -15.8130   20.2400 H   0  0  0  0  0  0  0  0  0  0  0  0
  -29.8930  -22.1650   21.8460 C   0  0  0  0  0  2  0  0  0  0  0  0
  -30.0420  -23.7500   21.4270 C   0  0  0  0  0  3  0  0  0  0  0  0
  -28.9670  -24.9010   21.8380 C   0  0  0  0  0  3  0  0  0  0  0  0
  -29.1610  -26.3670   21.5030 O   0  0  0  0  0  0  0  0  0  0  0  0
  -24.9150  -31.9530   23.5030 C   0  0  0  0  0  0  0  0  0  0  0  0
  -28.0380  -27.2010   21.2650 C   0  0  0  0  0  0  0  0  0  0  0  0
  -23.9810  -30.3610   21.8670 C   0  0  0  0  0  3  0  0  0  0  0  0
  -25.6540  -28.7450   20.7910 C   0  0  0  0  0  0  0  0  0  0  0  0
  -26.5180  -30.7580   21.9820 C   0  0  0  0  0  2  0  0  0  0  0  0
  -26.7240  -29.3250   21.4850 C   0  0  0  0  0  0  0  0  0  0  0  0
  -27.9210  -28.5670   21.7030 C   0  0  0  0  0  3  0  0  0  0  0  0
  -26.9460  -26.6900   20.5310 C   0  0  0  0  0  3  0  0  0  0  0  0
  -25.7720  -27.4350   20.3020 C   0  0  0  0  0  3  0  0  0  0  0  0
  -24.3980  -29.5760   20.5960 C   0  0  0  0  0  2  0  0  0  0  0  0
  -25.1490  -31.0490   22.5070 N   0  0  0  0  0  0  0  0  0  0  0  0
  -23.7630  -32.2300   23.8670 O   0  0  0  0  0  0  0  0  0  0  0  0
  -23.2290  -29.4080   22.8280 C   0  0  0  0  0  0  0  0  0  0  0  0
  -21.9330  -29.1720   22.5590 N   0  0  0  0  0  0  0  0  0  0  0  0
  -23.8160  -28.8820   23.7760 O   0  0  0  0  0  0  0  0  0  0  0  0
  -21.5170  -29.6480   21.7700 H   0  0  0  0  0  0  0  0  0  0  0  0
  -18.5120  -28.0310   22.8770 C   0  0  0  0  0  0  0  0  0  0  0  0
  -21.0500  -28.2760   23.3110 C   0  0  0  0  0  3  0  0  0  0  0  0
  -21.1720  -26.8200   22.8040 C   0  0  0  0  0  2  0  0  0  0  0  0
  -20.1380  -26.4670   21.7310 C   0  0  0  0  0  2  0  0  0  0  0  0
  -18.7180  -26.6530   22.2710 C   0  0  0  0  0  2  0  0  0  0  0  0
  -19.6080  -28.7990   23.3510 C   0  0  0  0  0  0  0  0  0  0  0  0
  -19.3640  -30.0870   23.8760 C   0  0  0  0  0  3  0  0  0  0  0  0
  -18.0560  -30.6060   23.9320 C   0  0  0  0  0  3  0  0  0  0  0  0
  -16.9740  -29.8350   23.4750 C   0  0  0  0  0  3  0  0  0  0  0  0
  -17.2030  -28.5510   22.9510 C   0  0  0  0  0  3  0  0  0  0  0  0
  -26.0840  -32.6990   24.2190 C   0  0  0  0  0  3  0  0  0  0  0  0
  -25.6670  -34.0940   24.4190 N   0  0  0  0  0  0  0  0  0  0  0  0
  -25.9820  -35.1090   23.6030 C   0  0  0  0  0  0  0  0  0  0  0  0
  -26.7220  -34.9740   22.6250 O   0  0  0  0  0  0  0  0  0  0  0  0
  -25.0140  -34.2690   25.1700 H   0  0  0  0  0  0  0  0  0  0  0  0
  -24.1650  -36.7480   23.0210 C   0  0  0  0  0  1  0  0  0  0  0  0
  -25.3840  -36.4920   23.9220 C   0  0  0  0  0  3  0  0  0  0  0  0
  -27.3880  -37.6020   24.8030 C   0  0  0  0  0  1  0  0  0  0  0  0
  -26.3510  -37.6020   23.7750 N   0  0  0  0  0  0  0  0  0  0  0  0
  -25.8760  -38.4990   23.8030 H   0  0  0  0  0  0  0  0  0  0  0  0
  -26.4900  -32.0400   25.5930 C   0  0  1  0  0  0  0  0  0  0  0  0
  -25.2860  -31.7120   26.5070 C   0  0  0  0  0  1  0  0  0  0  0  0
  -27.2740  -30.7270   25.3620 C   0  0  0  0  0  1  0  0  0  0  0  0
  -27.4380  -32.9850   26.3690 C   0  0  0  0  0  1  0  0  0  0  0  0
  1  4  2  0
  2  5  1  0
  3  1  1  0
  3  2  2  0
  4  5  1  0
  4 10  1  0
  5 50  1  0
  9  6  1  6
  7  9  1  0
  8  9  1  0
  9  3  1  0
 10 11  1  0
 12 20  1  0
 13 18  1  0
 14 15  1  0
 14 13  1  0
 16 15  1  0
 16 25  1  0
 16 17  1  0
 18 12  1  0
 18 17  1  0
 19 12  2  0
 20 11  1  0
 21 20  1  0
 22 23  2  0
 23 42  1  0
 24 23  1  0
 24 27  1  0
 25 26  1  0
 25 22  1  0
 26 24  2  0
 27 28  1  0
 28 29  2  0
 30 33  1  0
 30 29  1  0
 31 30  2  0
 32 31  1  0
 32 27  2  0
 33 34  1  0
 34 39  2  0
 34 35  1  0
 35 36  2  0
 36 37  1  0
 37 41  1  0
 38 37  2  0
 39 38  1  0
 40 39  1  0
 42 43  1  0
 43 46  1  0
 43 45  1  0
 44 42  2  0
 47 22  1  0
 47 48  1  0
 49 47  1  0
 51 52  2  0
 51 50  1  0
 53 52  1  0
 54 65  2  0
 55 53  1  0
 55 60  1  0
 56 64  1  0
 56 66  1  0
 57 59  1  0
 58 64  1  0
 59 60  2  0
 59 58  1  0
 61 55  2  0
 62 61  1  0
 62 57  2  0
 63 57  1  0
 63 56  1  0
 64 54  1  0
 66 68  2  0
 67 66  1  0
 69 67  1  0
 70 79  2  0
 70 75  1  0
 71 67  1  0
 71 75  1  0
 72 71  1  0
 73 74  1  0
 73 72  1  0
 74 70  1  0
 75 76  2  0
 76 77  1  0
 78 77  2  0
 79 78  1  0
 80 54  1  0
 80 81  1  0
 80 90  1  0
 81 84  1  0
 82 86  1  0
 82 81  1  0
 83 82  2  0
 86 85  1  0
 88 89  1  0
 88 86  1  0
 88 87  1  0
 90 93  1  1
 90 91  1  0
 92 90  1  0
M  ISO  4  12 100  20 100  52 101  53 101
M  END
>  <TORSDO>  (81) 
F 22

>  <SCORE>  (81) 
-12.126

>  <name>  (81) 
80

>  <ligand_id>  (81) 
80

>  <original_smiles>  (81) 
[H]c1c([H])c([H])c2c(c1[H])C([H])([H])C([H])([H])C([H])([H])C2([H])N([H])C(=O)C1([H])N(C(=O)C([H])(N([H])C(=O)C([H])(N([H])C([H])([H])[H])C([H])([H])[H])C(C([H])([H])[H])(C([H])([H])[H])C([H])([H])[H])C([H])([H])c2c([H])c(OC([H])([H])C([H])([H])C([H])([H])n3c([H])c(C(C([H])([H])[H])(C([H])([H])[H])C([H])([H])[H])c([H])c3C([H])([H])C([H])([H])N([H])C(=O)N3C([H])([H])C([H])([H])C([H])([H])C([H])(n4nc(-c5c([H])c([H])c(Oc6c([H])c([H])c(F)c([H])c6F)c([H])c5[H])c(C(=O)N([H])[H])c4N([H])[H])C3([H])[H])c([H])c([H])c2C1([H])[H]

>  <smiles>  (81) 
[H]c1c([H])c([H])c2c(c1[H])C([H])([H])C([H])([H])C([H])([H])C2([H])N([H])C(=O)C1([H])N(C(=O)C([H])(N([H])C(=O)C([H])(N([H])C([H])([H])[H])C([H])([H])[H])C(C([H])([H])[H])(C([H])([H])[H])C([H])([H])[H])C([H])([H])c2c([H])c(OC([H])([H])C([H])([H])C([H])([H])n3c([H])c(C(C([H])([H])[H])(C([H])([H])[H])C([H])([H])[H])c([H])c3C([H])([H])C([H])([H])N([H])C(=O)N3C([H])([H])C([H])([H])C([H])([H])C([H])(n4nc(-c5c([H])c([H])c(Oc6c([H])c([H])c(F)c([H])c6F)c([H])c5[H])c(C(=O)N([H])[H])c4N([H])[H])C3([H])[H])c([H])c([H])c2C1([H])[H]

$$$$
81:0:0
     RDKit          3D

 92100  0  0  1  0  0  0  0  0999 V2000
  -29.4000  -23.4270   19.5320 C   0  0  0  0  0  3  0  0  0  0  0  0
  -28.9770  -21.9820   21.4120 C   0  0  0  0  0  3  0  0  0  0  0  0
  -28.8350  -23.2740   20.8090 C   0  0  0  0  0  0  0  0  0  0  0  0
  -30.0680  -22.3450   18.9300 C   0  0  0  0  0  0  0  0  0  0  0  0
  -29.6720  -20.9330   20.7410 C   0  0  0  0  0  0  0  0  0  0  0  0
  -30.6760  -22.5030   17.5520 C   0  0  0  0  0  1  0  0  0  0  0  0
  -30.2100  -21.1340   19.5180 N   0  0  0  0  0  0  0  0  0  0  0  0
  -27.8390  -24.2310   22.9750 C   0  0  0  0  0  1  0  0  0  0  0  0
  -28.0970  -24.4760   21.4710 C   0  0  0  0  0  3  0  0  0  0  0  0
  -28.7490  -25.9030   21.2750 C   0  0  0  0  0  2  0  0  0  0  0  0
  -28.4610  -26.6470   20.0650 O   0  0  0  0  0  0  0  0  0  0  0  0
  -24.6820  -31.8740   23.1860 C   0  0  0  0  0  0  0  0  0  0  0  0
  -27.3280  -27.4370   20.0910 C   0  0  0  0  0  0  0  0  0  0  0  0
  -23.4830  -30.4830   21.5360 C   0  0  0  0  0  3  0  0  0  0  0  0
  -24.9410  -28.9630   20.0920 C   0  0  0  0  0  0  0  0  0  0  0  0
  -26.0070  -30.8480   21.3360 C   0  0  0  0  0  2  0  0  0  0  0  0
  -26.0990  -29.4780   20.6890 C   0  0  0  0  0  0  0  0  0  0  0  0
  -27.2980  -28.7220   20.6890 C   0  0  0  0  0  3  0  0  0  0  0  0
  -26.1610  -26.9500   19.4700 C   0  0  0  0  0  3  0  0  0  0  0  0
  -24.9690  -27.7010   19.4740 C   0  0  0  0  0  3  0  0  0  0  0  0
  -23.6930  -29.8190   20.1490 C   0  0  0  0  0  2  0  0  0  0  0  0
  -24.7430  -31.0830   22.0780 N   0  0  0  0  0  0  0  0  0  0  0  0
  -23.6010  -32.1340   23.7320 O   0  0  0  0  0  0  0  0  0  0  0  0
  -22.8360  -29.4490   22.4870 C   0  0  0  0  0  0  0  0  0  0  0  0
  -21.5090  -29.2740   22.3720 N   0  0  0  0  0  0  0  0  0  0  0  0
  -23.5250  -28.8100   23.2860 O   0  0  0  0  0  0  0  0  0  0  0  0
  -21.0130  -29.8380   21.6960 H   0  0  0  0  0  0  0  0  0  0  0  0
  -18.1350  -28.0860   22.8920 C   0  0  0  0  0  0  0  0  0  0  0  0
  -20.6970  -28.3260   23.1380 C   0  0  0  0  0  3  0  0  0  0  0  0
  -20.7870  -26.9060   22.5360 C   0  0  0  0  0  2  0  0  0  0  0  0
  -19.6710  -26.6060   21.5300 C   0  0  0  0  0  2  0  0  0  0  0  0
  -18.2970  -26.7480   22.1930 C   0  0  0  0  0  2  0  0  0  0  0  0
  -19.2630  -28.8350   23.3220 C   0  0  0  0  0  0  0  0  0  0  0  0
  -19.0580  -30.0880   23.9380 C   0  0  0  0  0  3  0  0  0  0  0  0
  -17.7580  -30.5950   24.1260 C   0  0  0  0  0  3  0  0  0  0  0  0
  -16.6440  -29.8420   23.7130 C   0  0  0  0  0  3  0  0  0  0  0  0
  -16.8340  -28.5890   23.1020 C   0  0  0  0  0  3  0  0  0  0  0  0
  -25.9640  -32.5060   23.8100 C   0  0  0  0  0  3  0  0  0  0  0  0
  -25.6490  -33.8980   24.1520 N   0  0  0  0  0  0  0  0  0  0  0  0
  -25.9850  -34.9590   23.4060 C   0  0  0  0  0  0  0  0  0  0  0  0
  -26.6600  -34.8660   22.3770 O   0  0  0  0  0  0  0  0  0  0  0  0
  -25.0410  -34.0430   24.9440 H   0  0  0  0  0  0  0  0  0  0  0  0
  -24.2570  -36.7530   23.0580 C   0  0  0  0  0  1  0  0  0  0  0  0
  -25.4920  -36.3420   23.8750 C   0  0  0  0  0  3  0  0  0  0  0  0
  -27.6190  -37.2200   24.7300 C   0  0  0  0  0  1  0  0  0  0  0  0
  -26.5240  -37.3980   23.7800 N   0  0  0  0  0  0  0  0  0  0  0  0
  -26.1160  -38.3170   23.9320 H   0  0  0  0  0  0  0  0  0  0  0  0
  -26.4890  -31.7240   25.0770 C   0  0  1  0  0  0  0  0  0  0  0  0
  -25.3990  -31.4730   26.1450 C   0  0  0  0  0  1  0  0  0  0  0  0
  -27.0750  -30.3530   24.6660 C   0  0  0  0  0  1  0  0  0  0  0  0
  -27.6420  -32.5140   25.7390 C   0  0  0  0  0  1  0  0  0  0  0  0
  -30.0400  -19.5900   21.4300 C   0  0  0  0  0  2  0  0  0  0  0  0
  -29.6400  -18.2240   20.7540 C   0  0  0  0  0  2  0  0  0  0  0  0
  -30.4510  -16.9880   21.3060 C   0  0  0  0  0  2  0  0  0  0  0  0
  -30.6650  -14.5940   20.4140 C   0  0  0  0  0  0  0  0  0  0  0  0
  -30.3900  -12.4110   19.2620 C   0  0  0  0  0  2  0  0  0  0  0  0
  -29.4480  -12.5890   18.0530 C   0  0  0  0  0  2  0  0  0  0  0  0
  -27.9730  -12.4450   18.4790 C   0  0  0  0  0  2  0  0  0  0  0  0
  -27.6280  -13.2910   19.7360 C   0  0  0  0  0  3  0  0  0  0  0  0
  -28.6820  -13.0850   20.8450 C   0  0  0  0  0  2  0  0  0  0  0  0
  -30.0010  -13.4080   20.2770 N   0  0  0  0  0  0  0  0  0  0  0  0
  -31.8060  -14.7590   19.9740 O   0  0  0  0  0  0  0  0  0  0  0  0
  -29.9620  -15.6240   20.9510 N   0  0  0  0  0  0  0  0  0  0  0  0
  -29.0280  -15.3860   21.2470 H   0  0  0  0  0  0  0  0  0  0  0  0
  -25.2300  -13.9040   20.4350 C   0  0  0  0  0  0  0  0  0  0  0  0
  -24.1600  -13.1340   20.8070 C   0  0  0  0  0  0  0  0  0  0  0  0
  -24.6220  -11.7820   20.7930 C   0  0  0  0  0  0  0  0  0  0  0  0
  -26.2740  -13.0190   20.2140 N   0  0  0  0  0  0  0  0  0  0  0  0
  -25.9130  -11.7410   20.4900 N   0  0  0  0  0  0  0  0  0  0  0  0
  -23.8930  -10.5210   20.9910 C   0  0  0  0  0  0  0  0  0  0  0  0
  -24.3240   -9.5620   21.9350 C   0  0  0  0  0  3  0  0  0  0  0  0
  -23.5970   -8.3660   22.1220 C   0  0  0  0  0  3  0  0  0  0  0  0
  -22.4260   -8.1220   21.3660 C   0  0  0  0  0  0  0  0  0  0  0  0
  -22.0160   -9.0700   20.4110 C   0  0  0  0  0  3  0  0  0  0  0  0
  -22.7430  -10.2570   20.2220 C   0  0  0  0  0  3  0  0  0  0  0  0
  -21.6720   -6.9790   21.4590 O   0  0  0  0  0  0  0  0  0  0  0  0
  -21.6190   -6.2430   22.6160 C   0  0  0  0  0  0  0  0  0  0  0  0
  -21.1860   -6.8070   23.8360 C   0  0  0  0  0  3  0  0  0  0  0  0
  -21.0860   -6.0000   24.9870 C   0  0  0  0  0  3  0  0  0  0  0  0
  -21.4030   -4.6310   24.9180 C   0  0  0  0  0  0  0  0  0  0  0  0
  -21.8240   -4.0650   23.7020 C   0  0  0  0  0  3  0  0  0  0  0  0
  -21.9300   -4.8700   22.5530 C   0  0  0  0  0  0  0  0  0  0  0  0
  -22.3180   -4.3170   21.3790 F   0  0  0  0  0  0  0  0  0  0  0  0
  -21.2960   -3.8520   26.0200 F   0  0  0  0  0  0  0  0  0  0  0  0
  -22.7610  -13.6140   21.0690 C   0  0  0  0  0  0  0  0  0  0  0  0
  -22.0280  -12.9270   21.9370 N   0  0  0  0  0  0  0  0  0  0  0  0
  -22.3260  -14.6340   20.5340 O   0  0  0  0  0  0  0  0  0  0  0  0
  -22.3910  -12.1020   22.3920 H   0  0  0  0  0  0  0  0  0  0  0  0
  -21.0890  -13.2320   22.1500 H   0  0  0  0  0  0  0  0  0  0  0  0
  -25.3940  -15.2730   20.2420 N   0  0  0  0  0  0  0  0  0  0  0  0
  -24.6250  -15.9290   20.3450 H   0  0  0  0  0  0  0  0  0  0  0  0
  -26.2420  -15.7080   19.8990 H   0  0  0  0  0  0  0  0  0  0  0  0
  1  3  1  0
  3  2  2  0
  3  9  1  0
  4  7  1  0
  4  1  2  0
  5  2  1  0
  5 52  1  0
  6  4  1  0
  7  5  2  0
  9  8  1  0
 10  9  1  0
 11 13  1  0
 11 10  1  0
 12 23  2  0
 13 18  1  0
 14 22  1  0
 14 24  1  0
 15 21  1  0
 15 17  1  0
 16 22  1  0
 17 16  1  0
 18 17  2  0
 19 20  1  0
 19 13  2  0
 20 15  2  0
 21 14  1  0
 22 12  1  0
 24 26  2  0
 25 24  1  0
 27 25  1  0
 28 37  2  0
 28 33  1  0
 29 25  1  0
 29 33  1  0
 30 29  1  0
 31 32  1  0
 31 30  1  0
 32 28  1  0
 33 34  2  0
 34 35  1  0
 36 35  2  0
 37 36  1  0
 38 12  1  0
 38 39  1  0
 38 48  1  0
 39 42  1  0
 40 44  1  0
 40 39  1  0
 41 40  2  0
 44 43  1  0
 46 44  1  0
 46 47  1  0
 46 45  1  0
 48 51  1  1
 48 49  1  0
 50 48  1  0
 53 54  1  0
 53 52  1  0
 55 63  1  0
 56 61  1  0
 57 58  1  0
 57 56  1  0
 59 58  1  0
 59 68  1  0
 59 60  1  0
 61 55  1  0
 61 60  1  0
 62 55  2  0
 63 64  1  0
 63 54  1  0
 65 66  2  0
 66 85  1  0
 67 66  1  0
 67 70  1  0
 68 65  1  0
 68 69  1  0
 69 67  2  0
 70 71  1  0
 71 72  2  0
 73 76  1  0
 73 72  1  0
 74 73  2  0
 75 74  1  0
 75 70  2  0
 76 77  1  0
 77 78  1  0
 78 79  2  0
 80 79  1  0
 80 84  1  0
 81 80  2  0
 82 77  2  0
 82 81  1  0
 83 82  1  0
 85 86  1  0
 86 89  1  0
 86 88  1  0
 87 85  2  0
 90 91  1  0
 90 65  1  0
 92 90  1  0
M  ISO  4  10 101  11 101  55 100  63 100
M  END
>  <TORSDO>  (82) 
F 21

>  <SCORE>  (82) 
-12.838

>  <name>  (82) 
81

>  <ligand_id>  (82) 
81

>  <original_smiles>  (82) 
[H]c1c([H])c([H])c2c(c1[H])C([H])([H])C([H])([H])C([H])([H])C2([H])N([H])C(=O)C1([H])N(C(=O)C([H])(N([H])C(=O)C([H])(N([H])C([H])([H])[H])C([H])([H])[H])C(C([H])([H])[H])(C([H])([H])[H])C([H])([H])[H])C([H])([H])c2c([H])c(OC([H])([H])C([H])(c3c([H])c(C([H])([H])[H])nc(C([H])([H])C([H])([H])C([H])([H])N([H])C(=O)N4C([H])([H])C([H])([H])C([H])([H])C([H])(n5nc(-c6c([H])c([H])c(Oc7c([H])c([H])c(F)c([H])c7F)c([H])c6[H])c(C(=O)N([H])[H])c5N([H])[H])C4([H])[H])c3[H])C([H])([H])[H])c([H])c([H])c2C1([H])[H]

>  <smiles>  (82) 
[H]c1c([H])c([H])c2c(c1[H])C([H])([H])C([H])([H])C([H])([H])C2([H])N([H])C(=O)C1([H])N(C(=O)C([H])(N([H])C(=O)C([H])(N([H])C([H])([H])[H])C([H])([H])[H])C(C([H])([H])[H])(C([H])([H])[H])C([H])([H])[H])C([H])([H])c2c([H])c(OC([H])([H])C([H])(c3c([H])c(C([H])([H])[H])nc(C([H])([H])C([H])([H])C([H])([H])N([H])C(=O)N4C([H])([H])C([H])([H])C([H])([H])C([H])(n5nc(-c6c([H])c([H])c(Oc7c([H])c([H])c(F)c([H])c7F)c([H])c6[H])c(C(=O)N([H])[H])c5N([H])[H])C4([H])[H])c3[H])C([H])([H])[H])c([H])c([H])c2C1([H])[H]

$$$$
82:0:0
     RDKit          3D

 92100  0  0  1  0  0  0  0  0999 V2000
  -29.5380  -22.2800   19.1400 C   0  0  0  0  0  3  0  0  0  0  0  0
  -29.1820  -23.5740   19.7930 C   0  0  0  0  0  0  0  0  0  0  0  0
  -29.6780  -21.1270   19.9690 C   0  0  0  0  0  0  0  0  0  0  0  0
  -29.1410  -23.1460   21.0980 C   0  0  0  0  0  0  0  0  0  0  0  0
  -28.7200  -23.9920   22.2620 C   0  0  0  0  0  1  0  0  0  0  0  0
  -29.4350  -21.7500   21.2210 N   0  0  0  0  0  0  0  0  0  0  0  0
  -30.4830  -19.2920   18.2860 C   0  0  0  0  0  1  0  0  0  0  0  0
  -28.3130  -19.0300   19.3860 C   0  0  0  0  0  1  0  0  0  0  0  0
  -29.7670  -19.4630   19.6460 C   0  0  2  0  0  0  0  0  0  0  0  0
  -30.4820  -18.2000   20.5710 C   0  0  0  0  0  2  0  0  0  0  0  0
  -31.1880  -15.4290   20.3960 C   0  0  0  0  0  0  0  0  0  0  0  0
  -31.1430  -12.9960   19.6090 C   0  0  0  0  0  2  0  0  0  0  0  0
  -30.2760  -12.8320   18.3400 C   0  0  0  0  0  2  0  0  0  0  0  0
  -28.7940  -12.6480   18.7140 C   0  0  0  0  0  2  0  0  0  0  0  0
  -28.3300  -13.6730   19.7810 C   0  0  0  0  0  3  0  0  0  0  0  0
  -29.3150  -13.7760   20.9600 C   0  0  0  0  0  2  0  0  0  0  0  0
  -30.6080  -14.1560   20.3810 N   0  0  0  0  0  0  0  0  0  0  0  0
  -32.4190  -15.4690   20.2830 O   0  0  0  0  0  0  0  0  0  0  0  0
  -30.3640  -16.6110   20.3350 N   0  0  0  0  0  0  0  0  0  0  0  0
  -29.3970  -16.3340   20.2600 H   0  0  0  0  0  0  0  0  0  0  0  0
  -25.9590  -14.3600   20.4380 C   0  0  0  0  0  0  0  0  0  0  0  0
  -24.8460  -13.6320   20.7600 C   0  0  0  0  0  0  0  0  0  0  0  0
  -25.2490  -12.2630   20.7300 C   0  0  0  0  0  0  0  0  0  0  0  0
  -26.9660  -13.4350   20.2250 N   0  0  0  0  0  0  0  0  0  0  0  0
  -26.5470  -12.1680   20.4680 N   0  0  0  0  0  0  0  0  0  0  0  0
  -24.4590  -11.0340   20.8700 C   0  0  0  0  0  0  0  0  0  0  0  0
  -24.8000  -10.0450   21.8180 C   0  0  0  0  0  3  0  0  0  0  0  0
  -24.0160   -8.8780   21.9480 C   0  0  0  0  0  3  0  0  0  0  0  0
  -22.8760   -8.6960   21.1290 C   0  0  0  0  0  0  0  0  0  0  0  0
  -22.5550   -9.6720   20.1700 C   0  0  0  0  0  3  0  0  0  0  0  0
  -23.3390  -10.8290   20.0390 C   0  0  0  0  0  3  0  0  0  0  0  0
  -22.0700   -7.5830   21.1670 O   0  0  0  0  0  0  0  0  0  0  0  0
  -21.8900   -6.8630   22.3220 C   0  0  0  0  0  0  0  0  0  0  0  0
  -21.3780   -7.4540   23.4990 C   0  0  0  0  0  3  0  0  0  0  0  0
  -21.1470   -6.6600   24.6400 C   0  0  0  0  0  3  0  0  0  0  0  0
  -21.4200   -5.2780   24.6030 C   0  0  0  0  0  0  0  0  0  0  0  0
  -21.9250   -4.6890   23.4320 C   0  0  0  0  0  3  0  0  0  0  0  0
  -22.1590   -5.4800   22.2940 C   0  0  0  0  0  0  0  0  0  0  0  0
  -22.6260   -4.9030   21.1580 F   0  0  0  0  0  0  0  0  0  0  0  0
  -21.1900   -4.5160   25.6970 F   0  0  0  0  0  0  0  0  0  0  0  0
  -23.4640  -14.1710   20.9810 C   0  0  0  0  0  0  0  0  0  0  0  0
  -22.6720  -13.5010   21.8090 N   0  0  0  0  0  0  0  0  0  0  0  0
  -23.0970  -15.2210   20.4540 O   0  0  0  0  0  0  0  0  0  0  0  0
  -22.9830  -12.6490   22.2510 H   0  0  0  0  0  0  0  0  0  0  0  0
  -21.7430  -13.8460   22.0080 H   0  0  0  0  0  0  0  0  0  0  0  0
  -26.1900  -15.7250   20.2840 N   0  0  0  0  0  0  0  0  0  0  0  0
  -25.4330  -16.3950   20.3590 H   0  0  0  0  0  0  0  0  0  0  0  0
  -27.0380  -16.1230   19.9030 H   0  0  0  0  0  0  0  0  0  0  0  0
  -30.8280  -21.0800   23.1520 C   0  0  0  0  0  1  0  0  0  0  0  0
  -29.4360  -21.0660   22.5120 C   0  0  0  0  0  2  0  0  0  0  0  0
  -28.7010  -25.0600   19.1810 C   0  0  0  0  0  2  0  0  0  0  0  0
  -28.6880  -26.4860   19.8420 O   0  0  0  0  0  0  0  0  0  0  0  0
  -24.9330  -31.7840   23.3760 C   0  0  0  0  0  0  0  0  0  0  0  0
  -27.6100  -27.4550   19.8500 C   0  0  0  0  0  0  0  0  0  0  0  0
  -23.7520  -30.5280   21.6190 C   0  0  0  0  0  3  0  0  0  0  0  0
  -25.2270  -29.1430   20.0290 C   0  0  0  0  0  0  0  0  0  0  0  0
  -26.3010  -30.8680   21.4600 C   0  0  0  0  0  2  0  0  0  0  0  0
  -26.4010  -29.5490   20.6720 C   0  0  0  0  0  0  0  0  0  0  0  0
  -27.5850  -28.7200   20.5730 C   0  0  0  0  0  3  0  0  0  0  0  0
  -26.3970  -27.1520   19.1870 C   0  0  0  0  0  3  0  0  0  0  0  0
  -25.2410  -27.9610   19.2750 C   0  0  0  0  0  3  0  0  0  0  0  0
  -23.9720  -29.9940   20.1800 C   0  0  0  0  0  2  0  0  0  0  0  0
  -25.0150  -31.0780   22.2090 N   0  0  0  0  0  0  0  0  0  0  0  0
  -23.8410  -31.9830   23.9370 O   0  0  0  0  0  0  0  0  0  0  0  0
  -23.1080  -29.4130   22.4830 C   0  0  0  0  0  0  0  0  0  0  0  0
  -21.7940  -29.1760   22.3090 N   0  0  0  0  0  0  0  0  0  0  0  0
  -23.7980  -28.7580   23.2690 O   0  0  0  0  0  0  0  0  0  0  0  0
  -21.2840  -29.7550   21.6560 H   0  0  0  0  0  0  0  0  0  0  0  0
  -18.5040  -27.6950   22.5860 C   0  0  0  0  0  0  0  0  0  0  0  0
  -21.0190  -28.1360   22.9900 C   0  0  0  0  0  3  0  0  0  0  0  0
  -21.2610  -26.7480   22.3540 C   0  0  0  0  0  2  0  0  0  0  0  0
  -20.2380  -26.3990   21.2690 C   0  0  0  0  0  2  0  0  0  0  0  0
  -18.8180  -26.4050   21.8450 C   0  0  0  0  0  2  0  0  0  0  0  0
  -19.5380  -28.5150   23.1120 C   0  0  0  0  0  0  0  0  0  0  0  0
  -19.1930  -29.7200   23.7560 C   0  0  0  0  0  3  0  0  0  0  0  0
  -17.8450  -30.1060   23.8890 C   0  0  0  0  0  3  0  0  0  0  0  0
  -16.8250  -29.2850   23.3780 C   0  0  0  0  0  3  0  0  0  0  0  0
  -17.1560  -28.0820   22.7290 C   0  0  0  0  0  3  0  0  0  0  0  0
  -26.1960  -32.3950   24.0540 C   0  0  0  0  0  3  0  0  0  0  0  0
  -26.7200  -31.5430   25.2750 C   0  0  1  0  0  0  0  0  0  0  0  0
  -25.6230  -31.2160   26.3170 C   0  0  0  0  0  1  0  0  0  0  0  0
  -27.3270  -30.2010   24.7970 C   0  0  0  0  0  1  0  0  0  0  0  0
  -27.8650  -32.2980   25.9920 C   0  0  0  0  0  1  0  0  0  0  0  0
  -25.8570  -33.7590   24.4920 N   0  0  0  0  0  0  0  0  0  0  0  0
  -26.1920  -34.8790   23.8410 C   0  0  0  0  0  0  0  0  0  0  0  0
  -26.8830  -34.8750   22.8190 O   0  0  0  0  0  0  0  0  0  0  0  0
  -25.2560  -33.8300   25.3010 H   0  0  0  0  0  0  0  0  0  0  0  0
  -24.4520  -36.6860   23.6080 C   0  0  0  0  0  1  0  0  0  0  0  0
  -25.6790  -36.2210   24.4090 C   0  0  0  0  0  3  0  0  0  0  0  0
  -27.7850  -37.0520   25.3640 C   0  0  0  0  0  1  0  0  0  0  0  0
  -26.7030  -37.2900   24.4140 N   0  0  0  0  0  0  0  0  0  0  0  0
  -26.2820  -38.1910   24.6240 H   0  0  0  0  0  0  0  0  0  0  0  0
  1  2  1  0
  1  3  2  0
  2  4  2  0
  3  6  1  0
  4  6  1  0
  4  5  1  0
  6 50  1  0
  9  7  1  6
  8  9  1  0
  9  3  1  0
  9 10  1  0
 12 17  1  0
 13 14  1  0
 13 12  1  0
 15 14  1  0
 15 24  1  0
 15 16  1  0
 17 11  1  0
 17 16  1  0
 18 11  2  0
 19 11  1  0
 19 10  1  0
 20 19  1  0
 21 22  2  0
 22 41  1  0
 23 22  1  0
 23 26  1  0
 24 21  1  0
 24 25  1  0
 25 23  2  0
 26 27  1  0
 27 28  2  0
 29 32  1  0
 29 28  1  0
 30 29  2  0
 31 30  1  0
 31 26  2  0
 32 33  1  0
 33 34  1  0
 34 35  2  0
 36 35  1  0
 36 40  1  0
 37 36  2  0
 38 33  2  0
 38 37  1  0
 39 38  1  0
 41 42  1  0
 42 45  1  0
 42 44  1  0
 43 41  2  0
 46 47  1  0
 46 21  1  0
 48 46  1  0
 50 49  1  0
 51  2  1  0
 51 52  1  0
 52 54  1  0
 53 64  2  0
 54 59  1  0
 55 63  1  0
 55 65  1  0
 56 62  1  0
 56 58  1  0
 57 63  1  0
 58 57  1  0
 59 58  2  0
 60 61  1  0
 60 54  2  0
 61 56  2  0
 62 55  1  0
 63 53  1  0
 65 67  2  0
 66 65  1  0
 68 66  1  0
 69 78  2  0
 69 74  1  0
 70 66  1  0
 70 74  1  0
 71 70  1  0
 72 73  1  0
 72 71  1  0
 73 69  1  0
 74 75  2  0
 75 76  1  0
 77 76  2  0
 78 77  1  0
 79 53  1  0
 79 84  1  0
 79 80  1  0
 80 83  1  1
 80 81  1  0
 82 80  1  0
 84 87  1  0
 85 89  1  0
 85 84  1  0
 86 85  2  0
 89 88  1  0
 89 91  1  0
 91 92  1  0
 91 90  1  0
M  ISO  4  11 100  19 100  51 101  52 101
M  END
>  <TORSDO>  (83) 
F 20

>  <SCORE>  (83) 
-13.093

>  <name>  (83) 
82

>  <ligand_id>  (83) 
82

>  <original_smiles>  (83) 
[H]c1c([H])c([H])c2c(c1[H])C([H])([H])C([H])([H])C([H])([H])C2([H])N([H])C(=O)C1([H])N(C(=O)C([H])(N([H])C(=O)C([H])(N([H])C([H])([H])[H])C([H])([H])[H])C(C([H])([H])[H])(C([H])([H])[H])C([H])([H])[H])C([H])([H])c2c([H])c(OC([H])([H])c3c([H])c(C(C([H])([H])[H])(C([H])([H])[H])C([H])([H])N([H])C(=O)N4C([H])([H])C([H])([H])C([H])([H])C([H])(n5nc(-c6c([H])c([H])c(Oc7c([H])c([H])c(F)c([H])c7F)c([H])c6[H])c(C(=O)N([H])[H])c5N([H])[H])C4([H])[H])n(C([H])([H])C([H])([H])[H])c3C([H])([H])[H])c([H])c([H])c2C1([H])[H]

>  <smiles>  (83) 
[H]c1c([H])c([H])c2c(c1[H])C([H])([H])C([H])([H])C([H])([H])C2([H])N([H])C(=O)C1([H])N(C(=O)C([H])(N([H])C(=O)C([H])(N([H])C([H])([H])[H])C([H])([H])[H])C(C([H])([H])[H])(C([H])([H])[H])C([H])([H])[H])C([H])([H])c2c([H])c(OC([H])([H])c3c([H])c(C(C([H])([H])[H])(C([H])([H])[H])C([H])([H])N([H])C(=O)N4C([H])([H])C([H])([H])C([H])([H])C([H])(n5nc(-c6c([H])c([H])c(Oc7c([H])c([H])c(F)c([H])c7F)c([H])c6[H])c(C(=O)N([H])[H])c5N([H])[H])C4([H])[H])n(C([H])([H])C([H])([H])[H])c3C([H])([H])[H])c([H])c([H])c2C1([H])[H]

$$$$
83:0:0
     RDKit          3D

 92100  0  0  1  0  0  0  0  0999 V2000
  -29.4790  -21.5080   21.2880 C   0  0  0  0  0  0  0  0  0  0  0  0
  -30.1750  -20.5380   22.0580 C   0  0  0  0  0  0  0  0  0  0  0  0
  -29.4190  -20.9800   20.0190 C   0  0  0  0  0  0  0  0  0  0  0  0
  -28.9090  -22.7940   21.8130 C   0  0  0  0  0  1  0  0  0  0  0  0
  -30.4580  -20.5480   23.5330 C   0  0  0  0  0  1  0  0  0  0  0  0
  -30.5670  -19.5140   21.3300 N   0  0  0  0  0  0  0  0  0  0  0  0
  -30.1370  -19.7600   20.0720 N   0  0  0  0  0  0  0  0  0  0  0  0
  -28.6570  -21.5210   18.8070 C   0  0  0  0  0  2  0  0  0  0  0  0
  -28.8190  -23.0300   18.3650 C   0  0  0  0  0  2  0  0  0  0  0  0
  -27.7580  -24.1280   18.7810 C   0  0  0  0  0  2  0  0  0  0  0  0
  -27.6780  -25.3930   17.8460 C   0  0  0  0  0  2  0  0  0  0  0  0
  -27.6880  -26.7100   18.4600 O   0  0  0  0  0  0  0  0  0  0  0  0
  -24.5590  -31.2400   22.9970 C   0  0  0  0  0  0  0  0  0  0  0  0
  -26.5330  -27.4300   18.7380 C   0  0  0  0  0  0  0  0  0  0  0  0
  -23.0620  -30.1790   21.3350 C   0  0  0  0  0  3  0  0  0  0  0  0
  -24.2200  -28.9360   19.4250 C   0  0  0  0  0  0  0  0  0  0  0  0
  -25.5360  -30.5570   20.8010 C   0  0  0  0  0  2  0  0  0  0  0  0
  -25.4730  -29.3310   19.9070 C   0  0  0  0  0  0  0  0  0  0  0  0
  -26.6280  -28.5830   19.5620 C   0  0  0  0  0  3  0  0  0  0  0  0
  -25.2580  -27.0580   18.2580 C   0  0  0  0  0  3  0  0  0  0  0  0
  -24.1090  -27.8030   18.5970 C   0  0  0  0  0  3  0  0  0  0  0  0
  -23.0270  -29.7730   19.8360 C   0  0  0  0  0  2  0  0  0  0  0  0
  -24.4130  -30.6650   21.7670 N   0  0  0  0  0  0  0  0  0  0  0  0
  -23.5870  -31.4020   23.7490 O   0  0  0  0  0  0  0  0  0  0  0  0
  -22.5400  -28.9950   22.1830 C   0  0  0  0  0  0  0  0  0  0  0  0
  -21.2270  -28.7270   22.0980 N   0  0  0  0  0  0  0  0  0  0  0  0
  -23.3130  -28.3230   22.8720 O   0  0  0  0  0  0  0  0  0  0  0  0
  -20.6570  -29.3270   21.5190 H   0  0  0  0  0  0  0  0  0  0  0  0
  -18.0220  -27.0950   22.4430 C   0  0  0  0  0  0  0  0  0  0  0  0
  -20.5280  -27.6330   22.7730 C   0  0  0  0  0  3  0  0  0  0  0  0
  -20.8050  -26.2800   22.0760 C   0  0  0  0  0  2  0  0  0  0  0  0
  -19.7560  -25.9210   21.0220 C   0  0  0  0  0  2  0  0  0  0  0  0
  -18.3630  -25.8400   21.6550 C   0  0  0  0  0  2  0  0  0  0  0  0
  -19.0390  -27.9430   22.9550 C   0  0  0  0  0  0  0  0  0  0  0  0
  -18.6660  -29.1150   23.6500 C   0  0  0  0  0  3  0  0  0  0  0  0
  -17.3100  -29.4410   23.8370 C   0  0  0  0  0  3  0  0  0  0  0  0
  -16.3070  -28.5880   23.3430 C   0  0  0  0  0  3  0  0  0  0  0  0
  -16.6650  -27.4160   22.6520 C   0  0  0  0  0  3  0  0  0  0  0  0
  -25.9460  -31.7430   23.5070 C   0  0  0  0  0  3  0  0  0  0  0  0
  -25.7600  -33.0990   24.0390 N   0  0  0  0  0  0  0  0  0  0  0  0
  -26.0910  -34.2230   23.3880 C   0  0  0  0  0  0  0  0  0  0  0  0
  -26.6580  -34.2200   22.2920 O   0  0  0  0  0  0  0  0  0  0  0  0
  -25.2550  -33.1800   24.9090 H   0  0  0  0  0  0  0  0  0  0  0  0
  -24.4660  -36.1390   23.4180 C   0  0  0  0  0  1  0  0  0  0  0  0
  -25.7390  -35.5630   24.0610 C   0  0  0  0  0  3  0  0  0  0  0  0
  -27.9820  -36.2100   24.8140 C   0  0  0  0  0  1  0  0  0  0  0  0
  -26.8270  -36.5610   23.9930 N   0  0  0  0  0  0  0  0  0  0  0  0
  -26.4960  -37.4770   24.2840 H   0  0  0  0  0  0  0  0  0  0  0  0
  -26.5840  -30.8010   24.6020 C   0  0  1  0  0  0  0  0  0  0  0  0
  -25.6280  -30.4670   25.7700 C   0  0  0  0  0  1  0  0  0  0  0  0
  -27.0410  -29.4650   23.9690 C   0  0  0  0  0  1  0  0  0  0  0  0
  -27.8480  -31.4670   25.1960 C   0  0  0  0  0  1  0  0  0  0  0  0
  -30.3830  -18.6820   19.0860 C   0  0  0  0  0  2  0  0  0  0  0  0
  -31.5490  -17.6760   19.4400 C   0  0  0  0  0  2  0  0  0  0  0  0
  -31.9370  -15.1570   19.5410 C   0  0  0  0  0  0  0  0  0  0  0  0
  -31.7190  -12.7560   18.9920 C   0  0  0  0  0  2  0  0  0  0  0  0
  -30.7410  -12.6140   17.8060 C   0  0  0  0  0  2  0  0  0  0  0  0
  -29.2820  -12.5440   18.3020 C   0  0  0  0  0  2  0  0  0  0  0  0
  -28.9440  -13.6590   19.3270 C   0  0  0  0  0  3  0  0  0  0  0  0
  -30.0320  -13.7580   20.4200 C   0  0  0  0  0  2  0  0  0  0  0  0
  -31.3220  -13.9580   19.7450 N   0  0  0  0  0  0  0  0  0  0  0  0
  -33.0750  -15.2380   19.0720 O   0  0  0  0  0  0  0  0  0  0  0  0
  -31.1630  -16.2600   19.7030 N   0  0  0  0  0  0  0  0  0  0  0  0
  -30.2340  -16.1020   20.0670 H   0  0  0  0  0  0  0  0  0  0  0  0
  -26.6740  -14.4330   20.2530 C   0  0  0  0  0  0  0  0  0  0  0  0
  -25.5720  -13.7370   20.6730 C   0  0  0  0  0  0  0  0  0  0  0  0
  -25.9070  -12.3540   20.5500 C   0  0  0  0  0  0  0  0  0  0  0  0
  -27.6150  -13.4770   19.9010 N   0  0  0  0  0  0  0  0  0  0  0  0
  -27.1620  -12.2190   20.1400 N   0  0  0  0  0  0  0  0  0  0  0  0
  -25.0870  -11.1520   20.7440 C   0  0  0  0  0  0  0  0  0  0  0  0
  -25.3800  -10.2130   21.7590 C   0  0  0  0  0  3  0  0  0  0  0  0
  -24.5650   -9.0750   21.9380 C   0  0  0  0  0  3  0  0  0  0  0  0
  -23.4430   -8.8670   21.1010 C   0  0  0  0  0  0  0  0  0  0  0  0
  -23.1700   -9.7910   20.0770 C   0  0  0  0  0  3  0  0  0  0  0  0
  -23.9840  -10.9210   19.8980 C   0  0  0  0  0  3  0  0  0  0  0  0
  -22.6110   -7.7770   21.1840 O   0  0  0  0  0  0  0  0  0  0  0  0
  -22.2450   -7.2420   22.3930 C   0  0  0  0  0  0  0  0  0  0  0  0
  -21.5510   -7.9960   23.3630 C   0  0  0  0  0  3  0  0  0  0  0  0
  -21.1320   -7.3860   24.5630 C   0  0  0  0  0  3  0  0  0  0  0  0
  -21.4000   -6.0230   24.7910 C   0  0  0  0  0  0  0  0  0  0  0  0
  -22.0890   -5.2680   23.8240 C   0  0  0  0  0  3  0  0  0  0  0  0
  -22.5060   -5.8770   22.6270 C   0  0  0  0  0  0  0  0  0  0  0  0
  -23.1500   -5.1390   21.6900 F   0  0  0  0  0  0  0  0  0  0  0  0
  -20.9910   -5.4340   25.9390 F   0  0  0  0  0  0  0  0  0  0  0  0
  -24.2470  -14.3200   21.0710 C   0  0  0  0  0  0  0  0  0  0  0  0
  -23.5340  -13.6560   21.9740 N   0  0  0  0  0  0  0  0  0  0  0  0
  -23.8590  -15.3960   20.6190 O   0  0  0  0  0  0  0  0  0  0  0  0
  -23.8630  -12.7840   22.3610 H   0  0  0  0  0  0  0  0  0  0  0  0
  -22.6450  -14.0260   22.2830 H   0  0  0  0  0  0  0  0  0  0  0  0
  -26.9470  -15.7900   20.1190 N   0  0  0  0  0  0  0  0  0  0  0  0
  -26.2530  -16.4990   20.3280 H   0  0  0  0  0  0  0  0  0  0  0  0
  -27.8060  -16.1730   19.7480 H   0  0  0  0  0  0  0  0  0  0  0  0
  1  4  1  0
  1  2  1  0
  2  5  1  0
  3  7  1  0
  3  1  2  0
  6  2  2  0
  7  6  1  0
  8  3  1  0
  9 10  1  0
  9  8  1  0
 11 12  1  0
 11 10  1  0
 12 14  1  0
 13 24  2  0
 14 19  1  0
 15 23  1  0
 15 25  1  0
 16 22  1  0
 16 18  1  0
 17 23  1  0
 18 17  1  0
 19 18  2  0
 20 21  1  0
 20 14  2  0
 21 16  2  0
 22 15  1  0
 23 13  1  0
 25 27  2  0
 26 25  1  0
 28 26  1  0
 29 38  2  0
 29 34  1  0
 30 26  1  0
 30 34  1  0
 31 30  1  0
 32 33  1  0
 32 31  1  0
 33 29  1  0
 34 35  2  0
 35 36  1  0
 37 36  2  0
 38 37  1  0
 39 13  1  0
 39 40  1  0
 39 49  1  0
 40 43  1  0
 41 40  1  0
 41 45  1  0
 42 41  2  0
 45 44  1  0
 47 45  1  0
 47 48  1  0
 47 46  1  0
 49 52  1  1
 49 50  1  0
 51 49  1  0
 53 54  1  0
 53  7  1  0
 54 63  1  0
 55 63  1  0
 55 61  1  0
 56 61  1  0
 57 58  1  0
 57 56  1  0
 59 58  1  0
 59 68  1  0
 59 60  1  0
 61 60  1  0
 62 55  2  0
 63 64  1  0
 65 66  2  0
 66 85  1  0
 67 66  1  0
 67 70  1  0
 68 69  1  0
 68 65  1  0
 69 67  2  0
 70 71  1  0
 71 72  2  0
 73 76  1  0
 73 72  1  0
 74 73  2  0
 75 74  1  0
 75 70  2  0
 76 77  1  0
 77 82  2  0
 77 78  1  0
 78 79  2  0
 79 80  1  0
 80 84  1  0
 81 80  2  0
 82 81  1  0
 83 82  1  0
 85 86  1  0
 86 89  1  0
 86 88  1  0
 87 85  2  0
 90 65  1  0
 90 91  1  0
 92 90  1  0
M  ISO  4  11 101  12 101  55 100  63 100
M  END
>  <TORSDO>  (84) 
F 22

>  <SCORE>  (84) 
-9.544

>  <name>  (84) 
83

>  <ligand_id>  (84) 
83

>  <original_smiles>  (84) 
[H]c1c([H])c([H])c2c(c1[H])C([H])([H])C([H])([H])C([H])([H])C2([H])N([H])C(=O)C1([H])N(C(=O)C([H])(N([H])C(=O)C([H])(N([H])C([H])([H])[H])C([H])([H])[H])C(C([H])([H])[H])(C([H])([H])[H])C([H])([H])[H])C([H])([H])c2c([H])c(OC([H])([H])C([H])([H])C([H])([H])C([H])([H])c3c(C([H])([H])[H])c(C([H])([H])[H])nn3C([H])([H])C([H])([H])N([H])C(=O)N3C([H])([H])C([H])([H])C([H])([H])C([H])(n4nc(-c5c([H])c([H])c(Oc6c([H])c([H])c(F)c([H])c6F)c([H])c5[H])c(C(=O)N([H])[H])c4N([H])[H])C3([H])[H])c([H])c([H])c2C1([H])[H]

>  <smiles>  (84) 
[H]c1c([H])c([H])c2c(c1[H])C([H])([H])C([H])([H])C([H])([H])C2([H])N([H])C(=O)C1([H])N(C(=O)C([H])(N([H])C(=O)C([H])(N([H])C([H])([H])[H])C([H])([H])[H])C(C([H])([H])[H])(C([H])([H])[H])C([H])([H])[H])C([H])([H])c2c([H])c(OC([H])([H])C([H])([H])C([H])([H])C([H])([H])c3c(C([H])([H])[H])c(C([H])([H])[H])nn3C([H])([H])C([H])([H])N([H])C(=O)N3C([H])([H])C([H])([H])C([H])([H])C([H])(n4nc(-c5c([H])c([H])c(Oc6c([H])c([H])c(F)c([H])c6F)c([H])c5[H])c(C(=O)N([H])[H])c4N([H])[H])C3([H])[H])c([H])c([H])c2C1([H])[H]

$$$$
84:0:0
     RDKit          3D

 94102  0  0  1  0  0  0  0  0999 V2000
  -30.4470  -19.9170   22.4640 C   0  0  0  0  0  3  0  0  0  0  0  0
  -30.6820  -20.7420   23.5760 C   0  0  0  0  0  0  0  0  0  0  0  0
  -29.9530  -20.4490   21.2530 C   0  0  0  0  0  0  0  0  0  0  0  0
  -30.4230  -22.1150   23.4470 C   0  0  0  0  0  0  0  0  0  0  0  0
  -29.7540  -21.8760   21.2060 C   0  0  0  0  0  0  0  0  0  0  0  0
  -31.1710  -20.1320   24.8800 C   0  0  0  0  0  1  0  0  0  0  0  0
  -29.9690  -22.6440   22.2980 N   0  0  0  0  0  0  0  0  0  0  0  0
  -29.2940  -23.5790   25.2050 C   0  0  0  0  0  1  0  0  0  0  0  0
  -30.6170  -23.1060   24.5870 C   0  0  0  0  0  2  0  0  0  0  0  0
  -29.5400  -19.4610   20.1280 C   0  0  0  0  0  2  0  0  0  0  0  0
  -30.3140  -18.0940   19.9010 C   0  0  0  0  0  2  0  0  0  0  0  0
  -30.2530  -16.9520   20.9780 C   0  0  0  0  0  2  0  0  0  0  0  0
  -30.6790  -14.5730   20.0420 C   0  0  0  0  0  0  0  0  0  0  0  0
  -30.3790  -12.3780   18.9260 C   0  0  0  0  0  2  0  0  0  0  0  0
  -29.3580  -12.5340   17.7780 C   0  0  0  0  0  2  0  0  0  0  0  0
  -27.9100  -12.3970   18.2950 C   0  0  0  0  0  2  0  0  0  0  0  0
  -27.6410  -13.2540   19.5590 C   0  0  0  0  0  3  0  0  0  0  0  0
  -28.7580  -13.0470   20.6040 C   0  0  0  0  0  2  0  0  0  0  0  0
  -30.0380  -13.3740   19.9540 N   0  0  0  0  0  0  0  0  0  0  0  0
  -31.8140  -14.7610   19.5920 O   0  0  0  0  0  0  0  0  0  0  0  0
  -29.9140  -15.5800   20.5270 N   0  0  0  0  0  0  0  0  0  0  0  0
  -28.9710  -15.2910   20.7450 H   0  0  0  0  0  0  0  0  0  0  0  0
  -25.3110  -13.8960   20.4380 C   0  0  0  0  0  0  0  0  0  0  0  0
  -24.2530  -13.1370   20.8640 C   0  0  0  0  0  0  0  0  0  0  0  0
  -24.6830  -11.7770   20.7780 C   0  0  0  0  0  0  0  0  0  0  0  0
  -26.3190  -12.9970   20.1220 N   0  0  0  0  0  0  0  0  0  0  0  0
  -25.9490  -11.7180   20.3850 N   0  0  0  0  0  0  0  0  0  0  0  0
  -23.9470  -10.5250   20.9930 C   0  0  0  0  0  0  0  0  0  0  0  0
  -24.4040   -9.5430   21.8990 C   0  0  0  0  0  3  0  0  0  0  0  0
  -23.6670   -8.3560   22.0980 C   0  0  0  0  0  3  0  0  0  0  0  0
  -22.4590   -8.1430   21.3950 C   0  0  0  0  0  0  0  0  0  0  0  0
  -22.0190   -9.1130   20.4770 C   0  0  0  0  0  3  0  0  0  0  0  0
  -22.7570  -10.2930   20.2750 C   0  0  0  0  0  3  0  0  0  0  0  0
  -21.6910   -7.0100   21.5060 O   0  0  0  0  0  0  0  0  0  0  0  0
  -21.6680   -6.2660   22.6590 C   0  0  0  0  0  0  0  0  0  0  0  0
  -21.2630   -6.8190   23.8940 C   0  0  0  0  0  3  0  0  0  0  0  0
  -21.1880   -6.0030   25.0390 C   0  0  0  0  0  3  0  0  0  0  0  0
  -21.5070   -4.6330   24.9520 C   0  0  0  0  0  0  0  0  0  0  0  0
  -21.9040   -4.0810   23.7210 C   0  0  0  0  0  3  0  0  0  0  0  0
  -21.9820   -4.8950   22.5780 C   0  0  0  0  0  0  0  0  0  0  0  0
  -22.3450   -4.3520   21.3910 F   0  0  0  0  0  0  0  0  0  0  0  0
  -21.4270   -3.8470   26.0500 F   0  0  0  0  0  0  0  0  0  0  0  0
  -22.8860  -13.6350   21.2340 C   0  0  0  0  0  0  0  0  0  0  0  0
  -22.2000  -12.9370   22.1320 N   0  0  0  0  0  0  0  0  0  0  0  0
  -22.4360  -14.6780   20.7600 O   0  0  0  0  0  0  0  0  0  0  0  0
  -22.5770  -12.0940   22.5380 H   0  0  0  0  0  0  0  0  0  0  0  0
  -21.2840  -13.2520   22.4200 H   0  0  0  0  0  0  0  0  0  0  0  0
  -25.4900  -15.2660   20.2740 N   0  0  0  0  0  0  0  0  0  0  0  0
  -24.7430  -15.9290   20.4370 H   0  0  0  0  0  0  0  0  0  0  0  0
  -26.3160  -15.6930   19.8720 H   0  0  0  0  0  0  0  0  0  0  0  0
  -29.1440  -22.6900   20.0340 C   0  0  0  0  0  2  0  0  0  0  0  0
  -29.4360  -24.2510   20.0200 C   0  0  0  0  0  3  0  0  0  0  0  0
  -28.3980  -25.1380   19.2660 C   0  0  0  0  0  3  0  0  0  0  0  0
  -28.5220  -26.5780   19.4910 O   0  0  0  0  0  0  0  0  0  0  0  0
  -24.6600  -31.4770   23.0130 C   0  0  0  0  0  0  0  0  0  0  0  0
  -27.3570  -27.3430   19.5130 C   0  0  0  0  0  0  0  0  0  0  0  0
  -23.4670  -30.1890   21.2760 C   0  0  0  0  0  3  0  0  0  0  0  0
  -24.9340  -28.8290   19.6910 C   0  0  0  0  0  0  0  0  0  0  0  0
  -25.9830  -30.6240   21.0730 C   0  0  0  0  0  2  0  0  0  0  0  0
  -26.0940  -29.3130   20.3090 C   0  0  0  0  0  0  0  0  0  0  0  0
  -27.3070  -28.5790   20.2190 C   0  0  0  0  0  3  0  0  0  0  0  0
  -26.1780  -26.9100   18.8620 C   0  0  0  0  0  3  0  0  0  0  0  0
  -24.9750  -27.6290   18.9640 C   0  0  0  0  0  3  0  0  0  0  0  0
  -23.6720  -29.6490   19.8370 C   0  0  0  0  0  2  0  0  0  0  0  0
  -24.7230  -30.7740   21.8460 N   0  0  0  0  0  0  0  0  0  0  0  0
  -23.5800  -31.6710   23.5890 O   0  0  0  0  0  0  0  0  0  0  0  0
  -22.8600  -29.0670   22.1520 C   0  0  0  0  0  0  0  0  0  0  0  0
  -21.5340  -28.8740   22.0500 N   0  0  0  0  0  0  0  0  0  0  0  0
  -23.5790  -28.3830   22.8830 O   0  0  0  0  0  0  0  0  0  0  0  0
  -21.0140  -29.4900   21.4380 H   0  0  0  0  0  0  0  0  0  0  0  0
  -18.1930  -27.5870   22.5410 C   0  0  0  0  0  0  0  0  0  0  0  0
  -20.7560  -27.8520   22.7490 C   0  0  0  0  0  3  0  0  0  0  0  0
  -20.8530  -26.4900   22.0250 C   0  0  0  0  0  2  0  0  0  0  0  0
  -19.7180  -26.2540   21.0230 C   0  0  0  0  0  2  0  0  0  0  0  0
  -18.3600  -26.3140   21.7270 C   0  0  0  0  0  2  0  0  0  0  0  0
  -19.3180  -28.3170   23.0070 C   0  0  0  0  0  0  0  0  0  0  0  0
  -19.1060  -29.5120   23.7280 C   0  0  0  0  0  3  0  0  0  0  0  0
  -17.8020  -29.9740   23.9900 C   0  0  0  0  0  3  0  0  0  0  0  0
  -16.6930  -29.2380   23.5410 C   0  0  0  0  0  3  0  0  0  0  0  0
  -16.8900  -28.0450   22.8210 C   0  0  0  0  0  3  0  0  0  0  0  0
  -25.9360  -32.0920   23.6680 C   0  0  0  0  0  3  0  0  0  0  0  0
  -25.5940  -33.4450   24.1260 N   0  0  0  0  0  0  0  0  0  0  0  0
  -25.8980  -34.5710   23.4680 C   0  0  0  0  0  0  0  0  0  0  0  0
  -26.5680  -34.5800   22.4320 O   0  0  0  0  0  0  0  0  0  0  0  0
  -24.9980  -33.5130   24.9380 H   0  0  0  0  0  0  0  0  0  0  0  0
  -24.1290  -36.3470   23.2740 C   0  0  0  0  0  1  0  0  0  0  0  0
  -25.3770  -35.8980   24.0510 C   0  0  0  0  0  3  0  0  0  0  0  0
  -27.4840  -36.7550   24.9760 C   0  0  0  0  0  1  0  0  0  0  0  0
  -26.3840  -36.9810   24.0420 N   0  0  0  0  0  0  0  0  0  0  0  0
  -25.9560  -37.8750   24.2690 H   0  0  0  0  0  0  0  0  0  0  0  0
  -26.5000  -31.2270   24.8610 C   0  0  1  0  0  0  0  0  0  0  0  0
  -25.4400  -30.8640   25.9270 C   0  0  0  0  0  1  0  0  0  0  0  0
  -27.1070  -29.9070   24.3320 C   0  0  0  0  0  1  0  0  0  0  0  0
  -27.6470  -31.9910   25.5640 C   0  0  0  0  0  1  0  0  0  0  0  0
  1  2  1  0
  2  6  1  0
  3  1  2  0
  4  2  2  0
  4  9  1  0
  5  3  1  0
  5  7  2  0
  7  4  1  0
  9  8  1  0
 10  3  1  0
 11 10  1  0
 11 12  1  0
 13 21  1  0
 14 19  1  0
 15 16  1  0
 15 14  1  0
 17 16  1  0
 17 26  1  0
 17 18  1  0
 19 13  1  0
 19 18  1  0
 20 13  2  0
 21 22  1  0
 21 12  1  0
 23 24  2  0
 24 43  1  0
 25 24  1  0
 25 28  1  0
 26 27  1  0
 26 23  1  0
 27 25  2  0
 28 29  1  0
 29 30  2  0
 31 34  1  0
 31 30  1  0
 32 31  2  0
 33 32  1  0
 33 28  2  0
 34 35  1  0
 35 36  1  0
 36 37  2  0
 38 37  1  0
 38 42  1  0
 39 38  2  0
 40 35  2  0
 40 39  1  0
 41 40  1  0
 43 44  1  0
 44 47  1  0
 44 46  1  0
 45 43  2  0
 48 49  1  0
 48 23  1  0
 50 48  1  0
 51  5  1  0
 52 51  1  0
 53 54  1  0
 53 52  2  0
 54 56  1  0
 55 66  2  0
 56 61  1  0
 57 65  1  0
 57 67  1  0
 58 64  1  0
 58 60  1  0
 59 65  1  0
 60 59  1  0
 61 60  2  0
 62 63  1  0
 62 56  2  0
 63 58  2  0
 64 57  1  0
 65 55  1  0
 67 69  2  0
 68 67  1  0
 70 68  1  0
 71 80  2  0
 71 76  1  0
 72 68  1  0
 72 76  1  0
 73 72  1  0
 74 75  1  0
 74 73  1  0
 75 71  1  0
 76 77  2  0
 77 78  1  0
 79 78  2  0
 80 79  1  0
 81 55  1  0
 81 82  1  0
 81 91  1  0
 82 85  1  0
 83 87  1  0
 83 82  1  0
 84 83  2  0
 87 86  1  0
 89 87  1  0
 89 90  1  0
 89 88  1  0
 91 94  1  1
 91 92  1  0
 93 91  1  0
M  ISO  4  13 100  21 100  53 101  54 101
M  END
>  <TORSDO>  (85) 
F 23

>  <SCORE>  (85) 
-9.131

>  <name>  (85) 
84

>  <ligand_id>  (85) 
84

>  <original_smiles>  (85) 
[H]c1c([H])c([H])c2c(c1[H])C([H])([H])C([H])([H])C([H])([H])C2([H])N([H])C(=O)C1([H])N(C(=O)C([H])(N([H])C(=O)C([H])(N([H])C([H])([H])[H])C([H])([H])[H])C(C([H])([H])[H])(C([H])([H])[H])C([H])([H])[H])C([H])([H])c2c([H])c(OC([H])([H])C([H])([H])C([H])([H])c3nc(C([H])([H])C([H])([H])[H])c(C([H])([H])[H])c([H])c3C([H])([H])C([H])([H])C([H])([H])N([H])C(=O)N3C([H])([H])C([H])([H])C([H])([H])C([H])(n4nc(-c5c([H])c([H])c(Oc6c([H])c([H])c(F)c([H])c6F)c([H])c5[H])c(C(=O)N([H])[H])c4N([H])[H])C3([H])[H])c([H])c([H])c2C1([H])[H]

>  <smiles>  (85) 
[H]c1c([H])c([H])c2c(c1[H])C([H])([H])C([H])([H])C([H])([H])C2([H])N([H])C(=O)C1([H])N(C(=O)C([H])(N([H])C(=O)C([H])(N([H])C([H])([H])[H])C([H])([H])[H])C(C([H])([H])[H])(C([H])([H])[H])C([H])([H])[H])C([H])([H])c2c([H])c(OC([H])([H])C([H])([H])C([H])([H])c3nc(C([H])([H])C([H])([H])[H])c(C([H])([H])[H])c([H])c3C([H])([H])C([H])([H])C([H])([H])N([H])C(=O)N3C([H])([H])C([H])([H])C([H])([H])C([H])(n4nc(-c5c([H])c([H])c(Oc6c([H])c([H])c(F)c([H])c6F)c([H])c5[H])c(C(=O)N([H])[H])c4N([H])[H])C3([H])[H])c([H])c([H])c2C1([H])[H]

$$$$
85:0:0
     RDKit          3D

 92100  0  0  1  0  0  0  0  0999 V2000
  -30.2060  -22.7540   18.0670 C   0  0  0  0  0  3  0  0  0  0  0  0
  -30.9150  -22.2570   16.9660 C   0  0  0  0  0  3  0  0  0  0  0  0
  -30.0750  -21.9700   19.2360 C   0  0  0  0  0  0  0  0  0  0  0  0
  -31.4870  -20.9840   17.0560 C   0  0  0  0  0  0  0  0  0  0  0  0
  -30.6130  -20.6360   19.1990 C   0  0  0  0  0  0  0  0  0  0  0  0
  -32.3310  -20.4350   15.9240 C   0  0  0  0  0  1  0  0  0  0  0  0
  -31.3360  -20.1990   18.1390 N   0  0  0  0  0  0  0  0  0  0  0  0
  -29.3890  -22.6180   20.4600 C   0  0  0  0  0  2  0  0  0  0  0  0
  -29.5030  -24.1880   20.6030 C   0  0  0  0  0  2  0  0  0  0  0  0
  -28.3140  -25.0430   20.0620 C   0  0  0  0  0  2  0  0  0  0  0  0
  -28.4370  -26.4750   20.2930 O   0  0  0  0  0  0  0  0  0  0  0  0
  -24.5510  -31.7620   23.1540 C   0  0  0  0  0  0  0  0  0  0  0  0
  -27.2820  -27.2460   20.2080 C   0  0  0  0  0  0  0  0  0  0  0  0
  -23.4010  -30.3520   21.4830 C   0  0  0  0  0  3  0  0  0  0  0  0
  -24.8980  -28.7990   20.1190 C   0  0  0  0  0  0  0  0  0  0  0  0
  -25.9380  -30.6880   21.3760 C   0  0  0  0  0  2  0  0  0  0  0  0
  -26.0410  -29.3110   20.7460 C   0  0  0  0  0  0  0  0  0  0  0  0
  -27.2340  -28.5440   20.7840 C   0  0  0  0  0  3  0  0  0  0  0  0
  -26.1150  -26.7680   19.5630 C   0  0  0  0  0  3  0  0  0  0  0  0
  -24.9330  -27.5300   19.5220 C   0  0  0  0  0  3  0  0  0  0  0  0
  -23.6580  -29.6660   20.1160 C   0  0  0  0  0  2  0  0  0  0  0  0
  -24.6470  -30.9500   22.0620 N   0  0  0  0  0  0  0  0  0  0  0  0
  -23.4520  -32.0410   23.6520 O   0  0  0  0  0  0  0  0  0  0  0  0
  -22.7110  -29.3390   22.4270 C   0  0  0  0  0  0  0  0  0  0  0  0
  -21.3830  -29.1940   22.2850 N   0  0  0  0  0  0  0  0  0  0  0  0
  -23.3680  -28.6870   23.2420 O   0  0  0  0  0  0  0  0  0  0  0  0
  -20.9150  -29.7670   21.5970 H   0  0  0  0  0  0  0  0  0  0  0  0
  -17.9650  -28.1270   22.7770 C   0  0  0  0  0  0  0  0  0  0  0  0
  -20.5340  -28.2730   23.0390 C   0  0  0  0  0  3  0  0  0  0  0  0
  -20.5740  -26.8530   22.4260 C   0  0  0  0  0  2  0  0  0  0  0  0
  -19.4530  -26.6020   21.4120 C   0  0  0  0  0  2  0  0  0  0  0  0
  -18.0820  -26.7880   22.0690 C   0  0  0  0  0  2  0  0  0  0  0  0
  -19.1170  -28.8310   23.2180 C   0  0  0  0  0  0  0  0  0  0  0  0
  -18.9550  -30.0880   23.8400 C   0  0  0  0  0  3  0  0  0  0  0  0
  -17.6730  -30.6390   24.0280 C   0  0  0  0  0  3  0  0  0  0  0  0
  -16.5360  -29.9300   23.6050 C   0  0  0  0  0  3  0  0  0  0  0  0
  -16.6820  -28.6770   22.9850 C   0  0  0  0  0  3  0  0  0  0  0  0
  -25.8150  -32.3960   23.8140 C   0  0  0  0  0  3  0  0  0  0  0  0
  -25.4830  -33.7850   24.1590 N   0  0  0  0  0  0  0  0  0  0  0  0
  -25.8150  -34.8520   23.4210 C   0  0  0  0  0  0  0  0  0  0  0  0
  -26.5030  -34.7730   22.4000 O   0  0  0  0  0  0  0  0  0  0  0  0
  -24.8740  -33.9200   24.9530 H   0  0  0  0  0  0  0  0  0  0  0  0
  -24.0720  -36.6290   23.0640 C   0  0  0  0  0  1  0  0  0  0  0  0
  -25.3030  -36.2280   23.8910 C   0  0  0  0  0  3  0  0  0  0  0  0
  -27.4090  -37.1270   24.7770 C   0  0  0  0  0  1  0  0  0  0  0  0
  -26.3240  -37.2940   23.8130 N   0  0  0  0  0  0  0  0  0  0  0  0
  -25.9040  -38.2070   23.9650 H   0  0  0  0  0  0  0  0  0  0  0  0
  -26.3120  -31.6080   25.0870 C   0  0  1  0  0  0  0  0  0  0  0  0
  -25.1990  -31.3390   26.1260 C   0  0  0  0  0  1  0  0  0  0  0  0
  -26.9210  -30.2460   24.6830 C   0  0  0  0  0  1  0  0  0  0  0  0
  -27.4390  -32.4030   25.7880 C   0  0  0  0  0  1  0  0  0  0  0  0
  -30.5730  -19.5940   20.3390 C   0  0  0  0  0  2  0  0  0  0  0  0
  -30.0990  -18.1350   19.9610 C   0  0  0  0  0  2  0  0  0  0  0  0
  -31.0250  -16.9720   20.4630 C   0  0  0  0  0  2  0  0  0  0  0  0
  -30.9760  -14.4660   20.0810 C   0  0  0  0  0  0  0  0  0  0  0  0
  -30.6200  -12.2860   18.9330 C   0  0  0  0  0  2  0  0  0  0  0  0
  -29.6250  -12.4560   17.7630 C   0  0  0  0  0  2  0  0  0  0  0  0
  -28.1640  -12.3260   18.2470 C   0  0  0  0  0  2  0  0  0  0  0  0
  -27.8850  -13.1550   19.5300 C   0  0  0  0  0  3  0  0  0  0  0  0
  -28.9840  -12.8780   20.5730 C   0  0  0  0  0  2  0  0  0  0  0  0
  -30.2690  -13.2830   19.9730 N   0  0  0  0  0  0  0  0  0  0  0  0
  -32.0750  -14.5580   19.5260 O   0  0  0  0  0  0  0  0  0  0  0  0
  -29.4440  -15.6390   21.7190 C   0  0  0  0  0  1  0  0  0  0  0  0
  -30.3920  -15.6130   20.5970 N   0  0  0  0  0  0  0  0  0  0  0  0
  -25.5330  -13.7980   20.3470 C   0  0  0  0  0  0  0  0  0  0  0  0
  -24.4680  -13.0430   20.7570 C   0  0  0  0  0  0  0  0  0  0  0  0
  -24.9020  -11.6840   20.6970 C   0  0  0  0  0  0  0  0  0  0  0  0
  -26.5510  -12.9000   20.0640 N   0  0  0  0  0  0  0  0  0  0  0  0
  -26.1750  -11.6210   20.3290 N   0  0  0  0  0  0  0  0  0  0  0  0
  -24.1630  -10.4330   20.9120 C   0  0  0  0  0  0  0  0  0  0  0  0
  -24.5860   -9.4780   21.8630 C   0  0  0  0  0  3  0  0  0  0  0  0
  -23.8480   -8.2910   22.0640 C   0  0  0  0  0  3  0  0  0  0  0  0
  -22.6740   -8.0510   21.3140 C   0  0  0  0  0  0  0  0  0  0  0  0
  -22.2680   -8.9940   20.3520 C   0  0  0  0  0  3  0  0  0  0  0  0
  -23.0060  -10.1730   20.1500 C   0  0  0  0  0  3  0  0  0  0  0  0
  -21.9080   -6.9160   21.4220 O   0  0  0  0  0  0  0  0  0  0  0  0
  -21.8120   -6.2230   22.6030 C   0  0  0  0  0  0  0  0  0  0  0  0
  -21.3320   -6.8270   23.7850 C   0  0  0  0  0  3  0  0  0  0  0  0
  -21.1840   -6.0590   24.9570 C   0  0  0  0  0  3  0  0  0  0  0  0
  -21.5070   -4.6890   24.9470 C   0  0  0  0  0  0  0  0  0  0  0  0
  -21.9800   -4.0850   23.7700 C   0  0  0  0  0  3  0  0  0  0  0  0
  -22.1300   -4.8500   22.5990 C   0  0  0  0  0  0  0  0  0  0  0  0
  -22.5670   -4.2580   21.4620 F   0  0  0  0  0  0  0  0  0  0  0  0
  -21.3590   -3.9490   26.0710 F   0  0  0  0  0  0  0  0  0  0  0  0
  -23.0920  -13.5440   21.0930 C   0  0  0  0  0  0  0  0  0  0  0  0
  -22.3900  -12.8590   21.9890 N   0  0  0  0  0  0  0  0  0  0  0  0
  -22.6480  -14.5780   20.5980 O   0  0  0  0  0  0  0  0  0  0  0  0
  -22.7570  -12.0200   22.4130 H   0  0  0  0  0  0  0  0  0  0  0  0
  -21.4680  -13.1770   22.2530 H   0  0  0  0  0  0  0  0  0  0  0  0
  -25.7160  -15.1670   20.1670 N   0  0  0  0  0  0  0  0  0  0  0  0
  -24.9740  -15.8410   20.3110 H   0  0  0  0  0  0  0  0  0  0  0  0
  -26.5660  -15.5820   19.8050 H   0  0  0  0  0  0  0  0  0  0  0  0
  1  3  1  0
  2  4  1  0
  2  1  2  0
  3  8  1  0
  4  7  2  0
  5  3  2  0
  5 52  1  0
  6  4  1  0
  7  5  1  0
  8  9  1  0
 10 11  1  0
 10  9  1  0
 12 23  2  0
 13 11  1  0
 13 18  1  0
 14 22  1  0
 14 24  1  0
 15 17  1  0
 16 22  1  0
 17 18  2  0
 17 16  1  0
 19 13  2  0
 20 19  1  0
 20 15  2  0
 21 15  1  0
 21 14  1  0
 22 12  1  0
 24 26  2  0
 25 24  1  0
 27 25  1  0
 28 37  2  0
 28 33  1  0
 29 25  1  0
 29 33  1  0
 30 29  1  0
 31 32  1  0
 31 30  1  0
 32 28  1  0
 33 34  2  0
 34 35  1  0
 36 35  2  0
 37 36  1  0
 38 12  1  0
 38 39  1  0
 38 48  1  0
 39 42  1  0
 40 44  1  0
 40 39  1  0
 41 40  2  0
 44 43  1  0
 46 44  1  0
 46 47  1  0
 46 45  1  0
 48 51  1  1
 48 49  1  0
 50 48  1  0
 53 52  1  0
 53 54  1  0
 54 64  1  0
 55 64  1  0
 56 61  1  0
 57 58  1  0
 57 56  1  0
 59 58  1  0
 59 68  1  0
 59 60  1  0
 61 55  1  0
 61 60  1  0
 62 55  2  0
 64 63  1  0
 65 66  2  0
 66 85  1  0
 67 66  1  0
 67 70  1  0
 68 69  1  0
 68 65  1  0
 69 67  2  0
 70 71  1  0
 71 72  2  0
 73 76  1  0
 73 72  1  0
 74 73  2  0
 75 74  1  0
 75 70  2  0
 76 77  1  0
 77 78  1  0
 78 79  2  0
 80 79  1  0
 80 84  1  0
 81 80  2  0
 82 77  2  0
 82 81  1  0
 83 82  1  0
 85 86  1  0
 86 89  1  0
 86 88  1  0
 87 85  2  0
 90 91  1  0
 90 65  1  0
 92 90  1  0
M  ISO  4  10 101  11 101  55 100  64 100
M  END
>  <TORSDO>  (86) 
F 22

>  <SCORE>  (86) 
-12.443

>  <name>  (86) 
85

>  <ligand_id>  (86) 
85

>  <original_smiles>  (86) 
[H]c1c(C([H])([H])[H])nc(C([H])([H])C([H])([H])C([H])([H])N(C(=O)N2C([H])([H])C([H])([H])C([H])([H])C([H])(n3nc(-c4c([H])c([H])c(Oc5c([H])c([H])c(F)c([H])c5F)c([H])c4[H])c(C(=O)N([H])[H])c3N([H])[H])C2([H])[H])C([H])([H])[H])c(C([H])([H])C([H])([H])C([H])([H])Oc2c([H])c([H])c3c(c2[H])C([H])([H])N(C(=O)C([H])(N([H])C(=O)C([H])(N([H])C([H])([H])[H])C([H])([H])[H])C(C([H])([H])[H])(C([H])([H])[H])C([H])([H])[H])C([H])(C(=O)N([H])C2([H])c4c([H])c([H])c([H])c([H])c4C([H])([H])C([H])([H])C2([H])[H])C3([H])[H])c1[H]

>  <smiles>  (86) 
[H]c1c(C([H])([H])[H])nc(C([H])([H])C([H])([H])C([H])([H])N(C(=O)N2C([H])([H])C([H])([H])C([H])([H])C([H])(n3nc(-c4c([H])c([H])c(Oc5c([H])c([H])c(F)c([H])c5F)c([H])c4[H])c(C(=O)N([H])[H])c3N([H])[H])C2([H])[H])C([H])([H])[H])c(C([H])([H])C([H])([H])C([H])([H])Oc2c([H])c([H])c3c(c2[H])C([H])([H])N(C(=O)C([H])(N([H])C(=O)C([H])(N([H])C([H])([H])[H])C([H])([H])[H])C(C([H])([H])[H])(C([H])([H])[H])C([H])([H])[H])C([H])(C(=O)N([H])C2([H])c4c([H])c([H])c([H])c([H])c4C([H])([H])C([H])([H])C2([H])[H])C3([H])[H])c1[H]

$$$$
86:0:0
     RDKit          3D

 91 99  0  0  1  0  0  0  0  0999 V2000
  -29.6700  -20.7730   19.3380 C   0  0  0  0  0  3  0  0  0  0  0  0
  -29.8350  -19.5950   20.1460 C   0  0  0  0  0  0  0  0  0  0  0  0
  -28.9880  -21.4340   21.2940 C   0  0  0  0  0  3  0  0  0  0  0  0
  -28.4750  -22.2240   22.4570 C   0  0  0  0  0  1  0  0  0  0  0  0
  -29.2140  -21.9320   20.0530 N   0  0  0  0  0  0  0  0  0  0  0  0
  -29.3620  -20.1090   21.3450 N   0  0  0  0  0  0  0  0  0  0  0  0
  -29.3480  -19.5680   22.2030 H   0  0  0  0  0  0  0  0  0  0  0  0
  -29.2290  -23.5200   19.6410 C   0  0  0  0  0  3  0  0  0  0  0  0
  -28.0470  -24.7450   19.7380 C   0  0  0  0  0  3  0  0  0  0  0  0
  -28.2700  -26.3100   19.6340 O   0  0  0  0  0  0  0  0  0  0  0  0
  -24.5930  -31.7740   23.0510 C   0  0  0  0  0  0  0  0  0  0  0  0
  -27.1940  -27.2860   19.6730 C   0  0  0  0  0  0  0  0  0  0  0  0
  -23.3850  -30.4430   21.3670 C   0  0  0  0  0  3  0  0  0  0  0  0
  -24.8310  -28.9960   19.8120 C   0  0  0  0  0  0  0  0  0  0  0  0
  -25.9300  -30.7830   21.1470 C   0  0  0  0  0  2  0  0  0  0  0  0
  -26.0200  -29.4320   20.4090 C   0  0  0  0  0  0  0  0  0  0  0  0
  -27.2030  -28.5960   20.3190 C   0  0  0  0  0  3  0  0  0  0  0  0
  -25.9720  -26.9650   19.0440 C   0  0  0  0  0  3  0  0  0  0  0  0
  -24.8210  -27.7790   19.1160 C   0  0  0  0  0  3  0  0  0  0  0  0
  -23.5830  -29.8580   19.9450 C   0  0  0  0  0  2  0  0  0  0  0  0
  -24.6570  -31.0210   21.9090 N   0  0  0  0  0  0  0  0  0  0  0  0
  -23.5140  -31.9960   23.6230 O   0  0  0  0  0  0  0  0  0  0  0  0
  -22.7630  -29.3600   22.2850 C   0  0  0  0  0  0  0  0  0  0  0  0
  -21.4400  -29.1430   22.1700 N   0  0  0  0  0  0  0  0  0  0  0  0
  -23.4740  -28.7170   23.0630 O   0  0  0  0  0  0  0  0  0  0  0  0
  -20.9240  -29.7130   21.5150 H   0  0  0  0  0  0  0  0  0  0  0  0
  -18.1180  -27.7800   22.6570 C   0  0  0  0  0  0  0  0  0  0  0  0
  -20.6680  -28.1350   22.9030 C   0  0  0  0  0  3  0  0  0  0  0  0
  -20.8180  -26.7410   22.2530 C   0  0  0  0  0  2  0  0  0  0  0  0
  -19.7130  -26.4240   21.2390 C   0  0  0  0  0  2  0  0  0  0  0  0
  -18.3380  -26.4770   21.9070 C   0  0  0  0  0  2  0  0  0  0  0  0
  -19.2100  -28.5660   23.1100 C   0  0  0  0  0  0  0  0  0  0  0  0
  -18.9470  -29.7850   23.7720 C   0  0  0  0  0  3  0  0  0  0  0  0
  -17.6260  -30.2210   23.9820 C   0  0  0  0  0  3  0  0  0  0  0  0
  -16.5480  -29.4310   23.5460 C   0  0  0  0  0  3  0  0  0  0  0  0
  -16.7950  -28.2120   22.8910 C   0  0  0  0  0  3  0  0  0  0  0  0
  -25.8670  -32.4090   23.6850 C   0  0  0  0  0  3  0  0  0  0  0  0
  -26.4410  -31.5770   24.8970 C   0  0  1  0  0  0  0  0  0  0  0  0
  -25.3810  -31.2450   25.9760 C   0  0  0  0  0  1  0  0  0  0  0  0
  -27.0520  -30.2420   24.4110 C   0  0  0  0  0  1  0  0  0  0  0  0
  -27.5910  -32.3610   25.5730 C   0  0  0  0  0  1  0  0  0  0  0  0
  -25.5230  -33.7720   24.1190 N   0  0  0  0  0  0  0  0  0  0  0  0
  -25.7840  -34.8860   23.4210 C   0  0  0  0  0  0  0  0  0  0  0  0
  -26.4060  -34.8740   22.3560 O   0  0  0  0  0  0  0  0  0  0  0  0
  -24.9620  -33.8540   24.9550 H   0  0  0  0  0  0  0  0  0  0  0  0
  -23.9720  -36.6250   23.2820 C   0  0  0  0  0  1  0  0  0  0  0  0
  -25.2740  -36.2240   23.9930 C   0  0  0  0  0  3  0  0  0  0  0  0
  -27.4190  -37.1430   24.7600 C   0  0  0  0  0  1  0  0  0  0  0  0
  -26.2600  -37.3220   23.8890 N   0  0  0  0  0  0  0  0  0  0  0  0
  -25.8320  -38.2150   24.1100 H   0  0  0  0  0  0  0  0  0  0  0  0
  -30.5780  -18.1080   19.8770 C   0  0  0  0  0  0  0  0  0  0  0  0
  -30.8880  -15.3420   20.2570 C   0  0  0  0  0  0  0  0  0  0  0  0
  -30.7310  -12.9470   19.4100 C   0  0  0  0  0  2  0  0  0  0  0  0
  -29.8360  -12.8640   18.1540 C   0  0  0  0  0  2  0  0  0  0  0  0
  -28.3680  -12.6520   18.5660 C   0  0  0  0  0  2  0  0  0  0  0  0
  -27.9320  -13.6160   19.7040 C   0  0  0  0  0  3  0  0  0  0  0  0
  -28.9670  -13.7030   20.8470 C   0  0  0  0  0  2  0  0  0  0  0  0
  -30.2460  -14.0950   20.2400 N   0  0  0  0  0  0  0  0  0  0  0  0
  -32.0980  -15.2890   20.0150 O   0  0  0  0  0  0  0  0  0  0  0  0
  -30.1890  -16.6060   20.3230 N   0  0  0  0  0  4  0  0  0  0  0  0
  -29.2060  -16.4910   20.5110 H   0  0  0  0  0  0  0  0  0  0  0  0
  -25.5560  -14.2070   20.4320 C   0  0  0  0  0  0  0  0  0  0  0  0
  -24.4820  -13.4420   20.7890 C   0  0  0  0  0  0  0  0  0  0  0  0
  -24.9330  -12.0870   20.7580 C   0  0  0  0  0  0  0  0  0  0  0  0
  -26.5920  -13.3210   20.1960 N   0  0  0  0  0  0  0  0  0  0  0  0
  -26.2270  -12.0380   20.4580 N   0  0  0  0  0  0  0  0  0  0  0  0
  -24.1920  -10.8310   20.9360 C   0  0  0  0  0  0  0  0  0  0  0  0
  -24.5860   -9.8680   21.8920 C   0  0  0  0  0  3  0  0  0  0  0  0
  -23.8420   -8.6800   22.0590 C   0  0  0  0  0  3  0  0  0  0  0  0
  -22.6920   -8.4440   21.2680 C   0  0  0  0  0  0  0  0  0  0  0  0
  -22.3170   -9.3970   20.3030 C   0  0  0  0  0  3  0  0  0  0  0  0
  -23.0610  -10.5760   20.1360 C   0  0  0  0  0  3  0  0  0  0  0  0
  -21.9250   -7.3070   21.3420 O   0  0  0  0  0  0  0  0  0  0  0  0
  -21.8070   -6.5910   22.5060 C   0  0  0  0  0  0  0  0  0  0  0  0
  -21.2940   -7.1700   23.6860 C   0  0  0  0  0  3  0  0  0  0  0  0
  -21.1260   -6.3800   24.8420 C   0  0  0  0  0  3  0  0  0  0  0  0
  -21.4600   -5.0130   24.8150 C   0  0  0  0  0  0  0  0  0  0  0  0
  -21.9650   -4.4330   23.6390 C   0  0  0  0  0  3  0  0  0  0  0  0
  -22.1350   -5.2210   22.4860 C   0  0  0  0  0  0  0  0  0  0  0  0
  -22.6030   -4.6540   21.3480 F   0  0  0  0  0  0  0  0  0  0  0  0
  -21.2890   -4.2520   25.9210 F   0  0  0  0  0  0  0  0  0  0  0  0
  -23.0890  -13.9340   21.0440 C   0  0  0  0  0  0  0  0  0  0  0  0
  -22.3450  -13.2490   21.9060 N   0  0  0  0  0  0  0  0  0  0  0  0
  -22.6690  -14.9640   20.5160 O   0  0  0  0  0  0  0  0  0  0  0  0
  -22.6990  -12.4190   22.3580 H   0  0  0  0  0  0  0  0  0  0  0  0
  -21.4080  -13.5630   22.1180 H   0  0  0  0  0  0  0  0  0  0  0  0
  -25.7320  -15.5790   20.2590 N   0  0  0  0  0  0  0  0  0  0  0  0
  -24.9560  -16.2270   20.3440 H   0  0  0  0  0  0  0  0  0  0  0  0
  -26.5780  -16.0170   19.9220 H   0  0  0  0  0  0  0  0  0  0  0  0
  -32.7400  -19.6220   19.6200 C   0  0  0  0  0  1  0  0  0  0  0  0
  -32.1130  -18.2950   20.0690 C   0  0  0  0  0  2  0  0  0  0  0  0
  1  5  1  0
  1  2  2  0
  2  6  1  0
  3  6  1  0
  3  4  1  0
  5  3  1  0
  6  7  1  0
  8  9  2  0
  8  5  1  0
 10 12  1  0
 10  9  1  0
 11 22  2  0
 12 17  1  0
 13 21  1  0
 13 23  1  0
 14 20  1  0
 14 16  1  0
 15 21  1  0
 16 15  1  0
 17 16  2  0
 18 19  1  0
 18 12  2  0
 19 14  2  0
 20 13  1  0
 21 11  1  0
 23 25  2  0
 24 23  1  0
 26 24  1  0
 27 36  2  0
 27 32  1  0
 28 24  1  0
 28 32  1  0
 29 28  1  0
 30 31  1  0
 30 29  1  0
 31 27  1  0
 32 33  2  0
 33 34  1  0
 35 34  2  0
 36 35  1  0
 37 11  1  0
 37 42  1  0
 37 38  1  0
 38 41  1  1
 38 39  1  0
 40 38  1  0
 42 45  1  0
 43 47  1  0
 43 42  1  0
 44 43  2  0
 47 46  1  0
 49 47  1  0
 49 50  1  0
 49 48  1  0
 51 91  1  0
 51  2  1  0
 51 60  2  0
 52 60  1  0
 53 58  1  0
 54 55  1  0
 54 53  1  0
 56 55  1  0
 56 65  1  0
 56 57  1  0
 58 52  1  0
 58 57  1  0
 59 52  2  0
 60 61  1  0
 62 63  2  0
 63 82  1  0
 64 63  1  0
 64 67  1  0
 65 62  1  0
 65 66  1  0
 66 64  2  0
 67 68  1  0
 68 69  2  0
 70 73  1  0
 70 69  1  0
 71 70  2  0
 72 71  1  0
 72 67  2  0
 73 74  1  0
 74 75  1  0
 75 76  2  0
 77 76  1  0
 77 81  1  0
 78 77  2  0
 79 74  2  0
 79 78  1  0
 80 79  1  0
 82 83  1  0
 83 86  1  0
 83 85  1  0
 84 82  2  0
 87 88  1  0
 87 62  1  0
 89 87  1  0
 90 91  1  0
M  ISO  4   9 101  10 101  52 100  60 100
M  END
>  <TORSDO>  (87) 
F 20

>  <SCORE>  (87) 
-14.016

>  <name>  (87) 
86

>  <ligand_id>  (87) 
86

>  <original_smiles>  (87) 
[H]c1c([H])c([H])c2c(c1[H])C([H])([H])C([H])([H])C([H])([H])C2([H])N([H])C(=O)C1([H])N(C(=O)C([H])(N([H])C(=O)C([H])(N([H])C([H])([H])[H])C([H])([H])[H])C(C([H])([H])[H])(C([H])([H])[H])C([H])([H])[H])C([H])([H])c2c([H])c(OC([H])([H])C([H])([H])n3c([H])c(C([H])(N([H])C(=O)N4C([H])([H])C([H])([H])C([H])([H])C([H])(n5nc(-c6c([H])c([H])c(Oc7c([H])c([H])c(F)c([H])c7F)c([H])c6[H])c(C(=O)N([H])[H])c5N([H])[H])C4([H])[H])C([H])([H])C([H])([H])[H])[n+]([H])c3C([H])([H])[H])c([H])c([H])c2C1([H])[H]

>  <smiles>  (87) 
[H]c1c([H])c([H])c2c(c1[H])C([H])([H])C([H])([H])C([H])([H])C2([H])N([H])C(=O)C1([H])N(C(=O)C([H])(N([H])C(=O)C([H])(N([H])C([H])([H])[H])C([H])([H])[H])C(C([H])([H])[H])(C([H])([H])[H])C([H])([H])[H])C([H])([H])c2c([H])c(OC([H])([H])C([H])([H])n3c([H])c(C([H])(N([H])C(=O)N4C([H])([H])C([H])([H])C([H])([H])C([H])(n5nc(-c6c([H])c([H])c(Oc7c([H])c([H])c(F)c([H])c7F)c([H])c6[H])c(C(=O)N([H])[H])c5N([H])[H])C4([H])[H])C([H])([H])C([H])([H])[H])[n+]([H])c3C([H])([H])[H])c([H])c([H])c2C1([H])[H]

$$$$
87:0:0
     RDKit          3D

 90 98  0  0  1  0  0  0  0  0999 V2000
  -28.9840  -21.1470   19.7620 C   0  0  0  0  0  3  0  0  0  0  0  0
  -29.2470  -19.9900   20.5110 C   0  0  0  0  0  0  0  0  0  0  0  0
  -29.4930  -21.8700   21.7710 C   0  0  0  0  0  3  0  0  0  0  0  0
  -29.8200  -22.7010   22.9690 C   0  0  0  0  0  1  0  0  0  0  0  0
  -29.1480  -22.3060   20.5400 N   0  0  0  0  0  0  0  0  0  0  0  0
  -29.5400  -20.5150   21.7510 N   0  0  0  0  0  0  0  0  0  0  0  0
  -29.7590  -19.9550   22.5690 H   0  0  0  0  0  0  0  0  0  0  0  0
  -29.1270  -18.4440   20.1800 C   0  0  0  0  0  3  0  0  0  0  0  0
  -30.1160  -17.3210   20.7930 C   0  0  0  0  0  3  0  0  0  0  0  0
  -30.5750  -14.7490   20.3020 C   0  0  0  0  0  0  0  0  0  0  0  0
  -30.3790  -12.4960   19.2400 C   0  0  0  0  0  2  0  0  0  0  0  0
  -29.4090  -12.5680   18.0390 C   0  0  0  0  0  2  0  0  0  0  0  0
  -27.9440  -12.4160   18.4870 C   0  0  0  0  0  2  0  0  0  0  0  0
  -27.6000  -13.2890   19.7200 C   0  0  0  0  0  3  0  0  0  0  0  0
  -28.6720  -13.1540   20.8230 C   0  0  0  0  0  2  0  0  0  0  0  0
  -29.9610  -13.5210   20.2220 N   0  0  0  0  0  0  0  0  0  0  0  0
  -31.7480  -14.8890   19.9470 O   0  0  0  0  0  0  0  0  0  0  0  0
  -29.7800  -15.8380   20.6090 N   0  0  0  0  0  0  0  0  0  0  0  0
  -28.8310  -15.5850   20.8420 H   0  0  0  0  0  0  0  0  0  0  0  0
  -25.2270  -13.9090   20.4700 C   0  0  0  0  0  0  0  0  0  0  0  0
  -24.1580  -13.1460   20.8530 C   0  0  0  0  0  0  0  0  0  0  0  0
  -24.6100  -11.7890   20.8140 C   0  0  0  0  0  0  0  0  0  0  0  0
  -26.2580  -13.0190   20.2190 N   0  0  0  0  0  0  0  0  0  0  0  0
  -25.8950  -11.7400   20.4930 N   0  0  0  0  0  0  0  0  0  0  0  0
  -23.8760  -10.5340   21.0080 C   0  0  0  0  0  0  0  0  0  0  0  0
  -24.3090   -9.5640   21.9400 C   0  0  0  0  0  3  0  0  0  0  0  0
  -23.5800   -8.3690   22.1240 C   0  0  0  0  0  3  0  0  0  0  0  0
  -22.4030   -8.1350   21.3720 C   0  0  0  0  0  0  0  0  0  0  0  0
  -21.9890   -9.0920   20.4300 C   0  0  0  0  0  3  0  0  0  0  0  0
  -22.7190  -10.2790   20.2450 C   0  0  0  0  0  3  0  0  0  0  0  0
  -21.6430   -6.9930   21.4650 O   0  0  0  0  0  0  0  0  0  0  0  0
  -21.5890   -6.2550   22.6190 C   0  0  0  0  0  0  0  0  0  0  0  0
  -21.1580   -6.8150   23.8420 C   0  0  0  0  0  3  0  0  0  0  0  0
  -21.0520   -6.0050   24.9890 C   0  0  0  0  0  3  0  0  0  0  0  0
  -21.3660   -4.6350   24.9160 C   0  0  0  0  0  0  0  0  0  0  0  0
  -21.7880   -4.0730   23.6980 C   0  0  0  0  0  3  0  0  0  0  0  0
  -21.8980   -4.8810   22.5540 C   0  0  0  0  0  0  0  0  0  0  0  0
  -22.2860   -4.3310   21.3770 F   0  0  0  0  0  0  0  0  0  0  0  0
  -21.2560   -3.8550   26.0160 F   0  0  0  0  0  0  0  0  0  0  0  0
  -22.7680  -13.6300   21.1360 C   0  0  0  0  0  0  0  0  0  0  0  0
  -22.0420  -12.9370   22.0060 N   0  0  0  0  0  0  0  0  0  0  0  0
  -22.3290  -14.6600   20.6210 O   0  0  0  0  0  0  0  0  0  0  0  0
  -22.4090  -12.1060   22.4470 H   0  0  0  0  0  0  0  0  0  0  0  0
  -21.1050  -13.2390   22.2340 H   0  0  0  0  0  0  0  0  0  0  0  0
  -25.4060  -15.2790   20.2940 N   0  0  0  0  0  0  0  0  0  0  0  0
  -24.6580  -15.9480   20.4360 H   0  0  0  0  0  0  0  0  0  0  0  0
  -26.2330  -15.6970   19.8900 H   0  0  0  0  0  0  0  0  0  0  0  0
  -29.1530  -23.7960   20.0750 C   0  0  0  0  0  3  0  0  0  0  0  0
  -28.1650  -24.9520   20.6370 C   0  0  0  0  0  3  0  0  0  0  0  0
  -28.3770  -26.4010   20.2590 O   0  0  0  0  0  0  0  0  0  0  0  0
  -24.6530  -31.8820   23.2380 C   0  0  0  0  0  0  0  0  0  0  0  0
  -27.2730  -27.2840   20.2210 C   0  0  0  0  0  0  0  0  0  0  0  0
  -23.4550  -30.4770   21.6000 C   0  0  0  0  0  3  0  0  0  0  0  0
  -24.9120  -28.9220   20.1820 C   0  0  0  0  0  0  0  0  0  0  0  0
  -25.9960  -30.7960   21.4190 C   0  0  0  0  0  2  0  0  0  0  0  0
  -26.0840  -29.4130   20.7760 C   0  0  0  0  0  0  0  0  0  0  0  0
  -27.2690  -28.6070   20.7770 C   0  0  0  0  0  3  0  0  0  0  0  0
  -26.0790  -26.8630   19.5960 C   0  0  0  0  0  3  0  0  0  0  0  0
  -24.9160  -27.6550   19.5800 C   0  0  0  0  0  3  0  0  0  0  0  0
  -23.6770  -29.7970   20.2220 C   0  0  0  0  0  2  0  0  0  0  0  0
  -24.7200  -31.0700   22.1410 N   0  0  0  0  0  0  0  0  0  0  0  0
  -23.5680  -32.1530   23.7750 O   0  0  0  0  0  0  0  0  0  0  0  0
  -22.7960  -29.4590   22.5640 C   0  0  0  0  0  0  0  0  0  0  0  0
  -21.4680  -29.2780   22.4440 N   0  0  0  0  0  0  0  0  0  0  0  0
  -23.4770  -28.8340   23.3780 O   0  0  0  0  0  0  0  0  0  0  0  0
  -20.9730  -29.8380   21.7640 H   0  0  0  0  0  0  0  0  0  0  0  0
  -18.0990  -28.0640   22.9590 C   0  0  0  0  0  0  0  0  0  0  0  0
  -20.6570  -28.3360   23.2180 C   0  0  0  0  0  3  0  0  0  0  0  0
  -20.7630  -26.9040   22.6440 C   0  0  0  0  0  2  0  0  0  0  0  0
  -19.6620  -26.5740   21.6330 C   0  0  0  0  0  2  0  0  0  0  0  0
  -18.2810  -26.7130   22.2830 C   0  0  0  0  0  2  0  0  0  0  0  0
  -19.2170  -28.8320   23.3830 C   0  0  0  0  0  0  0  0  0  0  0  0
  -18.9940  -30.0930   23.9760 C   0  0  0  0  0  3  0  0  0  0  0  0
  -17.6880  -30.5900   24.1470 C   0  0  0  0  0  3  0  0  0  0  0  0
  -16.5860  -29.8190   23.7390 C   0  0  0  0  0  3  0  0  0  0  0  0
  -16.7920  -28.5580   23.1520 C   0  0  0  0  0  3  0  0  0  0  0  0
  -25.9340  -32.5240   23.8570 C   0  0  0  0  0  3  0  0  0  0  0  0
  -26.4620  -31.7550   25.1320 C   0  0  1  0  0  0  0  0  0  0  0  0
  -25.3750  -31.5100   26.2050 C   0  0  0  0  0  1  0  0  0  0  0  0
  -27.0560  -30.3820   24.7420 C   0  0  0  0  0  1  0  0  0  0  0  0
  -27.6080  -32.5560   25.7910 C   0  0  0  0  0  1  0  0  0  0  0  0
  -25.6090  -33.9170   24.1930 N   0  0  0  0  0  0  0  0  0  0  0  0
  -25.9240  -34.9780   23.4380 C   0  0  0  0  0  0  0  0  0  0  0  0
  -26.5880  -34.8870   22.4010 O   0  0  0  0  0  0  0  0  0  0  0  0
  -25.0150  -34.0570   24.9960 H   0  0  0  0  0  0  0  0  0  0  0  0
  -24.1790  -36.7630   23.1020 C   0  0  0  0  0  1  0  0  0  0  0  0
  -25.4260  -36.3610   23.9070 C   0  0  0  0  0  3  0  0  0  0  0  0
  -27.5550  -37.2610   24.7350 C   0  0  0  0  0  1  0  0  0  0  0  0
  -26.4490  -37.4230   23.7970 N   0  0  0  0  0  0  0  0  0  0  0  0
  -26.0340  -38.3390   23.9520 H   0  0  0  0  0  0  0  0  0  0  0  0
  1  2  2  0
  1  5  1  0
  2  6  1  0
  3  4  1  0
  5  3  1  0
  6  3  1  0
  6  7  1  0
  8  2  1  0
  8  9  2  0
 10 18  1  0
 11 16  1  0
 12 13  1  0
 12 11  1  0
 14 13  1  0
 14 23  1  0
 14 15  1  0
 16 10  1  0
 16 15  1  0
 17 10  2  0
 18  9  1  0
 18 19  1  0
 20 21  2  0
 21 40  1  0
 22 21  1  0
 22 25  1  0
 23 20  1  0
 23 24  1  0
 24 22  2  0
 25 26  1  0
 26 27  2  0
 28 31  1  0
 28 27  1  0
 29 28  2  0
 30 29  1  0
 30 25  2  0
 31 32  1  0
 32 33  1  0
 33 34  2  0
 35 34  1  0
 35 39  1  0
 36 35  2  0
 37 32  2  0
 37 36  1  0
 38 37  1  0
 40 41  1  0
 41 44  1  0
 41 43  1  0
 42 40  2  0
 45 46  1  0
 45 20  1  0
 47 45  1  0
 48  5  1  0
 48 49  2  0
 50 49  1  0
 51 62  2  0
 52 50  1  0
 52 57  1  0
 53 61  1  0
 53 63  1  0
 54 60  1  0
 54 56  1  0
 55 61  1  0
 56 57  2  0
 56 55  1  0
 58 52  2  0
 59 58  1  0
 59 54  2  0
 60 53  1  0
 61 51  1  0
 63 65  2  0
 64 63  1  0
 66 64  1  0
 67 76  2  0
 67 72  1  0
 68 64  1  0
 68 72  1  0
 69 68  1  0
 70 71  1  0
 70 69  1  0
 71 67  1  0
 72 73  2  0
 73 74  1  0
 75 74  2  0
 76 75  1  0
 77 51  1  0
 77 82  1  0
 77 78  1  0
 78 81  1  1
 78 79  1  0
 80 78  1  0
 82 85  1  0
 83 87  1  0
 83 82  1  0
 84 83  2  0
 87 86  1  0
 89 87  1  0
 89 90  1  0
 89 88  1  0
M  ISO  4  10 100  18 100  49 101  50 101
M  END
>  <TORSDO>  (88) 
F 20

>  <SCORE>  (88) 
-14.096

>  <name>  (88) 
87

>  <ligand_id>  (88) 
87

>  <original_smiles>  (88) 
[H]c1c([H])c([H])c2c(c1[H])C([H])([H])C([H])([H])C([H])([H])C2([H])N([H])C(=O)C1([H])N(C(=O)C([H])(N([H])C(=O)C([H])(N([H])C([H])([H])[H])C([H])([H])[H])C(C([H])([H])[H])(C([H])([H])[H])C([H])([H])[H])C([H])([H])c2c([H])c(OC([H])([H])C([H])([H])n3c([H])c(C([H])([H])C([H])([H])N([H])C(=O)N4C([H])([H])C([H])([H])C([H])([H])C([H])(n5nc(-c6c([H])c([H])c(Oc7c([H])c([H])c(F)c([H])c7F)c([H])c6[H])c(C(=O)N([H])[H])c5N([H])[H])C4([H])[H])[n+]([H])c3C([H])([H])[H])c([H])c([H])c2C1([H])[H]

>  <smiles>  (88) 
[H]c1c([H])c([H])c2c(c1[H])C([H])([H])C([H])([H])C([H])([H])C2([H])N([H])C(=O)C1([H])N(C(=O)C([H])(N([H])C(=O)C([H])(N([H])C([H])([H])[H])C([H])([H])[H])C(C([H])([H])[H])(C([H])([H])[H])C([H])([H])[H])C([H])([H])c2c([H])c(OC([H])([H])C([H])([H])n3c([H])c(C([H])([H])C([H])([H])N([H])C(=O)N4C([H])([H])C([H])([H])C([H])([H])C([H])(n5nc(-c6c([H])c([H])c(Oc7c([H])c([H])c(F)c([H])c7F)c([H])c6[H])c(C(=O)N([H])[H])c5N([H])[H])C4([H])[H])[n+]([H])c3C([H])([H])[H])c([H])c([H])c2C1([H])[H]

$$$$
88:0:0
     RDKit          3D

 89 97  0  0  1  0  0  0  0  0999 V2000
  -30.7780  -19.4320   19.6680 C   0  0  0  0  0  3  0  0  0  0  0  0
  -28.9420  -19.1740   21.1150 C   0  0  0  0  0  3  0  0  0  0  0  0
  -30.0590  -18.5560   20.5140 C   0  0  0  0  0  0  0  0  0  0  0  0
  -29.3130  -21.1960   20.0210 C   0  0  0  0  0  0  0  0  0  0  0  0
  -30.4060  -20.7180   19.4240 N   0  0  0  0  0  0  0  0  0  0  0  0
  -28.5830  -20.4650   20.8690 N   0  0  0  0  0  0  0  0  0  0  0  0
  -30.6250  -17.1450   20.9320 C   0  0  0  0  0  2  0  0  0  0  0  0
  -30.6380  -14.7290   20.0750 C   0  0  0  0  0  0  0  0  0  0  0  0
  -30.2830  -12.5630   18.9150 C   0  0  0  0  0  2  0  0  0  0  0  0
  -29.2630  -12.7280   17.7700 C   0  0  0  0  0  2  0  0  0  0  0  0
  -27.8280  -12.5440   18.2960 C   0  0  0  0  0  2  0  0  0  0  0  0
  -27.5490  -13.3710   19.5790 C   0  0  0  0  0  3  0  0  0  0  0  0
  -28.6810  -13.2050   20.6180 C   0  0  0  0  0  2  0  0  0  0  0  0
  -29.9450  -13.5540   19.9560 N   0  0  0  0  0  0  0  0  0  0  0  0
  -31.7770  -14.8420   19.6190 O   0  0  0  0  0  0  0  0  0  0  0  0
  -29.9830  -15.8280   20.5720 N   0  0  0  0  0  0  0  0  0  0  0  0
  -29.0290  -15.6720   20.8650 H   0  0  0  0  0  0  0  0  0  0  0  0
  -25.2050  -13.9270   20.4660 C   0  0  0  0  0  0  0  0  0  0  0  0
  -24.1700  -13.1330   20.8810 C   0  0  0  0  0  0  0  0  0  0  0  0
  -24.6410  -11.7890   20.7880 C   0  0  0  0  0  0  0  0  0  0  0  0
  -26.2390  -13.0630   20.1440 N   0  0  0  0  0  0  0  0  0  0  0  0
  -25.9100  -11.7700   20.3990 N   0  0  0  0  0  0  0  0  0  0  0  0
  -23.9380  -10.5140   20.9900 C   0  0  0  0  0  0  0  0  0  0  0  0
  -24.4110   -9.5480   21.9060 C   0  0  0  0  0  3  0  0  0  0  0  0
  -23.7080   -8.3390   22.0970 C   0  0  0  0  0  3  0  0  0  0  0  0
  -22.5190   -8.0880   21.3720 C   0  0  0  0  0  0  0  0  0  0  0  0
  -22.0660   -9.0430   20.4450 C   0  0  0  0  0  3  0  0  0  0  0  0
  -22.7690  -10.2430   20.2520 C   0  0  0  0  0  3  0  0  0  0  0  0
  -21.7830   -6.9320   21.4740 O   0  0  0  0  0  0  0  0  0  0  0  0
  -21.7440   -6.2030   22.6360 C   0  0  0  0  0  0  0  0  0  0  0  0
  -21.2590   -6.7520   23.8440 C   0  0  0  0  0  3  0  0  0  0  0  0
  -21.1720   -5.9480   24.9960 C   0  0  0  0  0  3  0  0  0  0  0  0
  -21.5570   -4.5940   24.9430 C   0  0  0  0  0  0  0  0  0  0  0  0
  -22.0330   -4.0450   23.7400 C   0  0  0  0  0  3  0  0  0  0  0  0
  -22.1230   -4.8470   22.5890 C   0  0  0  0  0  0  0  0  0  0  0  0
  -22.5640   -4.3060   21.4280 F   0  0  0  0  0  0  0  0  0  0  0  0
  -21.4650   -3.8190   26.0490 F   0  0  0  0  0  0  0  0  0  0  0  0
  -22.7880  -13.5900   21.2490 C   0  0  0  0  0  0  0  0  0  0  0  0
  -22.1210  -12.8640   22.1390 N   0  0  0  0  0  0  0  0  0  0  0  0
  -22.3120  -14.6250   20.7850 O   0  0  0  0  0  0  0  0  0  0  0  0
  -22.5230  -12.0280   22.5380 H   0  0  0  0  0  0  0  0  0  0  0  0
  -21.1950  -13.1480   22.4280 H   0  0  0  0  0  0  0  0  0  0  0  0
  -25.3440  -15.3030   20.3130 N   0  0  0  0  0  0  0  0  0  0  0  0
  -24.5730  -15.9400   20.4830 H   0  0  0  0  0  0  0  0  0  0  0  0
  -26.1570  -15.7620   19.9230 H   0  0  0  0  0  0  0  0  0  0  0  0
  -28.7290  -22.5660   19.5340 C   0  0  0  0  0  2  0  0  0  0  0  0
  -29.1720  -23.9680   20.1380 C   0  0  0  0  0  2  0  0  0  0  0  0
  -28.2480  -25.1570   19.6370 C   0  0  0  0  0  2  0  0  0  0  0  0
  -28.4380  -26.5660   20.0460 O   0  0  0  0  0  0  0  0  0  0  0  0
  -24.5810  -31.7940   23.1790 C   0  0  0  0  0  0  0  0  0  0  0  0
  -27.3140  -27.4110   19.9850 C   0  0  0  0  0  0  0  0  0  0  0  0
  -23.4250  -30.4370   21.4720 C   0  0  0  0  0  3  0  0  0  0  0  0
  -24.9220  -28.9810   20.0020 C   0  0  0  0  0  0  0  0  0  0  0  0
  -25.9600  -30.8080   21.3380 C   0  0  0  0  0  2  0  0  0  0  0  0
  -26.0730  -29.4590   20.6420 C   0  0  0  0  0  0  0  0  0  0  0  0
  -27.2690  -28.6820   20.6330 C   0  0  0  0  0  3  0  0  0  0  0  0
  -26.1440  -27.0040   19.2970 C   0  0  0  0  0  3  0  0  0  0  0  0
  -24.9600  -27.7590   19.3190 C   0  0  0  0  0  3  0  0  0  0  0  0
  -23.6680  -29.8260   20.0690 C   0  0  0  0  0  2  0  0  0  0  0  0
  -24.6730  -31.0280   22.0530 N   0  0  0  0  0  0  0  0  0  0  0  0
  -23.4860  -32.0330   23.7070 O   0  0  0  0  0  0  0  0  0  0  0  0
  -22.7710  -29.3700   22.3800 C   0  0  0  0  0  0  0  0  0  0  0  0
  -21.4450  -29.1910   22.2430 N   0  0  0  0  0  0  0  0  0  0  0  0
  -23.4520  -28.7100   23.1690 O   0  0  0  0  0  0  0  0  0  0  0  0
  -20.9570  -29.7730   21.5780 H   0  0  0  0  0  0  0  0  0  0  0  0
  -18.0650  -27.9970   22.7150 C   0  0  0  0  0  0  0  0  0  0  0  0
  -20.6290  -28.2170   22.9690 C   0  0  0  0  0  3  0  0  0  0  0  0
  -20.7130  -26.8230   22.3070 C   0  0  0  0  0  2  0  0  0  0  0  0
  -19.5940  -26.5680   21.2920 C   0  0  0  0  0  2  0  0  0  0  0  0
  -18.2230  -26.6870   21.9610 C   0  0  0  0  0  2  0  0  0  0  0  0
  -19.1960  -28.7230   23.1750 C   0  0  0  0  0  0  0  0  0  0  0  0
  -18.9940  -29.9510   23.8410 C   0  0  0  0  0  3  0  0  0  0  0  0
  -17.6960  -30.4530   24.0530 C   0  0  0  0  0  3  0  0  0  0  0  0
  -16.5810  -29.7220   23.6090 C   0  0  0  0  0  3  0  0  0  0  0  0
  -16.7650  -28.4940   22.9480 C   0  0  0  0  0  3  0  0  0  0  0  0
  -25.8440  -32.4230   23.8420 C   0  0  0  0  0  3  0  0  0  0  0  0
  -26.3210  -31.6440   25.1280 C   0  0  1  0  0  0  0  0  0  0  0  0
  -25.1960  -31.3950   26.1590 C   0  0  0  0  0  1  0  0  0  0  0  0
  -26.9170  -30.2690   24.7440 C   0  0  0  0  0  1  0  0  0  0  0  0
  -27.4500  -32.4340   25.8290 C   0  0  0  0  0  1  0  0  0  0  0  0
  -25.5240  -33.8190   24.1710 N   0  0  0  0  0  0  0  0  0  0  0  0
  -25.8780  -34.8760   23.4260 C   0  0  0  0  0  0  0  0  0  0  0  0
  -26.5770  -34.7770   22.4140 O   0  0  0  0  0  0  0  0  0  0  0  0
  -24.9090  -33.9700   24.9570 H   0  0  0  0  0  0  0  0  0  0  0  0
  -24.1660  -36.6730   23.0210 C   0  0  0  0  0  1  0  0  0  0  0  0
  -25.3770  -36.2620   23.8750 C   0  0  0  0  0  3  0  0  0  0  0  0
  -27.4750  -37.1460   24.7970 C   0  0  0  0  0  1  0  0  0  0  0  0
  -26.4150  -37.3140   23.8060 N   0  0  0  0  0  0  0  0  0  0  0  0
  -26.0040  -38.2340   23.9330 H   0  0  0  0  0  0  0  0  0  0  0  0
  1  3  2  0
  3  7  1  0
  3  2  1  0
  4  6  1  0
  5  1  1  0
  5  4  2  0
  6  2  2  0
  8 16  1  0
  9 14  1  0
 10 11  1  0
 10  9  1  0
 12 11  1  0
 12 21  1  0
 12 13  1  0
 14  8  1  0
 14 13  1  0
 15  8  2  0
 16 17  1  0
 16  7  1  0
 18 19  2  0
 19 38  1  0
 20 19  1  0
 20 23  1  0
 21 22  1  0
 21 18  1  0
 22 20  2  0
 23 24  1  0
 24 25  2  0
 26 29  1  0
 26 25  1  0
 27 26  2  0
 28 27  1  0
 28 23  2  0
 29 30  1  0
 30 31  1  0
 31 32  2  0
 33 32  1  0
 33 37  1  0
 34 33  2  0
 35 30  2  0
 35 34  1  0
 36 35  1  0
 38 39  1  0
 39 42  1  0
 39 41  1  0
 40 38  2  0
 43 18  1  0
 43 44  1  0
 45 43  1  0
 46  4  1  0
 46 47  1  0
 48 49  1  0
 48 47  1  0
 50 61  2  0
 51 49  1  0
 51 56  1  0
 52 60  1  0
 52 62  1  0
 53 59  1  0
 53 55  1  0
 54 60  1  0
 55 54  1  0
 56 55  2  0
 57 58  1  0
 57 51  2  0
 58 53  2  0
 59 52  1  0
 60 50  1  0
 62 64  2  0
 63 62  1  0
 65 63  1  0
 66 75  2  0
 66 71  1  0
 67 63  1  0
 67 71  1  0
 68 67  1  0
 69 70  1  0
 69 68  1  0
 70 66  1  0
 71 72  2  0
 72 73  1  0
 74 73  2  0
 75 74  1  0
 76 50  1  0
 76 81  1  0
 76 77  1  0
 77 80  1  1
 77 78  1  0
 79 77  1  0
 81 84  1  0
 82 86  1  0
 82 81  1  0
 83 82  2  0
 86 85  1  0
 88 86  1  0
 88 89  1  0
 88 87  1  0
M  ISO  4   8 100  16 100  48 101  49 101
M  END
>  <TORSDO>  (89) 
F 20

>  <SCORE>  (89) 
-13.322

>  <name>  (89) 
88

>  <ligand_id>  (89) 
88

>  <original_smiles>  (89) 
[H]c1nc(C([H])([H])C([H])([H])C([H])([H])Oc2c([H])c([H])c3c(c2[H])C([H])([H])N(C(=O)C([H])(N([H])C(=O)C([H])(N([H])C([H])([H])[H])C([H])([H])[H])C(C([H])([H])[H])(C([H])([H])[H])C([H])([H])[H])C([H])(C(=O)N([H])C2([H])c4c([H])c([H])c([H])c([H])c4C([H])([H])C([H])([H])C2([H])[H])C3([H])[H])nc([H])c1C([H])([H])N([H])C(=O)N1C([H])([H])C([H])([H])C([H])([H])C([H])(n2nc(-c3c([H])c([H])c(Oc4c([H])c([H])c(F)c([H])c4F)c([H])c3[H])c(C(=O)N([H])[H])c2N([H])[H])C1([H])[H]

>  <smiles>  (89) 
[H]c1nc(C([H])([H])C([H])([H])C([H])([H])Oc2c([H])c([H])c3c(c2[H])C([H])([H])N(C(=O)C([H])(N([H])C(=O)C([H])(N([H])C([H])([H])[H])C([H])([H])[H])C(C([H])([H])[H])(C([H])([H])[H])C([H])([H])[H])C([H])(C(=O)N([H])C2([H])c4c([H])c([H])c([H])c([H])c4C([H])([H])C([H])([H])C2([H])[H])C3([H])[H])nc([H])c1C([H])([H])N([H])C(=O)N1C([H])([H])C([H])([H])C([H])([H])C([H])(n2nc(-c3c([H])c([H])c(Oc4c([H])c([H])c(F)c([H])c4F)c([H])c3[H])c(C(=O)N([H])[H])c2N([H])[H])C1([H])[H]

$$$$
89:0:0
     RDKit          3D

 91 91  0  0  1  0  0  0  0  0999 V2000
  -22.9330  -26.8300   23.9800 C   0  0  0  0  0  2  0  0  0  0  0  0
  -23.6860  -27.5150   22.4850 C   0  0  0  0  0  3  0  0  0  0  0  0
  -21.1810  -27.2140   24.5370 C   0  0  0  0  0  2  0  0  0  0  0  0
  -22.9310  -28.1290   21.1430 C   0  0  0  0  0  2  0  0  0  0  0  0
  -20.9800  -27.0190   26.0630 C   0  0  0  0  0  1  0  0  0  0  0  0
  -20.1620  -28.1620   23.1400 N   0  0  0  0  0 15  0  0  0  0  0  0
  -21.1630  -28.4520   21.5360 N   0  0  0  0  0  1  0  0  0  0  0  0
  -24.8940  -28.7790   22.7850 C   0  0  0  0  0  2  0  0  0  0  0  0
  -25.4120  -29.7210   24.0850 O   0  0  0  0  0  0  0  0  0  0  0  0
  -30.1900  -26.2860   22.1300 C   0  0  0  0  0  0  0  0  0  0  0  0
  -26.4280  -29.4140   24.9950 C   0  0  0  0  0  0  0  0  0  0  0  0
  -28.4840  -25.6960   23.8140 C   0  0  0  0  0  3  0  0  0  0  0  0
  -27.8380  -27.2030   25.6830 C   0  0  0  0  0  0  0  0  0  0  0  0
  -29.7610  -27.8040   24.1230 C   0  0  0  0  0  2  0  0  0  0  0  0
  -28.5230  -28.2110   24.9570 C   0  0  0  0  0  0  0  0  0  0  0  0
  -27.7950  -29.3730   24.6210 C   0  0  0  0  0  3  0  0  0  0  0  0
  -25.9600  -28.6680   26.0800 C   0  0  0  0  0  3  0  0  0  0  0  0
  -26.6130  -27.4600   26.3280 C   0  0  0  0  0  3  0  0  0  0  0  0
  -28.2340  -25.7790   25.3390 C   0  0  0  0  0  2  0  0  0  0  0  0
  -29.6130  -26.5310   23.3570 N   0  0  0  0  0  0  0  0  0  0  0  0
  -30.0400  -25.2090   21.5340 O   0  0  0  0  0  0  0  0  0  0  0  0
  -27.3520  -26.4710   23.1300 C   0  0  0  0  0  0  0  0  0  0  0  0
  -26.1670  -25.8950   22.7670 N   0  0  0  0  0  2  0  0  0  0  0  0
  -27.5740  -27.4920   22.5170 O   0  0  0  0  0  0  0  0  0  0  0  0
  -25.8520  -25.2530   23.4820 H   0  0  0  0  0  0  0  0  0  0  0  0
  -27.0720  -23.2120   18.0800 C   0  0  0  0  0  0  0  0  0  0  0  0
  -25.3470  -24.5600   20.2900 C   0  0  0  0  0  1  0  0  0  0  0  0
  -24.9260  -23.1310   20.1260 C   0  0  0  0  0  2  0  0  0  0  0  0
  -26.0550  -22.0940   20.0180 C   0  0  0  0  0  2  0  0  0  0  0  0
  -26.4580  -21.9620   18.5700 C   0  0  0  0  0  2  0  0  0  0  0  0
  -26.7690  -24.4110   18.8460 C   0  0  0  0  0  3  0  0  0  0  0  0
  -28.0210  -25.1700   18.4320 C   0  0  0  0  0  3  0  0  0  0  0  0
  -28.9600  -25.0630   17.3340 C   0  0  0  0  0  3  0  0  0  0  0  0
  -28.9240  -23.9320   16.5340 C   0  0  0  0  0  3  0  0  0  0  0  0
  -28.0010  -22.9820   16.9890 C   0  0  0  0  0  3  0  0  0  0  0  0
  -31.0410  -27.3670   21.4070 C   0  0  0  0  0  3  0  0  0  0  0  0
  -30.2570  -28.3330   20.4240 C   0  0  1  0  0  0  0  0  0  0  0  0
  -29.3660  -27.6100   19.3870 C   0  0  0  0  0  1  0  0  0  0  0  0
  -29.4040  -29.3680   21.1960 C   0  0  0  0  0  1  0  0  0  0  0  0
  -31.2740  -29.1970   19.6380 C   0  0  0  0  0  1  0  0  0  0  0  0
  -32.0660  -26.6280   20.6700 N   0  0  0  0  0  0  0  0  0  0  0  0
  -33.3750  -26.8270   20.8360 C   0  0  0  0  0  0  0  0  0  0  0  0
  -33.8260  -27.7100   21.5710 O   0  0  0  0  0  0  0  0  0  0  0  0
  -31.7560  -25.8510   20.1060 H   0  0  0  0  0  0  0  0  0  0  0  0
  -34.7500  -24.7280   20.9400 C   0  0  0  0  0  1  0  0  0  0  0  0
  -34.3340  -25.9130   20.0550 C   0  0  0  0  0  3  0  0  0  0  0  0
  -35.2380  -27.6020   18.5210 C   0  0  0  0  0  1  0  0  0  0  0  0
  -35.5340  -26.6210   19.5620 N   0  0  0  0  0  0  0  0  0  0  0  0
  -36.2150  -25.9620   19.1940 H   0  0  0  0  0  0  0  0  0  0  0  0
  -24.3720  -28.6900   19.5140 C   0  0  0  0  0 15  0  0  0  0  0  0
  -25.4170  -27.7040   16.8400 C   0  0  0  0  0  1  0  0  0  0  0  0
  -26.1620  -28.4430   17.9490 C   0  0  0  0  0  1  0  0  0  0  0  0
  -28.0210  -29.1700   16.6440 C   0  0  0  0  0 15  0  0  0  0  0  0
  -31.1060  -29.3570   14.3320 C   0  0  0  0  0  0  0  0  0  0  0  0
  -32.8430  -29.4720   11.9950 C   0  0  0  0  0  2  0  0  0  0  0  0
  -32.3960  -29.2940   10.4800 C   0  0  0  0  0  2  0  0  0  0  0  0
  -32.0480  -27.8400   10.1570 C   0  0  0  0  0  2  0  0  0  0  0  0
  -31.4120  -27.2430   11.4150 C   0  0  0  0  0  3  0  0  0  0  0  0
  -32.2170  -27.4160   12.7100 C   0  0  0  0  0  2  0  0  0  0  0  0
  -31.9120  -28.7950   13.1200 N   0  0  0  0  0  0  0  0  0  0  0  0
  -31.8520  -30.4050   14.4110 O   0  0  0  0  0  0  0  0  0  0  0  0
  -29.6300  -28.9250   15.2670 N   0  0  0  0  0  2  0  0  0  0  0  0
  -29.4500  -28.0060   14.8790 H   0  0  0  0  0  0  0  0  0  0  0  0
  -29.7260  -25.4580   11.7160 C   0  0  0  0  0  0  0  0  0  0  0  0
  -29.7190  -24.1340   11.4100 C   0  0  0  0  0  0  0  0  0  0  0  0
  -31.0080  -23.8470   10.8560 C   0  0  0  0  0  0  0  0  0  0  0  0
  -30.9680  -25.8990   11.3230 N   0  0  0  0  0  0  0  0  0  0  0  0
  -31.7820  -24.9220   10.8750 N   0  0  0  0  0  0  0  0  0  0  0  0
  -31.5190  -22.6290   10.2350 C   0  0  0  0  0  0  0  0  0  0  0  0
  -32.8930  -22.3060   10.2590 C   0  0  0  0  0  3  0  0  0  0  0  0
  -33.3510  -21.1110    9.6670 C   0  0  0  0  0  3  0  0  0  0  0  0
  -32.4310  -20.2280    9.0520 C   0  0  0  0  0  0  0  0  0  0  0  0
  -31.0690  -20.5720    9.0060 C   0  0  0  0  0  3  0  0  0  0  0  0
  -30.6150  -21.7640    9.5890 C   0  0  0  0  0  3  0  0  0  0  0  0
  -32.7860  -19.0550    8.4360 O   0  0  0  0  0  0  0  0  0  0  0  0
  -34.0460  -18.5310    8.5650 C   0  0  0  0  0  0  0  0  0  0  0  0
  -34.4720  -17.8960    9.7520 C   0  0  0  0  0  3  0  0  0  0  0  0
  -35.7520  -17.3090    9.8150 C   0  0  0  0  0  3  0  0  0  0  0  0
  -36.6010  -17.3480    8.6920 C   0  0  0  0  0  0  0  0  0  0  0  0
  -36.1760  -17.9780    7.5090 C   0  0  0  0  0  3  0  0  0  0  0  0
  -34.9010  -18.5640    7.4450 C   0  0  0  0  0  0  0  0  0  0  0  0
  -34.4860  -19.1520    6.2960 F   0  0  0  0  0  0  0  0  0  0  0  0
  -37.8260  -16.7770    8.7490 F   0  0  0  0  0  0  0  0  0  0  0  0
  -28.5360  -23.2280   11.5170 C   0  0  0  0  0  0  0  0  0  0  0  0
  -28.7720  -21.9380   11.7060 N   0  0  0  0  0  0  0  0  0  0  0  0
  -27.3900  -23.6750   11.4820 O   0  0  0  0  0  0  0  0  0  0  0  0
  -29.7160  -21.5820   11.7560 H   0  0  0  0  0  0  0  0  0  0  0  0
  -27.9980  -21.2960   11.8060 H   0  0  0  0  0  0  0  0  0  0  0  0
  -28.7840  -26.3350   12.2560 N   0  0  0  0  0  0  0  0  0  0  0  0
  -27.8250  -26.0140   12.3480 H   0  0  0  0  0  0  0  0  0  0  0  0
  -28.8400  -27.3170   12.0240 H   0  0  0  0  0  0  0  0  0  0  0  0
  1  3  1  0
  2  4  1  0
  2  8  1  0
  2  1  1  0
  3  5  1  0
  4  7  1  0
  8  9  1  0
  9 11  1  0
 10 20  1  0
 11 17  1  0
 12 22  1  0
 12 19  1  0
 13 18  1  0
 14 15  1  0
 15 13  2  0
 16 15  1  0
 16 11  2  0
 17 18  2  0
 19 13  1  0
 20 12  1  0
 20 14  1  0
 21 10  2  0
 23 22  1  0
 23 25  1  0
 24 22  2  0
 26 30  1  0
 26 31  1  0
 28 27  1  0
 29 28  1  0
 30 29  1  0
 32 31  2  0
 33 32  1  0
 34 35  1  0
 34 33  2  0
 35 26  2  0
 36 10  1  0
 37 39  1  1
 37 36  1  0
 38 37  1  0
 40 37  1  0
 41 42  1  0
 41 36  1  0
 42 43  2  0
 44 41  1  0
 46 42  1  0
 46 45  1  0
 47 48  1  0
 48 46  1  0
 49 48  1  0
 51 52  1  0
 54 61  2  0
 54 62  1  0
 55 60  1  0
 56 55  1  0
 57 56  1  0
 58 57  1  0
 58 59  1  0
 59 60  1  0
 60 54  1  0
 63 62  1  0
 64 89  1  0
 65 84  1  0
 65 64  2  0
 66 68  2  0
 66 65  1  0
 67 58  1  0
 67 64  1  0
 68 67  1  0
 69 70  1  0
 69 66  1  0
 71 70  2  0
 72 71  1  0
 73 72  2  0
 73 74  1  0
 74 69  2  0
 75 76  1  0
 75 72  1  0
 76 77  1  0
 77 78  2  0
 79 83  1  0
 79 78  1  0
 80 79  2  0
 81 80  1  0
 81 76  2  0
 82 81  1  0
 84 85  1  0
 85 87  1  0
 85 88  1  0
 86 84  2  0
 89 90  1  0
 91 89  1  0
M  ISO  4   8 101   9 101  54 100  62 100
M  END
>  <TORSDO>  (90) 
F 20

>  <SCORE>  (90) 
8.372

>  <name>  (90) 
89

>  <ligand_id>  (90) 
89

>  <original_smiles>  (90) 
[H]c1c([H])c([H])c2c(c1[H])C([H])([H])C([H])([H])C([H])([H])C2([H])N([H])C(=O)C1([H])N(C(=O)C([H])(N([H])C(=O)C([H])(N([H])C([H])([H])[H])C([H])([H])[H])C(C([H])([H])[H])(C([H])([H])[H])C([H])([H])[H])C([H])([H])c2c([H])c(OC([H])([H])c3c(C([H])([H])C([H])(C([H])([H])[H])C([H])([H])N([H])C(=O)N4C([H])([H])C([H])([H])C([H])([H])C([H])(n5nc(-c6c([H])c([H])c(Oc7c([H])c([H])c(F)c([H])c7F)c([H])c6[H])c(C(=O)N([H])[H])c5N([H])[H])C4([H])[H])nnc(C([H])([H])[H])c3[H])c([H])c([H])c2C1([H])[H]

>  <smiles>  (90) 
[H]c1c([H])c([H])c2c(c1[H])C([H])([H])C([H])([H])C([H])([H])C2([H])N([H])C(=O)C1([H])N(C(=O)C([H])(N([H])C(=O)C([H])(N([H])C([H])([H])[H])C([H])([H])[H])C(C([H])([H])[H])(C([H])([H])[H])C([H])([H])[H])C([H])([H])c2c([H])c(OC([H])([H])c3c(C([H])([H])C([H])(C([H])([H])[H])C([H])([H])N([H])C(=O)N4C([H])([H])C([H])([H])C([H])([H])C([H])(n5nc(-c6c([H])c([H])c(Oc7c([H])c([H])c(F)c([H])c7F)c([H])c6[H])c(C(=O)N([H])[H])c5N([H])[H])C4([H])[H])nnc(C([H])([H])[H])c3[H])c([H])c([H])c2C1([H])[H]

$$$$
90:0:0
     RDKit          3D

 94102  0  0  1  0  0  0  0  0999 V2000
  -28.2240  -23.0670   20.7080 C   0  0  0  0  0  3  0  0  0  0  0  0
  -29.2200  -22.2860   20.0820 C   0  0  0  0  0  0  0  0  0  0  0  0
  -27.1240  -22.4590   21.3190 C   0  0  0  0  0  0  0  0  0  0  0  0
  -29.0140  -20.8160   20.1530 C   0  0  0  0  0  0  0  0  0  0  0  0
  -26.9890  -21.1200   21.3720 N   0  0  0  0  0  0  0  0  0  0  0  0
  -27.9270  -20.3440   20.8260 N   0  0  0  0  0  0  0  0  0  0  0  0
  -31.3350  -19.8560   19.5440 C   0  0  0  0  0  1  0  0  0  0  0  0
  -29.8260  -19.5780   19.5380 C   0  0  0  0  0  3  0  0  0  0  0  0
  -29.5890  -18.0930   20.2130 C   0  0  0  0  0  2  0  0  0  0  0  0
  -31.0710  -15.8730   20.2180 C   0  0  0  0  0  0  0  0  0  0  0  0
  -31.1250  -13.4250   19.7280 C   0  0  0  0  0  2  0  0  0  0  0  0
  -30.2990  -13.1270   18.4580 C   0  0  0  0  0  2  0  0  0  0  0  0
  -28.8170  -12.9070   18.8250 C   0  0  0  0  0  2  0  0  0  0  0  0
  -28.2630  -14.0030   19.7780 C   0  0  0  0  0  3  0  0  0  0  0  0
  -29.2230  -14.2970   20.9490 C   0  0  0  0  0  2  0  0  0  0  0  0
  -30.5240  -14.6190   20.3620 N   0  0  0  0  0  0  0  0  0  0  0  0
  -32.2870  -15.9870   20.0560 O   0  0  0  0  0  0  0  0  0  0  0  0
  -30.2850  -16.8600   19.6480 N   0  0  0  0  0  0  0  0  0  0  0  0
  -30.7140  -17.1110   18.7690 H   0  0  0  0  0  0  0  0  0  0  0  0
  -25.8660  -14.5590   20.4870 C   0  0  0  0  0  0  0  0  0  0  0  0
  -24.7960  -13.7690   20.8090 C   0  0  0  0  0  0  0  0  0  0  0  0
  -25.2650  -12.4220   20.7440 C   0  0  0  0  0  0  0  0  0  0  0  0
  -26.9160  -13.6920   20.2390 N   0  0  0  0  0  0  0  0  0  0  0  0
  -26.5620  -12.3990   20.4590 N   0  0  0  0  0  0  0  0  0  0  0  0
  -24.5410  -11.1510   20.8780 C   0  0  0  0  0  0  0  0  0  0  0  0
  -24.8850  -10.2030   21.8670 C   0  0  0  0  0  3  0  0  0  0  0  0
  -24.1610   -8.9980   21.9890 C   0  0  0  0  0  3  0  0  0  0  0  0
  -23.0770   -8.7300   21.1180 C   0  0  0  0  0  0  0  0  0  0  0  0
  -22.7540   -9.6660   20.1190 C   0  0  0  0  0  3  0  0  0  0  0  0
  -23.4800  -10.8620   19.9960 C   0  0  0  0  0  3  0  0  0  0  0  0
  -22.3360   -7.5740   21.1440 O   0  0  0  0  0  0  0  0  0  0  0  0
  -22.0730   -6.9150   22.3190 C   0  0  0  0  0  0  0  0  0  0  0  0
  -21.3960   -7.5390   23.3890 C   0  0  0  0  0  3  0  0  0  0  0  0
  -21.0840   -6.8020   24.5490 C   0  0  0  0  0  3  0  0  0  0  0  0
  -21.4380   -5.4430   24.6380 C   0  0  0  0  0  0  0  0  0  0  0  0
  -22.1070   -4.8190   23.5710 C   0  0  0  0  0  3  0  0  0  0  0  0
  -22.4200   -5.5520   22.4130 C   0  0  0  0  0  0  0  0  0  0  0  0
  -23.0460   -4.9400   21.3790 F   0  0  0  0  0  0  0  0  0  0  0  0
  -21.1310   -4.7330   25.7490 F   0  0  0  0  0  0  0  0  0  0  0  0
  -23.3910  -14.2330   21.0640 C   0  0  0  0  0  0  0  0  0  0  0  0
  -22.6520  -13.5240   21.9090 N   0  0  0  0  0  0  0  0  0  0  0  0
  -22.9560  -15.2620   20.5480 O   0  0  0  0  0  0  0  0  0  0  0  0
  -23.0160  -12.6970   22.3590 H   0  0  0  0  0  0  0  0  0  0  0  0
  -21.7080  -13.8200   22.1170 H   0  0  0  0  0  0  0  0  0  0  0  0
  -26.0280  -15.9350   20.3600 N   0  0  0  0  0  0  0  0  0  0  0  0
  -25.2580  -16.5830   20.4860 H   0  0  0  0  0  0  0  0  0  0  0  0
  -26.8920  -16.3860   20.0880 H   0  0  0  0  0  0  0  0  0  0  0  0
  -30.3130  -23.1820   19.3810 C   0  0  0  0  0  2  0  0  0  0  0  0
  -30.3560  -24.8010   19.6380 C   0  0  0  0  0  3  0  0  0  0  0  0
  -29.2600  -25.8440   19.0670 C   0  0  0  0  0  3  0  0  0  0  0  0
  -29.2580  -27.2970   19.4670 O   0  0  0  0  0  0  0  0  0  0  0  0
  -24.7250  -31.6510   23.1180 C   0  0  0  0  0  0  0  0  0  0  0  0
  -28.0310  -28.0050   19.5080 C   0  0  0  0  0  0  0  0  0  0  0  0
  -23.7630  -30.3340   21.2690 C   0  0  0  0  0  3  0  0  0  0  0  0
  -25.4450  -29.2500   19.6710 C   0  0  0  0  0  0  0  0  0  0  0  0
  -26.2290  -31.0550   21.2000 C   0  0  0  0  0  2  0  0  0  0  0  0
  -26.5260  -29.8110   20.3650 C   0  0  0  0  0  0  0  0  0  0  0  0
  -27.8200  -29.2010   20.2740 C   0  0  0  0  0  3  0  0  0  0  0  0
  -26.9160  -27.5150   18.7920 C   0  0  0  0  0  3  0  0  0  0  0  0
  -25.6440  -28.1140   18.8750 C   0  0  0  0  0  3  0  0  0  0  0  0
  -24.0890  -29.9110   19.8130 C   0  0  0  0  0  2  0  0  0  0  0  0
  -24.9220  -31.0270   21.9220 N   0  0  0  0  0  0  0  0  0  0  0  0
  -23.6100  -31.6760   23.6590 O   0  0  0  0  0  0  0  0  0  0  0  0
  -23.2660  -29.0990   22.0590 C   0  0  0  0  0  0  0  0  0  0  0  0
  -21.9960  -28.7110   21.8450 N   0  0  0  0  0  0  0  0  0  0  0  0
  -24.0230  -28.4960   22.8250 O   0  0  0  0  0  0  0  0  0  0  0  0
  -21.4320  -29.2630   21.2140 H   0  0  0  0  0  0  0  0  0  0  0  0
  -18.8800  -26.8810   22.0110 C   0  0  0  0  0  0  0  0  0  0  0  0
  -21.3380  -27.5510   22.4500 C   0  0  0  0  0  3  0  0  0  0  0  0
  -21.7190  -26.2470   21.7110 C   0  0  0  0  0  2  0  0  0  0  0  0
  -20.7260  -25.8680   20.6050 C   0  0  0  0  0  2  0  0  0  0  0  0
  -19.3210  -25.6830   21.1860 C   0  0  0  0  0  2  0  0  0  0  0  0
  -19.8260  -27.7650   22.5920 C   0  0  0  0  0  0  0  0  0  0  0  0
  -19.3610  -28.8800   23.3230 C   0  0  0  0  0  3  0  0  0  0  0  0
  -17.9820  -29.1160   23.4780 C   0  0  0  0  0  3  0  0  0  0  0  0
  -17.0500  -28.2290   22.9130 C   0  0  0  0  0  3  0  0  0  0  0  0
  -17.4990  -27.1120   22.1850 C   0  0  0  0  0  3  0  0  0  0  0  0
  -25.8880  -32.3820   23.8580 C   0  0  0  0  0  3  0  0  0  0  0  0
  -25.4280  -33.7410   24.1730 N   0  0  0  0  0  0  0  0  0  0  0  0
  -25.7270  -34.8320   23.4530 C   0  0  0  0  0  0  0  0  0  0  0  0
  -26.4840  -34.8040   22.4790 O   0  0  0  0  0  0  0  0  0  0  0  0
  -24.7530  -33.8310   24.9180 H   0  0  0  0  0  0  0  0  0  0  0  0
  -23.8690  -36.4660   22.9960 C   0  0  0  0  0  1  0  0  0  0  0  0
  -25.0860  -36.1640   23.8850 C   0  0  0  0  0  3  0  0  0  0  0  0
  -27.0720  -37.2320   24.8580 C   0  0  0  0  0  1  0  0  0  0  0  0
  -26.0220  -37.3090   23.8450 N   0  0  0  0  0  0  0  0  0  0  0  0
  -25.5240  -38.1870   23.9700 H   0  0  0  0  0  0  0  0  0  0  0  0
  -26.3530  -31.6370   25.1690 C   0  0  1  0  0  0  0  0  0  0  0  0
  -25.1950  -31.2960   26.1370 C   0  0  0  0  0  1  0  0  0  0  0  0
  -27.0800  -30.3180   24.8250 C   0  0  0  0  0  1  0  0  0  0  0  0
  -27.3730  -32.5140   25.9330 C   0  0  0  0  0  1  0  0  0  0  0  0
  -25.9910  -23.3170   21.8560 C   0  0  0  0  0  2  0  0  0  0  0  0
  -24.9170  -25.6500   21.6700 C   0  0  0  0  0  1  0  0  0  0  0  0
  -25.7660  -24.5690   20.9860 C   0  0  0  0  0  2  0  0  0  0  0  0
  1  3  1  0
  2  4  1  0
  2  1  2  0
  3  5  2  0
  3 92  1  0
  4  6  2  0
  6  5  1  0
  8  7  1  0
  8  4  1  0
  8  9  1  0
 10 16  1  0
 11 16  1  0
 12 13  1  0
 12 11  1  0
 14 13  1  0
 14 23  1  0
 14 15  1  0
 16 15  1  0
 17 10  2  0
 18  9  1  0
 18 10  1  0
 19 18  1  0
 20 21  2  0
 21 40  1  0
 22 21  1  0
 22 25  1  0
 23 24  1  0
 23 20  1  0
 24 22  2  0
 25 26  1  0
 26 27  2  0
 28 31  1  0
 28 27  1  0
 29 28  2  0
 30 29  1  0
 30 25  2  0
 31 32  1  0
 32 37  2  0
 32 33  1  0
 33 34  2  0
 34 35  1  0
 35 39  1  0
 36 35  2  0
 37 36  1  0
 38 37  1  0
 40 41  1  0
 41 44  1  0
 41 43  1  0
 42 40  2  0
 45 46  1  0
 45 20  1  0
 47 45  1  0
 48 49  1  0
 48  2  1  0
 50 51  1  0
 50 49  2  0
 51 53  1  0
 52 63  2  0
 53 58  1  0
 54 62  1  0
 54 64  1  0
 55 61  1  0
 55 57  1  0
 56 62  1  0
 57 56  1  0
 58 57  2  0
 59 60  1  0
 59 53  2  0
 60 55  2  0
 61 54  1  0
 62 52  1  0
 64 66  2  0
 65 64  1  0
 67 65  1  0
 68 77  2  0
 68 73  1  0
 69 65  1  0
 69 73  1  0
 70 69  1  0
 71 72  1  0
 71 70  1  0
 72 68  1  0
 73 74  2  0
 74 75  1  0
 76 75  2  0
 77 76  1  0
 78 52  1  0
 78 79  1  0
 78 88  1  0
 79 82  1  0
 80 84  1  0
 80 79  1  0
 81 80  2  0
 84 83  1  0
 86 84  1  0
 86 87  1  0
 86 85  1  0
 88 91  1  1
 88 89  1  0
 90 88  1  0
 94 93  1  0
 94 92  1  0
M  ISO  4  10 100  18 100  50 101  51 101
M  END
>  <TORSDO>  (91) 
F 23

>  <SCORE>  (91) 
-8.219

>  <name>  (91) 
90

>  <ligand_id>  (91) 
90

>  <original_smiles>  (91) 
[H]c1c([H])c([H])c2c(c1[H])C([H])([H])C([H])([H])C([H])([H])C2([H])N([H])C(=O)C1([H])N(C(=O)C([H])(N([H])C(=O)C([H])(N([H])C([H])([H])[H])C([H])([H])[H])C(C([H])([H])[H])(C([H])([H])[H])C([H])([H])[H])C([H])([H])c2c([H])c(OC([H])([H])C([H])([H])C([H])([H])c3c(C([H])(C([H])([H])[H])C([H])([H])N([H])C(=O)N4C([H])([H])C([H])([H])C([H])([H])C([H])(n5nc(-c6c([H])c([H])c(Oc7c([H])c([H])c(F)c([H])c7F)c([H])c6[H])c(C(=O)N([H])[H])c5N([H])[H])C4([H])[H])nnc(C([H])([H])C([H])([H])C([H])([H])[H])c3[H])c([H])c([H])c2C1([H])[H]

>  <smiles>  (91) 
[H]c1c([H])c([H])c2c(c1[H])C([H])([H])C([H])([H])C([H])([H])C2([H])N([H])C(=O)C1([H])N(C(=O)C([H])(N([H])C(=O)C([H])(N([H])C([H])([H])[H])C([H])([H])[H])C(C([H])([H])[H])(C([H])([H])[H])C([H])([H])[H])C([H])([H])c2c([H])c(OC([H])([H])C([H])([H])C([H])([H])c3c(C([H])(C([H])([H])[H])C([H])([H])N([H])C(=O)N4C([H])([H])C([H])([H])C([H])([H])C([H])(n5nc(-c6c([H])c([H])c(Oc7c([H])c([H])c(F)c([H])c7F)c([H])c6[H])c(C(=O)N([H])[H])c5N([H])[H])C4([H])[H])nnc(C([H])([H])C([H])([H])C([H])([H])[H])c3[H])c([H])c([H])c2C1([H])[H]

$$$$
91:0:0
     RDKit          3D

 95103  0  0  1  0  0  0  0  0999 V2000
  -28.7620  -20.5290   20.5210 C   0  0  0  0  0  3  0  0  0  0  0  0
  -28.8590  -21.7550   19.8090 C   0  0  0  0  0  0  0  0  0  0  0  0
  -29.5720  -21.7450   18.5800 C   0  0  0  0  0  0  0  0  0  0  0  0
  -29.3700  -19.3580   20.0070 C   0  0  0  0  0  0  0  0  0  0  0  0
  -30.1960  -20.5370   18.1710 C   0  0  0  0  0  0  0  0  0  0  0  0
  -29.6490  -22.9920   17.7020 C   0  0  0  0  0  1  0  0  0  0  0  0
  -30.0840  -19.3880   18.8670 N   0  0  0  0  0  0  0  0  0  0  0  0
  -28.1190  -23.0080   20.3210 C   0  0  0  0  0  2  0  0  0  0  0  0
  -28.9890  -24.2580   20.6540 C   0  0  0  0  0  2  0  0  0  0  0  0
  -28.1780  -25.4740   21.1790 C   0  0  0  0  0  2  0  0  0  0  0  0
  -28.2940  -26.6500   20.3550 O   0  0  0  0  0  0  0  0  0  0  0  0
  -24.5440  -31.9570   23.2860 C   0  0  0  0  0  0  0  0  0  0  0  0
  -27.1570  -27.4270   20.3220 C   0  0  0  0  0  0  0  0  0  0  0  0
  -23.3370  -30.5400   21.6570 C   0  0  0  0  0  3  0  0  0  0  0  0
  -24.7850  -28.9590   20.2760 C   0  0  0  0  0  0  0  0  0  0  0  0
  -25.8680  -30.8680   21.4740 C   0  0  0  0  0  2  0  0  0  0  0  0
  -25.9460  -29.4850   20.8610 C   0  0  0  0  0  0  0  0  0  0  0  0
  -27.1390  -28.7270   20.8770 C   0  0  0  0  0  3  0  0  0  0  0  0
  -25.9840  -26.9140   19.7320 C   0  0  0  0  0  3  0  0  0  0  0  0
  -24.7980  -27.6720   19.7080 C   0  0  0  0  0  3  0  0  0  0  0  0
  -23.5520  -29.8340   20.2930 C   0  0  0  0  0  2  0  0  0  0  0  0
  -24.6010  -31.1380   22.1980 N   0  0  0  0  0  0  0  0  0  0  0  0
  -23.4620  -32.2510   23.8130 O   0  0  0  0  0  0  0  0  0  0  0  0
  -22.6630  -29.5450   22.6310 C   0  0  0  0  0  0  0  0  0  0  0  0
  -21.3380  -29.3790   22.4960 N   0  0  0  0  0  0  0  0  0  0  0  0
  -23.3320  -28.9240   23.4630 O   0  0  0  0  0  0  0  0  0  0  0  0
  -20.8600  -29.9300   21.7970 H   0  0  0  0  0  0  0  0  0  0  0  0
  -17.9430  -28.2440   22.9920 C   0  0  0  0  0  0  0  0  0  0  0  0
  -20.5030  -28.4650   23.2750 C   0  0  0  0  0  3  0  0  0  0  0  0
  -20.5860  -27.0250   22.7190 C   0  0  0  0  0  2  0  0  0  0  0  0
  -19.4850  -26.7060   21.7040 C   0  0  0  0  0  2  0  0  0  0  0  0
  -18.1020  -26.8840   22.3370 C   0  0  0  0  0  2  0  0  0  0  0  0
  -19.0710  -28.9940   23.4190 C   0  0  0  0  0  0  0  0  0  0  0  0
  -18.8690  -30.2700   23.9900 C   0  0  0  0  0  3  0  0  0  0  0  0
  -17.5720  -30.7960   24.1370 C   0  0  0  0  0  3  0  0  0  0  0  0
  -16.4580  -30.0430   23.7280 C   0  0  0  0  0  3  0  0  0  0  0  0
  -16.6450  -28.7690   23.1620 C   0  0  0  0  0  3  0  0  0  0  0  0
  -25.8330  -32.5830   23.9050 C   0  0  0  0  0  3  0  0  0  0  0  0
  -25.5400  -33.9870   24.2190 N   0  0  0  0  0  0  0  0  0  0  0  0
  -25.8870  -35.0270   23.4460 C   0  0  0  0  0  0  0  0  0  0  0  0
  -26.5600  -34.9020   22.4200 O   0  0  0  0  0  0  0  0  0  0  0  0
  -24.9480  -34.1590   25.0180 H   0  0  0  0  0  0  0  0  0  0  0  0
  -24.1780  -36.8300   23.0610 C   0  0  0  0  0  1  0  0  0  0  0  0
  -25.4120  -36.4260   23.8840 C   0  0  0  0  0  3  0  0  0  0  0  0
  -27.5500  -37.3020   24.7140 C   0  0  0  0  0  1  0  0  0  0  0  0
  -26.4550  -37.4670   23.7610 N   0  0  0  0  0  0  0  0  0  0  0  0
  -26.0560  -38.3930   23.8940 H   0  0  0  0  0  0  0  0  0  0  0  0
  -26.3400  -31.8220   25.1920 C   0  0  1  0  0  0  0  0  0  0  0  0
  -25.2400  -31.5920   26.2540 C   0  0  0  0  0  1  0  0  0  0  0  0
  -26.9260  -30.4420   24.8120 C   0  0  0  0  0  1  0  0  0  0  0  0
  -27.4840  -32.6210   25.8600 C   0  0  0  0  0  1  0  0  0  0  0  0
  -29.1180  -17.9490   20.5850 C   0  0  0  0  0  2  0  0  0  0  0  0
  -30.3550  -16.9970   20.6430 C   0  0  0  0  0  2  0  0  0  0  0  0
  -30.7940  -14.5210   20.5620 C   0  0  0  0  0  0  0  0  0  0  0  0
  -30.4960  -12.3840   19.3770 C   0  0  0  0  0  2  0  0  0  0  0  0
  -29.5730  -12.6430   18.1660 C   0  0  0  0  0  2  0  0  0  0  0  0
  -28.0900  -12.5170   18.5720 C   0  0  0  0  0  2  0  0  0  0  0  0
  -27.7530  -13.3230   19.8540 C   0  0  0  0  0  3  0  0  0  0  0  0
  -28.7890  -13.0550   20.9710 C   0  0  0  0  0  2  0  0  0  0  0  0
  -30.1240  -13.3460   20.4270 N   0  0  0  0  0  0  0  0  0  0  0  0
  -31.9500  -14.6810   20.1590 O   0  0  0  0  0  0  0  0  0  0  0  0
  -30.0390  -15.5780   20.9390 N   0  0  0  0  0  0  0  0  0  0  0  0
  -29.1070  -15.3640   21.2610 H   0  0  0  0  0  0  0  0  0  0  0  0
  -25.3520  -13.9600   20.5180 C   0  0  0  0  0  0  0  0  0  0  0  0
  -24.2680  -13.2000   20.8690 C   0  0  0  0  0  0  0  0  0  0  0  0
  -24.7120  -11.8440   20.8440 C   0  0  0  0  0  0  0  0  0  0  0  0
  -26.3900  -13.0640   20.3080 N   0  0  0  0  0  0  0  0  0  0  0  0
  -26.0070  -11.7870   20.5610 N   0  0  0  0  0  0  0  0  0  0  0  0
  -23.9660  -10.5910   21.0170 C   0  0  0  0  0  0  0  0  0  0  0  0
  -24.3710   -9.6140   21.9530 C   0  0  0  0  0  3  0  0  0  0  0  0
  -23.6270   -8.4250   22.1160 C   0  0  0  0  0  3  0  0  0  0  0  0
  -22.4640   -8.2060   21.3400 C   0  0  0  0  0  0  0  0  0  0  0  0
  -22.0770   -9.1700   20.3930 C   0  0  0  0  0  3  0  0  0  0  0  0
  -22.8220  -10.3500   20.2280 C   0  0  0  0  0  3  0  0  0  0  0  0
  -21.6930   -7.0710   21.4110 O   0  0  0  0  0  0  0  0  0  0  0  0
  -21.6140   -6.3250   22.5600 C   0  0  0  0  0  0  0  0  0  0  0  0
  -21.1630   -6.8780   23.7780 C   0  0  0  0  0  3  0  0  0  0  0  0
  -21.0300   -6.0580   24.9170 C   0  0  0  0  0  3  0  0  0  0  0  0
  -21.3410   -4.6880   24.8380 C   0  0  0  0  0  0  0  0  0  0  0  0
  -21.7870   -4.1350   23.6250 C   0  0  0  0  0  3  0  0  0  0  0  0
  -21.9200   -4.9510   22.4880 C   0  0  0  0  0  0  0  0  0  0  0  0
  -22.3300   -4.4100   21.3150 F   0  0  0  0  0  0  0  0  0  0  0  0
  -21.2070   -3.8990   25.9280 F   0  0  0  0  0  0  0  0  0  0  0  0
  -22.8730  -13.6950   21.1140 C   0  0  0  0  0  0  0  0  0  0  0  0
  -22.1230  -13.0140   21.9750 N   0  0  0  0  0  0  0  0  0  0  0  0
  -22.4560  -14.7210   20.5810 O   0  0  0  0  0  0  0  0  0  0  0  0
  -22.4710  -12.1830   22.4300 H   0  0  0  0  0  0  0  0  0  0  0  0
  -21.1860  -13.3300   22.1800 H   0  0  0  0  0  0  0  0  0  0  0  0
  -25.5360  -15.3280   20.3410 N   0  0  0  0  0  0  0  0  0  0  0  0
  -24.7640  -15.9810   20.4080 H   0  0  0  0  0  0  0  0  0  0  0  0
  -26.3830  -15.7510   19.9850 H   0  0  0  0  0  0  0  0  0  0  0  0
  -31.0710  -20.4170   16.9190 C   0  0  0  0  0  2  0  0  0  0  0  0
  -31.2960  -18.0230   16.0120 C   0  0  0  0  0  1  0  0  0  0  0  0
  -29.0760  -19.2190   15.7530 C   0  0  0  0  0  1  0  0  0  0  0  0
  -30.6030  -19.3880   15.8520 C   0  0  0  0  0  3  0  0  0  0  0  0
  2  8  1  0
  2  1  2  0
  3  2  1  0
  4  1  1  0
  4 52  1  0
  5  3  2  0
  5  7  1  0
  6  3  1  0
  7  4  2  0
  8  9  1  0
  9 10  1  0
 11 10  1  0
 12 23  2  0
 13 11  1  0
 13 18  1  0
 14 22  1  0
 14 24  1  0
 15 21  1  0
 15 17  1  0
 16 22  1  0
 17 18  2  0
 17 16  1  0
 19 13  2  0
 20 19  1  0
 20 15  2  0
 21 14  1  0
 22 12  1  0
 24 26  2  0
 25 24  1  0
 27 25  1  0
 28 37  2  0
 28 33  1  0
 29 25  1  0
 29 33  1  0
 30 29  1  0
 31 32  1  0
 31 30  1  0
 32 28  1  0
 33 34  2  0
 34 35  1  0
 36 35  2  0
 37 36  1  0
 38 12  1  0
 38 39  1  0
 38 48  1  0
 39 42  1  0
 40 44  1  0
 40 39  1  0
 41 40  2  0
 44 43  1  0
 46 44  1  0
 46 47  1  0
 46 45  1  0
 48 51  1  1
 48 49  1  0
 50 48  1  0
 52 53  1  0
 53 62  1  0
 54 62  1  0
 55 60  1  0
 56 57  1  0
 56 55  1  0
 58 57  1  0
 58 67  1  0
 58 59  1  0
 60 54  1  0
 60 59  1  0
 61 54  2  0
 62 63  1  0
 64 65  2  0
 65 84  1  0
 66 65  1  0
 66 69  1  0
 67 64  1  0
 67 68  1  0
 68 66  2  0
 69 70  1  0
 70 71  2  0
 72 75  1  0
 72 71  1  0
 73 72  2  0
 74 73  1  0
 74 69  2  0
 75 76  1  0
 76 77  1  0
 77 78  2  0
 79 78  1  0
 79 83  1  0
 80 79  2  0
 81 76  2  0
 81 80  1  0
 82 81  1  0
 84 85  1  0
 85 88  1  0
 85 87  1  0
 86 84  2  0
 89 90  1  0
 89 64  1  0
 91 89  1  0
 92  5  1  0
 94 95  1  0
 95 93  1  0
 95 92  1  0
M  ISO  4  10 101  11 101  54 100  62 100
M  END
>  <TORSDO>  (92) 
F 23

>  <SCORE>  (92) 
-13.056

>  <name>  (92) 
91

>  <ligand_id>  (92) 
91

>  <original_smiles>  (92) 
[H]c1c([H])c([H])c2c(c1[H])C([H])([H])C([H])([H])C([H])([H])C2([H])N([H])C(=O)C1([H])N(C(=O)C([H])(N([H])C(=O)C([H])(N([H])C([H])([H])[H])C([H])([H])[H])C(C([H])([H])[H])(C([H])([H])[H])C([H])([H])[H])C([H])([H])c2c([H])c(OC([H])([H])C([H])([H])C([H])([H])c3c([H])c(C([H])([H])C([H])([H])N([H])C(=O)N4C([H])([H])C([H])([H])C([H])([H])C([H])(n5nc(-c6c([H])c([H])c(Oc7c([H])c([H])c(F)c([H])c7F)c([H])c6[H])c(C(=O)N([H])[H])c5N([H])[H])C4([H])[H])nc(C([H])([H])C([H])(C([H])([H])[H])C([H])([H])[H])c3C([H])([H])[H])c([H])c([H])c2C1([H])[H]

>  <smiles>  (92) 
[H]c1c([H])c([H])c2c(c1[H])C([H])([H])C([H])([H])C([H])([H])C2([H])N([H])C(=O)C1([H])N(C(=O)C([H])(N([H])C(=O)C([H])(N([H])C([H])([H])[H])C([H])([H])[H])C(C([H])([H])[H])(C([H])([H])[H])C([H])([H])[H])C([H])([H])c2c([H])c(OC([H])([H])C([H])([H])C([H])([H])c3c([H])c(C([H])([H])C([H])([H])N([H])C(=O)N4C([H])([H])C([H])([H])C([H])([H])C([H])(n5nc(-c6c([H])c([H])c(Oc7c([H])c([H])c(F)c([H])c7F)c([H])c6[H])c(C(=O)N([H])[H])c5N([H])[H])C4([H])[H])nc(C([H])([H])C([H])(C([H])([H])[H])C([H])([H])[H])c3C([H])([H])[H])c([H])c([H])c2C1([H])[H]

$$$$
92:0:0
     RDKit          3D

 90 98  0  0  1  0  0  0  0  0999 V2000
  -29.3300  -18.5240   21.4060 C   0  0  0  0  0  3  0  0  0  0  0  0
  -31.6160  -19.1230   21.6030 C   0  0  0  0  0  3  0  0  0  0  0  0
  -30.6660  -18.0910   21.4680 C   0  0  0  0  0  0  0  0  0  0  0  0
  -29.9730  -20.7190   21.7010 C   0  0  0  0  0  0  0  0  0  0  0  0
  -28.9940  -19.8320   21.5200 N   0  0  0  0  0  0  0  0  0  0  0  0
  -31.2680  -20.4210   21.7190 N   0  0  0  0  0  0  0  0  0  0  0  0
  -31.1530  -16.6230   21.4920 C   0  0  0  0  0  2  0  0  0  0  0  0
  -30.7410  -14.5420   20.1670 C   0  0  0  0  0  0  0  0  0  0  0  0
  -30.2700  -12.4550   18.9270 C   0  0  0  0  0  2  0  0  0  0  0  0
  -29.2900  -12.7320   17.7760 C   0  0  0  0  0  2  0  0  0  0  0  0
  -27.8410  -12.5770   18.2690 C   0  0  0  0  0  2  0  0  0  0  0  0
  -27.5700  -13.3670   19.5770 C   0  0  0  0  0  3  0  0  0  0  0  0
  -28.6800  -13.1350   20.6300 C   0  0  0  0  0  2  0  0  0  0  0  0
  -29.9820  -13.4190   20.0060 N   0  0  0  0  0  0  0  0  0  0  0  0
  -31.7920  -14.7080   19.5450 O   0  0  0  0  0  0  0  0  0  0  0  0
  -30.2990  -15.5010   21.0100 N   0  0  0  0  0  0  0  0  0  0  0  0
  -29.4370  -15.3010   21.4940 H   0  0  0  0  0  0  0  0  0  0  0  0
  -25.2030  -13.9430   20.3960 C   0  0  0  0  0  0  0  0  0  0  0  0
  -24.1590  -13.1580   20.8020 C   0  0  0  0  0  0  0  0  0  0  0  0
  -24.6290  -11.8090   20.7390 C   0  0  0  0  0  0  0  0  0  0  0  0
  -26.2440  -13.0720   20.1160 N   0  0  0  0  0  0  0  0  0  0  0  0
  -25.9060  -11.7840   20.3800 N   0  0  0  0  0  0  0  0  0  0  0  0
  -23.9220  -10.5400   20.9480 C   0  0  0  0  0  0  0  0  0  0  0  0
  -24.3880   -9.5780   21.8720 C   0  0  0  0  0  3  0  0  0  0  0  0
  -23.6780   -8.3730   22.0700 C   0  0  0  0  0  3  0  0  0  0  0  0
  -22.4900   -8.1230   21.3450 C   0  0  0  0  0  0  0  0  0  0  0  0
  -22.0430   -9.0740   20.4100 C   0  0  0  0  0  3  0  0  0  0  0  0
  -22.7520  -10.2700   20.2090 C   0  0  0  0  0  3  0  0  0  0  0  0
  -21.7490   -6.9710   21.4520 O   0  0  0  0  0  0  0  0  0  0  0  0
  -21.7270   -6.2330   22.6090 C   0  0  0  0  0  0  0  0  0  0  0  0
  -21.3070   -6.7870   23.8380 C   0  0  0  0  0  3  0  0  0  0  0  0
  -21.2350   -5.9760   24.9880 C   0  0  0  0  0  3  0  0  0  0  0  0
  -21.5720   -4.6110   24.9120 C   0  0  0  0  0  0  0  0  0  0  0  0
  -21.9830   -4.0560   23.6880 C   0  0  0  0  0  3  0  0  0  0  0  0
  -22.0600   -4.8640   22.5390 C   0  0  0  0  0  0  0  0  0  0  0  0
  -22.4370   -4.3190   21.3580 F   0  0  0  0  0  0  0  0  0  0  0  0
  -21.4950   -3.8300   26.0150 F   0  0  0  0  0  0  0  0  0  0  0  0
  -22.7710  -13.6200   21.1390 C   0  0  0  0  0  0  0  0  0  0  0  0
  -22.0880  -12.9090   22.0270 N   0  0  0  0  0  0  0  0  0  0  0  0
  -22.3020  -14.6480   20.6510 O   0  0  0  0  0  0  0  0  0  0  0  0
  -22.4780  -12.0750   22.4420 H   0  0  0  0  0  0  0  0  0  0  0  0
  -21.1610  -13.2010   22.3030 H   0  0  0  0  0  0  0  0  0  0  0  0
  -25.3540  -15.3180   20.2170 N   0  0  0  0  0  0  0  0  0  0  0  0
  -24.5820  -15.9700   20.3060 H   0  0  0  0  0  0  0  0  0  0  0  0
  -26.1910  -15.7490   19.8480 H   0  0  0  0  0  0  0  0  0  0  0  0
  -29.5970  -22.1830   21.9780 C   0  0  0  0  0  2  0  0  0  0  0  0
  -29.4250  -23.0860   20.7300 C   0  0  0  0  0  2  0  0  0  0  0  0
  -29.0940  -24.5730   21.0610 C   0  0  0  0  0  2  0  0  0  0  0  0
  -28.7000  -25.4120   19.8230 C   0  0  0  0  0  2  0  0  0  0  0  0
  -28.5860  -26.8150   20.1330 O   0  0  0  0  0  0  0  0  0  0  0  0
  -24.6610  -31.8760   23.2340 C   0  0  0  0  0  0  0  0  0  0  0  0
  -27.3680  -27.4790   20.1180 C   0  0  0  0  0  0  0  0  0  0  0  0
  -23.4950  -30.4790   21.5860 C   0  0  0  0  0  3  0  0  0  0  0  0
  -24.9470  -28.9620   20.1440 C   0  0  0  0  0  0  0  0  0  0  0  0
  -26.0010  -30.8640   21.3800 C   0  0  0  0  0  2  0  0  0  0  0  0
  -26.1000  -29.4950   20.7310 C   0  0  0  0  0  0  0  0  0  0  0  0
  -27.3060  -28.7590   20.7190 C   0  0  0  0  0  3  0  0  0  0  0  0
  -26.1940  -26.9700   19.5110 C   0  0  0  0  0  3  0  0  0  0  0  0
  -24.9900  -27.6980   19.5350 C   0  0  0  0  0  3  0  0  0  0  0  0
  -23.6940  -29.8040   20.2010 C   0  0  0  0  0  2  0  0  0  0  0  0
  -24.7410  -31.0870   22.1250 N   0  0  0  0  0  0  0  0  0  0  0  0
  -23.5720  -32.1260   23.7720 O   0  0  0  0  0  0  0  0  0  0  0  0
  -22.8550  -29.4550   22.5450 C   0  0  0  0  0  0  0  0  0  0  0  0
  -21.5390  -29.3650   22.4010 N   0  0  0  0  0  0  0  0  0  0  0  0
  -23.5180  -28.7670   23.3210 O   0  0  0  0  0  0  0  0  0  0  0  0
  -21.1400  -30.0700   21.7960 H   0  0  0  0  0  0  0  0  0  0  0  0
  -18.1320  -27.8730   22.7860 C   0  0  0  0  0  0  0  0  0  0  0  0
  -20.6000  -28.3370   22.7670 C   0  0  0  0  0  3  0  0  0  0  0  0
  -20.8970  -26.8480   22.5640 C   0  0  0  0  0  2  0  0  0  0  0  0
  -19.8170  -26.2600   21.6320 C   0  0  0  0  0  2  0  0  0  0  0  0
  -18.3860  -26.4990   22.1600 C   0  0  0  0  0  2  0  0  0  0  0  0
  -19.1990  -28.7150   23.1830 C   0  0  0  0  0  0  0  0  0  0  0  0
  -18.9370  -29.9670   23.7740 C   0  0  0  0  0  3  0  0  0  0  0  0
  -17.6100  -30.4100   23.9200 C   0  0  0  0  0  3  0  0  0  0  0  0
  -16.5470  -29.5930   23.4930 C   0  0  0  0  0  3  0  0  0  0  0  0
  -16.8060  -28.3220   22.9470 C   0  0  0  0  0  3  0  0  0  0  0  0
  -25.9320  -32.5180   23.8630 C   0  0  0  0  0  3  0  0  0  0  0  0
  -25.6050  -33.9120   24.1920 N   0  0  0  0  0  0  0  0  0  0  0  0
  -25.9200  -34.9650   23.4260 C   0  0  0  0  0  0  0  0  0  0  0  0
  -26.5920  -34.8690   22.3960 O   0  0  0  0  0  0  0  0  0  0  0  0
  -25.0050  -34.0540   24.9900 H   0  0  0  0  0  0  0  0  0  0  0  0
  -24.1710  -36.7350   23.0580 C   0  0  0  0  0  1  0  0  0  0  0  0
  -25.4110  -36.3490   23.8780 C   0  0  0  0  0  3  0  0  0  0  0  0
  -27.5310  -37.2590   24.7190 C   0  0  0  0  0  1  0  0  0  0  0  0
  -26.4320  -37.4130   23.7680 N   0  0  0  0  0  0  0  0  0  0  0  0
  -26.0160  -38.3300   23.9070 H   0  0  0  0  0  0  0  0  0  0  0  0
  -26.4410  -31.7470   25.1410 C   0  0  1  0  0  0  0  0  0  0  0  0
  -25.3410  -31.4950   26.2000 C   0  0  0  0  0  1  0  0  0  0  0  0
  -27.0410  -30.3770   24.7470 C   0  0  0  0  0  1  0  0  0  0  0  0
  -27.5800  -32.5490   25.8130 C   0  0  0  0  0  1  0  0  0  0  0  0
  1  3  2  0
  1  5  1  0
  2  6  2  0
  3  7  1  0
  3  2  1  0
  4  6  1  0
  4 46  1  0
  5  4  2  0
  8 16  1  0
  9 14  1  0
 10 11  1  0
 10  9  1  0
 12 11  1  0
 12 21  1  0
 12 13  1  0
 14  8  1  0
 14 13  1  0
 15  8  2  0
 16  7  1  0
 16 17  1  0
 18 19  2  0
 19 38  1  0
 20 19  1  0
 20 23  1  0
 21 22  1  0
 21 18  1  0
 22 20  2  0
 23 24  1  0
 24 25  2  0
 26 29  1  0
 26 25  1  0
 27 26  2  0
 28 27  1  0
 28 23  2  0
 29 30  1  0
 30 31  1  0
 31 32  2  0
 33 32  1  0
 33 37  1  0
 34 33  2  0
 35 30  2  0
 35 34  1  0
 36 35  1  0
 38 39  1  0
 39 42  1  0
 39 41  1  0
 40 38  2  0
 43 44  1  0
 43 18  1  0
 45 43  1  0
 47 48  1  0
 47 46  1  0
 49 50  1  0
 49 48  1  0
 51 62  2  0
 52 50  1  0
 52 57  1  0
 53 61  1  0
 53 63  1  0
 54 60  1  0
 54 56  1  0
 55 61  1  0
 56 55  1  0
 57 56  2  0
 58 59  1  0
 58 52  2  0
 59 54  2  0
 60 53  1  0
 61 51  1  0
 63 65  2  0
 64 63  1  0
 66 64  1  0
 67 76  2  0
 67 72  1  0
 68 64  1  0
 68 72  1  0
 69 68  1  0
 70 71  1  0
 70 69  1  0
 71 67  1  0
 72 73  2  0
 73 74  1  0
 75 74  2  0
 76 75  1  0
 77 51  1  0
 77 78  1  0
 77 87  1  0
 78 81  1  0
 79 83  1  0
 79 78  1  0
 80 79  2  0
 83 82  1  0
 85 83  1  0
 85 86  1  0
 85 84  1  0
 87 90  1  1
 87 88  1  0
 89 87  1  0
M  ISO  4   8 100  16 100  49 101  50 101
M  END
>  <TORSDO>  (93) 
F 21

>  <SCORE>  (93) 
-12.591

>  <name>  (93) 
92

>  <ligand_id>  (93) 
92

>  <original_smiles>  (93) 
[H]c1nc(C([H])([H])C([H])([H])C([H])([H])C([H])([H])Oc2c([H])c([H])c3c(c2[H])C([H])([H])N(C(=O)C([H])(N([H])C(=O)C([H])(N([H])C([H])([H])[H])C([H])([H])[H])C(C([H])([H])[H])(C([H])([H])[H])C([H])([H])[H])C([H])(C(=O)N([H])C2([H])c4c([H])c([H])c([H])c([H])c4C([H])([H])C([H])([H])C2([H])[H])C3([H])[H])nc([H])c1C([H])([H])N([H])C(=O)N1C([H])([H])C([H])([H])C([H])([H])C([H])(n2nc(-c3c([H])c([H])c(Oc4c([H])c([H])c(F)c([H])c4F)c([H])c3[H])c(C(=O)N([H])[H])c2N([H])[H])C1([H])[H]

>  <smiles>  (93) 
[H]c1nc(C([H])([H])C([H])([H])C([H])([H])C([H])([H])Oc2c([H])c([H])c3c(c2[H])C([H])([H])N(C(=O)C([H])(N([H])C(=O)C([H])(N([H])C([H])([H])[H])C([H])([H])[H])C(C([H])([H])[H])(C([H])([H])[H])C([H])([H])[H])C([H])(C(=O)N([H])C2([H])c4c([H])c([H])c([H])c([H])c4C([H])([H])C([H])([H])C2([H])[H])C3([H])[H])nc([H])c1C([H])([H])N([H])C(=O)N1C([H])([H])C([H])([H])C([H])([H])C([H])(n2nc(-c3c([H])c([H])c(Oc4c([H])c([H])c(F)c([H])c4F)c([H])c3[H])c(C(=O)N([H])[H])c2N([H])[H])C1([H])[H]

$$$$
93:0:0
     RDKit          3D

 98106  0  0  1  0  0  0  0  0999 V2000
  -29.9740  -20.3240   20.8820 C   0  0  0  0  0  2  0  0  0  0  0  0
  -31.9770  -19.6140   19.5680 C   0  0  0  0  0  3  0  0  0  0  0  0
  -32.9760  -18.6940   19.2390 C   0  0  0  0  0  3  0  0  0  0  0  0
  -30.9880  -19.2540   20.5020 C   0  0  0  0  0  0  0  0  0  0  0  0
  -32.9650  -17.4270   19.8510 C   0  0  0  0  0  0  0  0  0  0  0  0
  -31.0240  -17.9470   21.0500 C   0  0  0  0  0  0  0  0  0  0  0  0
  -32.0020  -17.0700   20.7320 N   0  0  0  0  0  0  0  0  0  0  0  0
  -30.2320  -18.0740   23.4480 C   0  0  0  0  0  1  0  0  0  0  0  0
  -29.9990  -15.8960   22.1400 C   0  0  0  0  0  1  0  0  0  0  0  0
  -30.0080  -17.4310   22.0710 C   0  0  0  0  0  3  0  0  0  0  0  0
  -34.1270  -16.4550   19.6320 C   0  0  1  0  0  0  0  0  0  0  0  0
  -35.2080  -17.1920   19.3610 F   0  0  0  0  0  0  0  0  0  0  0  0
  -34.4130  -15.7640   20.7420 F   0  0  0  0  0  0  0  0  0  0  0  0
  -33.8960  -15.4880   18.4400 C   0  0  0  0  0  0  0  0  0  0  0  0
  -33.1650  -13.2200   17.8010 C   0  0  0  0  0  2  0  0  0  0  0  0
  -32.0540  -13.1580   16.7450 C   0  0  0  0  0  2  0  0  0  0  0  0
  -30.6750  -13.2430   17.4180 C   0  0  0  0  0  2  0  0  0  0  0  0
  -30.5700  -14.4430   18.3930 C   0  0  0  0  0  3  0  0  0  0  0  0
  -31.7760  -14.4970   19.3580 C   0  0  0  0  0  2  0  0  0  0  0  0
  -33.0200  -14.4610   18.5730 N   0  0  0  0  0  0  0  0  0  0  0  0
  -34.6540  -15.5700   17.4610 O   0  0  0  0  0  0  0  0  0  0  0  0
  -28.5810  -15.4900   19.6500 C   0  0  0  0  0  0  0  0  0  0  0  0
  -27.4310  -14.9460   20.1580 C   0  0  0  0  0  0  0  0  0  0  0  0
  -27.5060  -13.5450   19.8900 C   0  0  0  0  0  0  0  0  0  0  0  0
  -29.3000  -14.4310   19.1170 N   0  0  0  0  0  0  0  0  0  0  0  0
  -28.6630  -13.2480   19.3110 N   0  0  0  0  0  0  0  0  0  0  0  0
  -26.5170  -12.4790   20.0970 C   0  0  0  0  0  0  0  0  0  0  0  0
  -26.7360  -11.4400   21.0290 C   0  0  0  0  0  3  0  0  0  0  0  0
  -25.7620  -10.4370   21.2230 C   0  0  0  0  0  3  0  0  0  0  0  0
  -24.5550  -10.4650   20.4850 C   0  0  0  0  0  0  0  0  0  0  0  0
  -24.3530  -11.4880   19.5420 C   0  0  0  0  0  3  0  0  0  0  0  0
  -25.3250  -12.4830   19.3460 C   0  0  0  0  0  3  0  0  0  0  0  0
  -23.5640   -9.5180   20.5890 O   0  0  0  0  0  0  0  0  0  0  0  0
  -23.1980   -8.9900   21.8000 C   0  0  0  0  0  0  0  0  0  0  0  0
  -22.7560   -9.8030   22.8660 C   0  0  0  0  0  3  0  0  0  0  0  0
  -22.3240   -9.2130   24.0700 C   0  0  0  0  0  3  0  0  0  0  0  0
  -22.3250   -7.8120   24.2080 C   0  0  0  0  0  0  0  0  0  0  0  0
  -22.7590   -7.0000   23.1460 C   0  0  0  0  0  3  0  0  0  0  0  0
  -23.1920   -7.5880   21.9450 C   0  0  0  0  0  0  0  0  0  0  0  0
  -23.5900   -6.7990   20.9170 F   0  0  0  0  0  0  0  0  0  0  0  0
  -21.9010   -7.2440   25.3620 F   0  0  0  0  0  0  0  0  0  0  0  0
  -26.2820  -15.6940   20.7700 C   0  0  0  0  0  0  0  0  0  0  0  0
  -25.5940  -15.0810   21.7280 N   0  0  0  0  0  0  0  0  0  0  0  0
  -26.0180  -16.8480   20.4350 O   0  0  0  0  0  0  0  0  0  0  0  0
  -25.8210  -14.1410   22.0160 H   0  0  0  0  0  0  0  0  0  0  0  0
  -24.8260  -15.5590   22.1780 H   0  0  0  0  0  0  0  0  0  0  0  0
  -29.0640  -16.7920   19.5750 N   0  0  0  0  0  0  0  0  0  0  0  0
  -28.5290  -17.5870   19.9040 H   0  0  0  0  0  0  0  0  0  0  0  0
  -29.9450  -17.0520   19.1510 H   0  0  0  0  0  0  0  0  0  0  0  0
  -29.4410  -21.1080   19.6640 C   0  0  0  0  0  2  0  0  0  0  0  0
  -29.5140  -22.5680   19.8800 N   0  0  0  0  0  4  0  0  0  0  0  0
  -29.4160  -22.7550   20.8640 H   0  0  0  0  0  0  0  0  0  0  0  0
  -28.7380  -23.0040   19.4070 H   0  0  0  0  0  0  0  0  0  0  0  0
  -30.7680  -23.1670   19.3630 C   0  0  0  0  0  2  0  0  0  0  0  0
  -31.0220  -24.5960   19.8760 C   0  0  0  0  0  2  0  0  0  0  0  0
  -32.2080  -25.2470   19.1410 C   0  0  0  0  0  2  0  0  0  0  0  0
  -32.5650  -26.6530   19.6510 C   0  0  0  0  0  2  0  0  0  0  0  0
  -32.0360  -27.6300   18.7630 O   0  0  0  0  0  0  0  0  0  0  0  0
  -26.3990  -28.1060   23.0460 C   0  0  0  0  0  0  0  0  0  0  0  0
  -30.6790  -27.7680   18.8650 C   0  0  0  0  0  0  0  0  0  0  0  0
  -25.9060  -27.7850   20.6420 C   0  0  0  0  0  3  0  0  0  0  0  0
  -27.8880  -28.0510   19.0600 C   0  0  0  0  0  0  0  0  0  0  0  0
  -28.0500  -28.9560   21.3880 C   0  0  0  0  0  2  0  0  0  0  0  0
  -28.7060  -28.4150   20.1380 C   0  0  0  0  0  0  0  0  0  0  0  0
  -30.1050  -28.2750   20.0460 C   0  0  0  0  0  3  0  0  0  0  0  0
  -29.8550  -27.4040   17.7820 C   0  0  0  0  0  3  0  0  0  0  0  0
  -28.4560  -27.5400   17.8780 C   0  0  0  0  0  3  0  0  0  0  0  0
  -26.4000  -28.2420   19.2420 C   0  0  0  0  0  2  0  0  0  0  0  0
  -26.7950  -28.2600   21.7510 N   0  0  0  0  0  0  0  0  0  0  0  0
  -25.2930  -27.6210   23.3240 O   0  0  0  0  0  0  0  0  0  0  0  0
  -25.7190  -26.2510   20.6200 C   0  0  0  0  0  0  0  0  0  0  0  0
  -24.6360  -25.7910   19.9730 N   0  0  0  0  0  0  0  0  0  0  0  0
  -26.5480  -25.5060   21.1480 O   0  0  0  0  0  0  0  0  0  0  0  0
  -24.0020  -26.4690   19.5730 H   0  0  0  0  0  0  0  0  0  0  0  0
  -22.1550  -23.5890   18.5470 C   0  0  0  0  0  0  0  0  0  0  0  0
  -24.2760  -24.3870   19.7900 C   0  0  0  0  0  3  0  0  0  0  0  0
  -25.0730  -23.7550   18.6250 C   0  0  0  0  0  2  0  0  0  0  0  0
  -24.3360  -23.8220   17.2840 C   0  0  0  0  0  2  0  0  0  0  0  0
  -22.9890  -23.0990   17.3750 C   0  0  0  0  0  2  0  0  0  0  0  0
  -22.7590  -24.2080   19.6740 C   0  0  0  0  0  0  0  0  0  0  0  0
  -21.9360  -24.6770   20.7200 C   0  0  0  0  0  3  0  0  0  0  0  0
  -20.5370  -24.5340   20.6560 C   0  0  0  0  0  3  0  0  0  0  0  0
  -19.9460  -23.9060   19.5470 C   0  0  0  0  0  3  0  0  0  0  0  0
  -20.7540  -23.4310   18.4970 C   0  0  0  0  0  3  0  0  0  0  0  0
  -27.3030  -28.5550   24.2380 C   0  0  0  0  0  3  0  0  0  0  0  0
  -27.9070  -27.3440   25.0500 C   0  0  1  0  0  0  0  0  0  0  0  0
  -26.8560  -26.2880   25.4640 C   0  0  0  0  0  1  0  0  0  0  0  0
  -28.9990  -26.6250   24.2240 C   0  0  0  0  0  1  0  0  0  0  0  0
  -28.5960  -27.8660   26.3330 C   0  0  0  0  0  1  0  0  0  0  0  0
  -26.4910  -29.4140   25.1080 N   0  0  0  0  0  0  0  0  0  0  0  0
  -26.5310  -30.7540   25.1040 C   0  0  0  0  0  0  0  0  0  0  0  0
  -27.3190  -31.3980   24.4070 O   0  0  0  0  0  0  0  0  0  0  0  0
  -25.7820  -28.9570   25.6640 H   0  0  0  0  0  0  0  0  0  0  0  0
  -24.3450  -31.9920   25.1870 C   0  0  0  0  0  1  0  0  0  0  0  0
  -25.5390  -31.4960   26.0180 C   0  0  0  0  0  3  0  0  0  0  0  0
  -27.1040  -32.2160   27.7670 C   0  0  0  0  0  1  0  0  0  0  0  0
  -26.1460  -32.6320   26.7460 N   0  0  0  0  0  0  0  0  0  0  0  0
  -25.4300  -33.1980   27.1940 H   0  0  0  0  0  0  0  0  0  0  0  0
  2  4  1  0
  3  2  2  0
  3  5  1  0
  4  1  1  0
  4  6  2  0
  5  7  2  0
  6 10  1  0
  7  6  1  0
 10  9  1  0
 10  8  1  0
 11  5  1  0
 11 13  1  1
 12 11  1  0
 14 20  1  0
 14 11  1  0
 15 20  1  0
 16 17  1  0
 16 15  1  0
 18 17  1  0
 18 25  1  0
 18 19  1  0
 20 19  1  0
 21 14  2  0
 22 23  2  0
 23 42  1  0
 24 27  1  0
 24 23  1  0
 25 26  1  0
 25 22  1  0
 26 24  2  0
 27 28  1  0
 28 29  2  0
 30 33  1  0
 30 29  1  0
 31 30  2  0
 32 31  1  0
 32 27  2  0
 33 34  1  0
 34 39  2  0
 34 35  1  0
 35 36  2  0
 36 37  1  0
 37 41  1  0
 38 37  2  0
 39 38  1  0
 40 39  1  0
 42 43  1  0
 43 45  1  0
 43 46  1  0
 44 42  2  0
 47 22  1  0
 47 48  1  0
 49 47  1  0
 50 51  1  0
 50  1  1  0
 51 52  1  0
 53 51  1  0
 54 55  1  0
 54 51  1  0
 56 57  1  0
 56 55  1  0
 58 60  1  0
 58 57  1  0
 59 70  2  0
 60 65  1  0
 61 71  1  0
 61 69  1  0
 62 68  1  0
 62 64  1  0
 63 69  1  0
 64 63  1  0
 65 64  2  0
 66 67  1  0
 66 60  2  0
 67 62  2  0
 68 61  1  0
 69 59  1  0
 71 73  2  0
 72 71  1  0
 74 72  1  0
 75 80  1  0
 76 72  1  0
 77 76  1  0
 78 79  1  0
 78 77  1  0
 79 75  1  0
 80 76  1  0
 80 81  2  0
 82 81  1  0
 83 82  2  0
 84 75  2  0
 84 83  1  0
 85 59  1  0
 85 86  1  0
 85 90  1  0
 86 87  1  1
 86 89  1  0
 88 86  1  0
 90 93  1  0
 91 90  1  0
 91 95  1  0
 92 91  2  0
 95 94  1  0
 95 97  1  0
 97 98  1  0
 97 96  1  0
M  ISO  4  11 100  14 100  57 101  58 101
M  END
>  <TORSDO>  (94) 
F 25

>  <SCORE>  (94) 
0.736

>  <name>  (94) 
93

>  <ligand_id>  (94) 
93

>  <original_smiles>  (94) 
[H]c1c(C(F)(F)C(=O)N2C([H])([H])C([H])([H])C([H])([H])C([H])(n3nc(-c4c([H])c([H])c(Oc5c([H])c([H])c(F)c([H])c5F)c([H])c4[H])c(C(=O)N([H])[H])c3N([H])[H])C2([H])[H])nc(C([H])(C([H])([H])[H])C([H])([H])[H])c(C([H])([H])C([H])([H])[N+]([H])([H])C([H])([H])C([H])([H])C([H])([H])C([H])([H])Oc2c([H])c([H])c3c(c2[H])C([H])([H])N(C(=O)C([H])(N([H])C(=O)C([H])(N([H])C([H])([H])[H])C([H])([H])[H])C(C([H])([H])[H])(C([H])([H])[H])C([H])([H])[H])C([H])(C(=O)N([H])C2([H])c4c([H])c([H])c([H])c([H])c4C([H])([H])C([H])([H])C2([H])[H])C3([H])[H])c1[H]

>  <smiles>  (94) 
[H]c1c(C(F)(F)C(=O)N2C([H])([H])C([H])([H])C([H])([H])C([H])(n3nc(-c4c([H])c([H])c(Oc5c([H])c([H])c(F)c([H])c5F)c([H])c4[H])c(C(=O)N([H])[H])c3N([H])[H])C2([H])[H])nc(C([H])(C([H])([H])[H])C([H])([H])[H])c(C([H])([H])C([H])([H])[N+]([H])([H])C([H])([H])C([H])([H])C([H])([H])C([H])([H])Oc2c([H])c([H])c3c(c2[H])C([H])([H])N(C(=O)C([H])(N([H])C(=O)C([H])(N([H])C([H])([H])[H])C([H])([H])[H])C(C([H])([H])[H])(C([H])([H])[H])C([H])([H])[H])C([H])(C(=O)N([H])C2([H])c4c([H])c([H])c([H])c([H])c4C([H])([H])C([H])([H])C2([H])[H])C3([H])[H])c1[H]

$$$$
