0:0:0
     RDKit          3D

 90 98  0  0  1  0  0  0  0  0999 V2000
  -28.6130  -20.3800   20.8660 C   0  0  0  0  0  3  0  0  0  0  0  0
  -30.4320  -21.3640   20.2260 C   0  0  0  0  0  3  0  0  0  0  0  0
  -29.4840  -19.4210   20.3810 C   0  0  0  0  0  0  0  0  0  0  0  0
  -30.6490  -20.0720   19.9660 N   0  0  0  0  0  0  0  0  0  0  0  0
  -29.2290  -21.6330   20.7580 N   0  0  0  0  0  0  0  0  0  0  0  0
  -29.1840  -17.5390   18.7280 C   0  0  0  0  0  1  0  0  0  0  0  0
  -29.2610  -17.9140   20.2190 C   0  0  0  0  0  3  0  0  0  0  0  0
  -30.2680  -17.0040   20.9910 C   0  0  0  0  0  2  0  0  0  0  0  0
  -30.6550  -14.5440   20.4490 C   0  0  0  0  0  0  0  0  0  0  0  0
  -30.3750  -12.3830   19.2870 C   0  0  0  0  0  2  0  0  0  0  0  0
  -29.4240  -12.5900   18.0890 C   0  0  0  0  0  2  0  0  0  0  0  0
  -27.9520  -12.4460   18.5240 C   0  0  0  0  0  2  0  0  0  0  0  0
  -27.6200  -13.2660   19.8000 C   0  0  0  0  0  3  0  0  0  0  0  0
  -28.6820  -13.0350   20.8990 C   0  0  0  0  0  2  0  0  0  0  0  0
  -30.0000  -13.3570   20.3240 N   0  0  0  0  0  0  0  0  0  0  0  0
  -31.7870  -14.7310   19.9940 O   0  0  0  0  0  0  0  0  0  0  0  0
  -29.9220  -15.5610   20.9510 N   0  0  0  0  0  0  0  0  0  0  0  0
  -29.0040  -15.3110   21.2870 H   0  0  0  0  0  0  0  0  0  0  0  0
  -25.2220  -13.8650   20.5140 C   0  0  0  0  0  0  0  0  0  0  0  0
  -24.1560  -13.0900   20.8860 C   0  0  0  0  0  0  0  0  0  0  0  0
  -24.6220  -11.7400   20.8540 C   0  0  0  0  0  0  0  0  0  0  0  0
  -26.2690  -12.9870   20.2820 N   0  0  0  0  0  0  0  0  0  0  0  0
  -25.9120  -11.7030   20.5440 N   0  0  0  0  0  0  0  0  0  0  0  0
  -23.8990  -10.4750   21.0460 C   0  0  0  0  0  0  0  0  0  0  0  0
  -24.3400   -9.5060   21.9750 C   0  0  0  0  0  3  0  0  0  0  0  0
  -23.6190   -8.3060   22.1550 C   0  0  0  0  0  3  0  0  0  0  0  0
  -22.4420   -8.0670   21.4070 C   0  0  0  0  0  0  0  0  0  0  0  0
  -22.0210   -9.0240   20.4660 C   0  0  0  0  0  3  0  0  0  0  0  0
  -22.7420  -10.2160   20.2850 C   0  0  0  0  0  3  0  0  0  0  0  0
  -21.6910   -6.9200   21.4950 O   0  0  0  0  0  0  0  0  0  0  0  0
  -21.6540   -6.1720   22.6440 C   0  0  0  0  0  0  0  0  0  0  0  0
  -21.2400   -6.7200   23.8780 C   0  0  0  0  0  3  0  0  0  0  0  0
  -21.1510   -5.8980   25.0200 C   0  0  0  0  0  3  0  0  0  0  0  0
  -21.4650   -4.5290   24.9280 C   0  0  0  0  0  0  0  0  0  0  0  0
  -21.8730   -3.9800   23.6990 C   0  0  0  0  0  3  0  0  0  0  0  0
  -21.9640   -4.7990   22.5600 C   0  0  0  0  0  0  0  0  0  0  0  0
  -22.3360   -4.2610   21.3740 F   0  0  0  0  0  0  0  0  0  0  0  0
  -21.3730   -3.7360   26.0210 F   0  0  0  0  0  0  0  0  0  0  0  0
  -22.7590  -13.5640   21.1620 C   0  0  0  0  0  0  0  0  0  0  0  0
  -22.0350  -12.8630   22.0280 N   0  0  0  0  0  0  0  0  0  0  0  0
  -22.3170  -14.5890   20.6460 O   0  0  0  0  0  0  0  0  0  0  0  0
  -22.4060  -12.0330   22.4680 H   0  0  0  0  0  0  0  0  0  0  0  0
  -21.0960  -13.1600   22.2540 H   0  0  0  0  0  0  0  0  0  0  0  0
  -25.3830  -15.2350   20.3320 N   0  0  0  0  0  0  0  0  0  0  0  0
  -24.6130  -15.8880   20.4310 H   0  0  0  0  0  0  0  0  0  0  0  0
  -26.2250  -15.6690   19.9780 H   0  0  0  0  0  0  0  0  0  0  0  0
  -28.7050  -22.9210   21.2460 C   0  0  0  0  0  2  0  0  0  0  0  0
  -28.8540  -24.1640   20.3140 C   0  0  0  0  0  2  0  0  0  0  0  0
  -28.3050  -25.4610   20.9830 C   0  0  0  0  0  2  0  0  0  0  0  0
  -28.4070  -26.6720   20.2000 O   0  0  0  0  0  0  0  0  0  0  0  0
  -24.6020  -31.9040   23.2450 C   0  0  0  0  0  0  0  0  0  0  0  0
  -27.2620  -27.4460   20.1880 C   0  0  0  0  0  0  0  0  0  0  0  0
  -23.4060  -30.4990   21.5980 C   0  0  0  0  0  3  0  0  0  0  0  0
  -24.8700  -28.9610   20.1800 C   0  0  0  0  0  0  0  0  0  0  0  0
  -25.9340  -30.8590   21.4110 C   0  0  0  0  0  2  0  0  0  0  0  0
  -26.0270  -29.4860   20.7720 C   0  0  0  0  0  0  0  0  0  0  0  0
  -27.2300  -28.7380   20.7680 C   0  0  0  0  0  3  0  0  0  0  0  0
  -26.0910  -26.9400   19.5870 C   0  0  0  0  0  3  0  0  0  0  0  0
  -24.8980  -27.6890   19.5820 C   0  0  0  0  0  3  0  0  0  0  0  0
  -23.6250  -29.8190   20.2200 C   0  0  0  0  0  2  0  0  0  0  0  0
  -24.6650  -31.1020   22.1430 N   0  0  0  0  0  0  0  0  0  0  0  0
  -23.5180  -32.1750   23.7800 O   0  0  0  0  0  0  0  0  0  0  0  0
  -22.7500  -29.4790   22.5570 C   0  0  0  0  0  0  0  0  0  0  0  0
  -21.4250  -29.3020   22.4300 N   0  0  0  0  0  0  0  0  0  0  0  0
  -23.4310  -28.8490   23.3710 O   0  0  0  0  0  0  0  0  0  0  0  0
  -20.9370  -29.8620   21.7450 H   0  0  0  0  0  0  0  0  0  0  0  0
  -18.0450  -28.1240   22.9290 C   0  0  0  0  0  0  0  0  0  0  0  0
  -20.6040  -28.3660   23.1980 C   0  0  0  0  0  3  0  0  0  0  0  0
  -20.6980  -26.9370   22.6150 C   0  0  0  0  0  2  0  0  0  0  0  0
  -19.5930  -26.6250   21.6010 C   0  0  0  0  0  2  0  0  0  0  0  0
  -18.2120  -26.7770   22.2470 C   0  0  0  0  0  2  0  0  0  0  0  0
  -19.1680  -28.8770   23.3610 C   0  0  0  0  0  0  0  0  0  0  0  0
  -18.9580  -30.1400   23.9570 C   0  0  0  0  0  3  0  0  0  0  0  0
  -17.6560  -30.6480   24.1270 C   0  0  0  0  0  3  0  0  0  0  0  0
  -16.5470  -29.8920   23.7100 C   0  0  0  0  0  3  0  0  0  0  0  0
  -16.7430  -28.6310   23.1170 C   0  0  0  0  0  3  0  0  0  0  0  0
  -25.8840  -32.5370   23.8700 C   0  0  0  0  0  3  0  0  0  0  0  0
  -25.5730  -33.9360   24.1960 N   0  0  0  0  0  0  0  0  0  0  0  0
  -25.9110  -34.9870   23.4360 C   0  0  0  0  0  0  0  0  0  0  0  0
  -26.5860  -34.8810   22.4100 O   0  0  0  0  0  0  0  0  0  0  0  0
  -24.9740  -34.0920   24.9930 H   0  0  0  0  0  0  0  0  0  0  0  0
  -24.1850  -36.7790   23.0650 C   0  0  0  0  0  1  0  0  0  0  0  0
  -25.4200  -36.3760   23.8880 C   0  0  0  0  0  3  0  0  0  0  0  0
  -27.5480  -37.2610   24.7330 C   0  0  0  0  0  1  0  0  0  0  0  0
  -26.4540  -37.4280   23.7800 N   0  0  0  0  0  0  0  0  0  0  0  0
  -26.0470  -38.3490   23.9230 H   0  0  0  0  0  0  0  0  0  0  0  0
  -26.3970  -31.7680   25.1490 C   0  0  1  0  0  0  0  0  0  0  0  0
  -25.3010  -31.5310   26.2130 C   0  0  0  0  0  1  0  0  0  0  0  0
  -26.9830  -30.3910   24.7570 C   0  0  0  0  0  1  0  0  0  0  0  0
  -27.5460  -32.5640   25.8140 C   0  0  0  0  0  1  0  0  0  0  0  0
  2  5  1  0
  3  1  2  0
  4  2  2  0
  4  3  1  0
  5  1  1  0
  5 47  1  0
  7  6  1  0
  7  3  1  0
  7  8  1  0
  9 17  1  0
 10 15  1  0
 11 12  1  0
 11 10  1  0
 13 12  1  0
 13 22  1  0
 13 14  1  0
 15  9  1  0
 15 14  1  0
 16  9  2  0
 17  8  1  0
 17 18  1  0
 19 20  2  0
 20 39  1  0
 21 20  1  0
 21 24  1  0
 22 19  1  0
 22 23  1  0
 23 21  2  0
 24 25  1  0
 25 26  2  0
 27 30  1  0
 27 26  1  0
 28 27  2  0
 29 28  1  0
 29 24  2  0
 30 31  1  0
 31 32  1  0
 32 33  2  0
 34 33  1  0
 34 38  1  0
 35 34  2  0
 36 31  2  0
 36 35  1  0
 37 36  1  0
 39 40  1  0
 40 43  1  0
 40 42  1  0
 41 39  2  0
 44 45  1  0
 44 19  1  0
 46 44  1  0
 48 49  1  0
 48 47  1  0
 50 49  1  0
 51 62  2  0
 52 50  1  0
 52 57  1  0
 53 61  1  0
 53 63  1  0
 54 60  1  0
 54 56  1  0
 55 61  1  0
 56 55  1  0
 57 56  2  0
 58 52  2  0
 59 58  1  0
 59 54  2  0
 60 53  1  0
 61 51  1  0
 63 65  2  0
 64 63  1  0
 66 64  1  0
 67 76  2  0
 67 72  1  0
 68 64  1  0
 68 72  1  0
 69 68  1  0
 70 71  1  0
 70 69  1  0
 71 67  1  0
 72 73  2  0
 73 74  1  0
 75 74  2  0
 76 75  1  0
 77 51  1  0
 77 78  1  0
 77 87  1  0
 78 81  1  0
 79 83  1  0
 79 78  1  0
 80 79  2  0
 83 82  1  0
 85 83  1  0
 85 86  1  0
 85 84  1  0
 87 90  1  1
 87 88  1  0
 89 87  1  0
M  ISO  4   9 100  17 100  49 101  50 101
M  END
>  <TORSDO>  (1) 
F 21

>  <SCORE>  (1) 
-13.679

>  <name>  (1) 
0

>  <ligand_id>  (1) 
0

>  <original_smiles>  (1) 
[H]c1c([H])c([H])c2c(c1[H])C([H])([H])C([H])([H])C([H])([H])C2([H])N([H])C(=O)C1([H])N(C(=O)C([H])(N([H])C(=O)C([H])(N([H])C([H])([H])[H])C([H])([H])[H])C(C([H])([H])[H])(C([H])([H])[H])C([H])([H])[H])C([H])([H])c2c([H])c(OC([H])([H])C([H])([H])C([H])([H])n3c([H])nc(C([H])(C([H])([H])[H])C([H])([H])N([H])C(=O)N4C([H])([H])C([H])([H])C([H])([H])C([H])(n5nc(-c6c([H])c([H])c(Oc7c([H])c([H])c(F)c([H])c7F)c([H])c6[H])c(C(=O)N([H])[H])c5N([H])[H])C4([H])[H])c3[H])c([H])c([H])c2C1([H])[H]

>  <smiles>  (1) 
[H]c1c([H])c([H])c2c(c1[H])C([H])([H])C([H])([H])C([H])([H])C2([H])N([H])C(=O)C1([H])N(C(=O)C([H])(N([H])C(=O)C([H])(N([H])C([H])([H])[H])C([H])([H])[H])C(C([H])([H])[H])(C([H])([H])[H])C([H])([H])[H])C([H])([H])c2c([H])c(OC([H])([H])C([H])([H])C([H])([H])n3c([H])nc(C([H])(C([H])([H])[H])C([H])([H])N([H])C(=O)N4C([H])([H])C([H])([H])C([H])([H])C([H])(n5nc(-c6c([H])c([H])c(Oc7c([H])c([H])c(F)c([H])c7F)c([H])c6[H])c(C(=O)N([H])[H])c5N([H])[H])C4([H])[H])c3[H])c([H])c([H])c2C1([H])[H]

$$$$
1:0:0
     RDKit          3D

 91 99  0  0  1  0  0  0  0  0999 V2000
  -28.2700  -20.8060   18.3860 C   0  0  0  0  0  3  0  0  0  0  0  0
  -28.7920  -20.4420   19.6450 C   0  0  0  0  0  0  0  0  0  0  0  0
  -29.2190  -18.9730   19.6740 C   0  0  0  0  0  0  0  0  0  0  0  0
  -28.6080  -18.7830   17.4370 C   0  0  0  0  0  0  0  0  0  0  0  0
  -28.5250  -17.9020   16.2090 C   0  0  0  0  0  1  0  0  0  0  0  0
  -28.1750  -20.0140   17.3130 N   0  0  0  0  0  0  0  0  0  0  0  0
  -29.1050  -18.2520   18.5350 N   0  0  0  0  0  0  0  0  0  0  0  0
  -31.3100  -18.2300   21.0690 C   0  0  0  0  0  1  0  0  0  0  0  0
  -29.8540  -17.8840   20.7230 C   0  0  0  0  0  3  0  0  0  0  0  0
  -30.5410  -15.1650   20.2660 C   0  0  0  0  0  0  0  0  0  0  0  0
  -30.4340  -12.8380   19.2400 C   0  0  0  0  0  2  0  0  0  0  0  0
  -29.4710  -12.8480   18.0320 C   0  0  0  0  0  2  0  0  0  0  0  0
  -28.0090  -12.6440   18.4840 C   0  0  0  0  0  2  0  0  0  0  0  0
  -27.6440  -13.4900   19.7350 C   0  0  0  0  0  3  0  0  0  0  0  0
  -28.7330  -13.4350   20.8220 C   0  0  0  0  0  2  0  0  0  0  0  0
  -29.9750  -13.8930   20.1890 N   0  0  0  0  0  0  0  0  0  0  0  0
  -31.7410  -15.2590   19.9780 O   0  0  0  0  0  0  0  0  0  0  0  0
  -29.7160  -16.3050   20.4910 N   0  0  0  0  0  0  0  0  0  0  0  0
  -28.7470  -16.0410   20.5410 H   0  0  0  0  0  0  0  0  0  0  0  0
  -25.2840  -14.0230   20.5580 C   0  0  0  0  0  0  0  0  0  0  0  0
  -24.2370  -13.2280   20.9350 C   0  0  0  0  0  0  0  0  0  0  0  0
  -24.7120  -11.8840   20.8520 C   0  0  0  0  0  0  0  0  0  0  0  0
  -26.3260  -13.1620   20.2600 N   0  0  0  0  0  0  0  0  0  0  0  0
  -25.9930  -11.8680   20.5040 N   0  0  0  0  0  0  0  0  0  0  0  0
  -24.0000  -10.6110   21.0260 C   0  0  0  0  0  0  0  0  0  0  0  0
  -24.4500   -9.6290   21.9370 C   0  0  0  0  0  3  0  0  0  0  0  0
  -23.7340   -8.4240   22.1010 C   0  0  0  0  0  3  0  0  0  0  0  0
  -22.5550   -8.1900   21.3550 C   0  0  0  0  0  0  0  0  0  0  0  0
  -22.1270   -9.1580   20.4300 C   0  0  0  0  0  3  0  0  0  0  0  0
  -22.8430  -10.3550   20.2640 C   0  0  0  0  0  3  0  0  0  0  0  0
  -21.8100   -7.0370   21.4290 O   0  0  0  0  0  0  0  0  0  0  0  0
  -21.7580   -6.2860   22.5760 C   0  0  0  0  0  0  0  0  0  0  0  0
  -21.2890   -6.8200   23.7960 C   0  0  0  0  0  3  0  0  0  0  0  0
  -21.1870   -5.9940   24.9330 C   0  0  0  0  0  3  0  0  0  0  0  0
  -21.5450   -4.6340   24.8520 C   0  0  0  0  0  0  0  0  0  0  0  0
  -22.0060   -4.1000   23.6350 C   0  0  0  0  0  3  0  0  0  0  0  0
  -22.1100   -4.9230   22.5000 C   0  0  0  0  0  0  0  0  0  0  0  0
  -22.5350   -4.3970   21.3260 F   0  0  0  0  0  0  0  0  0  0  0  0
  -21.4390   -3.8380   25.9400 F   0  0  0  0  0  0  0  0  0  0  0  0
  -22.8440  -13.6860   21.2540 C   0  0  0  0  0  0  0  0  0  0  0  0
  -22.1440  -12.9600   22.1180 N   0  0  0  0  0  0  0  0  0  0  0  0
  -22.3860  -14.7200   20.7720 O   0  0  0  0  0  0  0  0  0  0  0  0
  -22.5310  -12.1270   22.5360 H   0  0  0  0  0  0  0  0  0  0  0  0
  -21.2070  -13.2420   22.3690 H   0  0  0  0  0  0  0  0  0  0  0  0
  -25.4280  -15.4020   20.4170 N   0  0  0  0  0  0  0  0  0  0  0  0
  -24.6580  -16.0390   20.5850 H   0  0  0  0  0  0  0  0  0  0  0  0
  -26.2430  -15.8640   20.0360 H   0  0  0  0  0  0  0  0  0  0  0  0
  -28.7120  -21.7600   20.6620 C   0  0  0  0  0  2  0  0  0  0  0  0
  -28.4400  -23.3840   20.1220 C   0  0  0  0  0  3  0  0  0  0  0  0
  -28.1540  -24.8230   20.9870 C   0  0  0  0  0  3  0  0  0  0  0  0
  -28.2890  -26.3260   20.5380 O   0  0  0  0  0  0  0  0  0  0  0  0
  -24.5900  -32.0650   23.3990 C   0  0  0  0  0  0  0  0  0  0  0  0
  -27.2160  -27.2920   20.5060 C   0  0  0  0  0  0  0  0  0  0  0  0
  -23.4190  -30.6430   21.7580 C   0  0  0  0  0  3  0  0  0  0  0  0
  -24.8930  -29.0420   20.3870 C   0  0  0  0  0  0  0  0  0  0  0  0
  -25.9770  -30.9050   21.6370 C   0  0  0  0  0  2  0  0  0  0  0  0
  -26.0600  -29.5020   21.0080 C   0  0  0  0  0  0  0  0  0  0  0  0
  -27.2280  -28.6480   21.0360 C   0  0  0  0  0  3  0  0  0  0  0  0
  -26.0250  -26.9310   19.8460 C   0  0  0  0  0  3  0  0  0  0  0  0
  -24.8900  -27.7720   19.7850 C   0  0  0  0  0  3  0  0  0  0  0  0
  -23.6660  -29.9430   20.3950 C   0  0  0  0  0  2  0  0  0  0  0  0
  -24.6810  -31.2270   22.3200 N   0  0  0  0  0  0  0  0  0  0  0  0
  -23.4940  -32.3550   23.9030 O   0  0  0  0  0  0  0  0  0  0  0  0
  -22.7250  -29.6500   22.7240 C   0  0  0  0  0  0  0  0  0  0  0  0
  -21.4050  -29.4500   22.5570 N   0  0  0  0  0  0  0  0  0  0  0  0
  -23.3770  -29.0620   23.5900 O   0  0  0  0  0  0  0  0  0  0  0  0
  -20.9300  -29.9820   21.8410 H   0  0  0  0  0  0  0  0  0  0  0  0
  -18.0370  -28.1810   22.9630 C   0  0  0  0  0  0  0  0  0  0  0  0
  -20.5760  -28.5160   23.3250 C   0  0  0  0  0  3  0  0  0  0  0  0
  -20.7360  -27.0680   22.8050 C   0  0  0  0  0  2  0  0  0  0  0  0
  -19.6860  -26.6830   21.7590 C   0  0  0  0  0  2  0  0  0  0  0  0
  -18.2750  -26.8160   22.3390 C   0  0  0  0  0  2  0  0  0  0  0  0
  -19.1190  -28.9840   23.4140 C   0  0  0  0  0  0  0  0  0  0  0  0
  -18.8430  -30.2570   23.9590 C   0  0  0  0  0  3  0  0  0  0  0  0
  -17.5210  -30.7280   24.0570 C   0  0  0  0  0  3  0  0  0  0  0  0
  -16.4540  -29.9220   23.6230 C   0  0  0  0  0  3  0  0  0  0  0  0
  -16.7130  -28.6500   23.0820 C   0  0  0  0  0  3  0  0  0  0  0  0
  -25.8560  -32.7120   24.0390 C   0  0  0  0  0  3  0  0  0  0  0  0
  -26.3220  -31.9890   25.3620 C   0  0  1  0  0  0  0  0  0  0  0  0
  -25.1820  -31.7820   26.3880 C   0  0  0  0  0  1  0  0  0  0  0  0
  -26.9320  -30.6030   25.0490 C   0  0  0  0  0  1  0  0  0  0  0  0
  -27.4360  -32.8150   26.0470 C   0  0  0  0  0  1  0  0  0  0  0  0
  -25.5490  -34.1230   24.3120 N   0  0  0  0  0  0  0  0  0  0  0  0
  -25.9010  -35.1500   23.5270 C   0  0  0  0  0  0  0  0  0  0  0  0
  -26.5840  -35.0080   22.5110 O   0  0  0  0  0  0  0  0  0  0  0  0
  -24.9460  -34.3110   25.0990 H   0  0  0  0  0  0  0  0  0  0  0  0
  -24.1860  -36.9420   23.1020 C   0  0  0  0  0  1  0  0  0  0  0  0
  -25.4200  -36.5570   23.9330 C   0  0  0  0  0  3  0  0  0  0  0  0
  -27.5530  -37.4640   24.7490 C   0  0  0  0  0  1  0  0  0  0  0  0
  -26.4600  -37.6000   23.7910 N   0  0  0  0  0  0  0  0  0  0  0  0
  -26.0560  -38.5260   23.8980 H   0  0  0  0  0  0  0  0  0  0  0  0
  1  2  2  0
  2  3  1  0
  2 48  1  0
  3  9  1  0
  4  7  1  0
  5  4  1  0
  6  4  2  0
  6  1  1  0
  7  3  2  0
  9  8  1  0
 10 18  1  0
 11 16  1  0
 12 13  1  0
 12 11  1  0
 14 13  1  0
 14 23  1  0
 14 15  1  0
 16 10  1  0
 16 15  1  0
 17 10  2  0
 18 19  1  0
 18  9  1  0
 20 21  2  0
 21 40  1  0
 22 21  1  0
 22 25  1  0
 23 24  1  0
 23 20  1  0
 24 22  2  0
 25 26  1  0
 26 27  2  0
 28 31  1  0
 28 27  1  0
 29 28  2  0
 30 29  1  0
 30 25  2  0
 31 32  1  0
 32 33  1  0
 33 34  2  0
 35 34  1  0
 35 39  1  0
 36 35  2  0
 37 32  2  0
 37 36  1  0
 38 37  1  0
 40 41  1  0
 41 44  1  0
 41 43  1  0
 42 40  2  0
 45 20  1  0
 45 46  1  0
 47 45  1  0
 49 48  1  0
 49 50  2  0
 51 50  1  0
 52 63  2  0
 53 51  1  0
 53 58  1  0
 54 62  1  0
 54 64  1  0
 55 61  1  0
 55 57  1  0
 56 62  1  0
 57 58  2  0
 57 56  1  0
 59 53  2  0
 60 59  1  0
 60 55  2  0
 61 54  1  0
 62 52  1  0
 64 66  2  0
 65 64  1  0
 67 65  1  0
 68 77  2  0
 68 73  1  0
 69 65  1  0
 69 73  1  0
 70 69  1  0
 71 72  1  0
 71 70  1  0
 72 68  1  0
 73 74  2  0
 74 75  1  0
 76 75  2  0
 77 76  1  0
 78 52  1  0
 78 83  1  0
 78 79  1  0
 79 82  1  1
 79 80  1  0
 81 79  1  0
 83 86  1  0
 84 88  1  0
 84 83  1  0
 85 84  2  0
 88 87  1  0
 90 91  1  0
 90 88  1  0
 90 89  1  0
M  ISO  4  10 100  18 100  50 101  51 101
M  END
>  <TORSDO>  (2) 
F 20

>  <SCORE>  (2) 
-14.117

>  <name>  (2) 
1

>  <ligand_id>  (2) 
1

>  <original_smiles>  (2) 
[H]c1nc(C([H])([H])[H])nc(C([H])(N([H])C(=O)N2C([H])([H])C([H])([H])C([H])([H])C([H])(n3nc(-c4c([H])c([H])c(Oc5c([H])c([H])c(F)c([H])c5F)c([H])c4[H])c(C(=O)N([H])[H])c3N([H])[H])C2([H])[H])C([H])([H])[H])c1C([H])([H])C([H])([H])C([H])([H])Oc1c([H])c([H])c2c(c1[H])C([H])([H])N(C(=O)C([H])(N([H])C(=O)C([H])(N([H])C([H])([H])[H])C([H])([H])[H])C(C([H])([H])[H])(C([H])([H])[H])C([H])([H])[H])C([H])(C(=O)N([H])C1([H])c3c([H])c([H])c([H])c([H])c3C([H])([H])C([H])([H])C1([H])[H])C2([H])[H]

>  <smiles>  (2) 
[H]c1nc(C([H])([H])[H])nc(C([H])(N([H])C(=O)N2C([H])([H])C([H])([H])C([H])([H])C([H])(n3nc(-c4c([H])c([H])c(Oc5c([H])c([H])c(F)c([H])c5F)c([H])c4[H])c(C(=O)N([H])[H])c3N([H])[H])C2([H])[H])C([H])([H])[H])c1C([H])([H])C([H])([H])C([H])([H])Oc1c([H])c([H])c2c(c1[H])C([H])([H])N(C(=O)C([H])(N([H])C(=O)C([H])(N([H])C([H])([H])[H])C([H])([H])[H])C(C([H])([H])[H])(C([H])([H])[H])C([H])([H])[H])C([H])(C(=O)N([H])C1([H])c3c([H])c([H])c([H])c([H])c3C([H])([H])C([H])([H])C1([H])[H])C2([H])[H]

$$$$
4:0:0
     RDKit          3D

 92100  0  0  1  0  0  0  0  0999 V2000
  -28.9360  -21.8060   20.1940 C   0  0  0  0  0  3  0  0  0  0  0  0
  -28.9690  -23.2710   19.8640 C   0  0  0  0  0  0  0  0  0  0  0  0
  -29.7480  -20.7840   19.4730 C   0  0  0  0  0  0  0  0  0  0  0  0
  -30.4540  -22.6610   18.2090 C   0  0  0  0  0  0  0  0  0  0  0  0
  -31.3030  -23.1000   17.0340 C   0  0  0  0  0  1  0  0  0  0  0  0
  -29.7750  -23.6130   18.8410 N   0  0  0  0  0  0  0  0  0  0  0  0
  -30.4520  -21.3550   18.4650 N   0  0  0  0  0  0  0  0  0  0  0  0
  -31.3330  -18.7450   18.8130 C   0  0  0  0  0  1  0  0  0  0  0  0
  -29.9180  -19.0790   19.3770 C   0  0  0  0  0  3  0  0  0  0  0  0
  -28.2100  -18.0450   20.9700 C   0  0  0  0  0  1  0  0  0  0  0  0
  -30.5710  -18.0020   21.6920 C   0  0  0  0  0  1  0  0  0  0  0  0
  -29.6520  -17.8010   20.4680 C   0  0  2  0  0  0  0  0  0  0  0  0
  -30.4930  -15.0610   19.9460 C   0  0  0  0  0  0  0  0  0  0  0  0
  -30.3490  -12.7200   18.9380 C   0  0  0  0  0  2  0  0  0  0  0  0
  -29.3400  -12.6670   17.7700 C   0  0  0  0  0  2  0  0  0  0  0  0
  -27.9120  -12.4280   18.2990 C   0  0  0  0  0  2  0  0  0  0  0  0
  -27.5620  -13.3400   19.5020 C   0  0  0  0  0  3  0  0  0  0  0  0
  -28.6820  -13.3520   20.5600 C   0  0  0  0  0  2  0  0  0  0  0  0
  -29.9050  -13.7940   19.8750 N   0  0  0  0  0  0  0  0  0  0  0  0
  -31.7000  -15.1280   19.6960 O   0  0  0  0  0  0  0  0  0  0  0  0
  -29.6600  -16.2230   20.0950 N   0  0  0  0  0  0  0  0  0  0  0  0
  -28.7110  -15.8900   20.0820 H   0  0  0  0  0  0  0  0  0  0  0  0
  -25.2290  -13.9000   20.3940 C   0  0  0  0  0  0  0  0  0  0  0  0
  -24.1880  -13.1140   20.8090 C   0  0  0  0  0  0  0  0  0  0  0  0
  -24.6570  -11.7660   20.7370 C   0  0  0  0  0  0  0  0  0  0  0  0
  -26.2570  -13.0280   20.0790 N   0  0  0  0  0  0  0  0  0  0  0  0
  -25.9270  -11.7380   20.3520 N   0  0  0  0  0  0  0  0  0  0  0  0
  -23.9450  -10.4980   20.9460 C   0  0  0  0  0  0  0  0  0  0  0  0
  -24.4030   -9.5350   21.8720 C   0  0  0  0  0  3  0  0  0  0  0  0
  -23.6850   -8.3350   22.0700 C   0  0  0  0  0  3  0  0  0  0  0  0
  -22.4960   -8.0900   21.3450 C   0  0  0  0  0  0  0  0  0  0  0  0
  -22.0560   -9.0410   20.4070 C   0  0  0  0  0  3  0  0  0  0  0  0
  -22.7750  -10.2320   20.2060 C   0  0  0  0  0  3  0  0  0  0  0  0
  -21.7500   -6.9410   21.4550 O   0  0  0  0  0  0  0  0  0  0  0  0
  -21.7080   -6.2190   22.6200 C   0  0  0  0  0  0  0  0  0  0  0  0
  -21.2780   -6.7920   23.8370 C   0  0  0  0  0  3  0  0  0  0  0  0
  -21.1800   -5.9960   24.9950 C   0  0  0  0  0  3  0  0  0  0  0  0
  -21.5030   -4.6270   24.9390 C   0  0  0  0  0  0  0  0  0  0  0  0
  -21.9300   -4.0540   23.7280 C   0  0  0  0  0  3  0  0  0  0  0  0
  -22.0260   -4.8470   22.5710 C   0  0  0  0  0  0  0  0  0  0  0  0
  -22.4160   -4.2820   21.4020 F   0  0  0  0  0  0  0  0  0  0  0  0
  -21.4020   -3.8600   26.0510 F   0  0  0  0  0  0  0  0  0  0  0  0
  -22.8070  -13.5820   21.1610 C   0  0  0  0  0  0  0  0  0  0  0  0
  -22.1250  -12.8740   22.0560 N   0  0  0  0  0  0  0  0  0  0  0  0
  -22.3430  -14.6140   20.6810 O   0  0  0  0  0  0  0  0  0  0  0  0
  -22.5120  -12.0370   22.4700 H   0  0  0  0  0  0  0  0  0  0  0  0
  -21.2060  -13.1770   22.3400 H   0  0  0  0  0  0  0  0  0  0  0  0
  -25.3760  -15.2730   20.2290 N   0  0  0  0  0  0  0  0  0  0  0  0
  -24.6030  -15.9120   20.3780 H   0  0  0  0  0  0  0  0  0  0  0  0
  -26.1960  -15.7350   19.8610 H   0  0  0  0  0  0  0  0  0  0  0  0
  -28.0930  -24.5660   20.4630 C   0  0  0  0  0  2  0  0  0  0  0  0
  -28.3430  -26.1160   20.2290 O   0  0  0  0  0  0  0  0  0  0  0  0
  -24.6440  -31.8630   23.2030 C   0  0  0  0  0  0  0  0  0  0  0  0
  -27.2750  -27.1060   20.2230 C   0  0  0  0  0  0  0  0  0  0  0  0
  -23.4720  -30.4580   21.5570 C   0  0  0  0  0  3  0  0  0  0  0  0
  -24.9380  -28.8670   20.1670 C   0  0  0  0  0  0  0  0  0  0  0  0
  -26.0290  -30.7180   21.4220 C   0  0  0  0  0  2  0  0  0  0  0  0
  -26.1160  -29.3180   20.7790 C   0  0  0  0  0  0  0  0  0  0  0  0
  -27.2850  -28.4550   20.7820 C   0  0  0  0  0  3  0  0  0  0  0  0
  -26.0680  -26.7700   19.5750 C   0  0  0  0  0  3  0  0  0  0  0  0
  -24.9270  -27.6060   19.5530 C   0  0  0  0  0  3  0  0  0  0  0  0
  -23.7150  -29.7720   20.1870 C   0  0  0  0  0  2  0  0  0  0  0  0
  -24.7340  -31.0380   22.1150 N   0  0  0  0  0  0  0  0  0  0  0  0
  -23.5500  -32.1480   23.7140 O   0  0  0  0  0  0  0  0  0  0  0  0
  -22.7780  -29.4580   22.5180 C   0  0  0  0  0  0  0  0  0  0  0  0
  -21.4510  -29.2860   22.3760 N   0  0  0  0  0  0  0  0  0  0  0  0
  -23.4390  -28.8370   23.3530 O   0  0  0  0  0  0  0  0  0  0  0  0
  -20.9740  -29.8410   21.6780 H   0  0  0  0  0  0  0  0  0  0  0  0
  -18.0660  -28.0720   22.8490 C   0  0  0  0  0  0  0  0  0  0  0  0
  -20.6210  -28.3530   23.1450 C   0  0  0  0  0  3  0  0  0  0  0  0
  -20.7360  -26.9170   22.5840 C   0  0  0  0  0  2  0  0  0  0  0  0
  -19.6490  -26.5790   21.5580 C   0  0  0  0  0  2  0  0  0  0  0  0
  -18.2580  -26.7210   22.1830 C   0  0  0  0  0  2  0  0  0  0  0  0
  -19.1750  -28.8450   23.2860 C   0  0  0  0  0  0  0  0  0  0  0  0
  -18.9390  -30.1080   23.8710 C   0  0  0  0  0  3  0  0  0  0  0  0
  -17.6290  -30.5960   24.0260 C   0  0  0  0  0  3  0  0  0  0  0  0
  -16.5350  -29.8240   23.5990 C   0  0  0  0  0  3  0  0  0  0  0  0
  -16.7550  -28.5640   23.0150 C   0  0  0  0  0  3  0  0  0  0  0  0
  -25.9100  -32.5080   23.8460 C   0  0  0  0  0  3  0  0  0  0  0  0
  -26.4100  -31.7450   25.1340 C   0  0  1  0  0  0  0  0  0  0  0  0
  -25.3030  -31.5050   26.1880 C   0  0  0  0  0  1  0  0  0  0  0  0
  -27.0050  -30.3650   24.7630 C   0  0  0  0  0  1  0  0  0  0  0  0
  -27.5510  -32.5440   25.8040 C   0  0  0  0  0  1  0  0  0  0  0  0
  -25.5840  -33.9060   24.1730 N   0  0  0  0  0  0  0  0  0  0  0  0
  -25.9150  -34.9660   23.4220 C   0  0  0  0  0  0  0  0  0  0  0  0
  -26.5930  -34.8700   22.3970 O   0  0  0  0  0  0  0  0  0  0  0  0
  -24.9790  -34.0530   24.9690 H   0  0  0  0  0  0  0  0  0  0  0  0
  -24.1800  -36.7560   23.0640 C   0  0  0  0  0  1  0  0  0  0  0  0
  -25.4170  -36.3520   23.8820 C   0  0  0  0  0  3  0  0  0  0  0  0
  -27.5410  -37.2480   24.7290 C   0  0  0  0  0  1  0  0  0  0  0  0
  -26.4440  -37.4100   23.7770 N   0  0  0  0  0  0  0  0  0  0  0  0
  -26.0330  -38.3270   23.9230 H   0  0  0  0  0  0  0  0  0  0  0  0
  2  1  2  0
  2 51  1  0
  3  1  1  0
  4  7  1  0
  4  6  2  0
  5  4  1  0
  6  2  1  0
  7  3  2  0
  9  8  1  0
  9  3  1  0
  9 12  1  0
 12 10  1  1
 12 11  1  0
 13 21  1  0
 14 19  1  0
 15 16  1  0
 15 14  1  0
 17 16  1  0
 17 26  1  0
 17 18  1  0
 19 13  1  0
 19 18  1  0
 20 13  2  0
 21 12  1  0
 22 21  1  0
 23 24  2  0
 24 43  1  0
 25 24  1  0
 25 28  1  0
 26 27  1  0
 26 23  1  0
 27 25  2  0
 28 29  1  0
 29 30  2  0
 31 34  1  0
 31 30  1  0
 32 31  2  0
 33 32  1  0
 33 28  2  0
 34 35  1  0
 35 36  1  0
 36 37  2  0
 38 37  1  0
 38 42  1  0
 39 38  2  0
 40 35  2  0
 40 39  1  0
 41 40  1  0
 43 44  1  0
 44 47  1  0
 44 46  1  0
 45 43  2  0
 48 49  1  0
 48 23  1  0
 50 48  1  0
 52 51  1  0
 53 64  2  0
 54 52  1  0
 54 59  1  0
 55 63  1  0
 55 65  1  0
 56 62  1  0
 56 58  1  0
 57 63  1  0
 58 59  2  0
 58 57  1  0
 60 54  2  0
 61 60  1  0
 61 56  2  0
 62 55  1  0
 63 53  1  0
 65 67  2  0
 66 65  1  0
 68 66  1  0
 69 78  2  0
 69 74  1  0
 70 66  1  0
 70 74  1  0
 71 70  1  0
 72 73  1  0
 72 71  1  0
 73 69  1  0
 74 75  2  0
 75 76  1  0
 77 76  2  0
 78 77  1  0
 79 53  1  0
 79 84  1  0
 79 80  1  0
 80 83  1  1
 80 81  1  0
 82 80  1  0
 84 87  1  0
 85 89  1  0
 85 84  1  0
 86 85  2  0
 89 88  1  0
 91 89  1  0
 91 92  1  0
 91 90  1  0
M  ISO  4  13 100  21 100  51 101  52 101
M  END
>  <TORSDO>  (3) 
F 19

>  <SCORE>  (3) 
-14.456

>  <name>  (3) 
4

>  <ligand_id>  (3) 
4

>  <original_smiles>  (3) 
[H]c1c(C([H])([H])Oc2c([H])c([H])c3c(c2[H])C([H])([H])N(C(=O)C([H])(N([H])C(=O)C([H])(N([H])C([H])([H])[H])C([H])([H])[H])C(C([H])([H])[H])(C([H])([H])[H])C([H])([H])[H])C([H])(C(=O)N([H])C2([H])c4c([H])c([H])c([H])c([H])c4C([H])([H])C([H])([H])C2([H])[H])C3([H])[H])nc(C([H])([H])[H])nc1C([H])(C([H])([H])[H])C(N([H])C(=O)N1C([H])([H])C([H])([H])C([H])([H])C([H])(n2nc(-c3c([H])c([H])c(Oc4c([H])c([H])c(F)c([H])c4F)c([H])c3[H])c(C(=O)N([H])[H])c2N([H])[H])C1([H])[H])(C([H])([H])[H])C([H])([H])[H]

>  <smiles>  (3) 
[H]c1c(C([H])([H])Oc2c([H])c([H])c3c(c2[H])C([H])([H])N(C(=O)C([H])(N([H])C(=O)C([H])(N([H])C([H])([H])[H])C([H])([H])[H])C(C([H])([H])[H])(C([H])([H])[H])C([H])([H])[H])C([H])(C(=O)N([H])C2([H])c4c([H])c([H])c([H])c([H])c4C([H])([H])C([H])([H])C2([H])[H])C3([H])[H])nc(C([H])([H])[H])nc1C([H])(C([H])([H])[H])C(N([H])C(=O)N1C([H])([H])C([H])([H])C([H])([H])C([H])(n2nc(-c3c([H])c([H])c(Oc4c([H])c([H])c(F)c([H])c4F)c([H])c3[H])c(C(=O)N([H])[H])c2N([H])[H])C1([H])[H])(C([H])([H])[H])C([H])([H])[H]

$$$$
5:0:0
     RDKit          3D

 99107  0  0  1  0  0  0  0  0999 V2000
  -24.9400  -22.6160   18.6700 C   0  0  0  0  0  3  0  0  0  0  0  0
  -25.4220  -20.6160   17.3490 C   0  0  0  0  0  3  0  0  0  0  0  0
  -26.4850  -20.9270   19.5160 C   0  0  0  0  0  3  0  0  0  0  0  0
  -24.7130  -21.8290   17.5170 C   0  0  0  0  0  0  0  0  0  0  0  0
  -25.8110  -22.1540   19.6830 C   0  0  0  0  0  0  0  0  0  0  0  0
  -26.3360  -20.1700   18.3330 C   0  0  0  0  0  0  0  0  0  0  0  0
  -23.6310  -22.2530   16.5210 C   0  0  0  0  0  2  0  0  0  0  0  0
  -22.9890  -23.4350   14.3490 C   0  0  0  0  0  1  0  0  0  0  0  0
  -24.0950  -23.1940   15.3960 C   0  0  0  0  0  2  0  0  0  0  0  0
  -25.9750  -22.9190   20.9900 C   0  0  0  0  0  2  0  0  0  0  0  0
  -26.4190  -24.3970   20.8790 C   0  0  0  0  0  2  0  0  0  0  0  0
  -27.7440  -24.6290   20.1000 C   0  0  0  0  0  2  0  0  0  0  0  0
  -28.5730  -25.8930   20.4890 C   0  0  0  0  0  2  0  0  0  0  0  0
  -28.4990  -27.0670   19.6550 O   0  0  0  0  0  0  0  0  0  0  0  0
  -24.7250  -31.9660   23.2320 C   0  0  0  0  0  0  0  0  0  0  0  0
  -27.3490  -27.8110   19.7570 C   0  0  0  0  0  0  0  0  0  0  0  0
  -23.5060  -30.6690   21.5170 C   0  0  0  0  0  3  0  0  0  0  0  0
  -24.9450  -29.2780   19.9430 C   0  0  0  0  0  0  0  0  0  0  0  0
  -26.0200  -31.0880   21.2890 C   0  0  0  0  0  2  0  0  0  0  0  0
  -26.1120  -29.7750   20.5390 C   0  0  0  0  0  0  0  0  0  0  0  0
  -27.3220  -29.0440   20.4470 C   0  0  0  0  0  3  0  0  0  0  0  0
  -26.1800  -27.3570   19.1190 C   0  0  0  0  0  3  0  0  0  0  0  0
  -24.9720  -28.0680   19.2290 C   0  0  0  0  0  3  0  0  0  0  0  0
  -23.6860  -30.1010   20.0870 C   0  0  0  0  0  2  0  0  0  0  0  0
  -24.7690  -31.2550   22.0680 N   0  0  0  0  0  0  0  0  0  0  0  0
  -23.6510  -32.1710   23.8180 O   0  0  0  0  0  0  0  0  0  0  0  0
  -22.9050  -29.5590   22.4100 C   0  0  0  0  0  0  0  0  0  0  0  0
  -21.5840  -29.3530   22.3020 N   0  0  0  0  0  0  0  0  0  0  0  0
  -23.6240  -28.8930   23.1620 O   0  0  0  0  0  0  0  0  0  0  0  0
  -21.0620  -29.9470   21.6710 H   0  0  0  0  0  0  0  0  0  0  0  0
  -18.2530  -28.0350   22.7680 C   0  0  0  0  0  0  0  0  0  0  0  0
  -20.8060  -28.3390   23.0120 C   0  0  0  0  0  3  0  0  0  0  0  0
  -20.9350  -26.9590   22.3300 C   0  0  0  0  0  2  0  0  0  0  0  0
  -19.8200  -26.6820   21.3150 C   0  0  0  0  0  2  0  0  0  0  0  0
  -18.4500  -26.7420   21.9950 C   0  0  0  0  0  2  0  0  0  0  0  0
  -19.3600  -28.7930   23.2320 C   0  0  0  0  0  0  0  0  0  0  0  0
  -19.1220  -30.0040   23.9190 C   0  0  0  0  0  3  0  0  0  0  0  0
  -17.8100  -30.4580   24.1420 C   0  0  0  0  0  3  0  0  0  0  0  0
  -16.7160  -29.6970   23.6950 C   0  0  0  0  0  3  0  0  0  0  0  0
  -16.9390  -28.4860   23.0140 C   0  0  0  0  0  3  0  0  0  0  0  0
  -26.0140  -32.5780   23.8690 C   0  0  0  0  0  3  0  0  0  0  0  0
  -25.6970  -33.9590   24.2570 N   0  0  0  0  0  0  0  0  0  0  0  0
  -26.0170  -35.0440   23.5390 C   0  0  0  0  0  0  0  0  0  0  0  0
  -26.6800  -34.9880   22.5000 O   0  0  0  0  0  0  0  0  0  0  0  0
  -25.1100  -34.0750   25.0700 H   0  0  0  0  0  0  0  0  0  0  0  0
  -24.2670  -36.8320   23.2830 C   0  0  0  0  0  1  0  0  0  0  0  0
  -25.5240  -36.4090   24.0590 C   0  0  0  0  0  3  0  0  0  0  0  0
  -27.6640  -37.2810   24.8910 C   0  0  0  0  0  1  0  0  0  0  0  0
  -26.5460  -37.4760   23.9710 N   0  0  0  0  0  0  0  0  0  0  0  0
  -26.1340  -38.3850   24.1610 H   0  0  0  0  0  0  0  0  0  0  0  0
  -26.5460  -31.7590   25.1080 C   0  0  1  0  0  0  0  0  0  0  0  0
  -25.4660  -31.4710   26.1760 C   0  0  0  0  0  1  0  0  0  0  0  0
  -27.1330  -30.4030   24.6520 C   0  0  0  0  0  1  0  0  0  0  0  0
  -27.6970  -32.5300   25.7920 C   0  0  0  0  0  1  0  0  0  0  0  0
  -27.1380  -18.8720   18.1470 C   0  0  0  0  0  2  0  0  0  0  0  0
  -29.2510  -20.2510   18.7040 C   0  0  0  0  0  1  0  0  0  0  0  0
  -28.6450  -19.1030   17.8660 C   0  0  0  0  0  3  0  0  0  0  0  0
  -29.5380  -17.8230   17.9130 C   0  0  0  0  0  3  0  0  0  0  0  0
  -30.0050  -17.3270   19.3180 C   0  0  0  0  0  3  0  0  0  0  0  0
  -31.1350  -15.5210   20.5020 C   0  0  0  0  0  0  0  0  0  0  0  0
  -30.9340  -13.2190   19.7860 C   0  0  0  0  0  2  0  0  0  0  0  0
  -30.0740  -13.1800   18.5110 C   0  0  0  0  0  2  0  0  0  0  0  0
  -28.5880  -13.0380   18.8670 C   0  0  0  0  0  2  0  0  0  0  0  0
  -28.1090  -14.0390   19.9510 C   0  0  0  0  0  3  0  0  0  0  0  0
  -29.1060  -14.1240   21.1310 C   0  0  0  0  0  2  0  0  0  0  0  0
  -30.4430  -14.3550   20.5580 N   0  0  0  0  0  0  0  0  0  0  0  0
  -32.2170  -15.6410   21.0560 O   0  0  0  0  0  0  0  0  0  0  0  0
  -30.9900  -16.2170   19.3280 N   0  0  0  0  0  0  0  0  0  0  0  0
  -25.6610  -14.5750   20.5470 C   0  0  0  0  0  0  0  0  0  0  0  0
  -24.5910  -13.7720   20.8190 C   0  0  0  0  0  0  0  0  0  0  0  0
  -25.0840  -12.4310   20.7970 C   0  0  0  0  0  0  0  0  0  0  0  0
  -26.7420  -13.7260   20.3730 N   0  0  0  0  0  0  0  0  0  0  0  0
  -26.3940  -12.4300   20.5910 N   0  0  0  0  0  0  0  0  0  0  0  0
  -24.3760  -11.1460   20.9000 C   0  0  0  0  0  0  0  0  0  0  0  0
  -24.7410  -10.1790   21.8650 C   0  0  0  0  0  3  0  0  0  0  0  0
  -24.0340   -8.9620   21.9590 C   0  0  0  0  0  3  0  0  0  0  0  0
  -22.9470   -8.7030   21.0920 C   0  0  0  0  0  0  0  0  0  0  0  0
  -22.6020   -9.6580   20.1180 C   0  0  0  0  0  3  0  0  0  0  0  0
  -23.3100  -10.8660   20.0200 C   0  0  0  0  0  3  0  0  0  0  0  0
  -22.2190   -7.5380   21.0970 O   0  0  0  0  0  0  0  0  0  0  0  0
  -22.0020   -6.8270   22.2510 C   0  0  0  0  0  0  0  0  0  0  0  0
  -21.3920   -7.4130   23.3820 C   0  0  0  0  0  3  0  0  0  0  0  0
  -21.1270   -6.6290   24.5240 C   0  0  0  0  0  3  0  0  0  0  0  0
  -21.4620   -5.2630   24.5330 C   0  0  0  0  0  0  0  0  0  0  0  0
  -22.0660   -4.6770   23.4070 C   0  0  0  0  0  3  0  0  0  0  0  0
  -22.3330   -5.4580   22.2680 C   0  0  0  0  0  0  0  0  0  0  0  0
  -22.8940   -4.8830   21.1760 F   0  0  0  0  0  0  0  0  0  0  0  0
  -21.2010   -4.5080   25.6270 F   0  0  0  0  0  0  0  0  0  0  0  0
  -23.1620  -14.2070   20.9930 C   0  0  0  0  0  0  0  0  0  0  0  0
  -22.3940  -13.4810   21.7940 N   0  0  0  0  0  0  0  0  0  0  0  0
  -22.7350  -15.2300   20.4560 O   0  0  0  0  0  0  0  0  0  0  0  0
  -22.7490  -12.6530   22.2520 H   0  0  0  0  0  0  0  0  0  0  0  0
  -21.4320  -13.7530   21.9530 H   0  0  0  0  0  0  0  0  0  0  0  0
  -25.8090  -15.9530   20.4020 N   0  0  0  0  0  0  0  0  0  0  0  0
  -25.0280  -16.5930   20.4630 H   0  0  0  0  0  0  0  0  0  0  0  0
  -26.6800  -16.4080   20.1670 H   0  0  0  0  0  0  0  0  0  0  0  0
  -32.9230  -17.7950   18.6970 C   0  0  0  0  0  1  0  0  0  0  0  0
  -32.1590  -16.0000   17.0410 C   0  0  0  0  0  1  0  0  0  0  0  0
  -32.2480  -16.4140   18.5200 C   0  0  0  0  0  3  0  0  0  0  0  0
  1  5  1  0
  2  4  1  0
  2  6  2  0
  3  5  2  0
  4  1  2  0
  5 10  1  0
  6  3  1  0
  7  4  1  0
  8  9  1  0
  9  7  1  0
 11 10  1  0
 12 13  1  0
 12 11  1  0
 14 16  1  0
 14 13  1  0
 15 26  2  0
 16 21  1  0
 17 25  1  0
 17 27  1  0
 18 24  1  0
 18 20  1  0
 19 25  1  0
 20 19  1  0
 21 20  2  0
 22 23  1  0
 22 16  2  0
 23 18  2  0
 24 17  1  0
 25 15  1  0
 27 29  2  0
 28 27  1  0
 30 28  1  0
 31 40  2  0
 31 36  1  0
 32 28  1  0
 32 36  1  0
 33 32  1  0
 34 35  1  0
 34 33  1  0
 35 31  1  0
 36 37  2  0
 37 38  1  0
 39 38  2  0
 40 39  1  0
 41 15  1  0
 41 42  1  0
 41 51  1  0
 42 45  1  0
 43 47  1  0
 43 42  1  0
 44 43  2  0
 47 46  1  0
 49 47  1  0
 49 50  1  0
 49 48  1  0
 51 54  1  1
 51 52  1  0
 53 51  1  0
 55  6  1  0
 57 58  1  0
 57 55  1  0
 57 56  1  0
 58 59  2  0
 59 68  1  0
 60 66  1  0
 60 67  2  0
 61 66  1  0
 62 63  1  0
 62 61  1  0
 64 63  1  0
 64 72  1  0
 64 65  1  0
 66 65  1  0
 68 60  1  0
 69 70  2  0
 70 89  1  0
 71 70  1  0
 71 74  1  0
 72 69  1  0
 72 73  1  0
 73 71  2  0
 74 75  1  0
 75 76  2  0
 77 80  1  0
 77 76  1  0
 78 77  2  0
 79 78  1  0
 79 74  2  0
 80 81  1  0
 81 86  2  0
 81 82  1  0
 82 83  2  0
 83 84  1  0
 84 88  1  0
 85 84  2  0
 86 85  1  0
 87 86  1  0
 89 90  1  0
 90 93  1  0
 90 92  1  0
 91 89  2  0
 94 95  1  0
 94 69  1  0
 96 94  1  0
 98 99  1  0
 99 97  1  0
 99 68  1  0
M  ISO  4  13 101  14 101  60 100  68 100
M  END
>  <TORSDO>  (4) 
F 27

>  <SCORE>  (4) 
-9.613

>  <name>  (4) 
5

>  <ligand_id>  (4) 
5

>  <original_smiles>  (4) 
[H]c1c([H])c([H])c2c(c1[H])C([H])([H])C([H])([H])C([H])([H])C2([H])N([H])C(=O)C1([H])N(C(=O)C([H])(N([H])C(=O)C([H])(N([H])C([H])([H])[H])C([H])([H])[H])C(C([H])([H])[H])(C([H])([H])[H])C([H])([H])[H])C([H])([H])c2c([H])c(OC([H])([H])C([H])([H])C([H])([H])C([H])([H])c3c([H])c(C([H])([H])C([H])([H])C([H])([H])[H])c([H])c(C([H])([H])C([H])(C([H])([H])[H])C([H])([H])C([H])([H])N(C(=O)N4C([H])([H])C([H])([H])C([H])([H])C([H])(n5nc(-c6c([H])c([H])c(Oc7c([H])c([H])c(F)c([H])c7F)c([H])c6[H])c(C(=O)N([H])[H])c5N([H])[H])C4([H])[H])C([H])(C([H])([H])[H])C([H])([H])[H])c3[H])c([H])c([H])c2C1([H])[H]

>  <smiles>  (4) 
[H]c1c([H])c([H])c2c(c1[H])C([H])([H])C([H])([H])C([H])([H])C2([H])N([H])C(=O)C1([H])N(C(=O)C([H])(N([H])C(=O)C([H])(N([H])C([H])([H])[H])C([H])([H])[H])C(C([H])([H])[H])(C([H])([H])[H])C([H])([H])[H])C([H])([H])c2c([H])c(OC([H])([H])C([H])([H])C([H])([H])C([H])([H])c3c([H])c(C([H])([H])C([H])([H])C([H])([H])[H])c([H])c(C([H])([H])C([H])(C([H])([H])[H])C([H])([H])C([H])([H])N(C(=O)N4C([H])([H])C([H])([H])C([H])([H])C([H])(n5nc(-c6c([H])c([H])c(Oc7c([H])c([H])c(F)c([H])c7F)c([H])c6[H])c(C(=O)N([H])[H])c5N([H])[H])C4([H])[H])C([H])(C([H])([H])[H])C([H])([H])[H])c3[H])c([H])c([H])c2C1([H])[H]

$$$$
6:0:0
     RDKit          3D

 96104  0  0  1  0  0  0  0  0999 V2000
  -26.9740  -20.9190   20.6280 C   0  0  0  0  0  3  0  0  0  0  0  0
  -29.6400  -21.1570   20.0460 C   0  0  0  0  0  3  0  0  0  0  0  0
  -27.6670  -19.7710   20.1990 C   0  0  0  0  0  0  0  0  0  0  0  0
  -29.0510  -19.8840   19.9360 C   0  0  0  0  0  0  0  0  0  0  0  0
  -27.6720  -22.1300   20.7680 C   0  0  0  0  0  0  0  0  0  0  0  0
  -26.9370  -18.4460   20.0650 C   0  0  0  0  0  1  0  0  0  0  0  0
  -28.9680  -22.2540   20.4250 N   0  0  0  0  0  0  0  0  0  0  0  0
  -29.8900  -18.6400   19.6520 C   0  0  0  0  0  2  0  0  0  0  0  0
  -31.1890  -18.8100   18.8330 C   0  0  0  0  0  3  0  0  0  0  0  0
  -31.3840  -20.2680   16.7210 C   0  0  0  0  0  1  0  0  0  0  0  0
  -29.7090  -18.4380   16.6880 C   0  0  0  0  0  1  0  0  0  0  0  0
  -31.0590  -18.8720   17.2710 C   0  0  0  0  0  3  0  0  0  0  0  0
  -32.2550  -17.8200   19.3460 C   0  0  0  0  0  2  0  0  0  0  0  0
  -32.4630  -15.4520   19.9440 C   0  0  0  0  0  0  0  0  0  0  0  0
  -32.1560  -13.1080   19.3570 C   0  0  0  0  0  2  0  0  0  0  0  0
  -31.2870  -13.1000   18.0820 C   0  0  0  0  0  2  0  0  0  0  0  0
  -29.7900  -13.0460   18.4550 C   0  0  0  0  0  2  0  0  0  0  0  0
  -29.4020  -14.1210   19.5080 C   0  0  0  0  0  3  0  0  0  0  0  0
  -30.4150  -14.1640   20.6790 C   0  0  0  0  0  2  0  0  0  0  0  0
  -31.7670  -14.3010   20.1130 N   0  0  0  0  0  0  0  0  0  0  0  0
  -33.6410  -15.4840   19.5860 O   0  0  0  0  0  0  0  0  0  0  0  0
  -31.7320  -16.5720   19.9180 N   0  0  0  0  0  0  0  0  0  0  0  0
  -30.7790  -16.5310   20.2410 H   0  0  0  0  0  0  0  0  0  0  0  0
  -27.0410  -14.8900   20.1920 C   0  0  0  0  0  0  0  0  0  0  0  0
  -25.9180  -14.1970   20.5450 C   0  0  0  0  0  0  0  0  0  0  0  0
  -26.2850  -12.8170   20.5180 C   0  0  0  0  0  0  0  0  0  0  0  0
  -28.0280  -13.9420   19.9740 N   0  0  0  0  0  0  0  0  0  0  0  0
  -27.5730  -12.6870   20.2250 N   0  0  0  0  0  0  0  0  0  0  0  0
  -25.4730  -11.6100   20.7000 C   0  0  0  0  0  0  0  0  0  0  0  0
  -25.6990  -10.7230   21.7760 C   0  0  0  0  0  3  0  0  0  0  0  0
  -24.8930   -9.5770   21.9390 C   0  0  0  0  0  3  0  0  0  0  0  0
  -23.8460   -9.3080   21.0250 C   0  0  0  0  0  0  0  0  0  0  0  0
  -23.6410  -10.1820   19.9410 C   0  0  0  0  0  3  0  0  0  0  0  0
  -24.4480  -11.3180   19.7780 C   0  0  0  0  0  3  0  0  0  0  0  0
  -23.0300   -8.2070   21.0900 O   0  0  0  0  0  0  0  0  0  0  0  0
  -22.5720   -7.7210   22.2870 C   0  0  0  0  0  0  0  0  0  0  0  0
  -21.8020   -8.5120   23.1670 C   0  0  0  0  0  3  0  0  0  0  0  0
  -21.2950   -7.9490   24.3580 C   0  0  0  0  0  3  0  0  0  0  0  0
  -21.5480   -6.5980   24.6600 C   0  0  0  0  0  0  0  0  0  0  0  0
  -22.3090   -5.8090   23.7820 C   0  0  0  0  0  3  0  0  0  0  0  0
  -22.8180   -6.3690   22.5960 C   0  0  0  0  0  0  0  0  0  0  0  0
  -23.5320   -5.5980   21.7440 F   0  0  0  0  0  0  0  0  0  0  0  0
  -21.0540   -6.0560   25.8000 F   0  0  0  0  0  0  0  0  0  0  0  0
  -24.5540  -14.7710   20.8030 C   0  0  0  0  0  0  0  0  0  0  0  0
  -23.7840  -14.1530   21.6910 N   0  0  0  0  0  0  0  0  0  0  0  0
  -24.1850  -15.8080   20.2530 O   0  0  0  0  0  0  0  0  0  0  0  0
  -24.0990  -13.3180   22.1630 H   0  0  0  0  0  0  0  0  0  0  0  0
  -22.8670  -14.5220   21.8990 H   0  0  0  0  0  0  0  0  0  0  0  0
  -27.3010  -16.2460   20.0330 N   0  0  0  0  0  0  0  0  0  0  0  0
  -26.5740  -16.9460   20.1220 H   0  0  0  0  0  0  0  0  0  0  0  0
  -28.2010  -16.6260   19.7850 H   0  0  0  0  0  0  0  0  0  0  0  0
  -27.0410  -23.2110   21.3460 O   0  0  0  0  0  0  0  0  0  0  0  0
  -27.4010  -24.5310   20.9340 C   0  0  0  0  0  2  0  0  0  0  0  0
  -28.7850  -25.0460   21.4110 C   0  0  0  0  0  2  0  0  0  0  0  0
  -29.5170  -25.8720   20.3340 C   0  0  0  0  0  2  0  0  0  0  0  0
  -29.3130  -27.2660   20.5220 O   0  0  0  0  0  0  0  0  0  0  0  0
  -24.6130  -31.7560   23.3330 C   0  0  0  0  0  0  0  0  0  0  0  0
  -28.0410  -27.7790   20.4150 C   0  0  0  0  0  0  0  0  0  0  0  0
  -23.7320  -30.2530   21.5770 C   0  0  0  0  0  3  0  0  0  0  0  0
  -25.4750  -28.9470   20.2630 C   0  0  0  0  0  0  0  0  0  0  0  0
  -26.1970  -30.9320   21.5990 C   0  0  0  0  0  2  0  0  0  0  0  0
  -26.5040  -29.5980   20.9540 C   0  0  0  0  0  0  0  0  0  0  0  0
  -27.7860  -29.0180   21.0330 C   0  0  0  0  0  3  0  0  0  0  0  0
  -26.9960  -27.1400   19.7060 C   0  0  0  0  0  3  0  0  0  0  0  0
  -25.7120  -27.7080   19.6450 C   0  0  0  0  0  3  0  0  0  0  0  0
  -24.1380  -29.6520   20.2070 C   0  0  0  0  0  2  0  0  0  0  0  0
  -24.8590  -30.9910   22.2310 N   0  0  0  0  0  0  0  0  0  0  0  0
  -23.4670  -31.8840   23.7790 O   0  0  0  0  0  0  0  0  0  0  0  0
  -23.1410  -29.1290   22.4570 C   0  0  0  0  0  0  0  0  0  0  0  0
  -21.8730  -28.7700   22.1970 N   0  0  0  0  0  0  0  0  0  0  0  0
  -23.8200  -28.5890   23.3330 O   0  0  0  0  0  0  0  0  0  0  0  0
  -21.3910  -29.2450   21.4480 H   0  0  0  0  0  0  0  0  0  0  0  0
  -18.6220  -27.2200   22.4350 C   0  0  0  0  0  0  0  0  0  0  0  0
  -21.1100  -27.7380   22.9000 C   0  0  0  0  0  3  0  0  0  0  0  0
  -21.3920  -26.3350   22.3190 C   0  0  0  0  0  2  0  0  0  0  0  0
  -20.4140  -25.9360   21.2120 C   0  0  0  0  0  2  0  0  0  0  0  0
  -18.9930  -25.9030   21.7760 C   0  0  0  0  0  2  0  0  0  0  0  0
  -19.6200  -28.0860   22.9570 C   0  0  0  0  0  0  0  0  0  0  0  0
  -19.2290  -29.3010   23.5570 C   0  0  0  0  0  3  0  0  0  0  0  0
  -17.8700  -29.6540   23.6470 C   0  0  0  0  0  3  0  0  0  0  0  0
  -16.8860  -28.7880   23.1420 C   0  0  0  0  0  3  0  0  0  0  0  0
  -17.2600  -27.5730   22.5420 C   0  0  0  0  0  3  0  0  0  0  0  0
  -25.7580  -32.5260   24.0640 C   0  0  0  0  0  3  0  0  0  0  0  0
  -25.3120  -33.9130   24.2490 N   0  0  0  0  0  0  0  0  0  0  0  0
  -25.6520  -34.9310   23.4480 C   0  0  0  0  0  0  0  0  0  0  0  0
  -26.4440  -34.8130   22.5090 O   0  0  0  0  0  0  0  0  0  0  0  0
  -24.6220  -34.0770   24.9670 H   0  0  0  0  0  0  0  0  0  0  0  0
  -23.8410  -36.5380   22.7700 C   0  0  0  0  0  1  0  0  0  0  0  0
  -25.0110  -36.3020   23.7380 C   0  0  0  0  0  3  0  0  0  0  0  0
  -26.9580  -37.4290   24.7210 C   0  0  0  0  0  1  0  0  0  0  0  0
  -25.9660  -37.4280   23.6500 N   0  0  0  0  0  0  0  0  0  0  0  0
  -25.4740  -38.3170   23.6730 H   0  0  0  0  0  0  0  0  0  0  0  0
  -26.1560  -31.8760   25.4480 C   0  0  1  0  0  0  0  0  0  0  0  0
  -24.9470  -31.5710   26.3610 C   0  0  0  0  0  1  0  0  0  0  0  0
  -26.9290  -30.5560   25.2270 C   0  0  0  0  0  1  0  0  0  0  0  0
  -27.1080  -32.8220   26.2180 C   0  0  0  0  0  1  0  0  0  0  0  0
  1  5  1  0
  2  7  1  0
  3  1  2  0
  4  2  2  0
  4  3  1  0
  5 52  1  0
  6  3  1  0
  7  5  2  0
  8  4  1  0
  9 13  1  0
  9  8  1  0
 10 12  1  0
 11 12  1  0
 12  9  1  0
 13 22  1  0
 14 20  1  0
 15 20  1  0
 16 17  1  0
 16 15  1  0
 18 17  1  0
 18 27  1  0
 18 19  1  0
 20 19  1  0
 21 14  2  0
 22 14  1  0
 22 23  1  0
 24 25  2  0
 25 44  1  0
 26 25  1  0
 26 29  1  0
 27 24  1  0
 27 28  1  0
 28 26  2  0
 29 30  1  0
 30 31  2  0
 32 35  1  0
 32 31  1  0
 33 32  2  0
 34 33  1  0
 34 29  2  0
 35 36  1  0
 36 41  2  0
 36 37  1  0
 37 38  2  0
 38 39  1  0
 39 43  1  0
 40 39  2  0
 41 40  1  0
 42 41  1  0
 44 45  1  0
 45 48  1  0
 45 47  1  0
 46 44  2  0
 49 50  1  0
 49 24  1  0
 51 49  1  0
 53 52  1  0
 53 54  1  0
 55 56  1  0
 55 54  1  0
 57 68  2  0
 58 56  1  0
 58 63  1  0
 59 67  1  0
 59 69  1  0
 60 62  1  0
 61 67  1  0
 62 63  2  0
 62 61  1  0
 64 58  2  0
 65 64  1  0
 65 60  2  0
 66 60  1  0
 66 59  1  0
 67 57  1  0
 69 71  2  0
 70 69  1  0
 72 70  1  0
 73 82  2  0
 73 78  1  0
 74 70  1  0
 74 78  1  0
 75 74  1  0
 76 77  1  0
 76 75  1  0
 77 73  1  0
 78 79  2  0
 79 80  1  0
 81 80  2  0
 82 81  1  0
 83 57  1  0
 83 84  1  0
 83 93  1  0
 84 87  1  0
 85 89  1  0
 85 84  1  0
 86 85  2  0
 89 88  1  0
 91 92  1  0
 91 89  1  0
 91 90  1  0
 93 96  1  1
 93 94  1  0
 95 93  1  0
M  ISO  4  14 100  22 100  55 101  56 101
M  END
>  <TORSDO>  (5) 
F 24

>  <SCORE>  (5) 
-8.200

>  <name>  (5) 
6

>  <ligand_id>  (5) 
6

>  <original_smiles>  (5) 
[H]c1nc(OC([H])([H])C([H])([H])C([H])([H])Oc2c([H])c([H])c3c(c2[H])C([H])([H])N(C(=O)C([H])(N([H])C(=O)C([H])(N([H])C([H])([H])[H])C([H])([H])[H])C(C([H])([H])[H])(C([H])([H])[H])C([H])([H])[H])C([H])(C(=O)N([H])C2([H])c4c([H])c([H])c([H])c([H])c4C([H])([H])C([H])([H])C2([H])[H])C3([H])[H])c([H])c(C([H])([H])[H])c1C([H])([H])C([H])(C([H])([H])N([H])C(=O)N1C([H])([H])C([H])([H])C([H])([H])C([H])(n2nc(-c3c([H])c([H])c(Oc4c([H])c([H])c(F)c([H])c4F)c([H])c3[H])c(C(=O)N([H])[H])c2N([H])[H])C1([H])[H])C([H])(C([H])([H])[H])C([H])([H])[H]

>  <smiles>  (5) 
[H]c1nc(OC([H])([H])C([H])([H])C([H])([H])Oc2c([H])c([H])c3c(c2[H])C([H])([H])N(C(=O)C([H])(N([H])C(=O)C([H])(N([H])C([H])([H])[H])C([H])([H])[H])C(C([H])([H])[H])(C([H])([H])[H])C([H])([H])[H])C([H])(C(=O)N([H])C2([H])c4c([H])c([H])c([H])c([H])c4C([H])([H])C([H])([H])C2([H])[H])C3([H])[H])c([H])c(C([H])([H])[H])c1C([H])([H])C([H])(C([H])([H])N([H])C(=O)N1C([H])([H])C([H])([H])C([H])([H])C([H])(n2nc(-c3c([H])c([H])c(Oc4c([H])c([H])c(F)c([H])c4F)c([H])c3[H])c(C(=O)N([H])[H])c2N([H])[H])C1([H])[H])C([H])(C([H])([H])[H])C([H])([H])[H]

$$$$
7:0:0
     RDKit          3D

 98106  0  0  1  0  0  0  0  0999 V2000
  -31.9460  -20.4470   21.7040 C   0  0  0  0  0  3  0  0  0  0  0  0
  -32.3350  -19.1380   21.7540 C   0  0  0  0  0  3  0  0  0  0  0  0
  -30.1060  -19.1560   21.4350 C   0  0  0  0  0  3  0  0  0  0  0  0
  -30.5390  -20.4510   21.5030 C   0  0  0  0  0  0  0  0  0  0  0  0
  -31.2150  -18.3340   21.5850 N   0  0  0  0  0  0  0  0  0  0  0  0
  -29.6700  -21.6360   21.4430 C   0  0  0  0  0  3  0  0  0  0  0  0
  -30.0960  -22.8990   21.2360 C   0  0  0  0  0  3  0  0  0  0  0  0
  -27.7430  -23.8310   20.9330 C   0  0  0  0  0  1  0  0  0  0  0  0
  -29.3170  -24.7840   22.6240 C   0  0  0  0  0  1  0  0  0  0  0  0
  -29.2250  -24.1550   21.2220 C   0  0  1  0  0  0  0  0  0  0  0  0
  -29.7700  -25.1980   20.2060 C   0  0  0  0  0  2  0  0  0  0  0  0
  -29.2100  -25.1460   18.7700 C   0  0  0  0  0  2  0  0  0  0  0  0
  -29.5510  -26.4230   17.9740 C   0  0  0  0  0  2  0  0  0  0  0  0
  -28.5660  -26.6850   16.9720 O   0  0  0  0  0  0  0  0  0  0  0  0
  -24.9960  -29.8010   22.2900 C   0  0  0  0  0  0  0  0  0  0  0  0
  -27.3700  -27.1540   17.4560 C   0  0  0  0  0  0  0  0  0  0  0  0
  -23.6170  -28.7680   20.5120 C   0  0  0  0  0  3  0  0  0  0  0  0
  -24.8740  -28.0650   18.4040 C   0  0  0  0  0  0  0  0  0  0  0  0
  -25.9530  -29.6660   19.9960 C   0  0  0  0  0  2  0  0  0  0  0  0
  -26.0580  -28.6030   18.9240 C   0  0  0  0  0  0  0  0  0  0  0  0
  -27.3090  -28.1530   18.4530 C   0  0  0  0  0  3  0  0  0  0  0  0
  -26.1740  -26.6300   16.9280 C   0  0  0  0  0  3  0  0  0  0  0  0
  -24.9240  -27.0750   17.4050 C   0  0  0  0  0  3  0  0  0  0  0  0
  -23.5760  -28.6000   18.9680 C   0  0  0  0  0  2  0  0  0  0  0  0
  -24.8840  -29.4110   20.9880 N   0  0  0  0  0  0  0  0  0  0  0  0
  -24.0500  -29.6750   23.0790 O   0  0  0  0  0  0  0  0  0  0  0  0
  -23.3460  -27.3940   21.1640 C   0  0  0  0  0  0  0  0  0  0  0  0
  -22.0910  -26.9240   21.0640 N   0  0  0  0  0  0  0  0  0  0  0  0
  -24.2520  -26.7650   21.7160 O   0  0  0  0  0  0  0  0  0  0  0  0
  -21.4060  -27.5030   20.6000 H   0  0  0  0  0  0  0  0  0  0  0  0
  -19.2310  -24.7200   21.1580 C   0  0  0  0  0  0  0  0  0  0  0  0
  -21.6130  -25.6370   21.5670 C   0  0  0  0  0  3  0  0  0  0  0  0
  -22.1040  -24.4750   20.6770 C   0  0  0  0  0  2  0  0  0  0  0  0
  -21.1060  -24.0910   19.5790 C   0  0  0  0  0  2  0  0  0  0  0  0
  -19.7660  -23.6760   20.1930 C   0  0  0  0  0  2  0  0  0  0  0  0
  -20.0970  -25.6510   21.7900 C   0  0  0  0  0  0  0  0  0  0  0  0
  -19.5440  -26.6240   22.6530 C   0  0  0  0  0  3  0  0  0  0  0  0
  -18.1570  -26.6740   22.8860 C   0  0  0  0  0  3  0  0  0  0  0  0
  -17.3070  -25.7400   22.2710 C   0  0  0  0  0  3  0  0  0  0  0  0
  -17.8440  -24.7630   21.4130 C   0  0  0  0  0  3  0  0  0  0  0  0
  -26.3060  -30.4460   22.8420 C   0  0  0  0  0  3  0  0  0  0  0  0
  -27.1800  -29.4470   23.6960 C   0  0  1  0  0  0  0  0  0  0  0  0
  -26.3870  -28.7310   24.8150 C   0  0  0  0  0  1  0  0  0  0  0  0
  -27.8070  -28.3590   22.7910 C   0  0  0  0  0  1  0  0  0  0  0  0
  -28.3550  -30.2080   24.3530 C   0  0  0  0  0  1  0  0  0  0  0  0
  -25.9180  -31.6130   23.6430 N   0  0  0  0  0  0  0  0  0  0  0  0
  -26.0660  -32.8870   23.2520 C   0  0  0  0  0  0  0  0  0  0  0  0
  -26.6170  -33.2030   22.1930 O   0  0  0  0  0  0  0  0  0  0  0  0
  -25.4080  -31.4290   24.4940 H   0  0  0  0  0  0  0  0  0  0  0  0
  -24.1810  -34.5070   23.6290 C   0  0  0  0  0  1  0  0  0  0  0  0
  -25.5160  -33.9830   24.1820 C   0  0  0  0  0  3  0  0  0  0  0  0
  -27.6420  -34.7510   25.1410 C   0  0  0  0  0  1  0  0  0  0  0  0
  -26.4520  -35.1130   24.3770 N   0  0  0  0  0  0  0  0  0  0  0  0
  -25.9920  -35.8840   24.8540 H   0  0  0  0  0  0  0  0  0  0  0  0
  -30.6190  -16.3230   22.8850 C   0  0  0  0  0  1  0  0  0  0  0  0
  -31.2250  -16.8700   21.5790 C   0  0  0  0  0  3  0  0  0  0  0  0
  -30.5790  -16.2450   20.3010 C   0  0  0  0  0  3  0  0  0  0  0  0
  -31.2650  -14.9100   19.9030 C   0  0  0  0  0  0  0  0  0  0  0  0
  -30.9660  -12.6310   19.0340 C   0  0  0  0  0  2  0  0  0  0  0  0
  -29.9860  -12.6940   17.8430 C   0  0  0  0  0  2  0  0  0  0  0  0
  -28.5270  -12.5880   18.3320 C   0  0  0  0  0  2  0  0  0  0  0  0
  -28.2160  -13.5550   19.5070 C   0  0  0  0  0  3  0  0  0  0  0  0
  -29.3110  -13.4660   20.5950 C   0  0  0  0  0  2  0  0  0  0  0  0
  -30.6100  -13.7190   19.9570 N   0  0  0  0  0  0  0  0  0  0  0  0
  -32.3720  -15.0190   19.3650 O   0  0  0  0  0  0  0  0  0  0  0  0
  -25.9060  -14.2300   20.4230 C   0  0  0  0  0  0  0  0  0  0  0  0
  -24.8220  -13.4870   20.8090 C   0  0  0  0  0  0  0  0  0  0  0  0
  -25.2040  -12.1200   20.6450 C   0  0  0  0  0  0  0  0  0  0  0  0
  -26.8830  -13.3160   20.0570 N   0  0  0  0  0  0  0  0  0  0  0  0
  -26.4670  -12.0390   20.2460 N   0  0  0  0  0  0  0  0  0  0  0  0
  -24.4220  -10.8860   20.7930 C   0  0  0  0  0  0  0  0  0  0  0  0
  -24.7940   -9.8840   21.7170 C   0  0  0  0  0  3  0  0  0  0  0  0
  -24.0170   -8.7130   21.8540 C   0  0  0  0  0  3  0  0  0  0  0  0
  -22.8540   -8.5380   21.0670 C   0  0  0  0  0  0  0  0  0  0  0  0
  -22.5010   -9.5280   20.1330 C   0  0  0  0  0  3  0  0  0  0  0  0
  -23.2790  -10.6900   19.9940 C   0  0  0  0  0  3  0  0  0  0  0  0
  -22.0520   -7.4230   21.1140 O   0  0  0  0  0  0  0  0  0  0  0  0
  -21.8450   -6.7340   22.2820 C   0  0  0  0  0  0  0  0  0  0  0  0
  -21.3020   -7.3570   23.4270 C   0  0  0  0  0  3  0  0  0  0  0  0
  -21.0410   -6.5960   24.5850 C   0  0  0  0  0  3  0  0  0  0  0  0
  -21.3110   -5.2140   24.5960 C   0  0  0  0  0  0  0  0  0  0  0  0
  -21.8460   -4.5920   23.4540 C   0  0  0  0  0  3  0  0  0  0  0  0
  -22.1090   -5.3490   22.3000 C   0  0  0  0  0  0  0  0  0  0  0  0
  -22.6050   -4.7410   21.1960 F   0  0  0  0  0  0  0  0  0  0  0  0
  -21.0530   -4.4820   25.7050 F   0  0  0  0  0  0  0  0  0  0  0  0
  -23.4750  -14.0130   21.2140 C   0  0  0  0  0  0  0  0  0  0  0  0
  -22.7870  -13.3090   22.1060 N   0  0  0  0  0  0  0  0  0  0  0  0
  -23.0470  -15.0790   20.7760 O   0  0  0  0  0  0  0  0  0  0  0  0
  -23.1470  -12.4450   22.4820 H   0  0  0  0  0  0  0  0  0  0  0  0
  -21.8850  -13.6420   22.4190 H   0  0  0  0  0  0  0  0  0  0  0  0
  -26.1340  -15.6000   20.3340 N   0  0  0  0  0  0  0  0  0  0  0  0
  -25.4090  -16.2790   20.5400 H   0  0  0  0  0  0  0  0  0  0  0  0
  -26.9790  -16.0230   19.9730 H   0  0  0  0  0  0  0  0  0  0  0  0
  -30.5420  -17.1920   19.0590 C   0  0  0  0  0  2  0  0  0  0  0  0
  -31.8660  -17.6440   18.5770 N   0  0  0  0  0  4  0  0  0  0  0  0
  -32.2820  -18.2820   19.2330 H   0  0  0  0  0  0  0  0  0  0  0  0
  -31.7700  -18.1220   17.6970 H   0  0  0  0  0  0  0  0  0  0  0  0
  -32.4810  -16.8550   18.4470 H   0  0  0  0  0  0  0  0  0  0  0  0
  1  2  2  0
  3  4  2  0
  3  5  1  0
  4  1  1  0
  5  2  1  0
  6  4  1  0
  7  6  2  0
 10  8  1  6
 10  7  1  0
 10  9  1  0
 11 10  1  0
 12 11  1  0
 13 12  1  0
 14 16  1  0
 14 13  1  0
 15 26  2  0
 16 21  1  0
 17 25  1  0
 17 27  1  0
 18 20  1  0
 18 24  1  0
 19 25  1  0
 20 19  1  0
 21 20  2  0
 22 23  1  0
 22 16  2  0
 23 18  2  0
 24 17  1  0
 25 15  1  0
 27 29  2  0
 28 27  1  0
 30 28  1  0
 31 40  2  0
 31 36  1  0
 32 28  1  0
 32 36  1  0
 33 32  1  0
 34 35  1  0
 34 33  1  0
 35 31  1  0
 36 37  2  0
 37 38  1  0
 39 38  2  0
 40 39  1  0
 41 15  1  0
 41 46  1  0
 41 42  1  0
 42 45  1  1
 42 43  1  0
 44 42  1  0
 46 49  1  0
 47 46  1  0
 47 51  1  0
 48 47  2  0
 51 50  1  0
 51 53  1  0
 53 54  1  0
 53 52  1  0
 56  5  1  0
 56 55  1  0
 57 94  1  0
 57 56  1  0
 58 64  1  0
 58 57  1  0
 59 64  1  0
 60 61  1  0
 60 59  1  0
 62 61  1  0
 62 69  1  0
 62 63  1  0
 64 63  1  0
 65 58  2  0
 66 67  2  0
 67 86  1  0
 68 71  1  0
 68 67  1  0
 69 70  1  0
 69 66  1  0
 70 68  2  0
 71 72  1  0
 72 73  2  0
 74 77  1  0
 74 73  1  0
 75 74  2  0
 76 75  1  0
 76 71  2  0
 77 78  1  0
 78 83  2  0
 78 79  1  0
 79 80  2  0
 80 81  1  0
 81 85  1  0
 82 81  2  0
 83 82  1  0
 84 83  1  0
 86 87  1  0
 87 90  1  0
 87 89  1  0
 88 86  2  0
 91 66  1  0
 91 92  1  0
 93 91  1  0
 95 94  1  0
 95 96  1  0
 97 95  1  0
 98 95  1  0
M  ISO  4  13 101  14 101  57 100  58 100
M  END
>  <TORSDO>  (6) 
F 25

>  <SCORE>  (6) 
-7.958

>  <name>  (6) 
7

>  <ligand_id>  (6) 
7

>  <original_smiles>  (6) 
[H]C(=C([H])C(C([H])([H])[H])(C([H])([H])[H])C([H])([H])C([H])([H])C([H])([H])Oc1c([H])c([H])c2c(c1[H])C([H])([H])N(C(=O)C([H])(N([H])C(=O)C([H])(N([H])C([H])([H])[H])C([H])([H])[H])C(C([H])([H])[H])(C([H])([H])[H])C([H])([H])[H])C([H])(C(=O)N([H])C1([H])c3c([H])c([H])c([H])c([H])c3C([H])([H])C([H])([H])C1([H])[H])C2([H])[H])c1c([H])c([H])n(C([H])(C([H])([H])[H])C([H])(C(=O)N2C([H])([H])C([H])([H])C([H])([H])C([H])(n3nc(-c4c([H])c([H])c(Oc5c([H])c([H])c(F)c([H])c5F)c([H])c4[H])c(C(=O)N([H])[H])c3N([H])[H])C2([H])[H])C([H])([H])[N+]([H])([H])[H])c1[H]

>  <smiles>  (6) 
[H]C(=C([H])C(C([H])([H])[H])(C([H])([H])[H])C([H])([H])C([H])([H])C([H])([H])Oc1c([H])c([H])c2c(c1[H])C([H])([H])N(C(=O)C([H])(N([H])C(=O)C([H])(N([H])C([H])([H])[H])C([H])([H])[H])C(C([H])([H])[H])(C([H])([H])[H])C([H])([H])[H])C([H])(C(=O)N([H])C1([H])c3c([H])c([H])c([H])c([H])c3C([H])([H])C([H])([H])C1([H])[H])C2([H])[H])c1c([H])c([H])n(C([H])(C([H])([H])[H])C([H])(C(=O)N2C([H])([H])C([H])([H])C([H])([H])C([H])(n3nc(-c4c([H])c([H])c(Oc5c([H])c([H])c(F)c([H])c5F)c([H])c4[H])c(C(=O)N([H])[H])c3N([H])[H])C2([H])[H])C([H])([H])[N+]([H])([H])[H])c1[H]

$$$$
8:0:0
     RDKit          3D

 94102  0  0  1  0  0  0  0  0999 V2000
  -32.0790  -20.6900   21.5320 C   0  0  0  0  0  3  0  0  0  0  0  0
  -31.7540  -19.7200   20.5560 C   0  0  0  0  0  0  0  0  0  0  0  0
  -31.3550  -21.3990   19.0290 C   0  0  0  0  0  0  0  0  0  0  0  0
  -31.7370  -22.3760   19.9940 C   0  0  0  0  0  0  0  0  0  0  0  0
  -30.9040  -21.7590   17.6290 C   0  0  0  0  0  1  0  0  0  0  0  0
  -32.0750  -22.0160   21.2560 N   0  0  0  0  0  0  0  0  0  0  0  0
  -31.3620  -20.0720   19.3090 N   0  0  0  0  0  0  0  0  0  0  0  0
  -31.8950  -18.2350   20.8530 C   0  0  0  0  0  2  0  0  0  0  0  0
  -30.6420  -17.5910   21.4740 C   0  0  0  0  0  2  0  0  0  0  0  0
  -30.9540  -16.2380   22.1510 C   0  0  0  0  0  2  0  0  0  0  0  0
  -30.6700  -14.4170   20.4460 C   0  0  0  0  0  0  0  0  0  0  0  0
  -30.2460  -12.4100   19.0650 C   0  0  0  0  0  2  0  0  0  0  0  0
  -29.2590  -12.6950   17.9170 C   0  0  0  0  0  2  0  0  0  0  0  0
  -27.8090  -12.5190   18.3930 C   0  0  0  0  0  2  0  0  0  0  0  0
  -27.5180  -13.2950   19.7000 C   0  0  0  0  0  3  0  0  0  0  0  0
  -28.6000  -13.0090   20.7640 C   0  0  0  0  0  2  0  0  0  0  0  0
  -29.9260  -13.3110   20.1830 N   0  0  0  0  0  0  0  0  0  0  0  0
  -31.6620  -14.7460   19.7860 O   0  0  0  0  0  0  0  0  0  0  0  0
  -30.2750  -15.1080   21.5230 N   0  0  0  0  0  0  0  0  0  0  0  0
  -29.4610  -14.7490   21.9990 H   0  0  0  0  0  0  0  0  0  0  0  0
  -25.1190  -13.8800   20.4340 C   0  0  0  0  0  0  0  0  0  0  0  0
  -24.0640  -13.0940   20.8180 C   0  0  0  0  0  0  0  0  0  0  0  0
  -24.5400  -11.7480   20.7820 C   0  0  0  0  0  0  0  0  0  0  0  0
  -26.1720  -13.0090   20.1970 N   0  0  0  0  0  0  0  0  0  0  0  0
  -25.8270  -11.7220   20.4550 N   0  0  0  0  0  0  0  0  0  0  0  0
  -23.8300  -10.4800   20.9870 C   0  0  0  0  0  0  0  0  0  0  0  0
  -24.2890   -9.5200   21.9160 C   0  0  0  0  0  3  0  0  0  0  0  0
  -23.5770   -8.3160   22.1090 C   0  0  0  0  0  3  0  0  0  0  0  0
  -22.3950   -8.0620   21.3720 C   0  0  0  0  0  0  0  0  0  0  0  0
  -21.9560   -9.0120   20.4330 C   0  0  0  0  0  3  0  0  0  0  0  0
  -22.6680  -10.2090   20.2380 C   0  0  0  0  0  3  0  0  0  0  0  0
  -21.6580   -6.9070   21.4720 O   0  0  0  0  0  0  0  0  0  0  0  0
  -21.6430   -6.1600   22.6240 C   0  0  0  0  0  0  0  0  0  0  0  0
  -21.2480   -6.7130   23.8610 C   0  0  0  0  0  3  0  0  0  0  0  0
  -21.1790   -5.8990   25.0080 C   0  0  0  0  0  3  0  0  0  0  0  0
  -21.4920   -4.5290   24.9180 C   0  0  0  0  0  0  0  0  0  0  0  0
  -21.8790   -3.9730   23.6870 C   0  0  0  0  0  3  0  0  0  0  0  0
  -21.9520   -4.7860   22.5410 C   0  0  0  0  0  0  0  0  0  0  0  0
  -22.3050   -4.2410   21.3510 F   0  0  0  0  0  0  0  0  0  0  0  0
  -21.4210   -3.7440   26.0190 F   0  0  0  0  0  0  0  0  0  0  0  0
  -22.6690  -13.5550   21.1160 C   0  0  0  0  0  0  0  0  0  0  0  0
  -21.9680  -12.8470   21.9960 N   0  0  0  0  0  0  0  0  0  0  0  0
  -22.2080  -14.5770   20.6100 O   0  0  0  0  0  0  0  0  0  0  0  0
  -22.3560  -12.0190   22.4240 H   0  0  0  0  0  0  0  0  0  0  0  0
  -21.0320  -13.1360   22.2430 H   0  0  0  0  0  0  0  0  0  0  0  0
  -25.2570  -15.2530   20.2510 N   0  0  0  0  0  0  0  0  0  0  0  0
  -24.4770  -15.8880   20.3790 H   0  0  0  0  0  0  0  0  0  0  0  0
  -26.0970  -15.7200   19.9290 H   0  0  0  0  0  0  0  0  0  0  0  0
  -31.8440  -23.8690   19.6770 C   0  0  0  0  0  2  0  0  0  0  0  0
  -30.2990  -25.3090   18.2870 C   0  0  0  0  0  1  0  0  0  0  0  0
  -30.4910  -24.6370   19.6680 C   0  0  0  0  0  3  0  0  0  0  0  0
  -30.3930  -25.6670   20.8300 C   0  0  0  0  0  2  0  0  0  0  0  0
  -28.9690  -26.1750   21.1570 C   0  0  0  0  0  2  0  0  0  0  0  0
  -28.4670  -26.8650   20.0260 O   0  0  0  0  0  0  0  0  0  0  0  0
  -24.5690  -31.9130   23.2310 C   0  0  0  0  0  0  0  0  0  0  0  0
  -27.2780  -27.5230   20.1700 C   0  0  0  0  0  0  0  0  0  0  0  0
  -23.3840  -30.5010   21.5780 C   0  0  0  0  0  3  0  0  0  0  0  0
  -24.8610  -28.9680   20.1770 C   0  0  0  0  0  0  0  0  0  0  0  0
  -25.9030  -30.8870   21.3970 C   0  0  0  0  0  2  0  0  0  0  0  0
  -26.0040  -29.5120   20.7770 C   0  0  0  0  0  0  0  0  0  0  0  0
  -27.2180  -28.7940   20.7770 C   0  0  0  0  0  3  0  0  0  0  0  0
  -26.1250  -26.9790   19.5710 C   0  0  0  0  0  3  0  0  0  0  0  0
  -24.9130  -27.6970   19.5770 C   0  0  0  0  0  3  0  0  0  0  0  0
  -23.6090  -29.8140   20.2030 C   0  0  0  0  0  2  0  0  0  0  0  0
  -24.6360  -31.1160   22.1280 N   0  0  0  0  0  0  0  0  0  0  0  0
  -23.4810  -32.1790   23.7620 O   0  0  0  0  0  0  0  0  0  0  0  0
  -22.7310  -29.4800   22.5350 C   0  0  0  0  0  0  0  0  0  0  0  0
  -21.4090  -29.2930   22.3950 N   0  0  0  0  0  0  0  0  0  0  0  0
  -23.4100  -28.8590   23.3580 O   0  0  0  0  0  0  0  0  0  0  0  0
  -20.9270  -29.8460   21.7000 H   0  0  0  0  0  0  0  0  0  0  0  0
  -18.0310  -28.0940   22.8600 C   0  0  0  0  0  0  0  0  0  0  0  0
  -20.5870  -28.3540   23.1550 C   0  0  0  0  0  3  0  0  0  0  0  0
  -20.6940  -26.9250   22.5750 C   0  0  0  0  0  2  0  0  0  0  0  0
  -19.6010  -26.6040   21.5510 C   0  0  0  0  0  2  0  0  0  0  0  0
  -18.2140  -26.7470   22.1840 C   0  0  0  0  0  2  0  0  0  0  0  0
  -19.1450  -28.8550   23.3020 C   0  0  0  0  0  0  0  0  0  0  0  0
  -18.9190  -30.1180   23.8930 C   0  0  0  0  0  3  0  0  0  0  0  0
  -17.6130  -30.6180   24.0480 C   0  0  0  0  0  3  0  0  0  0  0  0
  -16.5140  -29.8510   23.6250 C   0  0  0  0  0  3  0  0  0  0  0  0
  -16.7230  -28.5930   23.0350 C   0  0  0  0  0  3  0  0  0  0  0  0
  -25.8500  -32.5450   23.8620 C   0  0  0  0  0  3  0  0  0  0  0  0
  -25.5370  -33.9430   24.1850 N   0  0  0  0  0  0  0  0  0  0  0  0
  -25.8830  -34.9920   23.4250 C   0  0  0  0  0  0  0  0  0  0  0  0
  -26.5700  -34.8840   22.4050 O   0  0  0  0  0  0  0  0  0  0  0  0
  -24.9280  -34.1020   24.9750 H   0  0  0  0  0  0  0  0  0  0  0  0
  -24.1650  -36.7830   23.0300 C   0  0  0  0  0  1  0  0  0  0  0  0
  -25.3900  -36.3820   23.8680 C   0  0  0  0  0  3  0  0  0  0  0  0
  -27.5090  -37.2640   24.7370 C   0  0  0  0  0  1  0  0  0  0  0  0
  -26.4250  -37.4330   23.7730 N   0  0  0  0  0  0  0  0  0  0  0  0
  -26.0170  -38.3530   23.9110 H   0  0  0  0  0  0  0  0  0  0  0  0
  -26.3560  -31.7750   25.1440 C   0  0  1  0  0  0  0  0  0  0  0  0
  -25.2530  -31.5360   26.2010 C   0  0  0  0  0  1  0  0  0  0  0  0
  -26.9410  -30.3970   24.7540 C   0  0  0  0  0  1  0  0  0  0  0  0
  -27.5000  -32.5720   25.8160 C   0  0  0  0  0  1  0  0  0  0  0  0
  2  8  1  0
  2  1  2  0
  3  7  2  0
  3  4  1  0
  4  6  2  0
  5  3  1  0
  6  1  1  0
  7  2  1  0
  8  9  1  0
  9 10  1  0
 11 19  1  0
 12 17  1  0
 13 14  1  0
 13 12  1  0
 15 14  1  0
 15 24  1  0
 15 16  1  0
 17 11  1  0
 17 16  1  0
 18 11  2  0
 19 20  1  0
 19 10  1  0
 21 22  2  0
 22 41  1  0
 23 22  1  0
 23 26  1  0
 24 21  1  0
 24 25  1  0
 25 23  2  0
 26 27  1  0
 27 28  2  0
 29 32  1  0
 29 28  1  0
 30 29  2  0
 31 30  1  0
 31 26  2  0
 32 33  1  0
 33 34  1  0
 34 35  2  0
 36 35  1  0
 36 40  1  0
 37 36  2  0
 38 33  2  0
 38 37  1  0
 39 38  1  0
 41 42  1  0
 42 45  1  0
 42 44  1  0
 43 41  2  0
 46 47  1  0
 46 21  1  0
 48 46  1  0
 49  4  1  0
 51 50  1  0
 51 49  1  0
 51 52  1  0
 52 53  1  0
 54 56  1  0
 54 53  1  0
 55 66  2  0
 56 61  1  0
 57 65  1  0
 57 67  1  0
 58 64  1  0
 58 60  1  0
 59 65  1  0
 60 59  1  0
 61 60  2  0
 62 63  1  0
 62 56  2  0
 63 58  2  0
 64 57  1  0
 65 55  1  0
 67 69  2  0
 68 67  1  0
 70 68  1  0
 71 80  2  0
 71 76  1  0
 72 68  1  0
 72 76  1  0
 73 72  1  0
 74 75  1  0
 74 73  1  0
 75 71  1  0
 76 77  2  0
 77 78  1  0
 79 78  2  0
 80 79  1  0
 81 55  1  0
 81 82  1  0
 81 91  1  0
 82 85  1  0
 83 87  1  0
 83 82  1  0
 84 83  2  0
 87 86  1  0
 89 87  1  0
 89 90  1  0
 89 88  1  0
 91 94  1  1
 91 92  1  0
 93 91  1  0
M  ISO  4  11 100  19 100  53 101  54 101
M  END
>  <TORSDO>  (7) 
F 23

>  <SCORE>  (7) 
-12.801

>  <name>  (7) 
8

>  <ligand_id>  (7) 
8

>  <original_smiles>  (7) 
[H]c1nc(C([H])([H])C([H])(C([H])([H])[H])C([H])([H])C([H])([H])Oc2c([H])c([H])c3c(c2[H])C([H])([H])N(C(=O)C([H])(N([H])C(=O)C([H])(N([H])C([H])([H])[H])C([H])([H])[H])C(C([H])([H])[H])(C([H])([H])[H])C([H])([H])[H])C([H])(C(=O)N([H])C2([H])c4c([H])c([H])c([H])c([H])c4C([H])([H])C([H])([H])C2([H])[H])C3([H])[H])c(C([H])([H])[H])nc1C([H])([H])C([H])([H])C([H])([H])N([H])C(=O)N1C([H])([H])C([H])([H])C([H])([H])C([H])(n2nc(-c3c([H])c([H])c(Oc4c([H])c([H])c(F)c([H])c4F)c([H])c3[H])c(C(=O)N([H])[H])c2N([H])[H])C1([H])[H]

>  <smiles>  (7) 
[H]c1nc(C([H])([H])C([H])(C([H])([H])[H])C([H])([H])C([H])([H])Oc2c([H])c([H])c3c(c2[H])C([H])([H])N(C(=O)C([H])(N([H])C(=O)C([H])(N([H])C([H])([H])[H])C([H])([H])[H])C(C([H])([H])[H])(C([H])([H])[H])C([H])([H])[H])C([H])(C(=O)N([H])C2([H])c4c([H])c([H])c([H])c([H])c4C([H])([H])C([H])([H])C2([H])[H])C3([H])[H])c(C([H])([H])[H])nc1C([H])([H])C([H])([H])C([H])([H])N([H])C(=O)N1C([H])([H])C([H])([H])C([H])([H])C([H])(n2nc(-c3c([H])c([H])c(Oc4c([H])c([H])c(F)c([H])c4F)c([H])c3[H])c(C(=O)N([H])[H])c2N([H])[H])C1([H])[H]

$$$$
9:0:0
     RDKit          3D

 94102  0  0  1  0  0  0  0  0999 V2000
  -27.4120  -19.9180   19.3830 C   0  0  0  0  0  3  0  0  0  0  0  0
  -28.7250  -19.7360   19.8640 C   0  0  0  0  0  0  0  0  0  0  0  0
  -26.4970  -18.8810   19.4600 C   0  0  0  0  0  0  0  0  0  0  0  0
  -29.0380  -18.3480   20.2620 C   0  0  0  0  0  0  0  0  0  0  0  0
  -25.1840  -19.0360   18.7530 C   0  0  0  0  0  1  0  0  0  0  0  0
  -26.7690  -17.7280   20.0890 N   0  0  0  0  0  0  0  0  0  0  0  0
  -28.0140  -17.4840   20.4870 N   0  0  0  0  0  0  0  0  0  0  0  0
  -31.6110  -18.4900   20.5080 C   0  0  0  0  0  1  0  0  0  0  0  0
  -30.3850  -17.5570   20.5430 C   0  0  0  0  0  3  0  0  0  0  0  0
  -32.0270  -16.1690   18.9930 C   0  0  0  0  0  1  0  0  0  0  0  0
  -29.7200  -16.0290   18.5050 C   0  0  0  0  0  1  0  0  0  0  0  0
  -30.6540  -16.1300   19.7600 C   0  0  2  0  0  0  0  0  0  0  0  0
  -30.8690  -14.8310   20.7410 C   0  0  0  0  0  0  0  0  0  0  0  0
  -30.5920  -12.4960   20.0010 C   0  0  0  0  0  2  0  0  0  0  0  0
  -29.8070  -12.5460   18.6860 C   0  0  0  0  0  2  0  0  0  0  0  0
  -28.2790  -12.5590   18.9470 C   0  0  0  0  0  2  0  0  0  0  0  0
  -27.8260  -13.3990   20.1870 C   0  0  0  0  0  3  0  0  0  0  0  0
  -28.8240  -13.3910   21.3580 C   0  0  0  0  0  2  0  0  0  0  0  0
  -30.1410  -13.6630   20.7670 N   0  0  0  0  0  0  0  0  0  0  0  0
  -32.0090  -14.7700   21.1950 O   0  0  0  0  0  0  0  0  0  0  0  0
  -25.3870  -13.9970   20.6750 C   0  0  0  0  0  0  0  0  0  0  0  0
  -24.2940  -13.2440   20.9420 C   0  0  0  0  0  0  0  0  0  0  0  0
  -24.7590  -11.8930   20.9990 C   0  0  0  0  0  0  0  0  0  0  0  0
  -26.4570  -13.1210   20.5770 N   0  0  0  0  0  0  0  0  0  0  0  0
  -26.0760  -11.8460   20.8410 N   0  0  0  0  0  0  0  0  0  0  0  0
  -24.0130  -10.6450   21.1340 C   0  0  0  0  0  0  0  0  0  0  0  0
  -24.3740   -9.6780   22.0990 C   0  0  0  0  0  3  0  0  0  0  0  0
  -23.6210   -8.4970   22.2360 C   0  0  0  0  0  3  0  0  0  0  0  0
  -22.4970   -8.2690   21.4050 C   0  0  0  0  0  0  0  0  0  0  0  0
  -22.1620   -9.2240   20.4290 C   0  0  0  0  0  3  0  0  0  0  0  0
  -22.9130  -10.4000   20.2890 C   0  0  0  0  0  3  0  0  0  0  0  0
  -21.7210   -7.1400   21.4450 O   0  0  0  0  0  0  0  0  0  0  0  0
  -21.6010   -6.3950   22.5930 C   0  0  0  0  0  0  0  0  0  0  0  0
  -21.0720   -6.9440   23.7800 C   0  0  0  0  0  3  0  0  0  0  0  0
  -20.8990   -6.1220   24.9140 C   0  0  0  0  0  3  0  0  0  0  0  0
  -21.2460   -4.7600   24.8570 C   0  0  0  0  0  0  0  0  0  0  0  0
  -21.7740   -4.2150   23.6750 C   0  0  0  0  0  3  0  0  0  0  0  0
  -21.9470   -5.0320   22.5430 C   0  0  0  0  0  0  0  0  0  0  0  0
  -22.4360   -4.4990   21.3970 F   0  0  0  0  0  0  0  0  0  0  0  0
  -21.0710   -3.9710   25.9440 F   0  0  0  0  0  0  0  0  0  0  0  0
  -22.8800  -13.7370   21.0530 C   0  0  0  0  0  0  0  0  0  0  0  0
  -22.0780  -13.0840   21.8810 N   0  0  0  0  0  0  0  0  0  0  0  0
  -22.5030  -14.7440   20.4480 O   0  0  0  0  0  0  0  0  0  0  0  0
  -22.4180  -12.2780   22.3870 H   0  0  0  0  0  0  0  0  0  0  0  0
  -21.1230  -13.3840   22.0130 H   0  0  0  0  0  0  0  0  0  0  0  0
  -25.5200  -15.3630   20.4920 N   0  0  0  0  0  0  0  0  0  0  0  0
  -24.7060  -15.9610   20.5760 H   0  0  0  0  0  0  0  0  0  0  0  0
  -26.3710  -15.9080   20.3950 H   0  0  0  0  0  0  0  0  0  0  0  0
  -29.5530  -21.0740   19.8950 C   0  0  0  0  0  3  0  0  0  0  0  0
  -28.6850  -22.4270   20.1130 C   0  0  0  0  0  3  0  0  0  0  0  0
  -29.7760  -23.9240   21.9250 C   0  0  0  0  0  1  0  0  0  0  0  0
  -29.2680  -23.8810   20.4640 C   0  0  0  0  0  3  0  0  0  0  0  0
  -28.2050  -25.0420   20.1520 C   0  0  0  0  0  2  0  0  0  0  0  0
  -28.4340  -26.4920   20.3900 O   0  0  0  0  0  0  0  0  0  0  0  0
  -24.6360  -31.9360   23.2980 C   0  0  0  0  0  0  0  0  0  0  0  0
  -27.3180  -27.3530   20.3130 C   0  0  0  0  0  0  0  0  0  0  0  0
  -23.4620  -30.5140   21.6580 C   0  0  0  0  0  3  0  0  0  0  0  0
  -24.9440  -28.9650   20.2660 C   0  0  0  0  0  0  0  0  0  0  0  0
  -26.0080  -30.8420   21.5130 C   0  0  0  0  0  2  0  0  0  0  0  0
  -26.1060  -29.4630   20.8670 C   0  0  0  0  0  0  0  0  0  0  0  0
  -27.2970  -28.6700   20.8770 C   0  0  0  0  0  3  0  0  0  0  0  0
  -26.1240  -26.9200   19.6840 C   0  0  0  0  0  3  0  0  0  0  0  0
  -24.9550  -27.6980   19.6690 C   0  0  0  0  0  3  0  0  0  0  0  0
  -23.7000  -29.8250   20.2910 C   0  0  0  0  0  2  0  0  0  0  0  0
  -24.7180  -31.1130   22.2110 N   0  0  0  0  0  0  0  0  0  0  0  0
  -23.5440  -32.2180   23.8120 O   0  0  0  0  0  0  0  0  0  0  0  0
  -22.7860  -29.5090   22.6200 C   0  0  0  0  0  0  0  0  0  0  0  0
  -21.4600  -29.3280   22.4760 N   0  0  0  0  0  0  0  0  0  0  0  0
  -23.4540  -28.8890   23.4540 O   0  0  0  0  0  0  0  0  0  0  0  0
  -20.9870  -29.8620   21.7590 H   0  0  0  0  0  0  0  0  0  0  0  0
  -18.0700  -28.1750   22.9690 C   0  0  0  0  0  0  0  0  0  0  0  0
  -20.6300  -28.4030   23.2460 C   0  0  0  0  0  3  0  0  0  0  0  0
  -20.7240  -26.9730   22.6660 C   0  0  0  0  0  2  0  0  0  0  0  0
  -19.6210  -26.6680   21.6490 C   0  0  0  0  0  2  0  0  0  0  0  0
  -18.2370  -26.8240   22.2880 C   0  0  0  0  0  2  0  0  0  0  0  0
  -19.1970  -28.9210   23.4030 C   0  0  0  0  0  0  0  0  0  0  0  0
  -18.9920  -30.1850   23.9990 C   0  0  0  0  0  3  0  0  0  0  0  0
  -17.6920  -30.6980   24.1710 C   0  0  0  0  0  3  0  0  0  0  0  0
  -16.5790  -29.9470   23.7570 C   0  0  0  0  0  3  0  0  0  0  0  0
  -16.7700  -28.6890   23.1560 C   0  0  0  0  0  3  0  0  0  0  0  0
  -25.9100  -32.5770   23.9330 C   0  0  0  0  0  3  0  0  0  0  0  0
  -25.5800  -33.9690   24.2670 N   0  0  0  0  0  0  0  0  0  0  0  0
  -25.9350  -35.0340   23.5340 C   0  0  0  0  0  0  0  0  0  0  0  0
  -26.6370  -34.9480   22.5240 O   0  0  0  0  0  0  0  0  0  0  0  0
  -24.9600  -34.1130   25.0490 H   0  0  0  0  0  0  0  0  0  0  0  0
  -24.2440  -36.8490   23.1210 C   0  0  0  0  0  1  0  0  0  0  0  0
  -25.4250  -36.4110   24.0000 C   0  0  0  0  0  3  0  0  0  0  0  0
  -27.4970  -37.2620   24.9980 C   0  0  0  0  0  1  0  0  0  0  0  0
  -26.4660  -37.4580   23.9850 N   0  0  0  0  0  0  0  0  0  0  0  0
  -26.0530  -38.3750   24.1300 H   0  0  0  0  0  0  0  0  0  0  0  0
  -26.4290  -31.8060   25.2080 C   0  0  1  0  0  0  0  0  0  0  0  0
  -25.3260  -31.5410   26.2580 C   0  0  0  0  0  1  0  0  0  0  0  0
  -27.0450  -30.4400   24.8190 C   0  0  0  0  0  1  0  0  0  0  0  0
  -27.5560  -32.6170   25.8890 C   0  0  0  0  0  1  0  0  0  0  0  0
  1  3  2  0
  1  2  1  0
  2 49  1  0
  2  4  2  0
  3  6  1  0
  4  7  1  0
  4  9  1  0
  5  3  1  0
  6  7  2  0
  9  8  1  0
 12 10  1  6
 11 12  1  0
 12  9  1  0
 12 13  1  0
 13 19  1  0
 13 20  2  0
 14 19  1  0
 15 16  1  0
 15 14  1  0
 17 16  1  0
 17 24  1  0
 17 18  1  0
 19 18  1  0
 21 22  2  0
 22 23  1  0
 22 41  1  0
 23 26  1  0
 24 21  1  0
 24 25  1  0
 25 23  2  0
 26 27  1  0
 27 28  2  0
 29 32  1  0
 29 28  1  0
 30 29  2  0
 31 30  1  0
 31 26  2  0
 32 33  1  0
 33 34  1  0
 34 35  2  0
 36 35  1  0
 36 40  1  0
 37 36  2  0
 38 33  2  0
 38 37  1  0
 39 38  1  0
 41 42  1  0
 42 45  1  0
 42 44  1  0
 43 41  2  0
 46 47  1  0
 46 21  1  0
 48 46  1  0
 49 50  2  0
 50 52  1  0
 52 51  1  0
 53 54  1  0
 53 52  1  0
 55 66  2  0
 56 54  1  0
 56 61  1  0
 57 65  1  0
 57 67  1  0
 58 64  1  0
 58 60  1  0
 59 65  1  0
 60 61  2  0
 60 59  1  0
 62 56  2  0
 63 62  1  0
 63 58  2  0
 64 57  1  0
 65 55  1  0
 67 69  2  0
 68 67  1  0
 70 68  1  0
 71 80  2  0
 71 76  1  0
 72 68  1  0
 72 76  1  0
 73 72  1  0
 74 75  1  0
 74 73  1  0
 75 71  1  0
 76 77  2  0
 77 78  1  0
 79 78  2  0
 80 79  1  0
 81 55  1  0
 81 82  1  0
 81 91  1  0
 82 85  1  0
 83 87  1  0
 83 82  1  0
 84 83  2  0
 87 86  1  0
 89 87  1  0
 89 90  1  0
 89 88  1  0
 91 94  1  1
 91 92  1  0
 93 91  1  0
M  ISO  4  12 100  13 100  53 101  54 101
M  END
>  <TORSDO>  (8) 
F 22

>  <SCORE>  (8) 
-12.030

>  <name>  (8) 
9

>  <ligand_id>  (8) 
9

>  <original_smiles>  (8) 
[H]c1c([H])c([H])c2c(c1[H])C([H])([H])C([H])([H])C([H])([H])C2([H])N([H])C(=O)C1([H])N(C(=O)C([H])(N([H])C(=O)C([H])(N([H])C([H])([H])[H])C([H])([H])[H])C(C([H])([H])[H])(C([H])([H])[H])C([H])([H])[H])C([H])([H])c2c([H])c(OC([H])([H])C([H])(C([H])([H])[H])C([H])([H])C([H])([H])c3c(C([H])(C([H])([H])[H])C(C(=O)N4C([H])([H])C([H])([H])C([H])([H])C([H])(n5nc(-c6c([H])c([H])c(Oc7c([H])c([H])c(F)c([H])c7F)c([H])c6[H])c(C(=O)N([H])[H])c5N([H])[H])C4([H])[H])(C([H])([H])[H])C([H])([H])[H])nnc(C([H])([H])[H])c3[H])c([H])c([H])c2C1([H])[H]

>  <smiles>  (8) 
[H]c1c([H])c([H])c2c(c1[H])C([H])([H])C([H])([H])C([H])([H])C2([H])N([H])C(=O)C1([H])N(C(=O)C([H])(N([H])C(=O)C([H])(N([H])C([H])([H])[H])C([H])([H])[H])C(C([H])([H])[H])(C([H])([H])[H])C([H])([H])[H])C([H])([H])c2c([H])c(OC([H])([H])C([H])(C([H])([H])[H])C([H])([H])C([H])([H])c3c(C([H])(C([H])([H])[H])C(C(=O)N4C([H])([H])C([H])([H])C([H])([H])C([H])(n5nc(-c6c([H])c([H])c(Oc7c([H])c([H])c(F)c([H])c7F)c([H])c6[H])c(C(=O)N([H])[H])c5N([H])[H])C4([H])[H])(C([H])([H])[H])C([H])([H])[H])nnc(C([H])([H])[H])c3[H])c([H])c([H])c2C1([H])[H]

$$$$
10:0:0
     RDKit          3D

 91 99  0  0  1  0  0  0  0  0999 V2000
  -27.7290  -19.6340   19.3430 C   0  0  0  0  0  3  0  0  0  0  0  0
  -29.0470  -19.2890   19.7490 C   0  0  0  0  0  0  0  0  0  0  0  0
  -27.5670  -20.9530   19.6650 C   0  0  0  0  0  0  0  0  0  0  0  0
  -26.3430  -21.7960   19.5280 C   0  0  0  0  0  1  0  0  0  0  0  0
  -29.6650  -20.3700   20.2650 N   0  0  0  0  0  0  0  0  0  0  0  0
  -28.7620  -21.4100   20.2000 N   0  0  0  0  0  0  0  0  0  0  0  0
  -30.8570  -17.9260   18.5900 C   0  0  0  0  0  1  0  0  0  0  0  0
  -29.6710  -17.8820   19.5660 C   0  0  0  0  0  3  0  0  0  0  0  0
  -29.9910  -17.0590   20.8640 C   0  0  0  0  0  2  0  0  0  0  0  0
  -30.6030  -14.5600   20.4620 C   0  0  0  0  0  0  0  0  0  0  0  0
  -30.3910  -12.3550   19.3630 C   0  0  0  0  0  2  0  0  0  0  0  0
  -29.4530  -12.5270   18.1480 C   0  0  0  0  0  2  0  0  0  0  0  0
  -27.9730  -12.3850   18.5640 C   0  0  0  0  0  2  0  0  0  0  0  0
  -27.6170  -13.2270   19.8170 C   0  0  0  0  0  3  0  0  0  0  0  0
  -28.6660  -13.0180   20.9320 C   0  0  0  0  0  2  0  0  0  0  0  0
  -29.9850  -13.3480   20.3680 N   0  0  0  0  0  0  0  0  0  0  0  0
  -31.7710  -14.7450   20.1150 O   0  0  0  0  0  0  0  0  0  0  0  0
  -29.7710  -15.5870   20.7690 N   0  0  0  0  0  0  0  0  0  0  0  0
  -28.8300  -15.2880   20.9740 H   0  0  0  0  0  0  0  0  0  0  0  0
  -25.2110  -13.8380   20.4930 C   0  0  0  0  0  0  0  0  0  0  0  0
  -24.1400  -13.0670   20.8550 C   0  0  0  0  0  0  0  0  0  0  0  0
  -24.6030  -11.7160   20.8440 C   0  0  0  0  0  0  0  0  0  0  0  0
  -26.2600  -12.9550   20.2850 N   0  0  0  0  0  0  0  0  0  0  0  0
  -25.8980  -11.6750   20.5550 N   0  0  0  0  0  0  0  0  0  0  0  0
  -23.8770  -10.4550   21.0380 C   0  0  0  0  0  0  0  0  0  0  0  0
  -24.3020   -9.4970   21.9840 C   0  0  0  0  0  3  0  0  0  0  0  0
  -23.5770   -8.2980   22.1650 C   0  0  0  0  0  3  0  0  0  0  0  0
  -22.4130   -8.0520   21.3970 C   0  0  0  0  0  0  0  0  0  0  0  0
  -22.0080   -9.0000   20.4420 C   0  0  0  0  0  3  0  0  0  0  0  0
  -22.7320  -10.1900   20.2600 C   0  0  0  0  0  3  0  0  0  0  0  0
  -21.6600   -6.9050   21.4860 O   0  0  0  0  0  0  0  0  0  0  0  0
  -21.6050   -6.1670   22.6410 C   0  0  0  0  0  0  0  0  0  0  0  0
  -21.1770   -6.7290   23.8640 C   0  0  0  0  0  3  0  0  0  0  0  0
  -21.0710   -5.9170   25.0110 C   0  0  0  0  0  3  0  0  0  0  0  0
  -21.3820   -4.5470   24.9370 C   0  0  0  0  0  0  0  0  0  0  0  0
  -21.8040   -3.9850   23.7190 C   0  0  0  0  0  3  0  0  0  0  0  0
  -21.9130   -4.7930   22.5740 C   0  0  0  0  0  0  0  0  0  0  0  0
  -22.3000   -4.2440   21.3970 F   0  0  0  0  0  0  0  0  0  0  0  0
  -21.2730   -3.7650   26.0360 F   0  0  0  0  0  0  0  0  0  0  0  0
  -22.7380  -13.5440   21.1040 C   0  0  0  0  0  0  0  0  0  0  0  0
  -21.9980  -12.8550   21.9650 N   0  0  0  0  0  0  0  0  0  0  0  0
  -22.3050  -14.5640   20.5670 O   0  0  0  0  0  0  0  0  0  0  0  0
  -22.3610  -12.0290   22.4180 H   0  0  0  0  0  0  0  0  0  0  0  0
  -21.0600  -13.1590   22.1790 H   0  0  0  0  0  0  0  0  0  0  0  0
  -25.3730  -15.2060   20.3030 N   0  0  0  0  0  0  0  0  0  0  0  0
  -24.5950  -15.8510   20.3880 H   0  0  0  0  0  0  0  0  0  0  0  0
  -26.2150  -15.6510   19.9620 H   0  0  0  0  0  0  0  0  0  0  0  0
  -29.0340  -22.7270   20.8370 C   0  0  0  0  0  2  0  0  0  0  0  0
  -28.8330  -24.0430   19.9810 C   0  0  0  0  0  2  0  0  0  0  0  0
  -28.3880  -25.2990   20.8190 C   0  0  0  0  0  2  0  0  0  0  0  0
  -28.4540  -26.6090   20.1790 O   0  0  0  0  0  0  0  0  0  0  0  0
  -24.6190  -31.8640   23.2290 C   0  0  0  0  0  0  0  0  0  0  0  0
  -27.2990  -27.3800   20.1910 C   0  0  0  0  0  0  0  0  0  0  0  0
  -23.4330  -30.4540   21.5810 C   0  0  0  0  0  3  0  0  0  0  0  0
  -24.9050  -28.9120   20.1710 C   0  0  0  0  0  0  0  0  0  0  0  0
  -25.9640  -30.8100   21.4060 C   0  0  0  0  0  2  0  0  0  0  0  0
  -26.0610  -29.4340   20.7650 C   0  0  0  0  0  0  0  0  0  0  0  0
  -27.2660  -28.6790   20.7650 C   0  0  0  0  0  3  0  0  0  0  0  0
  -26.1230  -26.8810   19.5930 C   0  0  0  0  0  3  0  0  0  0  0  0
  -24.9320  -27.6350   19.5820 C   0  0  0  0  0  3  0  0  0  0  0  0
  -23.6570  -29.7700   20.2060 C   0  0  0  0  0  2  0  0  0  0  0  0
  -24.6890  -31.0600   22.1290 N   0  0  0  0  0  0  0  0  0  0  0  0
  -23.5310  -32.1360   23.7570 O   0  0  0  0  0  0  0  0  0  0  0  0
  -22.7760  -29.4360   22.5400 C   0  0  0  0  0  0  0  0  0  0  0  0
  -21.4540  -29.2450   22.3980 N   0  0  0  0  0  0  0  0  0  0  0  0
  -23.4540  -28.8190   23.3660 O   0  0  0  0  0  0  0  0  0  0  0  0
  -20.9710  -29.7940   21.7010 H   0  0  0  0  0  0  0  0  0  0  0  0
  -18.0820  -28.0200   22.8520 C   0  0  0  0  0  0  0  0  0  0  0  0
  -20.6330  -28.3050   23.1610 C   0  0  0  0  0  3  0  0  0  0  0  0
  -20.7600  -26.8720   22.5960 C   0  0  0  0  0  2  0  0  0  0  0  0
  -19.6760  -26.5330   21.5670 C   0  0  0  0  0  2  0  0  0  0  0  0
  -18.2810  -26.6690   22.1870 C   0  0  0  0  0  2  0  0  0  0  0  0
  -19.1880  -28.7960   23.2940 C   0  0  0  0  0  0  0  0  0  0  0  0
  -18.9480  -30.0600   23.8740 C   0  0  0  0  0  3  0  0  0  0  0  0
  -17.6360  -30.5520   24.0160 C   0  0  0  0  0  3  0  0  0  0  0  0
  -16.5450  -29.7740   23.5910 C   0  0  0  0  0  3  0  0  0  0  0  0
  -16.7700  -28.5090   23.0160 C   0  0  0  0  0  3  0  0  0  0  0  0
  -25.8940  -32.5030   23.8600 C   0  0  0  0  0  3  0  0  0  0  0  0
  -25.5780  -33.9010   24.1800 N   0  0  0  0  0  0  0  0  0  0  0  0
  -25.9180  -34.9500   23.4200 C   0  0  0  0  0  0  0  0  0  0  0  0
  -26.5980  -34.8430   22.3960 O   0  0  0  0  0  0  0  0  0  0  0  0
  -24.9690  -34.0580   24.9710 H   0  0  0  0  0  0  0  0  0  0  0  0
  -24.1850  -36.7370   23.0450 C   0  0  0  0  0  1  0  0  0  0  0  0
  -25.4220  -36.3410   23.8660 C   0  0  0  0  0  3  0  0  0  0  0  0
  -27.5510  -37.2350   24.7050 C   0  0  0  0  0  1  0  0  0  0  0  0
  -26.4530  -37.3960   23.7550 N   0  0  0  0  0  0  0  0  0  0  0  0
  -26.0430  -38.3160   23.8950 H   0  0  0  0  0  0  0  0  0  0  0  0
  -26.4020  -31.7390   25.1450 C   0  0  1  0  0  0  0  0  0  0  0  0
  -25.3010  -31.5010   26.2060 C   0  0  0  0  0  1  0  0  0  0  0  0
  -26.9910  -30.3610   24.7610 C   0  0  0  0  0  1  0  0  0  0  0  0
  -27.5450  -32.5400   25.8130 C   0  0  0  0  0  1  0  0  0  0  0  0
  1  3  2  0
  1  2  1  0
  2  5  2  0
  3  6  1  0
  4  3  1  0
  6  5  1  0
  6 48  1  0
  8  7  1  0
  8  2  1  0
  8  9  1  0
 10 18  1  0
 11 16  1  0
 12 13  1  0
 12 11  1  0
 14 13  1  0
 14 23  1  0
 14 15  1  0
 16 10  1  0
 16 15  1  0
 17 10  2  0
 18  9  1  0
 18 19  1  0
 20 21  2  0
 21 40  1  0
 22 21  1  0
 22 25  1  0
 23 20  1  0
 23 24  1  0
 24 22  2  0
 25 26  1  0
 26 27  2  0
 28 31  1  0
 28 27  1  0
 29 28  2  0
 30 29  1  0
 30 25  2  0
 31 32  1  0
 32 33  1  0
 33 34  2  0
 35 34  1  0
 35 39  1  0
 36 35  2  0
 37 32  2  0
 37 36  1  0
 38 37  1  0
 40 41  1  0
 41 44  1  0
 41 43  1  0
 42 40  2  0
 45 46  1  0
 45 20  1  0
 47 45  1  0
 49 50  1  0
 49 48  1  0
 51 53  1  0
 51 50  1  0
 52 63  2  0
 53 58  1  0
 54 62  1  0
 54 64  1  0
 55 61  1  0
 55 57  1  0
 56 62  1  0
 57 56  1  0
 58 57  2  0
 59 53  2  0
 60 59  1  0
 60 55  2  0
 61 54  1  0
 62 52  1  0
 64 66  2  0
 65 64  1  0
 67 65  1  0
 68 77  2  0
 68 73  1  0
 69 65  1  0
 69 73  1  0
 70 69  1  0
 71 72  1  0
 71 70  1  0
 72 68  1  0
 73 74  2  0
 74 75  1  0
 76 75  2  0
 77 76  1  0
 78 52  1  0
 78 79  1  0
 78 88  1  0
 79 82  1  0
 80 84  1  0
 80 79  1  0
 81 80  2  0
 84 83  1  0
 86 84  1  0
 86 87  1  0
 86 85  1  0
 88 91  1  1
 88 89  1  0
 90 88  1  0
M  ISO  4  10 100  18 100  50 101  51 101
M  END
>  <TORSDO>  (9) 
F 21

>  <SCORE>  (9) 
-13.194

>  <name>  (9) 
10

>  <ligand_id>  (9) 
10

>  <original_smiles>  (9) 
[H]c1c([H])c([H])c2c(c1[H])C([H])([H])C([H])([H])C([H])([H])C2([H])N([H])C(=O)C1([H])N(C(=O)C([H])(N([H])C(=O)C([H])(N([H])C([H])([H])[H])C([H])([H])[H])C(C([H])([H])[H])(C([H])([H])[H])C([H])([H])[H])C([H])([H])c2c([H])c(OC([H])([H])C([H])([H])C([H])([H])n3nc(C([H])(C([H])([H])[H])C([H])([H])N([H])C(=O)N4C([H])([H])C([H])([H])C([H])([H])C([H])(n5nc(-c6c([H])c([H])c(Oc7c([H])c([H])c(F)c([H])c7F)c([H])c6[H])c(C(=O)N([H])[H])c5N([H])[H])C4([H])[H])c([H])c3C([H])([H])[H])c([H])c([H])c2C1([H])[H]

>  <smiles>  (9) 
[H]c1c([H])c([H])c2c(c1[H])C([H])([H])C([H])([H])C([H])([H])C2([H])N([H])C(=O)C1([H])N(C(=O)C([H])(N([H])C(=O)C([H])(N([H])C([H])([H])[H])C([H])([H])[H])C(C([H])([H])[H])(C([H])([H])[H])C([H])([H])[H])C([H])([H])c2c([H])c(OC([H])([H])C([H])([H])C([H])([H])n3nc(C([H])(C([H])([H])[H])C([H])([H])N([H])C(=O)N4C([H])([H])C([H])([H])C([H])([H])C([H])(n5nc(-c6c([H])c([H])c(Oc7c([H])c([H])c(F)c([H])c7F)c([H])c6[H])c(C(=O)N([H])[H])c5N([H])[H])C4([H])[H])c([H])c3C([H])([H])[H])c([H])c([H])c2C1([H])[H]

$$$$
11:0:0
     RDKit          3D

 93101  0  0  1  0  0  0  0  0999 V2000
  -28.9820  -19.3220   20.1580 C   0  0  0  0  0  3  0  0  0  0  0  0
  -29.8710  -18.2410   20.3420 C   0  0  0  0  0  0  0  0  0  0  0  0
  -29.4740  -20.6290   20.3250 C   0  0  0  0  0  0  0  0  0  0  0  0
  -31.5250  -19.7470   20.8310 C   0  0  0  0  0  0  0  0  0  0  0  0
  -31.1450  -18.4740   20.7040 N   0  0  0  0  0  0  0  0  0  0  0  0
  -30.7620  -20.8260   20.6540 N   0  0  0  0  0  0  0  0  0  0  0  0
  -33.1320  -20.4100   22.6990 C   0  0  0  0  0  1  0  0  0  0  0  0
  -32.9700  -20.0070   21.2230 C   0  0  0  0  0  2  0  0  0  0  0  0
  -29.8970  -16.5890   18.4260 C   0  0  0  0  0  1  0  0  0  0  0  0
  -29.4850  -16.8160   19.8960 C   0  0  0  0  0  3  0  0  0  0  0  0
  -30.6360  -14.6330   20.5960 C   0  0  0  0  0  0  0  0  0  0  0  0
  -30.4680  -12.3880   19.5870 C   0  0  0  0  0  2  0  0  0  0  0  0
  -29.5820  -12.5330   18.3280 C   0  0  0  0  0  2  0  0  0  0  0  0
  -28.0860  -12.4110   18.6900 C   0  0  0  0  0  2  0  0  0  0  0  0
  -27.6870  -13.2710   19.9190 C   0  0  0  0  0  3  0  0  0  0  0  0
  -28.6960  -13.0980   21.0800 C   0  0  0  0  0  2  0  0  0  0  0  0
  -30.0380  -13.4080   20.5610 N   0  0  0  0  0  0  0  0  0  0  0  0
  -31.7980  -14.8100   20.2180 O   0  0  0  0  0  0  0  0  0  0  0  0
  -29.7790  -15.6630   20.7950 N   0  0  0  0  0  0  0  0  0  0  0  0
  -28.9690  -15.4020   21.3330 H   0  0  0  0  0  0  0  0  0  0  0  0
  -25.2610  -13.8860   20.5230 C   0  0  0  0  0  0  0  0  0  0  0  0
  -24.1800  -13.1170   20.8590 C   0  0  0  0  0  0  0  0  0  0  0  0
  -24.6460  -11.7660   20.8720 C   0  0  0  0  0  0  0  0  0  0  0  0
  -26.3170  -13.0030   20.3490 N   0  0  0  0  0  0  0  0  0  0  0  0
  -25.9480  -11.7260   20.6200 N   0  0  0  0  0  0  0  0  0  0  0  0
  -23.9160  -10.5040   21.0530 C   0  0  0  0  0  0  0  0  0  0  0  0
  -24.3190   -9.5490   22.0140 C   0  0  0  0  0  3  0  0  0  0  0  0
  -23.5910   -8.3520   22.1840 C   0  0  0  0  0  3  0  0  0  0  0  0
  -22.4480   -8.1010   21.3890 C   0  0  0  0  0  0  0  0  0  0  0  0
  -22.0620   -9.0430   20.4190 C   0  0  0  0  0  3  0  0  0  0  0  0
  -22.7900  -10.2330   20.2480 C   0  0  0  0  0  3  0  0  0  0  0  0
  -21.6950   -6.9530   21.4630 O   0  0  0  0  0  0  0  0  0  0  0  0
  -21.6110   -6.2230   22.6210 C   0  0  0  0  0  0  0  0  0  0  0  0
  -21.1290   -6.7850   23.8230 C   0  0  0  0  0  3  0  0  0  0  0  0
  -20.9930   -5.9810   24.9710 C   0  0  0  0  0  3  0  0  0  0  0  0
  -21.3290   -4.6140   24.9210 C   0  0  0  0  0  0  0  0  0  0  0  0
  -21.8020   -4.0510   23.7220 C   0  0  0  0  0  3  0  0  0  0  0  0
  -21.9400   -4.8540   22.5760 C   0  0  0  0  0  0  0  0  0  0  0  0
  -22.3770   -4.3000   21.4180 F   0  0  0  0  0  0  0  0  0  0  0  0
  -21.1900   -3.8400   26.0220 F   0  0  0  0  0  0  0  0  0  0  0  0
  -22.7700  -13.5940   21.0630 C   0  0  0  0  0  0  0  0  0  0  0  0
  -22.0060  -12.9160   21.9110 N   0  0  0  0  0  0  0  0  0  0  0  0
  -22.3520  -14.6070   20.5040 O   0  0  0  0  0  0  0  0  0  0  0  0
  -22.3520  -12.0990   22.3920 H   0  0  0  0  0  0  0  0  0  0  0  0
  -21.0610  -13.2230   22.0840 H   0  0  0  0  0  0  0  0  0  0  0  0
  -25.4230  -15.2540   20.3230 N   0  0  0  0  0  0  0  0  0  0  0  0
  -24.6440  -15.8990   20.3800 H   0  0  0  0  0  0  0  0  0  0  0  0
  -26.2660  -15.6880   19.9770 H   0  0  0  0  0  0  0  0  0  0  0  0
  -28.6440  -21.7360   20.1580 O   0  0  0  0  0  0  0  0  0  0  0  0
  -29.2080  -23.0410   19.8760 C   0  0  0  0  0  2  0  0  0  0  0  0
  -28.1880  -24.2110   20.0910 C   0  0  0  0  0  2  0  0  0  0  0  0
  -28.5930  -25.5680   19.4320 C   0  0  0  0  0  2  0  0  0  0  0  0
  -28.3940  -26.7550   20.2320 O   0  0  0  0  0  0  0  0  0  0  0  0
  -24.5470  -31.9270   23.2920 C   0  0  0  0  0  0  0  0  0  0  0  0
  -27.2020  -27.4610   20.2080 C   0  0  0  0  0  0  0  0  0  0  0  0
  -23.3480  -30.5220   21.6430 C   0  0  0  0  0  3  0  0  0  0  0  0
  -24.8070  -28.9810   20.2310 C   0  0  0  0  0  0  0  0  0  0  0  0
  -25.8790  -30.8730   21.4650 C   0  0  0  0  0  2  0  0  0  0  0  0
  -25.9630  -29.5020   20.8210 C   0  0  0  0  0  0  0  0  0  0  0  0
  -27.1590  -28.7440   20.8090 C   0  0  0  0  0  3  0  0  0  0  0  0
  -26.0170  -26.9520   19.6280 C   0  0  0  0  0  3  0  0  0  0  0  0
  -24.8270  -27.7060   19.6380 C   0  0  0  0  0  3  0  0  0  0  0  0
  -23.5670  -29.8440   20.2660 C   0  0  0  0  0  2  0  0  0  0  0  0
  -24.6090  -31.1230   22.1920 N   0  0  0  0  0  0  0  0  0  0  0  0
  -23.4630  -32.2030   23.8260 O   0  0  0  0  0  0  0  0  0  0  0  0
  -22.6930  -29.5010   22.6020 C   0  0  0  0  0  0  0  0  0  0  0  0
  -21.3710  -29.3130   22.4640 N   0  0  0  0  0  0  0  0  0  0  0  0
  -23.3710  -28.8830   23.4280 O   0  0  0  0  0  0  0  0  0  0  0  0
  -20.8840  -29.8650   21.7720 H   0  0  0  0  0  0  0  0  0  0  0  0
  -17.9980  -28.1140   22.9430 C   0  0  0  0  0  0  0  0  0  0  0  0
  -20.5510  -28.3750   23.2340 C   0  0  0  0  0  3  0  0  0  0  0  0
  -20.6620  -26.9440   22.6600 C   0  0  0  0  0  2  0  0  0  0  0  0
  -19.5680  -26.6170   21.6390 C   0  0  0  0  0  2  0  0  0  0  0  0
  -18.1810  -26.7620   22.2730 C   0  0  0  0  0  2  0  0  0  0  0  0
  -19.1100  -28.8780   23.3810 C   0  0  0  0  0  0  0  0  0  0  0  0
  -18.8860  -30.1430   23.9650 C   0  0  0  0  0  3  0  0  0  0  0  0
  -17.5790  -30.6400   24.1210 C   0  0  0  0  0  3  0  0  0  0  0  0
  -16.4790  -29.8720   23.7010 C   0  0  0  0  0  3  0  0  0  0  0  0
  -16.6900  -28.6110   23.1170 C   0  0  0  0  0  3  0  0  0  0  0  0
  -25.8310  -32.5590   23.9160 C   0  0  0  0  0  3  0  0  0  0  0  0
  -25.5330  -33.9660   24.2170 N   0  0  0  0  0  0  0  0  0  0  0  0
  -25.8820  -35.0020   23.4430 C   0  0  0  0  0  0  0  0  0  0  0  0
  -26.5640  -34.8750   22.4230 O   0  0  0  0  0  0  0  0  0  0  0  0
  -24.9350  -34.1440   25.0110 H   0  0  0  0  0  0  0  0  0  0  0  0
  -24.1800  -36.8000   23.0210 C   0  0  0  0  0  1  0  0  0  0  0  0
  -25.3970  -36.3990   23.8700 C   0  0  0  0  0  3  0  0  0  0  0  0
  -27.5200  -37.2740   24.7430 C   0  0  0  0  0  1  0  0  0  0  0  0
  -26.4440  -37.4400   23.7680 N   0  0  0  0  0  0  0  0  0  0  0  0
  -26.0440  -38.3660   23.8930 H   0  0  0  0  0  0  0  0  0  0  0  0
  -26.3320  -31.8070   25.2110 C   0  0  1  0  0  0  0  0  0  0  0  0
  -25.2260  -31.5950   26.2700 C   0  0  0  0  0  1  0  0  0  0  0  0
  -26.9110  -30.4190   24.8500 C   0  0  0  0  0  1  0  0  0  0  0  0
  -27.4800  -32.6060   25.8730 C   0  0  0  0  0  1  0  0  0  0  0  0
  1  3  1  0
  1  2  2  0
  2  5  1  0
  3  6  2  0
  4  8  1  0
  5  4  2  0
  6  4  1  0
  8  7  1  0
 10  9  1  0
 10  2  1  0
 10 19  1  0
 11 19  1  0
 12 17  1  0
 13 14  1  0
 13 12  1  0
 15 14  1  0
 15 24  1  0
 15 16  1  0
 17 11  1  0
 17 16  1  0
 18 11  2  0
 19 20  1  0
 21 22  2  0
 22 23  1  0
 22 41  1  0
 23 26  1  0
 24 21  1  0
 24 25  1  0
 25 23  2  0
 26 27  1  0
 27 28  2  0
 29 32  1  0
 29 28  1  0
 30 29  2  0
 31 30  1  0
 31 26  2  0
 32 33  1  0
 33 34  1  0
 34 35  2  0
 36 35  1  0
 36 40  1  0
 37 36  2  0
 38 33  2  0
 38 37  1  0
 39 38  1  0
 41 42  1  0
 42 45  1  0
 42 44  1  0
 43 41  2  0
 46 47  1  0
 46 21  1  0
 48 46  1  0
 49  3  1  0
 50 51  1  0
 50 49  1  0
 52 51  1  0
 52 53  1  0
 54 65  2  0
 55 53  1  0
 55 60  1  0
 56 64  1  0
 56 66  1  0
 57 63  1  0
 57 59  1  0
 58 64  1  0
 59 58  1  0
 60 59  2  0
 61 62  1  0
 61 55  2  0
 62 57  2  0
 63 56  1  0
 64 54  1  0
 66 68  2  0
 67 66  1  0
 69 67  1  0
 70 79  2  0
 70 75  1  0
 71 67  1  0
 71 75  1  0
 72 71  1  0
 73 74  1  0
 73 72  1  0
 74 70  1  0
 75 76  2  0
 76 77  1  0
 78 77  2  0
 79 78  1  0
 80 54  1  0
 80 81  1  0
 80 90  1  0
 81 84  1  0
 82 86  1  0
 82 81  1  0
 83 82  2  0
 86 85  1  0
 88 86  1  0
 88 89  1  0
 88 87  1  0
 90 93  1  1
 90 91  1  0
 92 90  1  0
M  ISO  4  11 100  19 100  52 101  53 101
M  END
>  <TORSDO>  (10) 
F 22

>  <SCORE>  (10) 
-13.147

>  <name>  (10) 
11

>  <ligand_id>  (10) 
11

>  <original_smiles>  (10) 
[H]c1c(OC([H])([H])C([H])([H])C([H])([H])Oc2c([H])c([H])c3c(c2[H])C([H])([H])N(C(=O)C([H])(N([H])C(=O)C([H])(N([H])C([H])([H])[H])C([H])([H])[H])C(C([H])([H])[H])(C([H])([H])[H])C([H])([H])[H])C([H])(C(=O)N([H])C2([H])c4c([H])c([H])c([H])c([H])c4C([H])([H])C([H])([H])C2([H])[H])C3([H])[H])nc(C([H])([H])C([H])([H])[H])nc1C([H])(N([H])C(=O)N1C([H])([H])C([H])([H])C([H])([H])C([H])(n2nc(-c3c([H])c([H])c(Oc4c([H])c([H])c(F)c([H])c4F)c([H])c3[H])c(C(=O)N([H])[H])c2N([H])[H])C1([H])[H])C([H])([H])[H]

>  <smiles>  (10) 
[H]c1c(OC([H])([H])C([H])([H])C([H])([H])Oc2c([H])c([H])c3c(c2[H])C([H])([H])N(C(=O)C([H])(N([H])C(=O)C([H])(N([H])C([H])([H])[H])C([H])([H])[H])C(C([H])([H])[H])(C([H])([H])[H])C([H])([H])[H])C([H])(C(=O)N([H])C2([H])c4c([H])c([H])c([H])c([H])c4C([H])([H])C([H])([H])C2([H])[H])C3([H])[H])nc(C([H])([H])C([H])([H])[H])nc1C([H])(N([H])C(=O)N1C([H])([H])C([H])([H])C([H])([H])C([H])(n2nc(-c3c([H])c([H])c(Oc4c([H])c([H])c(F)c([H])c4F)c([H])c3[H])c(C(=O)N([H])[H])c2N([H])[H])C1([H])[H])C([H])([H])[H]

$$$$
12:0:0
     RDKit          3D

 92100  0  0  1  0  0  0  0  0999 V2000
  -28.4110  -22.3400   21.6150 C   0  0  0  0  0  0  0  0  0  0  0  0
  -29.6820  -20.9220   20.7290 C   0  0  0  0  0  0  0  0  0  0  0  0
  -28.4940  -21.3290   22.4860 N   0  0  0  0  0  0  0  0  0  0  0  0
  -29.3490  -20.4240   21.9250 N   0  0  0  0  0  0  0  0  0  0  0  0
  -29.2030  -22.1950   20.5190 N   0  0  0  0  0  0  0  0  0  0  0  0
  -26.2370  -23.3900   20.8610 C   0  0  0  0  0  1  0  0  0  0  0  0
  -27.4280  -23.4560   21.8280 C   0  0  0  0  0  2  0  0  0  0  0  0
  -30.5380  -20.0950   19.7810 C   0  0  0  0  0  2  0  0  0  0  0  0
  -30.2100  -18.5530   19.7170 C   0  0  0  0  0  3  0  0  0  0  0  0
  -31.0340  -17.6030   20.6520 C   0  0  0  0  0  3  0  0  0  0  0  0
  -31.3660  -15.0990   20.2390 C   0  0  0  0  0  0  0  0  0  0  0  0
  -31.1450  -12.8040   19.3350 C   0  0  0  0  0  2  0  0  0  0  0  0
  -30.2270  -12.8380   18.0940 C   0  0  0  0  0  2  0  0  0  0  0  0
  -28.7460  -12.7170   18.5060 C   0  0  0  0  0  2  0  0  0  0  0  0
  -28.3630  -13.6870   19.6550 C   0  0  0  0  0  3  0  0  0  0  0  0
  -29.3950  -13.6210   20.8030 C   0  0  0  0  0  2  0  0  0  0  0  0
  -30.7230  -13.8960   20.2300 N   0  0  0  0  0  0  0  0  0  0  0  0
  -32.5120  -15.2360   19.8020 O   0  0  0  0  0  0  0  0  0  0  0  0
  -30.6260  -16.1720   20.6150 N   0  0  0  0  0  0  0  0  0  0  0  0
  -29.6930  -15.9630   20.9400 H   0  0  0  0  0  0  0  0  0  0  0  0
  -25.9850  -14.3530   20.3720 C   0  0  0  0  0  0  0  0  0  0  0  0
  -24.8940  -13.6090   20.7320 C   0  0  0  0  0  0  0  0  0  0  0  0
  -25.3160  -12.2450   20.6880 C   0  0  0  0  0  0  0  0  0  0  0  0
  -27.0030  -13.4450   20.1310 N   0  0  0  0  0  0  0  0  0  0  0  0
  -26.6050  -12.1710   20.3800 N   0  0  0  0  0  0  0  0  0  0  0  0
  -24.5520  -11.0030   20.8640 C   0  0  0  0  0  0  0  0  0  0  0  0
  -24.9060  -10.0510   21.8470 C   0  0  0  0  0  3  0  0  0  0  0  0
  -24.1450   -8.8740   22.0100 C   0  0  0  0  0  3  0  0  0  0  0  0
  -23.0160   -8.6390   21.1890 C   0  0  0  0  0  0  0  0  0  0  0  0
  -22.6820   -9.5770   20.1970 C   0  0  0  0  0  3  0  0  0  0  0  0
  -23.4430  -10.7470   20.0330 C   0  0  0  0  0  3  0  0  0  0  0  0
  -22.2340   -7.5120   21.2590 O   0  0  0  0  0  0  0  0  0  0  0  0
  -22.0230   -6.8530   22.4430 C   0  0  0  0  0  0  0  0  0  0  0  0
  -21.4340   -7.4920   23.5550 C   0  0  0  0  0  3  0  0  0  0  0  0
  -21.1720   -6.7600   24.7310 C   0  0  0  0  0  3  0  0  0  0  0  0
  -21.4890   -5.3900   24.7940 C   0  0  0  0  0  0  0  0  0  0  0  0
  -22.0700   -4.7500   23.6840 C   0  0  0  0  0  3  0  0  0  0  0  0
  -22.3330   -5.4800   22.5110 C   0  0  0  0  0  0  0  0  0  0  0  0
  -22.8740   -4.8540   21.4380 F   0  0  0  0  0  0  0  0  0  0  0  0
  -21.2300   -4.6840   25.9190 F   0  0  0  0  0  0  0  0  0  0  0  0
  -23.5110  -14.1240   21.0090 C   0  0  0  0  0  0  0  0  0  0  0  0
  -22.7670  -13.4470   21.8760 N   0  0  0  0  0  0  0  0  0  0  0  0
  -23.1010  -15.1610   20.4910 O   0  0  0  0  0  0  0  0  0  0  0  0
  -23.1140  -12.6060   22.3150 H   0  0  0  0  0  0  0  0  0  0  0  0
  -21.8390  -13.7730   22.1050 H   0  0  0  0  0  0  0  0  0  0  0  0
  -26.1910  -15.7200   20.2070 N   0  0  0  0  0  0  0  0  0  0  0  0
  -25.4410  -16.3950   20.3120 H   0  0  0  0  0  0  0  0  0  0  0  0
  -27.0520  -16.1350   19.8760 H   0  0  0  0  0  0  0  0  0  0  0  0
  -29.3630  -23.1150   19.3620 C   0  0  0  0  0  2  0  0  0  0  0  0
  -29.6340  -24.6450   19.6510 C   0  0  0  0  0  2  0  0  0  0  0  0
  -28.5030  -25.6030   19.1530 C   0  0  0  0  0  2  0  0  0  0  0  0
  -28.5980  -27.0210   19.4850 O   0  0  0  0  0  0  0  0  0  0  0  0
  -24.5940  -31.7050   23.1400 C   0  0  0  0  0  0  0  0  0  0  0  0
  -27.4050  -27.7400   19.5420 C   0  0  0  0  0  0  0  0  0  0  0  0
  -23.4250  -30.3940   21.4050 C   0  0  0  0  0  3  0  0  0  0  0  0
  -24.9230  -29.1200   19.7790 C   0  0  0  0  0  0  0  0  0  0  0  0
  -25.9200  -30.9330   21.1720 C   0  0  0  0  0  2  0  0  0  0  0  0
  -26.0720  -29.6420   20.3860 C   0  0  0  0  0  0  0  0  0  0  0  0
  -27.3140  -28.9610   20.2650 C   0  0  0  0  0  3  0  0  0  0  0  0
  -26.2280  -27.2680   18.9050 C   0  0  0  0  0  3  0  0  0  0  0  0
  -25.0000  -27.9360   19.0340 C   0  0  0  0  0  3  0  0  0  0  0  0
  -23.6280  -29.8800   19.9570 C   0  0  0  0  0  2  0  0  0  0  0  0
  -24.6660  -31.0210   21.9640 N   0  0  0  0  0  0  0  0  0  0  0  0
  -23.5170  -31.8450   23.7380 O   0  0  0  0  0  0  0  0  0  0  0  0
  -22.8800  -29.2350   22.2720 C   0  0  0  0  0  0  0  0  0  0  0  0
  -21.5770  -28.9390   22.1310 N   0  0  0  0  0  0  0  0  0  0  0  0
  -23.6250  -28.6110   23.0320 O   0  0  0  0  0  0  0  0  0  0  0  0
  -21.0290  -29.5020   21.4970 H   0  0  0  0  0  0  0  0  0  0  0  0
  -18.3460  -27.3590   22.4930 C   0  0  0  0  0  0  0  0  0  0  0  0
  -20.8600  -27.8660   22.8220 C   0  0  0  0  0  3  0  0  0  0  0  0
  -21.1190  -26.4990   22.1450 C   0  0  0  0  0  2  0  0  0  0  0  0
  -20.0650  -26.1370   21.0950 C   0  0  0  0  0  2  0  0  0  0  0  0
  -18.6710  -26.0890   21.7260 C   0  0  0  0  0  2  0  0  0  0  0  0
  -19.3740  -28.2020   22.9940 C   0  0  0  0  0  0  0  0  0  0  0  0
  -19.0170  -29.3900   23.6690 C   0  0  0  0  0  3  0  0  0  0  0  0
  -17.6650  -29.7370   23.8510 C   0  0  0  0  0  3  0  0  0  0  0  0
  -16.6520  -28.8900   23.3690 C   0  0  0  0  0  3  0  0  0  0  0  0
  -16.9930  -27.7050   22.6950 C   0  0  0  0  0  3  0  0  0  0  0  0
  -25.8550  -32.3640   23.7800 C   0  0  0  0  0  3  0  0  0  0  0  0
  -25.4960  -33.7400   24.1490 N   0  0  0  0  0  0  0  0  0  0  0  0
  -25.7910  -34.8250   23.4220 C   0  0  0  0  0  0  0  0  0  0  0  0
  -26.4660  -34.7760   22.3890 O   0  0  0  0  0  0  0  0  0  0  0  0
  -24.8930  -33.8480   24.9530 H   0  0  0  0  0  0  0  0  0  0  0  0
  -23.9950  -36.5620   23.1210 C   0  0  0  0  0  1  0  0  0  0  0  0
  -25.2530  -36.1800   23.9180 C   0  0  0  0  0  3  0  0  0  0  0  0
  -27.3530  -37.1250   24.7720 C   0  0  0  0  0  1  0  0  0  0  0  0
  -26.2460  -37.2750   23.8330 N   0  0  0  0  0  0  0  0  0  0  0  0
  -25.8040  -38.1740   24.0050 H   0  0  0  0  0  0  0  0  0  0  0  0
  -26.4000  -31.5750   25.0330 C   0  0  1  0  0  0  0  0  0  0  0  0
  -25.3150  -31.2590   26.0880 C   0  0  0  0  0  1  0  0  0  0  0  0
  -27.0390  -30.2340   24.5990 C   0  0  0  0  0  1  0  0  0  0  0  0
  -27.5160  -32.3930   25.7230 C   0  0  0  0  0  1  0  0  0  0  0  0
  1  7  1  0
  1  3  2  0
  2  4  2  0
  4  3  1  0
  5  2  1  0
  5  1  1  0
  6  7  1  0
  8  2  1  0
  9  8  1  0
  9 10  2  0
 11 19  1  0
 12 17  1  0
 13 14  1  0
 13 12  1  0
 15 14  1  0
 15 24  1  0
 15 16  1  0
 17 11  1  0
 17 16  1  0
 18 11  2  0
 19 10  1  0
 19 20  1  0
 21 22  2  0
 22 41  1  0
 23 22  1  0
 23 26  1  0
 24 21  1  0
 24 25  1  0
 25 23  2  0
 26 27  1  0
 27 28  2  0
 29 32  1  0
 29 28  1  0
 30 29  2  0
 31 30  1  0
 31 26  2  0
 32 33  1  0
 33 38  2  0
 33 34  1  0
 34 35  2  0
 35 36  1  0
 36 40  1  0
 37 36  2  0
 38 37  1  0
 39 38  1  0
 41 42  1  0
 42 45  1  0
 42 44  1  0
 43 41  2  0
 46 47  1  0
 46 21  1  0
 48 46  1  0
 49 50  1  0
 49  5  1  0
 51 52  1  0
 51 50  1  0
 52 54  1  0
 53 64  2  0
 54 59  1  0
 55 63  1  0
 55 65  1  0
 56 62  1  0
 56 58  1  0
 57 63  1  0
 58 57  1  0
 59 58  2  0
 60 61  1  0
 60 54  2  0
 61 56  2  0
 62 55  1  0
 63 53  1  0
 65 67  2  0
 66 65  1  0
 68 66  1  0
 69 78  2  0
 69 74  1  0
 70 66  1  0
 70 74  1  0
 71 70  1  0
 72 73  1  0
 72 71  1  0
 73 69  1  0
 74 75  2  0
 75 76  1  0
 77 76  2  0
 78 77  1  0
 79 53  1  0
 79 80  1  0
 79 89  1  0
 80 83  1  0
 81 85  1  0
 81 80  1  0
 82 81  2  0
 85 84  1  0
 87 85  1  0
 87 88  1  0
 87 86  1  0
 89 92  1  1
 89 90  1  0
 91 89  1  0
M  ISO  4  11 100  19 100  51 101  52 101
M  END
>  <TORSDO>  (11) 
F 23

>  <SCORE>  (11) 
-10.468

>  <name>  (11) 
12

>  <ligand_id>  (11) 
12

>  <original_smiles>  (11) 
[H]c1c([H])c([H])c2c(c1[H])C([H])([H])C([H])([H])C([H])([H])C2([H])N([H])C(=O)C1([H])N(C(=O)C([H])(N([H])C(=O)C([H])(N([H])C([H])([H])[H])C([H])([H])[H])C(C([H])([H])[H])(C([H])([H])[H])C([H])([H])[H])C([H])([H])c2c([H])c(OC([H])([H])C([H])([H])C([H])([H])n3c(C([H])([H])C([H])([H])[H])nnc3C([H])([H])C([H])([H])C([H])([H])N([H])C(=O)N3C([H])([H])C([H])([H])C([H])([H])C([H])(n4nc(-c5c([H])c([H])c(Oc6c([H])c([H])c(F)c([H])c6F)c([H])c5[H])c(C(=O)N([H])[H])c4N([H])[H])C3([H])[H])c([H])c([H])c2C1([H])[H]

>  <smiles>  (11) 
[H]c1c([H])c([H])c2c(c1[H])C([H])([H])C([H])([H])C([H])([H])C2([H])N([H])C(=O)C1([H])N(C(=O)C([H])(N([H])C(=O)C([H])(N([H])C([H])([H])[H])C([H])([H])[H])C(C([H])([H])[H])(C([H])([H])[H])C([H])([H])[H])C([H])([H])c2c([H])c(OC([H])([H])C([H])([H])C([H])([H])n3c(C([H])([H])C([H])([H])[H])nnc3C([H])([H])C([H])([H])C([H])([H])N([H])C(=O)N3C([H])([H])C([H])([H])C([H])([H])C([H])(n4nc(-c5c([H])c([H])c(Oc6c([H])c([H])c(F)c([H])c6F)c([H])c5[H])c(C(=O)N([H])[H])c4N([H])[H])C3([H])[H])c([H])c([H])c2C1([H])[H]

$$$$
13:0:0
     RDKit          3D

 90 98  0  0  1  0  0  0  0  0999 V2000
  -28.7710  -20.7850   20.7250 C   0  0  0  0  0  2  0  0  0  0  0  0
  -30.7020  -18.2170   18.7630 C   0  0  0  0  0  3  0  0  0  0  0  0
  -30.1030  -20.2740   18.7000 C   0  0  0  0  0  3  0  0  0  0  0  0
  -29.9960  -18.4370   19.9280 C   0  0  0  0  0  0  0  0  0  0  0  0
  -30.7630  -19.3700   17.9880 N   0  0  0  0  0  0  0  0  0  0  0  0
  -29.6100  -19.8500   19.8740 N   0  0  0  0  0  0  0  0  0  0  0  0
  -30.7840  -17.5070   22.1730 C   0  0  0  0  0  1  0  0  0  0  0  0
  -29.7960  -17.3280   21.0130 C   0  0  0  0  0  3  0  0  0  0  0  0
  -30.5370  -14.7750   20.3500 C   0  0  0  0  0  0  0  0  0  0  0  0
  -30.3860  -12.5090   19.2860 C   0  0  0  0  0  2  0  0  0  0  0  0
  -29.4200  -12.5750   18.0800 C   0  0  0  0  0  2  0  0  0  0  0  0
  -27.9580  -12.3790   18.5330 C   0  0  0  0  0  2  0  0  0  0  0  0
  -27.5930  -13.2590   19.7570 C   0  0  0  0  0  3  0  0  0  0  0  0
  -28.6660  -13.1500   20.8630 C   0  0  0  0  0  2  0  0  0  0  0  0
  -29.9490  -13.5350   20.2580 N   0  0  0  0  0  0  0  0  0  0  0  0
  -31.7200  -14.9270   20.0290 O   0  0  0  0  0  0  0  0  0  0  0  0
  -29.6910  -15.8380   20.6370 N   0  0  0  0  0  0  0  0  0  0  0  0
  -28.7460  -15.5030   20.7530 H   0  0  0  0  0  0  0  0  0  0  0  0
  -25.2120  -13.8490   20.5160 C   0  0  0  0  0  0  0  0  0  0  0  0
  -24.1530  -13.0730   20.9010 C   0  0  0  0  0  0  0  0  0  0  0  0
  -24.6190  -11.7240   20.8640 C   0  0  0  0  0  0  0  0  0  0  0  0
  -26.2550  -12.9720   20.2640 N   0  0  0  0  0  0  0  0  0  0  0  0
  -25.9060  -11.6880   20.5370 N   0  0  0  0  0  0  0  0  0  0  0  0
  -23.8990  -10.4590   21.0660 C   0  0  0  0  0  0  0  0  0  0  0  0
  -24.3520   -9.4870   21.9840 C   0  0  0  0  0  3  0  0  0  0  0  0
  -23.6330   -8.2880   22.1730 C   0  0  0  0  0  3  0  0  0  0  0  0
  -22.4450   -8.0510   21.4410 C   0  0  0  0  0  0  0  0  0  0  0  0
  -22.0090   -9.0120   20.5110 C   0  0  0  0  0  3  0  0  0  0  0  0
  -22.7300  -10.2020   20.3210 C   0  0  0  0  0  3  0  0  0  0  0  0
  -21.6950   -6.9030   21.5380 O   0  0  0  0  0  0  0  0  0  0  0  0
  -21.6820   -6.1480   22.6830 C   0  0  0  0  0  0  0  0  0  0  0  0
  -21.3050   -6.6920   23.9300 C   0  0  0  0  0  3  0  0  0  0  0  0
  -21.2380   -5.8630   25.0670 C   0  0  0  0  0  3  0  0  0  0  0  0
  -21.5380   -4.4910   24.9590 C   0  0  0  0  0  0  0  0  0  0  0  0
  -21.9090   -3.9470   23.7170 C   0  0  0  0  0  3  0  0  0  0  0  0
  -21.9780   -4.7730   22.5810 C   0  0  0  0  0  0  0  0  0  0  0  0
  -22.3140   -4.2410   21.3820 F   0  0  0  0  0  0  0  0  0  0  0  0
  -21.4650   -3.6920   26.0500 F   0  0  0  0  0  0  0  0  0  0  0  0
  -22.7580  -13.5480   21.1860 C   0  0  0  0  0  0  0  0  0  0  0  0
  -22.0400  -12.8540   22.0620 N   0  0  0  0  0  0  0  0  0  0  0  0
  -22.3110  -14.5720   20.6690 O   0  0  0  0  0  0  0  0  0  0  0  0
  -22.4120  -12.0280   22.5080 H   0  0  0  0  0  0  0  0  0  0  0  0
  -21.1040  -13.1560   22.2950 H   0  0  0  0  0  0  0  0  0  0  0  0
  -25.3660  -15.2200   20.3340 N   0  0  0  0  0  0  0  0  0  0  0  0
  -24.5850  -15.8590   20.4390 H   0  0  0  0  0  0  0  0  0  0  0  0
  -26.1840  -15.6620   19.9340 H   0  0  0  0  0  0  0  0  0  0  0  0
  -29.1470  -22.3660   20.9100 C   0  0  0  0  0  2  0  0  0  0  0  0
  -28.5440  -23.6320   20.0780 C   0  0  0  0  0  2  0  0  0  0  0  0
  -28.2560  -25.0440   20.8430 C   0  0  0  0  0  2  0  0  0  0  0  0
  -28.3430  -26.4070   20.2140 O   0  0  0  0  0  0  0  0  0  0  0  0
  -24.6140  -31.8780   23.2410 C   0  0  0  0  0  0  0  0  0  0  0  0
  -27.2290  -27.2710   20.2260 C   0  0  0  0  0  0  0  0  0  0  0  0
  -23.4170  -30.4750   21.5990 C   0  0  0  0  0  3  0  0  0  0  0  0
  -24.8700  -28.9080   20.1880 C   0  0  0  0  0  0  0  0  0  0  0  0
  -25.9570  -30.7850   21.4220 C   0  0  0  0  0  2  0  0  0  0  0  0
  -26.0400  -29.3960   20.7850 C   0  0  0  0  0  0  0  0  0  0  0  0
  -27.2250  -28.5930   20.7860 C   0  0  0  0  0  3  0  0  0  0  0  0
  -26.0370  -26.8380   19.6110 C   0  0  0  0  0  3  0  0  0  0  0  0
  -24.8730  -27.6350   19.5910 C   0  0  0  0  0  3  0  0  0  0  0  0
  -23.6360  -29.7900   20.2240 C   0  0  0  0  0  2  0  0  0  0  0  0
  -24.6820  -31.0640   22.1440 N   0  0  0  0  0  0  0  0  0  0  0  0
  -23.5300  -32.1580   23.7710 O   0  0  0  0  0  0  0  0  0  0  0  0
  -22.7470  -29.4650   22.5630 C   0  0  0  0  0  0  0  0  0  0  0  0
  -21.4220  -29.2860   22.4300 N   0  0  0  0  0  0  0  0  0  0  0  0
  -23.4220  -28.8450   23.3890 O   0  0  0  0  0  0  0  0  0  0  0  0
  -20.9370  -29.8340   21.7340 H   0  0  0  0  0  0  0  0  0  0  0  0
  -18.0460  -28.0780   22.9190 C   0  0  0  0  0  0  0  0  0  0  0  0
  -20.6020  -28.3510   23.2040 C   0  0  0  0  0  3  0  0  0  0  0  0
  -20.7150  -26.9160   22.6390 C   0  0  0  0  0  2  0  0  0  0  0  0
  -19.6210  -26.5810   21.6210 C   0  0  0  0  0  2  0  0  0  0  0  0
  -18.2340  -26.7250   22.2540 C   0  0  0  0  0  2  0  0  0  0  0  0
  -19.1580  -28.8470   23.3520 C   0  0  0  0  0  0  0  0  0  0  0  0
  -18.9290  -30.1120   23.9360 C   0  0  0  0  0  3  0  0  0  0  0  0
  -17.6210  -30.6080   24.0890 C   0  0  0  0  0  3  0  0  0  0  0  0
  -16.5240  -29.8360   23.6710 C   0  0  0  0  0  3  0  0  0  0  0  0
  -16.7370  -28.5720   23.0920 C   0  0  0  0  0  3  0  0  0  0  0  0
  -25.8950  -32.5120   23.8650 C   0  0  0  0  0  3  0  0  0  0  0  0
  -25.5830  -33.9120   24.1930 N   0  0  0  0  0  0  0  0  0  0  0  0
  -25.9150  -34.9640   23.4340 C   0  0  0  0  0  0  0  0  0  0  0  0
  -26.5850  -34.8590   22.4030 O   0  0  0  0  0  0  0  0  0  0  0  0
  -24.9860  -34.0670   24.9920 H   0  0  0  0  0  0  0  0  0  0  0  0
  -24.1840  -36.7560   23.0820 C   0  0  0  0  0  1  0  0  0  0  0  0
  -25.4290  -36.3540   23.8900 C   0  0  0  0  0  3  0  0  0  0  0  0
  -27.5680  -37.2400   24.7080 C   0  0  0  0  0  1  0  0  0  0  0  0
  -26.4600  -37.4070   23.7710 N   0  0  0  0  0  0  0  0  0  0  0  0
  -26.0550  -38.3280   23.9190 H   0  0  0  0  0  0  0  0  0  0  0  0
  -26.4070  -31.7440   25.1450 C   0  0  1  0  0  0  0  0  0  0  0  0
  -25.3100  -31.5160   26.2120 C   0  0  0  0  0  1  0  0  0  0  0  0
  -26.9860  -30.3630   24.7620 C   0  0  0  0  0  1  0  0  0  0  0  0
  -27.5580  -32.5390   25.8070 C   0  0  0  0  0  1  0  0  0  0  0  0
  1 47  1  0
  2  4  2  0
  3  6  1  0
  4  8  1  0
  5  3  2  0
  5  2  1  0
  6  4  1  0
  6  1  1  0
  8  7  1  0
  9 17  1  0
 10 15  1  0
 11 12  1  0
 11 10  1  0
 13 12  1  0
 13 22  1  0
 13 14  1  0
 15  9  1  0
 15 14  1  0
 16  9  2  0
 17 18  1  0
 17  8  1  0
 19 20  2  0
 20 39  1  0
 21 20  1  0
 21 24  1  0
 22 19  1  0
 22 23  1  0
 23 21  2  0
 24 25  1  0
 25 26  2  0
 27 30  1  0
 27 26  1  0
 28 27  2  0
 29 28  1  0
 29 24  2  0
 30 31  1  0
 31 32  1  0
 32 33  2  0
 34 33  1  0
 34 38  1  0
 35 34  2  0
 36 31  2  0
 36 35  1  0
 37 36  1  0
 39 40  1  0
 40 43  1  0
 40 42  1  0
 41 39  2  0
 44 45  1  0
 44 19  1  0
 46 44  1  0
 48 49  1  0
 48 47  1  0
 50 52  1  0
 50 49  1  0
 51 62  2  0
 52 57  1  0
 53 61  1  0
 53 63  1  0
 54 60  1  0
 54 56  1  0
 55 61  1  0
 56 57  2  0
 56 55  1  0
 58 52  2  0
 59 58  1  0
 59 54  2  0
 60 53  1  0
 61 51  1  0
 63 65  2  0
 64 63  1  0
 66 64  1  0
 67 76  2  0
 67 72  1  0
 68 64  1  0
 68 72  1  0
 69 68  1  0
 70 71  1  0
 70 69  1  0
 71 67  1  0
 72 73  2  0
 73 74  1  0
 75 74  2  0
 76 75  1  0
 77 51  1  0
 77 78  1  0
 77 87  1  0
 78 81  1  0
 79 83  1  0
 79 78  1  0
 80 79  2  0
 83 82  1  0
 85 83  1  0
 85 86  1  0
 85 84  1  0
 87 90  1  1
 87 88  1  0
 89 87  1  0
M  ISO  4   9 100  17 100  49 101  50 101
M  END
>  <TORSDO>  (12) 
F 21

>  <SCORE>  (12) 
-13.586

>  <name>  (12) 
13

>  <ligand_id>  (12) 
13

>  <original_smiles>  (12) 
[H]c1nc([H])n(C([H])([H])C([H])([H])C([H])([H])C([H])([H])Oc2c([H])c([H])c3c(c2[H])C([H])([H])N(C(=O)C([H])(N([H])C(=O)C([H])(N([H])C([H])([H])[H])C([H])([H])[H])C(C([H])([H])[H])(C([H])([H])[H])C([H])([H])[H])C([H])(C(=O)N([H])C2([H])c4c([H])c([H])c([H])c([H])c4C([H])([H])C([H])([H])C2([H])[H])C3([H])[H])c1C([H])(N([H])C(=O)N1C([H])([H])C([H])([H])C([H])([H])C([H])(n2nc(-c3c([H])c([H])c(Oc4c([H])c([H])c(F)c([H])c4F)c([H])c3[H])c(C(=O)N([H])[H])c2N([H])[H])C1([H])[H])C([H])([H])[H]

>  <smiles>  (12) 
[H]c1nc([H])n(C([H])([H])C([H])([H])C([H])([H])C([H])([H])Oc2c([H])c([H])c3c(c2[H])C([H])([H])N(C(=O)C([H])(N([H])C(=O)C([H])(N([H])C([H])([H])[H])C([H])([H])[H])C(C([H])([H])[H])(C([H])([H])[H])C([H])([H])[H])C([H])(C(=O)N([H])C2([H])c4c([H])c([H])c([H])c([H])c4C([H])([H])C([H])([H])C2([H])[H])C3([H])[H])c1C([H])(N([H])C(=O)N1C([H])([H])C([H])([H])C([H])([H])C([H])(n2nc(-c3c([H])c([H])c(Oc4c([H])c([H])c(F)c([H])c4F)c([H])c3[H])c(C(=O)N([H])[H])c2N([H])[H])C1([H])[H])C([H])([H])[H]

$$$$
14:0:0
     RDKit          3D

 93101  0  0  1  0  0  0  0  0999 V2000
  -30.1330  -20.5400   19.6950 C   0  0  0  0  0  3  0  0  0  0  0  0
  -30.1210  -19.1680   19.6060 C   0  0  0  0  0  0  0  0  0  0  0  0
  -28.0320  -19.8740   19.9540 C   0  0  0  0  0  3  0  0  0  0  0  0
  -26.5580  -19.8360   20.1960 C   0  0  0  0  0  1  0  0  0  0  0  0
  -28.8300  -20.9520   19.8770 N   0  0  0  0  0  0  0  0  0  0  0  0
  -28.8070  -18.8060   19.7570 N   0  0  0  0  0  0  0  0  0  0  0  0
  -28.4570  -17.8550   19.7340 H   0  0  0  0  0  0  0  0  0  0  0  0
  -31.1960  -18.1480   19.3700 C   0  0  0  0  0  2  0  0  0  0  0  0
  -31.8320  -17.6420   20.6860 C   0  0  0  0  0  2  0  0  0  0  0  0
  -32.3170  -15.1880   20.4100 C   0  0  0  0  0  0  0  0  0  0  0  0
  -32.1600  -12.8100   19.7720 C   0  0  0  0  0  2  0  0  0  0  0  0
  -31.2910  -12.6730   18.5050 C   0  0  0  0  0  2  0  0  0  0  0  0
  -29.7920  -12.6010   18.8610 C   0  0  0  0  0  2  0  0  0  0  0  0
  -29.3550  -13.7130   19.8520 C   0  0  0  0  0  3  0  0  0  0  0  0
  -30.3310  -13.7760   21.0470 C   0  0  0  0  0  2  0  0  0  0  0  0
  -31.6930  -13.9870   20.5160 N   0  0  0  0  0  0  0  0  0  0  0  0
  -33.4060  -15.3540   19.8530 O   0  0  0  0  0  0  0  0  0  0  0  0
  -31.6010  -16.2120   20.8870 N   0  0  0  0  0  0  0  0  0  0  0  0
  -30.7470  -15.9520   21.3570 H   0  0  0  0  0  0  0  0  0  0  0  0
  -26.9900  -14.4700   20.5420 C   0  0  0  0  0  0  0  0  0  0  0  0
  -25.8620  -13.7650   20.8660 C   0  0  0  0  0  0  0  0  0  0  0  0
  -26.2250  -12.3850   20.7860 C   0  0  0  0  0  0  0  0  0  0  0  0
  -27.9730  -13.5250   20.2920 N   0  0  0  0  0  0  0  0  0  0  0  0
  -27.5130  -12.2630   20.4950 N   0  0  0  0  0  0  0  0  0  0  0  0
  -25.4070  -11.1720   20.9180 C   0  0  0  0  0  0  0  0  0  0  0  0
  -25.6680  -10.2100   21.9190 C   0  0  0  0  0  3  0  0  0  0  0  0
  -24.8580   -9.0600   22.0360 C   0  0  0  0  0  3  0  0  0  0  0  0
  -23.7730   -8.8630   21.1480 C   0  0  0  0  0  0  0  0  0  0  0  0
  -23.5310   -9.8120   20.1390 C   0  0  0  0  0  3  0  0  0  0  0  0
  -24.3420  -10.9550   20.0220 C   0  0  0  0  0  3  0  0  0  0  0  0
  -22.9480   -7.7640   21.1700 O   0  0  0  0  0  0  0  0  0  0  0  0
  -22.5500   -7.1860   22.3490 C   0  0  0  0  0  0  0  0  0  0  0  0
  -21.8180   -7.9030   23.3190 C   0  0  0  0  0  3  0  0  0  0  0  0
  -21.3680   -7.2520   24.4850 C   0  0  0  0  0  3  0  0  0  0  0  0
  -21.6400   -5.8850   24.6780 C   0  0  0  0  0  0  0  0  0  0  0  0
  -22.3640   -5.1670   23.7100 C   0  0  0  0  0  3  0  0  0  0  0  0
  -22.8150   -5.8160   22.5480 C   0  0  0  0  0  0  0  0  0  0  0  0
  -23.4940   -5.1150   21.6080 F   0  0  0  0  0  0  0  0  0  0  0  0
  -21.2020   -5.2570   25.7930 F   0  0  0  0  0  0  0  0  0  0  0  0
  -24.4970  -14.3290   21.1360 C   0  0  0  0  0  0  0  0  0  0  0  0
  -23.7270  -13.6850   22.0080 N   0  0  0  0  0  0  0  0  0  0  0  0
  -24.1220  -15.3780   20.6110 O   0  0  0  0  0  0  0  0  0  0  0  0
  -24.0410  -12.8370   22.4540 H   0  0  0  0  0  0  0  0  0  0  0  0
  -22.8100  -14.0460   22.2280 H   0  0  0  0  0  0  0  0  0  0  0  0
  -27.2590  -15.8300   20.4190 N   0  0  0  0  0  0  0  0  0  0  0  0
  -26.5370  -16.5350   20.5140 H   0  0  0  0  0  0  0  0  0  0  0  0
  -28.1240  -16.2000   20.0470 H   0  0  0  0  0  0  0  0  0  0  0  0
  -28.3150  -22.3260   20.0460 C   0  0  0  0  0  2  0  0  0  0  0  0
  -28.9580  -23.3760   19.1140 C   0  0  0  0  0  2  0  0  0  0  0  0
  -29.2810  -25.3600   20.6970 C   0  0  0  0  0  1  0  0  0  0  0  0
  -28.5670  -24.8410   19.4310 C   0  0  0  0  0  3  0  0  0  0  0  0
  -28.8770  -25.7560   18.2250 C   0  0  0  0  0  2  0  0  0  0  0  0
  -28.7060  -27.1360   18.5480 O   0  0  0  0  0  0  0  0  0  0  0  0
  -24.6440  -31.1190   22.7910 C   0  0  0  0  0  0  0  0  0  0  0  0
  -27.4490  -27.6640   18.7460 C   0  0  0  0  0  0  0  0  0  0  0  0
  -23.4630  -30.0080   20.9220 C   0  0  0  0  0  3  0  0  0  0  0  0
  -24.9500  -28.9200   19.1650 C   0  0  0  0  0  0  0  0  0  0  0  0
  -25.9460  -30.5960   20.7320 C   0  0  0  0  0  2  0  0  0  0  0  0
  -26.0930  -29.4050   19.8100 C   0  0  0  0  0  0  0  0  0  0  0  0
  -27.3420  -28.7860   19.5930 C   0  0  0  0  0  3  0  0  0  0  0  0
  -26.2800  -27.1690   18.1200 C   0  0  0  0  0  3  0  0  0  0  0  0
  -25.0380  -27.7990   18.3220 C   0  0  0  0  0  3  0  0  0  0  0  0
  -23.6540  -29.6510   19.4240 C   0  0  0  0  0  2  0  0  0  0  0  0
  -24.7030  -30.5790   21.5410 N   0  0  0  0  0  0  0  0  0  0  0  0
  -23.5720  -31.1870   23.4090 O   0  0  0  0  0  0  0  0  0  0  0  0
  -22.9260  -28.7600   21.6590 C   0  0  0  0  0  0  0  0  0  0  0  0
  -21.6200  -28.4920   21.5060 N   0  0  0  0  0  0  0  0  0  0  0  0
  -23.6820  -28.0450   22.3230 O   0  0  0  0  0  0  0  0  0  0  0  0
  -21.0680  -29.1330   20.9540 H   0  0  0  0  0  0  0  0  0  0  0  0
  -18.3830  -26.8960   21.7090 C   0  0  0  0  0  0  0  0  0  0  0  0
  -20.9030  -27.3500   22.0730 C   0  0  0  0  0  3  0  0  0  0  0  0
  -21.1490  -26.0690   21.2440 C   0  0  0  0  0  2  0  0  0  0  0  0
  -20.0840  -25.8350   20.1670 C   0  0  0  0  0  2  0  0  0  0  0  0
  -18.6950  -25.7200   20.7990 C   0  0  0  0  0  2  0  0  0  0  0  0
  -19.4210  -27.6710   22.2940 C   0  0  0  0  0  0  0  0  0  0  0  0
  -19.0780  -28.7750   23.1040 C   0  0  0  0  0  3  0  0  0  0  0  0
  -17.7290  -29.1050   23.3380 C   0  0  0  0  0  3  0  0  0  0  0  0
  -16.7070  -28.3260   22.7710 C   0  0  0  0  0  3  0  0  0  0  0  0
  -17.0340  -27.2230   21.9610 C   0  0  0  0  0  3  0  0  0  0  0  0
  -25.9100  -31.6970   23.4950 C   0  0  0  0  0  3  0  0  0  0  0  0
  -25.5650  -33.0350   23.9960 N   0  0  0  0  0  0  0  0  0  0  0  0
  -25.9190  -34.1830   23.4040 C   0  0  0  0  0  0  0  0  0  0  0  0
  -26.6390  -34.2280   22.4020 O   0  0  0  0  0  0  0  0  0  0  0  0
  -24.9340  -33.0740   24.7820 H   0  0  0  0  0  0  0  0  0  0  0  0
  -24.1750  -35.9860   23.2150 C   0  0  0  0  0  1  0  0  0  0  0  0
  -25.3870  -35.4900   24.0220 C   0  0  0  0  0  3  0  0  0  0  0  0
  -27.4560  -36.2840   25.0720 C   0  0  0  0  0  1  0  0  0  0  0  0
  -26.4030  -36.5610   24.1000 N   0  0  0  0  0  0  0  0  0  0  0  0
  -25.9730  -37.4500   24.3450 H   0  0  0  0  0  0  0  0  0  0  0  0
  -26.4470  -30.7850   24.6660 C   0  0  1  0  0  0  0  0  0  0  0  0
  -25.3620  -30.3970   25.6970 C   0  0  0  0  0  1  0  0  0  0  0  0
  -27.0570  -29.4800   24.1020 C   0  0  0  0  0  1  0  0  0  0  0  0
  -27.5820  -31.5190   25.4220 C   0  0  0  0  0  1  0  0  0  0  0  0
  1  5  1  0
  2  1  2  0
  2  6  1  0
  3  4  1  0
  5  3  1  0
  5 48  1  0
  6  3  1  0
  7  6  1  0
  8  2  1  0
  8  9  1  0
  9 18  1  0
 10 16  1  0
 10 18  1  0
 11 16  1  0
 12 13  1  0
 12 11  1  0
 14 13  1  0
 14 23  1  0
 14 15  1  0
 16 15  1  0
 17 10  2  0
 18 19  1  0
 20 21  2  0
 21 40  1  0
 22 21  1  0
 22 25  1  0
 23 24  1  0
 23 20  1  0
 24 22  2  0
 25 26  1  0
 26 27  2  0
 28 31  1  0
 28 27  1  0
 29 28  2  0
 30 29  1  0
 30 25  2  0
 31 32  1  0
 32 37  2  0
 32 33  1  0
 33 34  2  0
 34 35  1  0
 35 39  1  0
 36 35  2  0
 37 36  1  0
 38 37  1  0
 40 41  1  0
 41 44  1  0
 41 43  1  0
 42 40  2  0
 45 46  1  0
 45 20  1  0
 47 45  1  0
 49 51  1  0
 49 48  1  0
 51 50  1  0
 52 53  1  0
 52 51  1  0
 53 55  1  0
 54 65  2  0
 55 60  1  0
 56 64  1  0
 56 66  1  0
 57 63  1  0
 57 59  1  0
 58 64  1  0
 59 58  1  0
 60 59  2  0
 61 62  1  0
 61 55  2  0
 62 57  2  0
 63 56  1  0
 64 54  1  0
 66 68  2  0
 67 66  1  0
 69 67  1  0
 70 79  2  0
 70 75  1  0
 71 67  1  0
 71 75  1  0
 72 71  1  0
 73 74  1  0
 73 72  1  0
 74 70  1  0
 75 76  2  0
 76 77  1  0
 78 77  2  0
 79 78  1  0
 80 54  1  0
 80 81  1  0
 80 90  1  0
 81 84  1  0
 82 81  1  0
 82 86  1  0
 83 82  2  0
 86 85  1  0
 86 88  1  0
 88 89  1  0
 88 87  1  0
 90 93  1  1
 90 91  1  0
 92 90  1  0
M  ISO  4  10 100  18 100  52 101  53 101
M  END
>  <TORSDO>  (13) 
F 22

>  <SCORE>  (13) 
-7.417

>  <name>  (13) 
14

>  <ligand_id>  (13) 
14

>  <original_smiles>  (13) 
[H]c1c([H])c([H])c2c(c1[H])C([H])([H])C([H])([H])C([H])([H])C2([H])N([H])C(=O)C1([H])N(C(=O)C([H])(N([H])C(=O)C([H])(N([H])C([H])([H])[H])C([H])([H])[H])C(C([H])([H])[H])(C([H])([H])[H])C([H])([H])[H])C([H])([H])c2c([H])c(OC([H])([H])C([H])(C([H])([H])[H])C([H])([H])C([H])([H])n3c([H])c(C([H])([H])C([H])([H])N([H])C(=O)N4C([H])([H])C([H])([H])C([H])([H])C([H])(n5nc(-c6c([H])c([H])c(Oc7c([H])c([H])c(F)c([H])c7F)c([H])c6[H])c(C(=O)N([H])[H])c5N([H])[H])C4([H])[H])[n+]([H])c3C([H])([H])[H])c([H])c([H])c2C1([H])[H]

>  <smiles>  (13) 
[H]c1c([H])c([H])c2c(c1[H])C([H])([H])C([H])([H])C([H])([H])C2([H])N([H])C(=O)C1([H])N(C(=O)C([H])(N([H])C(=O)C([H])(N([H])C([H])([H])[H])C([H])([H])[H])C(C([H])([H])[H])(C([H])([H])[H])C([H])([H])[H])C([H])([H])c2c([H])c(OC([H])([H])C([H])(C([H])([H])[H])C([H])([H])C([H])([H])n3c([H])c(C([H])([H])C([H])([H])N([H])C(=O)N4C([H])([H])C([H])([H])C([H])([H])C([H])(n5nc(-c6c([H])c([H])c(Oc7c([H])c([H])c(F)c([H])c7F)c([H])c6[H])c(C(=O)N([H])[H])c5N([H])[H])C4([H])[H])[n+]([H])c3C([H])([H])[H])c([H])c([H])c2C1([H])[H]

$$$$
15:0:0
     RDKit          3D

 93101  0  0  1  0  0  0  0  0999 V2000
  -31.0120  -19.9570   22.1140 C   0  0  0  0  0  3  0  0  0  0  0  0
  -30.0010  -20.1890   21.2190 C   0  0  0  0  0  0  0  0  0  0  0  0
  -30.5820  -22.1320   22.1960 C   0  0  0  0  0  3  0  0  0  0  0  0
  -30.7790  -23.5430   22.6700 C   0  0  0  0  0  1  0  0  0  0  0  0
  -29.7440  -21.5740   21.2770 N   0  0  0  0  0  0  0  0  0  0  0  0
  -31.3290  -21.1460   22.6900 N   0  0  0  0  0  0  0  0  0  0  0  0
  -32.0460  -21.2660   23.3960 H   0  0  0  0  0  0  0  0  0  0  0  0
  -29.2810  -19.1530   20.3640 C   0  0  0  0  0  2  0  0  0  0  0  0
  -30.0410  -17.8160   20.0010 C   0  0  0  0  0  2  0  0  0  0  0  0
  -30.3090  -16.7460   21.1160 C   0  0  0  0  0  2  0  0  0  0  0  0
  -30.6990  -14.3240   20.2600 C   0  0  0  0  0  0  0  0  0  0  0  0
  -30.3870  -12.1400   19.1300 C   0  0  0  0  0  2  0  0  0  0  0  0
  -29.3870  -12.3300   17.9710 C   0  0  0  0  0  2  0  0  0  0  0  0
  -27.9280  -12.2060   18.4640 C   0  0  0  0  0  2  0  0  0  0  0  0
  -27.6570  -13.0430   19.7420 C   0  0  0  0  0  3  0  0  0  0  0  0
  -28.7590  -12.8070   20.8000 C   0  0  0  0  0  2  0  0  0  0  0  0
  -30.0480  -13.1290   20.1650 N   0  0  0  0  0  0  0  0  0  0  0  0
  -31.8200  -14.5090   19.7790 O   0  0  0  0  0  0  0  0  0  0  0  0
  -29.9650  -15.3330   20.7900 N   0  0  0  0  0  0  0  0  0  0  0  0
  -29.0460  -15.0380   21.0840 H   0  0  0  0  0  0  0  0  0  0  0  0
  -25.3040  -13.7080   20.5430 C   0  0  0  0  0  0  0  0  0  0  0  0
  -24.2360  -12.9590   20.9630 C   0  0  0  0  0  0  0  0  0  0  0  0
  -24.6610  -11.5970   20.9080 C   0  0  0  0  0  0  0  0  0  0  0  0
  -26.3180  -12.8000   20.2710 N   0  0  0  0  0  0  0  0  0  0  0  0
  -25.9360  -11.5270   20.5430 N   0  0  0  0  0  0  0  0  0  0  0  0
  -23.9180  -10.3520   21.1280 C   0  0  0  0  0  0  0  0  0  0  0  0
  -24.3530   -9.3820   22.0590 C   0  0  0  0  0  3  0  0  0  0  0  0
  -23.6080   -8.2000   22.2640 C   0  0  0  0  0  3  0  0  0  0  0  0
  -22.4140   -7.9780   21.5380 C   0  0  0  0  0  0  0  0  0  0  0  0
  -21.9980   -8.9330   20.5940 C   0  0  0  0  0  3  0  0  0  0  0  0
  -22.7440  -10.1060   20.3870 C   0  0  0  0  0  3  0  0  0  0  0  0
  -21.6420   -6.8460   21.6550 O   0  0  0  0  0  0  0  0  0  0  0  0
  -21.5830   -6.1320   22.8260 C   0  0  0  0  0  0  0  0  0  0  0  0
  -21.1080   -6.7060   24.0250 C   0  0  0  0  0  3  0  0  0  0  0  0
  -21.0000   -5.9160   25.1880 C   0  0  0  0  0  3  0  0  0  0  0  0
  -21.3570   -4.5550   25.1510 C   0  0  0  0  0  0  0  0  0  0  0  0
  -21.8250   -3.9820   23.9570 C   0  0  0  0  0  3  0  0  0  0  0  0
  -21.9360   -4.7670   22.7960 C   0  0  0  0  0  0  0  0  0  0  0  0
  -22.3660   -4.2050   21.6400 F   0  0  0  0  0  0  0  0  0  0  0  0
  -21.2450   -3.7950   26.2650 F   0  0  0  0  0  0  0  0  0  0  0  0
  -22.8610  -13.4650   21.2970 C   0  0  0  0  0  0  0  0  0  0  0  0
  -22.1650  -12.7800   22.1970 N   0  0  0  0  0  0  0  0  0  0  0  0
  -22.4210  -14.5000   20.8000 O   0  0  0  0  0  0  0  0  0  0  0  0
  -22.5410  -11.9440   22.6210 H   0  0  0  0  0  0  0  0  0  0  0  0
  -21.2400  -13.0880   22.4600 H   0  0  0  0  0  0  0  0  0  0  0  0
  -25.5090  -15.0710   20.3480 N   0  0  0  0  0  0  0  0  0  0  0  0
  -24.7940  -15.7740   20.4980 H   0  0  0  0  0  0  0  0  0  0  0  0
  -26.3500  -15.4490   19.9310 H   0  0  0  0  0  0  0  0  0  0  0  0
  -28.7240  -22.3260   20.4450 C   0  0  0  0  0  2  0  0  0  0  0  0
  -28.7390  -23.9240   20.3960 C   0  0  0  0  0  2  0  0  0  0  0  0
  -26.2920  -24.5500   21.1210 C   0  0  0  0  0  1  0  0  0  0  0  0
  -27.6880  -25.0890   20.6900 C   0  0  0  0  0  3  0  0  0  0  0  0
  -27.6410  -26.1370   19.6620 O   0  0  0  0  0  0  0  0  0  0  0  0
  -24.4130  -31.5910   23.0370 C   0  0  0  0  0  0  0  0  0  0  0  0
  -26.5980  -27.0520   19.7080 C   0  0  0  0  0  0  0  0  0  0  0  0
  -23.0490  -30.3570   21.3830 C   0  0  0  0  0  3  0  0  0  0  0  0
  -24.3380  -28.7710   19.8410 C   0  0  0  0  0  0  0  0  0  0  0  0
  -25.5900  -30.5160   21.1180 C   0  0  0  0  0  2  0  0  0  0  0  0
  -25.5520  -29.1620   20.4290 C   0  0  0  0  0  0  0  0  0  0  0  0
  -26.6820  -28.3060   20.3700 C   0  0  0  0  0  3  0  0  0  0  0  0
  -25.3850  -26.7120   19.0720 C   0  0  0  0  0  3  0  0  0  0  0  0
  -24.2560  -27.5480   19.1560 C   0  0  0  0  0  3  0  0  0  0  0  0
  -23.1650  -29.7230   19.9690 C   0  0  0  0  0  2  0  0  0  0  0  0
  -24.3710  -30.8350   21.9030 N   0  0  0  0  0  0  0  0  0  0  0  0
  -23.3740  -31.9250   23.6240 O   0  0  0  0  0  0  0  0  0  0  0  0
  -22.3480  -29.3500   22.3260 C   0  0  0  0  0  0  0  0  0  0  0  0
  -21.0080  -29.2900   22.2520 N   0  0  0  0  0  0  0  0  0  0  0  0
  -23.0080  -28.6280   23.0800 O   0  0  0  0  0  0  0  0  0  0  0  0
  -20.5410  -29.9200   21.6170 H   0  0  0  0  0  0  0  0  0  0  0  0
  -17.5660  -28.3590   22.8430 C   0  0  0  0  0  0  0  0  0  0  0  0
  -20.1430  -28.3860   23.0110 C   0  0  0  0  0  3  0  0  0  0  0  0
  -20.0980  -26.9820   22.3650 C   0  0  0  0  0  2  0  0  0  0  0  0
  -18.9320  -26.8040   21.3870 C   0  0  0  0  0  2  0  0  0  0  0  0
  -17.5950  -27.0360   22.0960 C   0  0  0  0  0  2  0  0  0  0  0  0
  -18.7610  -29.0010   23.2590 C   0  0  0  0  0  0  0  0  0  0  0  0
  -18.6790  -30.2480   23.9140 C   0  0  0  0  0  3  0  0  0  0  0  0
  -17.4300  -30.8500   24.1580 C   0  0  0  0  0  3  0  0  0  0  0  0
  -16.2470  -30.2030   23.7600 C   0  0  0  0  0  3  0  0  0  0  0  0
  -16.3160  -28.9590   23.1100 C   0  0  0  0  0  3  0  0  0  0  0  0
  -25.7630  -32.0920   23.6380 C   0  0  0  0  0  3  0  0  0  0  0  0
  -25.5750  -33.4940   24.0370 N   0  0  0  0  0  0  0  0  0  0  0  0
  -25.9840  -34.5500   23.3210 C   0  0  0  0  0  0  0  0  0  0  0  0
  -26.6300  -34.4390   22.2740 O   0  0  0  0  0  0  0  0  0  0  0  0
  -25.0170  -33.6640   24.8600 H   0  0  0  0  0  0  0  0  0  0  0  0
  -24.4270  -36.5090   23.0550 C   0  0  0  0  0  1  0  0  0  0  0  0
  -25.6200  -35.9500   23.8490 C   0  0  0  0  0  3  0  0  0  0  0  0
  -27.8110  -36.5970   24.7470 C   0  0  0  0  0  1  0  0  0  0  0  0
  -26.7420  -36.9100   23.8000 N   0  0  0  0  0  0  0  0  0  0  0  0
  -26.4170  -37.8520   23.9940 H   0  0  0  0  0  0  0  0  0  0  0  0
  -26.2620  -31.2300   24.8600 C   0  0  1  0  0  0  0  0  0  0  0  0
  -25.1940  -31.0370   25.9600 C   0  0  0  0  0  1  0  0  0  0  0  0
  -26.7170  -29.8300   24.3870 C   0  0  0  0  0  1  0  0  0  0  0  0
  -27.4920  -31.9040   25.5100 C   0  0  0  0  0  1  0  0  0  0  0  0
  1  6  1  0
  2  5  1  0
  2  1  2  0
  3  4  1  0
  3  6  1  0
  5  3  1  0
  6  7  1  0
  8  2  1  0
  9  8  1  0
  9 10  1  0
 11 19  1  0
 12 17  1  0
 13 14  1  0
 13 12  1  0
 15 14  1  0
 15 24  1  0
 15 16  1  0
 17 11  1  0
 17 16  1  0
 18 11  2  0
 19 20  1  0
 19 10  1  0
 21 22  2  0
 22 41  1  0
 23 22  1  0
 23 26  1  0
 24 25  1  0
 24 21  1  0
 25 23  2  0
 26 27  1  0
 27 28  2  0
 29 32  1  0
 29 28  1  0
 30 29  2  0
 31 30  1  0
 31 26  2  0
 32 33  1  0
 33 34  1  0
 34 35  2  0
 36 35  1  0
 36 40  1  0
 37 36  2  0
 38 33  2  0
 38 37  1  0
 39 38  1  0
 41 42  1  0
 42 45  1  0
 42 44  1  0
 43 41  2  0
 46 47  1  0
 46 21  1  0
 48 46  1  0
 49  5  1  0
 50 49  1  0
 50 52  1  0
 52 51  1  0
 53 55  1  0
 53 52  1  0
 54 65  2  0
 55 60  1  0
 56 64  1  0
 56 66  1  0
 57 63  1  0
 57 59  1  0
 58 64  1  0
 59 58  1  0
 60 59  2  0
 61 62  1  0
 61 55  2  0
 62 57  2  0
 63 56  1  0
 64 54  1  0
 66 68  2  0
 67 66  1  0
 69 67  1  0
 70 79  2  0
 70 75  1  0
 71 67  1  0
 71 75  1  0
 72 71  1  0
 73 74  1  0
 73 72  1  0
 74 70  1  0
 75 76  2  0
 76 77  1  0
 78 77  2  0
 79 78  1  0
 80 54  1  0
 80 81  1  0
 80 90  1  0
 81 84  1  0
 82 86  1  0
 82 81  1  0
 83 82  2  0
 86 85  1  0
 88 86  1  0
 88 89  1  0
 88 87  1  0
 90 93  1  1
 90 91  1  0
 92 90  1  0
M  ISO  4  11 100  19 100  52 101  53 101
M  END
>  <TORSDO>  (14) 
F 22

>  <SCORE>  (14) 
-11.883

>  <name>  (14) 
15

>  <ligand_id>  (14) 
15

>  <original_smiles>  (14) 
[H]c1c([H])c([H])c2c(c1[H])C([H])([H])C([H])([H])C([H])([H])C2([H])N([H])C(=O)C1([H])N(C(=O)C([H])(N([H])C(=O)C([H])(N([H])C([H])([H])[H])C([H])([H])[H])C(C([H])([H])[H])(C([H])([H])[H])C([H])([H])[H])C([H])([H])c2c([H])c(OC([H])(C([H])([H])[H])C([H])([H])C([H])([H])n3c(C([H])([H])C([H])([H])C([H])([H])N([H])C(=O)N4C([H])([H])C([H])([H])C([H])([H])C([H])(n5nc(-c6c([H])c([H])c(Oc7c([H])c([H])c(F)c([H])c7F)c([H])c6[H])c(C(=O)N([H])[H])c5N([H])[H])C4([H])[H])c([H])[n+]([H])c3C([H])([H])[H])c([H])c([H])c2C1([H])[H]

>  <smiles>  (14) 
[H]c1c([H])c([H])c2c(c1[H])C([H])([H])C([H])([H])C([H])([H])C2([H])N([H])C(=O)C1([H])N(C(=O)C([H])(N([H])C(=O)C([H])(N([H])C([H])([H])[H])C([H])([H])[H])C(C([H])([H])[H])(C([H])([H])[H])C([H])([H])[H])C([H])([H])c2c([H])c(OC([H])(C([H])([H])[H])C([H])([H])C([H])([H])n3c(C([H])([H])C([H])([H])C([H])([H])N([H])C(=O)N4C([H])([H])C([H])([H])C([H])([H])C([H])(n5nc(-c6c([H])c([H])c(Oc7c([H])c([H])c(F)c([H])c7F)c([H])c6[H])c(C(=O)N([H])[H])c5N([H])[H])C4([H])[H])c([H])[n+]([H])c3C([H])([H])[H])c([H])c([H])c2C1([H])[H]

$$$$
16:0:0
     RDKit          3D

 94102  0  0  1  0  0  0  0  0999 V2000
  -31.0000  -22.3850   19.8500 C   0  0  0  0  0  3  0  0  0  0  0  0
  -30.0220  -21.4590   20.2610 C   0  0  0  0  0  0  0  0  0  0  0  0
  -32.3210  -21.9800   19.6470 C   0  0  0  0  0  0  0  0  0  0  0  0
  -30.4610  -20.0450   20.2990 C   0  0  0  0  0  0  0  0  0  0  0  0
  -32.6830  -20.6830   19.7200 N   0  0  0  0  0  0  0  0  0  0  0  0
  -31.7680  -19.7620   20.0250 N   0  0  0  0  0  0  0  0  0  0  0  0
  -34.7060  -22.7820   20.0280 C   0  0  0  0  0  1  0  0  0  0  0  0
  -33.3740  -23.0200   19.2990 C   0  0  0  0  0  3  0  0  0  0  0  0
  -32.2830  -23.6210   17.0340 C   0  0  0  0  0  1  0  0  0  0  0  0
  -33.5590  -23.1900   17.7830 C   0  0  0  0  0  2  0  0  0  0  0  0
  -28.6690  -22.1710   20.6300 C   0  0  0  0  0  2  0  0  0  0  0  0
  -28.7010  -23.7580   21.0400 C   0  0  0  0  0  3  0  0  0  0  0  0
  -28.5300  -24.9920   20.0060 C   0  0  0  0  0  3  0  0  0  0  0  0
  -28.4880  -26.4180   20.4910 O   0  0  0  0  0  0  0  0  0  0  0  0
  -24.6730  -31.9220   23.3070 C   0  0  0  0  0  0  0  0  0  0  0  0
  -27.3620  -27.2670   20.4010 C   0  0  0  0  0  0  0  0  0  0  0  0
  -23.5120  -30.4850   21.6690 C   0  0  0  0  0  3  0  0  0  0  0  0
  -25.0030  -28.9050   20.3170 C   0  0  0  0  0  0  0  0  0  0  0  0
  -26.0610  -30.7930   21.5500 C   0  0  0  0  0  2  0  0  0  0  0  0
  -26.1590  -29.3990   20.9320 C   0  0  0  0  0  0  0  0  0  0  0  0
  -27.3400  -28.5930   20.9630 C   0  0  0  0  0  3  0  0  0  0  0  0
  -26.1740  -26.8360   19.7730 C   0  0  0  0  0  3  0  0  0  0  0  0
  -25.0140  -27.6340   19.7260 C   0  0  0  0  0  3  0  0  0  0  0  0
  -23.7660  -29.7790   20.3130 C   0  0  0  0  0  2  0  0  0  0  0  0
  -24.7660  -31.0860   22.2300 N   0  0  0  0  0  0  0  0  0  0  0  0
  -23.5750  -32.2080   23.8060 O   0  0  0  0  0  0  0  0  0  0  0  0
  -22.8300  -29.4870   22.6370 C   0  0  0  0  0  0  0  0  0  0  0  0
  -21.5140  -29.2790   22.4620 N   0  0  0  0  0  0  0  0  0  0  0  0
  -23.4850  -28.9020   23.5040 O   0  0  0  0  0  0  0  0  0  0  0  0
  -21.0460  -29.8030   21.7370 H   0  0  0  0  0  0  0  0  0  0  0  0
  -18.1480  -28.0070   22.8410 C   0  0  0  0  0  0  0  0  0  0  0  0
  -20.6810  -28.3480   23.2240 C   0  0  0  0  0  3  0  0  0  0  0  0
  -20.8530  -26.9010   22.7120 C   0  0  0  0  0  2  0  0  0  0  0  0
  -19.8120  -26.5080   21.6600 C   0  0  0  0  0  2  0  0  0  0  0  0
  -18.3940  -26.6360   22.2280 C   0  0  0  0  0  2  0  0  0  0  0  0
  -19.2230  -28.8160   23.2960 C   0  0  0  0  0  0  0  0  0  0  0  0
  -18.9440  -30.0940   23.8280 C   0  0  0  0  0  3  0  0  0  0  0  0
  -17.6200  -30.5640   23.9080 C   0  0  0  0  0  3  0  0  0  0  0  0
  -16.5580  -29.7540   23.4740 C   0  0  0  0  0  3  0  0  0  0  0  0
  -16.8240  -28.4770   22.9470 C   0  0  0  0  0  3  0  0  0  0  0  0
  -25.9350  -32.5760   23.9490 C   0  0  0  0  0  3  0  0  0  0  0  0
  -25.6150  -33.9830   24.2330 N   0  0  0  0  0  0  0  0  0  0  0  0
  -25.9630  -35.0160   23.4530 C   0  0  0  0  0  0  0  0  0  0  0  0
  -26.6530  -34.8880   22.4390 O   0  0  0  0  0  0  0  0  0  0  0  0
  -25.0090  -34.1590   25.0220 H   0  0  0  0  0  0  0  0  0  0  0  0
  -24.2340  -36.7950   23.0240 C   0  0  0  0  0  1  0  0  0  0  0  0
  -25.4560  -36.4100   23.8710 C   0  0  0  0  0  3  0  0  0  0  0  0
  -27.5700  -37.3220   24.7340 C   0  0  0  0  0  1  0  0  0  0  0  0
  -26.4820  -37.4700   23.7700 N   0  0  0  0  0  0  0  0  0  0  0  0
  -26.0590  -38.3840   23.9070 H   0  0  0  0  0  0  0  0  0  0  0  0
  -26.4160  -31.8400   25.2610 C   0  0  1  0  0  0  0  0  0  0  0  0
  -25.2900  -31.6240   26.3000 C   0  0  0  0  0  1  0  0  0  0  0  0
  -27.0180  -30.4540   24.9260 C   0  0  0  0  0  1  0  0  0  0  0  0
  -27.5450  -32.6570   25.9360 C   0  0  0  0  0  1  0  0  0  0  0  0
  -29.6940  -18.6820   20.6170 C   0  0  0  0  0  3  0  0  0  0  0  0
  -30.5680  -17.3000   20.4840 C   0  0  0  0  0  3  0  0  0  0  0  0
  -30.6860  -14.7210   20.2210 C   0  0  0  0  0  0  0  0  0  0  0  0
  -30.3880  -12.5130   19.1050 C   0  0  0  0  0  2  0  0  0  0  0  0
  -29.4020  -12.6610   17.9250 C   0  0  0  0  0  2  0  0  0  0  0  0
  -27.9520  -12.4850   18.4080 C   0  0  0  0  0  2  0  0  0  0  0  0
  -27.6450  -13.3170   19.6830 C   0  0  0  0  0  3  0  0  0  0  0  0
  -28.7460  -13.1680   20.7560 C   0  0  0  0  0  2  0  0  0  0  0  0
  -30.0180  -13.5250   20.1220 N   0  0  0  0  0  0  0  0  0  0  0  0
  -31.8600  -14.7960   19.8460 O   0  0  0  0  0  0  0  0  0  0  0  0
  -29.9920  -15.8820   20.5280 N   0  0  0  0  0  0  0  0  0  0  0  0
  -29.0240  -15.7790   20.7950 H   0  0  0  0  0  0  0  0  0  0  0  0
  -25.2810  -13.8940   20.4970 C   0  0  0  0  0  0  0  0  0  0  0  0
  -24.2270  -13.1130   20.8850 C   0  0  0  0  0  0  0  0  0  0  0  0
  -24.6900  -11.7610   20.8200 C   0  0  0  0  0  0  0  0  0  0  0  0
  -26.3190  -13.0200   20.2150 N   0  0  0  0  0  0  0  0  0  0  0  0
  -25.9700  -11.7330   20.4710 N   0  0  0  0  0  0  0  0  0  0  0  0
  -23.9680  -10.4970   21.0150 C   0  0  0  0  0  0  0  0  0  0  0  0
  -24.4070   -9.5320   21.9500 C   0  0  0  0  0  3  0  0  0  0  0  0
  -23.6860   -8.3310   22.1290 C   0  0  0  0  0  3  0  0  0  0  0  0
  -22.5140   -8.0880   21.3740 C   0  0  0  0  0  0  0  0  0  0  0  0
  -22.0950   -9.0420   20.4290 C   0  0  0  0  0  3  0  0  0  0  0  0
  -22.8150  -10.2330   20.2470 C   0  0  0  0  0  3  0  0  0  0  0  0
  -21.7620   -6.9400   21.4660 O   0  0  0  0  0  0  0  0  0  0  0  0
  -21.7030   -6.2100   22.6250 C   0  0  0  0  0  0  0  0  0  0  0  0
  -21.2240   -6.7660   23.8310 C   0  0  0  0  0  3  0  0  0  0  0  0
  -21.1120   -5.9610   24.9830 C   0  0  0  0  0  3  0  0  0  0  0  0
  -21.4700   -4.5990   24.9280 C   0  0  0  0  0  0  0  0  0  0  0  0
  -21.9400   -4.0410   23.7270 C   0  0  0  0  0  3  0  0  0  0  0  0
  -22.0530   -4.8450   22.5770 C   0  0  0  0  0  0  0  0  0  0  0  0
  -22.4880   -4.2980   21.4170 F   0  0  0  0  0  0  0  0  0  0  0  0
  -21.3550   -3.8240   26.0320 F   0  0  0  0  0  0  0  0  0  0  0  0
  -22.8370  -13.5830   21.2060 C   0  0  0  0  0  0  0  0  0  0  0  0
  -22.1360  -12.8690   22.0800 N   0  0  0  0  0  0  0  0  0  0  0  0
  -22.3840  -14.6230   20.7260 O   0  0  0  0  0  0  0  0  0  0  0  0
  -22.5160  -12.0290   22.4900 H   0  0  0  0  0  0  0  0  0  0  0  0
  -21.2050  -13.1640   22.3420 H   0  0  0  0  0  0  0  0  0  0  0  0
  -25.4360  -15.2670   20.3280 N   0  0  0  0  0  0  0  0  0  0  0  0
  -24.6670  -15.9170   20.4550 H   0  0  0  0  0  0  0  0  0  0  0  0
  -26.2660  -15.7090   19.9590 H   0  0  0  0  0  0  0  0  0  0  0  0
  1  2  1  0
  2  4  2  0
  2 11  1  0
  3  5  1  0
  3  1  2  0
  4 55  1  0
  5  6  2  0
  6  4  1  0
  8  3  1  0
  8  7  1  0
  9 10  1  0
 10  8  1  0
 11 12  1  0
 13 14  1  0
 13 12  2  0
 15 26  2  0
 16 14  1  0
 16 21  1  0
 17 25  1  0
 17 27  1  0
 18 20  1  0
 19 25  1  0
 20 21  2  0
 20 19  1  0
 22 16  2  0
 23 22  1  0
 23 18  2  0
 24 18  1  0
 24 17  1  0
 25 15  1  0
 27 29  2  0
 28 27  1  0
 30 28  1  0
 31 40  2  0
 31 36  1  0
 32 28  1  0
 32 36  1  0
 33 32  1  0
 34 35  1  0
 34 33  1  0
 35 31  1  0
 36 37  2  0
 37 38  1  0
 39 38  2  0
 40 39  1  0
 41 15  1  0
 41 42  1  0
 41 51  1  0
 42 45  1  0
 43 47  1  0
 43 42  1  0
 44 43  2  0
 47 46  1  0
 49 47  1  0
 49 50  1  0
 49 48  1  0
 51 54  1  1
 51 52  1  0
 53 51  1  0
 56 65  1  0
 56 55  2  0
 57 65  1  0
 58 63  1  0
 59 60  1  0
 59 58  1  0
 61 60  1  0
 61 70  1  0
 61 62  1  0
 63 57  1  0
 63 62  1  0
 64 57  2  0
 65 66  1  0
 67 68  2  0
 68 87  1  0
 69 68  1  0
 69 72  1  0
 70 71  1  0
 70 67  1  0
 71 69  2  0
 72 73  1  0
 73 74  2  0
 75 78  1  0
 75 74  1  0
 76 75  2  0
 77 76  1  0
 77 72  2  0
 78 79  1  0
 79 80  1  0
 80 81  2  0
 82 81  1  0
 82 86  1  0
 83 82  2  0
 84 79  2  0
 84 83  1  0
 85 84  1  0
 87 88  1  0
 88 91  1  0
 88 90  1  0
 89 87  2  0
 92 93  1  0
 92 67  1  0
 94 92  1  0
M  ISO  4  13 101  14 101  57 100  65 100
M  END
>  <TORSDO>  (15) 
F 23

>  <SCORE>  (15) 
-12.760

>  <name>  (15) 
16

>  <ligand_id>  (15) 
16

>  <original_smiles>  (15) 
[H]c1c([H])c([H])c2c(c1[H])C([H])([H])C([H])([H])C([H])([H])C2([H])N([H])C(=O)C1([H])N(C(=O)C([H])(N([H])C(=O)C([H])(N([H])C([H])([H])[H])C([H])([H])[H])C(C([H])([H])[H])(C([H])([H])[H])C([H])([H])[H])C([H])([H])c2c([H])c(OC([H])([H])C([H])([H])C([H])([H])c3c(C([H])([H])C([H])([H])N([H])C(=O)N4C([H])([H])C([H])([H])C([H])([H])C([H])(n5nc(-c6c([H])c([H])c(Oc7c([H])c([H])c(F)c([H])c7F)c([H])c6[H])c(C(=O)N([H])[H])c5N([H])[H])C4([H])[H])nnc(C([H])(C([H])([H])[H])C([H])([H])C([H])([H])[H])c3[H])c([H])c([H])c2C1([H])[H]

>  <smiles>  (15) 
[H]c1c([H])c([H])c2c(c1[H])C([H])([H])C([H])([H])C([H])([H])C2([H])N([H])C(=O)C1([H])N(C(=O)C([H])(N([H])C(=O)C([H])(N([H])C([H])([H])[H])C([H])([H])[H])C(C([H])([H])[H])(C([H])([H])[H])C([H])([H])[H])C([H])([H])c2c([H])c(OC([H])([H])C([H])([H])C([H])([H])c3c(C([H])([H])C([H])([H])N([H])C(=O)N4C([H])([H])C([H])([H])C([H])([H])C([H])(n5nc(-c6c([H])c([H])c(Oc7c([H])c([H])c(F)c([H])c7F)c([H])c6[H])c(C(=O)N([H])[H])c5N([H])[H])C4([H])[H])nnc(C([H])(C([H])([H])[H])C([H])([H])C([H])([H])[H])c3[H])c([H])c([H])c2C1([H])[H]

$$$$
17:0:0
     RDKit          3D

 93 90  0  0  1  0  0  0  0  0999 V2000
  -22.6610  -13.0010   21.4400 C   0  0  0  0  0  1  0  0  0  0  0  0
  -23.7650  -12.1290   20.0390 C   0  0  0  0  0  2  0  0  0  0  0  0
  -22.9750  -14.5380   22.3460 C   0  0  0  0  0  3  0  0  0  0  0  0
  -25.5310  -12.5810   20.0880 C   0  0  0  0  0  1  0  0  0  0  0  0
  -24.2160  -15.7660   22.2790 C   0  0  0  0  0  2  0  0  0  0  0  0
  -23.2850  -11.2090   18.9100 C   0  0  0  0  0  1  0  0  0  0  0  0
  -25.2240  -14.6320   22.1740 N   0  0  0  0  0  1  0  0  0  0  0  0
  -20.4970  -15.2870   22.4710 C   0  0  0  0  0  1  0  0  0  0  0  0
  -21.8010  -14.9700   23.2170 C   0  0  0  0  0  2  0  0  0  0  0  0
  -27.6430  -10.5750   20.6870 C   0  0  0  0  0  1  0  0  0  0  0  0
  -27.5570  -11.9410   19.8440 C   0  0  0  0  0  1  0  0  0  0  0  0
  -30.5960  -13.3990   20.3520 C   0  0  0  0  0  3  0  0  0  0  0  0
  -29.8370  -11.1530   18.8630 C   0  0  0  0  0  1  0  0  0  0  0  0
  -28.8050  -12.1940   17.6090 C   0  0  0  0  0  2  0  0  0  0  0  0
  -27.7900  -13.7210   18.2940 C   0  0  0  0  0  1  0  0  0  0  0  0
  -27.9140  -14.3040   20.2820 C   0  0  0  0  0  2  0  0  0  0  0  0
  -28.9000  -13.2120   21.5310 C   0  0  0  0  0  2  0  0  0  0  0  0
  -29.9560  -12.2550   20.4400 N   0  0  0  0  0  0  0  0  0  0  0  0
  -31.5810  -13.9930   19.8640 O   0  0  0  0  0  1  0  0  0  0  0  0
  -29.6310  -13.1170   19.5410 N   0  0  0  0  0  0  0  0  0  0  0  0
  -29.7020  -13.5610   18.6410 H   0  0  0  0  0  0  0  0  0  0  0  0
  -25.6690  -14.8960   19.9680 C   0  0  0  0  0  0  0  0  0  0  0  0
  -24.2590  -14.3120   20.2920 C   0  0  0  0  0  2  0  0  0  0  0  0
  -24.8000  -12.5060   22.0970 C   0  0  0  0  0  2  0  0  0  0  0  0
  -26.9090  -14.1440   20.8670 N   0  0  0  0  0  2  0  0  0  0  0  0
  -26.4860  -12.7680   22.1000 N   0  0  0  0  0  1  0  0  0  0  0  0
  -24.0670  -10.7910   22.0890 C   0  0  0  0  0  0  0  0  0  0  0  0
  -24.6700   -9.5050   22.3130 C   0  0  0  0  0  3  0  0  0  0  0  0
  -24.0200   -8.2030   22.1540 C   0  0  0  0  0  3  0  0  0  0  0  0
  -22.7350   -8.0110   21.5650 C   0  0  0  0  0  0  0  0  0  0  0  0
  -22.1470   -9.1370   21.0960 C   0  0  0  0  0  3  0  0  0  0  0  0
  -22.7270  -10.3440   21.5030 C   0  0  0  0  0  3  0  0  0  0  0  0
  -21.9900   -6.8610   21.4380 O   0  0  0  0  0  0  0  0  0  0  0  0
  -21.7950   -6.0570   22.5290 C   0  0  0  0  0  0  0  0  0  0  0  0
  -21.4740   -6.5630   23.8090 C   0  0  0  0  0  3  0  0  0  0  0  0
  -21.3730   -5.6820   24.9040 C   0  0  0  0  0  3  0  0  0  0  0  0
  -21.5840   -4.3020   24.7200 C   0  0  0  0  0  0  0  0  0  0  0  0
  -21.8500   -3.7960   23.4360 C   0  0  0  0  0  3  0  0  0  0  0  0
  -21.9420   -4.6710   22.3430 C   0  0  0  0  0  0  0  0  0  0  0  0
  -22.1890   -4.1860   21.1030 F   0  0  0  0  0  0  0  0  0  0  0  0
  -21.5290   -3.4580   25.7770 F   0  0  0  0  0  0  0  0  0  0  0  0
  -22.8730  -14.7810   19.6610 C   0  0  0  0  0  0  0  0  0  0  0  0
  -21.8930  -13.9070   19.3390 N   0  0  0  0  0  0  0  0  0  0  0  0
  -22.4110  -15.8320   19.9910 O   0  0  0  0  0  0  0  0  0  0  0  0
  -22.1730  -12.9340   19.2890 H   0  0  0  0  0  0  0  0  0  0  0  0
  -20.9500  -14.2000   19.1320 H   0  0  0  0  0  0  0  0  0  0  0  0
  -25.8850  -16.0450   19.3470 N   0  0  0  0  0  4  0  0  0  0  0  0
  -25.1580  -16.5770   18.8860 H   0  0  0  0  0  0  0  0  0  0  0  0
  -26.7870  -16.5000   19.3150 H   0  0  0  0  0  0  0  0  0  0  0  0
  -24.5490  -17.9690   22.1750 C   0  0  0  0  0 15  0  0  0  0  0  0
  -25.5410  -20.0170   21.5030 C   0  0  0  0  0 15  0  0  0  0  0  0
  -25.7350  -22.3770   21.2960 C   0  0  0  0  0 15  0  0  0  0  0  0
  -26.6690  -24.2480   20.9240 O   0  0  0  0  0  1  0  0  0  0  0  0
  -24.7160  -31.7470   23.1330 C   0  0  0  0  0  0  0  0  0  0  0  0
  -26.4050  -25.9150   20.6270 C   0  0  0  0  0  0  0  0  0  0  0  0
  -23.5300  -30.3730   21.4910 C   0  0  0  0  0  3  0  0  0  0  0  0
  -24.8770  -28.5950   20.1160 C   0  0  0  0  0  0  0  0  0  0  0  0
  -26.0950  -30.1980   21.5280 C   0  0  0  0  0  2  0  0  0  0  0  0
  -25.9980  -28.6930   20.9330 C   0  0  0  0  0  0  0  0  0  0  0  0
  -26.7700  -27.3780   21.1470 C   0  0  0  0  0  3  0  0  0  0  0  0
  -25.5410  -26.2360   19.5480 C   0  0  0  0  0  3  0  0  0  0  0  0
  -24.7680  -27.4250   19.3510 C   0  0  0  0  0  3  0  0  0  0  0  0
  -23.7950  -29.6940   20.1090 C   0  0  0  0  0  2  0  0  0  0  0  0
  -24.8180  -30.8350   22.0930 N   0  0  0  0  0  0  0  0  0  0  0  0
  -23.6140  -32.0960   23.5960 O   0  0  0  0  0  0  0  0  0  0  0  0
  -22.7750  -29.4120   22.4500 C   0  0  0  0  0  0  0  0  0  0  0  0
  -21.4380  -29.3000   22.3280 N   0  0  0  0  0  0  0  0  0  0  0  0
  -23.4060  -28.7710   23.2950 O   0  0  0  0  0  0  0  0  0  0  0  0
  -20.9710  -29.8680   21.6350 H   0  0  0  0  0  0  0  0  0  0  0  0
  -18.0320  -28.1430   22.8430 C   0  0  0  0  0  0  0  0  0  0  0  0
  -20.5950  -28.3800   23.1040 C   0  0  0  0  0  3  0  0  0  0  0  0
  -20.6770  -26.9430   22.5390 C   0  0  0  0  0  2  0  0  0  0  0  0
  -19.5760  -26.6340   21.5200 C   0  0  0  0  0  2  0  0  0  0  0  0
  -18.1940  -26.7950   22.1600 C   0  0  0  0  0  2  0  0  0  0  0  0
  -19.1590  -28.8940   23.2720 C   0  0  0  0  0  0  0  0  0  0  0  0
  -18.9520  -30.1510   23.8800 C   0  0  0  0  0  3  0  0  0  0  0  0
  -17.6520  -30.6610   24.0540 C   0  0  0  0  0  3  0  0  0  0  0  0
  -16.5400  -29.9100   23.6360 C   0  0  0  0  0  3  0  0  0  0  0  0
  -16.7300  -28.6520   23.0370 C   0  0  0  0  0  3  0  0  0  0  0  0
  -25.9630  -32.4130   23.7930 C   0  0  0  0  0  3  0  0  0  0  0  0
  -25.6080  -33.8030   24.1710 N   0  0  0  0  0  0  0  0  0  0  0  0
  -25.9190  -34.9110   23.4830 C   0  0  0  0  0  0  0  0  0  0  0  0
  -26.5870  -34.8780   22.4480 O   0  0  0  0  0  0  0  0  0  0  0  0
  -25.0100  -33.9020   24.9790 H   0  0  0  0  0  0  0  0  0  0  0  0
  -24.1490  -36.7010   23.2660 C   0  0  0  0  0  1  0  0  0  0  0  0
  -25.4160  -36.2710   24.0240 C   0  0  0  0  0  3  0  0  0  0  0  0
  -27.5540  -37.1660   24.8460 C   0  0  0  0  0  1  0  0  0  0  0  0
  -26.4230  -37.3540   23.9420 N   0  0  0  0  0  0  0  0  0  0  0  0
  -25.9990  -38.2540   24.1480 H   0  0  0  0  0  0  0  0  0  0  0  0
  -26.4670  -31.6460   25.0800 C   0  0  1  0  0  0  0  0  0  0  0  0
  -25.3630  -31.3990   26.1360 C   0  0  0  0  0  1  0  0  0  0  0  0
  -27.0720  -30.2740   24.7200 C   0  0  0  0  0  1  0  0  0  0  0  0
  -27.6000  -32.4510   25.7610 C   0  0  0  0  0  1  0  0  0  0  0  0
  2  4  1  0
  3  1  1  0
  3  9  1  0
  5  3  1  0
  6  2  1  0
  7  5  1  0
  8  9  1  0
 11 10  1  0
 12 19  1  0
 12 18  1  0
 14 15  1  0
 14 13  1  0
 16 25  1  0
 16 17  1  0
 18 17  1  0
 20 12  1  0
 20 18  1  0
 21 20  1  0
 22 23  1  0
 22 25  1  0
 24 26  1  0
 27 24  1  0
 27 28  1  0
 29 28  2  0
 30 29  1  0
 31 32  1  0
 31 30  2  0
 32 27  2  0
 33 30  1  0
 33 34  1  0
 34 35  1  0
 35 36  2  0
 37 36  1  0
 37 41  1  0
 38 37  2  0
 39 34  2  0
 39 38  1  0
 40 39  1  0
 42 44  2  0
 42 23  1  0
 43 42  1  0
 45 43  1  0
 46 43  1  0
 47 22  2  0
 48 47  1  0
 49 47  1  0
 54 65  2  0
 55 53  1  0
 55 60  1  0
 56 64  1  0
 56 66  1  0
 57 59  1  0
 58 64  1  0
 59 60  2  0
 59 58  1  0
 61 55  2  0
 62 61  1  0
 62 57  2  0
 63 57  1  0
 63 56  1  0
 64 54  1  0
 66 68  2  0
 67 66  1  0
 69 67  1  0
 70 79  2  0
 70 75  1  0
 71 67  1  0
 71 75  1  0
 72 71  1  0
 73 74  1  0
 73 72  1  0
 74 70  1  0
 75 76  2  0
 76 77  1  0
 78 77  2  0
 79 78  1  0
 80 54  1  0
 80 81  1  0
 80 90  1  0
 81 84  1  0
 82 86  1  0
 82 81  1  0
 83 82  2  0
 86 85  1  0
 88 86  1  0
 88 89  1  0
 88 87  1  0
 90 93  1  1
 90 91  1  0
 92 90  1  0
M  ISO  4  12 100  20 100  52 101  53 101
M  END
>  <TORSDO>  (16) 
F 21

>  <SCORE>  (16) 
40.435

>  <name>  (16) 
17

>  <ligand_id>  (16) 
17

>  <original_smiles>  (16) 
[H]c1c([H])c([H])c2c(c1[H])C([H])([H])C([H])([H])C([H])([H])C2([H])N([H])C(=O)C1([H])N(C(=O)C([H])(N([H])C(=O)C([H])(N([H])C([H])([H])[H])C([H])([H])[H])C(C([H])([H])[H])(C([H])([H])[H])C([H])([H])[H])C([H])([H])c2c([H])c(OC([H])([H])C([H])([H])C([H])([H])c3nc(C([H])(N([H])C(=O)N4C([H])([H])C([H])([H])C([H])([H])C([H])(n5nc(-c6c([H])c([H])c(Oc7c([H])c([H])c(F)c([H])c7F)c([H])c6[H])c(C(=O)N([H])[H])c5N([H])[H])C4([H])[H])C([H])([H])[H])c(C([H])([H])[H])c([H])c3C([H])([H])C([H])([H])[H])c([H])c([H])c2C1([H])[H]

>  <smiles>  (16) 
[H]c1c([H])c([H])c2c(c1[H])C([H])([H])C([H])([H])C([H])([H])C2([H])N([H])C(=O)C1([H])N(C(=O)C([H])(N([H])C(=O)C([H])(N([H])C([H])([H])[H])C([H])([H])[H])C(C([H])([H])[H])(C([H])([H])[H])C([H])([H])[H])C([H])([H])c2c([H])c(OC([H])([H])C([H])([H])C([H])([H])c3nc(C([H])(N([H])C(=O)N4C([H])([H])C([H])([H])C([H])([H])C([H])(n5nc(-c6c([H])c([H])c(Oc7c([H])c([H])c(F)c([H])c7F)c([H])c6[H])c(C(=O)N([H])[H])c5N([H])[H])C4([H])[H])C([H])([H])[H])c(C([H])([H])[H])c([H])c3C([H])([H])C([H])([H])[H])c([H])c([H])c2C1([H])[H]

$$$$
18:0:0
     RDKit          3D

 93101  0  0  1  0  0  0  0  0999 V2000
  -28.7430  -21.8560   20.9340 C   0  0  0  0  0  3  0  0  0  0  0  0
  -31.2670  -21.1940   20.1290 C   0  0  0  0  0  3  0  0  0  0  0  0
  -29.0930  -20.4740   20.8570 C   0  0  0  0  0  0  0  0  0  0  0  0
  -30.4160  -20.1160   20.4750 C   0  0  0  0  0  0  0  0  0  0  0  0
  -29.6890  -22.8680   20.6190 C   0  0  0  0  0  0  0  0  0  0  0  0
  -28.0620  -19.4070   21.1980 C   0  0  0  0  0  1  0  0  0  0  0  0
  -30.9250  -22.5110   20.1920 N   0  0  0  0  0  0  0  0  0  0  0  0
  -30.9950  -18.6520   20.5230 C   0  0  0  0  0  2  0  0  0  0  0  0
  -30.2160  -17.4390   19.8630 C   0  0  0  0  0  3  0  0  0  0  0  0
  -28.1890  -17.0700   18.1570 C   0  0  0  0  0  1  0  0  0  0  0  0
  -29.2670  -17.9960   18.7490 C   0  0  0  0  0  2  0  0  0  0  0  0
  -32.1680  -16.6960   18.3230 C   0  0  0  0  0  1  0  0  0  0  0  0
  -31.0960  -16.2050   19.3380 C   0  0  0  0  0  3  0  0  0  0  0  0
  -31.6920  -15.0490   20.2700 C   0  0  0  0  0  0  0  0  0  0  0  0
  -31.4340  -12.7600   19.4470 C   0  0  0  0  0  2  0  0  0  0  0  0
  -30.5280  -12.8480   18.2000 C   0  0  0  0  0  2  0  0  0  0  0  0
  -29.0380  -12.8000   18.5990 C   0  0  0  0  0  2  0  0  0  0  0  0
  -28.6710  -13.7180   19.7950 C   0  0  0  0  0  3  0  0  0  0  0  0
  -29.7130  -13.6220   20.9290 C   0  0  0  0  0  2  0  0  0  0  0  0
  -31.0450  -13.8490   20.3550 N   0  0  0  0  0  0  0  0  0  0  0  0
  -32.9110  -15.0990   20.4370 O   0  0  0  0  0  0  0  0  0  0  0  0
  -26.3030  -14.4010   20.5110 C   0  0  0  0  0  0  0  0  0  0  0  0
  -25.1880  -13.6700   20.7990 C   0  0  0  0  0  0  0  0  0  0  0  0
  -25.5890  -12.3020   20.7440 C   0  0  0  0  0  0  0  0  0  0  0  0
  -27.3100  -13.4820   20.2630 N   0  0  0  0  0  0  0  0  0  0  0  0
  -26.8860  -12.2110   20.4760 N   0  0  0  0  0  0  0  0  0  0  0  0
  -24.7980  -11.0770   20.8780 C   0  0  0  0  0  0  0  0  0  0  0  0
  -25.1230  -10.0950   21.8430 C   0  0  0  0  0  3  0  0  0  0  0  0
  -24.3340   -8.9340   21.9690 C   0  0  0  0  0  3  0  0  0  0  0  0
  -23.2080   -8.7440   21.1320 C   0  0  0  0  0  0  0  0  0  0  0  0
  -22.9060   -9.7120   20.1600 C   0  0  0  0  0  3  0  0  0  0  0  0
  -23.6950  -10.8660   20.0290 C   0  0  0  0  0  3  0  0  0  0  0  0
  -22.4010   -7.6370   21.1690 O   0  0  0  0  0  0  0  0  0  0  0  0
  -22.1400   -6.9790   22.3430 C   0  0  0  0  0  0  0  0  0  0  0  0
  -21.5290   -7.6250   23.4400 C   0  0  0  0  0  3  0  0  0  0  0  0
  -21.2150   -6.8910   24.6000 C   0  0  0  0  0  3  0  0  0  0  0  0
  -21.5000   -5.5140   24.6630 C   0  0  0  0  0  0  0  0  0  0  0  0
  -22.1050   -4.8690   23.5700 C   0  0  0  0  0  3  0  0  0  0  0  0
  -22.4210   -5.6000   22.4110 C   0  0  0  0  0  0  0  0  0  0  0  0
  -22.9850   -4.9710   21.3520 F   0  0  0  0  0  0  0  0  0  0  0  0
  -21.1900   -4.8060   25.7760 F   0  0  0  0  0  0  0  0  0  0  0  0
  -23.8070  -14.2130   21.0360 C   0  0  0  0  0  0  0  0  0  0  0  0
  -23.0250  -13.5550   21.8820 N   0  0  0  0  0  0  0  0  0  0  0  0
  -23.4320  -15.2570   20.5000 O   0  0  0  0  0  0  0  0  0  0  0  0
  -23.3320  -12.7060   22.3350 H   0  0  0  0  0  0  0  0  0  0  0  0
  -22.0990  -13.9000   22.0810 H   0  0  0  0  0  0  0  0  0  0  0  0
  -26.5230  -15.7680   20.4340 N   0  0  0  0  0  0  0  0  0  0  0  0
  -25.7790  -16.4290   20.6120 H   0  0  0  0  0  0  0  0  0  0  0  0
  -27.4170  -16.2120   20.2640 H   0  0  0  0  0  0  0  0  0  0  0  0
  -29.4620  -24.3850   20.9590 C   0  0  0  0  0  2  0  0  0  0  0  0
  -29.3530  -25.2860   18.5530 C   0  0  0  0  0  1  0  0  0  0  0  0
  -28.7290  -25.3550   19.9540 C   0  0  0  0  0  3  0  0  0  0  0  0
  -28.7620  -26.7820   20.3580 O   0  0  0  0  0  0  0  0  0  0  0  0
  -24.7500  -31.9640   23.3700 C   0  0  0  0  0  0  0  0  0  0  0  0
  -27.6060  -27.5760   20.2770 C   0  0  0  0  0  0  0  0  0  0  0  0
  -23.6500  -30.5710   21.6560 C   0  0  0  0  0  3  0  0  0  0  0  0
  -25.1970  -29.1120   20.2420 C   0  0  0  0  0  0  0  0  0  0  0  0
  -26.1840  -30.9710   21.5660 C   0  0  0  0  0  2  0  0  0  0  0  0
  -26.3280  -29.6150   20.8910 C   0  0  0  0  0  0  0  0  0  0  0  0
  -27.5400  -28.8590   20.9010 C   0  0  0  0  0  3  0  0  0  0  0  0
  -26.4540  -27.1290   19.6000 C   0  0  0  0  0  3  0  0  0  0  0  0
  -25.2610  -27.8740   19.5850 C   0  0  0  0  0  3  0  0  0  0  0  0
  -23.9310  -29.9430   20.2680 C   0  0  0  0  0  2  0  0  0  0  0  0
  -24.8790  -31.1850   22.2560 N   0  0  0  0  0  0  0  0  0  0  0  0
  -23.6390  -32.1930   23.8680 O   0  0  0  0  0  0  0  0  0  0  0  0
  -22.9940  -29.5030   22.5610 C   0  0  0  0  0  0  0  0  0  0  0  0
  -21.6780  -29.2960   22.3880 N   0  0  0  0  0  0  0  0  0  0  0  0
  -23.6630  -28.8690   23.3800 O   0  0  0  0  0  0  0  0  0  0  0  0
  -21.1990  -29.8620   21.7040 H   0  0  0  0  0  0  0  0  0  0  0  0
  -18.3130  -28.0150   22.7650 C   0  0  0  0  0  0  0  0  0  0  0  0
  -20.8580  -28.3200   23.1020 C   0  0  0  0  0  3  0  0  0  0  0  0
  -21.0080  -26.9110   22.4830 C   0  0  0  0  0  2  0  0  0  0  0  0
  -19.9360  -26.5970   21.4340 C   0  0  0  0  0  2  0  0  0  0  0  0
  -18.5340  -26.6920   22.0440 C   0  0  0  0  0  2  0  0  0  0  0  0
  -19.4050  -28.7870   23.2460 C   0  0  0  0  0  0  0  0  0  0  0  0
  -19.1460  -30.0240   23.8770 C   0  0  0  0  0  3  0  0  0  0  0  0
  -17.8280  -30.4950   24.0280 C   0  0  0  0  0  3  0  0  0  0  0  0
  -16.7500  -29.7210   23.5590 C   0  0  0  0  0  3  0  0  0  0  0  0
  -16.9930  -28.4830   22.9380 C   0  0  0  0  0  3  0  0  0  0  0  0
  -25.9860  -32.6210   24.0580 C   0  0  0  0  0  3  0  0  0  0  0  0
  -25.6480  -34.0240   24.3390 N   0  0  0  0  0  0  0  0  0  0  0  0
  -26.0300  -35.0650   23.5870 C   0  0  0  0  0  0  0  0  0  0  0  0
  -26.7720  -34.9450   22.6060 O   0  0  0  0  0  0  0  0  0  0  0  0
  -25.0170  -34.1950   25.1090 H   0  0  0  0  0  0  0  0  0  0  0  0
  -24.3190  -36.8430   23.0900 C   0  0  0  0  0  1  0  0  0  0  0  0
  -25.5100  -36.4600   23.9830 C   0  0  0  0  0  3  0  0  0  0  0  0
  -27.5780  -37.3790   24.9390 C   0  0  0  0  0  1  0  0  0  0  0  0
  -26.5430  -37.5170   23.9180 N   0  0  0  0  0  0  0  0  0  0  0  0
  -26.1240  -38.4360   24.0250 H   0  0  0  0  0  0  0  0  0  0  0  0
  -26.4360  -31.8800   25.3800 C   0  0  1  0  0  0  0  0  0  0  0  0
  -25.2700  -31.6080   26.3620 C   0  0  0  0  0  1  0  0  0  0  0  0
  -27.1040  -30.5240   25.0510 C   0  0  0  0  0  1  0  0  0  0  0  0
  -27.5130  -32.7220   26.1110 C   0  0  0  0  0  1  0  0  0  0  0  0
  2  7  2  0
  2  4  1  0
  3  1  1  0
  3  6  1  0
  4  8  1  0
  4  3  2  0
  5  1  2  0
  5 50  1  0
  7  5  1  0
  9 11  1  0
  9  8  1  0
 10 11  1  0
 13 12  1  0
 13  9  1  0
 13 14  1  0
 14 20  1  0
 14 21  2  0
 15 20  1  0
 16 17  1  0
 16 15  1  0
 18 17  1  0
 18 25  1  0
 18 19  1  0
 20 19  1  0
 22 23  2  0
 23 42  1  0
 24 23  1  0
 24 27  1  0
 25 26  1  0
 25 22  1  0
 26 24  2  0
 27 28  1  0
 28 29  2  0
 30 33  1  0
 30 29  1  0
 31 30  2  0
 32 31  1  0
 32 27  2  0
 33 34  1  0
 34 39  2  0
 34 35  1  0
 35 36  2  0
 36 37  1  0
 37 41  1  0
 38 37  2  0
 39 38  1  0
 40 39  1  0
 42 43  1  0
 43 46  1  0
 43 45  1  0
 44 42  2  0
 47 22  1  0
 47 48  1  0
 49 47  1  0
 52 51  1  0
 52 53  1  0
 52 50  1  0
 54 65  2  0
 55 53  1  0
 55 60  1  0
 56 64  1  0
 56 66  1  0
 57 63  1  0
 57 59  1  0
 58 64  1  0
 59 60  2  0
 59 58  1  0
 61 55  2  0
 62 61  1  0
 62 57  2  0
 63 56  1  0
 64 54  1  0
 66 68  2  0
 67 66  1  0
 69 67  1  0
 70 79  2  0
 70 75  1  0
 71 67  1  0
 71 75  1  0
 72 71  1  0
 73 74  1  0
 73 72  1  0
 74 70  1  0
 75 76  2  0
 76 77  1  0
 78 77  2  0
 79 78  1  0
 80 54  1  0
 80 81  1  0
 80 90  1  0
 81 84  1  0
 82 86  1  0
 82 81  1  0
 83 82  2  0
 86 85  1  0
 88 86  1  0
 88 89  1  0
 88 87  1  0
 90 93  1  1
 90 91  1  0
 92 90  1  0
M  ISO  4  13 100  14 100  52 101  53 101
M  END
>  <TORSDO>  (17) 
F 22

>  <SCORE>  (17) 
-10.910

>  <name>  (17) 
18

>  <ligand_id>  (17) 
18

>  <original_smiles>  (17) 
[H]c1nc(C([H])([H])C([H])(Oc2c([H])c([H])c3c(c2[H])C([H])([H])N(C(=O)C([H])(N([H])C(=O)C([H])(N([H])C([H])([H])[H])C([H])([H])[H])C(C([H])([H])[H])(C([H])([H])[H])C([H])([H])[H])C([H])(C(=O)N([H])C2([H])c4c([H])c([H])c([H])c([H])c4C([H])([H])C([H])([H])C2([H])[H])C3([H])[H])C([H])([H])[H])c([H])c(C([H])([H])[H])c1C([H])([H])C([H])(C([H])([H])C([H])([H])[H])C([H])(C(=O)N1C([H])([H])C([H])([H])C([H])([H])C([H])(n2nc(-c3c([H])c([H])c(Oc4c([H])c([H])c(F)c([H])c4F)c([H])c3[H])c(C(=O)N([H])[H])c2N([H])[H])C1([H])[H])C([H])([H])[H]

>  <smiles>  (17) 
[H]c1nc(C([H])([H])C([H])(Oc2c([H])c([H])c3c(c2[H])C([H])([H])N(C(=O)C([H])(N([H])C(=O)C([H])(N([H])C([H])([H])[H])C([H])([H])[H])C(C([H])([H])[H])(C([H])([H])[H])C([H])([H])[H])C([H])(C(=O)N([H])C2([H])c4c([H])c([H])c([H])c([H])c4C([H])([H])C([H])([H])C2([H])[H])C3([H])[H])C([H])([H])[H])c([H])c(C([H])([H])[H])c1C([H])([H])C([H])(C([H])([H])C([H])([H])[H])C([H])(C(=O)N1C([H])([H])C([H])([H])C([H])([H])C([H])(n2nc(-c3c([H])c([H])c(Oc4c([H])c([H])c(F)c([H])c4F)c([H])c3[H])c(C(=O)N([H])[H])c2N([H])[H])C1([H])[H])C([H])([H])[H]

$$$$
19:0:0
     RDKit          3D

 92100  0  0  1  0  0  0  0  0999 V2000
  -28.5450  -21.0980   21.0720 C   0  0  0  0  0  3  0  0  0  0  0  0
  -28.8240  -19.6760   21.0140 C   0  0  0  0  0  3  0  0  0  0  0  0
  -29.2810  -22.0850   20.3280 C   0  0  0  0  0  0  0  0  0  0  0  0
  -29.8650  -19.1410   20.2020 C   0  0  0  0  0  0  0  0  0  0  0  0
  -30.2710  -21.4440   19.5090 C   0  0  0  0  0  0  0  0  0  0  0  0
  -30.5320  -20.0830   19.4610 N   0  0  0  0  0  0  0  0  0  0  0  0
  -32.5300  -22.5980   19.4000 C   0  0  0  0  0  1  0  0  0  0  0  0
  -31.2240  -22.2730   18.6640 C   0  0  0  0  0  2  0  0  0  0  0  0
  -29.2000  -23.7140   20.5800 C   0  0  0  0  0  2  0  0  0  0  0  0
  -28.2210  -24.6500   18.4270 C   0  0  0  0  0  1  0  0  0  0  0  0
  -26.7700  -24.2340   20.5110 C   0  0  0  0  0  1  0  0  0  0  0  0
  -28.1060  -24.7960   19.9590 C   0  0  1  0  0  0  0  0  0  0  0  0
  -28.2430  -26.3270   20.2510 O   0  0  0  0  0  0  0  0  0  0  0  0
  -24.6270  -31.9330   23.3060 C   0  0  0  0  0  0  0  0  0  0  0  0
  -27.1930  -27.3130   20.1510 C   0  0  0  0  0  0  0  0  0  0  0  0
  -23.4220  -30.5730   21.6420 C   0  0  0  0  0  3  0  0  0  0  0  0
  -24.8680  -29.0570   20.1620 C   0  0  0  0  0  0  0  0  0  0  0  0
  -25.9730  -30.8510   21.4750 C   0  0  0  0  0  2  0  0  0  0  0  0
  -26.0450  -29.4790   20.7920 C   0  0  0  0  0  0  0  0  0  0  0  0
  -27.2030  -28.6180   20.7860 C   0  0  0  0  0  3  0  0  0  0  0  0
  -26.0100  -27.0330   19.4290 C   0  0  0  0  0  3  0  0  0  0  0  0
  -24.8650  -27.8460   19.4620 C   0  0  0  0  0  3  0  0  0  0  0  0
  -23.6360  -29.9430   20.2420 C   0  0  0  0  0  2  0  0  0  0  0  0
  -24.6930  -31.1380   22.1960 N   0  0  0  0  0  0  0  0  0  0  0  0
  -23.5430  -32.2050   23.8440 O   0  0  0  0  0  0  0  0  0  0  0  0
  -22.7550  -29.5380   22.5800 C   0  0  0  0  0  0  0  0  0  0  0  0
  -21.4310  -29.3480   22.4400 N   0  0  0  0  0  0  0  0  0  0  0  0
  -23.4300  -28.9100   23.4000 O   0  0  0  0  0  0  0  0  0  0  0  0
  -20.9420  -29.9050   21.7550 H   0  0  0  0  0  0  0  0  0  0  0  0
  -18.0640  -28.0940   22.9000 C   0  0  0  0  0  0  0  0  0  0  0  0
  -20.6170  -28.3880   23.1900 C   0  0  0  0  0  3  0  0  0  0  0  0
  -20.7450  -26.9650   22.5990 C   0  0  0  0  0  2  0  0  0  0  0  0
  -19.6560  -26.6400   21.5720 C   0  0  0  0  0  2  0  0  0  0  0  0
  -18.2660  -26.7570   22.2070 C   0  0  0  0  0  2  0  0  0  0  0  0
  -19.1680  -28.8670   23.3470 C   0  0  0  0  0  0  0  0  0  0  0  0
  -18.9270  -30.1160   23.9580 C   0  0  0  0  0  3  0  0  0  0  0  0
  -17.6140  -30.5970   24.1210 C   0  0  0  0  0  3  0  0  0  0  0  0
  -16.5240  -29.8210   23.6880 C   0  0  0  0  0  3  0  0  0  0  0  0
  -16.7490  -28.5710   23.0840 C   0  0  0  0  0  3  0  0  0  0  0  0
  -25.9080  -32.5580   23.9380 C   0  0  0  0  0  3  0  0  0  0  0  0
  -26.3990  -31.7920   25.2270 C   0  0  1  0  0  0  0  0  0  0  0  0
  -25.2880  -31.5720   26.2810 C   0  0  0  0  0  1  0  0  0  0  0  0
  -26.9770  -30.4060   24.8580 C   0  0  0  0  0  1  0  0  0  0  0  0
  -27.5460  -32.5810   25.9010 C   0  0  0  0  0  1  0  0  0  0  0  0
  -25.6110  -33.9640   24.2580 N   0  0  0  0  0  0  0  0  0  0  0  0
  -25.9240  -35.0060   23.4780 C   0  0  0  0  0  0  0  0  0  0  0  0
  -26.5610  -34.8890   22.4280 O   0  0  0  0  0  0  0  0  0  0  0  0
  -25.0470  -34.1320   25.0790 H   0  0  0  0  0  0  0  0  0  0  0  0
  -24.1790  -36.7930   23.1730 C   0  0  0  0  0  1  0  0  0  0  0  0
  -25.4560  -36.4030   23.9350 C   0  0  0  0  0  3  0  0  0  0  0  0
  -27.6160  -37.3120   24.6660 C   0  0  0  0  0  1  0  0  0  0  0  0
  -26.4800  -37.4550   23.7590 N   0  0  0  0  0  0  0  0  0  0  0  0
  -26.0770  -38.3760   23.8990 H   0  0  0  0  0  0  0  0  0  0  0  0
  -30.5420  -17.6520   20.2670 C   0  0  0  0  0  2  0  0  0  0  0  0
  -30.6190  -15.0210   20.0990 C   0  0  0  0  0  0  0  0  0  0  0  0
  -30.3880  -12.7140   19.1150 C   0  0  0  0  0  2  0  0  0  0  0  0
  -29.4110  -12.7200   17.9180 C   0  0  0  0  0  2  0  0  0  0  0  0
  -27.9620  -12.5330   18.4000 C   0  0  0  0  0  2  0  0  0  0  0  0
  -27.6130  -13.4350   19.6140 C   0  0  0  0  0  3  0  0  0  0  0  0
  -28.7110  -13.4130   20.6980 C   0  0  0  0  0  2  0  0  0  0  0  0
  -29.9680  -13.7960   20.0450 N   0  0  0  0  0  0  0  0  0  0  0  0
  -31.8060  -15.0560   19.7670 O   0  0  0  0  0  0  0  0  0  0  0  0
  -29.9240  -16.2260   20.3120 N   0  0  0  0  0  0  0  0  0  0  0  0
  -28.9400  -16.1700   20.5170 H   0  0  0  0  0  0  0  0  0  0  0  0
  -25.2610  -14.0020   20.4500 C   0  0  0  0  0  0  0  0  0  0  0  0
  -24.2110  -13.2210   20.8470 C   0  0  0  0  0  0  0  0  0  0  0  0
  -24.6720  -11.8710   20.7740 C   0  0  0  0  0  0  0  0  0  0  0  0
  -26.2940  -13.1290   20.1560 N   0  0  0  0  0  0  0  0  0  0  0  0
  -25.9500  -11.8400   20.4140 N   0  0  0  0  0  0  0  0  0  0  0  0
  -23.9500  -10.6050   20.9650 C   0  0  0  0  0  0  0  0  0  0  0  0
  -24.3800   -9.6440   21.9050 C   0  0  0  0  0  3  0  0  0  0  0  0
  -23.6570   -8.4460   22.0850 C   0  0  0  0  0  3  0  0  0  0  0  0
  -22.4900   -8.2010   21.3240 C   0  0  0  0  0  0  0  0  0  0  0  0
  -22.0800   -9.1490   20.3710 C   0  0  0  0  0  3  0  0  0  0  0  0
  -22.8040  -10.3390   20.1900 C   0  0  0  0  0  3  0  0  0  0  0  0
  -21.7380   -7.0540   21.4150 O   0  0  0  0  0  0  0  0  0  0  0  0
  -21.6440   -6.3430   22.5850 C   0  0  0  0  0  0  0  0  0  0  0  0
  -21.1120   -6.9120   23.7630 C   0  0  0  0  0  3  0  0  0  0  0  0
  -20.9730   -6.1250   24.9240 C   0  0  0  0  0  3  0  0  0  0  0  0
  -21.3540   -4.7710   24.9060 C   0  0  0  0  0  0  0  0  0  0  0  0
  -21.8770   -4.2010   23.7310 C   0  0  0  0  0  3  0  0  0  0  0  0
  -22.0180   -4.9840   22.5740 C   0  0  0  0  0  0  0  0  0  0  0  0
  -22.5050   -4.4260   21.4390 F   0  0  0  0  0  0  0  0  0  0  0  0
  -21.2100   -4.0110   26.0170 F   0  0  0  0  0  0  0  0  0  0  0  0
  -22.8250  -13.6940   21.1780 C   0  0  0  0  0  0  0  0  0  0  0  0
  -22.1300  -12.9830   22.0590 N   0  0  0  0  0  0  0  0  0  0  0  0
  -22.3700  -14.7300   20.6940 O   0  0  0  0  0  0  0  0  0  0  0  0
  -22.5130  -12.1460   22.4730 H   0  0  0  0  0  0  0  0  0  0  0  0
  -21.2010  -13.2790   22.3240 H   0  0  0  0  0  0  0  0  0  0  0  0
  -25.4210  -15.3760   20.2910 N   0  0  0  0  0  0  0  0  0  0  0  0
  -24.6600  -16.0300   20.4420 H   0  0  0  0  0  0  0  0  0  0  0  0
  -26.2460  -15.8170   19.9050 H   0  0  0  0  0  0  0  0  0  0  0  0
  2  1  1  0
  3  9  1  0
  3  1  2  0
  4 54  1  0
  4  2  2  0
  5  3  1  0
  6  5  2  0
  6  4  1  0
  8  7  1  0
  8  5  1  0
 12 10  1  6
 12 13  1  0
 12 11  1  0
 12  9  1  0
 14 25  2  0
 15 13  1  0
 15 20  1  0
 16 24  1  0
 16 26  1  0
 17 23  1  0
 17 19  1  0
 18 24  1  0
 19 18  1  0
 20 19  2  0
 21 22  1  0
 21 15  2  0
 22 17  2  0
 23 16  1  0
 24 14  1  0
 26 28  2  0
 27 26  1  0
 29 27  1  0
 30 39  2  0
 30 35  1  0
 31 27  1  0
 31 35  1  0
 32 31  1  0
 33 34  1  0
 33 32  1  0
 34 30  1  0
 35 36  2  0
 36 37  1  0
 38 37  2  0
 39 38  1  0
 40 14  1  0
 40 45  1  0
 40 41  1  0
 41 44  1  1
 41 42  1  0
 43 41  1  0
 45 48  1  0
 46 50  1  0
 46 45  1  0
 47 46  2  0
 50 49  1  0
 52 53  1  0
 52 50  1  0
 52 51  1  0
 54 63  1  0
 55 63  1  0
 56 61  1  0
 57 58  1  0
 57 56  1  0
 59 58  1  0
 59 68  1  0
 59 60  1  0
 61 55  1  0
 61 60  1  0
 62 55  2  0
 63 64  1  0
 65 66  2  0
 66 85  1  0
 67 66  1  0
 67 70  1  0
 68 69  1  0
 68 65  1  0
 69 67  2  0
 70 71  1  0
 71 72  2  0
 73 76  1  0
 73 72  1  0
 74 73  2  0
 75 74  1  0
 75 70  2  0
 76 77  1  0
 77 78  1  0
 78 79  2  0
 80 79  1  0
 80 84  1  0
 81 80  2  0
 82 77  2  0
 82 81  1  0
 83 82  1  0
 85 86  1  0
 86 89  1  0
 86 88  1  0
 87 85  2  0
 90 91  1  0
 90 65  1  0
 92 90  1  0
M  ISO  4  12 101  13 101  55 100  63 100
M  END
>  <TORSDO>  (18) 
F 20

>  <SCORE>  (18) 
-13.704

>  <name>  (18) 
19

>  <ligand_id>  (18) 
19

>  <original_smiles>  (18) 
[H]c1c(C([H])([H])N([H])C(=O)N2C([H])([H])C([H])([H])C([H])([H])C([H])(n3nc(-c4c([H])c([H])c(Oc5c([H])c([H])c(F)c([H])c5F)c([H])c4[H])c(C(=O)N([H])[H])c3N([H])[H])C2([H])[H])nc(C([H])([H])C([H])([H])[H])c(C([H])([H])C(Oc2c([H])c([H])c3c(c2[H])C([H])([H])N(C(=O)C([H])(N([H])C(=O)C([H])(N([H])C([H])([H])[H])C([H])([H])[H])C(C([H])([H])[H])(C([H])([H])[H])C([H])([H])[H])C([H])(C(=O)N([H])C2([H])c4c([H])c([H])c([H])c([H])c4C([H])([H])C([H])([H])C2([H])[H])C3([H])[H])(C([H])([H])[H])C([H])([H])[H])c1[H]

>  <smiles>  (18) 
[H]c1c(C([H])([H])N([H])C(=O)N2C([H])([H])C([H])([H])C([H])([H])C([H])(n3nc(-c4c([H])c([H])c(Oc5c([H])c([H])c(F)c([H])c5F)c([H])c4[H])c(C(=O)N([H])[H])c3N([H])[H])C2([H])[H])nc(C([H])([H])C([H])([H])[H])c(C([H])([H])C(Oc2c([H])c([H])c3c(c2[H])C([H])([H])N(C(=O)C([H])(N([H])C(=O)C([H])(N([H])C([H])([H])[H])C([H])([H])[H])C(C([H])([H])[H])(C([H])([H])[H])C([H])([H])[H])C([H])(C(=O)N([H])C2([H])c4c([H])c([H])c([H])c([H])c4C([H])([H])C([H])([H])C2([H])[H])C3([H])[H])(C([H])([H])[H])C([H])([H])[H])c1[H]

$$$$
20:0:0
     RDKit          3D

 97105  0  0  1  0  0  0  0  0999 V2000
  -30.4700  -23.5880   17.2450 C   0  0  0  0  0  2  0  0  0  0  0  0
  -30.5190  -21.1190   17.8230 C   0  0  0  0  0  3  0  0  0  0  0  0
  -29.5940  -20.1810   18.2160 C   0  0  0  0  0  0  0  0  0  0  0  0
  -28.6380  -22.2070   18.2670 C   0  0  0  0  0  3  0  0  0  0  0  0
  -27.5730  -23.2530   18.3680 C   0  0  0  0  0  1  0  0  0  0  0  0
  -29.9000  -22.3500   17.8270 N   0  0  0  0  0  0  0  0  0  0  0  0
  -28.4720  -20.9040   18.5390 N   0  0  0  0  0  0  0  0  0  0  0  0
  -27.6010  -20.5010   18.8650 H   0  0  0  0  0  0  0  0  0  0  0  0
  -29.6180  -18.6750   18.1640 C   0  0  0  0  0  2  0  0  0  0  0  0
  -29.9990  -17.9320   19.4660 C   0  0  0  0  0  2  0  0  0  0  0  0
  -29.7460  -16.4050   19.3000 C   0  0  0  0  0  2  0  0  0  0  0  0
  -30.8300  -14.3970   20.1950 C   0  0  0  0  0  0  0  0  0  0  0  0
  -30.4430  -12.2360   19.0770 C   0  0  0  0  0  2  0  0  0  0  0  0
  -29.4700  -12.4730   17.9020 C   0  0  0  0  0  2  0  0  0  0  0  0
  -28.0070  -12.3700   18.3750 C   0  0  0  0  0  2  0  0  0  0  0  0
  -27.7230  -13.2100   19.6500 C   0  0  0  0  0  3  0  0  0  0  0  0
  -28.8110  -12.9720   20.7240 C   0  0  0  0  0  2  0  0  0  0  0  0
  -30.1240  -13.2340   20.1090 N   0  0  0  0  0  0  0  0  0  0  0  0
  -31.9760  -14.5230   19.7540 O   0  0  0  0  0  0  0  0  0  0  0  0
  -30.0550  -16.0870   21.7690 C   0  0  0  0  0  1  0  0  0  0  0  0
  -30.0820  -15.5030   20.4290 N   0  0  0  0  0  0  0  0  0  0  0  0
  -25.3590  -13.8730   20.4210 C   0  0  0  0  0  0  0  0  0  0  0  0
  -24.2820  -13.1230   20.8140 C   0  0  0  0  0  0  0  0  0  0  0  0
  -24.7130  -11.7630   20.7730 C   0  0  0  0  0  0  0  0  0  0  0  0
  -26.3790  -12.9680   20.1670 N   0  0  0  0  0  0  0  0  0  0  0  0
  -25.9940  -11.6950   20.4350 N   0  0  0  0  0  0  0  0  0  0  0  0
  -23.9670  -10.5160   20.9800 C   0  0  0  0  0  0  0  0  0  0  0  0
  -24.4020   -9.5370   21.9010 C   0  0  0  0  0  3  0  0  0  0  0  0
  -23.6540   -8.3560   22.0960 C   0  0  0  0  0  3  0  0  0  0  0  0
  -22.4580   -8.1450   21.3690 C   0  0  0  0  0  0  0  0  0  0  0  0
  -22.0430   -9.1120   20.4360 C   0  0  0  0  0  3  0  0  0  0  0  0
  -22.7910  -10.2840   20.2400 C   0  0  0  0  0  3  0  0  0  0  0  0
  -21.6800   -7.0170   21.4730 O   0  0  0  0  0  0  0  0  0  0  0  0
  -21.6420   -6.2730   22.6250 C   0  0  0  0  0  0  0  0  0  0  0  0
  -21.2640   -6.8360   23.8640 C   0  0  0  0  0  3  0  0  0  0  0  0
  -21.1730   -6.0210   25.0080 C   0  0  0  0  0  3  0  0  0  0  0  0
  -21.4480   -4.6440   24.9180 C   0  0  0  0  0  0  0  0  0  0  0  0
  -21.8190   -4.0810   23.6850 C   0  0  0  0  0  3  0  0  0  0  0  0
  -21.9140   -4.8930   22.5410 C   0  0  0  0  0  0  0  0  0  0  0  0
  -22.2510   -4.3410   21.3510 F   0  0  0  0  0  0  0  0  0  0  0  0
  -21.3530   -3.8590   26.0170 F   0  0  0  0  0  0  0  0  0  0  0  0
  -22.9030  -13.6300   21.1240 C   0  0  0  0  0  0  0  0  0  0  0  0
  -22.1840  -12.9470   22.0090 N   0  0  0  0  0  0  0  0  0  0  0  0
  -22.4720  -14.6660   20.6180 O   0  0  0  0  0  0  0  0  0  0  0  0
  -22.5430  -12.1100   22.4430 H   0  0  0  0  0  0  0  0  0  0  0  0
  -21.2590  -13.2710   22.2590 H   0  0  0  0  0  0  0  0  0  0  0  0
  -25.5490  -15.2400   20.2420 N   0  0  0  0  0  0  0  0  0  0  0  0
  -24.8070  -15.9160   20.3870 H   0  0  0  0  0  0  0  0  0  0  0  0
  -26.4160  -15.6640   19.9350 H   0  0  0  0  0  0  0  0  0  0  0  0
  -31.3010  -25.9390   17.3290 C   0  0  0  0  0  1  0  0  0  0  0  0
  -30.3840  -24.9240   18.0420 C   0  0  0  0  0  3  0  0  0  0  0  0
  -30.6810  -24.7710   19.5580 C   0  0  0  0  0  2  0  0  0  0  0  0
  -30.4180  -25.5250   21.9290 C   0  0  0  0  0  1  0  0  0  0  0  0
  -32.0810  -26.6810   20.5040 C   0  0  0  0  0  1  0  0  0  0  0  0
  -30.6780  -26.0290   20.4930 C   0  0  1  0  0  0  0  0  0  0  0  0
  -29.6100  -27.1210   20.1710 C   0  0  0  0  0  2  0  0  0  0  0  0
  -28.2980  -26.5710   20.0940 O   0  0  0  0  0  0  0  0  0  0  0  0
  -24.5240  -31.8320   23.1940 C   0  0  0  0  0  0  0  0  0  0  0  0
  -27.1870  -27.3920   20.1290 C   0  0  0  0  0  0  0  0  0  0  0  0
  -23.3130  -30.4250   21.5550 C   0  0  0  0  0  3  0  0  0  0  0  0
  -24.7700  -28.8780   20.1420 C   0  0  0  0  0  0  0  0  0  0  0  0
  -25.8370  -30.7880   21.3530 C   0  0  0  0  0  2  0  0  0  0  0  0
  -25.9270  -29.4140   20.7200 C   0  0  0  0  0  0  0  0  0  0  0  0
  -27.1380  -28.6830   20.7120 C   0  0  0  0  0  3  0  0  0  0  0  0
  -26.0060  -26.8630   19.5680 C   0  0  0  0  0  3  0  0  0  0  0  0
  -24.8020  -27.5980   19.5630 C   0  0  0  0  0  3  0  0  0  0  0  0
  -23.5220  -29.7330   20.1810 C   0  0  0  0  0  2  0  0  0  0  0  0
  -24.5760  -31.0290   22.0940 N   0  0  0  0  0  0  0  0  0  0  0  0
  -23.4440  -32.1090   23.7350 O   0  0  0  0  0  0  0  0  0  0  0  0
  -22.6590  -29.4130   22.5210 C   0  0  0  0  0  0  0  0  0  0  0  0
  -21.3310  -29.2470   22.4040 N   0  0  0  0  0  0  0  0  0  0  0  0
  -23.3400  -28.7800   23.3320 O   0  0  0  0  0  0  0  0  0  0  0  0
  -20.8420  -29.8070   21.7200 H   0  0  0  0  0  0  0  0  0  0  0  0
  -17.9440  -28.1060   22.9380 C   0  0  0  0  0  0  0  0  0  0  0  0
  -20.5090  -28.3180   23.1790 C   0  0  0  0  0  3  0  0  0  0  0  0
  -20.5800  -26.8890   22.5920 C   0  0  0  0  0  2  0  0  0  0  0  0
  -19.4590  -26.5920   21.5900 C   0  0  0  0  0  2  0  0  0  0  0  0
  -18.0890  -26.7580   22.2520 C   0  0  0  0  0  2  0  0  0  0  0  0
  -19.0810  -28.8460   23.3590 C   0  0  0  0  0  0  0  0  0  0  0  0
  -18.8930  -30.1100   23.9590 C   0  0  0  0  0  3  0  0  0  0  0  0
  -17.6000  -30.6340   24.1430 C   0  0  0  0  0  3  0  0  0  0  0  0
  -16.4770  -29.8900   23.7400 C   0  0  0  0  0  3  0  0  0  0  0  0
  -16.6500  -28.6290   23.1420 C   0  0  0  0  0  3  0  0  0  0  0  0
  -25.8130  -32.4590   23.8130 C   0  0  0  0  0  3  0  0  0  0  0  0
  -25.5060  -33.8540   24.1530 N   0  0  0  0  0  0  0  0  0  0  0  0
  -25.8380  -34.9120   23.4000 C   0  0  0  0  0  0  0  0  0  0  0  0
  -26.5070  -34.8150   22.3670 O   0  0  0  0  0  0  0  0  0  0  0  0
  -24.9150  -34.0040   24.9580 H   0  0  0  0  0  0  0  0  0  0  0  0
  -24.1130  -36.7070   23.0550 C   0  0  0  0  0  1  0  0  0  0  0  0
  -25.3520  -36.2960   23.8670 C   0  0  0  0  0  3  0  0  0  0  0  0
  -27.4850  -37.1700   24.7080 C   0  0  0  0  0  1  0  0  0  0  0  0
  -26.3850  -37.3500   23.7650 N   0  0  0  0  0  0  0  0  0  0  0  0
  -25.9790  -38.2680   23.9220 H   0  0  0  0  0  0  0  0  0  0  0  0
  -26.3430  -31.6780   25.0770 C   0  0  1  0  0  0  0  0  0  0  0  0
  -25.2600  -31.4290   26.1520 C   0  0  0  0  0  1  0  0  0  0  0  0
  -26.9240  -30.3050   24.6650 C   0  0  0  0  0  1  0  0  0  0  0  0
  -27.4970  -32.4680   25.7360 C   0  0  0  0  0  1  0  0  0  0  0  0
  1  6  1  0
  1 51  1  0
  2  6  1  0
  2  3  2  0
  3  7  1  0
  4  5  1  0
  4  7  1  0
  6  4  1  0
  7  8  1  0
  9  3  1  0
  9 10  1  0
 11 10  1  0
 11 21  1  0
 12 21  1  0
 13 18  1  0
 14 15  1  0
 14 13  1  0
 16 15  1  0
 16 25  1  0
 16 17  1  0
 18 12  1  0
 18 17  1  0
 19 12  2  0
 21 20  1  0
 22 23  2  0
 23 42  1  0
 24 23  1  0
 24 27  1  0
 25 22  1  0
 25 26  1  0
 26 24  2  0
 27 28  1  0
 28 29  2  0
 30 33  1  0
 30 29  1  0
 31 30  2  0
 32 31  1  0
 32 27  2  0
 33 34  1  0
 34 35  1  0
 35 36  2  0
 37 36  1  0
 37 41  1  0
 38 37  2  0
 39 34  2  0
 39 38  1  0
 40 39  1  0
 42 43  1  0
 43 46  1  0
 43 45  1  0
 44 42  2  0
 47 48  1  0
 47 22  1  0
 49 47  1  0
 51 50  1  0
 51 52  1  0
 52 55  1  0
 55 54  1  1
 55 53  1  0
 56 55  1  0
 57 59  1  0
 57 56  1  0
 58 69  2  0
 59 64  1  0
 60 68  1  0
 60 70  1  0
 61 67  1  0
 61 63  1  0
 62 68  1  0
 63 62  1  0
 64 63  2  0
 65 59  2  0
 66 65  1  0
 66 61  2  0
 67 60  1  0
 68 58  1  0
 70 72  2  0
 71 70  1  0
 73 71  1  0
 74 83  2  0
 74 79  1  0
 75 71  1  0
 75 79  1  0
 76 75  1  0
 77 78  1  0
 77 76  1  0
 78 74  1  0
 79 80  2  0
 80 81  1  0
 82 81  2  0
 83 82  1  0
 84 58  1  0
 84 85  1  0
 84 94  1  0
 85 88  1  0
 86 90  1  0
 86 85  1  0
 87 86  2  0
 90 89  1  0
 92 90  1  0
 92 93  1  0
 92 91  1  0
 94 97  1  1
 94 95  1  0
 96 94  1  0
M  ISO  4  12 100  21 100  56 101  57 101
M  END
>  <TORSDO>  (19) 
F 24

>  <SCORE>  (19) 
-12.465

>  <name>  (19) 
20

>  <ligand_id>  (19) 
20

>  <original_smiles>  (19) 
[H]c1c([H])c([H])c2c(c1[H])C([H])([H])C([H])([H])C([H])([H])C2([H])N([H])C(=O)C1([H])N(C(=O)C([H])(N([H])C(=O)C([H])(N([H])C([H])([H])[H])C([H])([H])[H])C(C([H])([H])[H])(C([H])([H])[H])C([H])([H])[H])C([H])([H])c2c([H])c(OC([H])([H])C(C([H])([H])[H])(C([H])([H])[H])C([H])([H])C([H])(C([H])([H])[H])C([H])([H])n3c([H])c(C([H])([H])C([H])([H])C([H])([H])N(C(=O)N4C([H])([H])C([H])([H])C([H])([H])C([H])(n5nc(-c6c([H])c([H])c(Oc7c([H])c([H])c(F)c([H])c7F)c([H])c6[H])c(C(=O)N([H])[H])c5N([H])[H])C4([H])[H])C([H])([H])[H])[n+]([H])c3C([H])([H])[H])c([H])c([H])c2C1([H])[H]

>  <smiles>  (19) 
[H]c1c([H])c([H])c2c(c1[H])C([H])([H])C([H])([H])C([H])([H])C2([H])N([H])C(=O)C1([H])N(C(=O)C([H])(N([H])C(=O)C([H])(N([H])C([H])([H])[H])C([H])([H])[H])C(C([H])([H])[H])(C([H])([H])[H])C([H])([H])[H])C([H])([H])c2c([H])c(OC([H])([H])C(C([H])([H])[H])(C([H])([H])[H])C([H])([H])C([H])(C([H])([H])[H])C([H])([H])n3c([H])c(C([H])([H])C([H])([H])C([H])([H])N(C(=O)N4C([H])([H])C([H])([H])C([H])([H])C([H])(n5nc(-c6c([H])c([H])c(Oc7c([H])c([H])c(F)c([H])c7F)c([H])c6[H])c(C(=O)N([H])[H])c5N([H])[H])C4([H])[H])C([H])([H])[H])[n+]([H])c3C([H])([H])[H])c([H])c([H])c2C1([H])[H]

$$$$
21:0:0
     RDKit          3D

 95103  0  0  1  0  0  0  0  0999 V2000
  -28.2900  -21.9740   21.1410 C   0  0  0  0  0  3  0  0  0  0  0  0
  -29.0180  -20.7660   21.2730 C   0  0  0  0  0  0  0  0  0  0  0  0
  -28.9150  -23.1710   21.5150 C   0  0  0  0  0  0  0  0  0  0  0  0
  -30.3900  -20.8730   21.6930 C   0  0  0  0  0  0  0  0  0  0  0  0
  -28.2630  -19.4820   20.9480 C   0  0  0  0  0  1  0  0  0  0  0  0
  -30.1560  -23.1950   22.0460 N   0  0  0  0  0  0  0  0  0  0  0  0
  -30.8670  -22.0750   22.1190 N   0  0  0  0  0  0  0  0  0  0  0  0
  -32.7220  -20.2510   20.9030 C   0  0  0  0  0  1  0  0  0  0  0  0
  -31.9000  -19.5110   23.2140 C   0  0  0  0  0  1  0  0  0  0  0  0
  -31.4990  -19.7710   21.7380 C   0  0  1  0  0  0  0  0  0  0  0  0
  -31.0590  -18.4380   21.0930 C   0  0  0  0  0  2  0  0  0  0  0  0
  -31.8980  -17.1650   21.3320 C   0  0  0  0  0  2  0  0  0  0  0  0
  -31.0940  -15.9110   20.9510 C   0  0  0  0  0  2  0  0  0  0  0  0
  -32.0810  -14.1930   19.4430 C   0  0  0  0  0  0  0  0  0  0  0  0
  -31.5830  -11.8310   18.9550 C   0  0  0  0  0  2  0  0  0  0  0  0
  -30.5680  -11.7840   17.7900 C   0  0  0  0  0  2  0  0  0  0  0  0
  -29.1110  -11.9200   18.2860 C   0  0  0  0  0  2  0  0  0  0  0  0
  -28.9340  -13.0660   19.3150 C   0  0  0  0  0  3  0  0  0  0  0  0
  -30.0450  -13.0050   20.3870 C   0  0  0  0  0  2  0  0  0  0  0  0
  -31.3500  -13.0750   19.6990 N   0  0  0  0  0  0  0  0  0  0  0  0
  -33.1250  -14.1780   18.7810 O   0  0  0  0  0  0  0  0  0  0  0  0
  -30.8880  -16.0230   18.4240 C   0  0  0  0  0  1  0  0  0  0  0  0
  -31.3950  -15.3440   19.6200 N   0  0  0  0  0  0  0  0  0  0  0  0
  -26.8310  -14.1200   20.3700 C   0  0  0  0  0  0  0  0  0  0  0  0
  -25.6480  -13.5770   20.7840 C   0  0  0  0  0  0  0  0  0  0  0  0
  -25.7570  -12.1710   20.5530 C   0  0  0  0  0  0  0  0  0  0  0  0
  -27.6020  -13.0600   19.9140 N   0  0  0  0  0  0  0  0  0  0  0  0
  -26.9550  -11.8760   20.0640 N   0  0  0  0  0  0  0  0  0  0  0  0
  -24.7720  -11.0970   20.7090 C   0  0  0  0  0  0  0  0  0  0  0  0
  -25.0440   -9.9450   21.4820 C   0  0  0  0  0  3  0  0  0  0  0  0
  -24.0700   -8.9350   21.6240 C   0  0  0  0  0  3  0  0  0  0  0  0
  -22.8100   -9.0690   20.9950 C   0  0  0  0  0  0  0  0  0  0  0  0
  -22.5580  -10.2010   20.2040 C   0  0  0  0  0  3  0  0  0  0  0  0
  -23.5270  -11.2050   20.0580 C   0  0  0  0  0  3  0  0  0  0  0  0
  -21.8130   -8.1270   21.0620 O   0  0  0  0  0  0  0  0  0  0  0  0
  -21.6520   -7.3260   22.1650 C   0  0  0  0  0  0  0  0  0  0  0  0
  -21.4380   -7.8650   23.4500 C   0  0  0  0  0  3  0  0  0  0  0  0
  -21.2040   -7.0060   24.5410 C   0  0  0  0  0  3  0  0  0  0  0  0
  -21.1770   -5.6110   24.3500 C   0  0  0  0  0  0  0  0  0  0  0  0
  -21.3870   -5.0740   23.0690 C   0  0  0  0  0  3  0  0  0  0  0  0
  -21.6220   -5.9300   21.9780 C   0  0  0  0  0  0  0  0  0  0  0  0
  -21.8060   -5.4060   20.7420 F   0  0  0  0  0  0  0  0  0  0  0  0
  -20.9430   -4.7860   25.3980 F   0  0  0  0  0  0  0  0  0  0  0  0
  -24.4450  -14.3240   21.2810 C   0  0  0  0  0  0  0  0  0  0  0  0
  -23.6860  -13.7360   22.1980 N   0  0  0  0  0  0  0  0  0  0  0  0
  -24.2010  -15.4660   20.8870 O   0  0  0  0  0  0  0  0  0  0  0  0
  -23.9000  -12.8150   22.5590 H   0  0  0  0  0  0  0  0  0  0  0  0
  -22.8800  -14.2250   22.5600 H   0  0  0  0  0  0  0  0  0  0  0  0
  -27.3170  -15.4260   20.3300 N   0  0  0  0  0  0  0  0  0  0  0  0
  -26.7620  -16.2180   20.6310 H   0  0  0  0  0  0  0  0  0  0  0  0
  -28.2300  -15.6890   19.9830 H   0  0  0  0  0  0  0  0  0  0  0  0
  -28.2930  -24.5230   21.2520 C   0  0  0  0  0  2  0  0  0  0  0  0
  -28.9560  -25.1770   20.0320 C   0  0  0  0  0  2  0  0  0  0  0  0
  -28.7770  -26.7060   19.9510 C   0  0  0  0  0  2  0  0  0  0  0  0
  -27.7850  -26.9940   18.9790 O   0  0  0  0  0  0  0  0  0  0  0  0
  -24.5920  -31.8120   23.2560 C   0  0  0  0  0  0  0  0  0  0  0  0
  -26.6850  -27.7170   19.3630 C   0  0  0  0  0  0  0  0  0  0  0  0
  -23.1450  -30.6100   21.6530 C   0  0  0  0  0  3  0  0  0  0  0  0
  -24.3530  -29.2140   19.8950 C   0  0  0  0  0  0  0  0  0  0  0  0
  -25.6340  -30.9470   21.1660 C   0  0  0  0  0  2  0  0  0  0  0  0
  -25.5920  -29.6580   20.3750 C   0  0  0  0  0  0  0  0  0  0  0  0
  -26.7630  -28.9120   20.1160 C   0  0  0  0  0  3  0  0  0  0  0  0
  -25.4330  -27.2810   18.8910 C   0  0  0  0  0  3  0  0  0  0  0  0
  -24.2650  -28.0190   19.1620 C   0  0  0  0  0  3  0  0  0  0  0  0
  -23.1540  -30.0780   20.1950 C   0  0  0  0  0  2  0  0  0  0  0  0
  -24.4800  -31.1350   22.0780 N   0  0  0  0  0  0  0  0  0  0  0  0
  -23.6000  -32.0350   23.9620 O   0  0  0  0  0  0  0  0  0  0  0  0
  -22.6050  -29.4940   22.5740 C   0  0  0  0  0  0  0  0  0  0  0  0
  -21.3000  -29.2020   22.4520 N   0  0  0  0  0  0  0  0  0  0  0  0
  -23.3540  -28.8900   23.3440 O   0  0  0  0  0  0  0  0  0  0  0  0
  -20.7610  -29.7280   21.7800 H   0  0  0  0  0  0  0  0  0  0  0  0
  -18.1180  -27.5070   22.7450 C   0  0  0  0  0  0  0  0  0  0  0  0
  -20.5780  -28.1670   23.1870 C   0  0  0  0  0  3  0  0  0  0  0  0
  -20.9440  -26.7620   22.6630 C   0  0  0  0  0  2  0  0  0  0  0  0
  -19.9780  -26.2310   21.5980 C   0  0  0  0  0  2  0  0  0  0  0  0
  -18.5460  -26.1810   22.1440 C   0  0  0  0  0  2  0  0  0  0  0  0
  -19.0700  -28.4450   23.2230 C   0  0  0  0  0  0  0  0  0  0  0  0
  -18.6150  -29.6740   23.7510 C   0  0  0  0  0  3  0  0  0  0  0  0
  -17.2400  -29.9660   23.8060 C   0  0  0  0  0  3  0  0  0  0  0  0
  -16.3020  -29.0300   23.3410 C   0  0  0  0  0  3  0  0  0  0  0  0
  -16.7400  -27.8040   22.8140 C   0  0  0  0  0  3  0  0  0  0  0  0
  -25.9660  -32.3560   23.7580 C   0  0  0  0  0  3  0  0  0  0  0  0
  -25.7590  -33.7510   24.1760 N   0  0  0  0  0  0  0  0  0  0  0  0
  -26.0970  -34.8230   23.4470 C   0  0  0  0  0  0  0  0  0  0  0  0
  -26.6970  -34.7380   22.3720 O   0  0  0  0  0  0  0  0  0  0  0  0
  -25.2320  -33.8910   25.0250 H   0  0  0  0  0  0  0  0  0  0  0  0
  -24.4620  -36.7250   23.2770 C   0  0  0  0  0  1  0  0  0  0  0  0
  -25.7150  -36.2070   24.0010 C   0  0  0  0  0  3  0  0  0  0  0  0
  -27.9360  -36.9200   24.7650 C   0  0  0  0  0  1  0  0  0  0  0  0
  -26.8020  -37.2040   23.8920 N   0  0  0  0  0  0  0  0  0  0  0  0
  -26.4600  -38.1340   24.1210 H   0  0  0  0  0  0  0  0  0  0  0  0
  -26.5800  -31.5090   24.9370 C   0  0  1  0  0  0  0  0  0  0  0  0
  -25.5890  -31.2620   26.0980 C   0  0  0  0  0  1  0  0  0  0  0  0
  -27.0720  -30.1330   24.4310 C   0  0  0  0  0  1  0  0  0  0  0  0
  -27.8200  -32.2360   25.5100 C   0  0  0  0  0  1  0  0  0  0  0  0
  1  2  2  0
  1  3  1  0
  2  4  1  0
  3  6  2  0
  4 10  1  0
  4  7  2  0
  5  2  1  0
  6  7  1  0
 10  8  1  6
 10  9  1  0
 11 12  1  0
 11 10  1  0
 13 12  1  0
 14 23  1  0
 14 20  1  0
 15 20  1  0
 16 17  1  0
 16 15  1  0
 18 17  1  0
 18 27  1  0
 18 19  1  0
 20 19  1  0
 21 14  2  0
 22 23  1  0
 23 13  1  0
 24 25  2  0
 25 44  1  0
 26 29  1  0
 26 25  1  0
 27 28  1  0
 27 24  1  0
 28 26  2  0
 29 30  1  0
 30 31  2  0
 32 35  1  0
 32 31  1  0
 33 32  2  0
 34 33  1  0
 34 29  2  0
 35 36  1  0
 36 37  1  0
 37 38  2  0
 39 38  1  0
 39 43  1  0
 40 39  2  0
 41 36  2  0
 41 40  1  0
 42 41  1  0
 44 45  1  0
 45 47  1  0
 45 48  1  0
 46 44  2  0
 49 24  1  0
 49 50  1  0
 51 49  1  0
 52  3  1  0
 53 52  1  0
 54 53  1  0
 55 57  1  0
 55 54  1  0
 56 67  2  0
 57 62  1  0
 58 66  1  0
 58 68  1  0
 59 65  1  0
 59 61  1  0
 60 66  1  0
 61 60  1  0
 62 61  2  0
 63 64  1  0
 63 57  2  0
 64 59  2  0
 65 58  1  0
 66 56  1  0
 68 70  2  0
 69 68  1  0
 71 69  1  0
 72 81  2  0
 72 77  1  0
 73 69  1  0
 73 77  1  0
 74 73  1  0
 75 76  1  0
 75 74  1  0
 76 72  1  0
 77 78  2  0
 78 79  1  0
 80 79  2  0
 81 80  1  0
 82 56  1  0
 82 83  1  0
 82 92  1  0
 83 86  1  0
 84 88  1  0
 84 83  1  0
 85 84  2  0
 88 87  1  0
 90 88  1  0
 90 91  1  0
 90 89  1  0
 92 95  1  1
 92 93  1  0
 94 92  1  0
M  ISO  4  14 100  23 100  54 101  55 101
M  END
>  <TORSDO>  (20) 
F 23

>  <SCORE>  (20) 
-10.666

>  <name>  (20) 
21

>  <ligand_id>  (20) 
21

>  <original_smiles>  (20) 
[H]c1c([H])c([H])c2c(c1[H])C([H])([H])C([H])([H])C([H])([H])C2([H])N([H])C(=O)C1([H])N(C(=O)C([H])(N([H])C(=O)C([H])(N([H])C([H])([H])[H])C([H])([H])[H])C(C([H])([H])[H])(C([H])([H])[H])C([H])([H])[H])C([H])([H])c2c([H])c(OC([H])([H])C([H])([H])C([H])([H])c3nnc(C(C([H])([H])[H])(C([H])([H])[H])C([H])([H])C([H])([H])C([H])([H])N(C(=O)N4C([H])([H])C([H])([H])C([H])([H])C([H])(n5nc(-c6c([H])c([H])c(Oc7c([H])c([H])c(F)c([H])c7F)c([H])c6[H])c(C(=O)N([H])[H])c5N([H])[H])C4([H])[H])C([H])([H])[H])c(C([H])([H])[H])c3[H])c([H])c([H])c2C1([H])[H]

>  <smiles>  (20) 
[H]c1c([H])c([H])c2c(c1[H])C([H])([H])C([H])([H])C([H])([H])C2([H])N([H])C(=O)C1([H])N(C(=O)C([H])(N([H])C(=O)C([H])(N([H])C([H])([H])[H])C([H])([H])[H])C(C([H])([H])[H])(C([H])([H])[H])C([H])([H])[H])C([H])([H])c2c([H])c(OC([H])([H])C([H])([H])C([H])([H])c3nnc(C(C([H])([H])[H])(C([H])([H])[H])C([H])([H])C([H])([H])C([H])([H])N(C(=O)N4C([H])([H])C([H])([H])C([H])([H])C([H])(n5nc(-c6c([H])c([H])c(Oc7c([H])c([H])c(F)c([H])c7F)c([H])c6[H])c(C(=O)N([H])[H])c5N([H])[H])C4([H])[H])C([H])([H])[H])c(C([H])([H])[H])c3[H])c([H])c([H])c2C1([H])[H]

$$$$
22:0:0
     RDKit          3D

 92100  0  0  1  0  0  0  0  0999 V2000
  -32.2410  -20.3860   18.4100 C   0  0  0  0  0  3  0  0  0  0  0  0
  -30.2470  -21.5140   19.8780 C   0  0  0  0  0  0  0  0  0  0  0  0
  -31.4110  -22.2220   19.4550 C   0  0  0  0  0  0  0  0  0  0  0  0
  -30.3790  -20.0490   19.7430 C   0  0  0  0  0  0  0  0  0  0  0  0
  -32.3590  -21.6650   18.6890 N   0  0  0  0  0  0  0  0  0  0  0  0
  -31.3400  -19.5770   18.9250 N   0  0  0  0  0  0  0  0  0  0  0  0
  -33.2250  -23.8510   20.2330 C   0  0  0  0  0  1  0  0  0  0  0  0
  -31.7490  -23.6630   19.8440 C   0  0  0  0  0  2  0  0  0  0  0  0
  -29.0480  -22.4080   20.4220 C   0  0  0  0  0  2  0  0  0  0  0  0
  -28.7180  -23.8350   19.6790 C   0  0  0  0  0  2  0  0  0  0  0  0
  -28.2220  -25.1350   20.5080 C   0  0  0  0  0  2  0  0  0  0  0  0
  -28.3430  -26.5310   19.9680 O   0  0  0  0  0  0  0  0  0  0  0  0
  -24.6510  -31.8360   23.2890 C   0  0  0  0  0  0  0  0  0  0  0  0
  -27.2330  -27.3960   20.0170 C   0  0  0  0  0  0  0  0  0  0  0  0
  -23.4390  -30.5260   21.5820 C   0  0  0  0  0  3  0  0  0  0  0  0
  -24.8800  -29.0320   20.0830 C   0  0  0  0  0  0  0  0  0  0  0  0
  -25.9810  -30.8370   21.4100 C   0  0  0  0  0  2  0  0  0  0  0  0
  -26.0550  -29.4870   20.6970 C   0  0  0  0  0  0  0  0  0  0  0  0
  -27.2370  -28.6840   20.6470 C   0  0  0  0  0  3  0  0  0  0  0  0
  -26.0370  -26.9960   19.3860 C   0  0  0  0  0  3  0  0  0  0  0  0
  -24.8750  -27.7950   19.4180 C   0  0  0  0  0  3  0  0  0  0  0  0
  -23.6500  -29.9140   20.1720 C   0  0  0  0  0  2  0  0  0  0  0  0
  -24.7100  -31.0820   22.1510 N   0  0  0  0  0  0  0  0  0  0  0  0
  -23.5690  -32.0920   23.8360 O   0  0  0  0  0  0  0  0  0  0  0  0
  -22.7710  -29.4700   22.4950 C   0  0  0  0  0  0  0  0  0  0  0  0
  -21.4530  -29.2660   22.3230 N   0  0  0  0  0  0  0  0  0  0  0  0
  -23.4380  -28.8360   23.3160 O   0  0  0  0  0  0  0  0  0  0  0  0
  -20.9740  -29.8320   21.6370 H   0  0  0  0  0  0  0  0  0  0  0  0
  -18.0960  -27.9590   22.6680 C   0  0  0  0  0  0  0  0  0  0  0  0
  -20.6330  -28.2890   23.0420 C   0  0  0  0  0  3  0  0  0  0  0  0
  -20.8000  -26.8730   22.4400 C   0  0  0  0  0  2  0  0  0  0  0  0
  -19.7480  -26.5410   21.3780 C   0  0  0  0  0  2  0  0  0  0  0  0
  -18.3390  -26.6310   21.9720 C   0  0  0  0  0  2  0  0  0  0  0  0
  -19.1740  -28.7440   23.1570 C   0  0  0  0  0  0  0  0  0  0  0  0
  -18.8950  -29.9860   23.7670 C   0  0  0  0  0  3  0  0  0  0  0  0
  -17.5690  -30.4430   23.8960 C   0  0  0  0  0  3  0  0  0  0  0  0
  -16.5050  -29.6550   23.4230 C   0  0  0  0  0  3  0  0  0  0  0  0
  -16.7700  -28.4150   22.8140 C   0  0  0  0  0  3  0  0  0  0  0  0
  -25.9350  -32.4330   23.9410 C   0  0  0  0  0  3  0  0  0  0  0  0
  -25.6650  -33.8460   24.2450 N   0  0  0  0  0  0  0  0  0  0  0  0
  -26.0590  -34.8780   23.4860 C   0  0  0  0  0  0  0  0  0  0  0  0
  -26.7550  -34.7380   22.4770 O   0  0  0  0  0  0  0  0  0  0  0  0
  -25.0490  -34.0310   25.0240 H   0  0  0  0  0  0  0  0  0  0  0  0
  -24.4380  -36.7490   23.0300 C   0  0  0  0  0  1  0  0  0  0  0  0
  -25.6100  -36.2890   23.9130 C   0  0  0  0  0  3  0  0  0  0  0  0
  -27.7220  -37.0880   24.8780 C   0  0  0  0  0  1  0  0  0  0  0  0
  -26.6940  -37.2940   23.8610 N   0  0  0  0  0  0  0  0  0  0  0  0
  -26.3220  -38.2320   23.9710 H   0  0  0  0  0  0  0  0  0  0  0  0
  -26.3860  -31.6630   25.2440 C   0  0  1  0  0  0  0  0  0  0  0  0
  -25.2520  -31.4760   26.2800 C   0  0  0  0  0  1  0  0  0  0  0  0
  -26.9340  -30.2610   24.8900 C   0  0  0  0  0  1  0  0  0  0  0  0
  -27.5420  -32.4280   25.9300 C   0  0  0  0  0  1  0  0  0  0  0  0
  -29.6270  -18.7940   20.3830 C   0  0  0  0  0  2  0  0  0  0  0  0
  -30.5250  -17.4200   20.5080 C   0  0  0  0  0  2  0  0  0  0  0  0
  -30.7160  -14.8370   20.4000 C   0  0  0  0  0  0  0  0  0  0  0  0
  -30.4910  -12.6080   19.3080 C   0  0  0  0  0  2  0  0  0  0  0  0
  -29.5460  -12.7360   18.0940 C   0  0  0  0  0  2  0  0  0  0  0  0
  -28.0820  -12.5400   18.5310 C   0  0  0  0  0  2  0  0  0  0  0  0
  -27.7170  -13.3730   19.7900 C   0  0  0  0  0  3  0  0  0  0  0  0
  -28.7860  -13.2550   20.8970 C   0  0  0  0  0  2  0  0  0  0  0  0
  -30.0740  -13.6260   20.3000 N   0  0  0  0  0  0  0  0  0  0  0  0
  -31.9040  -14.9240   20.0800 O   0  0  0  0  0  0  0  0  0  0  0  0
  -29.9810  -15.9910   20.6330 N   0  0  0  0  0  0  0  0  0  0  0  0
  -29.0010  -15.8760   20.8430 H   0  0  0  0  0  0  0  0  0  0  0  0
  -25.3190  -13.9080   20.5280 C   0  0  0  0  0  0  0  0  0  0  0  0
  -24.2710  -13.1090   20.8930 C   0  0  0  0  0  0  0  0  0  0  0  0
  -24.7630  -11.7690   20.8520 C   0  0  0  0  0  0  0  0  0  0  0  0
  -26.3800  -13.0530   20.2820 N   0  0  0  0  0  0  0  0  0  0  0  0
  -26.0540  -11.7610   20.5420 N   0  0  0  0  0  0  0  0  0  0  0  0
  -24.0630  -10.4890   21.0330 C   0  0  0  0  0  0  0  0  0  0  0  0
  -24.4860   -9.5460   21.9940 C   0  0  0  0  0  3  0  0  0  0  0  0
  -23.7850   -8.3320   22.1630 C   0  0  0  0  0  3  0  0  0  0  0  0
  -22.6460   -8.0540   21.3700 C   0  0  0  0  0  0  0  0  0  0  0  0
  -22.2440   -8.9870   20.3980 C   0  0  0  0  0  3  0  0  0  0  0  0
  -22.9460  -10.1920   20.2270 C   0  0  0  0  0  3  0  0  0  0  0  0
  -21.9170   -6.8920   21.4460 O   0  0  0  0  0  0  0  0  0  0  0  0
  -21.8140   -6.1830   22.6150 C   0  0  0  0  0  0  0  0  0  0  0  0
  -21.2180   -6.7350   23.7710 C   0  0  0  0  0  3  0  0  0  0  0  0
  -21.0690   -5.9470   24.9300 C   0  0  0  0  0  3  0  0  0  0  0  0
  -21.5060   -4.6080   24.9340 C   0  0  0  0  0  0  0  0  0  0  0  0
  -22.0950   -4.0570   23.7820 C   0  0  0  0  0  3  0  0  0  0  0  0
  -22.2450   -4.8410   22.6250 C   0  0  0  0  0  0  0  0  0  0  0  0
  -22.7940   -4.2970   21.5130 F   0  0  0  0  0  0  0  0  0  0  0  0
  -21.3560   -3.8490   26.0440 F   0  0  0  0  0  0  0  0  0  0  0  0
  -22.8650  -13.5540   21.1700 C   0  0  0  0  0  0  0  0  0  0  0  0
  -22.1530  -12.8360   22.0290 N   0  0  0  0  0  0  0  0  0  0  0  0
  -22.4060  -14.5750   20.6580 O   0  0  0  0  0  0  0  0  0  0  0  0
  -22.5410  -12.0120   22.4630 H   0  0  0  0  0  0  0  0  0  0  0  0
  -21.2080  -13.1110   22.2570 H   0  0  0  0  0  0  0  0  0  0  0  0
  -25.4540  -15.2830   20.3580 N   0  0  0  0  0  0  0  0  0  0  0  0
  -24.6680  -15.9160   20.4660 H   0  0  0  0  0  0  0  0  0  0  0  0
  -26.2840  -15.7410   20.0060 H   0  0  0  0  0  0  0  0  0  0  0  0
  1  5  2  0
  1  6  1  0
  2  9  1  0
  3  8  1  0
  3  2  2  0
  4  2  1  0
  4 53  1  0
  5  3  1  0
  6  4  2  0
  8  7  1  0
 10  9  1  0
 10 11  1  0
 12 14  1  0
 12 11  1  0
 13 24  2  0
 14 19  1  0
 15 23  1  0
 15 25  1  0
 16 22  1  0
 16 18  1  0
 17 23  1  0
 18 17  1  0
 19 18  2  0
 20 21  1  0
 20 14  2  0
 21 16  2  0
 22 15  1  0
 23 13  1  0
 25 27  2  0
 26 25  1  0
 28 26  1  0
 29 38  2  0
 29 34  1  0
 30 26  1  0
 30 34  1  0
 31 30  1  0
 32 33  1  0
 32 31  1  0
 33 29  1  0
 34 35  2  0
 35 36  1  0
 37 36  2  0
 38 37  1  0
 39 13  1  0
 39 40  1  0
 39 49  1  0
 40 43  1  0
 41 45  1  0
 41 40  1  0
 42 41  2  0
 45 44  1  0
 47 45  1  0
 47 48  1  0
 47 46  1  0
 49 52  1  1
 49 50  1  0
 51 49  1  0
 53 54  1  0
 54 63  1  0
 55 63  1  0
 56 61  1  0
 57 58  1  0
 57 56  1  0
 59 58  1  0
 59 68  1  0
 59 60  1  0
 61 55  1  0
 61 60  1  0
 62 55  2  0
 63 64  1  0
 65 66  2  0
 66 85  1  0
 67 66  1  0
 67 70  1  0
 68 65  1  0
 68 69  1  0
 69 67  2  0
 70 71  1  0
 71 72  2  0
 73 76  1  0
 73 72  1  0
 74 73  2  0
 75 74  1  0
 75 70  2  0
 76 77  1  0
 77 82  2  0
 77 78  1  0
 78 79  2  0
 79 80  1  0
 80 84  1  0
 81 80  2  0
 82 81  1  0
 83 82  1  0
 85 86  1  0
 86 89  1  0
 86 88  1  0
 87 85  2  0
 90 91  1  0
 90 65  1  0
 92 90  1  0
M  ISO  4  11 101  12 101  55 100  63 100
M  END
>  <TORSDO>  (21) 
F 22

>  <SCORE>  (21) 
-12.662

>  <name>  (21) 
22

>  <ligand_id>  (21) 
22

>  <original_smiles>  (21) 
[H]c1nc(C([H])([H])C([H])([H])[H])c(C([H])([H])C([H])([H])C([H])([H])Oc2c([H])c([H])c3c(c2[H])C([H])([H])N(C(=O)C([H])(N([H])C(=O)C([H])(N([H])C([H])([H])[H])C([H])([H])[H])C(C([H])([H])[H])(C([H])([H])[H])C([H])([H])[H])C([H])(C(=O)N([H])C2([H])c4c([H])c([H])c([H])c([H])c4C([H])([H])C([H])([H])C2([H])[H])C3([H])[H])c(C([H])([H])C([H])([H])N([H])C(=O)N2C([H])([H])C([H])([H])C([H])([H])C([H])(n3nc(-c4c([H])c([H])c(Oc5c([H])c([H])c(F)c([H])c5F)c([H])c4[H])c(C(=O)N([H])[H])c3N([H])[H])C2([H])[H])n1

>  <smiles>  (21) 
[H]c1nc(C([H])([H])C([H])([H])[H])c(C([H])([H])C([H])([H])C([H])([H])Oc2c([H])c([H])c3c(c2[H])C([H])([H])N(C(=O)C([H])(N([H])C(=O)C([H])(N([H])C([H])([H])[H])C([H])([H])[H])C(C([H])([H])[H])(C([H])([H])[H])C([H])([H])[H])C([H])(C(=O)N([H])C2([H])c4c([H])c([H])c([H])c([H])c4C([H])([H])C([H])([H])C2([H])[H])C3([H])[H])c(C([H])([H])C([H])([H])N([H])C(=O)N2C([H])([H])C([H])([H])C([H])([H])C([H])(n3nc(-c4c([H])c([H])c(Oc5c([H])c([H])c(F)c([H])c5F)c([H])c4[H])c(C(=O)N([H])[H])c3N([H])[H])C2([H])[H])n1

$$$$
23:0:0
     RDKit          3D

 93101  0  0  1  0  0  0  0  0999 V2000
  -28.6420  -19.8580   20.4820 C   0  0  0  0  0  3  0  0  0  0  0  0
  -29.8850  -19.3120   20.0710 C   0  0  0  0  0  0  0  0  0  0  0  0
  -30.6650  -21.4730   19.7040 C   0  0  0  0  0  0  0  0  0  0  0  0
  -29.3960  -22.0120   20.0570 C   0  0  0  0  0  0  0  0  0  0  0  0
  -31.8200  -22.3520   19.2600 C   0  0  0  0  0  1  0  0  0  0  0  0
  -28.3990  -21.1950   20.4830 N   0  0  0  0  0  0  0  0  0  0  0  0
  -30.9080  -20.1330   19.7120 N   0  0  0  0  0  0  0  0  0  0  0  0
  -29.0230  -23.4980   19.8880 C   0  0  0  0  0  2  0  0  0  0  0  0
  -29.3120  -24.4180   21.1000 C   0  0  0  0  0  2  0  0  0  0  0  0
  -28.3250  -25.6030   21.2910 C   0  0  0  0  0  2  0  0  0  0  0  0
  -28.4660  -26.7230   20.3940 O   0  0  0  0  0  0  0  0  0  0  0  0
  -24.5850  -31.9800   23.2700 C   0  0  0  0  0  0  0  0  0  0  0  0
  -27.3240  -27.4970   20.3320 C   0  0  0  0  0  0  0  0  0  0  0  0
  -23.4210  -30.5310   21.6380 C   0  0  0  0  0  3  0  0  0  0  0  0
  -24.9160  -28.9830   20.2660 C   0  0  0  0  0  0  0  0  0  0  0  0
  -25.9460  -30.9140   21.4720 C   0  0  0  0  0  2  0  0  0  0  0  0
  -26.0600  -29.5310   20.8600 C   0  0  0  0  0  0  0  0  0  0  0  0
  -27.2710  -28.7960   20.8890 C   0  0  0  0  0  3  0  0  0  0  0  0
  -26.1680  -26.9690   19.7200 C   0  0  0  0  0  3  0  0  0  0  0  0
  -24.9660  -27.7020   19.6890 C   0  0  0  0  0  3  0  0  0  0  0  0
  -23.6600  -29.8260   20.2760 C   0  0  0  0  0  2  0  0  0  0  0  0
  -24.6680  -31.1580   22.1850 N   0  0  0  0  0  0  0  0  0  0  0  0
  -23.4930  -32.2500   23.7880 O   0  0  0  0  0  0  0  0  0  0  0  0
  -22.7650  -29.5230   22.6090 C   0  0  0  0  0  0  0  0  0  0  0  0
  -21.4450  -29.3250   22.4660 N   0  0  0  0  0  0  0  0  0  0  0  0
  -23.4410  -28.9220   23.4480 O   0  0  0  0  0  0  0  0  0  0  0  0
  -20.9590  -29.8620   21.7610 H   0  0  0  0  0  0  0  0  0  0  0  0
  -18.0690  -28.1280   22.9560 C   0  0  0  0  0  0  0  0  0  0  0  0
  -20.6250  -28.3940   23.2420 C   0  0  0  0  0  3  0  0  0  0  0  0
  -20.7340  -26.9570   22.6830 C   0  0  0  0  0  2  0  0  0  0  0  0
  -19.6390  -26.6210   21.6640 C   0  0  0  0  0  2  0  0  0  0  0  0
  -18.2530  -26.7720   22.2980 C   0  0  0  0  0  2  0  0  0  0  0  0
  -19.1830  -28.8980   23.3850 C   0  0  0  0  0  0  0  0  0  0  0  0
  -18.9590  -30.1680   23.9590 C   0  0  0  0  0  3  0  0  0  0  0  0
  -17.6520  -30.6690   24.1080 C   0  0  0  0  0  3  0  0  0  0  0  0
  -16.5520  -29.8970   23.6960 C   0  0  0  0  0  3  0  0  0  0  0  0
  -16.7610  -28.6290   23.1260 C   0  0  0  0  0  3  0  0  0  0  0  0
  -25.8550  -32.6370   23.8970 C   0  0  0  0  0  3  0  0  0  0  0  0
  -25.5250  -34.0340   24.2020 N   0  0  0  0  0  0  0  0  0  0  0  0
  -25.8610  -35.0800   23.4350 C   0  0  0  0  0  0  0  0  0  0  0  0
  -26.5540  -34.9710   22.4190 O   0  0  0  0  0  0  0  0  0  0  0  0
  -24.9110  -34.1930   24.9880 H   0  0  0  0  0  0  0  0  0  0  0  0
  -24.1350  -36.8580   23.0040 C   0  0  0  0  0  1  0  0  0  0  0  0
  -25.3490  -36.4690   23.8630 C   0  0  0  0  0  3  0  0  0  0  0  0
  -27.4430  -37.3790   24.7650 C   0  0  0  0  0  1  0  0  0  0  0  0
  -26.3780  -37.5280   23.7770 N   0  0  0  0  0  0  0  0  0  0  0  0
  -25.9610  -38.4470   23.8970 H   0  0  0  0  0  0  0  0  0  0  0  0
  -26.3710  -31.8900   25.1880 C   0  0  1  0  0  0  0  0  0  0  0  0
  -25.2650  -31.6280   26.2370 C   0  0  0  0  0  1  0  0  0  0  0  0
  -26.9990  -30.5270   24.8150 C   0  0  0  0  0  1  0  0  0  0  0  0
  -27.4860  -32.7210   25.8650 C   0  0  0  0  0  1  0  0  0  0  0  0
  -30.0730  -17.7890   19.8710 C   0  0  0  0  0  3  0  0  0  0  0  0
  -29.0200  -18.0120   17.5090 C   0  0  0  0  0  1  0  0  0  0  0  0
  -29.0660  -17.2290   18.8320 C   0  0  0  0  0  2  0  0  0  0  0  0
  -30.1260  -16.9870   21.2110 C   0  0  0  0  0  2  0  0  0  0  0  0
  -30.6810  -14.5700   20.5760 C   0  0  0  0  0  0  0  0  0  0  0  0
  -30.4620  -12.4280   19.3650 C   0  0  0  0  0  2  0  0  0  0  0  0
  -29.5320  -12.6400   18.1510 C   0  0  0  0  0  2  0  0  0  0  0  0
  -28.0510  -12.4750   18.5500 C   0  0  0  0  0  2  0  0  0  0  0  0
  -27.6820  -13.2880   19.8190 C   0  0  0  0  0  3  0  0  0  0  0  0
  -28.7160  -13.0350   20.9400 C   0  0  0  0  0  2  0  0  0  0  0  0
  -30.0510  -13.3740   20.4110 N   0  0  0  0  0  0  0  0  0  0  0  0
  -31.8080  -14.8110   20.1330 O   0  0  0  0  0  0  0  0  0  0  0  0
  -29.9030  -15.5300   21.1050 N   0  0  0  0  0  0  0  0  0  0  0  0
  -29.0020  -15.2050   21.4230 H   0  0  0  0  0  0  0  0  0  0  0  0
  -25.2570  -13.8790   20.4570 C   0  0  0  0  0  0  0  0  0  0  0  0
  -24.1880  -13.1000   20.8100 C   0  0  0  0  0  0  0  0  0  0  0  0
  -24.6660  -11.7540   20.8090 C   0  0  0  0  0  0  0  0  0  0  0  0
  -26.3180  -13.0070   20.2670 N   0  0  0  0  0  0  0  0  0  0  0  0
  -25.9630  -11.7250   20.5340 N   0  0  0  0  0  0  0  0  0  0  0  0
  -23.9510  -10.4860   20.9980 C   0  0  0  0  0  0  0  0  0  0  0  0
  -24.3600   -9.5470   21.9690 C   0  0  0  0  0  3  0  0  0  0  0  0
  -23.6490   -8.3400   22.1430 C   0  0  0  0  0  3  0  0  0  0  0  0
  -22.5140   -8.0650   21.3430 C   0  0  0  0  0  0  0  0  0  0  0  0
  -22.1250   -8.9930   20.3620 C   0  0  0  0  0  3  0  0  0  0  0  0
  -22.8380  -10.1910   20.1870 C   0  0  0  0  0  3  0  0  0  0  0  0
  -21.7750   -6.9090   21.4260 O   0  0  0  0  0  0  0  0  0  0  0  0
  -21.6710   -6.2040   22.5970 C   0  0  0  0  0  0  0  0  0  0  0  0
  -21.1280   -6.7770   23.7680 C   0  0  0  0  0  3  0  0  0  0  0  0
  -20.9730   -5.9940   24.9290 C   0  0  0  0  0  3  0  0  0  0  0  0
  -21.3510   -4.6380   24.9210 C   0  0  0  0  0  0  0  0  0  0  0  0
  -21.8850   -4.0630   23.7540 C   0  0  0  0  0  3  0  0  0  0  0  0
  -22.0410   -4.8430   22.5950 C   0  0  0  0  0  0  0  0  0  0  0  0
  -22.5370   -4.2780   21.4680 F   0  0  0  0  0  0  0  0  0  0  0  0
  -21.1960   -3.8840   26.0330 F   0  0  0  0  0  0  0  0  0  0  0  0
  -22.7770  -13.5630   21.0400 C   0  0  0  0  0  0  0  0  0  0  0  0
  -22.0320  -12.8640   21.8900 N   0  0  0  0  0  0  0  0  0  0  0  0
  -22.3430  -14.5810   20.5040 O   0  0  0  0  0  0  0  0  0  0  0  0
  -22.3950  -12.0460   22.3550 H   0  0  0  0  0  0  0  0  0  0  0  0
  -21.0830  -13.1570   22.0810 H   0  0  0  0  0  0  0  0  0  0  0  0
  -25.4150  -15.2500   20.2630 N   0  0  0  0  0  0  0  0  0  0  0  0
  -24.6420  -15.9020   20.3350 H   0  0  0  0  0  0  0  0  0  0  0  0
  -26.2680  -15.6840   19.9370 H   0  0  0  0  0  0  0  0  0  0  0  0
  1  6  1  0
  2  1  2  0
  3  7  2  0
  3  4  1  0
  4  6  2  0
  5  3  1  0
  7  2  1  0
  8  4  1  0
  8  9  1  0
  9 10  1  0
 11 10  1  0
 12 23  2  0
 13 11  1  0
 13 18  1  0
 14 22  1  0
 14 24  1  0
 15 21  1  0
 15 17  1  0
 16 22  1  0
 17 18  2  0
 17 16  1  0
 19 13  2  0
 20 19  1  0
 20 15  2  0
 21 14  1  0
 22 12  1  0
 24 26  2  0
 25 24  1  0
 27 25  1  0
 28 37  2  0
 28 33  1  0
 29 25  1  0
 29 33  1  0
 30 29  1  0
 31 32  1  0
 31 30  1  0
 32 28  1  0
 33 34  2  0
 34 35  1  0
 36 35  2  0
 37 36  1  0
 38 12  1  0
 38 39  1  0
 38 48  1  0
 39 42  1  0
 40 44  1  0
 40 39  1  0
 41 40  2  0
 44 43  1  0
 46 44  1  0
 46 47  1  0
 46 45  1  0
 48 51  1  1
 48 49  1  0
 50 48  1  0
 52 54  1  0
 52  2  1  0
 52 55  1  0
 53 54  1  0
 56 64  1  0
 57 62  1  0
 58 59  1  0
 58 57  1  0
 60 59  1  0
 60 69  1  0
 60 61  1  0
 62 56  1  0
 62 61  1  0
 63 56  2  0
 64 55  1  0
 64 65  1  0
 66 67  2  0
 67 86  1  0
 68 67  1  0
 68 71  1  0
 69 66  1  0
 69 70  1  0
 70 68  2  0
 71 72  1  0
 72 73  2  0
 74 77  1  0
 74 73  1  0
 75 74  2  0
 76 75  1  0
 76 71  2  0
 77 78  1  0
 78 79  1  0
 79 80  2  0
 81 80  1  0
 81 85  1  0
 82 81  2  0
 83 78  2  0
 83 82  1  0
 84 83  1  0
 86 87  1  0
 87 90  1  0
 87 89  1  0
 88 86  2  0
 91 92  1  0
 91 66  1  0
 93 91  1  0
M  ISO  4  10 101  11 101  56 100  64 100
M  END
>  <TORSDO>  (22) 
F 22

>  <SCORE>  (22) 
-13.269

>  <name>  (22) 
23

>  <ligand_id>  (22) 
23

>  <original_smiles>  (22) 
[H]c1nc(C([H])([H])C([H])([H])C([H])([H])Oc2c([H])c([H])c3c(c2[H])C([H])([H])N(C(=O)C([H])(N([H])C(=O)C([H])(N([H])C([H])([H])[H])C([H])([H])[H])C(C([H])([H])[H])(C([H])([H])[H])C([H])([H])[H])C([H])(C(=O)N([H])C2([H])c4c([H])c([H])c([H])c([H])c4C([H])([H])C([H])([H])C2([H])[H])C3([H])[H])c(C([H])([H])[H])nc1C([H])(C([H])([H])N([H])C(=O)N1C([H])([H])C([H])([H])C([H])([H])C([H])(n2nc(-c3c([H])c([H])c(Oc4c([H])c([H])c(F)c([H])c4F)c([H])c3[H])c(C(=O)N([H])[H])c2N([H])[H])C1([H])[H])C([H])([H])C([H])([H])[H]

>  <smiles>  (22) 
[H]c1nc(C([H])([H])C([H])([H])C([H])([H])Oc2c([H])c([H])c3c(c2[H])C([H])([H])N(C(=O)C([H])(N([H])C(=O)C([H])(N([H])C([H])([H])[H])C([H])([H])[H])C(C([H])([H])[H])(C([H])([H])[H])C([H])([H])[H])C([H])(C(=O)N([H])C2([H])c4c([H])c([H])c([H])c([H])c4C([H])([H])C([H])([H])C2([H])[H])C3([H])[H])c(C([H])([H])[H])nc1C([H])(C([H])([H])N([H])C(=O)N1C([H])([H])C([H])([H])C([H])([H])C([H])(n2nc(-c3c([H])c([H])c(Oc4c([H])c([H])c(F)c([H])c4F)c([H])c3[H])c(C(=O)N([H])[H])c2N([H])[H])C1([H])[H])C([H])([H])C([H])([H])[H]

$$$$
24:0:0
     RDKit          3D

 94102  0  0  1  0  0  0  0  0999 V2000
  -27.0450  -20.1200   18.8570 C   0  0  0  0  0  3  0  0  0  0  0  0
  -27.9090  -19.0310   19.0000 C   0  0  0  0  0  3  0  0  0  0  0  0
  -27.3740  -21.3720   19.4190 C   0  0  0  0  0  0  0  0  0  0  0  0
  -29.1020  -19.1890   19.7170 C   0  0  0  0  0  0  0  0  0  0  0  0
  -28.5950  -21.5040   20.1450 C   0  0  0  0  0  0  0  0  0  0  0  0
  -26.3570  -22.4800   19.2030 C   0  0  0  0  0  1  0  0  0  0  0  0
  -29.4070  -20.3960   20.2890 N   0  0  0  0  0  0  0  0  0  0  0  0
  -29.0820  -22.4270   22.4100 C   0  0  0  0  0  1  0  0  0  0  0  0
  -30.5680  -23.0730   20.5080 C   0  0  0  0  0  1  0  0  0  0  0  0
  -29.1000  -22.8010   20.9080 C   0  0  1  0  0  0  0  0  0  0  0  0
  -28.3070  -24.2000   20.8530 C   0  0  0  0  0  2  0  0  0  0  0  0
  -28.5770  -25.3000   19.7610 C   0  0  0  0  0  2  0  0  0  0  0  0
  -28.4510  -26.6750   20.2270 O   0  0  0  0  0  0  0  0  0  0  0  0
  -24.5860  -31.8810   23.2350 C   0  0  0  0  0  0  0  0  0  0  0  0
  -27.2590  -27.3880   20.1900 C   0  0  0  0  0  0  0  0  0  0  0  0
  -23.3980  -30.4740   21.5860 C   0  0  0  0  0  3  0  0  0  0  0  0
  -24.8650  -28.9260   20.1750 C   0  0  0  0  0  0  0  0  0  0  0  0
  -25.9310  -30.8190   21.4190 C   0  0  0  0  0  2  0  0  0  0  0  0
  -26.0190  -29.4450   20.7740 C   0  0  0  0  0  0  0  0  0  0  0  0
  -27.2170  -28.6840   20.7720 C   0  0  0  0  0  3  0  0  0  0  0  0
  -26.0790  -26.8920   19.5920 C   0  0  0  0  0  3  0  0  0  0  0  0
  -24.8930  -27.6550   19.5770 C   0  0  0  0  0  3  0  0  0  0  0  0
  -23.6230  -29.7890   20.2090 C   0  0  0  0  0  2  0  0  0  0  0  0
  -24.6550  -31.0760   22.1360 N   0  0  0  0  0  0  0  0  0  0  0  0
  -23.4990  -32.1550   23.7630 O   0  0  0  0  0  0  0  0  0  0  0  0
  -22.7400  -29.4550   22.5460 C   0  0  0  0  0  0  0  0  0  0  0  0
  -21.4140  -29.2830   22.4180 N   0  0  0  0  0  0  0  0  0  0  0  0
  -23.4180  -28.8220   23.3590 O   0  0  0  0  0  0  0  0  0  0  0  0
  -20.9290  -29.8490   21.7370 H   0  0  0  0  0  0  0  0  0  0  0  0
  -18.0270  -28.1200   22.9330 C   0  0  0  0  0  0  0  0  0  0  0  0
  -20.5900  -28.3470   23.1850 C   0  0  0  0  0  3  0  0  0  0  0  0
  -20.6690  -26.9200   22.5940 C   0  0  0  0  0  2  0  0  0  0  0  0
  -19.5560  -26.6210   21.5840 C   0  0  0  0  0  2  0  0  0  0  0  0
  -18.1810  -26.7760   22.2420 C   0  0  0  0  0  2  0  0  0  0  0  0
  -19.1580  -28.8650   23.3630 C   0  0  0  0  0  0  0  0  0  0  0  0
  -18.9600  -30.1240   23.9700 C   0  0  0  0  0  3  0  0  0  0  0  0
  -17.6630  -30.6410   24.1480 C   0  0  0  0  0  3  0  0  0  0  0  0
  -16.5460  -29.8940   23.7340 C   0  0  0  0  0  3  0  0  0  0  0  0
  -16.7300  -28.6350   23.1370 C   0  0  0  0  0  3  0  0  0  0  0  0
  -25.8650  -32.5160   23.8670 C   0  0  0  0  0  3  0  0  0  0  0  0
  -25.5510  -33.9160   24.1880 N   0  0  0  0  0  0  0  0  0  0  0  0
  -25.8900  -34.9650   23.4280 C   0  0  0  0  0  0  0  0  0  0  0  0
  -26.5710  -34.8570   22.4040 O   0  0  0  0  0  0  0  0  0  0  0  0
  -24.9410  -34.0700   24.9780 H   0  0  0  0  0  0  0  0  0  0  0  0
  -24.1680  -36.7560   23.0460 C   0  0  0  0  0  1  0  0  0  0  0  0
  -25.4000  -36.3560   23.8730 C   0  0  0  0  0  3  0  0  0  0  0  0
  -27.5270  -37.2410   24.7270 C   0  0  0  0  0  1  0  0  0  0  0  0
  -26.4370  -37.4070   23.7660 N   0  0  0  0  0  0  0  0  0  0  0  0
  -26.0340  -38.3300   23.9000 H   0  0  0  0  0  0  0  0  0  0  0  0
  -26.3720  -31.7520   25.1510 C   0  0  1  0  0  0  0  0  0  0  0  0
  -25.2690  -31.5160   26.2100 C   0  0  0  0  0  1  0  0  0  0  0  0
  -26.9630  -30.3750   24.7720 C   0  0  0  0  0  1  0  0  0  0  0  0
  -27.5180  -32.5520   25.8170 C   0  0  0  0  0  1  0  0  0  0  0  0
  -31.5170  -18.4480   19.3850 C   0  0  0  0  0  1  0  0  0  0  0  0
  -30.0980  -17.9840   19.7570 C   0  0  0  0  0  3  0  0  0  0  0  0
  -30.1000  -17.0610   21.0330 C   0  0  0  0  0  2  0  0  0  0  0  0
  -30.6020  -14.5740   20.4340 C   0  0  0  0  0  0  0  0  0  0  0  0
  -30.3610  -12.3820   19.2960 C   0  0  0  0  0  2  0  0  0  0  0  0
  -29.4130  -12.5520   18.0900 C   0  0  0  0  0  2  0  0  0  0  0  0
  -27.9380  -12.4030   18.5180 C   0  0  0  0  0  2  0  0  0  0  0  0
  -27.5930  -13.2470   19.7740 C   0  0  0  0  0  3  0  0  0  0  0  0
  -28.6490  -13.0460   20.8850 C   0  0  0  0  0  2  0  0  0  0  0  0
  -29.9640  -13.3740   20.3110 N   0  0  0  0  0  0  0  0  0  0  0  0
  -31.7650  -14.7490   20.0600 O   0  0  0  0  0  0  0  0  0  0  0  0
  -29.8120  -15.6080   20.8250 N   0  0  0  0  0  0  0  0  0  0  0  0
  -28.8660  -15.3340   21.0360 H   0  0  0  0  0  0  0  0  0  0  0  0
  -25.1960  -13.8590   20.4730 C   0  0  0  0  0  0  0  0  0  0  0  0
  -24.1240  -13.0890   20.8380 C   0  0  0  0  0  0  0  0  0  0  0  0
  -24.5850  -11.7370   20.8180 C   0  0  0  0  0  0  0  0  0  0  0  0
  -26.2400  -12.9750   20.2510 N   0  0  0  0  0  0  0  0  0  0  0  0
  -25.8770  -11.6950   20.5180 N   0  0  0  0  0  0  0  0  0  0  0  0
  -23.8560  -10.4760   21.0100 C   0  0  0  0  0  0  0  0  0  0  0  0
  -24.2760   -9.5190   21.9590 C   0  0  0  0  0  3  0  0  0  0  0  0
  -23.5490   -8.3220   22.1380 C   0  0  0  0  0  3  0  0  0  0  0  0
  -22.3880   -8.0750   21.3670 C   0  0  0  0  0  0  0  0  0  0  0  0
  -21.9870   -9.0210   20.4070 C   0  0  0  0  0  3  0  0  0  0  0  0
  -22.7150  -10.2090   20.2270 C   0  0  0  0  0  3  0  0  0  0  0  0
  -21.6350   -6.9290   21.4540 O   0  0  0  0  0  0  0  0  0  0  0  0
  -21.5630   -6.2000   22.6130 C   0  0  0  0  0  0  0  0  0  0  0  0
  -21.0990   -6.7660   23.8220 C   0  0  0  0  0  3  0  0  0  0  0  0
  -20.9750   -5.9630   24.9730 C   0  0  0  0  0  3  0  0  0  0  0  0
  -21.3080   -4.5960   24.9180 C   0  0  0  0  0  0  0  0  0  0  0  0
  -21.7660   -4.0300   23.7150 C   0  0  0  0  0  3  0  0  0  0  0  0
  -21.8900   -4.8300   22.5660 C   0  0  0  0  0  0  0  0  0  0  0  0
  -22.3120   -4.2750   21.4040 F   0  0  0  0  0  0  0  0  0  0  0  0
  -21.1820   -3.8230   26.0220 F   0  0  0  0  0  0  0  0  0  0  0  0
  -22.7270  -13.5700   21.0980 C   0  0  0  0  0  0  0  0  0  0  0  0
  -21.9910  -12.8750   21.9600 N   0  0  0  0  0  0  0  0  0  0  0  0
  -22.2950  -14.5950   20.5730 O   0  0  0  0  0  0  0  0  0  0  0  0
  -22.3540  -12.0450   22.4040 H   0  0  0  0  0  0  0  0  0  0  0  0
  -21.0540  -13.1800   22.1800 H   0  0  0  0  0  0  0  0  0  0  0  0
  -25.3630  -15.2280   20.2920 N   0  0  0  0  0  0  0  0  0  0  0  0
  -24.5940  -15.8810   20.3950 H   0  0  0  0  0  0  0  0  0  0  0  0
  -26.2080  -15.6660   19.9470 H   0  0  0  0  0  0  0  0  0  0  0  0
  1  2  2  0
  1  3  1  0
  2  4  1  0
  3  5  2  0
  4 55  1  0
  4  7  2  0
  5  7  1  0
  5 10  1  0
  6  3  1  0
 10  9  1  6
 10  8  1  0
 11 10  1  0
 12 13  1  0
 12 11  1  0
 14 25  2  0
 15 13  1  0
 15 20  1  0
 16 24  1  0
 16 26  1  0
 17 23  1  0
 17 19  1  0
 18 24  1  0
 19 18  1  0
 20 19  2  0
 21 15  2  0
 22 21  1  0
 22 17  2  0
 23 16  1  0
 24 14  1  0
 26 28  2  0
 27 26  1  0
 29 27  1  0
 30 39  2  0
 30 35  1  0
 31 27  1  0
 31 35  1  0
 32 31  1  0
 33 34  1  0
 33 32  1  0
 34 30  1  0
 35 36  2  0
 36 37  1  0
 38 37  2  0
 39 38  1  0
 40 14  1  0
 40 41  1  0
 40 50  1  0
 41 44  1  0
 42 46  1  0
 42 41  1  0
 43 42  2  0
 46 45  1  0
 48 46  1  0
 48 49  1  0
 48 47  1  0
 50 53  1  1
 50 51  1  0
 52 50  1  0
 55 54  1  0
 55 56  1  0
 57 65  1  0
 58 63  1  0
 59 60  1  0
 59 58  1  0
 61 60  1  0
 61 70  1  0
 61 62  1  0
 63 57  1  0
 63 62  1  0
 64 57  2  0
 65 56  1  0
 65 66  1  0
 67 68  2  0
 68 87  1  0
 69 68  1  0
 69 72  1  0
 70 67  1  0
 70 71  1  0
 71 69  2  0
 72 73  1  0
 73 74  2  0
 75 78  1  0
 75 74  1  0
 76 75  2  0
 77 76  1  0
 77 72  2  0
 78 79  1  0
 79 80  1  0
 80 81  2  0
 82 81  1  0
 82 86  1  0
 83 82  2  0
 84 79  2  0
 84 83  1  0
 85 84  1  0
 87 88  1  0
 88 91  1  0
 88 90  1  0
 89 87  2  0
 92 93  1  0
 92 67  1  0
 94 92  1  0
M  ISO  4  12 101  13 101  57 100  65 100
M  END
>  <TORSDO>  (23) 
F 21

>  <SCORE>  (23) 
-13.739

>  <name>  (23) 
24

>  <ligand_id>  (23) 
24

>  <original_smiles>  (23) 
[H]c1c(C([H])(C([H])([H])[H])C([H])([H])N([H])C(=O)N2C([H])([H])C([H])([H])C([H])([H])C([H])(n3nc(-c4c([H])c([H])c(Oc5c([H])c([H])c(F)c([H])c5F)c([H])c4[H])c(C(=O)N([H])[H])c3N([H])[H])C2([H])[H])nc(C(C([H])([H])[H])(C([H])([H])[H])C([H])([H])C([H])([H])Oc2c([H])c([H])c3c(c2[H])C([H])([H])N(C(=O)C([H])(N([H])C(=O)C([H])(N([H])C([H])([H])[H])C([H])([H])[H])C(C([H])([H])[H])(C([H])([H])[H])C([H])([H])[H])C([H])(C(=O)N([H])C2([H])c4c([H])c([H])c([H])c([H])c4C([H])([H])C([H])([H])C2([H])[H])C3([H])[H])c(C([H])([H])[H])c1[H]

>  <smiles>  (23) 
[H]c1c(C([H])(C([H])([H])[H])C([H])([H])N([H])C(=O)N2C([H])([H])C([H])([H])C([H])([H])C([H])(n3nc(-c4c([H])c([H])c(Oc5c([H])c([H])c(F)c([H])c5F)c([H])c4[H])c(C(=O)N([H])[H])c3N([H])[H])C2([H])[H])nc(C(C([H])([H])[H])(C([H])([H])[H])C([H])([H])C([H])([H])Oc2c([H])c([H])c3c(c2[H])C([H])([H])N(C(=O)C([H])(N([H])C(=O)C([H])(N([H])C([H])([H])[H])C([H])([H])[H])C(C([H])([H])[H])(C([H])([H])[H])C([H])([H])[H])C([H])(C(=O)N([H])C2([H])c4c([H])c([H])c([H])c([H])c4C([H])([H])C([H])([H])C2([H])[H])C3([H])[H])c(C([H])([H])[H])c1[H]

$$$$
25:0:0
     RDKit          3D

 98107  0  0  1  0  0  0  0  0999 V2000
  -27.5700  -20.0370   19.4300 C   0  0  0  0  0  0  0  0  0  0  0  0
  -28.9230  -20.1880   19.8260 C   0  0  0  0  0  0  0  0  0  0  0  0
  -27.1250  -22.2150   20.0620 C   0  0  0  0  0  0  0  0  0  0  0  0
  -28.4930  -22.3920   20.4110 C   0  0  0  0  0  0  0  0  0  0  0  0
  -27.0400  -18.7600   18.8110 C   0  0  0  0  0  1  0  0  0  0  0  0
  -26.6740  -21.0400   19.5610 N   0  0  0  0  0  0  0  0  0  0  0  0
  -29.3850  -21.3750   20.2940 N   0  0  0  0  0  0  0  0  0  0  0  0
  -25.5400  -23.8480   18.9060 C   0  0  0  0  0  1  0  0  0  0  0  0
  -26.0530  -23.2830   20.2410 C   0  0  0  0  0  2  0  0  0  0  0  0
  -29.9230  -19.0350   19.7720 C   0  0  0  0  0  2  0  0  0  0  0  0
  -31.6690  -18.6470   22.7060 C   0  0  0  0  0  2  0  0  0  0  0  0
  -30.2130  -18.9230   22.3470 C   0  0  0  0  0  2  0  0  0  0  0  0
  -31.8880  -17.2070   22.2600 C   0  0  0  0  0  2  0  0  0  0  0  0
  -29.9480  -18.1440   21.0450 C   0  0  0  0  0  3  0  0  0  0  0  0
  -31.0540  -17.0560   20.9780 C   0  0  0  0  0  3  0  0  0  0  0  0
  -31.0920  -14.6860   20.2160 C   0  0  0  0  0  0  0  0  0  0  0  0
  -30.7450  -12.4550   19.2300 C   0  0  0  0  0  2  0  0  0  0  0  0
  -29.8050  -12.5610   18.0140 C   0  0  0  0  0  2  0  0  0  0  0  0
  -28.3310  -12.4750   18.4550 C   0  0  0  0  0  2  0  0  0  0  0  0
  -28.0020  -13.4300   19.6350 C   0  0  0  0  0  3  0  0  0  0  0  0
  -29.0530  -13.2970   20.7590 C   0  0  0  0  0  2  0  0  0  0  0  0
  -30.3860  -13.5270   20.1710 N   0  0  0  0  0  0  0  0  0  0  0  0
  -32.1720  -14.8380   19.6400 O   0  0  0  0  0  0  0  0  0  0  0  0
  -30.5060  -15.7000   20.8710 N   0  0  0  0  0  0  0  0  0  0  0  0
  -29.6180  -15.5110   21.3090 H   0  0  0  0  0  0  0  0  0  0  0  0
  -25.6660  -14.1380   20.4550 C   0  0  0  0  0  0  0  0  0  0  0  0
  -24.5600  -13.4150   20.8060 C   0  0  0  0  0  0  0  0  0  0  0  0
  -24.9290  -12.0430   20.6670 C   0  0  0  0  0  0  0  0  0  0  0  0
  -26.6460  -13.2110   20.1330 N   0  0  0  0  0  0  0  0  0  0  0  0
  -26.2050  -11.9400   20.3150 N   0  0  0  0  0  0  0  0  0  0  0  0
  -24.1260  -10.8210   20.7940 C   0  0  0  0  0  0  0  0  0  0  0  0
  -24.4500   -9.8190   21.7340 C   0  0  0  0  0  3  0  0  0  0  0  0
  -23.6500   -8.6610   21.8490 C   0  0  0  0  0  3  0  0  0  0  0  0
  -22.5140   -8.4990   21.0230 C   0  0  0  0  0  0  0  0  0  0  0  0
  -22.2080   -9.4900   20.0730 C   0  0  0  0  0  3  0  0  0  0  0  0
  -23.0080  -10.6390   19.9560 C   0  0  0  0  0  3  0  0  0  0  0  0
  -21.6940   -7.3970   21.0470 O   0  0  0  0  0  0  0  0  0  0  0  0
  -21.4690   -6.6920   22.2030 C   0  0  0  0  0  0  0  0  0  0  0  0
  -20.8530   -7.2840   23.3280 C   0  0  0  0  0  3  0  0  0  0  0  0
  -20.5780   -6.5060   24.4690 C   0  0  0  0  0  3  0  0  0  0  0  0
  -20.9070   -5.1370   24.4860 C   0  0  0  0  0  0  0  0  0  0  0  0
  -21.5160   -4.5460   23.3650 C   0  0  0  0  0  3  0  0  0  0  0  0
  -21.7930   -5.3210   22.2250 C   0  0  0  0  0  0  0  0  0  0  0  0
  -22.3600   -4.7420   21.1400 F   0  0  0  0  0  0  0  0  0  0  0  0
  -20.6360   -4.3870   25.5790 F   0  0  0  0  0  0  0  0  0  0  0  0
  -23.2070  -13.9640   21.1560 C   0  0  0  0  0  0  0  0  0  0  0  0
  -22.4610  -13.2620   22.0020 N   0  0  0  0  0  0  0  0  0  0  0  0
  -22.8230  -15.0480   20.7170 O   0  0  0  0  0  0  0  0  0  0  0  0
  -22.7850  -12.3840   22.3790 H   0  0  0  0  0  0  0  0  0  0  0  0
  -21.5530  -13.6100   22.2780 H   0  0  0  0  0  0  0  0  0  0  0  0
  -25.9140  -15.5010   20.3660 N   0  0  0  0  0  0  0  0  0  0  0  0
  -25.1920  -16.1920   20.5360 H   0  0  0  0  0  0  0  0  0  0  0  0
  -26.7760  -15.8970   20.0190 H   0  0  0  0  0  0  0  0  0  0  0  0
  -29.0650  -23.7100   20.9240 C   0  0  0  0  0  2  0  0  0  0  0  0
  -28.7920  -24.9050   19.9840 C   0  0  0  0  0  2  0  0  0  0  0  0
  -28.6690  -26.5780   21.9580 C   0  0  0  0  0  1  0  0  0  0  0  0
  -29.2060  -26.2850   20.5400 C   0  0  0  0  0  3  0  0  0  0  0  0
  -28.9110  -27.3300   19.5960 O   0  0  0  0  0  0  0  0  0  0  0  0
  -24.5350  -31.7170   23.0760 C   0  0  0  0  0  0  0  0  0  0  0  0
  -27.6610  -27.9060   19.6520 C   0  0  0  0  0  0  0  0  0  0  0  0
  -23.4950  -30.3560   21.2890 C   0  0  0  0  0  3  0  0  0  0  0  0
  -25.1140  -29.1190   19.7540 C   0  0  0  0  0  0  0  0  0  0  0  0
  -25.9640  -31.0030   21.1660 C   0  0  0  0  0  2  0  0  0  0  0  0
  -26.2000  -29.7150   20.4080 C   0  0  0  0  0  0  0  0  0  0  0  0
  -27.4760  -29.1180   20.3530 C   0  0  0  0  0  3  0  0  0  0  0  0
  -26.5660  -27.3240   18.9800 C   0  0  0  0  0  3  0  0  0  0  0  0
  -25.2910  -27.9210   19.0370 C   0  0  0  0  0  3  0  0  0  0  0  0
  -23.7830  -29.8300   19.8570 C   0  0  0  0  0  2  0  0  0  0  0  0
  -24.6800  -31.0360   21.9040 N   0  0  0  0  0  0  0  0  0  0  0  0
  -23.4280  -31.8240   23.6220 O   0  0  0  0  0  0  0  0  0  0  0  0
  -22.9490  -29.1870   22.1400 C   0  0  0  0  0  0  0  0  0  0  0  0
  -21.6400  -28.9150   22.0110 N   0  0  0  0  0  0  0  0  0  0  0  0
  -23.6980  -28.5330   22.8720 O   0  0  0  0  0  0  0  0  0  0  0  0
  -21.0940  -29.5040   21.3980 H   0  0  0  0  0  0  0  0  0  0  0  0
  -18.3900  -27.3800   22.3720 C   0  0  0  0  0  0  0  0  0  0  0  0
  -20.9160  -27.8360   22.6810 C   0  0  0  0  0  3  0  0  0  0  0  0
  -21.1430  -26.4840   21.9650 C   0  0  0  0  0  2  0  0  0  0  0  0
  -20.0700  -26.1660   20.9190 C   0  0  0  0  0  2  0  0  0  0  0  0
  -18.6830  -26.1240   21.5690 C   0  0  0  0  0  2  0  0  0  0  0  0
  -19.4390  -28.1930   22.8810 C   0  0  0  0  0  0  0  0  0  0  0  0
  -19.1130  -29.3690   23.5900 C   0  0  0  0  0  3  0  0  0  0  0  0
  -17.7690  -29.7350   23.7970 C   0  0  0  0  0  3  0  0  0  0  0  0
  -16.7350  -28.9190   23.3070 C   0  0  0  0  0  3  0  0  0  0  0  0
  -17.0460  -27.7430   22.6000 C   0  0  0  0  0  3  0  0  0  0  0  0
  -25.7460  -32.4150   23.7730 C   0  0  0  0  0  3  0  0  0  0  0  0
  -25.3380  -33.7890   24.0950 N   0  0  0  0  0  0  0  0  0  0  0  0
  -25.6720  -34.8680   23.3730 C   0  0  0  0  0  0  0  0  0  0  0  0
  -26.4240  -34.8150   22.3970 O   0  0  0  0  0  0  0  0  0  0  0  0
  -24.6760  -33.9000   24.8470 H   0  0  0  0  0  0  0  0  0  0  0  0
  -23.8870  -36.5730   22.8970 C   0  0  0  0  0  1  0  0  0  0  0  0
  -25.0760  -36.2200   23.8060 C   0  0  0  0  0  3  0  0  0  0  0  0
  -27.0720  -37.2100   24.8370 C   0  0  0  0  0  1  0  0  0  0  0  0
  -26.0570  -37.3270   23.7930 N   0  0  0  0  0  0  0  0  0  0  0  0
  -25.5900  -38.2230   23.9030 H   0  0  0  0  0  0  0  0  0  0  0  0
  -26.2390  -31.6600   25.0680 C   0  0  1  0  0  0  0  0  0  0  0  0
  -25.1100  -31.3700   26.0850 C   0  0  0  0  0  1  0  0  0  0  0  0
  -26.8970  -30.3110   24.6940 C   0  0  0  0  0  1  0  0  0  0  0  0
  -27.3230  -32.4990   25.7840 C   0  0  0  0  0  1  0  0  0  0  0  0
  1  6  2  0
  1  2  1  0
  2  7  2  0
  3  9  1  0
  3  4  2  0
  4 54  1  0
  5  1  1  0
  6  3  1  0
  7  4  1  0
  8  9  1  0
 10  2  1  0
 12 11  1  0
 13 11  1  0
 14 10  1  0
 14 12  1  0
 15 24  1  0
 15 14  1  0
 15 13  1  0
 16 24  1  0
 17 22  1  0
 18 19  1  0
 18 17  1  0
 20 19  1  0
 20 29  1  0
 20 21  1  0
 22 16  1  0
 22 21  1  0
 23 16  2  0
 24 25  1  0
 26 27  2  0
 27 46  1  0
 28 31  1  0
 28 27  1  0
 29 30  1  0
 29 26  1  0
 30 28  2  0
 31 32  1  0
 32 33  2  0
 34 37  1  0
 34 33  1  0
 35 34  2  0
 36 35  1  0
 36 31  2  0
 37 38  1  0
 38 43  2  0
 38 39  1  0
 39 40  2  0
 40 41  1  0
 41 45  1  0
 42 41  2  0
 43 42  1  0
 44 43  1  0
 46 47  1  0
 47 50  1  0
 47 49  1  0
 48 46  2  0
 51 26  1  0
 51 52  1  0
 53 51  1  0
 55 57  1  0
 55 54  1  0
 57 56  1  0
 58 60  1  0
 58 57  1  0
 59 70  2  0
 60 65  1  0
 61 69  1  0
 61 71  1  0
 62 68  1  0
 62 64  1  0
 63 69  1  0
 64 63  1  0
 65 64  2  0
 66 67  1  0
 66 60  2  0
 67 62  2  0
 68 61  1  0
 69 59  1  0
 71 73  2  0
 72 71  1  0
 74 72  1  0
 75 84  2  0
 75 80  1  0
 76 72  1  0
 76 80  1  0
 77 76  1  0
 78 79  1  0
 78 77  1  0
 79 75  1  0
 80 81  2  0
 81 82  1  0
 83 82  2  0
 84 83  1  0
 85 59  1  0
 85 86  1  0
 85 95  1  0
 86 89  1  0
 87 91  1  0
 87 86  1  0
 88 87  2  0
 91 90  1  0
 93 91  1  0
 93 94  1  0
 93 92  1  0
 95 98  1  1
 95 96  1  0
 97 95  1  0
M  ISO  4  16 100  24 100  57 101  58 101
M  END
>  <TORSDO>  (24) 
F 22

>  <SCORE>  (24) 
-9.601

>  <name>  (24) 
25

>  <ligand_id>  (24) 
25

>  <original_smiles>  (24) 
[H]c1c([H])c([H])c2c(c1[H])C([H])([H])C([H])([H])C([H])([H])C2([H])N([H])C(=O)C1([H])N(C(=O)C([H])(N([H])C(=O)C([H])(N([H])C([H])([H])[H])C([H])([H])[H])C(C([H])([H])[H])(C([H])([H])[H])C([H])([H])[H])C([H])([H])c2c([H])c(OC([H])(C([H])([H])[H])C([H])([H])C([H])([H])c3nc(C([H])([H])C4([H])C([H])([H])C([H])([H])C([H])([H])C4([H])N([H])C(=O)N4C([H])([H])C([H])([H])C([H])([H])C([H])(n5nc(-c6c([H])c([H])c(Oc7c([H])c([H])c(F)c([H])c7F)c([H])c6[H])c(C(=O)N([H])[H])c5N([H])[H])C4([H])[H])c(C([H])([H])[H])nc3C([H])([H])C([H])([H])[H])c([H])c([H])c2C1([H])[H]

>  <smiles>  (24) 
[H]c1c([H])c([H])c2c(c1[H])C([H])([H])C([H])([H])C([H])([H])C2([H])N([H])C(=O)C1([H])N(C(=O)C([H])(N([H])C(=O)C([H])(N([H])C([H])([H])[H])C([H])([H])[H])C(C([H])([H])[H])(C([H])([H])[H])C([H])([H])[H])C([H])([H])c2c([H])c(OC([H])(C([H])([H])[H])C([H])([H])C([H])([H])c3nc(C([H])([H])C4([H])C([H])([H])C([H])([H])C([H])([H])C4([H])N([H])C(=O)N4C([H])([H])C([H])([H])C([H])([H])C([H])(n5nc(-c6c([H])c([H])c(Oc7c([H])c([H])c(F)c([H])c7F)c([H])c6[H])c(C(=O)N([H])[H])c5N([H])[H])C4([H])[H])c(C([H])([H])[H])nc3C([H])([H])C([H])([H])[H])c([H])c([H])c2C1([H])[H]

$$$$
26:0:0
     RDKit          3D

 91 99  0  0  1  0  0  0  0  0999 V2000
  -30.1460  -20.8710   19.8630 C   0  0  0  0  0  3  0  0  0  0  0  0
  -28.7320  -22.0190   21.0440 C   0  0  0  0  0  3  0  0  0  0  0  0
  -29.3800  -20.0020   20.6150 C   0  0  0  0  0  0  0  0  0  0  0  0
  -28.4730  -20.7550   21.3630 N   0  0  0  0  0  0  0  0  0  0  0  0
  -29.7100  -22.1690   20.1380 N   0  0  0  0  0  0  0  0  0  0  0  0
  -29.8580  -17.9610   22.0290 C   0  0  0  0  0  1  0  0  0  0  0  0
  -29.3440  -18.4840   20.6750 C   0  0  0  0  0  3  0  0  0  0  0  0
  -29.9410  -17.7440   19.4370 C   0  0  0  0  0  2  0  0  0  0  0  0
  -31.2260  -16.8840   19.6190 C   0  0  0  0  0  2  0  0  0  0  0  0
  -31.5490  -14.3900   19.4740 C   0  0  0  0  0  0  0  0  0  0  0  0
  -31.1130  -12.1070   18.6560 C   0  0  0  0  0  2  0  0  0  0  0  0
  -30.0940  -12.1910   17.5000 C   0  0  0  0  0  2  0  0  0  0  0  0
  -28.6500  -12.1770   18.0390 C   0  0  0  0  0  2  0  0  0  0  0  0
  -28.4320  -13.1910   19.1940 C   0  0  0  0  0  3  0  0  0  0  0  0
  -29.5520  -13.0650   20.2530 C   0  0  0  0  0  2  0  0  0  0  0  0
  -30.8460  -13.2300   19.5680 N   0  0  0  0  0  0  0  0  0  0  0  0
  -32.6290  -14.4800   18.8840 O   0  0  0  0  0  0  0  0  0  0  0  0
  -30.9030  -15.4790   19.9250 N   0  0  0  0  0  0  0  0  0  0  0  0
  -30.0340  -15.3040   20.4080 H   0  0  0  0  0  0  0  0  0  0  0  0
  -26.1860  -14.0270   20.1360 C   0  0  0  0  0  0  0  0  0  0  0  0
  -25.0800  -13.3590   20.5880 C   0  0  0  0  0  0  0  0  0  0  0  0
  -25.3870  -11.9680   20.4800 C   0  0  0  0  0  0  0  0  0  0  0  0
  -27.1050  -13.0480   19.7890 N   0  0  0  0  0  0  0  0  0  0  0  0
  -26.6310  -11.8030   20.0490 N   0  0  0  0  0  0  0  0  0  0  0  0
  -24.5490  -10.7840   20.7070 C   0  0  0  0  0  0  0  0  0  0  0  0
  -24.8720   -9.8310   21.6990 C   0  0  0  0  0  3  0  0  0  0  0  0
  -24.0420   -8.7100   21.9120 C   0  0  0  0  0  3  0  0  0  0  0  0
  -22.8740   -8.5340   21.1320 C   0  0  0  0  0  0  0  0  0  0  0  0
  -22.5690   -9.4720   20.1300 C   0  0  0  0  0  3  0  0  0  0  0  0
  -23.3990  -10.5860   19.9170 C   0  0  0  0  0  3  0  0  0  0  0  0
  -22.0220   -7.4630   21.2510 O   0  0  0  0  0  0  0  0  0  0  0  0
  -21.7550   -6.8860   22.4660 C   0  0  0  0  0  0  0  0  0  0  0  0
  -21.1820   -7.6180   23.5300 C   0  0  0  0  0  3  0  0  0  0  0  0
  -20.8610   -6.9690   24.7390 C   0  0  0  0  0  3  0  0  0  0  0  0
  -21.1010   -5.5900   24.8830 C   0  0  0  0  0  0  0  0  0  0  0  0
  -21.6670   -4.8580   23.8240 C   0  0  0  0  0  3  0  0  0  0  0  0
  -21.9900   -5.5050   22.6180 C   0  0  0  0  0  0  0  0  0  0  0  0
  -22.5150   -4.7900   21.5940 F   0  0  0  0  0  0  0  0  0  0  0  0
  -20.7860   -4.9650   26.0420 F   0  0  0  0  0  0  0  0  0  0  0  0
  -23.7740  -13.9710   21.0040 C   0  0  0  0  0  0  0  0  0  0  0  0
  -23.0710  -13.3410   21.9400 N   0  0  0  0  0  0  0  0  0  0  0  0
  -23.3900  -15.0420   20.5360 O   0  0  0  0  0  0  0  0  0  0  0  0
  -23.3960  -12.4730   22.3410 H   0  0  0  0  0  0  0  0  0  0  0  0
  -22.1970  -13.7320   22.2610 H   0  0  0  0  0  0  0  0  0  0  0  0
  -26.4820  -15.3770   19.9730 N   0  0  0  0  0  0  0  0  0  0  0  0
  -25.8000  -16.1040   20.1580 H   0  0  0  0  0  0  0  0  0  0  0  0
  -27.3350  -15.7290   19.5580 H   0  0  0  0  0  0  0  0  0  0  0  0
  -30.2290  -23.3920   19.5250 C   0  0  0  0  0  2  0  0  0  0  0  0
  -29.8320  -24.7350   20.1910 C   0  0  0  0  0  2  0  0  0  0  0  0
  -28.5050  -25.3620   19.7130 C   0  0  0  0  0  2  0  0  0  0  0  0
  -28.4870  -26.7480   20.0770 O   0  0  0  0  0  0  0  0  0  0  0  0
  -24.6070  -31.7840   23.2430 C   0  0  0  0  0  0  0  0  0  0  0  0
  -27.2850  -27.4270   20.0700 C   0  0  0  0  0  0  0  0  0  0  0  0
  -23.4020  -30.3870   21.5960 C   0  0  0  0  0  3  0  0  0  0  0  0
  -24.8610  -28.8920   20.1320 C   0  0  0  0  0  0  0  0  0  0  0  0
  -25.9190  -30.7880   21.3720 C   0  0  0  0  0  2  0  0  0  0  0  0
  -26.0170  -29.4280   20.7130 C   0  0  0  0  0  0  0  0  0  0  0  0
  -27.2280  -28.7030   20.6780 C   0  0  0  0  0  3  0  0  0  0  0  0
  -26.1090  -26.9060   19.4810 C   0  0  0  0  0  3  0  0  0  0  0  0
  -24.9020  -27.6300   19.5130 C   0  0  0  0  0  3  0  0  0  0  0  0
  -23.6040  -29.7300   20.2040 C   0  0  0  0  0  2  0  0  0  0  0  0
  -24.6610  -31.0010   22.1290 N   0  0  0  0  0  0  0  0  0  0  0  0
  -23.5290  -32.0310   23.8010 O   0  0  0  0  0  0  0  0  0  0  0  0
  -22.7780  -29.3420   22.5500 C   0  0  0  0  0  0  0  0  0  0  0  0
  -21.4640  -29.1080   22.4030 N   0  0  0  0  0  0  0  0  0  0  0  0
  -23.4740  -28.7460   23.3760 O   0  0  0  0  0  0  0  0  0  0  0  0
  -20.9630  -29.6450   21.7090 H   0  0  0  0  0  0  0  0  0  0  0  0
  -18.1390  -27.7600   22.8250 C   0  0  0  0  0  0  0  0  0  0  0  0
  -20.6740  -28.1400   23.1630 C   0  0  0  0  0  3  0  0  0  0  0  0
  -20.8590  -26.7100   22.6040 C   0  0  0  0  0  2  0  0  0  0  0  0
  -19.8010  -26.3270   21.5650 C   0  0  0  0  0  2  0  0  0  0  0  0
  -18.3970  -26.4140   22.1710 C   0  0  0  0  0  2  0  0  0  0  0  0
  -19.2090  -28.5780   23.2770 C   0  0  0  0  0  0  0  0  0  0  0  0
  -18.9170  -29.8370   23.8450 C   0  0  0  0  0  3  0  0  0  0  0  0
  -17.5860  -30.2790   23.9710 C   0  0  0  0  0  3  0  0  0  0  0  0
  -16.5300  -29.4580   23.5370 C   0  0  0  0  0  3  0  0  0  0  0  0
  -16.8070  -28.2020   22.9690 C   0  0  0  0  0  3  0  0  0  0  0  0
  -25.8910  -32.4240   23.8580 C   0  0  0  0  0  3  0  0  0  0  0  0
  -25.5710  -33.8180   24.1950 N   0  0  0  0  0  0  0  0  0  0  0  0
  -25.9000  -34.8770   23.4430 C   0  0  0  0  0  0  0  0  0  0  0  0
  -26.5760  -34.7840   22.4150 O   0  0  0  0  0  0  0  0  0  0  0  0
  -24.9720  -33.9630   24.9940 H   0  0  0  0  0  0  0  0  0  0  0  0
  -24.1660  -36.6610   23.0840 C   0  0  0  0  0  1  0  0  0  0  0  0
  -25.3990  -36.2580   23.9060 C   0  0  0  0  0  3  0  0  0  0  0  0
  -27.5160  -37.1520   24.7710 C   0  0  0  0  0  1  0  0  0  0  0  0
  -26.4270  -37.3190   23.8120 N   0  0  0  0  0  0  0  0  0  0  0  0
  -26.0140  -38.2360   23.9570 H   0  0  0  0  0  0  0  0  0  0  0  0
  -26.4270  -31.6520   25.1250 C   0  0  1  0  0  0  0  0  0  0  0  0
  -25.3410  -31.3810   26.1930 C   0  0  0  0  0  1  0  0  0  0  0  0
  -27.0390  -30.2920   24.7160 C   0  0  0  0  0  1  0  0  0  0  0  0
  -27.5610  -32.4640   25.7930 C   0  0  0  0  0  1  0  0  0  0  0  0
  1  5  1  0
  1  3  2  0
  2  4  2  0
  3  7  1  0
  3  4  1  0
  5  2  1  0
  7  6  1  0
  8  9  1  0
  8  7  1  0
  9 18  1  0
 10 16  1  0
 10 18  1  0
 11 16  1  0
 12 13  1  0
 12 11  1  0
 14 13  1  0
 14 23  1  0
 14 15  1  0
 16 15  1  0
 17 10  2  0
 18 19  1  0
 20 21  2  0
 21 40  1  0
 22 21  1  0
 22 25  1  0
 23 24  1  0
 23 20  1  0
 24 22  2  0
 25 26  1  0
 26 27  2  0
 28 31  1  0
 28 27  1  0
 29 28  2  0
 30 29  1  0
 30 25  2  0
 31 32  1  0
 32 37  2  0
 32 33  1  0
 33 34  2  0
 34 35  1  0
 35 39  1  0
 36 35  2  0
 37 36  1  0
 38 37  1  0
 40 41  1  0
 41 44  1  0
 41 43  1  0
 42 40  2  0
 45 20  1  0
 45 46  1  0
 47 45  1  0
 48  5  1  0
 48 49  1  0
 50 51  1  0
 50 49  1  0
 52 63  2  0
 53 51  1  0
 53 58  1  0
 54 62  1  0
 54 64  1  0
 55 61  1  0
 55 57  1  0
 56 62  1  0
 57 56  1  0
 58 57  2  0
 59 60  1  0
 59 53  2  0
 60 55  2  0
 61 54  1  0
 62 52  1  0
 64 66  2  0
 65 64  1  0
 67 65  1  0
 68 77  2  0
 68 73  1  0
 69 65  1  0
 69 73  1  0
 70 69  1  0
 71 72  1  0
 71 70  1  0
 72 68  1  0
 73 74  2  0
 74 75  1  0
 76 75  2  0
 77 76  1  0
 78 52  1  0
 78 79  1  0
 78 88  1  0
 79 82  1  0
 80 84  1  0
 80 79  1  0
 81 80  2  0
 84 83  1  0
 86 84  1  0
 86 87  1  0
 86 85  1  0
 88 91  1  1
 88 89  1  0
 90 88  1  0
M  ISO  4  10 100  18 100  50 101  51 101
M  END
>  <TORSDO>  (25) 
F 22

>  <SCORE>  (25) 
-11.273

>  <name>  (25) 
26

>  <ligand_id>  (25) 
26

>  <original_smiles>  (25) 
[H]c1c([H])c([H])c2c(c1[H])C([H])([H])C([H])([H])C([H])([H])C2([H])N([H])C(=O)C1([H])N(C(=O)C([H])(N([H])C(=O)C([H])(N([H])C([H])([H])[H])C([H])([H])[H])C(C([H])([H])[H])(C([H])([H])[H])C([H])([H])[H])C([H])([H])c2c([H])c(OC([H])([H])C([H])([H])C([H])([H])n3c([H])nc(C([H])(C([H])([H])[H])C([H])([H])C([H])([H])N([H])C(=O)N4C([H])([H])C([H])([H])C([H])([H])C([H])(n5nc(-c6c([H])c([H])c(Oc7c([H])c([H])c(F)c([H])c7F)c([H])c6[H])c(C(=O)N([H])[H])c5N([H])[H])C4([H])[H])c3[H])c([H])c([H])c2C1([H])[H]

>  <smiles>  (25) 
[H]c1c([H])c([H])c2c(c1[H])C([H])([H])C([H])([H])C([H])([H])C2([H])N([H])C(=O)C1([H])N(C(=O)C([H])(N([H])C(=O)C([H])(N([H])C([H])([H])[H])C([H])([H])[H])C(C([H])([H])[H])(C([H])([H])[H])C([H])([H])[H])C([H])([H])c2c([H])c(OC([H])([H])C([H])([H])C([H])([H])n3c([H])nc(C([H])(C([H])([H])[H])C([H])([H])C([H])([H])N([H])C(=O)N4C([H])([H])C([H])([H])C([H])([H])C([H])(n5nc(-c6c([H])c([H])c(Oc7c([H])c([H])c(F)c([H])c7F)c([H])c6[H])c(C(=O)N([H])[H])c5N([H])[H])C4([H])[H])c3[H])c([H])c([H])c2C1([H])[H]

$$$$
27:0:0
     RDKit          3D

 93101  0  0  1  0  0  0  0  0999 V2000
  -28.4990  -21.2630   18.5940 C   0  0  0  0  0  3  0  0  0  0  0  0
  -28.6830  -21.0760   19.9390 C   0  0  0  0  0  0  0  0  0  0  0  0
  -29.0200  -19.6250   20.0060 C   0  0  0  0  0  0  0  0  0  0  0  0
  -28.9660  -19.0910   18.7890 N   0  0  0  0  0  0  0  0  0  0  0  0
  -28.6310  -20.0710   17.9360 N   0  0  0  0  0  0  0  0  0  0  0  0
  -28.0390  -18.3970   16.1700 C   0  0  0  0  0  1  0  0  0  0  0  0
  -29.7640  -20.2280   15.7650 C   0  0  0  0  0  1  0  0  0  0  0  0
  -28.4800  -19.8330   16.5060 C   0  0  0  0  0  3  0  0  0  0  0  0
  -28.4660  -22.2960   20.9250 C   0  0  0  0  0  2  0  0  0  0  0  0
  -28.4590  -23.7920   20.2800 C   0  0  0  0  0  3  0  0  0  0  0  0
  -28.1810  -25.1000   21.1710 C   0  0  0  0  0  3  0  0  0  0  0  0
  -28.3340  -26.4770   20.6160 O   0  0  0  0  0  0  0  0  0  0  0  0
  -24.5660  -32.0120   23.3470 C   0  0  0  0  0  0  0  0  0  0  0  0
  -27.2210  -27.3270   20.5560 C   0  0  0  0  0  0  0  0  0  0  0  0
  -23.3940  -30.5630   21.7310 C   0  0  0  0  0  3  0  0  0  0  0  0
  -24.8690  -28.9480   20.4020 C   0  0  0  0  0  0  0  0  0  0  0  0
  -25.9400  -30.8660   21.5910 C   0  0  0  0  0  2  0  0  0  0  0  0
  -26.0260  -29.4620   21.0050 C   0  0  0  0  0  0  0  0  0  0  0  0
  -27.2090  -28.6650   21.0630 C   0  0  0  0  0  3  0  0  0  0  0  0
  -26.0470  -26.8600   19.9330 C   0  0  0  0  0  3  0  0  0  0  0  0
  -24.8810  -27.6530   19.8580 C   0  0  0  0  0  3  0  0  0  0  0  0
  -23.6330  -29.8280   20.3850 C   0  0  0  0  0  2  0  0  0  0  0  0
  -24.6520  -31.1690   22.2780 N   0  0  0  0  0  0  0  0  0  0  0  0
  -23.4720  -32.3110   23.8460 O   0  0  0  0  0  0  0  0  0  0  0  0
  -22.7020  -29.5860   22.7130 C   0  0  0  0  0  0  0  0  0  0  0  0
  -21.3980  -29.3360   22.5000 N   0  0  0  0  0  0  0  0  0  0  0  0
  -23.3400  -29.0560   23.6260 O   0  0  0  0  0  0  0  0  0  0  0  0
  -20.9420  -29.8130   21.7350 H   0  0  0  0  0  0  0  0  0  0  0  0
  -18.0470  -28.0130   22.8280 C   0  0  0  0  0  0  0  0  0  0  0  0
  -20.5620  -28.4180   23.2750 C   0  0  0  0  0  3  0  0  0  0  0  0
  -20.7720  -26.9550   22.8180 C   0  0  0  0  0  2  0  0  0  0  0  0
  -19.7700  -26.5070   21.7500 C   0  0  0  0  0  2  0  0  0  0  0  0
  -18.3350  -26.6300   22.2720 C   0  0  0  0  0  2  0  0  0  0  0  0
  -19.0930  -28.8580   23.2850 C   0  0  0  0  0  0  0  0  0  0  0  0
  -18.7710  -30.1490   23.7610 C   0  0  0  0  0  3  0  0  0  0  0  0
  -17.4340  -30.5930   23.7880 C   0  0  0  0  0  3  0  0  0  0  0  0
  -16.4030  -29.7470   23.3470 C   0  0  0  0  0  3  0  0  0  0  0  0
  -16.7090  -28.4610   22.8700 C   0  0  0  0  0  3  0  0  0  0  0  0
  -25.8370  -32.6590   23.9840 C   0  0  0  0  0  3  0  0  0  0  0  0
  -25.5130  -34.0580   24.2960 N   0  0  0  0  0  0  0  0  0  0  0  0
  -25.8010  -35.1010   23.5050 C   0  0  0  0  0  0  0  0  0  0  0  0
  -26.4360  -34.9890   22.4530 O   0  0  0  0  0  0  0  0  0  0  0  0
  -24.9400  -34.2200   25.1110 H   0  0  0  0  0  0  0  0  0  0  0  0
  -24.0160  -36.8480   23.2020 C   0  0  0  0  0  1  0  0  0  0  0  0
  -25.3090  -36.4910   23.9540 C   0  0  0  0  0  3  0  0  0  0  0  0
  -27.4520  -37.4550   24.6580 C   0  0  0  0  0  1  0  0  0  0  0  0
  -26.3080  -37.5630   23.7570 N   0  0  0  0  0  0  0  0  0  0  0  0
  -25.8840  -38.4780   23.8850 H   0  0  0  0  0  0  0  0  0  0  0  0
  -26.3370  -31.9060   25.2760 C   0  0  1  0  0  0  0  0  0  0  0  0
  -25.2090  -31.5800   26.2840 C   0  0  0  0  0  1  0  0  0  0  0  0
  -27.0320  -30.5770   24.8980 C   0  0  0  0  0  1  0  0  0  0  0  0
  -27.3980  -32.7670   26.0030 C   0  0  0  0  0  1  0  0  0  0  0  0
  -29.2640  -18.5090   21.0880 C   0  0  0  0  0  2  0  0  0  0  0  0
  -31.6400  -17.7480   21.6220 C   0  0  0  0  0  1  0  0  0  0  0  0
  -30.3880  -17.3660   20.8030 C   0  0  0  0  0  3  0  0  0  0  0  0
  -30.7320  -14.7550   20.5350 C   0  0  0  0  0  0  0  0  0  0  0  0
  -30.4340  -12.5780   19.3530 C   0  0  0  0  0  2  0  0  0  0  0  0
  -29.5000  -12.8020   18.1450 C   0  0  0  0  0  2  0  0  0  0  0  0
  -28.0290  -12.6380   18.5730 C   0  0  0  0  0  2  0  0  0  0  0  0
  -27.6930  -13.4280   19.8670 C   0  0  0  0  0  3  0  0  0  0  0  0
  -28.7540  -13.2110   20.9690 C   0  0  0  0  0  2  0  0  0  0  0  0
  -30.0590  -13.5610   20.3990 N   0  0  0  0  0  0  0  0  0  0  0  0
  -31.8800  -14.8510   20.0960 O   0  0  0  0  0  0  0  0  0  0  0  0
  -30.0420  -15.8750   20.9810 N   0  0  0  0  0  0  0  0  0  0  0  0
  -29.1090  -15.6860   21.3210 H   0  0  0  0  0  0  0  0  0  0  0  0
  -25.3070  -14.0200   20.6030 C   0  0  0  0  0  0  0  0  0  0  0  0
  -24.2350  -13.2460   20.9550 C   0  0  0  0  0  0  0  0  0  0  0  0
  -24.6890  -11.8920   20.8920 C   0  0  0  0  0  0  0  0  0  0  0  0
  -26.3450  -13.1390   20.3430 N   0  0  0  0  0  0  0  0  0  0  0  0
  -25.9790  -11.8520   20.5810 N   0  0  0  0  0  0  0  0  0  0  0  0
  -23.9520  -10.6310   21.0530 C   0  0  0  0  0  0  0  0  0  0  0  0
  -24.3530   -9.6570   21.9930 C   0  0  0  0  0  3  0  0  0  0  0  0
  -23.6150   -8.4620   22.1450 C   0  0  0  0  0  3  0  0  0  0  0  0
  -22.4640   -8.2340   21.3540 C   0  0  0  0  0  0  0  0  0  0  0  0
  -22.0840   -9.1970   20.4040 C   0  0  0  0  0  3  0  0  0  0  0  0
  -22.8210  -10.3820   20.2500 C   0  0  0  0  0  3  0  0  0  0  0  0
  -21.7030   -7.0910   21.4130 O   0  0  0  0  0  0  0  0  0  0  0  0
  -21.5760   -6.3690   22.5730 C   0  0  0  0  0  0  0  0  0  0  0  0
  -20.9910   -6.9190   23.7340 C   0  0  0  0  0  3  0  0  0  0  0  0
  -20.8160   -6.1200   24.8820 C   0  0  0  0  0  3  0  0  0  0  0  0
  -21.2180   -4.7700   24.8670 C   0  0  0  0  0  0  0  0  0  0  0  0
  -21.7960   -4.2190   23.7100 C   0  0  0  0  0  3  0  0  0  0  0  0
  -21.9710   -5.0150   22.5650 C   0  0  0  0  0  0  0  0  0  0  0  0
  -22.5090   -4.4750   21.4460 F   0  0  0  0  0  0  0  0  0  0  0  0
  -21.0440   -3.9990   25.9660 F   0  0  0  0  0  0  0  0  0  0  0  0
  -22.8430  -13.7290   21.2400 C   0  0  0  0  0  0  0  0  0  0  0  0
  -22.1090  -13.0190   22.0900 N   0  0  0  0  0  0  0  0  0  0  0  0
  -22.4140  -14.7680   20.7430 O   0  0  0  0  0  0  0  0  0  0  0  0
  -22.4710  -12.1820   22.5210 H   0  0  0  0  0  0  0  0  0  0  0  0
  -21.1740  -13.3230   22.3190 H   0  0  0  0  0  0  0  0  0  0  0  0
  -25.4760  -15.3940   20.4600 N   0  0  0  0  0  0  0  0  0  0  0  0
  -24.6960  -16.0330   20.5710 H   0  0  0  0  0  0  0  0  0  0  0  0
  -26.3120  -15.8430   20.1050 H   0  0  0  0  0  0  0  0  0  0  0  0
  1  2  2  0
  2  3  1  0
  2  9  1  0
  3 53  1  0
  4  3  2  0
  5  1  1  0
  5  4  1  0
  6  8  1  0
  7  8  1  0
  8  5  1  0
 10  9  1  0
 10 11  2  0
 12 11  1  0
 13 24  2  0
 14 12  1  0
 14 19  1  0
 15 23  1  0
 15 25  1  0
 16 18  1  0
 17 23  1  0
 18 19  2  0
 18 17  1  0
 20 14  2  0
 21 20  1  0
 21 16  2  0
 22 16  1  0
 22 15  1  0
 23 13  1  0
 25 27  2  0
 26 25  1  0
 28 26  1  0
 29 38  2  0
 29 34  1  0
 30 26  1  0
 30 34  1  0
 31 30  1  0
 32 33  1  0
 32 31  1  0
 33 29  1  0
 34 35  2  0
 35 36  1  0
 37 36  2  0
 38 37  1  0
 39 13  1  0
 39 40  1  0
 39 49  1  0
 40 43  1  0
 41 45  1  0
 41 40  1  0
 42 41  2  0
 45 44  1  0
 47 48  1  0
 47 45  1  0
 47 46  1  0
 49 52  1  1
 49 50  1  0
 51 49  1  0
 55 64  1  0
 55 53  1  0
 55 54  1  0
 56 64  1  0
 57 62  1  0
 58 59  1  0
 58 57  1  0
 60 59  1  0
 60 69  1  0
 60 61  1  0
 62 56  1  0
 62 61  1  0
 63 56  2  0
 64 65  1  0
 66 67  2  0
 67 86  1  0
 68 67  1  0
 68 71  1  0
 69 70  1  0
 69 66  1  0
 70 68  2  0
 71 72  1  0
 72 73  2  0
 74 77  1  0
 74 73  1  0
 75 74  2  0
 76 75  1  0
 76 71  2  0
 77 78  1  0
 78 79  1  0
 79 80  2  0
 81 80  1  0
 81 85  1  0
 82 81  2  0
 83 78  2  0
 83 82  1  0
 84 83  1  0
 86 87  1  0
 87 90  1  0
 87 89  1  0
 88 86  2  0
 91 92  1  0
 91 66  1  0
 93 91  1  0
M  ISO  4  11 101  12 101  56 100  64 100
M  END
>  <TORSDO>  (26) 
F 22

>  <SCORE>  (26) 
-12.629

>  <name>  (26) 
27

>  <ligand_id>  (26) 
27

>  <original_smiles>  (26) 
[H]c1c([H])c([H])c2c(c1[H])C([H])([H])C([H])([H])C([H])([H])C2([H])N([H])C(=O)C1([H])N(C(=O)C([H])(N([H])C(=O)C([H])(N([H])C([H])([H])[H])C([H])([H])[H])C(C([H])([H])[H])(C([H])([H])[H])C([H])([H])[H])C([H])([H])c2c([H])c(OC([H])([H])C([H])([H])C([H])([H])c3c(C([H])([H])C([H])(N([H])C(=O)N4C([H])([H])C([H])([H])C([H])([H])C([H])(n5nc(-c6c([H])c([H])c(Oc7c([H])c([H])c(F)c([H])c7F)c([H])c6[H])c(C(=O)N([H])[H])c5N([H])[H])C4([H])[H])C([H])([H])[H])nn(C([H])(C([H])([H])[H])C([H])([H])[H])c3[H])c([H])c([H])c2C1([H])[H]

>  <smiles>  (26) 
[H]c1c([H])c([H])c2c(c1[H])C([H])([H])C([H])([H])C([H])([H])C2([H])N([H])C(=O)C1([H])N(C(=O)C([H])(N([H])C(=O)C([H])(N([H])C([H])([H])[H])C([H])([H])[H])C(C([H])([H])[H])(C([H])([H])[H])C([H])([H])[H])C([H])([H])c2c([H])c(OC([H])([H])C([H])([H])C([H])([H])c3c(C([H])([H])C([H])(N([H])C(=O)N4C([H])([H])C([H])([H])C([H])([H])C([H])(n5nc(-c6c([H])c([H])c(Oc7c([H])c([H])c(F)c([H])c7F)c([H])c6[H])c(C(=O)N([H])[H])c5N([H])[H])C4([H])[H])C([H])([H])[H])nn(C([H])(C([H])([H])[H])C([H])([H])[H])c3[H])c([H])c([H])c2C1([H])[H]

$$$$
28:0:0
     RDKit          3D

 95103  0  0  1  0  0  0  0  0999 V2000
  -28.9270  -20.4360   20.8720 C   0  0  0  0  0  3  0  0  0  0  0  0
  -29.5180  -21.6680   20.7200 C   0  0  0  0  0  0  0  0  0  0  0  0
  -30.6250  -21.3690   19.8620 C   0  0  0  0  0  0  0  0  0  0  0  0
  -30.6810  -20.0770   19.5410 N   0  0  0  0  0  0  0  0  0  0  0  0
  -29.6650  -19.4730   20.1950 N   0  0  0  0  0  0  0  0  0  0  0  0
  -28.1220  -17.5820   20.7230 C   0  0  0  0  0  1  0  0  0  0  0  0
  -29.4220  -18.0200   20.0170 C   0  0  0  0  0  3  0  0  0  0  0  0
  -30.6280  -17.1110   20.4350 C   0  0  0  0  0  2  0  0  0  0  0  0
  -31.0050  -14.6260   20.0850 C   0  0  0  0  0  0  0  0  0  0  0  0
  -30.6660  -12.4170   19.0330 C   0  0  0  0  0  2  0  0  0  0  0  0
  -29.6860  -12.5970   17.8540 C   0  0  0  0  0  2  0  0  0  0  0  0
  -28.2210  -12.5090   18.3310 C   0  0  0  0  0  2  0  0  0  0  0  0
  -27.9440  -13.3750   19.5880 C   0  0  0  0  0  3  0  0  0  0  0  0
  -29.0340  -13.1630   20.6630 C   0  0  0  0  0  2  0  0  0  0  0  0
  -30.3380  -13.4380   20.0380 N   0  0  0  0  0  0  0  0  0  0  0  0
  -32.1270  -14.7810   19.5970 O   0  0  0  0  0  0  0  0  0  0  0  0
  -30.2810  -15.6740   20.5300 N   0  0  0  0  0  0  0  0  0  0  0  0
  -29.3640  -15.4540   20.8850 H   0  0  0  0  0  0  0  0  0  0  0  0
  -25.6040  -14.0560   20.4130 C   0  0  0  0  0  0  0  0  0  0  0  0
  -24.5220  -13.3160   20.8090 C   0  0  0  0  0  0  0  0  0  0  0  0
  -24.9240  -11.9480   20.7180 C   0  0  0  0  0  0  0  0  0  0  0  0
  -26.6020  -13.1400   20.1160 N   0  0  0  0  0  0  0  0  0  0  0  0
  -26.1970  -11.8660   20.3520 N   0  0  0  0  0  0  0  0  0  0  0  0
  -24.1520  -10.7120   20.9030 C   0  0  0  0  0  0  0  0  0  0  0  0
  -24.5560   -9.7210   21.8250 C   0  0  0  0  0  3  0  0  0  0  0  0
  -23.7870   -8.5500   21.9980 C   0  0  0  0  0  3  0  0  0  0  0  0
  -22.6000   -8.3630   21.2510 C   0  0  0  0  0  0  0  0  0  0  0  0
  -22.2140   -9.3420   20.3190 C   0  0  0  0  0  3  0  0  0  0  0  0
  -22.9820  -10.5060   20.1440 C   0  0  0  0  0  3  0  0  0  0  0  0
  -21.8030   -7.2480   21.3360 O   0  0  0  0  0  0  0  0  0  0  0  0
  -21.7080   -6.5190   22.4940 C   0  0  0  0  0  0  0  0  0  0  0  0
  -21.2430   -7.0880   23.6980 C   0  0  0  0  0  3  0  0  0  0  0  0
  -21.0950   -6.2840   24.8470 C   0  0  0  0  0  3  0  0  0  0  0  0
  -21.4010   -4.9120   24.7900 C   0  0  0  0  0  0  0  0  0  0  0  0
  -21.8580   -4.3410   23.5890 C   0  0  0  0  0  3  0  0  0  0  0  0
  -22.0090   -5.1430   22.4440 C   0  0  0  0  0  0  0  0  0  0  0  0
  -22.4300   -4.5830   21.2840 F   0  0  0  0  0  0  0  0  0  0  0  0
  -21.2520   -4.1360   25.8900 F   0  0  0  0  0  0  0  0  0  0  0  0
  -23.1600  -13.8440   21.1570 C   0  0  0  0  0  0  0  0  0  0  0  0
  -22.4450  -13.1620   22.0470 N   0  0  0  0  0  0  0  0  0  0  0  0
  -22.7400  -14.8960   20.6770 O   0  0  0  0  0  0  0  0  0  0  0  0
  -22.7930  -12.3080   22.4580 H   0  0  0  0  0  0  0  0  0  0  0  0
  -21.5350  -13.5060   22.3200 H   0  0  0  0  0  0  0  0  0  0  0  0
  -25.8190  -15.4220   20.2640 N   0  0  0  0  0  0  0  0  0  0  0  0
  -25.0840  -16.1020   20.4270 H   0  0  0  0  0  0  0  0  0  0  0  0
  -26.6580  -15.8330   19.8780 H   0  0  0  0  0  0  0  0  0  0  0  0
  -29.0670  -22.9640   21.4130 C   0  0  0  0  0  2  0  0  0  0  0  0
  -29.1570  -24.3220   20.6460 C   0  0  0  0  0  2  0  0  0  0  0  0
  -28.7850  -25.7710   22.7820 C   0  0  0  0  0  1  0  0  0  0  0  0
  -28.3730  -25.4930   21.3260 C   0  0  0  0  0  3  0  0  0  0  0  0
  -28.5410  -26.7530   20.6380 O   0  0  0  0  0  0  0  0  0  0  0  0
  -24.5580  -32.0020   23.4030 C   0  0  0  0  0  0  0  0  0  0  0  0
  -27.3970  -27.5180   20.5620 C   0  0  0  0  0  0  0  0  0  0  0  0
  -23.4520  -30.5440   21.7410 C   0  0  0  0  0  3  0  0  0  0  0  0
  -24.9920  -28.9960   20.4210 C   0  0  0  0  0  0  0  0  0  0  0  0
  -25.9830  -30.9330   21.6580 C   0  0  0  0  0  2  0  0  0  0  0  0
  -26.1160  -29.5490   21.0510 C   0  0  0  0  0  0  0  0  0  0  0  0
  -27.3250  -28.8180   21.1170 C   0  0  0  0  0  3  0  0  0  0  0  0
  -26.2630  -26.9840   19.9210 C   0  0  0  0  0  3  0  0  0  0  0  0
  -25.0600  -27.7110   19.8560 C   0  0  0  0  0  3  0  0  0  0  0  0
  -23.7380  -29.8380   20.3890 C   0  0  0  0  0  2  0  0  0  0  0  0
  -24.6800  -31.1770   22.3240 N   0  0  0  0  0  0  0  0  0  0  0  0
  -23.4500  -32.2710   23.8860 O   0  0  0  0  0  0  0  0  0  0  0  0
  -22.7730  -29.5330   22.6940 C   0  0  0  0  0  0  0  0  0  0  0  0
  -21.4560  -29.3390   22.5230 N   0  0  0  0  0  0  0  0  0  0  0  0
  -23.4300  -28.9280   23.5440 O   0  0  0  0  0  0  0  0  0  0  0  0
  -20.9860  -29.8840   21.8120 H   0  0  0  0  0  0  0  0  0  0  0  0
  -18.0650  -28.1630   22.9470 C   0  0  0  0  0  0  0  0  0  0  0  0
  -20.6170  -28.4090   23.2780 C   0  0  0  0  0  3  0  0  0  0  0  0
  -20.7260  -26.9740   22.7110 C   0  0  0  0  0  2  0  0  0  0  0  0
  -19.6470  -26.6520   21.6730 C   0  0  0  0  0  2  0  0  0  0  0  0
  -18.2510  -26.8090   22.2810 C   0  0  0  0  0  2  0  0  0  0  0  0
  -19.1780  -28.9210   23.4000 C   0  0  0  0  0  0  0  0  0  0  0  0
  -18.9520  -30.1880   23.9790 C   0  0  0  0  0  3  0  0  0  0  0  0
  -17.6480  -30.6990   24.1100 C   0  0  0  0  0  3  0  0  0  0  0  0
  -16.5490  -29.9390   23.6740 C   0  0  0  0  0  3  0  0  0  0  0  0
  -16.7590  -28.6720   23.0980 C   0  0  0  0  0  3  0  0  0  0  0  0
  -25.8070  -32.6690   24.0640 C   0  0  0  0  0  3  0  0  0  0  0  0
  -25.4720  -34.0770   24.3180 N   0  0  0  0  0  0  0  0  0  0  0  0
  -25.8260  -35.0970   23.5250 C   0  0  0  0  0  0  0  0  0  0  0  0
  -26.5400  -34.9550   22.5280 O   0  0  0  0  0  0  0  0  0  0  0  0
  -24.8410  -34.2620   25.0830 H   0  0  0  0  0  0  0  0  0  0  0  0
  -24.0850  -36.8430   23.0340 C   0  0  0  0  0  1  0  0  0  0  0  0
  -25.3080  -36.4990   23.8990 C   0  0  0  0  0  3  0  0  0  0  0  0
  -27.3990  -37.4600   24.7530 C   0  0  0  0  0  1  0  0  0  0  0  0
  -26.3290  -37.5610   23.7630 N   0  0  0  0  0  0  0  0  0  0  0  0
  -25.9050  -38.4810   23.8480 H   0  0  0  0  0  0  0  0  0  0  0  0
  -26.2590  -31.9540   25.3970 C   0  0  1  0  0  0  0  0  0  0  0  0
  -25.1030  -31.7200   26.3970 C   0  0  0  0  0  1  0  0  0  0  0  0
  -26.9060  -30.5840   25.0920 C   0  0  0  0  0  1  0  0  0  0  0  0
  -27.3380  -32.8060   26.1080 C   0  0  0  0  0  1  0  0  0  0  0  0
  -31.6940  -22.2680   19.2980 C   0  0  0  0  0  2  0  0  0  0  0  0
  -33.0710  -21.9700   19.9110 C   0  0  0  0  0  2  0  0  0  0  0  0
  -35.5670  -22.4490   19.8700 C   0  0  0  0  0  1  0  0  0  0  0  0
  -34.1850  -22.8770   19.3680 C   0  0  0  0  0  2  0  0  0  0  0  0
  2  1  2  0
  2 47  1  0
  3  2  1  0
  4  3  2  0
  4  5  1  0
  5  1  1  0
  7  5  1  0
  7  8  1  0
  7  6  1  0
  8 17  1  0
  9 17  1  0
 10 15  1  0
 11 12  1  0
 11 10  1  0
 13 12  1  0
 13 22  1  0
 13 14  1  0
 15  9  1  0
 15 14  1  0
 16  9  2  0
 17 18  1  0
 19 20  2  0
 20 39  1  0
 21 20  1  0
 21 24  1  0
 22 23  1  0
 22 19  1  0
 23 21  2  0
 24 25  1  0
 25 26  2  0
 27 30  1  0
 27 26  1  0
 28 27  2  0
 29 28  1  0
 29 24  2  0
 30 31  1  0
 31 32  1  0
 32 33  2  0
 34 33  1  0
 34 38  1  0
 35 34  2  0
 36 31  2  0
 36 35  1  0
 37 36  1  0
 39 40  1  0
 40 43  1  0
 40 42  1  0
 41 39  2  0
 44 19  1  0
 44 45  1  0
 46 44  1  0
 48 50  1  0
 48 47  1  0
 50 49  1  0
 51 50  1  0
 52 63  2  0
 53 51  1  0
 53 58  1  0
 54 62  1  0
 54 64  1  0
 55 57  1  0
 56 62  1  0
 57 58  2  0
 57 56  1  0
 59 53  2  0
 60 59  1  0
 60 55  2  0
 61 55  1  0
 61 54  1  0
 62 52  1  0
 64 66  2  0
 65 64  1  0
 67 65  1  0
 68 77  2  0
 68 73  1  0
 69 65  1  0
 69 73  1  0
 70 69  1  0
 71 72  1  0
 71 70  1  0
 72 68  1  0
 73 74  2  0
 74 75  1  0
 76 75  2  0
 77 76  1  0
 78 52  1  0
 78 79  1  0
 78 88  1  0
 79 82  1  0
 80 84  1  0
 80 79  1  0
 81 80  2  0
 84 83  1  0
 86 87  1  0
 86 84  1  0
 86 85  1  0
 88 91  1  1
 88 89  1  0
 90 88  1  0
 92  3  1  0
 92 93  1  0
 95 94  1  0
 95 93  1  0
M  ISO  4   9 100  17 100  50 101  51 101
M  END
>  <TORSDO>  (27) 
F 24

>  <SCORE>  (27) 
-12.278

>  <name>  (27) 
28

>  <ligand_id>  (27) 
28

>  <original_smiles>  (27) 
[H]c1c([H])c([H])c2c(c1[H])C([H])([H])C([H])([H])C([H])([H])C2([H])N([H])C(=O)C1([H])N(C(=O)C([H])(N([H])C(=O)C([H])(N([H])C([H])([H])[H])C([H])([H])[H])C(C([H])([H])[H])(C([H])([H])[H])C([H])([H])[H])C([H])([H])c2c([H])c(OC([H])(C([H])([H])[H])C([H])([H])C([H])([H])c3c(C([H])([H])C([H])([H])C([H])([H])C([H])([H])[H])nn(C([H])(C([H])([H])[H])C([H])([H])N([H])C(=O)N4C([H])([H])C([H])([H])C([H])([H])C([H])(n5nc(-c6c([H])c([H])c(Oc7c([H])c([H])c(F)c([H])c7F)c([H])c6[H])c(C(=O)N([H])[H])c5N([H])[H])C4([H])[H])c3[H])c([H])c([H])c2C1([H])[H]

>  <smiles>  (27) 
[H]c1c([H])c([H])c2c(c1[H])C([H])([H])C([H])([H])C([H])([H])C2([H])N([H])C(=O)C1([H])N(C(=O)C([H])(N([H])C(=O)C([H])(N([H])C([H])([H])[H])C([H])([H])[H])C(C([H])([H])[H])(C([H])([H])[H])C([H])([H])[H])C([H])([H])c2c([H])c(OC([H])(C([H])([H])[H])C([H])([H])C([H])([H])c3c(C([H])([H])C([H])([H])C([H])([H])C([H])([H])[H])nn(C([H])(C([H])([H])[H])C([H])([H])N([H])C(=O)N4C([H])([H])C([H])([H])C([H])([H])C([H])(n5nc(-c6c([H])c([H])c(Oc7c([H])c([H])c(F)c([H])c7F)c([H])c6[H])c(C(=O)N([H])[H])c5N([H])[H])C4([H])[H])c3[H])c([H])c([H])c2C1([H])[H]

$$$$
29:0:0
     RDKit          3D

 97105  0  0  1  0  0  0  0  0999 V2000
  -31.1960  -20.2500   21.5680 C   0  0  0  0  0  3  0  0  0  0  0  0
  -30.6260  -21.4720   21.1630 C   0  0  0  0  0  0  0  0  0  0  0  0
  -29.7770  -21.5030   20.0190 C   0  0  0  0  0  0  0  0  0  0  0  0
  -30.9180  -19.0870   20.8390 C   0  0  0  0  0  0  0  0  0  0  0  0
  -29.5990  -20.2750   19.2940 C   0  0  0  0  0  0  0  0  0  0  0  0
  -30.9110  -22.7010   22.0120 C   0  0  0  0  0  1  0  0  0  0  0  0
  -30.1780  -19.1260   19.7190 N   0  0  0  0  0  0  0  0  0  0  0  0
  -27.1790  -20.3320   18.5720 C   0  0  0  0  0  1  0  0  0  0  0  0
  -28.5830  -18.5690   17.6430 C   0  0  0  0  0  1  0  0  0  0  0  0
  -28.6270  -20.0590   18.0940 C   0  0  2  0  0  0  0  0  0  0  0  0
  -29.4620  -20.2650   15.5570 C   0  0  0  0  0  1  0  0  0  0  0  0
  -29.0070  -20.9540   16.8630 C   0  0  0  0  0  2  0  0  0  0  0  0
  -30.4520  -17.1620   22.4190 C   0  0  0  0  0  1  0  0  0  0  0  0
  -31.3820  -17.7010   21.3100 C   0  0  0  0  0  3  0  0  0  0  0  0
  -31.5770  -16.7090   20.1380 C   0  0  0  0  0  2  0  0  0  0  0  0
  -32.2190  -14.2740   20.0080 C   0  0  0  0  0  0  0  0  0  0  0  0
  -31.7970  -12.0320   19.0800 C   0  0  0  0  0  2  0  0  0  0  0  0
  -30.7920  -12.1950   17.9170 C   0  0  0  0  0  2  0  0  0  0  0  0
  -29.3370  -12.1850   18.4320 C   0  0  0  0  0  2  0  0  0  0  0  0
  -29.1210  -13.1390   19.6360 C   0  0  0  0  0  3  0  0  0  0  0  0
  -30.2190  -12.9190   20.7020 C   0  0  0  0  0  2  0  0  0  0  0  0
  -31.5320  -13.1030   20.0490 N   0  0  0  0  0  0  0  0  0  0  0  0
  -33.2830  -14.4260   19.3980 O   0  0  0  0  0  0  0  0  0  0  0  0
  -31.5410  -15.2980   20.5410 N   0  0  0  0  0  0  0  0  0  0  0  0
  -30.7210  -15.0180   21.0570 H   0  0  0  0  0  0  0  0  0  0  0  0
  -26.8990  -13.9810   20.6320 C   0  0  0  0  0  0  0  0  0  0  0  0
  -25.7590  -13.3240   21.0080 C   0  0  0  0  0  0  0  0  0  0  0  0
  -26.0080  -11.9370   20.7680 C   0  0  0  0  0  0  0  0  0  0  0  0
  -27.7800  -13.0020   20.1990 N   0  0  0  0  0  0  0  0  0  0  0  0
  -27.2480  -11.7600   20.3330 N   0  0  0  0  0  0  0  0  0  0  0  0
  -25.1200  -10.7730   20.8770 C   0  0  0  0  0  0  0  0  0  0  0  0
  -25.3650   -9.7420   21.8100 C   0  0  0  0  0  3  0  0  0  0  0  0
  -24.4890   -8.6410   21.9070 C   0  0  0  0  0  3  0  0  0  0  0  0
  -23.3500   -8.5620   21.0690 C   0  0  0  0  0  0  0  0  0  0  0  0
  -23.1240   -9.5800   20.1250 C   0  0  0  0  0  3  0  0  0  0  0  0
  -24.0000  -10.6740   20.0260 C   0  0  0  0  0  3  0  0  0  0  0  0
  -22.4590   -7.5180   21.0760 O   0  0  0  0  0  0  0  0  0  0  0  0
  -22.0720   -6.9090   22.2420 C   0  0  0  0  0  0  0  0  0  0  0  0
  -21.4700   -7.6310   23.2950 C   0  0  0  0  0  3  0  0  0  0  0  0
  -21.0220   -6.9540   24.4460 C   0  0  0  0  0  3  0  0  0  0  0  0
  -21.1670   -5.5580   24.5450 C   0  0  0  0  0  0  0  0  0  0  0  0
  -21.7610   -4.8370   23.4950 C   0  0  0  0  0  3  0  0  0  0  0  0
  -22.2090   -5.5110   22.3450 C   0  0  0  0  0  0  0  0  0  0  0  0
  -22.7620   -4.8080   21.3270 F   0  0  0  0  0  0  0  0  0  0  0  0
  -20.7300   -4.9060   25.6480 F   0  0  0  0  0  0  0  0  0  0  0  0
  -24.4740  -13.9480   21.4720 C   0  0  0  0  0  0  0  0  0  0  0  0
  -23.7430  -13.2680   22.3470 N   0  0  0  0  0  0  0  0  0  0  0  0
  -24.1330  -15.0690   21.0960 O   0  0  0  0  0  0  0  0  0  0  0  0
  -24.0270  -12.3550   22.6690 H   0  0  0  0  0  0  0  0  0  0  0  0
  -22.8840  -13.6640   22.7010 H   0  0  0  0  0  0  0  0  0  0  0  0
  -27.2540  -15.3270   20.6060 N   0  0  0  0  0  0  0  0  0  0  0  0
  -26.6220  -16.0640   20.9010 H   0  0  0  0  0  0  0  0  0  0  0  0
  -28.1250  -15.6820   20.2330 H   0  0  0  0  0  0  0  0  0  0  0  0
  -28.9700  -22.7910   19.7230 C   0  0  0  0  0  2  0  0  0  0  0  0
  -29.5760  -23.8530   18.7660 C   0  0  0  0  0  2  0  0  0  0  0  0
  -29.0980  -25.2700   19.1620 C   0  0  0  0  0  2  0  0  0  0  0  0
  -28.7370  -26.0950   18.0470 O   0  0  0  0  0  0  0  0  0  0  0  0
  -24.7970  -30.1170   22.4000 C   0  0  0  0  0  0  0  0  0  0  0  0
  -27.5540  -26.7620   18.2450 C   0  0  0  0  0  0  0  0  0  0  0  0
  -23.6020  -29.0710   20.5030 C   0  0  0  0  0  3  0  0  0  0  0  0
  -25.0770  -28.0290   18.7020 C   0  0  0  0  0  0  0  0  0  0  0  0
  -26.0870  -29.6520   20.3170 C   0  0  0  0  0  2  0  0  0  0  0  0
  -26.2260  -28.4880   19.3580 C   0  0  0  0  0  0  0  0  0  0  0  0
  -27.4720  -27.8620   19.1270 C   0  0  0  0  0  3  0  0  0  0  0  0
  -26.3920  -26.3100   17.5900 C   0  0  0  0  0  3  0  0  0  0  0  0
  -25.1520  -26.9370   17.8170 C   0  0  0  0  0  3  0  0  0  0  0  0
  -23.7850  -28.7570   18.9950 C   0  0  0  0  0  2  0  0  0  0  0  0
  -24.8490  -29.6160   21.1330 N   0  0  0  0  0  0  0  0  0  0  0  0
  -23.7290  -30.1720   23.0240 O   0  0  0  0  0  0  0  0  0  0  0  0
  -23.0600  -27.8060   21.2060 C   0  0  0  0  0  0  0  0  0  0  0  0
  -21.7350  -27.5980   21.1270 N   0  0  0  0  0  0  0  0  0  0  0  0
  -23.8250  -27.0260   21.7800 O   0  0  0  0  0  0  0  0  0  0  0  0
  -21.1770  -28.2910   20.6480 H   0  0  0  0  0  0  0  0  0  0  0  0
  -18.4450  -26.1620   21.5380 C   0  0  0  0  0  0  0  0  0  0  0  0
  -21.0090  -26.4550   21.6800 C   0  0  0  0  0  3  0  0  0  0  0  0
  -21.0980  -25.2310   20.7390 C   0  0  0  0  0  2  0  0  0  0  0  0
  -19.9250  -25.1360   19.7600 C   0  0  0  0  0  2  0  0  0  0  0  0
  -18.5980  -25.0460   20.5190 C   0  0  0  0  0  2  0  0  0  0  0  0
  -19.5770  -26.8350   22.0710 C   0  0  0  0  0  0  0  0  0  0  0  0
  -19.3780  -27.8890   22.9880 C   0  0  0  0  0  3  0  0  0  0  0  0
  -18.0800  -28.2690   23.3760 C   0  0  0  0  0  3  0  0  0  0  0  0
  -16.9640  -27.5890   22.8580 C   0  0  0  0  0  3  0  0  0  0  0  0
  -17.1480  -26.5360   21.9450 C   0  0  0  0  0  3  0  0  0  0  0  0
  -26.0720  -30.6680   23.1150 C   0  0  0  0  0  3  0  0  0  0  0  0
  -25.6930  -31.9090   23.8010 N   0  0  0  0  0  0  0  0  0  0  0  0
  -26.0070  -33.1400   23.3750 C   0  0  0  0  0  0  0  0  0  0  0  0
  -26.7180  -33.3460   22.3870 O   0  0  0  0  0  0  0  0  0  0  0  0
  -25.0670  -31.8190   24.5880 H   0  0  0  0  0  0  0  0  0  0  0  0
  -24.2310  -34.9190   23.4330 C   0  0  0  0  0  1  0  0  0  0  0  0
  -25.4450  -34.3330   24.1720 C   0  0  0  0  0  3  0  0  0  0  0  0
  -27.4960  -34.9990   25.3430 C   0  0  0  0  0  1  0  0  0  0  0  0
  -26.4400  -35.3990   24.4180 N   0  0  0  0  0  0  0  0  0  0  0  0
  -25.9910  -36.2320   24.7890 H   0  0  0  0  0  0  0  0  0  0  0  0
  -26.7090  -29.6410   24.1300 C   0  0  1  0  0  0  0  0  0  0  0  0
  -25.7010  -29.0690   25.1540 C   0  0  0  0  0  1  0  0  0  0  0  0
  -27.3440  -28.4510   23.3740 C   0  0  0  0  0  1  0  0  0  0  0  0
  -27.8520  -30.3240   24.9190 C   0  0  0  0  0  1  0  0  0  0  0  0
  2  1  1  0
  2  6  1  0
  3  2  2  0
  4 14  1  0
  4  1  2  0
  5  7  2  0
  5  3  1  0
  7  4  1  0
 10  9  1  6
 10  8  1  0
 10  5  1  0
 11 12  1  0
 12 10  1  0
 14 13  1  0
 15 24  1  0
 15 14  1  0
 16 22  1  0
 16 24  1  0
 17 22  1  0
 18 19  1  0
 18 17  1  0
 20 19  1  0
 20 29  1  0
 20 21  1  0
 22 21  1  0
 23 16  2  0
 24 25  1  0
 26 27  2  0
 27 46  1  0
 28 31  1  0
 28 27  1  0
 29 30  1  0
 29 26  1  0
 30 28  2  0
 31 32  1  0
 32 33  2  0
 34 37  1  0
 34 33  1  0
 35 34  2  0
 36 35  1  0
 36 31  2  0
 37 38  1  0
 38 43  2  0
 38 39  1  0
 39 40  2  0
 40 41  1  0
 41 45  1  0
 42 41  2  0
 43 42  1  0
 44 43  1  0
 46 47  1  0
 47 49  1  0
 47 50  1  0
 48 46  2  0
 51 26  1  0
 51 52  1  0
 53 51  1  0
 54  3  1  0
 55 56  1  0
 55 54  1  0
 57 59  1  0
 57 56  1  0
 58 69  2  0
 59 64  1  0
 60 68  1  0
 60 70  1  0
 61 67  1  0
 61 63  1  0
 62 68  1  0
 63 62  1  0
 64 63  2  0
 65 66  1  0
 65 59  2  0
 66 61  2  0
 67 60  1  0
 68 58  1  0
 70 72  2  0
 71 70  1  0
 73 71  1  0
 74 83  2  0
 74 79  1  0
 75 71  1  0
 75 79  1  0
 76 75  1  0
 77 78  1  0
 77 76  1  0
 78 74  1  0
 79 80  2  0
 80 81  1  0
 82 81  2  0
 83 82  1  0
 84 58  1  0
 84 85  1  0
 84 94  1  0
 85 88  1  0
 86 85  1  0
 86 90  1  0
 87 86  2  0
 90 89  1  0
 90 92  1  0
 92 93  1  0
 92 91  1  0
 94 97  1  1
 94 95  1  0
 96 94  1  0
M  ISO  4  16 100  24 100  56 101  57 101
M  END
>  <TORSDO>  (28) 
F 23

>  <SCORE>  (28) 
-8.478

>  <name>  (28) 
29

>  <ligand_id>  (28) 
29

>  <original_smiles>  (28) 
[H]c1c([H])c([H])c2c(c1[H])C([H])([H])C([H])([H])C([H])([H])C2([H])N([H])C(=O)C1([H])N(C(=O)C([H])(N([H])C(=O)C([H])(N([H])C([H])([H])[H])C([H])([H])[H])C(C([H])([H])[H])(C([H])([H])[H])C([H])([H])[H])C([H])([H])c2c([H])c(OC([H])([H])C([H])([H])C([H])([H])c3c(C(C([H])([H])[H])(C([H])([H])[H])C([H])([H])C([H])([H])[H])nc(C([H])(C([H])([H])[H])C([H])([H])N([H])C(=O)N4C([H])([H])C([H])([H])C([H])([H])C([H])(n5nc(-c6c([H])c([H])c(Oc7c([H])c([H])c(F)c([H])c7F)c([H])c6[H])c(C(=O)N([H])[H])c5N([H])[H])C4([H])[H])c([H])c3C([H])([H])[H])c([H])c([H])c2C1([H])[H]

>  <smiles>  (28) 
[H]c1c([H])c([H])c2c(c1[H])C([H])([H])C([H])([H])C([H])([H])C2([H])N([H])C(=O)C1([H])N(C(=O)C([H])(N([H])C(=O)C([H])(N([H])C([H])([H])[H])C([H])([H])[H])C(C([H])([H])[H])(C([H])([H])[H])C([H])([H])[H])C([H])([H])c2c([H])c(OC([H])([H])C([H])([H])C([H])([H])c3c(C(C([H])([H])[H])(C([H])([H])[H])C([H])([H])C([H])([H])[H])nc(C([H])(C([H])([H])[H])C([H])([H])N([H])C(=O)N4C([H])([H])C([H])([H])C([H])([H])C([H])(n5nc(-c6c([H])c([H])c(Oc7c([H])c([H])c(F)c([H])c7F)c([H])c6[H])c(C(=O)N([H])[H])c5N([H])[H])C4([H])[H])c([H])c3C([H])([H])[H])c([H])c([H])c2C1([H])[H]

$$$$
30:0:0
     RDKit          3D

 91 99  0  0  1  0  0  0  0  0999 V2000
  -29.6530  -21.4060   19.7400 C   0  0  0  0  0  3  0  0  0  0  0  0
  -27.7490  -19.9500   19.9560 C   0  0  0  0  0  3  0  0  0  0  0  0
  -29.1350  -20.0470   19.7730 C   0  0  0  0  0  0  0  0  0  0  0  0
  -28.7940  -22.5670   19.9230 C   0  0  0  0  0  0  0  0  0  0  0  0
  -27.4250  -22.2590   20.1510 C   0  0  0  0  0  0  0  0  0  0  0  0
  -26.3700  -23.2990   20.4950 C   0  0  0  0  0  1  0  0  0  0  0  0
  -26.9300  -21.0030   20.1340 N   0  0  0  0  0  0  0  0  0  0  0  0
  -31.1090  -18.8440   18.5680 C   0  0  0  0  0  1  0  0  0  0  0  0
  -29.8900  -18.6740   19.4830 C   0  0  0  0  0  3  0  0  0  0  0  0
  -30.2440  -17.6750   20.6920 C   0  0  0  0  0  2  0  0  0  0  0  0
  -30.8500  -15.1120   20.3160 C   0  0  0  0  0  0  0  0  0  0  0  0
  -30.7250  -12.7970   19.3880 C   0  0  0  0  0  2  0  0  0  0  0  0
  -29.8050  -12.8030   18.1470 C   0  0  0  0  0  2  0  0  0  0  0  0
  -28.3260  -12.6380   18.5580 C   0  0  0  0  0  2  0  0  0  0  0  0
  -27.9220  -13.5770   19.7250 C   0  0  0  0  0  3  0  0  0  0  0  0
  -28.9580  -13.5280   20.8670 C   0  0  0  0  0  2  0  0  0  0  0  0
  -30.2610  -13.8730   20.2860 N   0  0  0  0  0  0  0  0  0  0  0  0
  -32.0380  -15.2600   20.0140 O   0  0  0  0  0  0  0  0  0  0  0  0
  -30.0090  -16.1850   20.5090 N   0  0  0  0  0  0  0  0  0  0  0  0
  -29.0520  -15.9050   20.6590 H   0  0  0  0  0  0  0  0  0  0  0  0
  -25.5280  -14.1830   20.4260 C   0  0  0  0  0  0  0  0  0  0  0  0
  -24.4540  -13.4130   20.7850 C   0  0  0  0  0  0  0  0  0  0  0  0
  -24.9130  -12.0620   20.7610 C   0  0  0  0  0  0  0  0  0  0  0  0
  -26.5700  -13.2990   20.2000 N   0  0  0  0  0  0  0  0  0  0  0  0
  -26.2060  -12.0190   20.4640 N   0  0  0  0  0  0  0  0  0  0  0  0
  -24.1790  -10.8020   20.9450 C   0  0  0  0  0  0  0  0  0  0  0  0
  -24.5770   -9.8480   21.9060 C   0  0  0  0  0  3  0  0  0  0  0  0
  -23.8450   -8.6530   22.0750 C   0  0  0  0  0  3  0  0  0  0  0  0
  -22.7000   -8.4050   21.2810 C   0  0  0  0  0  0  0  0  0  0  0  0
  -22.3210   -9.3470   20.3090 C   0  0  0  0  0  3  0  0  0  0  0  0
  -23.0560  -10.5340   20.1390 C   0  0  0  0  0  3  0  0  0  0  0  0
  -21.9410   -7.2610   21.3600 O   0  0  0  0  0  0  0  0  0  0  0  0
  -21.8300   -6.5500   22.5270 C   0  0  0  0  0  0  0  0  0  0  0  0
  -21.3120   -7.1300   23.7060 C   0  0  0  0  0  3  0  0  0  0  0  0
  -21.1490   -6.3440   24.8640 C   0  0  0  0  0  3  0  0  0  0  0  0
  -21.4950   -4.9790   24.8440 C   0  0  0  0  0  0  0  0  0  0  0  0
  -22.0050   -4.3990   23.6700 C   0  0  0  0  0  3  0  0  0  0  0  0
  -22.1700   -5.1820   22.5140 C   0  0  0  0  0  0  0  0  0  0  0  0
  -22.6430   -4.6140   21.3780 F   0  0  0  0  0  0  0  0  0  0  0  0
  -21.3330   -4.2210   25.9530 F   0  0  0  0  0  0  0  0  0  0  0  0
  -23.0560  -13.8970   21.0380 C   0  0  0  0  0  0  0  0  0  0  0  0
  -22.3170  -13.2070   21.9010 N   0  0  0  0  0  0  0  0  0  0  0  0
  -22.6280  -14.9220   20.5090 O   0  0  0  0  0  0  0  0  0  0  0  0
  -22.6770  -12.3780   22.3490 H   0  0  0  0  0  0  0  0  0  0  0  0
  -21.3780  -13.5130   22.1140 H   0  0  0  0  0  0  0  0  0  0  0  0
  -25.6990  -15.5520   20.2460 N   0  0  0  0  0  0  0  0  0  0  0  0
  -24.9230  -16.2010   20.3230 H   0  0  0  0  0  0  0  0  0  0  0  0
  -26.5310  -15.9790   19.8640 H   0  0  0  0  0  0  0  0  0  0  0  0
  -29.3120  -24.0810   20.0290 C   0  0  0  0  0  2  0  0  0  0  0  0
  -28.5830  -25.3050   19.2650 C   0  0  0  0  0  2  0  0  0  0  0  0
  -28.7440  -26.7360   19.7120 O   0  0  0  0  0  0  0  0  0  0  0  0
  -24.7580  -31.7420   23.1440 C   0  0  0  0  0  0  0  0  0  0  0  0
  -27.6210  -27.5960   19.6960 C   0  0  0  0  0  0  0  0  0  0  0  0
  -23.6550  -30.4620   21.3520 C   0  0  0  0  0  3  0  0  0  0  0  0
  -25.1990  -29.1390   19.7950 C   0  0  0  0  0  0  0  0  0  0  0  0
  -26.1840  -30.8930   21.2650 C   0  0  0  0  0  2  0  0  0  0  0  0
  -26.3360  -29.5950   20.4770 C   0  0  0  0  0  0  0  0  0  0  0  0
  -27.5470  -28.8320   20.4240 C   0  0  0  0  0  3  0  0  0  0  0  0
  -26.4660  -27.2300   18.9690 C   0  0  0  0  0  3  0  0  0  0  0  0
  -25.2710  -27.9680   19.0290 C   0  0  0  0  0  3  0  0  0  0  0  0
  -23.9230  -29.9480   19.9140 C   0  0  0  0  0  2  0  0  0  0  0  0
  -24.8830  -31.0440   21.9790 N   0  0  0  0  0  0  0  0  0  0  0  0
  -23.6520  -31.9130   23.6780 O   0  0  0  0  0  0  0  0  0  0  0  0
  -23.0260  -29.3200   22.1860 C   0  0  0  0  0  0  0  0  0  0  0  0
  -21.7040  -29.1230   22.0440 N   0  0  0  0  0  0  0  0  0  0  0  0
  -23.7290  -28.6180   22.9190 O   0  0  0  0  0  0  0  0  0  0  0  0
  -21.1930  -29.7370   21.4260 H   0  0  0  0  0  0  0  0  0  0  0  0
  -18.3530  -27.8390   22.5070 C   0  0  0  0  0  0  0  0  0  0  0  0
  -20.9190  -28.0790   22.7060 C   0  0  0  0  0  3  0  0  0  0  0  0
  -21.0020  -26.7430   21.9280 C   0  0  0  0  0  2  0  0  0  0  0  0
  -19.8600  -26.5610   20.9240 C   0  0  0  0  0  2  0  0  0  0  0  0
  -18.5050  -26.6030   21.6360 C   0  0  0  0  0  2  0  0  0  0  0  0
  -19.4870  -28.5410   22.9960 C   0  0  0  0  0  0  0  0  0  0  0  0
  -19.2910  -29.7020   23.7740 C   0  0  0  0  0  3  0  0  0  0  0  0
  -17.9940  -30.1710   24.0550 C   0  0  0  0  0  3  0  0  0  0  0  0
  -16.8740  -29.4630   23.5830 C   0  0  0  0  0  3  0  0  0  0  0  0
  -17.0540  -28.2960   22.8190 C   0  0  0  0  0  3  0  0  0  0  0  0
  -25.9950  -32.3700   23.8530 C   0  0  0  0  0  3  0  0  0  0  0  0
  -26.4940  -31.5290   25.0920 C   0  0  1  0  0  0  0  0  0  0  0  0
  -25.3690  -31.1800   26.0950 C   0  0  0  0  0  1  0  0  0  0  0  0
  -27.1380  -30.2010   24.6330 C   0  0  0  0  0  1  0  0  0  0  0  0
  -27.6020  -32.3060   25.8410 C   0  0  0  0  0  1  0  0  0  0  0  0
  -25.6240  -33.7320   24.2660 N   0  0  0  0  0  0  0  0  0  0  0  0
  -25.9330  -34.8430   23.5860 C   0  0  0  0  0  0  0  0  0  0  0  0
  -26.6240  -34.8330   22.5630 O   0  0  0  0  0  0  0  0  0  0  0  0
  -25.0020  -33.8040   25.0590 H   0  0  0  0  0  0  0  0  0  0  0  0
  -24.1320  -36.5780   23.3330 C   0  0  0  0  0  1  0  0  0  0  0  0
  -25.3890  -36.1820   24.1210 C   0  0  0  0  0  3  0  0  0  0  0  0
  -27.4800  -37.1070   25.0180 C   0  0  0  0  0  1  0  0  0  0  0  0
  -26.3800  -37.2800   24.0730 N   0  0  0  0  0  0  0  0  0  0  0  0
  -25.9380  -38.1740   24.2650 H   0  0  0  0  0  0  0  0  0  0  0  0
  1  3  2  0
  1  4  1  0
  2  7  2  0
  3  2  1  0
  4 49  1  0
  4  5  2  0
  5  6  1  0
  7  5  1  0
  9  8  1  0
  9  3  1  0
  9 10  1  0
 11 19  1  0
 12 17  1  0
 13 14  1  0
 13 12  1  0
 15 14  1  0
 15 24  1  0
 15 16  1  0
 17 11  1  0
 17 16  1  0
 18 11  2  0
 19 20  1  0
 19 10  1  0
 21 22  2  0
 22 41  1  0
 23 22  1  0
 23 26  1  0
 24 21  1  0
 24 25  1  0
 25 23  2  0
 26 27  1  0
 27 28  2  0
 29 32  1  0
 29 28  1  0
 30 29  2  0
 31 30  1  0
 31 26  2  0
 32 33  1  0
 33 34  1  0
 34 35  2  0
 36 35  1  0
 36 40  1  0
 37 36  2  0
 38 33  2  0
 38 37  1  0
 39 38  1  0
 41 42  1  0
 42 45  1  0
 42 44  1  0
 43 41  2  0
 46 47  1  0
 46 21  1  0
 48 46  1  0
 50 51  1  0
 50 49  1  0
 52 63  2  0
 53 51  1  0
 53 58  1  0
 54 62  1  0
 54 64  1  0
 55 61  1  0
 55 57  1  0
 56 62  1  0
 57 56  1  0
 58 57  2  0
 59 60  1  0
 59 53  2  0
 60 55  2  0
 61 54  1  0
 62 52  1  0
 64 66  2  0
 65 64  1  0
 67 65  1  0
 68 77  2  0
 68 73  1  0
 69 65  1  0
 69 73  1  0
 70 69  1  0
 71 72  1  0
 71 70  1  0
 72 68  1  0
 73 74  2  0
 74 75  1  0
 76 75  2  0
 77 76  1  0
 78 52  1  0
 78 83  1  0
 78 79  1  0
 79 82  1  1
 79 80  1  0
 81 79  1  0
 83 86  1  0
 84 88  1  0
 84 83  1  0
 85 84  2  0
 88 87  1  0
 90 88  1  0
 90 91  1  0
 90 89  1  0
M  ISO  4  11 100  19 100  50 101  51 101
M  END
>  <TORSDO>  (29) 
F 20

>  <SCORE>  (29) 
-12.294

>  <name>  (29) 
30

>  <ligand_id>  (29) 
30

>  <original_smiles>  (29) 
[H]c1nc(C([H])([H])[H])c(C([H])([H])C([H])([H])Oc2c([H])c([H])c3c(c2[H])C([H])([H])N(C(=O)C([H])(N([H])C(=O)C([H])(N([H])C([H])([H])[H])C([H])([H])[H])C(C([H])([H])[H])(C([H])([H])[H])C([H])([H])[H])C([H])(C(=O)N([H])C2([H])c4c([H])c([H])c([H])c([H])c4C([H])([H])C([H])([H])C2([H])[H])C3([H])[H])c([H])c1C([H])(C([H])([H])[H])C([H])([H])N([H])C(=O)N1C([H])([H])C([H])([H])C([H])([H])C([H])(n2nc(-c3c([H])c([H])c(Oc4c([H])c([H])c(F)c([H])c4F)c([H])c3[H])c(C(=O)N([H])[H])c2N([H])[H])C1([H])[H]

>  <smiles>  (29) 
[H]c1nc(C([H])([H])[H])c(C([H])([H])C([H])([H])Oc2c([H])c([H])c3c(c2[H])C([H])([H])N(C(=O)C([H])(N([H])C(=O)C([H])(N([H])C([H])([H])[H])C([H])([H])[H])C(C([H])([H])[H])(C([H])([H])[H])C([H])([H])[H])C([H])(C(=O)N([H])C2([H])c4c([H])c([H])c([H])c([H])c4C([H])([H])C([H])([H])C2([H])[H])C3([H])[H])c([H])c1C([H])(C([H])([H])[H])C([H])([H])N([H])C(=O)N1C([H])([H])C([H])([H])C([H])([H])C([H])(n2nc(-c3c([H])c([H])c(Oc4c([H])c([H])c(F)c([H])c4F)c([H])c3[H])c(C(=O)N([H])[H])c2N([H])[H])C1([H])[H]

$$$$
31:0:0
     RDKit          3D

 88 96  0  0  1  0  0  0  0  0999 V2000
  -28.9750  -22.3870   19.4670 C   0  0  0  0  0  2  0  0  0  0  0  0
  -30.1330  -19.9940   19.6610 C   0  0  0  0  0  3  0  0  0  0  0  0
  -29.7440  -18.7470   20.1440 C   0  0  0  0  0  0  0  0  0  0  0  0
  -28.5090  -18.9980   20.7600 N   0  0  0  0  0  0  0  0  0  0  0  0
  -28.1580  -20.2700   20.6350 N   0  0  0  0  0  0  0  0  0  0  0  0
  -29.1420  -20.9490   19.9770 N   0  0  0  0  0  0  0  0  0  0  0  0
  -30.5530  -17.3800   20.1480 C   0  0  0  0  0  2  0  0  0  0  0  0
  -30.6600  -14.8060   19.9840 C   0  0  0  0  0  0  0  0  0  0  0  0
  -30.3660  -12.5520   18.9470 C   0  0  0  0  0  2  0  0  0  0  0  0
  -29.3590  -12.6430   17.7820 C   0  0  0  0  0  2  0  0  0  0  0  0
  -27.9190  -12.4670   18.2970 C   0  0  0  0  0  2  0  0  0  0  0  0
  -27.6200  -13.3320   19.5520 C   0  0  0  0  0  3  0  0  0  0  0  0
  -28.7460  -13.2390   20.6040 C   0  0  0  0  0  2  0  0  0  0  0  0
  -30.0000  -13.5980   19.9310 N   0  0  0  0  0  0  0  0  0  0  0  0
  -31.8310  -14.8690   19.6000 O   0  0  0  0  0  0  0  0  0  0  0  0
  -29.9630  -15.9760   20.2530 N   0  0  0  0  0  0  0  0  0  0  0  0
  -28.9900  -15.9060   20.5060 H   0  0  0  0  0  0  0  0  0  0  0  0
  -25.2870  -13.8990   20.4490 C   0  0  0  0  0  0  0  0  0  0  0  0
  -24.2450  -13.1150   20.8650 C   0  0  0  0  0  0  0  0  0  0  0  0
  -24.7050  -11.7650   20.7690 C   0  0  0  0  0  0  0  0  0  0  0  0
  -26.3120  -13.0280   20.1230 N   0  0  0  0  0  0  0  0  0  0  0  0
  -25.9740  -11.7380   20.3780 N   0  0  0  0  0  0  0  0  0  0  0  0
  -23.9890  -10.4980   20.9700 C   0  0  0  0  0  0  0  0  0  0  0  0
  -24.4470   -9.5280   21.8890 C   0  0  0  0  0  3  0  0  0  0  0  0
  -23.7310   -8.3260   22.0780 C   0  0  0  0  0  3  0  0  0  0  0  0
  -22.5430   -8.0850   21.3480 C   0  0  0  0  0  0  0  0  0  0  0  0
  -22.1040   -9.0430   20.4180 C   0  0  0  0  0  3  0  0  0  0  0  0
  -22.8200  -10.2370   20.2270 C   0  0  0  0  0  3  0  0  0  0  0  0
  -21.7950   -6.9370   21.4490 O   0  0  0  0  0  0  0  0  0  0  0  0
  -21.7450   -6.2110   22.6120 C   0  0  0  0  0  0  0  0  0  0  0  0
  -21.2610   -6.7660   23.8160 C   0  0  0  0  0  3  0  0  0  0  0  0
  -21.1620   -5.9640   24.9720 C   0  0  0  0  0  3  0  0  0  0  0  0
  -21.5330   -4.6060   24.9210 C   0  0  0  0  0  0  0  0  0  0  0  0
  -22.0080   -4.0510   23.7200 C   0  0  0  0  0  3  0  0  0  0  0  0
  -22.1100   -4.8500   22.5680 C   0  0  0  0  0  0  0  0  0  0  0  0
  -22.5490   -4.3040   21.4080 F   0  0  0  0  0  0  0  0  0  0  0  0
  -21.4290   -3.8340   26.0270 F   0  0  0  0  0  0  0  0  0  0  0  0
  -22.8680  -13.5840   21.2340 C   0  0  0  0  0  0  0  0  0  0  0  0
  -22.1930  -12.8640   22.1230 N   0  0  0  0  0  0  0  0  0  0  0  0
  -22.4030  -14.6240   20.7700 O   0  0  0  0  0  0  0  0  0  0  0  0
  -22.5830  -12.0220   22.5210 H   0  0  0  0  0  0  0  0  0  0  0  0
  -21.2710  -13.1590   22.4110 H   0  0  0  0  0  0  0  0  0  0  0  0
  -25.4400  -15.2740   20.2970 N   0  0  0  0  0  0  0  0  0  0  0  0
  -24.6800  -15.9220   20.4760 H   0  0  0  0  0  0  0  0  0  0  0  0
  -26.2600  -15.7260   19.9140 H   0  0  0  0  0  0  0  0  0  0  0  0
  -28.6240  -23.6810   20.3820 C   0  0  0  0  0  3  0  0  0  0  0  0
  -28.4920  -25.1120   19.6150 C   0  0  0  0  0  3  0  0  0  0  0  0
  -28.3600  -26.4530   20.2910 O   0  0  0  0  0  0  0  0  0  0  0  0
  -24.5890  -31.8990   23.2340 C   0  0  0  0  0  0  0  0  0  0  0  0
  -27.2330  -27.3070   20.1970 C   0  0  0  0  0  0  0  0  0  0  0  0
  -23.4060  -30.5020   21.5800 C   0  0  0  0  0  3  0  0  0  0  0  0
  -24.8720  -28.9530   20.1640 C   0  0  0  0  0  0  0  0  0  0  0  0
  -25.9510  -30.8130   21.4270 C   0  0  0  0  0  2  0  0  0  0  0  0
  -26.0360  -29.4330   20.7740 C   0  0  0  0  0  0  0  0  0  0  0  0
  -27.2160  -28.6210   20.7790 C   0  0  0  0  0  3  0  0  0  0  0  0
  -26.0370  -26.8890   19.5700 C   0  0  0  0  0  3  0  0  0  0  0  0
  -24.8780  -27.6900   19.5530 C   0  0  0  0  0  3  0  0  0  0  0  0
  -23.6360  -29.8290   20.2010 C   0  0  0  0  0  2  0  0  0  0  0  0
  -24.6680  -31.0910   22.1370 N   0  0  0  0  0  0  0  0  0  0  0  0
  -23.4990  -32.1740   23.7580 O   0  0  0  0  0  0  0  0  0  0  0  0
  -22.7340  -29.4840   22.5330 C   0  0  0  0  0  0  0  0  0  0  0  0
  -21.4090  -29.3040   22.3920 N   0  0  0  0  0  0  0  0  0  0  0  0
  -23.4030  -28.8590   23.3600 O   0  0  0  0  0  0  0  0  0  0  0  0
  -20.9280  -29.8610   21.6990 H   0  0  0  0  0  0  0  0  0  0  0  0
  -18.0260  -28.1060   22.8640 C   0  0  0  0  0  0  0  0  0  0  0  0
  -20.5830  -28.3640   23.1520 C   0  0  0  0  0  3  0  0  0  0  0  0
  -20.6890  -26.9350   22.5720 C   0  0  0  0  0  2  0  0  0  0  0  0
  -19.5930  -26.6170   21.5480 C   0  0  0  0  0  2  0  0  0  0  0  0
  -18.2070  -26.7600   22.1840 C   0  0  0  0  0  2  0  0  0  0  0  0
  -19.1420  -28.8660   23.3050 C   0  0  0  0  0  0  0  0  0  0  0  0
  -18.9200  -30.1260   23.9020 C   0  0  0  0  0  3  0  0  0  0  0  0
  -17.6130  -30.6260   24.0620 C   0  0  0  0  0  3  0  0  0  0  0  0
  -16.5110  -29.8640   23.6370 C   0  0  0  0  0  3  0  0  0  0  0  0
  -16.7200  -28.6050   23.0450 C   0  0  0  0  0  3  0  0  0  0  0  0
  -25.8630  -32.5360   23.8730 C   0  0  0  0  0  3  0  0  0  0  0  0
  -26.3550  -31.7770   25.1660 C   0  0  1  0  0  0  0  0  0  0  0  0
  -25.2420  -31.5510   26.2150 C   0  0  0  0  0  1  0  0  0  0  0  0
  -26.9440  -30.3950   24.8000 C   0  0  0  0  0  1  0  0  0  0  0  0
  -27.4930  -32.5780   25.8420 C   0  0  0  0  0  1  0  0  0  0  0  0
  -25.5500  -33.9380   24.1860 N   0  0  0  0  0  0  0  0  0  0  0  0
  -25.8940  -34.9850   23.4240 C   0  0  0  0  0  0  0  0  0  0  0  0
  -26.5760  -34.8720   22.4010 O   0  0  0  0  0  0  0  0  0  0  0  0
  -24.9460  -34.1000   24.9790 H   0  0  0  0  0  0  0  0  0  0  0  0
  -24.1820  -36.7860   23.0300 C   0  0  0  0  0  1  0  0  0  0  0  0
  -25.4060  -36.3780   23.8660 C   0  0  0  0  0  3  0  0  0  0  0  0
  -27.5230  -37.2640   24.7380 C   0  0  0  0  0  1  0  0  0  0  0  0
  -26.4450  -37.4270   23.7660 N   0  0  0  0  0  0  0  0  0  0  0  0
  -26.0390  -38.3490   23.8940 H   0  0  0  0  0  0  0  0  0  0  0  0
  1  6  1  0
  1 46  1  0
  2  6  1  0
  2  3  2  0
  3  7  1  0
  3  4  1  0
  5  4  2  0
  6  5  1  0
  7 16  1  0
  8 16  1  0
  9 14  1  0
 10 11  1  0
 10  9  1  0
 12 11  1  0
 12 21  1  0
 12 13  1  0
 14  8  1  0
 14 13  1  0
 15  8  2  0
 16 17  1  0
 18 19  2  0
 19 38  1  0
 20 19  1  0
 20 23  1  0
 21 22  1  0
 21 18  1  0
 22 20  2  0
 23 24  1  0
 24 25  2  0
 26 29  1  0
 26 25  1  0
 27 26  2  0
 28 27  1  0
 28 23  2  0
 29 30  1  0
 30 31  1  0
 31 32  2  0
 33 32  1  0
 33 37  1  0
 34 33  2  0
 35 30  2  0
 35 34  1  0
 36 35  1  0
 38 39  1  0
 39 42  1  0
 39 41  1  0
 40 38  2  0
 43 18  1  0
 43 44  1  0
 45 43  1  0
 47 48  1  0
 47 46  2  0
 49 60  2  0
 50 48  1  0
 50 55  1  0
 51 59  1  0
 51 61  1  0
 52 58  1  0
 52 54  1  0
 53 59  1  0
 54 55  2  0
 54 53  1  0
 56 50  2  0
 57 56  1  0
 57 52  2  0
 58 51  1  0
 59 49  1  0
 61 63  2  0
 62 61  1  0
 64 62  1  0
 65 74  2  0
 65 70  1  0
 66 62  1  0
 66 70  1  0
 67 66  1  0
 68 69  1  0
 68 67  1  0
 69 65  1  0
 70 71  2  0
 71 72  1  0
 73 72  2  0
 74 73  1  0
 75 49  1  0
 75 80  1  0
 75 76  1  0
 76 79  1  1
 76 77  1  0
 78 76  1  0
 80 83  1  0
 81 85  1  0
 81 80  1  0
 82 81  2  0
 85 84  1  0
 87 85  1  0
 87 88  1  0
 87 86  1  0
M  ISO  4   8 100  16 100  47 101  48 101
M  END
>  <TORSDO>  (30) 
F 20

>  <SCORE>  (30) 
-13.541

>  <name>  (30) 
31

>  <ligand_id>  (30) 
31

>  <original_smiles>  (30) 
[H]c1c([H])c([H])c2c(c1[H])C([H])([H])C([H])([H])C([H])([H])C2([H])N([H])C(=O)C1([H])N(C(=O)C([H])(N([H])C(=O)C([H])(N([H])C([H])([H])[H])C([H])([H])[H])C(C([H])([H])[H])(C([H])([H])[H])C([H])([H])[H])C([H])([H])c2c([H])c(OC([H])([H])C([H])([H])C([H])([H])n3nnc(C([H])([H])N([H])C(=O)N4C([H])([H])C([H])([H])C([H])([H])C([H])(n5nc(-c6c([H])c([H])c(Oc7c([H])c([H])c(F)c([H])c7F)c([H])c6[H])c(C(=O)N([H])[H])c5N([H])[H])C4([H])[H])c3[H])c([H])c([H])c2C1([H])[H]

>  <smiles>  (30) 
[H]c1c([H])c([H])c2c(c1[H])C([H])([H])C([H])([H])C([H])([H])C2([H])N([H])C(=O)C1([H])N(C(=O)C([H])(N([H])C(=O)C([H])(N([H])C([H])([H])[H])C([H])([H])[H])C(C([H])([H])[H])(C([H])([H])[H])C([H])([H])[H])C([H])([H])c2c([H])c(OC([H])([H])C([H])([H])C([H])([H])n3nnc(C([H])([H])N([H])C(=O)N4C([H])([H])C([H])([H])C([H])([H])C([H])(n5nc(-c6c([H])c([H])c(Oc7c([H])c([H])c(F)c([H])c7F)c([H])c6[H])c(C(=O)N([H])[H])c5N([H])[H])C4([H])[H])c3[H])c([H])c([H])c2C1([H])[H]

$$$$
32:0:0
     RDKit          3D

 90 98  0  0  1  0  0  0  0  0999 V2000
  -29.2280  -20.9880   21.0430 C   0  0  0  0  0  3  0  0  0  0  0  0
  -29.1290  -18.3230   21.0000 C   0  0  0  0  0  3  0  0  0  0  0  0
  -29.9310  -17.3040   20.4770 C   0  0  0  0  0  0  0  0  0  0  0  0
  -30.6770  -19.3010   19.7560 C   0  0  0  0  0  3  0  0  0  0  0  0
  -31.5360  -20.3070   19.0630 C   0  0  0  0  0  1  0  0  0  0  0  0
  -29.6200  -19.5660   20.5580 N   0  0  0  0  0  0  0  0  0  0  0  0
  -30.8620  -17.9570   19.7100 N   0  0  0  0  0  0  0  0  0  0  0  0
  -31.6080  -17.5060   19.1950 H   0  0  0  0  0  0  0  0  0  0  0  0
  -30.5890  -14.7680   20.3060 C   0  0  0  0  0  0  0  0  0  0  0  0
  -30.4050  -12.5090   19.2530 C   0  0  0  0  0  2  0  0  0  0  0  0
  -29.4570  -12.6150   18.0360 C   0  0  0  0  0  2  0  0  0  0  0  0
  -27.9900  -12.4350   18.4720 C   0  0  0  0  0  2  0  0  0  0  0  0
  -27.6270  -13.3020   19.7070 C   0  0  0  0  0  3  0  0  0  0  0  0
  -28.6870  -13.1700   20.8220 C   0  0  0  0  0  2  0  0  0  0  0  0
  -29.9880  -13.5310   20.2410 N   0  0  0  0  0  0  0  0  0  0  0  0
  -31.7470  -14.9220   19.9030 O   0  0  0  0  0  0  0  0  0  0  0  0
  -29.7990  -15.8390   20.6820 N   0  0  0  0  0  0  0  0  0  0  0  0
  -28.9240  -15.5510   21.0920 H   0  0  0  0  0  0  0  0  0  0  0  0
  -25.2350  -13.8950   20.4240 C   0  0  0  0  0  0  0  0  0  0  0  0
  -24.1730  -13.1200   20.8010 C   0  0  0  0  0  0  0  0  0  0  0  0
  -24.6410  -11.7710   20.7810 C   0  0  0  0  0  0  0  0  0  0  0  0
  -26.2820  -13.0170   20.1950 N   0  0  0  0  0  0  0  0  0  0  0  0
  -25.9320  -11.7350   20.4720 N   0  0  0  0  0  0  0  0  0  0  0  0
  -23.9210  -10.5070   20.9820 C   0  0  0  0  0  0  0  0  0  0  0  0
  -24.3530   -9.5500   21.9270 C   0  0  0  0  0  3  0  0  0  0  0  0
  -23.6330   -8.3510   22.1140 C   0  0  0  0  0  3  0  0  0  0  0  0
  -22.4650   -8.1000   21.3550 C   0  0  0  0  0  0  0  0  0  0  0  0
  -22.0520   -9.0440   20.3990 C   0  0  0  0  0  3  0  0  0  0  0  0
  -22.7740  -10.2350   20.2100 C   0  0  0  0  0  3  0  0  0  0  0  0
  -21.7150   -6.9520   21.4500 O   0  0  0  0  0  0  0  0  0  0  0  0
  -21.6580   -6.2250   22.6120 C   0  0  0  0  0  0  0  0  0  0  0  0
  -21.2070   -6.7920   23.8240 C   0  0  0  0  0  3  0  0  0  0  0  0
  -21.0970   -5.9900   24.9780 C   0  0  0  0  0  3  0  0  0  0  0  0
  -21.4290   -4.6240   24.9220 C   0  0  0  0  0  0  0  0  0  0  0  0
  -21.8740   -4.0570   23.7140 C   0  0  0  0  0  3  0  0  0  0  0  0
  -21.9850   -4.8540   22.5620 C   0  0  0  0  0  0  0  0  0  0  0  0
  -22.3930   -4.2990   21.3960 F   0  0  0  0  0  0  0  0  0  0  0  0
  -21.3170   -3.8520   26.0280 F   0  0  0  0  0  0  0  0  0  0  0  0
  -22.7730  -13.5940   21.0690 C   0  0  0  0  0  0  0  0  0  0  0  0
  -22.0470  -12.8970   21.9380 N   0  0  0  0  0  0  0  0  0  0  0  0
  -22.3330  -14.6150   20.5450 O   0  0  0  0  0  0  0  0  0  0  0  0
  -22.4170  -12.0700   22.3840 H   0  0  0  0  0  0  0  0  0  0  0  0
  -21.1100  -13.1970   22.1630 H   0  0  0  0  0  0  0  0  0  0  0  0
  -25.3940  -15.2640   20.2330 N   0  0  0  0  0  0  0  0  0  0  0  0
  -24.6160  -15.9090   20.3130 H   0  0  0  0  0  0  0  0  0  0  0  0
  -26.2260  -15.6960   19.8490 H   0  0  0  0  0  0  0  0  0  0  0  0
  -28.8580  -22.2270   20.0660 C   0  0  0  0  0  3  0  0  0  0  0  0
  -28.8310  -23.7360   20.6720 C   0  0  0  0  0  3  0  0  0  0  0  0
  -28.1890  -24.9560   19.8290 C   0  0  0  0  0  3  0  0  0  0  0  0
  -28.2930  -26.3970   20.2620 O   0  0  0  0  0  0  0  0  0  0  0  0
  -24.6170  -31.9070   23.2340 C   0  0  0  0  0  0  0  0  0  0  0  0
  -27.1960  -27.2920   20.1740 C   0  0  0  0  0  0  0  0  0  0  0  0
  -23.4090  -30.5130   21.5960 C   0  0  0  0  0  3  0  0  0  0  0  0
  -24.8520  -28.9620   20.1630 C   0  0  0  0  0  0  0  0  0  0  0  0
  -25.9550  -30.8050   21.4190 C   0  0  0  0  0  2  0  0  0  0  0  0
  -26.0250  -29.4240   20.7700 C   0  0  0  0  0  0  0  0  0  0  0  0
  -27.1960  -28.5980   20.7730 C   0  0  0  0  0  3  0  0  0  0  0  0
  -26.0040  -26.9160   19.5110 C   0  0  0  0  0  3  0  0  0  0  0  0
  -24.8470  -27.7150   19.5240 C   0  0  0  0  0  3  0  0  0  0  0  0
  -23.6220  -29.8460   20.2130 C   0  0  0  0  0  2  0  0  0  0  0  0
  -24.6800  -31.0940   22.1380 N   0  0  0  0  0  0  0  0  0  0  0  0
  -23.5340  -32.1900   23.7670 O   0  0  0  0  0  0  0  0  0  0  0  0
  -22.7440  -29.4960   22.5550 C   0  0  0  0  0  0  0  0  0  0  0  0
  -21.4160  -29.3240   22.4330 N   0  0  0  0  0  0  0  0  0  0  0  0
  -23.4200  -28.8670   23.3730 O   0  0  0  0  0  0  0  0  0  0  0  0
  -20.9280  -29.8860   21.7500 H   0  0  0  0  0  0  0  0  0  0  0  0
  -18.0330  -28.1430   22.9490 C   0  0  0  0  0  0  0  0  0  0  0  0
  -20.5950  -28.3900   23.2060 C   0  0  0  0  0  3  0  0  0  0  0  0
  -20.6860  -26.9570   22.6290 C   0  0  0  0  0  2  0  0  0  0  0  0
  -19.5780  -26.6420   21.6200 C   0  0  0  0  0  2  0  0  0  0  0  0
  -18.1990  -26.7940   22.2700 C   0  0  0  0  0  2  0  0  0  0  0  0
  -19.1580  -28.8990   23.3740 C   0  0  0  0  0  0  0  0  0  0  0  0
  -18.9510  -30.1610   23.9710 C   0  0  0  0  0  3  0  0  0  0  0  0
  -17.6500  -30.6680   24.1470 C   0  0  0  0  0  3  0  0  0  0  0  0
  -16.5390  -29.9100   23.7390 C   0  0  0  0  0  3  0  0  0  0  0  0
  -16.7310  -28.6500   23.1450 C   0  0  0  0  0  3  0  0  0  0  0  0
  -25.9010  -32.5390   23.8530 C   0  0  0  0  0  3  0  0  0  0  0  0
  -26.4240  -31.7620   25.1240 C   0  0  1  0  0  0  0  0  0  0  0  0
  -25.3350  -31.5180   26.1950 C   0  0  0  0  0  1  0  0  0  0  0  0
  -27.0100  -30.3870   24.7260 C   0  0  0  0  0  1  0  0  0  0  0  0
  -27.5770  -32.5550   25.7840 C   0  0  0  0  0  1  0  0  0  0  0  0
  -25.5900  -33.9350   24.1940 N   0  0  0  0  0  0  0  0  0  0  0  0
  -25.9130  -34.9950   23.4410 C   0  0  0  0  0  0  0  0  0  0  0  0
  -26.5760  -34.8990   22.4030 O   0  0  0  0  0  0  0  0  0  0  0  0
  -25.0050  -34.0840   25.0030 H   0  0  0  0  0  0  0  0  0  0  0  0
  -24.1810  -36.7890   23.1100 C   0  0  0  0  0  1  0  0  0  0  0  0
  -25.4270  -36.3790   23.9120 C   0  0  0  0  0  3  0  0  0  0  0  0
  -27.5630  -37.2600   24.7410 C   0  0  0  0  0  1  0  0  0  0  0  0
  -26.4580  -37.4340   23.8030 N   0  0  0  0  0  0  0  0  0  0  0  0
  -26.0510  -38.3530   23.9610 H   0  0  0  0  0  0  0  0  0  0  0  0
  3 17  1  0
  3  2  2  0
  4  5  1  0
  4  6  1  0
  6  2  1  0
  6  1  1  0
  7  4  1  0
  7  3  1  0
  8  7  1  0
  9 17  1  0
 10 15  1  0
 11 12  1  0
 11 10  1  0
 13 12  1  0
 13 22  1  0
 13 14  1  0
 15  9  1  0
 15 14  1  0
 16  9  2  0
 17 18  1  0
 19 20  2  0
 20 39  1  0
 21 20  1  0
 21 24  1  0
 22 19  1  0
 22 23  1  0
 23 21  2  0
 24 25  1  0
 25 26  2  0
 27 30  1  0
 27 26  1  0
 28 27  2  0
 29 28  1  0
 29 24  2  0
 30 31  1  0
 31 32  1  0
 32 33  2  0
 34 33  1  0
 34 38  1  0
 35 34  2  0
 36 31  2  0
 36 35  1  0
 37 36  1  0
 39 40  1  0
 40 43  1  0
 40 42  1  0
 41 39  2  0
 44 45  1  0
 44 19  1  0
 46 44  1  0
 47 48  1  0
 47  1  2  0
 49 50  1  0
 49 48  2  0
 51 62  2  0
 52 50  1  0
 52 57  1  0
 53 61  1  0
 53 63  1  0
 54 60  1  0
 54 56  1  0
 55 61  1  0
 56 57  2  0
 56 55  1  0
 58 59  1  0
 58 52  2  0
 59 54  2  0
 60 53  1  0
 61 51  1  0
 63 65  2  0
 64 63  1  0
 66 64  1  0
 67 76  2  0
 67 72  1  0
 68 64  1  0
 68 72  1  0
 69 68  1  0
 70 71  1  0
 70 69  1  0
 71 67  1  0
 72 73  2  0
 73 74  1  0
 75 74  2  0
 76 75  1  0
 77 51  1  0
 77 82  1  0
 77 78  1  0
 78 81  1  1
 78 79  1  0
 80 78  1  0
 82 85  1  0
 83 87  1  0
 83 82  1  0
 84 83  2  0
 87 86  1  0
 89 87  1  0
 89 90  1  0
 89 88  1  0
M  ISO  4   9 100  17 100  49 101  50 101
M  END
>  <TORSDO>  (31) 
F 20

>  <SCORE>  (31) 
-13.722

>  <name>  (31) 
32

>  <ligand_id>  (31) 
32

>  <original_smiles>  (31) 
[H]c1c([H])c([H])c2c(c1[H])C([H])([H])C([H])([H])C([H])([H])C2([H])N([H])C(=O)C1([H])N(C(=O)C([H])(N([H])C(=O)C([H])(N([H])C([H])([H])[H])C([H])([H])[H])C(C([H])([H])[H])(C([H])([H])[H])C([H])([H])[H])C([H])([H])c2c([H])c(OC([H])([H])C([H])([H])C([H])([H])C([H])([H])n3c([H])c(N([H])C(=O)N4C([H])([H])C([H])([H])C([H])([H])C([H])(n5nc(-c6c([H])c([H])c(Oc7c([H])c([H])c(F)c([H])c7F)c([H])c6[H])c(C(=O)N([H])[H])c5N([H])[H])C4([H])[H])[n+]([H])c3C([H])([H])[H])c([H])c([H])c2C1([H])[H]

>  <smiles>  (31) 
[H]c1c([H])c([H])c2c(c1[H])C([H])([H])C([H])([H])C([H])([H])C2([H])N([H])C(=O)C1([H])N(C(=O)C([H])(N([H])C(=O)C([H])(N([H])C([H])([H])[H])C([H])([H])[H])C(C([H])([H])[H])(C([H])([H])[H])C([H])([H])[H])C([H])([H])c2c([H])c(OC([H])([H])C([H])([H])C([H])([H])C([H])([H])n3c([H])c(N([H])C(=O)N4C([H])([H])C([H])([H])C([H])([H])C([H])(n5nc(-c6c([H])c([H])c(Oc7c([H])c([H])c(F)c([H])c7F)c([H])c6[H])c(C(=O)N([H])[H])c5N([H])[H])C4([H])[H])[n+]([H])c3C([H])([H])[H])c([H])c([H])c2C1([H])[H]

$$$$
33:0:0
     RDKit          3D

 91 99  0  0  1  0  0  0  0  0999 V2000
  -31.4370  -18.9380   19.7790 C   0  0  0  0  0  3  0  0  0  0  0  0
  -30.9470  -20.9300   19.1650 C   0  0  0  0  0  0  0  0  0  0  0  0
  -29.9640  -20.5390   20.0550 C   0  0  0  0  0  0  0  0  0  0  0  0
  -31.0730  -22.2010   18.3870 C   0  0  0  0  0  1  0  0  0  0  0  0
  -31.8880  -19.9190   19.0110 N   0  0  0  0  0  0  0  0  0  0  0  0
  -30.2780  -19.1970   20.4090 N   0  0  0  0  0  0  0  0  0  0  0  0
  -28.7440  -21.3460   20.4960 C   0  0  0  0  0  2  0  0  0  0  0  0
  -28.9840  -22.8090   21.0320 C   0  0  0  0  0  2  0  0  0  0  0  0
  -28.5130  -24.0490   20.1790 C   0  0  0  0  0  2  0  0  0  0  0  0
  -28.4790  -25.4050   20.9710 C   0  0  0  0  0  2  0  0  0  0  0  0
  -28.4620  -26.6430   20.2100 O   0  0  0  0  0  0  0  0  0  0  0  0
  -24.6160  -31.8930   23.2450 C   0  0  0  0  0  0  0  0  0  0  0  0
  -27.3010  -27.4000   20.2340 C   0  0  0  0  0  0  0  0  0  0  0  0
  -23.4320  -30.4780   21.5980 C   0  0  0  0  0  3  0  0  0  0  0  0
  -24.9070  -28.9300   20.2010 C   0  0  0  0  0  0  0  0  0  0  0  0
  -25.9640  -30.8330   21.4290 C   0  0  0  0  0  2  0  0  0  0  0  0
  -26.0620  -29.4540   20.7970 C   0  0  0  0  0  0  0  0  0  0  0  0
  -27.2650  -28.7000   20.8010 C   0  0  0  0  0  3  0  0  0  0  0  0
  -26.1290  -26.8950   19.6370 C   0  0  0  0  0  3  0  0  0  0  0  0
  -24.9380  -27.6510   19.6160 C   0  0  0  0  0  3  0  0  0  0  0  0
  -23.6600  -29.7890   20.2260 C   0  0  0  0  0  2  0  0  0  0  0  0
  -24.6880  -31.0850   22.1480 N   0  0  0  0  0  0  0  0  0  0  0  0
  -23.5280  -32.1660   23.7710 O   0  0  0  0  0  0  0  0  0  0  0  0
  -22.7710  -29.4640   22.5570 C   0  0  0  0  0  0  0  0  0  0  0  0
  -21.4470  -29.2810   22.4190 N   0  0  0  0  0  0  0  0  0  0  0  0
  -23.4460  -28.8410   23.3810 O   0  0  0  0  0  0  0  0  0  0  0  0
  -20.9640  -29.8330   21.7250 H   0  0  0  0  0  0  0  0  0  0  0  0
  -18.0660  -28.0950   22.8990 C   0  0  0  0  0  0  0  0  0  0  0  0
  -20.6240  -28.3460   23.1860 C   0  0  0  0  0  3  0  0  0  0  0  0
  -20.7260  -26.9140   22.6110 C   0  0  0  0  0  2  0  0  0  0  0  0
  -19.6290  -26.5950   21.5900 C   0  0  0  0  0  2  0  0  0  0  0  0
  -18.2430  -26.7450   22.2250 C   0  0  0  0  0  2  0  0  0  0  0  0
  -19.1850  -28.8540   23.3350 C   0  0  0  0  0  0  0  0  0  0  0  0
  -18.9660  -30.1190   23.9230 C   0  0  0  0  0  3  0  0  0  0  0  0
  -17.6630  -30.6250   24.0810 C   0  0  0  0  0  3  0  0  0  0  0  0
  -16.5590  -29.8630   23.6620 C   0  0  0  0  0  3  0  0  0  0  0  0
  -16.7620  -28.5990   23.0760 C   0  0  0  0  0  3  0  0  0  0  0  0
  -25.8930  -32.5310   23.8770 C   0  0  0  0  0  3  0  0  0  0  0  0
  -25.5770  -33.9290   24.1980 N   0  0  0  0  0  0  0  0  0  0  0  0
  -25.9130  -34.9790   23.4380 C   0  0  0  0  0  0  0  0  0  0  0  0
  -26.5930  -34.8730   22.4130 O   0  0  0  0  0  0  0  0  0  0  0  0
  -24.9710  -34.0840   24.9910 H   0  0  0  0  0  0  0  0  0  0  0  0
  -24.1820  -36.7640   23.0590 C   0  0  0  0  0  1  0  0  0  0  0  0
  -25.4170  -36.3680   23.8840 C   0  0  0  0  0  3  0  0  0  0  0  0
  -27.5400  -37.2610   24.7330 C   0  0  0  0  0  1  0  0  0  0  0  0
  -26.4470  -37.4240   23.7780 N   0  0  0  0  0  0  0  0  0  0  0  0
  -26.0360  -38.3440   23.9190 H   0  0  0  0  0  0  0  0  0  0  0  0
  -26.4020  -31.7660   25.1600 C   0  0  1  0  0  0  0  0  0  0  0  0
  -25.3000  -31.5270   26.2180 C   0  0  0  0  0  1  0  0  0  0  0  0
  -26.9930  -30.3900   24.7760 C   0  0  0  0  0  1  0  0  0  0  0  0
  -27.5440  -32.5670   25.8290 C   0  0  0  0  0  1  0  0  0  0  0  0
  -29.5470  -18.2450   21.2740 C   0  0  0  0  0  2  0  0  0  0  0  0
  -30.1700  -16.7980   21.4820 C   0  0  0  0  0  2  0  0  0  0  0  0
  -30.6460  -14.5890   20.4060 C   0  0  0  0  0  0  0  0  0  0  0  0
  -30.3790  -12.3620   19.3650 C   0  0  0  0  0  2  0  0  0  0  0  0
  -29.4480  -12.4830   18.1400 C   0  0  0  0  0  2  0  0  0  0  0  0
  -27.9700  -12.3630   18.5630 C   0  0  0  0  0  2  0  0  0  0  0  0
  -27.6110  -13.2330   19.7970 C   0  0  0  0  0  3  0  0  0  0  0  0
  -28.6670  -13.1110   20.9180 C   0  0  0  0  0  2  0  0  0  0  0  0
  -29.9790  -13.4000   20.3280 N   0  0  0  0  0  0  0  0  0  0  0  0
  -31.8480  -14.6840   20.1450 O   0  0  0  0  0  0  0  0  0  0  0  0
  -29.2750  -16.2050   19.2340 C   0  0  0  0  0  1  0  0  0  0  0  0
  -29.8760  -15.7210   20.4880 N   0  0  0  0  0  0  0  0  0  0  0  0
  -25.2250  -13.8570   20.4980 C   0  0  0  0  0  0  0  0  0  0  0  0
  -24.1510  -13.0930   20.8620 C   0  0  0  0  0  0  0  0  0  0  0  0
  -24.6070  -11.7390   20.8460 C   0  0  0  0  0  0  0  0  0  0  0  0
  -26.2650  -12.9670   20.2810 N   0  0  0  0  0  0  0  0  0  0  0  0
  -25.9000  -11.6890   20.5530 N   0  0  0  0  0  0  0  0  0  0  0  0
  -23.8780  -10.4810   21.0360 C   0  0  0  0  0  0  0  0  0  0  0  0
  -24.3050   -9.5180   21.9770 C   0  0  0  0  0  3  0  0  0  0  0  0
  -23.5780   -8.3220   22.1560 C   0  0  0  0  0  3  0  0  0  0  0  0
  -22.4090   -8.0820   21.3950 C   0  0  0  0  0  0  0  0  0  0  0  0
  -22.0030   -9.0330   20.4430 C   0  0  0  0  0  3  0  0  0  0  0  0
  -22.7310  -10.2210   20.2620 C   0  0  0  0  0  3  0  0  0  0  0  0
  -21.6510   -6.9400   21.4850 O   0  0  0  0  0  0  0  0  0  0  0  0
  -21.5970   -6.2020   22.6390 C   0  0  0  0  0  0  0  0  0  0  0  0
  -21.1650   -6.7610   23.8620 C   0  0  0  0  0  3  0  0  0  0  0  0
  -21.0570   -5.9470   25.0080 C   0  0  0  0  0  3  0  0  0  0  0  0
  -21.3690   -4.5770   24.9310 C   0  0  0  0  0  0  0  0  0  0  0  0
  -21.7950   -4.0180   23.7130 C   0  0  0  0  0  3  0  0  0  0  0  0
  -21.9040   -4.8280   22.5700 C   0  0  0  0  0  0  0  0  0  0  0  0
  -22.2940   -4.2800   21.3930 F   0  0  0  0  0  0  0  0  0  0  0  0
  -21.2590   -3.7940   26.0300 F   0  0  0  0  0  0  0  0  0  0  0  0
  -22.7520  -13.5760   21.1190 C   0  0  0  0  0  0  0  0  0  0  0  0
  -22.0170  -12.8820   21.9790 N   0  0  0  0  0  0  0  0  0  0  0  0
  -22.3220  -14.6010   20.5910 O   0  0  0  0  0  0  0  0  0  0  0  0
  -22.3810  -12.0510   22.4220 H   0  0  0  0  0  0  0  0  0  0  0  0
  -21.0780  -13.1820   22.1980 H   0  0  0  0  0  0  0  0  0  0  0  0
  -25.4020  -15.2240   20.3100 N   0  0  0  0  0  0  0  0  0  0  0  0
  -24.6500  -15.8970   20.4100 H   0  0  0  0  0  0  0  0  0  0  0  0
  -26.2810  -15.6450   20.0360 H   0  0  0  0  0  0  0  0  0  0  0  0
  1  6  1  0
  2  3  2  0
  3  6  1  0
  3  7  1  0
  4  2  1  0
  5  2  1  0
  5  1  2  0
  6 52  1  0
  7  8  1  0
  9 10  1  0
  9  8  1  0
 11 13  1  0
 11 10  1  0
 12 23  2  0
 13 18  1  0
 14 22  1  0
 14 24  1  0
 15 21  1  0
 15 17  1  0
 16 22  1  0
 17 18  2  0
 17 16  1  0
 19 13  2  0
 20 19  1  0
 20 15  2  0
 21 14  1  0
 22 12  1  0
 24 26  2  0
 25 24  1  0
 27 25  1  0
 28 37  2  0
 28 33  1  0
 29 25  1  0
 29 33  1  0
 30 29  1  0
 31 32  1  0
 31 30  1  0
 32 28  1  0
 33 34  2  0
 34 35  1  0
 36 35  2  0
 37 36  1  0
 38 12  1  0
 38 39  1  0
 38 48  1  0
 39 42  1  0
 40 44  1  0
 40 39  1  0
 41 40  2  0
 44 43  1  0
 46 44  1  0
 46 47  1  0
 46 45  1  0
 48 51  1  1
 48 49  1  0
 50 48  1  0
 52 53  1  0
 54 63  1  0
 55 60  1  0
 56 57  1  0
 56 55  1  0
 58 57  1  0
 58 67  1  0
 58 59  1  0
 60 54  1  0
 60 59  1  0
 61 54  2  0
 62 63  1  0
 63 53  1  0
 64 65  2  0
 65 84  1  0
 66 65  1  0
 66 69  1  0
 67 64  1  0
 67 68  1  0
 68 66  2  0
 69 70  1  0
 70 71  2  0
 72 75  1  0
 72 71  1  0
 73 72  2  0
 74 73  1  0
 74 69  2  0
 75 76  1  0
 76 77  1  0
 77 78  2  0
 79 78  1  0
 79 83  1  0
 80 79  2  0
 81 76  2  0
 81 80  1  0
 82 81  1  0
 84 85  1  0
 85 88  1  0
 85 87  1  0
 86 84  2  0
 89 90  1  0
 89 64  1  0
 91 89  1  0
M  ISO  4  10 101  11 101  54 100  63 100
M  END
>  <TORSDO>  (32) 
F 22

>  <SCORE>  (32) 
-13.064

>  <name>  (32) 
33

>  <ligand_id>  (32) 
33

>  <original_smiles>  (32) 
[H]c1c([H])c([H])c2c(c1[H])C([H])([H])C([H])([H])C([H])([H])C2([H])N([H])C(=O)C1([H])N(C(=O)C([H])(N([H])C(=O)C([H])(N([H])C([H])([H])[H])C([H])([H])[H])C(C([H])([H])[H])(C([H])([H])[H])C([H])([H])[H])C([H])([H])c2c([H])c(OC([H])([H])C([H])([H])C([H])([H])C([H])([H])c3c(C([H])([H])[H])nc([H])n3C([H])([H])C([H])([H])N(C(=O)N3C([H])([H])C([H])([H])C([H])([H])C([H])(n4nc(-c5c([H])c([H])c(Oc6c([H])c([H])c(F)c([H])c6F)c([H])c5[H])c(C(=O)N([H])[H])c4N([H])[H])C3([H])[H])C([H])([H])[H])c([H])c([H])c2C1([H])[H]

>  <smiles>  (32) 
[H]c1c([H])c([H])c2c(c1[H])C([H])([H])C([H])([H])C([H])([H])C2([H])N([H])C(=O)C1([H])N(C(=O)C([H])(N([H])C(=O)C([H])(N([H])C([H])([H])[H])C([H])([H])[H])C(C([H])([H])[H])(C([H])([H])[H])C([H])([H])[H])C([H])([H])c2c([H])c(OC([H])([H])C([H])([H])C([H])([H])C([H])([H])c3c(C([H])([H])[H])nc([H])n3C([H])([H])C([H])([H])N(C(=O)N3C([H])([H])C([H])([H])C([H])([H])C([H])(n4nc(-c5c([H])c([H])c(Oc6c([H])c([H])c(F)c([H])c6F)c([H])c5[H])c(C(=O)N([H])[H])c4N([H])[H])C3([H])[H])C([H])([H])[H])c([H])c([H])c2C1([H])[H]

$$$$
34:0:0
     RDKit          3D

 92100  0  0  1  0  0  0  0  0999 V2000
  -29.6370  -22.1680   18.4580 C   0  0  0  0  0  3  0  0  0  0  0  0
  -29.9520  -21.0500   17.7300 C   0  0  0  0  0  0  0  0  0  0  0  0
  -29.6280  -20.4290   19.8560 C   0  0  0  0  0  3  0  0  0  0  0  0
  -30.2640  -20.8730   16.2790 C   0  0  0  0  0  1  0  0  0  0  0  0
  -29.4620  -21.7810   19.7660 N   0  0  0  0  0  0  0  0  0  0  0  0
  -29.9380  -20.0100   18.6230 N   0  0  0  0  0  0  0  0  0  0  0  0
  -30.1290  -19.0450   18.3850 H   0  0  0  0  0  0  0  0  0  0  0  0
  -29.5560  -19.5100   21.0660 C   0  0  0  0  0  2  0  0  0  0  0  0
  -29.2070  -17.9920   20.8230 C   0  0  0  0  0  2  0  0  0  0  0  0
  -30.3840  -16.9610   20.7530 C   0  0  0  0  0  2  0  0  0  0  0  0
  -30.6600  -14.4750   20.3140 C   0  0  0  0  0  0  0  0  0  0  0  0
  -30.3460  -12.2940   19.1940 C   0  0  0  0  0  2  0  0  0  0  0  0
  -29.3920  -12.4850   17.9960 C   0  0  0  0  0  2  0  0  0  0  0  0
  -27.9230  -12.3550   18.4430 C   0  0  0  0  0  2  0  0  0  0  0  0
  -27.6010  -13.2040   19.7020 C   0  0  0  0  0  3  0  0  0  0  0  0
  -28.6690  -12.9990   20.8010 C   0  0  0  0  0  2  0  0  0  0  0  0
  -29.9840  -13.2940   20.2110 N   0  0  0  0  0  0  0  0  0  0  0  0
  -31.8020  -14.6230   19.8710 O   0  0  0  0  0  0  0  0  0  0  0  0
  -29.9460  -15.5410   20.7530 N   0  0  0  0  0  0  0  0  0  0  0  0
  -29.0110  -15.3430   21.0780 H   0  0  0  0  0  0  0  0  0  0  0  0
  -25.2160  -13.8340   20.4310 C   0  0  0  0  0  0  0  0  0  0  0  0
  -24.1460  -13.0730   20.8150 C   0  0  0  0  0  0  0  0  0  0  0  0
  -24.5960  -11.7170   20.7910 C   0  0  0  0  0  0  0  0  0  0  0  0
  -26.2530  -12.9430   20.1970 N   0  0  0  0  0  0  0  0  0  0  0  0
  -25.8830  -11.6660   20.4710 N   0  0  0  0  0  0  0  0  0  0  0  0
  -23.8610  -10.4620   20.9970 C   0  0  0  0  0  0  0  0  0  0  0  0
  -24.2960   -9.4960   21.9300 C   0  0  0  0  0  3  0  0  0  0  0  0
  -23.5620   -8.3050   22.1230 C   0  0  0  0  0  3  0  0  0  0  0  0
  -22.3790   -8.0740   21.3810 C   0  0  0  0  0  0  0  0  0  0  0  0
  -21.9630   -9.0290   20.4370 C   0  0  0  0  0  3  0  0  0  0  0  0
  -22.6980  -10.2110   20.2430 C   0  0  0  0  0  3  0  0  0  0  0  0
  -21.6160   -6.9350   21.4830 O   0  0  0  0  0  0  0  0  0  0  0  0
  -21.5780   -6.1950   22.6380 C   0  0  0  0  0  0  0  0  0  0  0  0
  -21.1740   -6.7560   23.8690 C   0  0  0  0  0  3  0  0  0  0  0  0
  -21.0830   -5.9430   25.0160 C   0  0  0  0  0  3  0  0  0  0  0  0
  -21.3840   -4.5700   24.9330 C   0  0  0  0  0  0  0  0  0  0  0  0
  -21.7810   -4.0090   23.7060 C   0  0  0  0  0  3  0  0  0  0  0  0
  -21.8740   -4.8200   22.5610 C   0  0  0  0  0  0  0  0  0  0  0  0
  -22.2360   -4.2700   21.3770 F   0  0  0  0  0  0  0  0  0  0  0  0
  -21.2890   -3.7880   26.0330 F   0  0  0  0  0  0  0  0  0  0  0  0
  -22.7550  -13.5640   21.0960 C   0  0  0  0  0  0  0  0  0  0  0  0
  -22.0300  -12.8830   21.9760 N   0  0  0  0  0  0  0  0  0  0  0  0
  -22.3210  -14.5880   20.5700 O   0  0  0  0  0  0  0  0  0  0  0  0
  -22.3950  -12.0560   22.4240 H   0  0  0  0  0  0  0  0  0  0  0  0
  -21.0970  -13.1940   22.2070 H   0  0  0  0  0  0  0  0  0  0  0  0
  -25.3910  -15.2020   20.2410 N   0  0  0  0  0  0  0  0  0  0  0  0
  -24.6280  -15.8610   20.3460 H   0  0  0  0  0  0  0  0  0  0  0  0
  -26.2360  -15.6290   19.8810 H   0  0  0  0  0  0  0  0  0  0  0  0
  -29.1040  -22.6880   20.8940 C   0  0  0  0  0  2  0  0  0  0  0  0
  -29.3670  -24.2340   20.7000 C   0  0  0  0  0  3  0  0  0  0  0  0
  -28.1880  -25.0950   20.1480 C   0  0  0  0  0  3  0  0  0  0  0  0
  -28.3810  -26.5380   20.2320 O   0  0  0  0  0  0  0  0  0  0  0  0
  -24.6170  -31.8390   23.2320 C   0  0  0  0  0  0  0  0  0  0  0  0
  -27.2390  -27.3330   20.1760 C   0  0  0  0  0  0  0  0  0  0  0  0
  -23.4120  -30.4420   21.5880 C   0  0  0  0  0  3  0  0  0  0  0  0
  -24.8630  -28.8970   20.1670 C   0  0  0  0  0  0  0  0  0  0  0  0
  -25.9460  -30.7750   21.4040 C   0  0  0  0  0  2  0  0  0  0  0  0
  -26.0260  -29.4010   20.7610 C   0  0  0  0  0  0  0  0  0  0  0  0
  -27.2190  -28.6290   20.7580 C   0  0  0  0  0  3  0  0  0  0  0  0
  -26.0540  -26.8660   19.5600 C   0  0  0  0  0  3  0  0  0  0  0  0
  -24.8750  -27.6320   19.5600 C   0  0  0  0  0  3  0  0  0  0  0  0
  -23.6250  -29.7650   20.2100 C   0  0  0  0  0  2  0  0  0  0  0  0
  -24.6770  -31.0340   22.1330 N   0  0  0  0  0  0  0  0  0  0  0  0
  -23.5340  -32.1170   23.7650 O   0  0  0  0  0  0  0  0  0  0  0  0
  -22.7510  -29.4240   22.5470 C   0  0  0  0  0  0  0  0  0  0  0  0
  -21.4240  -29.2530   22.4210 N   0  0  0  0  0  0  0  0  0  0  0  0
  -23.4280  -28.7910   23.3620 O   0  0  0  0  0  0  0  0  0  0  0  0
  -20.9380  -29.8160   21.7370 H   0  0  0  0  0  0  0  0  0  0  0  0
  -18.0390  -28.0880   22.9240 C   0  0  0  0  0  0  0  0  0  0  0  0
  -20.6000  -28.3210   23.1900 C   0  0  0  0  0  3  0  0  0  0  0  0
  -20.6880  -26.8900   22.6100 C   0  0  0  0  0  2  0  0  0  0  0  0
  -19.5810  -26.5810   21.5970 C   0  0  0  0  0  2  0  0  0  0  0  0
  -18.2010  -26.7380   22.2450 C   0  0  0  0  0  2  0  0  0  0  0  0
  -19.1660  -28.8370   23.3530 C   0  0  0  0  0  0  0  0  0  0  0  0
  -18.9600  -30.1020   23.9490 C   0  0  0  0  0  3  0  0  0  0  0  0
  -17.6620  -30.6160   24.1180 C   0  0  0  0  0  3  0  0  0  0  0  0
  -16.5490  -29.8620   23.7040 C   0  0  0  0  0  3  0  0  0  0  0  0
  -16.7390  -28.6000   23.1130 C   0  0  0  0  0  3  0  0  0  0  0  0
  -25.9020  -32.4670   23.8550 C   0  0  0  0  0  3  0  0  0  0  0  0
  -25.5940  -33.8650   24.1890 N   0  0  0  0  0  0  0  0  0  0  0  0
  -25.9250  -34.9180   23.4310 C   0  0  0  0  0  0  0  0  0  0  0  0
  -26.5930  -34.8170   22.3970 O   0  0  0  0  0  0  0  0  0  0  0  0
  -25.0010  -34.0170   24.9920 H   0  0  0  0  0  0  0  0  0  0  0  0
  -24.1960  -36.7120   23.0830 C   0  0  0  0  0  1  0  0  0  0  0  0
  -25.4390  -36.3050   23.8910 C   0  0  0  0  0  3  0  0  0  0  0  0
  -27.5750  -37.1880   24.7200 C   0  0  0  0  0  1  0  0  0  0  0  0
  -26.4710  -37.3580   23.7790 N   0  0  0  0  0  0  0  0  0  0  0  0
  -26.0660  -38.2790   23.9290 H   0  0  0  0  0  0  0  0  0  0  0  0
  -26.4180  -31.6910   25.1290 C   0  0  1  0  0  0  0  0  0  0  0  0
  -25.3250  -31.4510   26.1960 C   0  0  0  0  0  1  0  0  0  0  0  0
  -26.9990  -30.3140   24.7310 C   0  0  0  0  0  1  0  0  0  0  0  0
  -27.5690  -32.4810   25.7930 C   0  0  0  0  0  1  0  0  0  0  0  0
  1  5  1  0
  2  1  2  0
  2  6  1  0
  3  8  1  0
  4  2  1  0
  5  3  1  0
  5 49  1  0
  6  3  1  0
  7  6  1  0
  9  8  1  0
 10  9  1  0
 11 19  1  0
 12 17  1  0
 13 14  1  0
 13 12  1  0
 15 14  1  0
 15 24  1  0
 15 16  1  0
 17 11  1  0
 17 16  1  0
 18 11  2  0
 19 10  1  0
 19 20  1  0
 21 22  2  0
 22 41  1  0
 23 22  1  0
 23 26  1  0
 24 21  1  0
 24 25  1  0
 25 23  2  0
 26 27  1  0
 27 28  2  0
 29 32  1  0
 29 28  1  0
 30 29  2  0
 31 30  1  0
 31 26  2  0
 32 33  1  0
 33 34  1  0
 34 35  2  0
 36 35  1  0
 36 40  1  0
 37 36  2  0
 38 33  2  0
 38 37  1  0
 39 38  1  0
 41 42  1  0
 42 45  1  0
 42 44  1  0
 43 41  2  0
 46 47  1  0
 46 21  1  0
 48 46  1  0
 50 49  1  0
 51 52  1  0
 51 50  2  0
 53 64  2  0
 54 52  1  0
 54 59  1  0
 55 63  1  0
 55 65  1  0
 56 62  1  0
 56 58  1  0
 57 63  1  0
 58 57  1  0
 59 58  2  0
 60 54  2  0
 61 60  1  0
 61 56  2  0
 62 55  1  0
 63 53  1  0
 65 67  2  0
 66 65  1  0
 68 66  1  0
 69 78  2  0
 69 74  1  0
 70 66  1  0
 70 74  1  0
 71 70  1  0
 72 73  1  0
 72 71  1  0
 73 69  1  0
 74 75  2  0
 75 76  1  0
 77 76  2  0
 78 77  1  0
 79 53  1  0
 79 80  1  0
 79 89  1  0
 80 83  1  0
 81 85  1  0
 81 80  1  0
 82 81  2  0
 85 84  1  0
 87 85  1  0
 87 88  1  0
 87 86  1  0
 89 92  1  1
 89 90  1  0
 91 89  1  0
M  ISO  4  11 100  19 100  51 101  52 101
M  END
>  <TORSDO>  (33) 
F 22

>  <SCORE>  (33) 
-12.915

>  <name>  (33) 
34

>  <ligand_id>  (33) 
34

>  <original_smiles>  (33) 
[H]c1c([H])c([H])c2c(c1[H])C([H])([H])C([H])([H])C([H])([H])C2([H])N([H])C(=O)C1([H])N(C(=O)C([H])(N([H])C(=O)C([H])(N([H])C([H])([H])[H])C([H])([H])[H])C(C([H])([H])[H])(C([H])([H])[H])C([H])([H])[H])C([H])([H])c2c([H])c(OC([H])([H])C([H])([H])C([H])([H])n3c([H])c(C([H])([H])[H])[n+]([H])c3C([H])([H])C([H])([H])C([H])([H])N([H])C(=O)N3C([H])([H])C([H])([H])C([H])([H])C([H])(n4nc(-c5c([H])c([H])c(Oc6c([H])c([H])c(F)c([H])c6F)c([H])c5[H])c(C(=O)N([H])[H])c4N([H])[H])C3([H])[H])c([H])c([H])c2C1([H])[H]

>  <smiles>  (33) 
[H]c1c([H])c([H])c2c(c1[H])C([H])([H])C([H])([H])C([H])([H])C2([H])N([H])C(=O)C1([H])N(C(=O)C([H])(N([H])C(=O)C([H])(N([H])C([H])([H])[H])C([H])([H])[H])C(C([H])([H])[H])(C([H])([H])[H])C([H])([H])[H])C([H])([H])c2c([H])c(OC([H])([H])C([H])([H])C([H])([H])n3c([H])c(C([H])([H])[H])[n+]([H])c3C([H])([H])C([H])([H])C([H])([H])N([H])C(=O)N3C([H])([H])C([H])([H])C([H])([H])C([H])(n4nc(-c5c([H])c([H])c(Oc6c([H])c([H])c(F)c([H])c6F)c([H])c5[H])c(C(=O)N([H])[H])c4N([H])[H])C3([H])[H])c([H])c([H])c2C1([H])[H]

$$$$
35:0:0
     RDKit          3D

 94102  0  0  1  0  0  0  0  0999 V2000
  -26.1540  -23.1230   20.4120 C   0  0  0  0  0  3  0  0  0  0  0  0
  -27.4030  -22.4800   20.3630 C   0  0  0  0  0  0  0  0  0  0  0  0
  -27.4780  -21.3480   19.5140 C   0  0  0  0  0  0  0  0  0  0  0  0
  -25.2980  -21.6970   18.8680 C   0  0  0  0  0  0  0  0  0  0  0  0
  -25.1140  -22.7470   19.6520 N   0  0  0  0  0  0  0  0  0  0  0  0
  -26.4120  -20.9850   18.7720 N   0  0  0  0  0  0  0  0  0  0  0  0
  -24.3730  -21.9800   16.5340 C   0  0  0  0  0  1  0  0  0  0  0  0
  -24.1710  -21.3440   17.9160 C   0  0  0  0  0  2  0  0  0  0  0  0
  -28.5450  -22.9800   21.2600 C   0  0  0  0  0  2  0  0  0  0  0  0
  -29.2320  -24.2960   20.7760 C   0  0  0  0  0  2  0  0  0  0  0  0
  -29.8290  -25.1770   21.9080 C   0  0  0  0  0  2  0  0  0  0  0  0
  -29.9890  -26.5750   21.5970 O   0  0  0  0  0  0  0  0  0  0  0  0
  -25.8620  -31.7450   24.3000 C   0  0  0  0  0  0  0  0  0  0  0  0
  -28.8310  -27.3160   21.5070 C   0  0  0  0  0  0  0  0  0  0  0  0
  -24.8440  -30.3440   22.5340 C   0  0  0  0  0  3  0  0  0  0  0  0
  -26.4490  -28.8180   21.2690 C   0  0  0  0  0  0  0  0  0  0  0  0
  -27.3760  -30.7090   22.6130 C   0  0  0  0  0  2  0  0  0  0  0  0
  -27.5340  -29.3400   21.9840 C   0  0  0  0  0  0  0  0  0  0  0  0
  -28.7290  -28.5940   22.1060 C   0  0  0  0  0  3  0  0  0  0  0  0
  -27.7410  -26.8240   20.7610 C   0  0  0  0  0  3  0  0  0  0  0  0
  -26.5460  -27.5580   20.6540 C   0  0  0  0  0  3  0  0  0  0  0  0
  -25.2040  -29.6740   21.1820 C   0  0  0  0  0  2  0  0  0  0  0  0
  -26.0380  -30.9480   23.2090 N   0  0  0  0  0  0  0  0  0  0  0  0
  -24.7290  -32.0100   24.7240 O   0  0  0  0  0  0  0  0  0  0  0  0
  -24.1010  -29.3140   23.4150 C   0  0  0  0  0  0  0  0  0  0  0  0
  -22.8580  -28.9830   23.0300 N   0  0  0  0  0  0  0  0  0  0  0  0
  -24.6490  -28.8140   24.4010 O   0  0  0  0  0  0  0  0  0  0  0  0
  -22.4770  -29.4450   22.2160 H   0  0  0  0  0  0  0  0  0  0  0  0
  -19.5920  -27.4450   22.8870 C   0  0  0  0  0  0  0  0  0  0  0  0
  -21.9860  -28.0080   23.6830 C   0  0  0  0  0  3  0  0  0  0  0  0
  -22.3540  -26.5650   23.2680 C   0  0  0  0  0  2  0  0  0  0  0  0
  -21.5450  -26.0560   22.0720 C   0  0  0  0  0  2  0  0  0  0  0  0
  -20.0460  -26.0840   22.3860 C   0  0  0  0  0  2  0  0  0  0  0  0
  -20.5070  -28.3550   23.4810 C   0  0  0  0  0  0  0  0  0  0  0  0
  -20.0410  -29.6210   23.8980 C   0  0  0  0  0  3  0  0  0  0  0  0
  -18.6890  -29.9800   23.7340 C   0  0  0  0  0  3  0  0  0  0  0  0
  -17.7860  -29.0690   23.1600 C   0  0  0  0  0  3  0  0  0  0  0  0
  -18.2360  -27.8050   22.7420 C   0  0  0  0  0  3  0  0  0  0  0  0
  -27.0730  -32.3780   25.0540 C   0  0  0  0  0  3  0  0  0  0  0  0
  -26.8630  -33.8320   25.0860 N   0  0  0  0  0  0  0  0  0  0  0  0
  -27.4520  -34.7040   24.2570 C   0  0  0  0  0  0  0  0  0  0  0  0
  -28.2960  -34.3660   23.4210 O   0  0  0  0  0  0  0  0  0  0  0  0
  -26.1430  -34.1710   25.7070 H   0  0  0  0  0  0  0  0  0  0  0  0
  -26.0570  -36.5320   23.2410 C   0  0  0  0  0  1  0  0  0  0  0  0
  -27.0400  -36.1830   24.3710 C   0  0  0  0  0  3  0  0  0  0  0  0
  -29.0350  -37.0230   25.5280 C   0  0  0  0  0  1  0  0  0  0  0  0
  -28.1870  -37.1160   24.3430 N   0  0  0  0  0  0  0  0  0  0  0  0
  -27.8670  -38.0780   24.2560 H   0  0  0  0  0  0  0  0  0  0  0  0
  -27.2620  -31.8100   26.5140 C   0  0  1  0  0  0  0  0  0  0  0  0
  -25.9570  -31.7760   27.3420 C   0  0  0  0  0  1  0  0  0  0  0  0
  -27.8330  -30.3730   26.4710 C   0  0  0  0  0  1  0  0  0  0  0  0
  -28.2930  -32.6700   27.2810 C   0  0  0  0  0  1  0  0  0  0  0  0
  -28.6190  -20.5620   19.4030 O   0  0  0  0  0  0  0  0  0  0  0  0
  -28.4540  -19.1260   19.3980 C   0  0  0  0  0  2  0  0  0  0  0  0
  -29.7810  -18.3690   19.1710 C   0  0  0  0  0  2  0  0  0  0  0  0
  -29.8080  -16.9230   19.7530 C   0  0  0  0  0  2  0  0  0  0  0  0
  -31.4770  -14.9910   19.3630 C   0  0  0  0  0  0  0  0  0  0  0  0
  -31.0940  -12.6330   18.7750 C   0  0  0  0  0  2  0  0  0  0  0  0
  -30.1320  -12.5530   17.5740 C   0  0  0  0  0  2  0  0  0  0  0  0
  -28.6720  -12.5250   18.0620 C   0  0  0  0  0  2  0  0  0  0  0  0
  -28.3630  -13.6400   19.0990 C   0  0  0  0  0  3  0  0  0  0  0  0
  -29.4520  -13.7110   20.1960 C   0  0  0  0  0  2  0  0  0  0  0  0
  -30.7450  -13.8540   19.5200 N   0  0  0  0  0  0  0  0  0  0  0  0
  -32.6490  -14.9690   18.9940 O   0  0  0  0  0  0  0  0  0  0  0  0
  -30.8250  -16.1280   19.0590 N   0  0  0  0  0  0  0  0  0  0  0  0
  -31.4360  -16.7130   18.5090 H   0  0  0  0  0  0  0  0  0  0  0  0
  -26.0820  -14.4650   19.9530 C   0  0  0  0  0  0  0  0  0  0  0  0
  -24.9750  -13.7940   20.3970 C   0  0  0  0  0  0  0  0  0  0  0  0
  -25.3110  -12.4060   20.3540 C   0  0  0  0  0  0  0  0  0  0  0  0
  -27.0280  -13.4910   19.6690 N   0  0  0  0  0  0  0  0  0  0  0  0
  -26.5710  -12.2480   19.9710 N   0  0  0  0  0  0  0  0  0  0  0  0
  -24.4870  -11.2160   20.5990 C   0  0  0  0  0  0  0  0  0  0  0  0
  -24.8510  -10.2540   21.5660 C   0  0  0  0  0  3  0  0  0  0  0  0
  -24.0340   -9.1270   21.7980 C   0  0  0  0  0  3  0  0  0  0  0  0
  -22.8370   -8.9540   21.0610 C   0  0  0  0  0  0  0  0  0  0  0  0
  -22.4920   -9.9030   20.0820 C   0  0  0  0  0  3  0  0  0  0  0  0
  -23.3100  -11.0220   19.8490 C   0  0  0  0  0  3  0  0  0  0  0  0
  -21.9950   -7.8790   21.2000 O   0  0  0  0  0  0  0  0  0  0  0  0
  -21.8160   -7.2550   22.4090 C   0  0  0  0  0  0  0  0  0  0  0  0
  -21.3980   -7.9650   23.5560 C   0  0  0  0  0  3  0  0  0  0  0  0
  -21.1580   -7.2740   24.7610 C   0  0  0  0  0  3  0  0  0  0  0  0
  -21.3260   -5.8770   24.8190 C   0  0  0  0  0  0  0  0  0  0  0  0
  -21.7370   -5.1700   23.6760 C   0  0  0  0  0  3  0  0  0  0  0  0
  -21.9780   -5.8570   22.4730 C   0  0  0  0  0  0  0  0  0  0  0  0
  -22.3530   -5.1680   21.3690 F   0  0  0  0  0  0  0  0  0  0  0  0
  -21.0870   -5.2130   25.9740 F   0  0  0  0  0  0  0  0  0  0  0  0
  -23.6440  -14.3980   20.7430 C   0  0  0  0  0  0  0  0  0  0  0  0
  -22.9280  -13.8000   21.6880 N   0  0  0  0  0  0  0  0  0  0  0  0
  -23.2540  -15.4340   20.2070 O   0  0  0  0  0  0  0  0  0  0  0  0
  -23.2570  -12.9610   22.1420 H   0  0  0  0  0  0  0  0  0  0  0  0
  -22.0370  -14.1890   21.9620 H   0  0  0  0  0  0  0  0  0  0  0  0
  -26.3530  -15.8140   19.7430 N   0  0  0  0  0  0  0  0  0  0  0  0
  -25.6460  -16.5280   19.8750 H   0  0  0  0  0  0  0  0  0  0  0  0
  -27.1900  -16.1620   19.2960 H   0  0  0  0  0  0  0  0  0  0  0  0
  2  1  2  0
  2  9  1  0
  3  2  1  0
  4  5  2  0
  5  1  1  0
  6  4  1  0
  6  3  2  0
  7  8  1  0
  8  4  1  0
 10  9  1  0
 10 11  1  0
 12 11  1  0
 13 24  2  0
 14 12  1  0
 14 19  1  0
 15 23  1  0
 15 25  1  0
 16 18  1  0
 17 23  1  0
 18 19  2  0
 18 17  1  0
 20 14  2  0
 21 20  1  0
 21 16  2  0
 22 16  1  0
 22 15  1  0
 23 13  1  0
 25 27  2  0
 26 25  1  0
 28 26  1  0
 29 34  1  0
 30 26  1  0
 31 30  1  0
 32 33  1  0
 32 31  1  0
 33 29  1  0
 34 30  1  0
 34 35  2  0
 36 35  1  0
 37 36  2  0
 38 29  2  0
 38 37  1  0
 39 13  1  0
 39 40  1  0
 39 49  1  0
 40 43  1  0
 41 45  1  0
 41 40  1  0
 42 41  2  0
 45 44  1  0
 47 45  1  0
 47 46  1  0
 48 47  1  0
 49 52  1  1
 49 50  1  0
 51 49  1  0
 53  3  1  0
 54 53  1  0
 55 54  1  0
 55 56  1  0
 57 63  1  0
 58 63  1  0
 59 60  1  0
 59 58  1  0
 61 60  1  0
 61 70  1  0
 61 62  1  0
 63 62  1  0
 64 57  2  0
 65 57  1  0
 65 56  1  0
 66 65  1  0
 67 68  2  0
 68 87  1  0
 69 68  1  0
 69 72  1  0
 70 67  1  0
 70 71  1  0
 71 69  2  0
 72 73  1  0
 73 74  2  0
 75 78  1  0
 75 74  1  0
 76 75  2  0
 77 76  1  0
 77 72  2  0
 78 79  1  0
 79 84  2  0
 79 80  1  0
 80 81  2  0
 81 82  1  0
 82 86  1  0
 83 82  2  0
 84 83  1  0
 85 84  1  0
 87 88  1  0
 88 91  1  0
 88 90  1  0
 89 87  2  0
 92 93  1  0
 92 67  1  0
 94 92  1  0
M  ISO  4  11 101  12 101  57 100  65 100
M  END
>  <TORSDO>  (34) 
F 24

>  <SCORE>  (34) 
-7.859

>  <name>  (34) 
35

>  <ligand_id>  (34) 
35

>  <original_smiles>  (34) 
[H]c1nc(C([H])([H])C([H])([H])[H])nc(OC([H])([H])C([H])([H])C([H])([H])N([H])C(=O)N2C([H])([H])C([H])([H])C([H])([H])C([H])(n3nc(-c4c([H])c([H])c(Oc5c([H])c([H])c(F)c([H])c5F)c([H])c4[H])c(C(=O)N([H])[H])c3N([H])[H])C2([H])[H])c1C([H])([H])C([H])([H])C([H])([H])Oc1c([H])c([H])c2c(c1[H])C([H])([H])N(C(=O)C([H])(N([H])C(=O)C([H])(N([H])C([H])([H])[H])C([H])([H])[H])C(C([H])([H])[H])(C([H])([H])[H])C([H])([H])[H])C([H])(C(=O)N([H])C1([H])c3c([H])c([H])c([H])c([H])c3C([H])([H])C([H])([H])C1([H])[H])C2([H])[H]

>  <smiles>  (34) 
[H]c1nc(C([H])([H])C([H])([H])[H])nc(OC([H])([H])C([H])([H])C([H])([H])N([H])C(=O)N2C([H])([H])C([H])([H])C([H])([H])C([H])(n3nc(-c4c([H])c([H])c(Oc5c([H])c([H])c(F)c([H])c5F)c([H])c4[H])c(C(=O)N([H])[H])c3N([H])[H])C2([H])[H])c1C([H])([H])C([H])([H])C([H])([H])Oc1c([H])c([H])c2c(c1[H])C([H])([H])N(C(=O)C([H])(N([H])C(=O)C([H])(N([H])C([H])([H])[H])C([H])([H])[H])C(C([H])([H])[H])(C([H])([H])[H])C([H])([H])[H])C([H])(C(=O)N([H])C1([H])c3c([H])c([H])c([H])c([H])c3C([H])([H])C([H])([H])C1([H])[H])C2([H])[H]

$$$$
36:0:0
     RDKit          3D

 92100  0  0  1  0  0  0  0  0999 V2000
  -29.5820  -22.8800   21.2580 C   0  0  0  0  0  3  0  0  0  0  0  0
  -28.2120  -21.7110   20.0110 C   0  0  0  0  0  3  0  0  0  0  0  0
  -29.3260  -21.5200   20.7850 C   0  0  0  0  0  0  0  0  0  0  0  0
  -28.6470  -23.8320   20.8280 C   0  0  0  0  0  0  0  0  0  0  0  0
  -27.7640  -23.0460   20.0780 N   0  0  0  0  0  0  0  0  0  0  0  0
  -25.4470  -22.4930   19.2530 C   0  0  0  0  0  1  0  0  0  0  0  0
  -26.5420  -23.5450   19.4600 C   0  0  0  0  0  2  0  0  0  0  0  0
  -31.6180  -20.4110   20.7870 C   0  0  0  0  0  1  0  0  0  0  0  0
  -30.1320  -20.1660   21.1170 C   0  0  0  0  0  3  0  0  0  0  0  0
  -29.6600  -18.6920   20.5770 C   0  0  0  0  0  3  0  0  0  0  0  0
  -30.4560  -17.3440   21.0440 C   0  0  0  0  0  3  0  0  0  0  0  0
  -30.6360  -14.8000   20.3210 C   0  0  0  0  0  0  0  0  0  0  0  0
  -30.3740  -12.5590   19.2170 C   0  0  0  0  0  2  0  0  0  0  0  0
  -29.4170  -12.6550   18.0090 C   0  0  0  0  0  2  0  0  0  0  0  0
  -27.9560  -12.4780   18.4600 C   0  0  0  0  0  2  0  0  0  0  0  0
  -27.6050  -13.3390   19.7030 C   0  0  0  0  0  3  0  0  0  0  0  0
  -28.6850  -13.2270   20.8040 C   0  0  0  0  0  2  0  0  0  0  0  0
  -29.9710  -13.5980   20.1960 N   0  0  0  0  0  0  0  0  0  0  0  0
  -31.8060  -14.8910   19.9450 O   0  0  0  0  0  0  0  0  0  0  0  0
  -29.9400  -15.9340   20.7180 N   0  0  0  0  0  0  0  0  0  0  0  0
  -28.9700  -15.7680   20.9370 H   0  0  0  0  0  0  0  0  0  0  0  0
  -25.2150  -13.9100   20.4480 C   0  0  0  0  0  0  0  0  0  0  0  0
  -24.1600  -13.1320   20.8310 C   0  0  0  0  0  0  0  0  0  0  0  0
  -24.6290  -11.7820   20.7980 C   0  0  0  0  0  0  0  0  0  0  0  0
  -26.2670  -13.0420   20.2090 N   0  0  0  0  0  0  0  0  0  0  0  0
  -25.9210  -11.7550   20.4800 N   0  0  0  0  0  0  0  0  0  0  0  0
  -23.9100  -10.5170   20.9970 C   0  0  0  0  0  0  0  0  0  0  0  0
  -24.3570   -9.5520   21.9270 C   0  0  0  0  0  3  0  0  0  0  0  0
  -23.6410   -8.3500   22.1140 C   0  0  0  0  0  3  0  0  0  0  0  0
  -22.4610   -8.1050   21.3720 C   0  0  0  0  0  0  0  0  0  0  0  0
  -22.0350   -9.0550   20.4280 C   0  0  0  0  0  3  0  0  0  0  0  0
  -22.7540  -10.2480   20.2380 C   0  0  0  0  0  3  0  0  0  0  0  0
  -21.7110   -6.9570   21.4730 O   0  0  0  0  0  0  0  0  0  0  0  0
  -21.6820   -6.2180   22.6270 C   0  0  0  0  0  0  0  0  0  0  0  0
  -21.2640   -6.7720   23.8570 C   0  0  0  0  0  3  0  0  0  0  0  0
  -21.1780   -5.9570   25.0040 C   0  0  0  0  0  3  0  0  0  0  0  0
  -21.5040   -4.5890   24.9210 C   0  0  0  0  0  0  0  0  0  0  0  0
  -21.9180   -4.0340   23.6980 C   0  0  0  0  0  3  0  0  0  0  0  0
  -22.0010   -4.8460   22.5530 C   0  0  0  0  0  0  0  0  0  0  0  0
  -22.3800   -4.3030   21.3720 F   0  0  0  0  0  0  0  0  0  0  0  0
  -21.4140   -3.8030   26.0200 F   0  0  0  0  0  0  0  0  0  0  0  0
  -22.7620  -13.5990   21.1090 C   0  0  0  0  0  0  0  0  0  0  0  0
  -22.0430  -12.9050   21.9840 N   0  0  0  0  0  0  0  0  0  0  0  0
  -22.3130  -14.6180   20.5840 O   0  0  0  0  0  0  0  0  0  0  0  0
  -22.4120  -12.0840   22.4410 H   0  0  0  0  0  0  0  0  0  0  0  0
  -21.1010  -13.1990   22.1980 H   0  0  0  0  0  0  0  0  0  0  0  0
  -25.3610  -15.2840   20.2630 N   0  0  0  0  0  0  0  0  0  0  0  0
  -24.5770  -15.9180   20.3700 H   0  0  0  0  0  0  0  0  0  0  0  0
  -26.1880  -15.7350   19.8970 H   0  0  0  0  0  0  0  0  0  0  0  0
  -29.4010  -25.8960   22.2490 C   0  0  0  0  0  1  0  0  0  0  0  0
  -28.3680  -25.3580   21.2430 C   0  0  0  0  0  3  0  0  0  0  0  0
  -28.3190  -26.4140   20.1820 O   0  0  0  0  0  0  0  0  0  0  0  0
  -24.6230  -31.9200   23.2380 C   0  0  0  0  0  0  0  0  0  0  0  0
  -27.2480  -27.3410   20.1930 C   0  0  0  0  0  0  0  0  0  0  0  0
  -23.4300  -30.5280   21.5860 C   0  0  0  0  0  3  0  0  0  0  0  0
  -24.8930  -28.9830   20.1610 C   0  0  0  0  0  0  0  0  0  0  0  0
  -25.9740  -30.8320   21.4260 C   0  0  0  0  0  2  0  0  0  0  0  0
  -26.0590  -29.4540   20.7790 C   0  0  0  0  0  0  0  0  0  0  0  0
  -27.2410  -28.6430   20.7950 C   0  0  0  0  0  3  0  0  0  0  0  0
  -26.0740  -26.9560   19.5160 C   0  0  0  0  0  3  0  0  0  0  0  0
  -24.9040  -27.7390   19.5160 C   0  0  0  0  0  3  0  0  0  0  0  0
  -23.6550  -29.8590   20.2050 C   0  0  0  0  0  2  0  0  0  0  0  0
  -24.6940  -31.1130   22.1400 N   0  0  0  0  0  0  0  0  0  0  0  0
  -23.5360  -32.1950   23.7680 O   0  0  0  0  0  0  0  0  0  0  0  0
  -22.7650  -29.5050   22.5390 C   0  0  0  0  0  0  0  0  0  0  0  0
  -21.4410  -29.3280   22.4130 N   0  0  0  0  0  0  0  0  0  0  0  0
  -23.4420  -28.8710   23.3530 O   0  0  0  0  0  0  0  0  0  0  0  0
  -20.9500  -29.8890   21.7300 H   0  0  0  0  0  0  0  0  0  0  0  0
  -18.0620  -28.1390   22.9230 C   0  0  0  0  0  0  0  0  0  0  0  0
  -20.6240  -28.3870   23.1790 C   0  0  0  0  0  3  0  0  0  0  0  0
  -20.7140  -26.9600   22.5910 C   0  0  0  0  0  2  0  0  0  0  0  0
  -19.6050  -26.6500   21.5800 C   0  0  0  0  0  2  0  0  0  0  0  0
  -18.2280  -26.7970   22.2320 C   0  0  0  0  0  2  0  0  0  0  0  0
  -19.1860  -28.8930   23.3540 C   0  0  0  0  0  0  0  0  0  0  0  0
  -18.9750  -30.1490   23.9610 C   0  0  0  0  0  3  0  0  0  0  0  0
  -17.6720  -30.6540   24.1410 C   0  0  0  0  0  3  0  0  0  0  0  0
  -16.5640  -29.8980   23.7240 C   0  0  0  0  0  3  0  0  0  0  0  0
  -16.7580  -28.6440   23.1220 C   0  0  0  0  0  3  0  0  0  0  0  0
  -25.9040  -32.5520   23.8650 C   0  0  0  0  0  3  0  0  0  0  0  0
  -25.5950  -33.9520   24.1910 N   0  0  0  0  0  0  0  0  0  0  0  0
  -25.9240  -35.0030   23.4280 C   0  0  0  0  0  0  0  0  0  0  0  0
  -26.5950  -34.8960   22.3990 O   0  0  0  0  0  0  0  0  0  0  0  0
  -25.0000  -34.1050   24.9910 H   0  0  0  0  0  0  0  0  0  0  0  0
  -24.1960  -36.7940   23.0680 C   0  0  0  0  0  1  0  0  0  0  0  0
  -25.4360  -36.3930   23.8830 C   0  0  0  0  0  3  0  0  0  0  0  0
  -27.5680  -37.2800   24.7160 C   0  0  0  0  0  1  0  0  0  0  0  0
  -26.4680  -37.4480   23.7690 N   0  0  0  0  0  0  0  0  0  0  0  0
  -26.0610  -38.3670   23.9130 H   0  0  0  0  0  0  0  0  0  0  0  0
  -26.4100  -31.7830   25.1460 C   0  0  1  0  0  0  0  0  0  0  0  0
  -25.3070  -31.5480   26.2020 C   0  0  0  0  0  1  0  0  0  0  0  0
  -26.9970  -30.4030   24.7650 C   0  0  0  0  0  1  0  0  0  0  0  0
  -27.5580  -32.5770   25.8130 C   0  0  0  0  0  1  0  0  0  0  0  0
  2  5  1  0
  2  3  2  0
  3  9  1  0
  3  1  1  0
  4 51  1  0
  4  1  2  0
  5  4  1  0
  6  7  1  0
  7  5  1  0
  9  8  1  0
 10 11  2  0
 10  9  1  0
 12 20  1  0
 13 18  1  0
 14 15  1  0
 14 13  1  0
 16 15  1  0
 16 25  1  0
 16 17  1  0
 18 12  1  0
 18 17  1  0
 19 12  2  0
 20 21  1  0
 20 11  1  0
 22 23  2  0
 23 42  1  0
 24 23  1  0
 24 27  1  0
 25 22  1  0
 25 26  1  0
 26 24  2  0
 27 28  1  0
 28 29  2  0
 30 33  1  0
 30 29  1  0
 31 30  2  0
 32 31  1  0
 32 27  2  0
 33 34  1  0
 34 35  1  0
 35 36  2  0
 37 36  1  0
 37 41  1  0
 38 37  2  0
 39 34  2  0
 39 38  1  0
 40 39  1  0
 42 43  1  0
 43 46  1  0
 43 45  1  0
 44 42  2  0
 47 48  1  0
 47 22  1  0
 49 47  1  0
 51 50  1  0
 52 54  1  0
 52 51  1  0
 53 64  2  0
 54 59  1  0
 55 63  1  0
 55 65  1  0
 56 62  1  0
 56 58  1  0
 57 63  1  0
 58 59  2  0
 58 57  1  0
 60 54  2  0
 61 60  1  0
 61 56  2  0
 62 55  1  0
 63 53  1  0
 65 67  2  0
 66 65  1  0
 68 66  1  0
 69 78  2  0
 69 74  1  0
 70 66  1  0
 70 74  1  0
 71 70  1  0
 72 73  1  0
 72 71  1  0
 73 69  1  0
 74 75  2  0
 75 76  1  0
 77 76  2  0
 78 77  1  0
 79 53  1  0
 79 80  1  0
 79 89  1  0
 80 83  1  0
 81 85  1  0
 81 80  1  0
 82 81  2  0
 85 84  1  0
 87 85  1  0
 87 88  1  0
 87 86  1  0
 89 92  1  1
 89 90  1  0
 91 89  1  0
M  ISO  4  12 100  20 100  51 101  52 101
M  END
>  <TORSDO>  (35) 
F 21

>  <SCORE>  (35) 
-13.670

>  <name>  (35) 
36

>  <ligand_id>  (35) 
36

>  <original_smiles>  (35) 
[H]c1c([H])c([H])c2c(c1[H])C([H])([H])C([H])([H])C([H])([H])C2([H])N([H])C(=O)C1([H])N(C(=O)C([H])(N([H])C(=O)C([H])(N([H])C([H])([H])[H])C([H])([H])[H])C(C([H])([H])[H])(C([H])([H])[H])C([H])([H])[H])C([H])([H])c2c([H])c(OC([H])(c3c([H])c(C([H])(C([H])([H])[H])C([H])([H])C([H])([H])N([H])C(=O)N4C([H])([H])C([H])([H])C([H])([H])C([H])(n5nc(-c6c([H])c([H])c(Oc7c([H])c([H])c(F)c([H])c7F)c([H])c6[H])c(C(=O)N([H])[H])c5N([H])[H])C4([H])[H])c([H])n3C([H])([H])C([H])([H])[H])C([H])([H])[H])c([H])c([H])c2C1([H])[H]

>  <smiles>  (35) 
[H]c1c([H])c([H])c2c(c1[H])C([H])([H])C([H])([H])C([H])([H])C2([H])N([H])C(=O)C1([H])N(C(=O)C([H])(N([H])C(=O)C([H])(N([H])C([H])([H])[H])C([H])([H])[H])C(C([H])([H])[H])(C([H])([H])[H])C([H])([H])[H])C([H])([H])c2c([H])c(OC([H])(c3c([H])c(C([H])(C([H])([H])[H])C([H])([H])C([H])([H])N([H])C(=O)N4C([H])([H])C([H])([H])C([H])([H])C([H])(n5nc(-c6c([H])c([H])c(Oc7c([H])c([H])c(F)c([H])c7F)c([H])c6[H])c(C(=O)N([H])[H])c5N([H])[H])C4([H])[H])c([H])n3C([H])([H])C([H])([H])[H])C([H])([H])[H])c([H])c([H])c2C1([H])[H]

$$$$
37:0:0
     RDKit          3D

 93101  0  0  1  0  0  0  0  0999 V2000
  -30.4770  -19.9030   21.5360 C   0  0  0  0  0  0  0  0  0  0  0  0
  -29.4370  -20.4370   20.8230 C   0  0  0  0  0  0  0  0  0  0  0  0
  -27.9990  -20.0370   20.7010 C   0  0  0  0  0  1  0  0  0  0  0  0
  -31.6140  -20.6790   21.2990 N   0  0  0  0  0  0  0  0  0  0  0  0
  -31.3190  -21.6360   20.4740 N   0  0  0  0  0  0  0  0  0  0  0  0
  -30.0050  -21.5150   20.1650 N   0  0  0  0  0  0  0  0  0  0  0  0
  -31.0100  -19.1750   23.8730 C   0  0  0  0  0  1  0  0  0  0  0  0
  -30.4890  -18.7370   22.4960 C   0  0  0  0  0  3  0  0  0  0  0  0
  -31.2500  -17.4890   21.9820 C   0  0  0  0  0  2  0  0  0  0  0  0
  -30.7010  -16.8860   20.6730 C   0  0  0  0  0  2  0  0  0  0  0  0
  -31.2170  -14.4890   20.0680 C   0  0  0  0  0  0  0  0  0  0  0  0
  -30.8320  -12.3560   18.8870 C   0  0  0  0  0  2  0  0  0  0  0  0
  -29.8340  -12.6000   17.7340 C   0  0  0  0  0  2  0  0  0  0  0  0
  -28.3760  -12.5110   18.2290 C   0  0  0  0  0  2  0  0  0  0  0  0
  -28.1280  -13.3540   19.5100 C   0  0  0  0  0  3  0  0  0  0  0  0
  -29.2150  -13.0450   20.5640 C   0  0  0  0  0  2  0  0  0  0  0  0
  -30.5320  -13.3200   19.9560 N   0  0  0  0  0  0  0  0  0  0  0  0
  -32.2810  -14.7190   19.4840 O   0  0  0  0  0  0  0  0  0  0  0  0
  -30.5560  -15.4310   20.7570 N   0  0  0  0  0  0  0  0  0  0  0  0
  -29.7190  -15.1000   21.2120 H   0  0  0  0  0  0  0  0  0  0  0  0
  -25.7830  -14.0630   20.3070 C   0  0  0  0  0  0  0  0  0  0  0  0
  -24.6990  -13.3350   20.7190 C   0  0  0  0  0  0  0  0  0  0  0  0
  -25.1020  -11.9650   20.6650 C   0  0  0  0  0  0  0  0  0  0  0  0
  -26.7830  -13.1400   20.0370 N   0  0  0  0  0  0  0  0  0  0  0  0
  -26.3760  -11.8730   20.3060 N   0  0  0  0  0  0  0  0  0  0  0  0
  -24.3350  -10.7340   20.8840 C   0  0  0  0  0  0  0  0  0  0  0  0
  -24.7050   -9.8010   21.8770 C   0  0  0  0  0  3  0  0  0  0  0  0
  -23.9400   -8.6310   22.0800 C   0  0  0  0  0  3  0  0  0  0  0  0
  -22.7930   -8.3870   21.2870 C   0  0  0  0  0  0  0  0  0  0  0  0
  -22.4430   -9.3090   20.2850 C   0  0  0  0  0  3  0  0  0  0  0  0
  -23.2070  -10.4700   20.0820 C   0  0  0  0  0  3  0  0  0  0  0  0
  -22.0050   -7.2680   21.3970 O   0  0  0  0  0  0  0  0  0  0  0  0
  -21.8010   -6.6460   22.6020 C   0  0  0  0  0  0  0  0  0  0  0  0
  -21.2150   -7.3200   23.6970 C   0  0  0  0  0  3  0  0  0  0  0  0
  -20.9570   -6.6240   24.8960 C   0  0  0  0  0  3  0  0  0  0  0  0
  -21.2760   -5.2560   25.0000 C   0  0  0  0  0  0  0  0  0  0  0  0
  -21.8530   -4.5830   23.9080 C   0  0  0  0  0  3  0  0  0  0  0  0
  -22.1130   -5.2760   22.7130 C   0  0  0  0  0  0  0  0  0  0  0  0
  -22.6500   -4.6180   21.6580 F   0  0  0  0  0  0  0  0  0  0  0  0
  -21.0240   -4.5860   26.1480 F   0  0  0  0  0  0  0  0  0  0  0  0
  -23.3360  -13.8700   21.0530 C   0  0  0  0  0  0  0  0  0  0  0  0
  -22.6210  -13.2040   21.9520 N   0  0  0  0  0  0  0  0  0  0  0  0
  -22.9160  -14.9130   20.5530 O   0  0  0  0  0  0  0  0  0  0  0  0
  -22.9750  -12.3610   22.3800 H   0  0  0  0  0  0  0  0  0  0  0  0
  -21.7090  -13.5450   22.2210 H   0  0  0  0  0  0  0  0  0  0  0  0
  -25.9950  -15.4260   20.1270 N   0  0  0  0  0  0  0  0  0  0  0  0
  -25.2580  -16.1100   20.2580 H   0  0  0  0  0  0  0  0  0  0  0  0
  -26.8550  -15.8290   19.7750 H   0  0  0  0  0  0  0  0  0  0  0  0
  -29.4040  -22.4220   19.1940 C   0  0  0  0  0  2  0  0  0  0  0  0
  -28.6730  -23.6370   19.8060 C   0  0  0  0  0  2  0  0  0  0  0  0
  -29.5660  -24.6330   20.5730 C   0  0  0  0  0  2  0  0  0  0  0  0
  -28.8200  -25.9220   20.9740 C   0  0  0  0  0  2  0  0  0  0  0  0
  -28.4960  -26.6660   19.8030 O   0  0  0  0  0  0  0  0  0  0  0  0
  -24.5680  -31.6250   23.0920 C   0  0  0  0  0  0  0  0  0  0  0  0
  -27.3210  -27.3670   19.8780 C   0  0  0  0  0  0  0  0  0  0  0  0
  -23.3950  -30.2500   21.4010 C   0  0  0  0  0  3  0  0  0  0  0  0
  -24.8880  -28.7930   19.9320 C   0  0  0  0  0  0  0  0  0  0  0  0
  -25.9090  -30.6770   21.2200 C   0  0  0  0  0  2  0  0  0  0  0  0
  -26.0290  -29.3280   20.5450 C   0  0  0  0  0  0  0  0  0  0  0  0
  -27.2490  -28.6190   20.5250 C   0  0  0  0  0  3  0  0  0  0  0  0
  -26.1710  -26.8370   19.2610 C   0  0  0  0  0  3  0  0  0  0  0  0
  -24.9520  -27.5430   19.2890 C   0  0  0  0  0  3  0  0  0  0  0  0
  -23.6210  -29.6170   20.0010 C   0  0  0  0  0  2  0  0  0  0  0  0
  -24.6410  -30.8630   21.9640 N   0  0  0  0  0  0  0  0  0  0  0  0
  -23.4820  -31.8570   23.6390 O   0  0  0  0  0  0  0  0  0  0  0  0
  -22.7650  -29.1860   22.3280 C   0  0  0  0  0  0  0  0  0  0  0  0
  -21.4470  -28.9710   22.1820 N   0  0  0  0  0  0  0  0  0  0  0  0
  -23.4590  -28.5540   23.1290 O   0  0  0  0  0  0  0  0  0  0  0  0
  -20.9490  -29.5340   21.5060 H   0  0  0  0  0  0  0  0  0  0  0  0
  -18.1020  -27.6780   22.6110 C   0  0  0  0  0  0  0  0  0  0  0  0
  -20.6490  -27.9910   22.9170 C   0  0  0  0  0  3  0  0  0  0  0  0
  -20.7940  -26.5810   22.3000 C   0  0  0  0  0  2  0  0  0  0  0  0
  -19.7110  -26.2600   21.2650 C   0  0  0  0  0  2  0  0  0  0  0  0
  -18.3180  -26.3530   21.8990 C   0  0  0  0  0  2  0  0  0  0  0  0
  -19.1970  -28.4540   23.0740 C   0  0  0  0  0  0  0  0  0  0  0  0
  -18.9420  -29.6940   23.6990 C   0  0  0  0  0  3  0  0  0  0  0  0
  -17.6240  -30.1610   23.8640 C   0  0  0  0  0  3  0  0  0  0  0  0
  -16.5430  -29.3820   23.4190 C   0  0  0  0  0  3  0  0  0  0  0  0
  -16.7820  -28.1420   22.7980 C   0  0  0  0  0  3  0  0  0  0  0  0
  -25.8410  -32.2620   23.7340 C   0  0  0  0  0  3  0  0  0  0  0  0
  -25.5160  -33.6510   24.0790 N   0  0  0  0  0  0  0  0  0  0  0  0
  -25.8530  -34.7170   23.3410 C   0  0  0  0  0  0  0  0  0  0  0  0
  -26.5430  -34.6350   22.3210 O   0  0  0  0  0  0  0  0  0  0  0  0
  -24.9060  -33.7880   24.8720 H   0  0  0  0  0  0  0  0  0  0  0  0
  -24.1120  -36.4950   22.9770 C   0  0  0  0  0  1  0  0  0  0  0  0
  -25.3410  -36.0940   23.8070 C   0  0  0  0  0  3  0  0  0  0  0  0
  -27.4470  -36.9890   24.6970 C   0  0  0  0  0  1  0  0  0  0  0  0
  -26.3630  -37.1600   23.7340 N   0  0  0  0  0  0  0  0  0  0  0  0
  -25.9430  -38.0720   23.8910 H   0  0  0  0  0  0  0  0  0  0  0  0
  -26.3590  -31.4760   25.0010 C   0  0  1  0  0  0  0  0  0  0  0  0
  -25.2580  -31.2000   26.0510 C   0  0  0  0  0  1  0  0  0  0  0  0
  -26.9700  -30.1170   24.5870 C   0  0  0  0  0  1  0  0  0  0  0  0
  -27.4880  -32.2790   25.6910 C   0  0  0  0  0  1  0  0  0  0  0  0
  1  8  1  0
  2  1  2  0
  3  2  1  0
  4  1  1  0
  5  4  2  0
  6  5  1  0
  6  2  1  0
  8  7  1  0
  9  8  1  0
 10 19  1  0
 10  9  1  0
 11 19  1  0
 12 17  1  0
 13 14  1  0
 13 12  1  0
 15 14  1  0
 15 24  1  0
 15 16  1  0
 17 11  1  0
 17 16  1  0
 18 11  2  0
 19 20  1  0
 21 22  2  0
 22 41  1  0
 23 22  1  0
 23 26  1  0
 24 25  1  0
 24 21  1  0
 25 23  2  0
 26 27  1  0
 27 28  2  0
 29 32  1  0
 29 28  1  0
 30 29  2  0
 31 30  1  0
 31 26  2  0
 32 33  1  0
 33 38  2  0
 33 34  1  0
 34 35  2  0
 35 36  1  0
 36 40  1  0
 37 36  2  0
 38 37  1  0
 39 38  1  0
 41 42  1  0
 42 45  1  0
 42 44  1  0
 43 41  2  0
 46 47  1  0
 46 21  1  0
 48 46  1  0
 49 50  1  0
 49  6  1  0
 50 51  1  0
 51 52  1  0
 53 55  1  0
 53 52  1  0
 54 65  2  0
 55 60  1  0
 56 64  1  0
 56 66  1  0
 57 63  1  0
 57 59  1  0
 58 64  1  0
 59 58  1  0
 60 59  2  0
 61 62  1  0
 61 55  2  0
 62 57  2  0
 63 56  1  0
 64 54  1  0
 66 68  2  0
 67 66  1  0
 69 67  1  0
 70 79  2  0
 70 75  1  0
 71 67  1  0
 71 75  1  0
 72 71  1  0
 73 74  1  0
 73 72  1  0
 74 70  1  0
 75 76  2  0
 76 77  1  0
 78 77  2  0
 79 78  1  0
 80 54  1  0
 80 81  1  0
 80 90  1  0
 81 84  1  0
 82 86  1  0
 82 81  1  0
 83 82  2  0
 86 85  1  0
 88 86  1  0
 88 89  1  0
 88 87  1  0
 90 93  1  1
 90 91  1  0
 92 90  1  0
M  ISO  4  11 100  19 100  52 101  53 101
M  END
>  <TORSDO>  (36) 
F 23

>  <SCORE>  (36) 
-11.277

>  <name>  (36) 
37

>  <ligand_id>  (36) 
37

>  <original_smiles>  (36) 
[H]c1c([H])c([H])c2c(c1[H])C([H])([H])C([H])([H])C([H])([H])C2([H])N([H])C(=O)C1([H])N(C(=O)C([H])(N([H])C(=O)C([H])(N([H])C([H])([H])[H])C([H])([H])[H])C(C([H])([H])[H])(C([H])([H])[H])C([H])([H])[H])C([H])([H])c2c([H])c(OC([H])([H])C([H])([H])C([H])([H])C([H])([H])n3nnc(C([H])(C([H])([H])[H])C([H])([H])C([H])([H])N([H])C(=O)N4C([H])([H])C([H])([H])C([H])([H])C([H])(n5nc(-c6c([H])c([H])c(Oc7c([H])c([H])c(F)c([H])c7F)c([H])c6[H])c(C(=O)N([H])[H])c5N([H])[H])C4([H])[H])c3C([H])([H])[H])c([H])c([H])c2C1([H])[H]

>  <smiles>  (36) 
[H]c1c([H])c([H])c2c(c1[H])C([H])([H])C([H])([H])C([H])([H])C2([H])N([H])C(=O)C1([H])N(C(=O)C([H])(N([H])C(=O)C([H])(N([H])C([H])([H])[H])C([H])([H])[H])C(C([H])([H])[H])(C([H])([H])[H])C([H])([H])[H])C([H])([H])c2c([H])c(OC([H])([H])C([H])([H])C([H])([H])C([H])([H])n3nnc(C([H])(C([H])([H])[H])C([H])([H])C([H])([H])N([H])C(=O)N4C([H])([H])C([H])([H])C([H])([H])C([H])(n5nc(-c6c([H])c([H])c(Oc7c([H])c([H])c(F)c([H])c7F)c([H])c6[H])c(C(=O)N([H])[H])c5N([H])[H])C4([H])[H])c3C([H])([H])[H])c([H])c([H])c2C1([H])[H]

$$$$
38:0:0
     RDKit          3D

 97105  0  0  1  0  0  0  0  0999 V2000
  -30.8080  -19.4040   20.6940 C   0  0  0  0  0  3  0  0  0  0  0  0
  -28.7010  -18.6790   20.7730 C   0  0  0  0  0  3  0  0  0  0  0  0
  -30.0980  -20.1540   19.7930 C   0  0  0  0  0  0  0  0  0  0  0  0
  -28.7470  -19.6870   19.8460 C   0  0  0  0  0  0  0  0  0  0  0  0
  -29.9640  -18.4790   21.2860 N   0  0  0  0  0  0  0  0  0  0  0  0
  -30.9640  -18.1490   23.5070 C   0  0  0  0  0  1  0  0  0  0  0  0
  -30.3340  -17.4710   22.2800 C   0  0  0  0  0  3  0  0  0  0  0  0
  -31.2690  -16.3860   21.6910 C   0  0  0  0  0  2  0  0  0  0  0  0
  -31.0190  -14.3460   20.2870 C   0  0  0  0  0  0  0  0  0  0  0  0
  -30.6100  -12.2490   19.0520 C   0  0  0  0  0  2  0  0  0  0  0  0
  -29.6480  -12.4910   17.8740 C   0  0  0  0  0  2  0  0  0  0  0  0
  -28.1830  -12.3650   18.3370 C   0  0  0  0  0  2  0  0  0  0  0  0
  -27.8880  -13.2000   19.6120 C   0  0  0  0  0  3  0  0  0  0  0  0
  -28.9600  -12.9410   20.6960 C   0  0  0  0  0  2  0  0  0  0  0  0
  -30.2840  -13.2180   20.1090 N   0  0  0  0  0  0  0  0  0  0  0  0
  -32.0610  -14.5790   19.6670 O   0  0  0  0  0  0  0  0  0  0  0  0
  -30.5520  -15.2030   21.2050 N   0  0  0  0  0  0  0  0  0  0  0  0
  -29.6850  -14.9590   21.6590 H   0  0  0  0  0  0  0  0  0  0  0  0
  -25.5160  -13.8440   20.3780 C   0  0  0  0  0  0  0  0  0  0  0  0
  -24.4440  -13.0870   20.7670 C   0  0  0  0  0  0  0  0  0  0  0  0
  -24.8790  -11.7280   20.7170 C   0  0  0  0  0  0  0  0  0  0  0  0
  -26.5400  -12.9460   20.1170 N   0  0  0  0  0  0  0  0  0  0  0  0
  -26.1610  -11.6680   20.3780 N   0  0  0  0  0  0  0  0  0  0  0  0
  -24.1370  -10.4760   20.9180 C   0  0  0  0  0  0  0  0  0  0  0  0
  -24.5280   -9.5350   21.8970 C   0  0  0  0  0  3  0  0  0  0  0  0
  -23.7890   -8.3470   22.0820 C   0  0  0  0  0  3  0  0  0  0  0  0
  -22.6440   -8.0910   21.2900 C   0  0  0  0  0  0  0  0  0  0  0  0
  -22.2720   -9.0220   20.3040 C   0  0  0  0  0  3  0  0  0  0  0  0
  -23.0120  -10.2020   20.1150 C   0  0  0  0  0  3  0  0  0  0  0  0
  -21.8780   -6.9550   21.3840 O   0  0  0  0  0  0  0  0  0  0  0  0
  -21.7420   -6.2740   22.5670 C   0  0  0  0  0  0  0  0  0  0  0  0
  -21.2180   -6.8880   23.7250 C   0  0  0  0  0  3  0  0  0  0  0  0
  -21.0300   -6.1320   24.9000 C   0  0  0  0  0  3  0  0  0  0  0  0
  -21.3580   -4.7620   24.9150 C   0  0  0  0  0  0  0  0  0  0  0  0
  -21.8740   -4.1480   23.7610 C   0  0  0  0  0  3  0  0  0  0  0  0
  -22.0640   -4.9020   22.5900 C   0  0  0  0  0  0  0  0  0  0  0  0
  -22.5430   -4.3000   21.4740 F   0  0  0  0  0  0  0  0  0  0  0  0
  -21.1700   -4.0340   26.0390 F   0  0  0  0  0  0  0  0  0  0  0  0
  -23.0610  -13.5850   21.0740 C   0  0  0  0  0  0  0  0  0  0  0  0
  -22.3440  -12.9050   21.9620 N   0  0  0  0  0  0  0  0  0  0  0  0
  -22.6240  -14.6150   20.5600 O   0  0  0  0  0  0  0  0  0  0  0  0
  -22.7080  -12.0720   22.4010 H   0  0  0  0  0  0  0  0  0  0  0  0
  -21.4160  -13.2230   22.2060 H   0  0  0  0  0  0  0  0  0  0  0  0
  -25.7020  -15.2130   20.2070 N   0  0  0  0  0  0  0  0  0  0  0  0
  -24.9470  -15.8790   20.3330 H   0  0  0  0  0  0  0  0  0  0  0  0
  -26.5520  -15.6360   19.8580 H   0  0  0  0  0  0  0  0  0  0  0  0
  -27.5830  -20.1590   19.0140 C   0  0  0  0  0  2  0  0  0  0  0  0
  -27.4440  -19.3240   17.7300 C   0  0  0  0  0  2  0  0  0  0  0  0
  -26.5870  -19.1130   15.3600 C   0  0  0  0  0  1  0  0  0  0  0  0
  -25.1500  -20.2610   17.0860 C   0  0  0  0  0  1  0  0  0  0  0  0
  -26.5910  -19.9820   16.6280 C   0  0  0  0  0  3  0  0  0  0  0  0
  -30.6740  -21.2040   18.8630 C   0  0  0  0  0  2  0  0  0  0  0  0
  -30.9690  -22.5840   19.4950 C   0  0  0  0  0  2  0  0  0  0  0  0
  -29.8380  -23.6280   19.3550 C   0  0  0  0  0  2  0  0  0  0  0  0
  -30.3390  -25.0860   19.4970 C   0  0  0  0  0  2  0  0  0  0  0  0
  -29.2990  -26.1580   19.1030 C   0  0  0  0  0  2  0  0  0  0  0  0
  -28.8600  -26.8900   20.2500 O   0  0  0  0  0  0  0  0  0  0  0  0
  -24.6660  -31.7640   23.2950 C   0  0  0  0  0  0  0  0  0  0  0  0
  -27.6500  -27.5510   20.1910 C   0  0  0  0  0  0  0  0  0  0  0  0
  -23.6030  -30.3760   21.5460 C   0  0  0  0  0  3  0  0  0  0  0  0
  -25.1890  -28.9510   20.1470 C   0  0  0  0  0  0  0  0  0  0  0  0
  -26.1190  -30.8390   21.4940 C   0  0  0  0  0  2  0  0  0  0  0  0
  -26.2920  -29.4960   20.8150 C   0  0  0  0  0  0  0  0  0  0  0  0
  -27.5200  -28.7980   20.8450 C   0  0  0  0  0  3  0  0  0  0  0  0
  -26.5170  -27.0060   19.5410 C   0  0  0  0  0  3  0  0  0  0  0  0
  -25.2950  -27.7010   19.5150 C   0  0  0  0  0  3  0  0  0  0  0  0
  -23.9110  -29.7570   20.1560 C   0  0  0  0  0  2  0  0  0  0  0  0
  -24.8110  -31.0060   22.1710 N   0  0  0  0  0  0  0  0  0  0  0  0
  -23.5490  -31.9750   23.7860 O   0  0  0  0  0  0  0  0  0  0  0  0
  -22.9470  -29.2970   22.4340 C   0  0  0  0  0  0  0  0  0  0  0  0
  -21.6320  -29.0900   22.2510 N   0  0  0  0  0  0  0  0  0  0  0  0
  -23.6170  -28.6480   23.2420 O   0  0  0  0  0  0  0  0  0  0  0  0
  -21.1530  -29.6680   21.5750 H   0  0  0  0  0  0  0  0  0  0  0  0
  -18.2600  -27.8510   22.6280 C   0  0  0  0  0  0  0  0  0  0  0  0
  -20.8120  -28.1000   22.9480 C   0  0  0  0  0  3  0  0  0  0  0  0
  -20.9300  -26.7110   22.2810 C   0  0  0  0  0  2  0  0  0  0  0  0
  -19.8410  -26.4510   21.2350 C   0  0  0  0  0  2  0  0  0  0  0  0
  -18.4520  -26.5480   21.8690 C   0  0  0  0  0  2  0  0  0  0  0  0
  -19.3690  -28.5870   23.1210 C   0  0  0  0  0  0  0  0  0  0  0  0
  -19.1370  -29.8100   23.7890 C   0  0  0  0  0  3  0  0  0  0  0  0
  -17.8280  -30.2950   23.9680 C   0  0  0  0  0  3  0  0  0  0  0  0
  -16.7330  -29.5530   23.4920 C   0  0  0  0  0  3  0  0  0  0  0  0
  -16.9490  -28.3330   22.8270 C   0  0  0  0  0  3  0  0  0  0  0  0
  -25.8930  -32.4200   24.0020 C   0  0  0  0  0  3  0  0  0  0  0  0
  -26.3280  -31.6680   25.3200 C   0  0  1  0  0  0  0  0  0  0  0  0
  -25.1560  -31.3820   26.2880 C   0  0  0  0  0  1  0  0  0  0  0  0
  -26.9990  -30.3170   24.9800 C   0  0  0  0  0  1  0  0  0  0  0  0
  -27.3820  -32.5080   26.0800 C   0  0  0  0  0  1  0  0  0  0  0  0
  -25.5410  -33.8170   24.2930 N   0  0  0  0  0  0  0  0  0  0  0  0
  -25.9180  -34.8650   23.5500 C   0  0  0  0  0  0  0  0  0  0  0  0
  -26.6700  -34.7620   22.5770 O   0  0  0  0  0  0  0  0  0  0  0  0
  -24.8820  -33.9710   25.0420 H   0  0  0  0  0  0  0  0  0  0  0  0
  -24.2030  -36.6300   23.0330 C   0  0  0  0  0  1  0  0  0  0  0  0
  -25.3760  -36.2510   23.9500 C   0  0  0  0  0  3  0  0  0  0  0  0
  -27.4240  -37.1670   24.9470 C   0  0  0  0  0  1  0  0  0  0  0  0
  -26.4010  -37.3170   23.9150 N   0  0  0  0  0  0  0  0  0  0  0  0
  -25.9730  -38.2320   24.0240 H   0  0  0  0  0  0  0  0  0  0  0  0
  1  5  1  0
  2  5  1  0
  3  4  1  0
  3  1  2  0
  4  2  2  0
  5  7  1  0
  7  6  1  0
  8  7  1  0
  9 17  1  0
 10 15  1  0
 11 12  1  0
 11 10  1  0
 13 12  1  0
 13 22  1  0
 13 14  1  0
 15  9  1  0
 15 14  1  0
 16  9  2  0
 17 18  1  0
 17  8  1  0
 19 20  2  0
 20 39  1  0
 21 20  1  0
 21 24  1  0
 22 23  1  0
 22 19  1  0
 23 21  2  0
 24 25  1  0
 25 26  2  0
 27 30  1  0
 27 26  1  0
 28 27  2  0
 29 28  1  0
 29 24  2  0
 30 31  1  0
 31 36  2  0
 31 32  1  0
 32 33  2  0
 33 34  1  0
 34 38  1  0
 35 34  2  0
 36 35  1  0
 37 36  1  0
 39 40  1  0
 40 43  1  0
 40 42  1  0
 41 39  2  0
 44 45  1  0
 44 19  1  0
 46 44  1  0
 47  4  1  0
 48 47  1  0
 49 51  1  0
 51 50  1  0
 51 48  1  0
 52 53  1  0
 52  3  1  0
 54 53  1  0
 54 55  1  0
 56 55  1  0
 56 57  1  0
 58 69  2  0
 59 57  1  0
 59 64  1  0
 60 68  1  0
 60 70  1  0
 61 67  1  0
 61 63  1  0
 62 68  1  0
 63 64  2  0
 63 62  1  0
 65 59  2  0
 66 65  1  0
 66 61  2  0
 67 60  1  0
 68 58  1  0
 70 72  2  0
 71 70  1  0
 73 71  1  0
 74 83  2  0
 74 79  1  0
 75 71  1  0
 75 79  1  0
 76 75  1  0
 77 78  1  0
 77 76  1  0
 78 74  1  0
 79 80  2  0
 80 81  1  0
 82 81  2  0
 83 82  1  0
 84 58  1  0
 84 89  1  0
 84 85  1  0
 85 88  1  1
 85 86  1  0
 87 85  1  0
 89 92  1  0
 90 94  1  0
 90 89  1  0
 91 90  2  0
 94 93  1  0
 96 94  1  0
 96 97  1  0
 96 95  1  0
M  ISO  4   9 100  17 100  56 101  57 101
M  END
>  <TORSDO>  (37) 
F 26

>  <SCORE>  (37) 
-9.895

>  <name>  (37) 
38

>  <ligand_id>  (37) 
38

>  <original_smiles>  (37) 
[H]c1c([H])c([H])c2c(c1[H])C([H])([H])C([H])([H])C([H])([H])C2([H])N([H])C(=O)C1([H])N(C(=O)C([H])(N([H])C(=O)C([H])(N([H])C([H])([H])[H])C([H])([H])[H])C(C([H])([H])[H])(C([H])([H])[H])C([H])([H])[H])C([H])([H])c2c([H])c(OC([H])([H])C([H])([H])C([H])([H])C([H])([H])C([H])([H])c3c(C([H])([H])C([H])([H])C([H])(C([H])([H])[H])C([H])([H])[H])c([H])n(C([H])(C([H])([H])[H])C([H])([H])N([H])C(=O)N4C([H])([H])C([H])([H])C([H])([H])C([H])(n5nc(-c6c([H])c([H])c(Oc7c([H])c([H])c(F)c([H])c7F)c([H])c6[H])c(C(=O)N([H])[H])c5N([H])[H])C4([H])[H])c3[H])c([H])c([H])c2C1([H])[H]

>  <smiles>  (37) 
[H]c1c([H])c([H])c2c(c1[H])C([H])([H])C([H])([H])C([H])([H])C2([H])N([H])C(=O)C1([H])N(C(=O)C([H])(N([H])C(=O)C([H])(N([H])C([H])([H])[H])C([H])([H])[H])C(C([H])([H])[H])(C([H])([H])[H])C([H])([H])[H])C([H])([H])c2c([H])c(OC([H])([H])C([H])([H])C([H])([H])C([H])([H])C([H])([H])c3c(C([H])([H])C([H])([H])C([H])(C([H])([H])[H])C([H])([H])[H])c([H])n(C([H])(C([H])([H])[H])C([H])([H])N([H])C(=O)N4C([H])([H])C([H])([H])C([H])([H])C([H])(n5nc(-c6c([H])c([H])c(Oc7c([H])c([H])c(F)c([H])c7F)c([H])c6[H])c(C(=O)N([H])[H])c5N([H])[H])C4([H])[H])c3[H])c([H])c([H])c2C1([H])[H]

$$$$
39:0:0
     RDKit          3D

 90 98  0  0  1  0  0  0  0  0999 V2000
  -29.5680  -18.1130   19.8010 C   0  0  0  0  0  0  0  0  0  0  0  0
  -29.5860  -19.5550   20.3640 C   0  0  0  0  0  0  0  0  0  0  0  0
  -30.2710  -16.8830   20.4240 C   0  0  0  0  0  0  0  0  0  0  0  0
  -30.3980  -19.5370   21.5350 C   0  0  0  0  0  0  0  0  0  0  0  0
  -30.9090  -17.1900   21.5790 N   0  0  0  0  0  0  0  0  0  0  0  0
  -30.9770  -18.4300   22.0810 N   0  0  0  0  0  0  0  0  0  0  0  0
  -30.7660  -15.3590   19.8970 C   0  0  0  0  0  0  0  0  0  0  0  0
  -30.5810  -12.9430   18.9850 C   0  0  0  0  0  2  0  0  0  0  0  0
  -29.6220  -12.8530   17.7750 C   0  0  0  0  0  2  0  0  0  0  0  0
  -28.1700  -12.6560   18.2500 C   0  0  0  0  0  2  0  0  0  0  0  0
  -27.8140  -13.5680   19.4580 C   0  0  0  0  0  3  0  0  0  0  0  0
  -28.9110  -13.6130   20.5380 C   0  0  0  0  0  2  0  0  0  0  0  0
  -30.1410  -14.0780   19.8800 N   0  0  0  0  0  0  0  0  0  0  0  0
  -31.9360  -15.2850   19.4890 O   0  0  0  0  0  0  0  0  0  0  0  0
  -25.4820  -14.1590   20.3050 C   0  0  0  0  0  0  0  0  0  0  0  0
  -24.4230  -13.4000   20.7100 C   0  0  0  0  0  0  0  0  0  0  0  0
  -24.8640  -12.0410   20.6550 C   0  0  0  0  0  0  0  0  0  0  0  0
  -26.4990  -13.2680   20.0140 N   0  0  0  0  0  0  0  0  0  0  0  0
  -26.1420  -11.9880   20.2920 N   0  0  0  0  0  0  0  0  0  0  0  0
  -24.1190  -10.7910   20.8670 C   0  0  0  0  0  0  0  0  0  0  0  0
  -24.5530   -9.8220   21.8000 C   0  0  0  0  0  3  0  0  0  0  0  0
  -23.8100   -8.6380   22.0030 C   0  0  0  0  0  3  0  0  0  0  0  0
  -22.6170   -8.4180   21.2720 C   0  0  0  0  0  0  0  0  0  0  0  0
  -22.2020   -9.3740   20.3270 C   0  0  0  0  0  3  0  0  0  0  0  0
  -22.9470  -10.5480   20.1230 C   0  0  0  0  0  3  0  0  0  0  0  0
  -21.8440   -7.2880   21.3850 O   0  0  0  0  0  0  0  0  0  0  0  0
  -21.7840   -6.5650   22.5500 C   0  0  0  0  0  0  0  0  0  0  0  0
  -21.3460   -7.1400   23.7630 C   0  0  0  0  0  3  0  0  0  0  0  0
  -21.2390   -6.3430   24.9190 C   0  0  0  0  0  3  0  0  0  0  0  0
  -21.5580   -4.9750   24.8650 C   0  0  0  0  0  0  0  0  0  0  0  0
  -21.9900   -4.3990   23.6560 C   0  0  0  0  0  3  0  0  0  0  0  0
  -22.0980   -5.1920   22.5000 C   0  0  0  0  0  0  0  0  0  0  0  0
  -22.4950   -4.6290   21.3330 F   0  0  0  0  0  0  0  0  0  0  0  0
  -21.4440   -4.2070   25.9730 F   0  0  0  0  0  0  0  0  0  0  0  0
  -23.0420  -13.9020   21.0250 C   0  0  0  0  0  0  0  0  0  0  0  0
  -22.3250  -13.2260   21.9160 N   0  0  0  0  0  0  0  0  0  0  0  0
  -22.6050  -14.9290   20.5070 O   0  0  0  0  0  0  0  0  0  0  0  0
  -22.6940  -12.4020   22.3650 H   0  0  0  0  0  0  0  0  0  0  0  0
  -21.3980  -13.5450   22.1580 H   0  0  0  0  0  0  0  0  0  0  0  0
  -25.6580  -15.5290   20.1340 N   0  0  0  0  0  0  0  0  0  0  0  0
  -24.9050  -16.1850   20.3070 H   0  0  0  0  0  0  0  0  0  0  0  0
  -26.4970  -15.9690   19.7800 H   0  0  0  0  0  0  0  0  0  0  0  0
  -29.4890  -17.9700   17.2360 C   0  0  0  0  0  1  0  0  0  0  0  0
  -28.7140  -17.8830   18.5530 C   0  0  0  0  0  2  0  0  0  0  0  0
  -31.9740  -21.5160   21.6840 C   0  0  0  0  0  1  0  0  0  0  0  0
  -30.7520  -20.7990   22.2870 C   0  0  0  0  0  2  0  0  0  0  0  0
  -28.7970  -21.0560   19.8910 C   0  0  0  0  0  2  0  0  0  0  0  0
  -28.9270  -22.8070   20.3610 C   0  0  0  0  0  3  0  0  0  0  0  0
  -28.0420  -24.3150   19.9520 C   0  0  0  0  0  3  0  0  0  0  0  0
  -28.2310  -25.9070   20.3220 O   0  0  0  0  0  0  0  0  0  0  0  0
  -24.5950  -31.8440   23.2290 C   0  0  0  0  0  0  0  0  0  0  0  0
  -27.2240  -26.9960   20.2330 C   0  0  0  0  0  0  0  0  0  0  0  0
  -23.4390  -30.4440   21.5640 C   0  0  0  0  0  3  0  0  0  0  0  0
  -24.9200  -28.8520   20.1650 C   0  0  0  0  0  0  0  0  0  0  0  0
  -26.0070  -30.6690   21.4670 C   0  0  0  0  0  2  0  0  0  0  0  0
  -26.0940  -29.2620   20.8070 C   0  0  0  0  0  0  0  0  0  0  0  0
  -27.2430  -28.3540   20.8190 C   0  0  0  0  0  3  0  0  0  0  0  0
  -26.0230  -26.7350   19.5430 C   0  0  0  0  0  3  0  0  0  0  0  0
  -24.9080  -27.6070   19.5110 C   0  0  0  0  0  3  0  0  0  0  0  0
  -23.6960  -29.7630   20.1900 C   0  0  0  0  0  2  0  0  0  0  0  0
  -24.7010  -31.0120   22.1400 N   0  0  0  0  0  0  0  0  0  0  0  0
  -23.4950  -32.1220   23.7300 O   0  0  0  0  0  0  0  0  0  0  0  0
  -22.7310  -29.4430   22.5130 C   0  0  0  0  0  0  0  0  0  0  0  0
  -21.4080  -29.2610   22.3520 N   0  0  0  0  0  0  0  0  0  0  0  0
  -23.3810  -28.8310   23.3650 O   0  0  0  0  0  0  0  0  0  0  0  0
  -20.9350  -29.8100   21.6460 H   0  0  0  0  0  0  0  0  0  0  0  0
  -18.0330  -27.9860   22.7450 C   0  0  0  0  0  0  0  0  0  0  0  0
  -20.5740  -28.3150   23.1020 C   0  0  0  0  0  3  0  0  0  0  0  0
  -20.7260  -26.8770   22.5510 C   0  0  0  0  0  2  0  0  0  0  0  0
  -19.6730  -26.5160   21.4980 C   0  0  0  0  0  2  0  0  0  0  0  0
  -18.2670  -26.6340   22.0900 C   0  0  0  0  0  2  0  0  0  0  0  0
  -19.1160  -28.7800   23.2060 C   0  0  0  0  0  0  0  0  0  0  0  0
  -18.8450  -30.0400   23.7810 C   0  0  0  0  0  3  0  0  0  0  0  0
  -17.5230  -30.5100   23.8950 C   0  0  0  0  0  3  0  0  0  0  0  0
  -16.4530  -29.7140   23.4500 C   0  0  0  0  0  3  0  0  0  0  0  0
  -16.7080  -28.4520   22.8850 C   0  0  0  0  0  3  0  0  0  0  0  0
  -25.8500  -32.4930   23.8870 C   0  0  0  0  0  3  0  0  0  0  0  0
  -25.5240  -33.8990   24.1870 N   0  0  0  0  0  0  0  0  0  0  0  0
  -25.8740  -34.9470   23.4300 C   0  0  0  0  0  0  0  0  0  0  0  0
  -26.5610  -34.8330   22.4120 O   0  0  0  0  0  0  0  0  0  0  0  0
  -24.9140  -34.0590   24.9740 H   0  0  0  0  0  0  0  0  0  0  0  0
  -24.1500  -36.7420   23.0370 C   0  0  0  0  0  1  0  0  0  0  0  0
  -25.3830  -36.3440   23.8640 C   0  0  0  0  0  3  0  0  0  0  0  0
  -27.5050  -37.2480   24.7100 C   0  0  0  0  0  1  0  0  0  0  0  0
  -26.4180  -37.3970   23.7480 N   0  0  0  0  0  0  0  0  0  0  0  0
  -26.0080  -38.3200   23.8710 H   0  0  0  0  0  0  0  0  0  0  0  0
  -26.3090  -31.7510   25.2050 C   0  0  1  0  0  0  0  0  0  0  0  0
  -25.1730  -31.5420   26.2370 C   0  0  0  0  0  1  0  0  0  0  0  0
  -26.8980  -30.3610   24.8760 C   0  0  0  0  0  1  0  0  0  0  0  0
  -27.4360  -32.5560   25.8920 C   0  0  0  0  0  1  0  0  0  0  0  0
  1  2  2  0
  1  3  1  0
  2  4  1  0
  3  5  2  0
  4  6  2  0
  4 46  1  0
  5  6  1  0
  7  3  1  0
  8 13  1  0
  9 10  1  0
  9  8  1  0
 11 10  1  0
 11 18  1  0
 11 12  1  0
 13  7  1  0
 13 12  1  0
 14  7  2  0
 15 16  2  0
 16 35  1  0
 17 16  1  0
 17 20  1  0
 18 19  1  0
 18 15  1  0
 19 17  2  0
 20 21  1  0
 21 22  2  0
 23 26  1  0
 23 22  1  0
 24 23  2  0
 25 24  1  0
 25 20  2  0
 26 27  1  0
 27 28  1  0
 28 29  2  0
 30 29  1  0
 30 34  1  0
 31 30  2  0
 32 27  2  0
 32 31  1  0
 33 32  1  0
 35 36  1  0
 36 39  1  0
 36 38  1  0
 37 35  2  0
 40 15  1  0
 40 41  1  0
 42 40  1  0
 43 44  1  0
 44  1  1  0
 45 46  1  0
 47 48  1  0
 47  2  1  0
 49 50  1  0
 49 48  2  0
 51 62  2  0
 52 50  1  0
 52 57  1  0
 53 61  1  0
 53 63  1  0
 54 60  1  0
 54 56  1  0
 55 61  1  0
 56 57  2  0
 56 55  1  0
 58 52  2  0
 59 58  1  0
 59 54  2  0
 60 53  1  0
 61 51  1  0
 63 65  2  0
 64 63  1  0
 66 64  1  0
 67 76  2  0
 67 72  1  0
 68 64  1  0
 68 72  1  0
 69 68  1  0
 70 71  1  0
 70 69  1  0
 71 67  1  0
 72 73  2  0
 73 74  1  0
 75 74  2  0
 76 75  1  0
 77 51  1  0
 77 78  1  0
 77 87  1  0
 78 81  1  0
 79 83  1  0
 79 78  1  0
 80 79  2  0
 83 82  1  0
 85 83  1  0
 85 86  1  0
 85 84  1  0
 87 90  1  1
 87 88  1  0
 89 87  1  0
M  ISO  4   3 100   7 100  49 101  50 101
M  END
>  <TORSDO>  (38) 
F 21

>  <SCORE>  (38) 
-14.439

>  <name>  (38) 
39

>  <ligand_id>  (38) 
39

>  <original_smiles>  (38) 
[H]c1c([H])c([H])c2c(c1[H])C([H])([H])C([H])([H])C([H])([H])C2([H])N([H])C(=O)C1([H])N(C(=O)C([H])(N([H])C(=O)C([H])(N([H])C([H])([H])[H])C([H])([H])[H])C(C([H])([H])[H])(C([H])([H])[H])C([H])([H])[H])C([H])([H])c2c([H])c(OC([H])([H])C([H])([H])C([H])([H])c3c(C([H])([H])C([H])([H])[H])nnc(C(=O)N4C([H])([H])C([H])([H])C([H])([H])C([H])(n5nc(-c6c([H])c([H])c(Oc7c([H])c([H])c(F)c([H])c7F)c([H])c6[H])c(C(=O)N([H])[H])c5N([H])[H])C4([H])[H])c3C([H])([H])C([H])([H])[H])c([H])c([H])c2C1([H])[H]

>  <smiles>  (38) 
[H]c1c([H])c([H])c2c(c1[H])C([H])([H])C([H])([H])C([H])([H])C2([H])N([H])C(=O)C1([H])N(C(=O)C([H])(N([H])C(=O)C([H])(N([H])C([H])([H])[H])C([H])([H])[H])C(C([H])([H])[H])(C([H])([H])[H])C([H])([H])[H])C([H])([H])c2c([H])c(OC([H])([H])C([H])([H])C([H])([H])c3c(C([H])([H])C([H])([H])[H])nnc(C(=O)N4C([H])([H])C([H])([H])C([H])([H])C([H])(n5nc(-c6c([H])c([H])c(Oc7c([H])c([H])c(F)c([H])c7F)c([H])c6[H])c(C(=O)N([H])[H])c5N([H])[H])C4([H])[H])c3C([H])([H])C([H])([H])[H])c([H])c([H])c2C1([H])[H]

$$$$
40:0:0
     RDKit          3D

 89 93  0  0  1  0  0  0  0  0999 V2000
  -24.9880  -19.2580   18.9910 C   0  0  0  0  0  1  0  0  0  0  0  0
  -25.9090  -19.0280   21.2580 C   0  0  0  0  0  1  0  0  0  0  0  0
  -26.2610  -18.8910   19.7700 C   0  0  0  0  0  2  0  0  0  0  0  0
  -27.5990  -14.8520   21.7770 C   0  0  0  0  0  0  0  0  0  0  0  0
  -29.1420  -14.5640   20.6490 C   0  0  0  0  0  0  0  0  0  0  0  0
  -27.5670  -16.2550   18.3850 C   0  0  0  0  0  0  0  0  0  0  0  0
  -26.2640  -16.8810   19.5780 C   0  0  0  0  0  3  0  0  0  0  0  0
  -27.6890  -16.8220   16.9910 C   0  0  0  0  0  1  0  0  0  0  0  0
  -26.2050  -15.9370   21.1560 N   0  0  0  0  0  0  0  0  0  0  0  0
  -28.9870  -15.2350   18.9010 N   0  0  0  0  0  0  0  0  0  0  0  0
  -30.6300  -13.9830   21.1060 C   0  0  0  0  0  0  0  0  0  0  0  0
  -31.3530  -11.5900   20.8690 C   0  0  0  0  0  2  0  0  0  0  0  0
  -30.6930  -11.0680   19.5400 C   0  0  0  0  0  2  0  0  0  0  0  0
  -29.1130  -10.9200   19.6090 C   0  0  0  0  0  2  0  0  0  0  0  0
  -28.5910  -12.1240   20.3720 C   0  0  0  0  0  3  0  0  0  0  0  0
  -29.2410  -12.2300   21.7750 C   0  0  0  0  0  2  0  0  0  0  0  0
  -30.5610  -12.6900   21.4730 N   0  0  0  0  0  0  0  0  0  0  0  0
  -31.7890  -14.4390   20.8910 O   0  0  0  0  0  0  0  0  0  0  0  0
  -26.8160  -14.3180   20.3010 C   0  0  0  0  0  3  0  0  0  0  0  0
  -25.4300  -13.5450   20.3460 C   0  0  0  0  0  0  0  0  0  0  0  0
  -25.3820  -12.0250   20.5860 C   0  0  0  0  0  0  0  0  0  0  0  0
  -27.2860  -12.8090   20.3090 N   0  0  0  0  0  0  0  0  0  0  0  0
  -26.5760  -11.6930   20.5920 N   0  0  0  0  0  2  0  0  0  0  0  0
  -24.4300  -10.7380   20.7450 C   0  0  0  0  0  0  0  0  0  0  0  0
  -24.5500   -9.7560   21.8010 C   0  0  0  0  0  3  0  0  0  0  0  0
  -23.7130   -8.5900   21.9380 C   0  0  0  0  0  3  0  0  0  0  0  0
  -22.6930   -8.3050   20.9960 C   0  0  0  0  0  0  0  0  0  0  0  0
  -22.5990   -9.2060   19.9120 C   0  0  0  0  0  3  0  0  0  0  0  0
  -23.4330  -10.3640   19.7910 C   0  0  0  0  0  3  0  0  0  0  0  0
  -21.8470   -7.1950   21.0150 O   0  0  0  0  0  0  0  0  0  0  0  0
  -21.4030   -6.5650   22.1690 C   0  0  0  0  0  0  0  0  0  0  0  0
  -20.8010   -7.2790   23.2300 C   0  0  0  0  0  3  0  0  0  0  0  0
  -20.3110   -6.5990   24.3660 C   0  0  0  0  0  3  0  0  0  0  0  0
  -20.4090   -5.1970   24.4540 C   0  0  0  0  0  0  0  0  0  0  0  0
  -20.9790   -4.4730   23.3930 C   0  0  0  0  0  3  0  0  0  0  0  0
  -21.4620   -5.1510   22.2550 C   0  0  0  0  0  0  0  0  0  0  0  0
  -21.9810   -4.4260   21.2330 F   0  0  0  0  0  0  0  0  0  0  0  0
  -19.9540   -4.5460   25.5520 F   0  0  0  0  0  0  0  0  0  0  0  0
  -23.9730  -13.9630   20.1130 C   0  0  0  0  0  0  0  0  0  0  0  0
  -22.9780  -13.4230   20.8530 N   0  0  0  0  0  0  0  0  0  0  0  0
  -23.6630  -14.6840   19.1800 O   0  0  0  0  0  0  0  0  0  0  0  0
  -23.1660  -12.7900   21.6180 H   0  0  0  0  0  0  0  0  0  0  0  0
  -22.0190  -13.6750   20.6520 H   0  0  0  0  0  0  0  0  0  0  0  0
  -28.4060  -16.5110   20.5170 N   0  0  0  0  0  2  0  0  0  0  0  0
  -27.9110  -17.3870   20.4190 H   0  0  0  0  0  0  0  0  0  0  0  0
  -29.0980  -16.3310   19.7930 H   0  0  0  0  0  0  0  0  0  0  0  0
  -27.3160  -20.7020   19.5230 C   0  0  0  0  0 15  0  0  0  0  0  0
  -27.2740  -22.8190   19.6020 C   0  0  0  0  0 15  0  0  0  0  0  0
  -28.1660  -24.5080   19.6820 O   0  0  0  0  0  1  0  0  0  0  0  0
  -25.6260  -31.2150   22.8930 C   0  0  0  0  0  0  0  0  0  0  0  0
  -27.7070  -26.0360   19.6440 C   0  0  0  0  0  0  0  0  0  0  0  0
  -24.4690  -29.9610   21.1470 C   0  0  0  0  0  3  0  0  0  0  0  0
  -25.8730  -28.4310   19.5910 C   0  0  0  0  0  0  0  0  0  0  0  0
  -27.0520  -29.9660   21.1220 C   0  0  0  0  0  2  0  0  0  0  0  0
  -27.0370  -28.5720   20.3470 C   0  0  0  0  0  0  0  0  0  0  0  0
  -27.9750  -27.3880   20.3480 C   0  0  0  0  0  3  0  0  0  0  0  0
  -26.6690  -26.2460   18.7390 C   0  0  0  0  0  3  0  0  0  0  0  0
  -25.7660  -27.3290   18.7410 C   0  0  0  0  0  3  0  0  0  0  0  0
  -24.7260  -29.4360   19.7100 C   0  0  0  0  0  2  0  0  0  0  0  0
  -25.7470  -30.4230   21.7700 N   0  0  0  0  0  0  0  0  0  0  0  0
  -24.5190  -31.4840   23.3940 O   0  0  0  0  0  0  0  0  0  0  0  0
  -23.7520  -28.8860   22.0090 C   0  0  0  0  0  0  0  0  0  0  0  0
  -22.4190  -28.7510   21.8740 N   0  0  0  0  0  0  0  0  0  0  0  0
  -24.4030  -28.1860   22.7870 O   0  0  0  0  0  0  0  0  0  0  0  0
  -21.9410  -29.3700   21.2320 H   0  0  0  0  0  0  0  0  0  0  0  0
  -19.0320  -27.4950   22.2580 C   0  0  0  0  0  0  0  0  0  0  0  0
  -21.5890  -27.7560   22.5640 C   0  0  0  0  0  3  0  0  0  0  0  0
  -21.7030  -26.3720   21.8840 C   0  0  0  0  0  2  0  0  0  0  0  0
  -20.6150  -26.1250   20.8350 C   0  0  0  0  0  2  0  0  0  0  0  0
  -19.2250  -26.2080   21.4730 C   0  0  0  0  0  2  0  0  0  0  0  0
  -20.1410  -28.2310   22.7560 C   0  0  0  0  0  0  0  0  0  0  0  0
  -19.9060  -29.4350   23.4550 C   0  0  0  0  0  3  0  0  0  0  0  0
  -18.5940  -29.9070   23.6550 C   0  0  0  0  0  3  0  0  0  0  0  0
  -17.5000  -29.1700   23.1690 C   0  0  0  0  0  3  0  0  0  0  0  0
  -17.7200  -27.9650   22.4770 C   0  0  0  0  0  3  0  0  0  0  0  0
  -26.8650  -31.8360   23.6030 C   0  0  0  0  0  3  0  0  0  0  0  0
  -27.3780  -30.9670   24.8180 C   0  0  1  0  0  0  0  0  0  0  0  0
  -26.2750  -30.6120   25.8430 C   0  0  0  0  0  1  0  0  0  0  0  0
  -28.0010  -29.6390   24.3390 C   0  0  0  0  0  1  0  0  0  0  0  0
  -28.4980  -31.7290   25.5660 C   0  0  0  0  0  1  0  0  0  0  0  0
  -26.4870  -33.1830   24.0880 N   0  0  0  0  0  0  0  0  0  0  0  0
  -26.8640  -34.3460   23.5380 C   0  0  0  0  0  0  0  0  0  0  0  0
  -27.6260  -34.4020   22.5710 O   0  0  0  0  0  0  0  0  0  0  0  0
  -25.8110  -33.2110   24.8360 H   0  0  0  0  0  0  0  0  0  0  0  0
  -25.1470  -36.1840   23.3190 C   0  0  0  0  0  1  0  0  0  0  0  0
  -26.3190  -35.6520   24.1600 C   0  0  0  0  0  3  0  0  0  0  0  0
  -28.3500  -36.4190   25.3110 C   0  0  0  0  0  1  0  0  0  0  0  0
  -27.3400  -36.7140   24.2990 N   0  0  0  0  0  0  0  0  0  0  0  0
  -26.9060  -37.6030   24.5330 H   0  0  0  0  0  0  0  0  0  0  0  0
  1  3  1  0
  3  2  1  0
  5 11  1  0
  5  4  2  3
  6 10  2  0
  6  7  1  0
  7  9  2  0
  8  6  1  0
  9  4  1  0
 10  5  1  0
 11 17  1  0
 12 17  1  0
 13 14  1  0
 13 12  1  0
 15 14  1  0
 15 16  1  0
 17 16  1  0
 18 11  2  0
 19 22  1  0
 19 20  1  0
 19  4  1  0
 20 21  2  0
 21 23  1  0
 21 24  1  0
 22 15  1  0
 22 23  1  0
 24 25  1  0
 25 26  2  0
 27 30  1  0
 27 26  1  0
 28 27  2  0
 29 28  1  0
 29 24  2  0
 30 31  1  0
 31 36  2  0
 31 32  1  0
 32 33  2  0
 33 34  1  0
 34 38  1  0
 35 34  2  0
 36 35  1  0
 37 36  1  0
 39 20  1  0
 39 40  1  0
 40 42  1  0
 41 39  2  0
 43 40  1  0
 45 44  1  0
 46 44  1  0
 50 61  2  0
 51 49  1  0
 51 56  1  0
 52 60  1  0
 52 62  1  0
 53 59  1  0
 53 55  1  0
 54 60  1  0
 55 56  2  0
 55 54  1  0
 57 58  1  0
 57 51  2  0
 58 53  2  0
 59 52  1  0
 60 50  1  0
 62 64  2  0
 63 62  1  0
 65 63  1  0
 66 75  2  0
 66 71  1  0
 67 63  1  0
 67 71  1  0
 68 67  1  0
 69 70  1  0
 69 68  1  0
 70 66  1  0
 71 72  2  0
 72 73  1  0
 74 73  2  0
 75 74  1  0
 76 50  1  0
 76 81  1  0
 76 77  1  0
 77 80  1  1
 77 78  1  0
 79 77  1  0
 81 84  1  0
 82 81  1  0
 82 86  1  0
 83 82  2  0
 86 85  1  0
 86 88  1  0
 88 89  1  0
 88 87  1  0
M  ISO  4   5 100  11 100  48 101  49 101
M  END
>  <TORSDO>  (39) 
F 19

>  <SCORE>  (39) 
3.920

>  <name>  (39) 
40

>  <ligand_id>  (39) 
40

>  <original_smiles>  (39) 
[H]c1nc(C(C([H])([H])[H])(C([H])([H])[H])C([H])([H])C([H])([H])Oc2c([H])c([H])c3c(c2[H])C([H])([H])N(C(=O)C([H])(N([H])C(=O)C([H])(N([H])C([H])([H])[H])C([H])([H])[H])C(C([H])([H])[H])(C([H])([H])[H])C([H])([H])[H])C([H])(C(=O)N([H])C2([H])c4c([H])c([H])c([H])c([H])c4C([H])([H])C([H])([H])C2([H])[H])C3([H])[H])c(C([H])([H])[H])nc1C(=O)N1C([H])([H])C([H])([H])C([H])([H])C([H])(n2nc(-c3c([H])c([H])c(Oc4c([H])c([H])c(F)c([H])c4F)c([H])c3[H])c(C(=O)N([H])[H])c2N([H])[H])C1([H])[H]

>  <smiles>  (39) 
[H]c1nc(C(C([H])([H])[H])(C([H])([H])[H])C([H])([H])C([H])([H])Oc2c([H])c([H])c3c(c2[H])C([H])([H])N(C(=O)C([H])(N([H])C(=O)C([H])(N([H])C([H])([H])[H])C([H])([H])[H])C(C([H])([H])[H])(C([H])([H])[H])C([H])([H])[H])C([H])(C(=O)N([H])C2([H])c4c([H])c([H])c([H])c([H])c4C([H])([H])C([H])([H])C2([H])[H])C3([H])[H])c(C([H])([H])[H])nc1C(=O)N1C([H])([H])C([H])([H])C([H])([H])C([H])(n2nc(-c3c([H])c([H])c(Oc4c([H])c([H])c(F)c([H])c4F)c([H])c3[H])c(C(=O)N([H])[H])c2N([H])[H])C1([H])[H]

$$$$
41:0:0
     RDKit          3D

 94102  0  0  1  0  0  0  0  0999 V2000
  -29.1910  -22.2730   20.5830 C   0  0  0  0  0  3  0  0  0  0  0  0
  -31.1260  -21.8820   19.0260 C   0  0  0  0  0  3  0  0  0  0  0  0
  -31.8700  -20.8710   18.4900 C   0  0  0  0  0  0  0  0  0  0  0  0
  -30.3250  -19.9510   19.8510 C   0  0  0  0  0  0  0  0  0  0  0  0
  -33.0220  -20.8900   17.5380 C   0  0  0  0  0  1  0  0  0  0  0  0
  -30.1630  -21.3410   19.8550 N   0  0  0  0  0  0  0  0  0  0  0  0
  -31.3460  -19.7270   19.0090 N   0  0  0  0  0  0  0  0  0  0  0  0
  -31.6880  -18.8000   18.7820 H   0  0  0  0  0  0  0  0  0  0  0  0
  -29.6490  -18.6820   20.4870 C   0  0  0  0  0  3  0  0  0  0  0  0
  -30.4620  -17.2830   20.2920 C   0  0  0  0  0  2  0  0  0  0  0  0
  -30.6090  -14.7190   20.3840 C   0  0  0  0  0  0  0  0  0  0  0  0
  -30.3350  -12.4700   19.3530 C   0  0  0  0  0  2  0  0  0  0  0  0
  -29.4040  -12.5790   18.1280 C   0  0  0  0  0  2  0  0  0  0  0  0
  -27.9330  -12.4230   18.5560 C   0  0  0  0  0  2  0  0  0  0  0  0
  -27.5720  -13.3010   19.7840 C   0  0  0  0  0  3  0  0  0  0  0  0
  -28.6310  -13.2010   20.9050 C   0  0  0  0  0  2  0  0  0  0  0  0
  -29.9330  -13.5250   20.3110 N   0  0  0  0  0  0  0  0  0  0  0  0
  -31.7890  -14.7800   20.0320 O   0  0  0  0  0  0  0  0  0  0  0  0
  -29.9150  -15.8950   20.6100 N   0  0  0  0  0  0  0  0  0  0  0  0
  -28.9400  -15.8150   20.8630 H   0  0  0  0  0  0  0  0  0  0  0  0
  -25.1840  -13.8990   20.5070 C   0  0  0  0  0  0  0  0  0  0  0  0
  -24.1160  -13.1280   20.8750 C   0  0  0  0  0  0  0  0  0  0  0  0
  -24.5760  -11.7750   20.8470 C   0  0  0  0  0  0  0  0  0  0  0  0
  -26.2260  -13.0170   20.2740 N   0  0  0  0  0  0  0  0  0  0  0  0
  -25.8670  -11.7340   20.5420 N   0  0  0  0  0  0  0  0  0  0  0  0
  -23.8440  -10.5160   21.0370 C   0  0  0  0  0  0  0  0  0  0  0  0
  -24.2750   -9.5440   21.9680 C   0  0  0  0  0  3  0  0  0  0  0  0
  -23.5430   -8.3500   22.1470 C   0  0  0  0  0  3  0  0  0  0  0  0
  -22.3670   -8.1190   21.3950 C   0  0  0  0  0  0  0  0  0  0  0  0
  -21.9550   -9.0780   20.4530 C   0  0  0  0  0  3  0  0  0  0  0  0
  -22.6860  -10.2640   20.2730 C   0  0  0  0  0  3  0  0  0  0  0  0
  -21.6060   -6.9780   21.4840 O   0  0  0  0  0  0  0  0  0  0  0  0
  -21.5650   -6.2290   22.6320 C   0  0  0  0  0  0  0  0  0  0  0  0
  -21.1550   -6.7780   23.8670 C   0  0  0  0  0  3  0  0  0  0  0  0
  -21.0610   -5.9550   25.0070 C   0  0  0  0  0  3  0  0  0  0  0  0
  -21.3640   -4.5840   24.9140 C   0  0  0  0  0  0  0  0  0  0  0  0
  -21.7660   -4.0340   23.6840 C   0  0  0  0  0  3  0  0  0  0  0  0
  -21.8630   -4.8540   22.5450 C   0  0  0  0  0  0  0  0  0  0  0  0
  -22.2300   -4.3140   21.3580 F   0  0  0  0  0  0  0  0  0  0  0  0
  -21.2660   -3.7910   26.0060 F   0  0  0  0  0  0  0  0  0  0  0  0
  -22.7190  -13.6100   21.1410 C   0  0  0  0  0  0  0  0  0  0  0  0
  -21.9860  -12.9170   22.0040 N   0  0  0  0  0  0  0  0  0  0  0  0
  -22.2880  -14.6370   20.6180 O   0  0  0  0  0  0  0  0  0  0  0  0
  -22.3480  -12.0860   22.4480 H   0  0  0  0  0  0  0  0  0  0  0  0
  -21.0480  -13.2210   22.2240 H   0  0  0  0  0  0  0  0  0  0  0  0
  -25.3510  -15.2690   20.3260 N   0  0  0  0  0  0  0  0  0  0  0  0
  -24.5800  -15.9210   20.4250 H   0  0  0  0  0  0  0  0  0  0  0  0
  -26.1930  -15.7050   19.9710 H   0  0  0  0  0  0  0  0  0  0  0  0
  -29.1960  -23.8490   20.1340 C   0  0  0  0  0  3  0  0  0  0  0  0
  -28.4170  -25.1700   22.1780 C   0  0  0  0  0  1  0  0  0  0  0  0
  -28.1310  -24.9350   20.6840 C   0  0  2  0  0  0  0  0  0  0  0  0
  -26.3810  -23.6390   19.1900 C   0  0  0  0  0  1  0  0  0  0  0  0
  -26.7280  -24.2590   20.5640 C   0  0  0  0  0  2  0  0  0  0  0  0
  -28.2580  -26.3450   20.1160 O   0  0  0  0  0  0  0  0  0  0  0  0
  -24.6270  -31.8750   23.2040 C   0  0  0  0  0  0  0  0  0  0  0  0
  -27.1860  -27.2750   20.1220 C   0  0  0  0  0  0  0  0  0  0  0  0
  -23.4170  -30.4980   21.5570 C   0  0  0  0  0  3  0  0  0  0  0  0
  -24.8570  -28.9600   20.1140 C   0  0  0  0  0  0  0  0  0  0  0  0
  -25.9660  -30.7820   21.3880 C   0  0  0  0  0  2  0  0  0  0  0  0
  -26.0320  -29.4040   20.7360 C   0  0  0  0  0  0  0  0  0  0  0  0
  -27.1980  -28.5700   20.7430 C   0  0  0  0  0  3  0  0  0  0  0  0
  -26.0150  -26.9530   19.4090 C   0  0  0  0  0  3  0  0  0  0  0  0
  -24.8520  -27.7370   19.4400 C   0  0  0  0  0  3  0  0  0  0  0  0
  -23.6290  -29.8430   20.1700 C   0  0  0  0  0  2  0  0  0  0  0  0
  -24.6890  -31.0700   22.1040 N   0  0  0  0  0  0  0  0  0  0  0  0
  -23.5430  -32.1560   23.7370 O   0  0  0  0  0  0  0  0  0  0  0  0
  -22.7480  -29.4720   22.5050 C   0  0  0  0  0  0  0  0  0  0  0  0
  -21.4240  -29.2930   22.3690 N   0  0  0  0  0  0  0  0  0  0  0  0
  -23.4220  -28.8440   23.3260 O   0  0  0  0  0  0  0  0  0  0  0  0
  -20.9390  -29.8510   21.6800 H   0  0  0  0  0  0  0  0  0  0  0  0
  -18.0460  -28.0780   22.8350 C   0  0  0  0  0  0  0  0  0  0  0  0
  -20.6000  -28.3530   23.1320 C   0  0  0  0  0  3  0  0  0  0  0  0
  -20.7170  -26.9200   22.5630 C   0  0  0  0  0  2  0  0  0  0  0  0
  -19.6280  -26.5870   21.5380 C   0  0  0  0  0  2  0  0  0  0  0  0
  -18.2380  -26.7270   22.1650 C   0  0  0  0  0  2  0  0  0  0  0  0
  -19.1560  -28.8480   23.2740 C   0  0  0  0  0  0  0  0  0  0  0  0
  -18.9230  -30.1110   23.8590 C   0  0  0  0  0  3  0  0  0  0  0  0
  -17.6130  -30.6050   24.0110 C   0  0  0  0  0  3  0  0  0  0  0  0
  -16.5180  -29.8310   23.5880 C   0  0  0  0  0  3  0  0  0  0  0  0
  -16.7350  -28.5700   23.0050 C   0  0  0  0  0  3  0  0  0  0  0  0
  -25.9120  -32.5000   23.8280 C   0  0  0  0  0  3  0  0  0  0  0  0
  -25.6050  -33.8960   24.1700 N   0  0  0  0  0  0  0  0  0  0  0  0
  -25.9320  -34.9550   23.4170 C   0  0  0  0  0  0  0  0  0  0  0  0
  -26.5940  -34.8590   22.3810 O   0  0  0  0  0  0  0  0  0  0  0  0
  -25.0190  -34.0460   24.9790 H   0  0  0  0  0  0  0  0  0  0  0  0
  -24.2030  -36.7540   23.0910 C   0  0  0  0  0  1  0  0  0  0  0  0
  -25.4480  -36.3400   23.8900 C   0  0  0  0  0  3  0  0  0  0  0  0
  -27.5910  -37.2150   24.7120 C   0  0  0  0  0  1  0  0  0  0  0  0
  -26.4820  -37.3940   23.7790 N   0  0  0  0  0  0  0  0  0  0  0  0
  -26.0770  -38.3130   23.9380 H   0  0  0  0  0  0  0  0  0  0  0  0
  -26.4250  -31.7170   25.0990 C   0  0  1  0  0  0  0  0  0  0  0  0
  -25.3280  -31.4680   26.1610 C   0  0  0  0  0  1  0  0  0  0  0  0
  -27.0130  -30.3440   24.7000 C   0  0  0  0  0  1  0  0  0  0  0  0
  -27.5700  -32.5090   25.7710 C   0  0  0  0  0  1  0  0  0  0  0  0
  2  6  1  0
  3  7  1  0
  3  2  2  0
  4  6  1  0
  4  9  2  0
  5  3  1  0
  6  1  1  0
  7  4  1  0
  8  7  1  0
 10  9  1  0
 10 19  1  0
 11 19  1  0
 12 17  1  0
 13 14  1  0
 13 12  1  0
 15 14  1  0
 15 24  1  0
 15 16  1  0
 17 11  1  0
 17 16  1  0
 18 11  2  0
 19 20  1  0
 21 22  2  0
 22 41  1  0
 23 22  1  0
 23 26  1  0
 24 21  1  0
 24 25  1  0
 25 23  2  0
 26 27  1  0
 27 28  2  0
 29 32  1  0
 29 28  1  0
 30 29  2  0
 31 30  1  0
 31 26  2  0
 32 33  1  0
 33 34  1  0
 34 35  2  0
 36 35  1  0
 36 40  1  0
 37 36  2  0
 38 33  2  0
 38 37  1  0
 39 38  1  0
 41 42  1  0
 42 45  1  0
 42 44  1  0
 43 41  2  0
 46 47  1  0
 46 21  1  0
 48 46  1  0
 49  1  2  0
 49 51  1  0
 51 50  1  1
 52 53  1  0
 53 51  1  0
 54 56  1  0
 54 51  1  0
 55 66  2  0
 56 61  1  0
 57 65  1  0
 57 67  1  0
 58 64  1  0
 58 60  1  0
 59 65  1  0
 60 61  2  0
 60 59  1  0
 62 63  1  0
 62 56  2  0
 63 58  2  0
 64 57  1  0
 65 55  1  0
 67 69  2  0
 68 67  1  0
 70 68  1  0
 71 80  2  0
 71 76  1  0
 72 68  1  0
 72 76  1  0
 73 72  1  0
 74 75  1  0
 74 73  1  0
 75 71  1  0
 76 77  2  0
 77 78  1  0
 79 78  2  0
 80 79  1  0
 81 55  1  0
 81 82  1  0
 81 91  1  0
 82 85  1  0
 83 87  1  0
 83 82  1  0
 84 83  2  0
 87 86  1  0
 89 87  1  0
 89 90  1  0
 89 88  1  0
 91 94  1  1
 91 92  1  0
 93 91  1  0
M  ISO  4  11 100  19 100  51 101  54 101
M  END
>  <TORSDO>  (40) 
F 22

>  <SCORE>  (40) 
-13.176

>  <name>  (40) 
41

>  <ligand_id>  (40) 
41

>  <original_smiles>  (40) 
[H]c1c([H])c([H])c2c(c1[H])C([H])([H])C([H])([H])C([H])([H])C2([H])N([H])C(=O)C1([H])N(C(=O)C([H])(N([H])C(=O)C([H])(N([H])C([H])([H])[H])C([H])([H])[H])C(C([H])([H])[H])(C([H])([H])[H])C([H])([H])[H])C([H])([H])c2c([H])c(OC(C([H])([H])[H])(C([H])([H])C([H])([H])[H])C([H])([H])C([H])([H])n3c([H])c(C([H])([H])[H])[n+]([H])c3C([H])([H])C([H])([H])N([H])C(=O)N3C([H])([H])C([H])([H])C([H])([H])C([H])(n4nc(-c5c([H])c([H])c(Oc6c([H])c([H])c(F)c([H])c6F)c([H])c5[H])c(C(=O)N([H])[H])c4N([H])[H])C3([H])[H])c([H])c([H])c2C1([H])[H]

>  <smiles>  (40) 
[H]c1c([H])c([H])c2c(c1[H])C([H])([H])C([H])([H])C([H])([H])C2([H])N([H])C(=O)C1([H])N(C(=O)C([H])(N([H])C(=O)C([H])(N([H])C([H])([H])[H])C([H])([H])[H])C(C([H])([H])[H])(C([H])([H])[H])C([H])([H])[H])C([H])([H])c2c([H])c(OC(C([H])([H])[H])(C([H])([H])C([H])([H])[H])C([H])([H])C([H])([H])n3c([H])c(C([H])([H])[H])[n+]([H])c3C([H])([H])C([H])([H])N([H])C(=O)N3C([H])([H])C([H])([H])C([H])([H])C([H])(n4nc(-c5c([H])c([H])c(Oc6c([H])c([H])c(F)c([H])c6F)c([H])c5[H])c(C(=O)N([H])[H])c4N([H])[H])C3([H])[H])c([H])c([H])c2C1([H])[H]

$$$$
42:0:0
     RDKit          3D

 94102  0  0  1  0  0  0  0  0999 V2000
  -30.2200  -20.6330   20.2170 C   0  0  0  0  0  3  0  0  0  0  0  0
  -29.6980  -21.8660   20.6760 C   0  0  0  0  0  0  0  0  0  0  0  0
  -30.5050  -19.6350   21.1780 C   0  0  0  0  0  0  0  0  0  0  0  0
  -29.8440  -21.0990   22.8290 C   0  0  0  0  0  0  0  0  0  0  0  0
  -29.4980  -22.0650   21.9880 N   0  0  0  0  0  0  0  0  0  0  0  0
  -30.3070  -19.8970   22.4880 N   0  0  0  0  0  0  0  0  0  0  0  0
  -32.1470  -17.8020   21.8520 C   0  0  0  0  0  1  0  0  0  0  0  0
  -31.0750  -18.2270   20.8330 C   0  0  0  0  0  3  0  0  0  0  0  0
  -29.9780  -17.1350   20.5820 C   0  0  0  0  0  2  0  0  0  0  0  0
  -30.9760  -14.7780   20.4440 C   0  0  0  0  0  0  0  0  0  0  0  0
  -30.7410  -12.6020   19.2850 C   0  0  0  0  0  2  0  0  0  0  0  0
  -29.8140  -12.8160   18.0690 C   0  0  0  0  0  2  0  0  0  0  0  0
  -28.3300  -12.6930   18.4670 C   0  0  0  0  0  2  0  0  0  0  0  0
  -27.9820  -13.5150   19.7350 C   0  0  0  0  0  3  0  0  0  0  0  0
  -29.0130  -13.2490   20.8570 C   0  0  0  0  0  2  0  0  0  0  0  0
  -30.3550  -13.5670   20.3300 N   0  0  0  0  0  0  0  0  0  0  0  0
  -32.0670  -15.0270   19.9230 O   0  0  0  0  0  0  0  0  0  0  0  0
  -30.2200  -15.7350   21.0270 N   0  0  0  0  0  0  0  0  0  0  0  0
  -29.4500  -15.3470   21.5510 H   0  0  0  0  0  0  0  0  0  0  0  0
  -25.5710  -14.1550   20.3730 C   0  0  0  0  0  0  0  0  0  0  0  0
  -24.4900  -13.4000   20.7370 C   0  0  0  0  0  0  0  0  0  0  0  0
  -24.9400  -12.0440   20.7430 C   0  0  0  0  0  0  0  0  0  0  0  0
  -26.6150  -13.2620   20.1830 N   0  0  0  0  0  0  0  0  0  0  0  0
  -26.2340  -11.9880   20.4580 N   0  0  0  0  0  0  0  0  0  0  0  0
  -24.2000  -10.7910   20.9430 C   0  0  0  0  0  0  0  0  0  0  0  0
  -24.5900   -9.8540   21.9230 C   0  0  0  0  0  3  0  0  0  0  0  0
  -23.8530   -8.6640   22.1090 C   0  0  0  0  0  3  0  0  0  0  0  0
  -22.7110   -8.4050   21.3150 C   0  0  0  0  0  0  0  0  0  0  0  0
  -22.3430   -9.3310   20.3230 C   0  0  0  0  0  3  0  0  0  0  0  0
  -23.0810  -10.5110   20.1340 C   0  0  0  0  0  3  0  0  0  0  0  0
  -21.9470   -7.2670   21.4090 O   0  0  0  0  0  0  0  0  0  0  0  0
  -21.8180   -6.5820   22.5910 C   0  0  0  0  0  0  0  0  0  0  0  0
  -21.3340   -7.2030   23.7630 C   0  0  0  0  0  3  0  0  0  0  0  0
  -21.1520   -6.4450   24.9380 C   0  0  0  0  0  3  0  0  0  0  0  0
  -21.4420   -5.0680   24.9400 C   0  0  0  0  0  0  0  0  0  0  0  0
  -21.9180   -4.4470   23.7720 C   0  0  0  0  0  3  0  0  0  0  0  0
  -22.1020   -5.2020   22.6010 C   0  0  0  0  0  0  0  0  0  0  0  0
  -22.5400   -4.5940   21.4720 F   0  0  0  0  0  0  0  0  0  0  0  0
  -21.2600   -4.3370   26.0650 F   0  0  0  0  0  0  0  0  0  0  0  0
  -23.0910  -13.8900   20.9770 C   0  0  0  0  0  0  0  0  0  0  0  0
  -22.3480  -13.2230   21.8530 N   0  0  0  0  0  0  0  0  0  0  0  0
  -22.6660  -14.9020   20.4190 O   0  0  0  0  0  0  0  0  0  0  0  0
  -22.7020  -12.4040   22.3250 H   0  0  0  0  0  0  0  0  0  0  0  0
  -21.4090  -13.5350   22.0550 H   0  0  0  0  0  0  0  0  0  0  0  0
  -25.7530  -15.5210   20.1700 N   0  0  0  0  0  0  0  0  0  0  0  0
  -24.9910  -16.1860   20.2430 H   0  0  0  0  0  0  0  0  0  0  0  0
  -26.6150  -15.9410   19.8480 H   0  0  0  0  0  0  0  0  0  0  0  0
  -29.2140  -22.9860   19.7390 C   0  0  0  0  0  2  0  0  0  0  0  0
  -29.0650  -24.4130   20.3620 C   0  0  0  0  0  2  0  0  0  0  0  0
  -28.7530  -25.5230   19.3200 C   0  0  0  0  0  2  0  0  0  0  0  0
  -28.5670  -26.8320   19.8950 O   0  0  0  0  0  0  0  0  0  0  0  0
  -24.6360  -31.7630   23.1890 C   0  0  0  0  0  0  0  0  0  0  0  0
  -27.3430  -27.4810   19.9090 C   0  0  0  0  0  0  0  0  0  0  0  0
  -23.4340  -30.3940   21.5130 C   0  0  0  0  0  3  0  0  0  0  0  0
  -24.9010  -28.9350   20.0150 C   0  0  0  0  0  0  0  0  0  0  0  0
  -25.9530  -30.8070   21.3000 C   0  0  0  0  0  2  0  0  0  0  0  0
  -26.0540  -29.4610   20.6070 C   0  0  0  0  0  0  0  0  0  0  0  0
  -27.2700  -28.7410   20.5530 C   0  0  0  0  0  3  0  0  0  0  0  0
  -26.1620  -26.9630   19.3260 C   0  0  0  0  0  3  0  0  0  0  0  0
  -24.9520  -27.6830   19.3740 C   0  0  0  0  0  3  0  0  0  0  0  0
  -23.6380  -29.7650   20.1090 C   0  0  0  0  0  2  0  0  0  0  0  0
  -24.6910  -31.0070   22.0560 N   0  0  0  0  0  0  0  0  0  0  0  0
  -23.5590  -31.9890   23.7580 O   0  0  0  0  0  0  0  0  0  0  0  0
  -22.8220  -29.3260   22.4480 C   0  0  0  0  0  0  0  0  0  0  0  0
  -21.5100  -29.0790   22.2980 N   0  0  0  0  0  0  0  0  0  0  0  0
  -23.5250  -28.7210   23.2610 O   0  0  0  0  0  0  0  0  0  0  0  0
  -21.0030  -29.6110   21.6050 H   0  0  0  0  0  0  0  0  0  0  0  0
  -18.2090  -27.6570   22.6870 C   0  0  0  0  0  0  0  0  0  0  0  0
  -20.7340  -28.0890   23.0450 C   0  0  0  0  0  3  0  0  0  0  0  0
  -20.9550  -26.6690   22.4750 C   0  0  0  0  0  2  0  0  0  0  0  0
  -19.9120  -26.2710   21.4260 C   0  0  0  0  0  2  0  0  0  0  0  0
  -18.5010  -26.3230   22.0200 C   0  0  0  0  0  2  0  0  0  0  0  0
  -19.2600  -28.4920   23.1560 C   0  0  0  0  0  0  0  0  0  0  0  0
  -18.9370  -29.7370   23.7370 C   0  0  0  0  0  3  0  0  0  0  0  0
  -17.5960  -30.1490   23.8600 C   0  0  0  0  0  3  0  0  0  0  0  0
  -16.5600  -29.3110   23.4110 C   0  0  0  0  0  3  0  0  0  0  0  0
  -16.8670  -28.0680   22.8290 C   0  0  0  0  0  3  0  0  0  0  0  0
  -25.9190  -32.4010   23.8110 C   0  0  0  0  0  3  0  0  0  0  0  0
  -25.5940  -33.7860   24.1800 N   0  0  0  0  0  0  0  0  0  0  0  0
  -25.8990  -34.8610   23.4420 C   0  0  0  0  0  0  0  0  0  0  0  0
  -26.5600  -34.7950   22.4030 O   0  0  0  0  0  0  0  0  0  0  0  0
  -25.0160  -33.9110   24.9980 H   0  0  0  0  0  0  0  0  0  0  0  0
  -24.1310  -36.6270   23.1460 C   0  0  0  0  0  1  0  0  0  0  0  0
  -25.3890  -36.2290   23.9350 C   0  0  0  0  0  3  0  0  0  0  0  0
  -27.5160  -37.1390   24.7600 C   0  0  0  0  0  1  0  0  0  0  0  0
  -26.3990  -37.3050   23.8340 N   0  0  0  0  0  0  0  0  0  0  0  0
  -25.9770  -38.2130   24.0050 H   0  0  0  0  0  0  0  0  0  0  0  0
  -26.4670  -31.6080   25.0620 C   0  0  1  0  0  0  0  0  0  0  0  0
  -25.3970  -31.3330   26.1420 C   0  0  0  0  0  1  0  0  0  0  0  0
  -27.0670  -30.2480   24.6340 C   0  0  0  0  0  1  0  0  0  0  0  0
  -27.6170  -32.4040   25.7230 C   0  0  0  0  0  1  0  0  0  0  0  0
  -29.8120  -21.4630   24.3080 C   0  0  0  0  0  2  0  0  0  0  0  0
  -32.3900  -21.4330   24.5840 C   0  0  0  0  0  1  0  0  0  0  0  0
  -31.0790  -22.2110   24.7830 C   0  0  0  0  0  2  0  0  0  0  0  0
  1  2  2  0
  1  3  1  0
  2  5  1  0
  3  6  2  0
  4 92  1  0
  5  4  2  0
  6  4  1  0
  8  3  1  0
  8  7  1  0
  9  8  1  0
  9 18  1  0
 10 18  1  0
 11 16  1  0
 12 13  1  0
 12 11  1  0
 14 13  1  0
 14 23  1  0
 14 15  1  0
 16 10  1  0
 16 15  1  0
 17 10  2  0
 18 19  1  0
 20 21  2  0
 21 22  1  0
 21 40  1  0
 22 25  1  0
 23 20  1  0
 23 24  1  0
 24 22  2  0
 25 26  1  0
 26 27  2  0
 28 31  1  0
 28 27  1  0
 29 28  2  0
 30 29  1  0
 30 25  2  0
 31 32  1  0
 32 37  2  0
 32 33  1  0
 33 34  2  0
 34 35  1  0
 35 39  1  0
 36 35  2  0
 37 36  1  0
 38 37  1  0
 40 41  1  0
 41 44  1  0
 41 43  1  0
 42 40  2  0
 45 46  1  0
 45 20  1  0
 47 45  1  0
 48 49  1  0
 48  2  1  0
 50 51  1  0
 50 49  1  0
 51 53  1  0
 52 63  2  0
 53 58  1  0
 54 62  1  0
 54 64  1  0
 55 61  1  0
 55 57  1  0
 56 62  1  0
 57 56  1  0
 58 57  2  0
 59 60  1  0
 59 53  2  0
 60 55  2  0
 61 54  1  0
 62 52  1  0
 64 66  2  0
 65 64  1  0
 67 65  1  0
 68 77  2  0
 68 73  1  0
 69 65  1  0
 69 73  1  0
 70 69  1  0
 71 72  1  0
 71 70  1  0
 72 68  1  0
 73 74  2  0
 74 75  1  0
 76 75  2  0
 77 76  1  0
 78 52  1  0
 78 79  1  0
 78 88  1  0
 79 82  1  0
 80 84  1  0
 80 79  1  0
 81 80  2  0
 84 83  1  0
 86 84  1  0
 86 87  1  0
 86 85  1  0
 88 91  1  1
 88 89  1  0
 90 88  1  0
 92 94  1  0
 93 94  1  0
M  ISO  4  10 100  18 100  50 101  51 101
M  END
>  <TORSDO>  (41) 
F 23

>  <SCORE>  (41) 
-11.347

>  <name>  (41) 
42

>  <ligand_id>  (41) 
42

>  <original_smiles>  (41) 
[H]c1c(C([H])([H])C([H])([H])C([H])([H])Oc2c([H])c([H])c3c(c2[H])C([H])([H])N(C(=O)C([H])(N([H])C(=O)C([H])(N([H])C([H])([H])[H])C([H])([H])[H])C(C([H])([H])[H])(C([H])([H])[H])C([H])([H])[H])C([H])(C(=O)N([H])C2([H])c4c([H])c([H])c([H])c([H])c4C([H])([H])C([H])([H])C2([H])[H])C3([H])[H])nc(C([H])([H])C([H])([H])C([H])([H])[H])nc1C([H])(C([H])([H])[H])C([H])([H])N([H])C(=O)N1C([H])([H])C([H])([H])C([H])([H])C([H])(n2nc(-c3c([H])c([H])c(Oc4c([H])c([H])c(F)c([H])c4F)c([H])c3[H])c(C(=O)N([H])[H])c2N([H])[H])C1([H])[H]

>  <smiles>  (41) 
[H]c1c(C([H])([H])C([H])([H])C([H])([H])Oc2c([H])c([H])c3c(c2[H])C([H])([H])N(C(=O)C([H])(N([H])C(=O)C([H])(N([H])C([H])([H])[H])C([H])([H])[H])C(C([H])([H])[H])(C([H])([H])[H])C([H])([H])[H])C([H])(C(=O)N([H])C2([H])c4c([H])c([H])c([H])c([H])c4C([H])([H])C([H])([H])C2([H])[H])C3([H])[H])nc(C([H])([H])C([H])([H])C([H])([H])[H])nc1C([H])(C([H])([H])[H])C([H])([H])N([H])C(=O)N1C([H])([H])C([H])([H])C([H])([H])C([H])(n2nc(-c3c([H])c([H])c(Oc4c([H])c([H])c(F)c([H])c4F)c([H])c3[H])c(C(=O)N([H])[H])c2N([H])[H])C1([H])[H]

$$$$
43:0:0
     RDKit          3D

 91 99  0  0  1  0  0  0  0  0999 V2000
  -29.8570  -20.3850   21.3200 C   0  0  0  0  0  3  0  0  0  0  0  0
  -29.7600  -21.7990   21.4300 C   0  0  0  0  0  3  0  0  0  0  0  0
  -29.6820  -19.7370   20.0690 C   0  0  0  0  0  0  0  0  0  0  0  0
  -29.4980  -22.6110   20.3000 C   0  0  0  0  0  0  0  0  0  0  0  0
  -29.4460  -20.6280   18.9730 C   0  0  0  0  0  0  0  0  0  0  0  0
  -29.3820  -21.9940   19.0920 N   0  0  0  0  0  0  0  0  0  0  0  0
  -30.4750  -19.6500   16.7970 C   0  0  0  0  0  1  0  0  0  0  0  0
  -29.2110  -20.1220   17.5470 C   0  0  0  0  0  2  0  0  0  0  0  0
  -29.6340  -18.1610   19.9170 C   0  0  0  0  0  3  0  0  0  0  0  0
  -30.4060  -17.1950   20.9240 C   0  0  0  0  0  3  0  0  0  0  0  0
  -30.6830  -14.6420   20.4510 C   0  0  0  0  0  0  0  0  0  0  0  0
  -30.3810  -12.4260   19.3570 C   0  0  0  0  0  2  0  0  0  0  0  0
  -29.4270  -12.5700   18.1510 C   0  0  0  0  0  2  0  0  0  0  0  0
  -27.9600  -12.4050   18.5920 C   0  0  0  0  0  2  0  0  0  0  0  0
  -27.6160  -13.2730   19.8310 C   0  0  0  0  0  3  0  0  0  0  0  0
  -28.6920  -13.1380   20.9400 C   0  0  0  0  0  2  0  0  0  0  0  0
  -30.0010  -13.4520   20.3500 N   0  0  0  0  0  0  0  0  0  0  0  0
  -31.8250  -14.7670   20.0120 O   0  0  0  0  0  0  0  0  0  0  0  0
  -29.9960  -15.7390   20.8890 N   0  0  0  0  0  0  0  0  0  0  0  0
  -29.0980  -15.5250   21.2970 H   0  0  0  0  0  0  0  0  0  0  0  0
  -25.2120  -13.8730   20.5370 C   0  0  0  0  0  0  0  0  0  0  0  0
  -24.1410  -13.0990   20.9070 C   0  0  0  0  0  0  0  0  0  0  0  0
  -24.6050  -11.7480   20.8860 C   0  0  0  0  0  0  0  0  0  0  0  0
  -26.2620  -12.9940   20.3210 N   0  0  0  0  0  0  0  0  0  0  0  0
  -25.9000  -11.7100   20.5890 N   0  0  0  0  0  0  0  0  0  0  0  0
  -23.8730  -10.4870   21.0780 C   0  0  0  0  0  0  0  0  0  0  0  0
  -24.3130   -9.5080   21.9980 C   0  0  0  0  0  3  0  0  0  0  0  0
  -23.5790   -8.3160   22.1780 C   0  0  0  0  0  3  0  0  0  0  0  0
  -22.3940   -8.0910   21.4420 C   0  0  0  0  0  0  0  0  0  0  0  0
  -21.9720   -9.0590   20.5130 C   0  0  0  0  0  3  0  0  0  0  0  0
  -22.7050  -10.2440   20.3280 C   0  0  0  0  0  3  0  0  0  0  0  0
  -21.6310   -6.9520   21.5340 O   0  0  0  0  0  0  0  0  0  0  0  0
  -21.6140   -6.1860   22.6730 C   0  0  0  0  0  0  0  0  0  0  0  0
  -21.2420   -6.7220   23.9230 C   0  0  0  0  0  3  0  0  0  0  0  0
  -21.1680   -5.8860   25.0560 C   0  0  0  0  0  3  0  0  0  0  0  0
  -21.4580   -4.5140   24.9370 C   0  0  0  0  0  0  0  0  0  0  0  0
  -21.8240   -3.9760   23.6930 C   0  0  0  0  0  3  0  0  0  0  0  0
  -21.8970   -4.8080   22.5610 C   0  0  0  0  0  0  0  0  0  0  0  0
  -22.2290   -4.2780   21.3600 F   0  0  0  0  0  0  0  0  0  0  0  0
  -21.3830   -3.7100   26.0250 F   0  0  0  0  0  0  0  0  0  0  0  0
  -22.7430  -13.5790   21.1680 C   0  0  0  0  0  0  0  0  0  0  0  0
  -22.0100  -12.8940   22.0400 N   0  0  0  0  0  0  0  0  0  0  0  0
  -22.3060  -14.5970   20.6340 O   0  0  0  0  0  0  0  0  0  0  0  0
  -22.3720  -12.0690   22.4920 H   0  0  0  0  0  0  0  0  0  0  0  0
  -21.0720  -13.2020   22.2560 H   0  0  0  0  0  0  0  0  0  0  0  0
  -25.3680  -15.2410   20.3430 N   0  0  0  0  0  0  0  0  0  0  0  0
  -24.5930  -15.8880   20.4390 H   0  0  0  0  0  0  0  0  0  0  0  0
  -26.2010  -15.6830   19.9710 H   0  0  0  0  0  0  0  0  0  0  0  0
  -29.5320  -24.1920   20.3690 C   0  0  0  0  0  3  0  0  0  0  0  0
  -28.2100  -25.0720   20.2840 C   0  0  0  0  0  3  0  0  0  0  0  0
  -28.3670  -26.5460   20.2410 O   0  0  0  0  0  0  0  0  0  0  0  0
  -24.6010  -31.9150   23.2230 C   0  0  0  0  0  0  0  0  0  0  0  0
  -27.2190  -27.3560   20.2030 C   0  0  0  0  0  0  0  0  0  0  0  0
  -23.3890  -30.5130   21.5910 C   0  0  0  0  0  3  0  0  0  0  0  0
  -24.8410  -28.9440   20.1870 C   0  0  0  0  0  0  0  0  0  0  0  0
  -25.9240  -30.8400   21.3890 C   0  0  0  0  0  2  0  0  0  0  0  0
  -26.0100  -29.4520   20.7670 C   0  0  0  0  0  0  0  0  0  0  0  0
  -27.2020  -28.6720   20.7600 C   0  0  0  0  0  3  0  0  0  0  0  0
  -26.0220  -26.8930   19.6070 C   0  0  0  0  0  3  0  0  0  0  0  0
  -24.8460  -27.6690   19.6020 C   0  0  0  0  0  3  0  0  0  0  0  0
  -23.6030  -29.8170   20.2200 C   0  0  0  0  0  2  0  0  0  0  0  0
  -24.6590  -31.1040   22.1300 N   0  0  0  0  0  0  0  0  0  0  0  0
  -23.5200  -32.1940   23.7650 O   0  0  0  0  0  0  0  0  0  0  0  0
  -22.7220  -29.5080   22.5590 C   0  0  0  0  0  0  0  0  0  0  0  0
  -21.3950  -29.3400   22.4440 N   0  0  0  0  0  0  0  0  0  0  0  0
  -23.4010  -28.8760   23.3740 O   0  0  0  0  0  0  0  0  0  0  0  0
  -20.9030  -29.9040   21.7630 H   0  0  0  0  0  0  0  0  0  0  0  0
  -18.0140  -28.1700   22.9650 C   0  0  0  0  0  0  0  0  0  0  0  0
  -20.5750  -28.4130   23.2230 C   0  0  0  0  0  3  0  0  0  0  0  0
  -20.6660  -26.9760   22.6590 C   0  0  0  0  0  2  0  0  0  0  0  0
  -19.5600  -26.6540   21.6500 C   0  0  0  0  0  2  0  0  0  0  0  0
  -18.1800  -26.8150   22.2990 C   0  0  0  0  0  2  0  0  0  0  0  0
  -19.1400  -28.9270   23.3890 C   0  0  0  0  0  0  0  0  0  0  0  0
  -18.9340  -30.1920   23.9750 C   0  0  0  0  0  3  0  0  0  0  0  0
  -17.6350  -30.7070   24.1430 C   0  0  0  0  0  3  0  0  0  0  0  0
  -16.5230  -29.9500   23.7350 C   0  0  0  0  0  3  0  0  0  0  0  0
  -16.7110  -28.6840   23.1530 C   0  0  0  0  0  3  0  0  0  0  0  0
  -25.8860  -32.5490   23.8390 C   0  0  0  0  0  3  0  0  0  0  0  0
  -25.5780  -33.9440   24.1770 N   0  0  0  0  0  0  0  0  0  0  0  0
  -25.9130  -35.0010   23.4230 C   0  0  0  0  0  0  0  0  0  0  0  0
  -26.5800  -34.8990   22.3880 O   0  0  0  0  0  0  0  0  0  0  0  0
  -24.9660  -34.0940   24.9660 H   0  0  0  0  0  0  0  0  0  0  0  0
  -24.1800  -36.7930   23.0890 C   0  0  0  0  0  1  0  0  0  0  0  0
  -25.4300  -36.3880   23.8860 C   0  0  0  0  0  3  0  0  0  0  0  0
  -27.5770  -37.2640   24.6960 C   0  0  0  0  0  1  0  0  0  0  0  0
  -26.4640  -37.4420   23.7680 N   0  0  0  0  0  0  0  0  0  0  0  0
  -26.0610  -38.3600   23.9330 H   0  0  0  0  0  0  0  0  0  0  0  0
  -26.4090  -31.7740   25.1090 C   0  0  1  0  0  0  0  0  0  0  0  0
  -25.3180  -31.5410   26.1810 C   0  0  0  0  0  1  0  0  0  0  0  0
  -26.9810  -30.3970   24.7070 C   0  0  0  0  0  1  0  0  0  0  0  0
  -27.5700  -32.5580   25.7650 C   0  0  0  0  0  1  0  0  0  0  0  0
  1  2  1  0
  3  1  2  0
  4 49  1  0
  4  2  2  0
  5  6  2  0
  5  3  1  0
  6  4  1  0
  7  8  1  0
  8  5  1  0
  9  3  1  0
  9 10  2  0
 11 19  1  0
 12 17  1  0
 13 14  1  0
 13 12  1  0
 15 14  1  0
 15 24  1  0
 15 16  1  0
 17 11  1  0
 17 16  1  0
 18 11  2  0
 19 10  1  0
 19 20  1  0
 21 22  2  0
 22 41  1  0
 23 22  1  0
 23 26  1  0
 24 21  1  0
 24 25  1  0
 25 23  2  0
 26 27  1  0
 27 28  2  0
 29 32  1  0
 29 28  1  0
 30 29  2  0
 31 30  1  0
 31 26  2  0
 32 33  1  0
 33 34  1  0
 34 35  2  0
 36 35  1  0
 36 40  1  0
 37 36  2  0
 38 33  2  0
 38 37  1  0
 39 38  1  0
 41 42  1  0
 42 45  1  0
 42 44  1  0
 43 41  2  0
 46 47  1  0
 46 21  1  0
 48 46  1  0
 50 49  2  0
 51 50  1  0
 52 63  2  0
 53 51  1  0
 53 58  1  0
 54 62  1  0
 54 64  1  0
 55 61  1  0
 55 57  1  0
 56 62  1  0
 57 56  1  0
 58 57  2  0
 59 53  2  0
 60 59  1  0
 60 55  2  0
 61 54  1  0
 62 52  1  0
 64 66  2  0
 65 64  1  0
 67 65  1  0
 68 77  2  0
 68 73  1  0
 69 65  1  0
 69 73  1  0
 70 69  1  0
 71 72  1  0
 71 70  1  0
 72 68  1  0
 73 74  2  0
 74 75  1  0
 76 75  2  0
 77 76  1  0
 78 52  1  0
 78 79  1  0
 78 88  1  0
 79 82  1  0
 80 84  1  0
 80 79  1  0
 81 80  2  0
 84 83  1  0
 86 84  1  0
 86 87  1  0
 86 85  1  0
 88 91  1  1
 88 89  1  0
 90 88  1  0
M  ISO  4  11 100  19 100  50 101  51 101
M  END
>  <TORSDO>  (42) 
F 21

>  <SCORE>  (42) 
-13.478

>  <name>  (42) 
43

>  <ligand_id>  (42) 
43

>  <original_smiles>  (42) 
[H]c1c(C([H])([H])C([H])([H])Oc2c([H])c([H])c3c(c2[H])C([H])([H])N(C(=O)C([H])(N([H])C(=O)C([H])(N([H])C([H])([H])[H])C([H])([H])[H])C(C([H])([H])[H])(C([H])([H])[H])C([H])([H])[H])C([H])(C(=O)N([H])C2([H])c4c([H])c([H])c([H])c([H])c4C([H])([H])C([H])([H])C2([H])[H])C3([H])[H])nc(C([H])([H])C([H])([H])[H])c(C([H])([H])C([H])([H])N([H])C(=O)N2C([H])([H])C([H])([H])C([H])([H])C([H])(n3nc(-c4c([H])c([H])c(Oc5c([H])c([H])c(F)c([H])c5F)c([H])c4[H])c(C(=O)N([H])[H])c3N([H])[H])C2([H])[H])c1[H]

>  <smiles>  (42) 
[H]c1c(C([H])([H])C([H])([H])Oc2c([H])c([H])c3c(c2[H])C([H])([H])N(C(=O)C([H])(N([H])C(=O)C([H])(N([H])C([H])([H])[H])C([H])([H])[H])C(C([H])([H])[H])(C([H])([H])[H])C([H])([H])[H])C([H])(C(=O)N([H])C2([H])c4c([H])c([H])c([H])c([H])c4C([H])([H])C([H])([H])C2([H])[H])C3([H])[H])nc(C([H])([H])C([H])([H])[H])c(C([H])([H])C([H])([H])N([H])C(=O)N2C([H])([H])C([H])([H])C([H])([H])C([H])(n3nc(-c4c([H])c([H])c(Oc5c([H])c([H])c(F)c([H])c5F)c([H])c4[H])c(C(=O)N([H])[H])c3N([H])[H])C2([H])[H])c1[H]

$$$$
44:0:0
     RDKit          3D

 94102  0  0  1  0  0  0  0  0999 V2000
  -27.9930  -22.0200   20.0110 C   0  0  0  0  0  3  0  0  0  0  0  0
  -29.6960  -21.2930   21.5610 C   0  0  0  0  0  3  0  0  0  0  0  0
  -28.8590  -22.3190   21.0840 C   0  0  0  0  0  0  0  0  0  0  0  0
  -27.9940  -20.7150   19.4870 C   0  0  0  0  0  0  0  0  0  0  0  0
  -29.6290  -20.0040   20.9880 C   0  0  0  0  0  0  0  0  0  0  0  0
  -27.1080  -20.3330   18.3210 C   0  0  0  0  0  1  0  0  0  0  0  0
  -28.7760  -19.7330   19.9780 N   0  0  0  0  0  0  0  0  0  0  0  0
  -31.4740  -19.2240   22.5960 C   0  0  0  0  0  1  0  0  0  0  0  0
  -30.4380  -18.8110   21.5330 C   0  0  0  0  0  3  0  0  0  0  0  0
  -31.1260  -17.9890   20.4150 C   0  0  0  0  0  2  0  0  0  0  0  0
  -30.4960  -16.7250   18.2580 C   0  0  0  0  0  1  0  0  0  0  0  0
  -30.1930  -16.9430   19.7560 C   0  0  0  0  0  3  0  0  0  0  0  0
  -30.9430  -14.6370   20.4290 C   0  0  0  0  0  0  0  0  0  0  0  0
  -30.6940  -12.4370   19.4030 C   0  0  0  0  0  2  0  0  0  0  0  0
  -29.7980  -12.6400   18.1620 C   0  0  0  0  0  2  0  0  0  0  0  0
  -28.3080  -12.5170   18.5420 C   0  0  0  0  0  2  0  0  0  0  0  0
  -27.9300  -13.3760   19.7790 C   0  0  0  0  0  3  0  0  0  0  0  0
  -28.9500  -13.1860   20.9280 C   0  0  0  0  0  2  0  0  0  0  0  0
  -30.2990  -13.4440   20.3930 N   0  0  0  0  0  0  0  0  0  0  0  0
  -32.1210  -14.7890   20.1030 O   0  0  0  0  0  0  0  0  0  0  0  0
  -30.1010  -15.6790   20.5050 N   0  0  0  0  0  0  0  0  0  0  0  0
  -29.1750  -15.4390   20.8270 H   0  0  0  0  0  0  0  0  0  0  0  0
  -25.5120  -14.0050   20.4030 C   0  0  0  0  0  0  0  0  0  0  0  0
  -24.4330  -13.2420   20.7580 C   0  0  0  0  0  0  0  0  0  0  0  0
  -24.8910  -11.8890   20.7690 C   0  0  0  0  0  0  0  0  0  0  0  0
  -26.5610  -13.1170   20.2210 N   0  0  0  0  0  0  0  0  0  0  0  0
  -26.1900  -11.8410   20.4990 N   0  0  0  0  0  0  0  0  0  0  0  0
  -24.1590  -10.6330   20.9640 C   0  0  0  0  0  0  0  0  0  0  0  0
  -24.5650   -9.6830   21.9270 C   0  0  0  0  0  3  0  0  0  0  0  0
  -23.8350   -8.4880   22.1080 C   0  0  0  0  0  3  0  0  0  0  0  0
  -22.6840   -8.2370   21.3250 C   0  0  0  0  0  0  0  0  0  0  0  0
  -22.2970   -9.1740   20.3520 C   0  0  0  0  0  3  0  0  0  0  0  0
  -23.0280  -10.3590   20.1690 C   0  0  0  0  0  3  0  0  0  0  0  0
  -21.9250   -7.0940   21.4160 O   0  0  0  0  0  0  0  0  0  0  0  0
  -21.8380   -6.3790   22.5830 C   0  0  0  0  0  0  0  0  0  0  0  0
  -21.3750   -6.9630   23.7830 C   0  0  0  0  0  3  0  0  0  0  0  0
  -21.2360   -6.1730   24.9420 C   0  0  0  0  0  3  0  0  0  0  0  0
  -21.5480   -4.8020   24.9010 C   0  0  0  0  0  0  0  0  0  0  0  0
  -22.0020   -4.2180   23.7040 C   0  0  0  0  0  3  0  0  0  0  0  0
  -22.1440   -5.0040   22.5490 C   0  0  0  0  0  0  0  0  0  0  0  0
  -22.5640   -4.4330   21.3940 F   0  0  0  0  0  0  0  0  0  0  0  0
  -21.4090   -4.0400   26.0110 F   0  0  0  0  0  0  0  0  0  0  0  0
  -23.0280  -13.7270   20.9800 C   0  0  0  0  0  0  0  0  0  0  0  0
  -22.2780  -13.0550   21.8480 N   0  0  0  0  0  0  0  0  0  0  0  0
  -22.6020  -14.7360   20.4220 O   0  0  0  0  0  0  0  0  0  0  0  0
  -22.6330  -12.2390   22.3240 H   0  0  0  0  0  0  0  0  0  0  0  0
  -21.3350  -13.3630   22.0400 H   0  0  0  0  0  0  0  0  0  0  0  0
  -25.6840  -15.3720   20.2010 N   0  0  0  0  0  0  0  0  0  0  0  0
  -24.9130  -16.0250   20.2810 H   0  0  0  0  0  0  0  0  0  0  0  0
  -26.5350  -15.8090   19.8740 H   0  0  0  0  0  0  0  0  0  0  0  0
  -28.9150  -23.6760   21.7780 C   0  0  0  0  0  2  0  0  0  0  0  0
  -27.9770  -24.7820   21.2570 C   0  0  0  0  0  2  0  0  0  0  0  0
  -28.4290  -25.4310   19.9330 C   0  0  0  0  0  2  0  0  0  0  0  0
  -28.3900  -26.8540   20.0270 O   0  0  0  0  0  0  0  0  0  0  0  0
  -24.5670  -31.9040   23.2240 C   0  0  0  0  0  0  0  0  0  0  0  0
  -27.1780  -27.5060   20.0600 C   0  0  0  0  0  0  0  0  0  0  0  0
  -23.3420  -30.5160   21.5880 C   0  0  0  0  0  3  0  0  0  0  0  0
  -24.7730  -28.9910   20.1280 C   0  0  0  0  0  0  0  0  0  0  0  0
  -25.8630  -30.8780   21.3600 C   0  0  0  0  0  2  0  0  0  0  0  0
  -25.9360  -29.5160   20.7040 C   0  0  0  0  0  0  0  0  0  0  0  0
  -27.1380  -28.7810   20.6630 C   0  0  0  0  0  3  0  0  0  0  0  0
  -25.9920  -26.9780   19.4970 C   0  0  0  0  0  3  0  0  0  0  0  0
  -24.7950  -27.7220   19.5230 C   0  0  0  0  0  3  0  0  0  0  0  0
  -23.5290  -29.8470   20.1980 C   0  0  0  0  0  2  0  0  0  0  0  0
  -24.6100  -31.1120   22.1160 N   0  0  0  0  0  0  0  0  0  0  0  0
  -23.4920  -32.1720   23.7770 O   0  0  0  0  0  0  0  0  0  0  0  0
  -22.7050  -29.4840   22.5440 C   0  0  0  0  0  0  0  0  0  0  0  0
  -21.3800  -29.2990   22.4260 N   0  0  0  0  0  0  0  0  0  0  0  0
  -23.3980  -28.8490   23.3430 O   0  0  0  0  0  0  0  0  0  0  0  0
  -20.8860  -29.8560   21.7440 H   0  0  0  0  0  0  0  0  0  0  0  0
  -18.0140  -28.0990   22.9410 C   0  0  0  0  0  0  0  0  0  0  0  0
  -20.5730  -28.3550   23.1960 C   0  0  0  0  0  3  0  0  0  0  0  0
  -20.6740  -26.9300   22.6060 C   0  0  0  0  0  2  0  0  0  0  0  0
  -19.5640  -26.6140   21.5990 C   0  0  0  0  0  2  0  0  0  0  0  0
  -18.1870  -26.7550   22.2540 C   0  0  0  0  0  2  0  0  0  0  0  0
  -19.1350  -28.8580   23.3690 C   0  0  0  0  0  0  0  0  0  0  0  0
  -18.9200  -30.1180   23.9680 C   0  0  0  0  0  3  0  0  0  0  0  0
  -17.6170  -30.6170   24.1480 C   0  0  0  0  0  3  0  0  0  0  0  0
  -16.5090  -29.8540   23.7380 C   0  0  0  0  0  3  0  0  0  0  0  0
  -16.7090  -28.5970   23.1420 C   0  0  0  0  0  3  0  0  0  0  0  0
  -25.8620  -32.5280   23.8330 C   0  0  0  0  0  3  0  0  0  0  0  0
  -25.5620  -33.9270   24.1670 N   0  0  0  0  0  0  0  0  0  0  0  0
  -25.8990  -34.9780   23.4070 C   0  0  0  0  0  0  0  0  0  0  0  0
  -26.5660  -34.8710   22.3750 O   0  0  0  0  0  0  0  0  0  0  0  0
  -24.9740  -34.0850   24.9720 H   0  0  0  0  0  0  0  0  0  0  0  0
  -24.1820  -36.7780   23.0470 C   0  0  0  0  0  1  0  0  0  0  0  0
  -25.4170  -36.3670   23.8650 C   0  0  0  0  0  3  0  0  0  0  0  0
  -27.5530  -37.2310   24.7110 C   0  0  0  0  0  1  0  0  0  0  0  0
  -26.4570  -37.4150   23.7630 N   0  0  0  0  0  0  0  0  0  0  0  0
  -26.0580  -38.3380   23.9140 H   0  0  0  0  0  0  0  0  0  0  0  0
  -26.3910  -31.7520   25.1010 C   0  0  1  0  0  0  0  0  0  0  0  0
  -25.3080  -31.5080   26.1780 C   0  0  0  0  0  1  0  0  0  0  0  0
  -26.9700  -30.3770   24.6950 C   0  0  0  0  0  1  0  0  0  0  0  0
  -27.5550  -32.5410   25.7480 C   0  0  0  0  0  1  0  0  0  0  0  0
  1  3  1  0
  3  2  2  0
  3 51  1  0
  4  7  1  0
  4  1  2  0
  5  9  1  0
  5  2  1  0
  6  4  1  0
  7  5  2  0
  9  8  1  0
 10  9  1  0
 12 11  1  0
 12 10  1  0
 12 21  1  0
 13 21  1  0
 14 19  1  0
 15 16  1  0
 15 14  1  0
 17 16  1  0
 17 26  1  0
 17 18  1  0
 19 13  1  0
 19 18  1  0
 20 13  2  0
 21 22  1  0
 23 24  2  0
 24 25  1  0
 24 43  1  0
 25 28  1  0
 26 23  1  0
 26 27  1  0
 27 25  2  0
 28 29  1  0
 29 30  2  0
 31 34  1  0
 31 30  1  0
 32 31  2  0
 33 32  1  0
 33 28  2  0
 34 35  1  0
 35 36  1  0
 36 37  2  0
 38 37  1  0
 38 42  1  0
 39 38  2  0
 40 35  2  0
 40 39  1  0
 41 40  1  0
 43 44  1  0
 44 47  1  0
 44 46  1  0
 45 43  2  0
 48 49  1  0
 48 23  1  0
 50 48  1  0
 52 51  1  0
 53 54  1  0
 53 52  1  0
 54 56  1  0
 55 66  2  0
 56 61  1  0
 57 65  1  0
 57 67  1  0
 58 64  1  0
 58 60  1  0
 59 65  1  0
 60 59  1  0
 61 60  2  0
 62 63  1  0
 62 56  2  0
 63 58  2  0
 64 57  1  0
 65 55  1  0
 67 69  2  0
 68 67  1  0
 70 68  1  0
 71 80  2  0
 71 76  1  0
 72 68  1  0
 72 76  1  0
 73 72  1  0
 74 75  1  0
 74 73  1  0
 75 71  1  0
 76 77  2  0
 77 78  1  0
 79 78  2  0
 80 79  1  0
 81 55  1  0
 81 82  1  0
 81 91  1  0
 82 85  1  0
 83 87  1  0
 83 82  1  0
 84 83  2  0
 87 86  1  0
 89 87  1  0
 89 90  1  0
 89 88  1  0
 91 94  1  1
 91 92  1  0
 93 91  1  0
M  ISO  4  13 100  21 100  53 101  54 101
M  END
>  <TORSDO>  (43) 
F 22

>  <SCORE>  (43) 
-13.129

>  <name>  (43) 
44

>  <ligand_id>  (43) 
44

>  <original_smiles>  (43) 
[H]c1c([H])c([H])c2c(c1[H])C([H])([H])C([H])([H])C([H])([H])C2([H])N([H])C(=O)C1([H])N(C(=O)C([H])(N([H])C(=O)C([H])(N([H])C([H])([H])[H])C([H])([H])[H])C(C([H])([H])[H])(C([H])([H])[H])C([H])([H])[H])C([H])([H])c2c([H])c(OC([H])([H])C([H])([H])C([H])([H])c3c([H])c(C([H])([H])[H])nc(C([H])(C([H])([H])[H])C([H])([H])C([H])(N([H])C(=O)N4C([H])([H])C([H])([H])C([H])([H])C([H])(n5nc(-c6c([H])c([H])c(Oc7c([H])c([H])c(F)c([H])c7F)c([H])c6[H])c(C(=O)N([H])[H])c5N([H])[H])C4([H])[H])C([H])([H])[H])c3[H])c([H])c([H])c2C1([H])[H]

>  <smiles>  (43) 
[H]c1c([H])c([H])c2c(c1[H])C([H])([H])C([H])([H])C([H])([H])C2([H])N([H])C(=O)C1([H])N(C(=O)C([H])(N([H])C(=O)C([H])(N([H])C([H])([H])[H])C([H])([H])[H])C(C([H])([H])[H])(C([H])([H])[H])C([H])([H])[H])C([H])([H])c2c([H])c(OC([H])([H])C([H])([H])C([H])([H])c3c([H])c(C([H])([H])[H])nc(C([H])(C([H])([H])[H])C([H])([H])C([H])(N([H])C(=O)N4C([H])([H])C([H])([H])C([H])([H])C([H])(n5nc(-c6c([H])c([H])c(Oc7c([H])c([H])c(F)c([H])c7F)c([H])c6[H])c(C(=O)N([H])[H])c5N([H])[H])C4([H])[H])C([H])([H])[H])c3[H])c([H])c([H])c2C1([H])[H]

$$$$
45:0:0
     RDKit          3D

 95103  0  0  1  0  0  0  0  0999 V2000
  -29.9290  -21.4830   19.4700 C   0  0  0  0  0  3  0  0  0  0  0  0
  -30.4840  -22.4260   18.5810 C   0  0  0  0  0  0  0  0  0  0  0  0
  -31.7870  -22.1610   18.0730 C   0  0  0  0  0  0  0  0  0  0  0  0
  -30.6660  -20.3420   19.8680 C   0  0  0  0  0  0  0  0  0  0  0  0
  -32.4620  -21.0070   18.5450 C   0  0  0  0  0  0  0  0  0  0  0  0
  -32.4820  -23.0530   17.0400 C   0  0  0  0  0  1  0  0  0  0  0  0
  -33.8560  -20.6310   18.0710 C   0  0  0  0  0  1  0  0  0  0  0  0
  -31.9220  -20.1430   19.4260 N   0  0  0  0  0  0  0  0  0  0  0  0
  -30.9100  -19.3040   22.1710 C   0  0  0  0  0  1  0  0  0  0  0  0
  -28.6420  -19.5840   21.2100 C   0  0  0  0  0  1  0  0  0  0  0  0
  -30.1160  -19.2750   20.8460 C   0  0  1  0  0  0  0  0  0  0  0  0
  -30.1050  -17.8340   20.2290 C   0  0  0  0  0  2  0  0  0  0  0  0
  -31.3350  -16.9090   20.4520 C   0  0  0  0  0  2  0  0  0  0  0  0
  -31.5640  -14.4560   19.9220 C   0  0  0  0  0  0  0  0  0  0  0  0
  -31.1570  -12.2220   18.9650 C   0  0  0  0  0  2  0  0  0  0  0  0
  -30.1880  -12.3660   17.7750 C   0  0  0  0  0  2  0  0  0  0  0  0
  -28.7200  -12.3390   18.2470 C   0  0  0  0  0  2  0  0  0  0  0  0
  -28.4570  -13.2960   19.4440 C   0  0  0  0  0  3  0  0  0  0  0  0
  -29.5290  -13.1000   20.5380 C   0  0  0  0  0  2  0  0  0  0  0  0
  -30.8520  -13.2990   19.9180 N   0  0  0  0  0  0  0  0  0  0  0  0
  -32.6530  -14.5840   19.3560 O   0  0  0  0  0  0  0  0  0  0  0  0
  -30.9300  -15.4970   20.4840 N   0  0  0  0  0  0  0  0  0  0  0  0
  -30.0540  -15.2770   20.9350 H   0  0  0  0  0  0  0  0  0  0  0  0
  -26.1610  -14.0920   20.2990 C   0  0  0  0  0  0  0  0  0  0  0  0
  -25.0480  -13.4070   20.7080 C   0  0  0  0  0  0  0  0  0  0  0  0
  -25.3840  -12.0210   20.6150 C   0  0  0  0  0  0  0  0  0  0  0  0
  -27.1080  -13.1290   19.9840 N   0  0  0  0  0  0  0  0  0  0  0  0
  -26.6460  -11.8760   20.2320 N   0  0  0  0  0  0  0  0  0  0  0  0
  -24.5600  -10.8210   20.8090 C   0  0  0  0  0  0  0  0  0  0  0  0
  -24.8930   -9.8490   21.7760 C   0  0  0  0  0  3  0  0  0  0  0  0
  -24.0770   -8.7110   21.9580 C   0  0  0  0  0  3  0  0  0  0  0  0
  -22.9140   -8.5360   21.1700 C   0  0  0  0  0  0  0  0  0  0  0  0
  -22.6010   -9.4970   20.1930 C   0  0  0  0  0  3  0  0  0  0  0  0
  -23.4170  -10.6270   20.0090 C   0  0  0  0  0  3  0  0  0  0  0  0
  -22.0740   -7.4520   21.2590 O   0  0  0  0  0  0  0  0  0  0  0  0
  -21.8490   -6.8130   22.4520 C   0  0  0  0  0  0  0  0  0  0  0  0
  -21.2850   -7.4780   23.5620 C   0  0  0  0  0  3  0  0  0  0  0  0
  -21.0080   -6.7640   24.7450 C   0  0  0  0  0  3  0  0  0  0  0  0
  -21.2810   -5.3840   24.8170 C   0  0  0  0  0  0  0  0  0  0  0  0
  -21.8420   -4.7200   23.7110 C   0  0  0  0  0  3  0  0  0  0  0  0
  -22.1220   -5.4320   22.5320 C   0  0  0  0  0  0  0  0  0  0  0  0
  -22.6380   -4.7810   21.4620 F   0  0  0  0  0  0  0  0  0  0  0  0
  -21.0110   -4.6960   25.9510 F   0  0  0  0  0  0  0  0  0  0  0  0
  -23.7160  -13.9940   21.0710 C   0  0  0  0  0  0  0  0  0  0  0  0
  -22.9800  -13.3460   21.9680 N   0  0  0  0  0  0  0  0  0  0  0  0
  -23.3370  -15.0580   20.5860 O   0  0  0  0  0  0  0  0  0  0  0  0
  -23.2960  -12.4810   22.3820 H   0  0  0  0  0  0  0  0  0  0  0  0
  -22.0830  -13.7210   22.2420 H   0  0  0  0  0  0  0  0  0  0  0  0
  -26.4410  -15.4470   20.1550 N   0  0  0  0  0  0  0  0  0  0  0  0
  -25.7490  -16.1680   20.3250 H   0  0  0  0  0  0  0  0  0  0  0  0
  -27.3100  -15.8170   19.7920 H   0  0  0  0  0  0  0  0  0  0  0  0
  -29.6340  -23.6470   18.1930 C   0  0  0  0  0  2  0  0  0  0  0  0
  -29.2560  -24.5670   19.3760 C   0  0  0  0  0  2  0  0  0  0  0  0
  -28.7620  -25.9580   18.9260 C   0  0  0  0  0  2  0  0  0  0  0  0
  -28.4020  -26.7630   20.0540 O   0  0  0  0  0  0  0  0  0  0  0  0
  -24.6840  -31.8030   23.3950 C   0  0  0  0  0  0  0  0  0  0  0  0
  -27.2090  -27.4620   20.0750 C   0  0  0  0  0  0  0  0  0  0  0  0
  -23.4260  -30.5040   21.7040 C   0  0  0  0  0  3  0  0  0  0  0  0
  -24.8310  -28.9960   20.1980 C   0  0  0  0  0  0  0  0  0  0  0  0
  -25.9530  -30.8150   21.4960 C   0  0  0  0  0  2  0  0  0  0  0  0
  -26.0030  -29.4730   20.7970 C   0  0  0  0  0  0  0  0  0  0  0  0
  -27.1860  -28.7060   20.7470 C   0  0  0  0  0  3  0  0  0  0  0  0
  -26.0120  -26.9840   19.4940 C   0  0  0  0  0  3  0  0  0  0  0  0
  -24.8280  -27.7470   19.5520 C   0  0  0  0  0  3  0  0  0  0  0  0
  -23.6050  -29.8770   20.2940 C   0  0  0  0  0  2  0  0  0  0  0  0
  -24.7050  -31.0520   22.2590 N   0  0  0  0  0  0  0  0  0  0  0  0
  -23.6170  -32.0770   23.9620 O   0  0  0  0  0  0  0  0  0  0  0  0
  -22.7610  -29.4590   22.6280 C   0  0  0  0  0  0  0  0  0  0  0  0
  -21.4410  -29.2680   22.4630 N   0  0  0  0  0  0  0  0  0  0  0  0
  -23.4300  -28.8220   23.4470 O   0  0  0  0  0  0  0  0  0  0  0  0
  -20.9610  -29.8340   21.7790 H   0  0  0  0  0  0  0  0  0  0  0  0
  -18.0780  -28.0010   22.8140 C   0  0  0  0  0  0  0  0  0  0  0  0
  -20.6160  -28.3060   23.1930 C   0  0  0  0  0  3  0  0  0  0  0  0
  -20.7720  -26.8840   22.6080 C   0  0  0  0  0  2  0  0  0  0  0  0
  -19.7190  -26.5490   21.5460 C   0  0  0  0  0  2  0  0  0  0  0  0
  -18.3100  -26.6600   22.1360 C   0  0  0  0  0  2  0  0  0  0  0  0
  -19.1620  -28.7800   23.2970 C   0  0  0  0  0  0  0  0  0  0  0  0
  -18.8950  -30.0340   23.8870 C   0  0  0  0  0  3  0  0  0  0  0  0
  -17.5760  -30.5100   24.0010 C   0  0  0  0  0  3  0  0  0  0  0  0
  -16.5050  -29.7270   23.5360 C   0  0  0  0  0  3  0  0  0  0  0  0
  -16.7560  -28.4740   22.9480 C   0  0  0  0  0  3  0  0  0  0  0  0
  -25.9940  -32.3740   24.0240 C   0  0  0  0  0  3  0  0  0  0  0  0
  -25.7360  -33.7740   24.3830 N   0  0  0  0  0  0  0  0  0  0  0  0
  -26.0810  -34.8280   23.6310 C   0  0  0  0  0  0  0  0  0  0  0  0
  -26.7230  -34.7250   22.5840 O   0  0  0  0  0  0  0  0  0  0  0  0
  -25.1650  -33.9330   25.2000 H   0  0  0  0  0  0  0  0  0  0  0  0
  -24.3860  -36.6670   23.3620 C   0  0  0  0  0  1  0  0  0  0  0  0
  -25.6450  -36.2220   24.1230 C   0  0  0  0  0  3  0  0  0  0  0  0
  -27.8240  -37.0520   24.8950 C   0  0  0  0  0  1  0  0  0  0  0  0
  -26.6980  -37.2530   23.9870 N   0  0  0  0  0  0  0  0  0  0  0  0
  -26.3160  -38.1790   24.1610 H   0  0  0  0  0  0  0  0  0  0  0  0
  -26.4920  -31.5560   25.2800 C   0  0  1  0  0  0  0  0  0  0  0  0
  -25.3930  -31.3310   26.3420 C   0  0  0  0  0  1  0  0  0  0  0  0
  -27.0310  -30.1690   24.8570 C   0  0  0  0  0  1  0  0  0  0  0  0
  -27.6650  -32.3010   25.9610 C   0  0  0  0  0  1  0  0  0  0  0  0
  1  4  1  0
  2  1  2  0
  3  5  2  0
  3  2  1  0
  4 11  1  0
  5  8  1  0
  6  3  1  0
  7  5  1  0
  8  4  2  0
 11 10  1  1
 11  9  1  0
 12 13  1  0
 12 11  1  0
 13 22  1  0
 14 22  1  0
 15 20  1  0
 16 17  1  0
 16 15  1  0
 18 17  1  0
 18 27  1  0
 18 19  1  0
 20 14  1  0
 20 19  1  0
 21 14  2  0
 22 23  1  0
 24 25  2  0
 25 44  1  0
 26 25  1  0
 26 29  1  0
 27 28  1  0
 27 24  1  0
 28 26  2  0
 29 30  1  0
 30 31  2  0
 32 35  1  0
 32 31  1  0
 33 32  2  0
 34 33  1  0
 34 29  2  0
 35 36  1  0
 36 41  2  0
 36 37  1  0
 37 38  2  0
 38 39  1  0
 39 43  1  0
 40 39  2  0
 41 40  1  0
 42 41  1  0
 44 45  1  0
 45 48  1  0
 45 47  1  0
 46 44  2  0
 49 24  1  0
 49 50  1  0
 51 49  1  0
 52  2  1  0
 52 53  1  0
 54 53  1  0
 54 55  1  0
 55 57  1  0
 56 67  2  0
 57 62  1  0
 58 66  1  0
 58 68  1  0
 59 65  1  0
 59 61  1  0
 60 66  1  0
 61 60  1  0
 62 61  2  0
 63 64  1  0
 63 57  2  0
 64 59  2  0
 65 58  1  0
 66 56  1  0
 68 70  2  0
 69 68  1  0
 71 69  1  0
 72 81  2  0
 72 77  1  0
 73 69  1  0
 73 77  1  0
 74 73  1  0
 75 76  1  0
 75 74  1  0
 76 72  1  0
 77 78  2  0
 78 79  1  0
 80 79  2  0
 81 80  1  0
 82 56  1  0
 82 83  1  0
 82 92  1  0
 83 86  1  0
 84 88  1  0
 84 83  1  0
 85 84  2  0
 88 87  1  0
 90 88  1  0
 90 91  1  0
 90 89  1  0
 92 95  1  1
 92 93  1  0
 94 92  1  0
M  ISO  4  14 100  22 100  54 101  55 101
M  END
>  <TORSDO>  (44) 
F 22

>  <SCORE>  (44) 
-11.662

>  <name>  (44) 
45

>  <ligand_id>  (44) 
45

>  <original_smiles>  (44) 
[H]c1c([H])c([H])c2c(c1[H])C([H])([H])C([H])([H])C([H])([H])C2([H])N([H])C(=O)C1([H])N(C(=O)C([H])(N([H])C(=O)C([H])(N([H])C([H])([H])[H])C([H])([H])[H])C(C([H])([H])[H])(C([H])([H])[H])C([H])([H])[H])C([H])([H])c2c([H])c(OC([H])([H])C([H])([H])C([H])([H])c3c([H])c(C(C([H])([H])[H])(C([H])([H])[H])C([H])([H])C([H])([H])N([H])C(=O)N4C([H])([H])C([H])([H])C([H])([H])C([H])(n5nc(-c6c([H])c([H])c(Oc7c([H])c([H])c(F)c([H])c7F)c([H])c6[H])c(C(=O)N([H])[H])c5N([H])[H])C4([H])[H])nc(C([H])([H])[H])c3C([H])([H])[H])c([H])c([H])c2C1([H])[H]

>  <smiles>  (44) 
[H]c1c([H])c([H])c2c(c1[H])C([H])([H])C([H])([H])C([H])([H])C2([H])N([H])C(=O)C1([H])N(C(=O)C([H])(N([H])C(=O)C([H])(N([H])C([H])([H])[H])C([H])([H])[H])C(C([H])([H])[H])(C([H])([H])[H])C([H])([H])[H])C([H])([H])c2c([H])c(OC([H])([H])C([H])([H])C([H])([H])c3c([H])c(C(C([H])([H])[H])(C([H])([H])[H])C([H])([H])C([H])([H])N([H])C(=O)N4C([H])([H])C([H])([H])C([H])([H])C([H])(n5nc(-c6c([H])c([H])c(Oc7c([H])c([H])c(F)c([H])c7F)c([H])c6[H])c(C(=O)N([H])[H])c5N([H])[H])C4([H])[H])nc(C([H])([H])[H])c3C([H])([H])[H])c([H])c([H])c2C1([H])[H]

$$$$
46:0:0
     RDKit          3D

 92100  0  0  1  0  0  0  0  0999 V2000
  -29.2370  -22.2490   21.5810 C   0  0  0  0  0  3  0  0  0  0  0  0
  -29.7660  -21.3400   22.4740 C   0  0  0  0  0  0  0  0  0  0  0  0
  -29.5470  -20.2770   20.5310 C   0  0  0  0  0  3  0  0  0  0  0  0
  -30.2240  -21.3220   23.8760 C   0  0  0  0  0  1  0  0  0  0  0  0
  -29.1010  -21.5990   20.3510 N   0  0  0  0  0  0  0  0  0  0  0  0
  -29.8630  -20.1710   21.8150 N   0  0  0  0  0  0  0  0  0  0  0  0
  -30.1410  -19.3130   22.2730 H   0  0  0  0  0  0  0  0  0  0  0  0
  -29.6140  -18.9280   19.7340 C   0  0  0  0  0  2  0  0  0  0  0  0
  -30.6180  -17.6890   20.1840 C   0  0  0  0  0  2  0  0  0  0  0  0
  -31.0800  -15.0690   19.9500 C   0  0  0  0  0  0  0  0  0  0  0  0
  -30.9440  -12.6750   19.1840 C   0  0  0  0  0  2  0  0  0  0  0  0
  -30.0110  -12.6270   17.9520 C   0  0  0  0  0  2  0  0  0  0  0  0
  -28.5430  -12.4880   18.3950 C   0  0  0  0  0  2  0  0  0  0  0  0
  -28.1740  -13.4890   19.5220 C   0  0  0  0  0  3  0  0  0  0  0  0
  -29.2230  -13.4820   20.6510 C   0  0  0  0  0  2  0  0  0  0  0  0
  -30.5100  -13.8170   20.0260 N   0  0  0  0  0  0  0  0  0  0  0  0
  -32.2640  -15.1760   19.6040 O   0  0  0  0  0  0  0  0  0  0  0  0
  -30.2570  -16.1880   20.0920 N   0  0  0  0  0  0  0  0  0  0  0  0
  -29.2960  -15.9640   20.3280 H   0  0  0  0  0  0  0  0  0  0  0  0
  -25.8300  -14.1790   20.2680 C   0  0  0  0  0  0  0  0  0  0  0  0
  -24.7380  -13.4360   20.6570 C   0  0  0  0  0  0  0  0  0  0  0  0
  -25.1540  -12.0760   20.6260 C   0  0  0  0  0  0  0  0  0  0  0  0
  -26.8330  -13.2540   20.0340 N   0  0  0  0  0  0  0  0  0  0  0  0
  -26.4370  -11.9870   20.3080 N   0  0  0  0  0  0  0  0  0  0  0  0
  -24.3880  -10.8360   20.8230 C   0  0  0  0  0  0  0  0  0  0  0  0
  -24.7340   -9.9120   21.8310 C   0  0  0  0  0  3  0  0  0  0  0  0
  -23.9740   -8.7370   22.0120 C   0  0  0  0  0  3  0  0  0  0  0  0
  -22.8550   -8.4830   21.1850 C   0  0  0  0  0  0  0  0  0  0  0  0
  -22.5290   -9.3940   20.1680 C   0  0  0  0  0  3  0  0  0  0  0  0
  -23.2890  -10.5610   19.9840 C   0  0  0  0  0  3  0  0  0  0  0  0
  -22.0730   -7.3580   21.2720 O   0  0  0  0  0  0  0  0  0  0  0  0
  -21.8320   -6.7440   22.4740 C   0  0  0  0  0  0  0  0  0  0  0  0
  -21.2150   -7.4230   23.5460 C   0  0  0  0  0  3  0  0  0  0  0  0
  -20.9280   -6.7370   24.7430 C   0  0  0  0  0  3  0  0  0  0  0  0
  -21.2410   -5.3710   24.8610 C   0  0  0  0  0  0  0  0  0  0  0  0
  -21.8460   -4.6890   23.7920 C   0  0  0  0  0  3  0  0  0  0  0  0
  -22.1380   -5.3740   22.6000 C   0  0  0  0  0  0  0  0  0  0  0  0
  -22.7070   -4.7130   21.5660 F   0  0  0  0  0  0  0  0  0  0  0  0
  -20.9560   -4.7080   26.0060 F   0  0  0  0  0  0  0  0  0  0  0  0
  -23.3690  -13.9690   20.9440 C   0  0  0  0  0  0  0  0  0  0  0  0
  -22.6400  -13.2950   21.8370 N   0  0  0  0  0  0  0  0  0  0  0  0
  -22.9520  -14.9970   20.4240 O   0  0  0  0  0  0  0  0  0  0  0  0
  -22.9980  -12.4540   22.2630 H   0  0  0  0  0  0  0  0  0  0  0  0
  -21.7210  -13.6240   22.0990 H   0  0  0  0  0  0  0  0  0  0  0  0
  -26.0450  -15.5340   20.0730 N   0  0  0  0  0  0  0  0  0  0  0  0
  -25.2860  -16.2100   20.0940 H   0  0  0  0  0  0  0  0  0  0  0  0
  -26.8720  -15.8840   19.6040 H   0  0  0  0  0  0  0  0  0  0  0  0
  -28.5830  -22.2710   19.0580 C   0  0  0  0  0  2  0  0  0  0  0  0
  -28.6730  -23.9370   18.8460 C   0  0  0  0  0  2  0  0  0  0  0  0
  -26.4580  -24.9360   17.8110 C   0  0  0  0  0  1  0  0  0  0  0  0
  -27.4020  -24.9340   19.0570 C   0  0  0  0  0  3  0  0  0  0  0  0
  -27.6900  -26.3820   19.4940 O   0  0  0  0  0  0  0  0  0  0  0  0
  -24.5410  -31.8930   23.2930 C   0  0  0  0  0  0  0  0  0  0  0  0
  -26.6440  -27.3270   19.7460 C   0  0  0  0  0  0  0  0  0  0  0  0
  -23.1620  -30.6630   21.6750 C   0  0  0  0  0  3  0  0  0  0  0  0
  -24.4170  -29.1340   20.0550 C   0  0  0  0  0  0  0  0  0  0  0  0
  -25.7140  -30.8280   21.3330 C   0  0  0  0  0  2  0  0  0  0  0  0
  -25.6620  -29.4900   20.5840 C   0  0  0  0  0  0  0  0  0  0  0  0
  -26.7870  -28.6010   20.4120 C   0  0  0  0  0  3  0  0  0  0  0  0
  -25.3340  -27.0200   19.3300 C   0  0  0  0  0  3  0  0  0  0  0  0
  -24.2610  -27.9090   19.4050 C   0  0  0  0  0  3  0  0  0  0  0  0
  -23.2300  -30.0500   20.2550 C   0  0  0  0  0  2  0  0  0  0  0  0
  -24.4990  -31.1490   22.1490 N   0  0  0  0  0  0  0  0  0  0  0  0
  -23.5140  -32.1800   23.9210 O   0  0  0  0  0  0  0  0  0  0  0  0
  -22.5210  -29.6160   22.6210 C   0  0  0  0  0  0  0  0  0  0  0  0
  -21.2010  -29.3940   22.4880 N   0  0  0  0  0  0  0  0  0  0  0  0
  -23.2140  -29.0010   23.4350 O   0  0  0  0  0  0  0  0  0  0  0  0
  -20.6890  -29.9600   21.8260 H   0  0  0  0  0  0  0  0  0  0  0  0
  -17.9000  -27.9550   22.9020 C   0  0  0  0  0  0  0  0  0  0  0  0
  -20.4210  -28.4140   23.2500 C   0  0  0  0  0  3  0  0  0  0  0  0
  -20.6420  -26.9700   22.7380 C   0  0  0  0  0  2  0  0  0  0  0  0
  -19.6180  -26.5350   21.6880 C   0  0  0  0  0  2  0  0  0  0  0  0
  -18.2040  -26.5970   22.2790 C   0  0  0  0  0  2  0  0  0  0  0  0
  -18.9440  -28.8100   23.3450 C   0  0  0  0  0  0  0  0  0  0  0  0
  -18.6230  -30.0710   23.8900 C   0  0  0  0  0  3  0  0  0  0  0  0
  -17.2840  -30.4800   24.0150 C   0  0  0  0  0  3  0  0  0  0  0  0
  -16.2510  -29.6270   23.5900 C   0  0  0  0  0  3  0  0  0  0  0  0
  -16.5560  -28.3700   23.0330 C   0  0  0  0  0  3  0  0  0  0  0  0
  -25.8830  -32.4460   23.8620 C   0  0  0  0  0  3  0  0  0  0  0  0
  -25.6720  -33.8600   24.2270 N   0  0  0  0  0  0  0  0  0  0  0  0
  -26.0510  -34.9110   23.4830 C   0  0  0  0  0  0  0  0  0  0  0  0
  -26.6830  -34.7850   22.4310 O   0  0  0  0  0  0  0  0  0  0  0  0
  -25.1110  -34.0340   25.0500 H   0  0  0  0  0  0  0  0  0  0  0  0
  -24.4470  -36.8360   23.2270 C   0  0  0  0  0  1  0  0  0  0  0  0
  -25.6810  -36.3260   23.9830 C   0  0  0  0  0  3  0  0  0  0  0  0
  -27.8960  -37.0490   24.7360 C   0  0  0  0  0  1  0  0  0  0  0  0
  -26.7770  -37.3080   23.8360 N   0  0  0  0  0  0  0  0  0  0  0  0
  -26.4450  -38.2550   24.0060 H   0  0  0  0  0  0  0  0  0  0  0  0
  -26.4220  -31.6360   25.1070 C   0  0  1  0  0  0  0  0  0  0  0  0
  -25.3610  -31.3950   26.2140 C   0  0  0  0  0  1  0  0  0  0  0  0
  -26.9420  -30.2470   24.6860 C   0  0  0  0  0  1  0  0  0  0  0  0
  -27.6530  -32.3640   25.6890 C   0  0  0  0  0  1  0  0  0  0  0  0
  1  2  2  0
  2  4  1  0
  3  8  1  0
  3  6  1  0
  5  3  1  0
  5  1  1  0
  6  7  1  0
  6  2  1  0
  8  9  1  0
 10 16  1  0
 10 18  1  0
 11 16  1  0
 12 13  1  0
 12 11  1  0
 14 13  1  0
 14 23  1  0
 14 15  1  0
 16 15  1  0
 17 10  2  0
 18  9  1  0
 18 19  1  0
 20 21  2  0
 21 40  1  0
 22 21  1  0
 22 25  1  0
 23 20  1  0
 23 24  1  0
 24 22  2  0
 25 26  1  0
 26 27  2  0
 28 31  1  0
 28 27  1  0
 29 28  2  0
 30 29  1  0
 30 25  2  0
 31 32  1  0
 32 37  2  0
 32 33  1  0
 33 34  2  0
 34 35  1  0
 35 39  1  0
 36 35  2  0
 37 36  1  0
 38 37  1  0
 40 41  1  0
 41 44  1  0
 41 43  1  0
 42 40  2  0
 45 46  1  0
 45 20  1  0
 47 45  1  0
 48  5  1  0
 49 51  1  0
 49 48  1  0
 51 50  1  0
 51 52  1  0
 52 54  1  0
 53 64  2  0
 54 59  1  0
 55 63  1  0
 55 65  1  0
 56 62  1  0
 56 58  1  0
 57 63  1  0
 58 57  1  0
 59 58  2  0
 60 61  1  0
 60 54  2  0
 61 56  2  0
 62 55  1  0
 63 53  1  0
 65 67  2  0
 66 65  1  0
 68 66  1  0
 69 78  2  0
 69 74  1  0
 70 66  1  0
 70 74  1  0
 71 70  1  0
 72 73  1  0
 72 71  1  0
 73 69  1  0
 74 75  2  0
 75 76  1  0
 77 76  2  0
 78 77  1  0
 79 53  1  0
 79 80  1  0
 79 89  1  0
 80 83  1  0
 81 85  1  0
 81 80  1  0
 82 81  2  0
 85 84  1  0
 87 85  1  0
 87 88  1  0
 87 86  1  0
 89 92  1  1
 89 90  1  0
 91 89  1  0
M  ISO  4  10 100  18 100  51 101  52 101
M  END
>  <TORSDO>  (45) 
F 21

>  <SCORE>  (45) 
-12.858

>  <name>  (45) 
46

>  <ligand_id>  (45) 
46

>  <original_smiles>  (45) 
[H]c1c([H])c([H])c2c(c1[H])C([H])([H])C([H])([H])C([H])([H])C2([H])N([H])C(=O)C1([H])N(C(=O)C([H])(N([H])C(=O)C([H])(N([H])C([H])([H])[H])C([H])([H])[H])C(C([H])([H])[H])(C([H])([H])[H])C([H])([H])[H])C([H])([H])c2c([H])c(OC([H])(C([H])([H])[H])C([H])([H])C([H])([H])n3c([H])c(C([H])([H])[H])[n+]([H])c3C([H])([H])C([H])([H])N([H])C(=O)N3C([H])([H])C([H])([H])C([H])([H])C([H])(n4nc(-c5c([H])c([H])c(Oc6c([H])c([H])c(F)c([H])c6F)c([H])c5[H])c(C(=O)N([H])[H])c4N([H])[H])C3([H])[H])c([H])c([H])c2C1([H])[H]

>  <smiles>  (45) 
[H]c1c([H])c([H])c2c(c1[H])C([H])([H])C([H])([H])C([H])([H])C2([H])N([H])C(=O)C1([H])N(C(=O)C([H])(N([H])C(=O)C([H])(N([H])C([H])([H])[H])C([H])([H])[H])C(C([H])([H])[H])(C([H])([H])[H])C([H])([H])[H])C([H])([H])c2c([H])c(OC([H])(C([H])([H])[H])C([H])([H])C([H])([H])n3c([H])c(C([H])([H])[H])[n+]([H])c3C([H])([H])C([H])([H])N([H])C(=O)N3C([H])([H])C([H])([H])C([H])([H])C([H])(n4nc(-c5c([H])c([H])c(Oc6c([H])c([H])c(F)c([H])c6F)c([H])c5[H])c(C(=O)N([H])[H])c4N([H])[H])C3([H])[H])c([H])c([H])c2C1([H])[H]

$$$$
47:0:0
     RDKit          3D

 92100  0  0  1  0  0  0  0  0999 V2000
  -30.0120  -19.5200   20.7340 C   0  0  0  0  0  0  0  0  0  0  0  0
  -30.1390  -20.6560   21.5230 C   0  0  0  0  0  0  0  0  0  0  0  0
  -30.9580  -20.9260   22.7520 C   0  0  0  0  0  1  0  0  0  0  0  0
  -29.1360  -19.8680   19.6970 N   0  0  0  0  0  0  0  0  0  0  0  0
  -28.7120  -21.0910   19.8380 N   0  0  0  0  0  0  0  0  0  0  0  0
  -29.3080  -21.6200   20.9320 N   0  0  0  0  0  0  0  0  0  0  0  0
  -31.4700  -17.8590   22.0580 C   0  0  0  0  0  1  0  0  0  0  0  0
  -31.6790  -18.0760   19.5760 C   0  0  0  0  0  1  0  0  0  0  0  0
  -30.6830  -18.1120   20.7560 C   0  0  2  0  0  0  0  0  0  0  0  0
  -29.6090  -16.9650   20.6060 C   0  0  0  0  0  2  0  0  0  0  0  0
  -30.6260  -14.5850   20.4100 C   0  0  0  0  0  0  0  0  0  0  0  0
  -30.3710  -12.4150   19.2530 C   0  0  0  0  0  2  0  0  0  0  0  0
  -29.4150  -12.6400   18.0590 C   0  0  0  0  0  2  0  0  0  0  0  0
  -27.9470  -12.4790   18.4990 C   0  0  0  0  0  2  0  0  0  0  0  0
  -27.6170  -13.2900   19.7810 C   0  0  0  0  0  3  0  0  0  0  0  0
  -28.6820  -13.0380   20.8760 C   0  0  0  0  0  2  0  0  0  0  0  0
  -30.0030  -13.3730   20.3130 N   0  0  0  0  0  0  0  0  0  0  0  0
  -31.7120  -14.8090   19.8760 O   0  0  0  0  0  0  0  0  0  0  0  0
  -29.8870  -15.5520   21.0000 N   0  0  0  0  0  0  0  0  0  0  0  0
  -29.1320  -15.1570   21.5410 H   0  0  0  0  0  0  0  0  0  0  0  0
  -25.2150  -13.8910   20.4830 C   0  0  0  0  0  0  0  0  0  0  0  0
  -24.1490  -13.1150   20.8560 C   0  0  0  0  0  0  0  0  0  0  0  0
  -24.6140  -11.7650   20.8230 C   0  0  0  0  0  0  0  0  0  0  0  0
  -26.2630  -13.0130   20.2550 N   0  0  0  0  0  0  0  0  0  0  0  0
  -25.9050  -11.7290   20.5140 N   0  0  0  0  0  0  0  0  0  0  0  0
  -23.8930  -10.5000   21.0150 C   0  0  0  0  0  0  0  0  0  0  0  0
  -24.3210   -9.5440   21.9610 C   0  0  0  0  0  3  0  0  0  0  0  0
  -23.6000   -8.3460   22.1450 C   0  0  0  0  0  3  0  0  0  0  0  0
  -22.4370   -8.0930   21.3780 C   0  0  0  0  0  0  0  0  0  0  0  0
  -22.0260   -9.0400   20.4230 C   0  0  0  0  0  3  0  0  0  0  0  0
  -22.7470  -10.2300   20.2390 C   0  0  0  0  0  3  0  0  0  0  0  0
  -21.6910   -6.9410   21.4650 O   0  0  0  0  0  0  0  0  0  0  0  0
  -21.6230   -6.2120   22.6240 C   0  0  0  0  0  0  0  0  0  0  0  0
  -21.1460   -6.7720   23.8280 C   0  0  0  0  0  3  0  0  0  0  0  0
  -21.0230   -5.9680   24.9790 C   0  0  0  0  0  3  0  0  0  0  0  0
  -21.3730   -4.6060   24.9280 C   0  0  0  0  0  0  0  0  0  0  0  0
  -21.8440   -4.0450   23.7280 C   0  0  0  0  0  3  0  0  0  0  0  0
  -21.9650   -4.8450   22.5780 C   0  0  0  0  0  0  0  0  0  0  0  0
  -22.3980   -4.2940   21.4190 F   0  0  0  0  0  0  0  0  0  0  0  0
  -21.2500   -3.8330   26.0310 F   0  0  0  0  0  0  0  0  0  0  0  0
  -22.7510  -13.5880   21.1350 C   0  0  0  0  0  0  0  0  0  0  0  0
  -22.0280  -12.8800   21.9950 N   0  0  0  0  0  0  0  0  0  0  0  0
  -22.3100  -14.6210   20.6310 O   0  0  0  0  0  0  0  0  0  0  0  0
  -22.4010  -12.0440   22.4200 H   0  0  0  0  0  0  0  0  0  0  0  0
  -21.0920  -13.1760   22.2290 H   0  0  0  0  0  0  0  0  0  0  0  0
  -25.3760  -15.2620   20.3060 N   0  0  0  0  0  0  0  0  0  0  0  0
  -24.6170  -15.9220   20.4320 H   0  0  0  0  0  0  0  0  0  0  0  0
  -26.2340  -15.6970   19.9880 H   0  0  0  0  0  0  0  0  0  0  0  0
  -28.8990  -22.9700   21.4100 C   0  0  0  0  0  2  0  0  0  0  0  0
  -28.8410  -24.1520   20.3820 C   0  0  0  0  0  2  0  0  0  0  0  0
  -28.2620  -25.4690   21.0090 C   0  0  0  0  0  2  0  0  0  0  0  0
  -28.3750  -26.6710   20.2050 O   0  0  0  0  0  0  0  0  0  0  0  0
  -24.5750  -31.9210   23.2330 C   0  0  0  0  0  0  0  0  0  0  0  0
  -27.2360  -27.4550   20.1810 C   0  0  0  0  0  0  0  0  0  0  0  0
  -23.3790  -30.5040   21.5960 C   0  0  0  0  0  3  0  0  0  0  0  0
  -24.8450  -28.9730   20.1710 C   0  0  0  0  0  0  0  0  0  0  0  0
  -25.9060  -30.8710   21.4000 C   0  0  0  0  0  2  0  0  0  0  0  0
  -26.0010  -29.4980   20.7630 C   0  0  0  0  0  0  0  0  0  0  0  0
  -27.2040  -28.7470   20.7610 C   0  0  0  0  0  3  0  0  0  0  0  0
  -26.0690  -26.9540   19.5690 C   0  0  0  0  0  3  0  0  0  0  0  0
  -24.8770  -27.7040   19.5660 C   0  0  0  0  0  3  0  0  0  0  0  0
  -23.5940  -29.8240   20.2180 C   0  0  0  0  0  2  0  0  0  0  0  0
  -24.6390  -31.1150   22.1340 N   0  0  0  0  0  0  0  0  0  0  0  0
  -23.4940  -32.1890   23.7730 O   0  0  0  0  0  0  0  0  0  0  0  0
  -22.7340  -29.4830   22.5610 C   0  0  0  0  0  0  0  0  0  0  0  0
  -21.4100  -29.2920   22.4370 N   0  0  0  0  0  0  0  0  0  0  0  0
  -23.4230  -28.8630   23.3760 O   0  0  0  0  0  0  0  0  0  0  0  0
  -20.9150  -29.8460   21.7540 H   0  0  0  0  0  0  0  0  0  0  0  0
  -18.0390  -28.0970   22.9580 C   0  0  0  0  0  0  0  0  0  0  0  0
  -20.6000  -28.3500   23.2110 C   0  0  0  0  0  3  0  0  0  0  0  0
  -20.6950  -26.9210   22.6270 C   0  0  0  0  0  2  0  0  0  0  0  0
  -19.5850  -26.6040   21.6190 C   0  0  0  0  0  2  0  0  0  0  0  0
  -18.2090  -26.7500   22.2760 C   0  0  0  0  0  2  0  0  0  0  0  0
  -19.1620  -28.8560   23.3820 C   0  0  0  0  0  0  0  0  0  0  0  0
  -18.9500  -30.1180   23.9770 C   0  0  0  0  0  3  0  0  0  0  0  0
  -17.6470  -30.6210   24.1530 C   0  0  0  0  0  3  0  0  0  0  0  0
  -16.5380  -29.8570   23.7480 C   0  0  0  0  0  3  0  0  0  0  0  0
  -16.7350  -28.5960   23.1560 C   0  0  0  0  0  3  0  0  0  0  0  0
  -25.8570  -32.5640   23.8490 C   0  0  0  0  0  3  0  0  0  0  0  0
  -25.5420  -33.9630   24.1680 N   0  0  0  0  0  0  0  0  0  0  0  0
  -25.8850  -35.0120   23.4080 C   0  0  0  0  0  0  0  0  0  0  0  0
  -26.5700  -34.9020   22.3870 O   0  0  0  0  0  0  0  0  0  0  0  0
  -24.9310  -34.1210   24.9560 H   0  0  0  0  0  0  0  0  0  0  0  0
  -24.1760  -36.8150   22.9970 C   0  0  0  0  0  1  0  0  0  0  0  0
  -25.3880  -36.4020   23.8480 C   0  0  0  0  0  3  0  0  0  0  0  0
  -27.4980  -37.2810   24.7490 C   0  0  0  0  0  1  0  0  0  0  0  0
  -26.4280  -37.4520   23.7700 N   0  0  0  0  0  0  0  0  0  0  0  0
  -26.0200  -38.3730   23.9020 H   0  0  0  0  0  0  0  0  0  0  0  0
  -26.3810  -31.8050   25.1310 C   0  0  1  0  0  0  0  0  0  0  0  0
  -25.2910  -31.5620   26.2020 C   0  0  0  0  0  1  0  0  0  0  0  0
  -26.9770  -30.4290   24.7490 C   0  0  0  0  0  1  0  0  0  0  0  0
  -27.5260  -32.6120   25.7880 C   0  0  0  0  0  1  0  0  0  0  0  0
  1  9  1  0
  1  2  2  0
  2  3  1  0
  4  5  2  0
  4  1  1  0
  5  6  1  0
  6 49  1  0
  6  2  1  0
  9  8  1  6
  9  7  1  0
 10  9  1  0
 10 19  1  0
 11 19  1  0
 12 17  1  0
 13 14  1  0
 13 12  1  0
 15 14  1  0
 15 24  1  0
 15 16  1  0
 17 11  1  0
 17 16  1  0
 18 11  2  0
 19 20  1  0
 21 22  2  0
 22 41  1  0
 23 22  1  0
 23 26  1  0
 24 21  1  0
 24 25  1  0
 25 23  2  0
 26 27  1  0
 27 28  2  0
 29 32  1  0
 29 28  1  0
 30 29  2  0
 31 30  1  0
 31 26  2  0
 32 33  1  0
 33 34  1  0
 34 35  2  0
 36 35  1  0
 36 40  1  0
 37 36  2  0
 38 33  2  0
 38 37  1  0
 39 38  1  0
 41 42  1  0
 42 45  1  0
 42 44  1  0
 43 41  2  0
 46 47  1  0
 46 21  1  0
 48 46  1  0
 50 51  1  0
 50 49  1  0
 52 51  1  0
 53 64  2  0
 54 52  1  0
 54 59  1  0
 55 63  1  0
 55 65  1  0
 56 62  1  0
 56 58  1  0
 57 63  1  0
 58 57  1  0
 59 58  2  0
 60 54  2  0
 61 60  1  0
 61 56  2  0
 62 55  1  0
 63 53  1  0
 65 67  2  0
 66 65  1  0
 68 66  1  0
 69 78  2  0
 69 74  1  0
 70 66  1  0
 70 74  1  0
 71 70  1  0
 72 73  1  0
 72 71  1  0
 73 69  1  0
 74 75  2  0
 75 76  1  0
 77 76  2  0
 78 77  1  0
 79 53  1  0
 79 80  1  0
 79 89  1  0
 80 83  1  0
 81 85  1  0
 81 80  1  0
 82 81  2  0
 85 84  1  0
 87 85  1  0
 87 88  1  0
 87 86  1  0
 89 92  1  1
 89 90  1  0
 91 89  1  0
M  ISO  4  11 100  19 100  51 101  52 101
M  END
>  <TORSDO>  (46) 
F 21

>  <SCORE>  (46) 
-13.673

>  <name>  (46) 
47

>  <ligand_id>  (46) 
47

>  <original_smiles>  (46) 
[H]c1c([H])c([H])c2c(c1[H])C([H])([H])C([H])([H])C([H])([H])C2([H])N([H])C(=O)C1([H])N(C(=O)C([H])(N([H])C(=O)C([H])(N([H])C([H])([H])[H])C([H])([H])[H])C(C([H])([H])[H])(C([H])([H])[H])C([H])([H])[H])C([H])([H])c2c([H])c(OC([H])([H])C([H])([H])C([H])([H])n3nnc(C(C([H])([H])[H])(C([H])([H])[H])C([H])([H])N([H])C(=O)N4C([H])([H])C([H])([H])C([H])([H])C([H])(n5nc(-c6c([H])c([H])c(Oc7c([H])c([H])c(F)c([H])c7F)c([H])c6[H])c(C(=O)N([H])[H])c5N([H])[H])C4([H])[H])c3C([H])([H])[H])c([H])c([H])c2C1([H])[H]

>  <smiles>  (46) 
[H]c1c([H])c([H])c2c(c1[H])C([H])([H])C([H])([H])C([H])([H])C2([H])N([H])C(=O)C1([H])N(C(=O)C([H])(N([H])C(=O)C([H])(N([H])C([H])([H])[H])C([H])([H])[H])C(C([H])([H])[H])(C([H])([H])[H])C([H])([H])[H])C([H])([H])c2c([H])c(OC([H])([H])C([H])([H])C([H])([H])n3nnc(C(C([H])([H])[H])(C([H])([H])[H])C([H])([H])N([H])C(=O)N4C([H])([H])C([H])([H])C([H])([H])C([H])(n5nc(-c6c([H])c([H])c(Oc7c([H])c([H])c(F)c([H])c7F)c([H])c6[H])c(C(=O)N([H])[H])c5N([H])[H])C4([H])[H])c3C([H])([H])[H])c([H])c([H])c2C1([H])[H]

$$$$
48:0:0
     RDKit          3D

 94102  0  0  1  0  0  0  0  0999 V2000
  -28.4780  -21.4590   20.8100 C   0  0  0  0  0  3  0  0  0  0  0  0
  -28.7010  -22.7700   20.3010 C   0  0  0  0  0  0  0  0  0  0  0  0
  -29.4180  -20.4400   20.4830 C   0  0  0  0  0  0  0  0  0  0  0  0
  -30.6410  -21.9990   19.3350 C   0  0  0  0  0  0  0  0  0  0  0  0
  -31.9540  -22.3110   18.6520 C   0  0  0  0  0  1  0  0  0  0  0  0
  -29.8160  -23.0120   19.5830 N   0  0  0  0  0  0  0  0  0  0  0  0
  -30.4540  -20.7370   19.6820 N   0  0  0  0  0  0  0  0  0  0  0  0
  -28.2610  -18.2450   19.8870 C   0  0  0  0  0  1  0  0  0  0  0  0
  -29.2500  -18.9350   20.8430 C   0  0  0  0  0  3  0  0  0  0  0  0
  -31.7860  -18.9320   21.4500 C   0  0  0  0  0  1  0  0  0  0  0  0
  -30.3110  -17.2510   22.4600 C   0  0  0  0  0  1  0  0  0  0  0  0
  -30.5500  -18.0400   21.1440 C   0  0  1  0  0  0  0  0  0  0  0  0
  -30.9380  -17.0300   19.9760 C   0  0  0  0  0  2  0  0  0  0  0  0
  -31.2260  -14.4980   19.7720 C   0  0  0  0  0  0  0  0  0  0  0  0
  -30.9100  -12.1660   18.9850 C   0  0  0  0  0  2  0  0  0  0  0  0
  -29.9470  -12.1670   17.7790 C   0  0  0  0  0  2  0  0  0  0  0  0
  -28.4820  -12.1010   18.2560 C   0  0  0  0  0  2  0  0  0  0  0  0
  -28.1710  -13.1440   19.3640 C   0  0  0  0  0  3  0  0  0  0  0  0
  -29.2440  -13.1040   20.4750 C   0  0  0  0  0  2  0  0  0  0  0  0
  -30.5550  -13.3120   19.8420 N   0  0  0  0  0  0  0  0  0  0  0  0
  -32.3500  -14.5830   19.2640 O   0  0  0  0  0  0  0  0  0  0  0  0
  -30.5290  -15.6040   20.1440 N   0  0  0  0  0  0  0  0  0  0  0  0
  -29.5970  -15.4480   20.4950 H   0  0  0  0  0  0  0  0  0  0  0  0
  -25.8740  -13.9330   20.2100 C   0  0  0  0  0  0  0  0  0  0  0  0
  -24.7710  -13.2460   20.6390 C   0  0  0  0  0  0  0  0  0  0  0  0
  -25.1170  -11.8620   20.5740 C   0  0  0  0  0  0  0  0  0  0  0  0
  -26.8280  -12.9720   19.9130 N   0  0  0  0  0  0  0  0  0  0  0  0
  -26.3810  -11.7200   20.1910 N   0  0  0  0  0  0  0  0  0  0  0  0
  -24.3020  -10.6610   20.7970 C   0  0  0  0  0  0  0  0  0  0  0  0
  -24.6570   -9.6950   21.7640 C   0  0  0  0  0  3  0  0  0  0  0  0
  -23.8460   -8.5580   21.9710 C   0  0  0  0  0  3  0  0  0  0  0  0
  -22.6650   -8.3810   21.2120 C   0  0  0  0  0  0  0  0  0  0  0  0
  -22.3300   -9.3330   20.2340 C   0  0  0  0  0  3  0  0  0  0  0  0
  -23.1400  -10.4610   20.0250 C   0  0  0  0  0  3  0  0  0  0  0  0
  -21.8280   -7.2970   21.3310 O   0  0  0  0  0  0  0  0  0  0  0  0
  -21.6590   -6.6450   22.5240 C   0  0  0  0  0  0  0  0  0  0  0  0
  -21.2030   -7.3130   23.6830 C   0  0  0  0  0  3  0  0  0  0  0  0
  -20.9780   -6.5890   24.8710 C   0  0  0  0  0  3  0  0  0  0  0  0
  -21.1960   -5.1980   24.9000 C   0  0  0  0  0  0  0  0  0  0  0  0
  -21.6440   -4.5310   23.7470 C   0  0  0  0  0  3  0  0  0  0  0  0
  -21.8720   -5.2520   22.5630 C   0  0  0  0  0  0  0  0  0  0  0  0
  -22.2830   -4.6000   21.4480 F   0  0  0  0  0  0  0  0  0  0  0  0
  -20.9720   -4.5010   26.0380 F   0  0  0  0  0  0  0  0  0  0  0  0
  -23.4350  -13.8330   20.9910 C   0  0  0  0  0  0  0  0  0  0  0  0
  -22.7140  -13.2120   21.9200 N   0  0  0  0  0  0  0  0  0  0  0  0
  -23.0400  -14.8760   20.4740 O   0  0  0  0  0  0  0  0  0  0  0  0
  -23.0450  -12.3680   22.3670 H   0  0  0  0  0  0  0  0  0  0  0  0
  -21.8160  -13.5890   22.1930 H   0  0  0  0  0  0  0  0  0  0  0  0
  -26.1370  -15.2850   20.0280 N   0  0  0  0  0  0  0  0  0  0  0  0
  -25.4220  -15.9920   20.1590 H   0  0  0  0  0  0  0  0  0  0  0  0
  -26.9760  -15.6470   19.5970 H   0  0  0  0  0  0  0  0  0  0  0  0
  -27.6720  -23.9380   20.3440 C   0  0  0  0  0  2  0  0  0  0  0  0
  -28.1070  -25.2750   21.0440 C   0  0  0  0  0  2  0  0  0  0  0  0
  -28.1530  -26.4980   20.2400 O   0  0  0  0  0  0  0  0  0  0  0  0
  -24.5470  -31.8930   23.2250 C   0  0  0  0  0  0  0  0  0  0  0  0
  -27.0300  -27.3020   20.2260 C   0  0  0  0  0  0  0  0  0  0  0  0
  -23.2890  -30.4950   21.6180 C   0  0  0  0  0  3  0  0  0  0  0  0
  -24.6890  -28.9030   20.1930 C   0  0  0  0  0  0  0  0  0  0  0  0
  -25.8190  -30.7940   21.3750 C   0  0  0  0  0  2  0  0  0  0  0  0
  -25.8680  -29.4040   20.7620 C   0  0  0  0  0  0  0  0  0  0  0  0
  -27.0430  -28.6140   20.7680 C   0  0  0  0  0  3  0  0  0  0  0  0
  -25.8420  -26.8300   19.6320 C   0  0  0  0  0  3  0  0  0  0  0  0
  -24.6780  -27.6230   19.6130 C   0  0  0  0  0  3  0  0  0  0  0  0
  -23.4640  -29.7910   20.2440 C   0  0  0  0  0  2  0  0  0  0  0  0
  -24.5720  -31.0780   22.1310 N   0  0  0  0  0  0  0  0  0  0  0  0
  -23.4780  -32.1920   23.7770 O   0  0  0  0  0  0  0  0  0  0  0  0
  -22.6320  -29.5010   22.6060 C   0  0  0  0  0  0  0  0  0  0  0  0
  -21.3130  -29.2910   22.4580 N   0  0  0  0  0  0  0  0  0  0  0  0
  -23.3070  -28.9200   23.4590 O   0  0  0  0  0  0  0  0  0  0  0  0
  -20.8270  -29.8180   21.7450 H   0  0  0  0  0  0  0  0  0  0  0  0
  -17.9670  -27.9850   22.8660 C   0  0  0  0  0  0  0  0  0  0  0  0
  -20.4950  -28.3670   23.2450 C   0  0  0  0  0  3  0  0  0  0  0  0
  -20.6810  -26.9080   22.7640 C   0  0  0  0  0  2  0  0  0  0  0  0
  -19.6450  -26.4800   21.7190 C   0  0  0  0  0  2  0  0  0  0  0  0
  -18.2290  -26.6060   22.2850 C   0  0  0  0  0  2  0  0  0  0  0  0
  -19.0320  -28.8180   23.3020 C   0  0  0  0  0  0  0  0  0  0  0  0
  -18.7350  -30.1050   23.8010 C   0  0  0  0  0  3  0  0  0  0  0  0
  -17.4040  -30.5600   23.8730 C   0  0  0  0  0  3  0  0  0  0  0  0
  -16.3540  -29.7270   23.4550 C   0  0  0  0  0  3  0  0  0  0  0  0
  -16.6350  -28.4420   22.9570 C   0  0  0  0  0  3  0  0  0  0  0  0
  -25.8540  -32.5080   23.8170 C   0  0  0  0  0  3  0  0  0  0  0  0
  -25.5710  -33.9100   24.1600 N   0  0  0  0  0  0  0  0  0  0  0  0
  -25.9070  -34.9620   23.4020 C   0  0  0  0  0  0  0  0  0  0  0  0
  -26.5620  -34.8550   22.3630 O   0  0  0  0  0  0  0  0  0  0  0  0
  -25.0000  -34.0670   24.9780 H   0  0  0  0  0  0  0  0  0  0  0  0
  -24.2050  -36.7820   23.0660 C   0  0  0  0  0  1  0  0  0  0  0  0
  -25.4410  -36.3550   23.8710 C   0  0  0  0  0  3  0  0  0  0  0  0
  -27.5930  -37.1990   24.7000 C   0  0  0  0  0  1  0  0  0  0  0  0
  -26.4880  -37.3930   23.7630 N   0  0  0  0  0  0  0  0  0  0  0  0
  -26.0980  -38.3180   23.9180 H   0  0  0  0  0  0  0  0  0  0  0  0
  -26.3930  -31.7270   25.0760 C   0  0  1  0  0  0  0  0  0  0  0  0
  -25.3260  -31.4880   26.1690 C   0  0  0  0  0  1  0  0  0  0  0  0
  -26.9590  -30.3500   24.6580 C   0  0  0  0  0  1  0  0  0  0  0  0
  -27.5610  -32.5110   25.7200 C   0  0  0  0  0  1  0  0  0  0  0  0
  2 52  1  0
  2  1  2  0
  3  1  1  0
  3  9  1  0
  4  6  2  0
  4  7  1  0
  5  4  1  0
  6  2  1  0
  7  3  2  0
  9  8  1  0
  9 12  1  0
 12 10  1  1
 12 11  1  0
 13 22  1  0
 13 12  1  0
 14 20  1  0
 14 22  1  0
 15 20  1  0
 16 17  1  0
 16 15  1  0
 18 17  1  0
 18 27  1  0
 18 19  1  0
 20 19  1  0
 21 14  2  0
 22 23  1  0
 24 25  2  0
 25 44  1  0
 26 25  1  0
 26 29  1  0
 27 28  1  0
 27 24  1  0
 28 26  2  0
 29 30  1  0
 30 31  2  0
 32 35  1  0
 32 31  1  0
 33 32  2  0
 34 33  1  0
 34 29  2  0
 35 36  1  0
 36 41  2  0
 36 37  1  0
 37 38  2  0
 38 39  1  0
 39 43  1  0
 40 39  2  0
 41 40  1  0
 42 41  1  0
 44 45  1  0
 45 48  1  0
 45 47  1  0
 46 44  2  0
 49 50  1  0
 49 24  1  0
 51 49  1  0
 52 53  1  0
 54 53  1  0
 55 66  2  0
 56 54  1  0
 56 61  1  0
 57 65  1  0
 57 67  1  0
 58 64  1  0
 58 60  1  0
 59 65  1  0
 60 61  2  0
 60 59  1  0
 62 56  2  0
 63 62  1  0
 63 58  2  0
 64 57  1  0
 65 55  1  0
 67 69  2  0
 68 67  1  0
 70 68  1  0
 71 80  2  0
 71 76  1  0
 72 68  1  0
 72 76  1  0
 73 72  1  0
 74 75  1  0
 74 73  1  0
 75 71  1  0
 76 77  2  0
 77 78  1  0
 79 78  2  0
 80 79  1  0
 81 55  1  0
 81 82  1  0
 81 91  1  0
 82 85  1  0
 83 87  1  0
 83 82  1  0
 84 83  2  0
 87 86  1  0
 89 87  1  0
 89 90  1  0
 89 88  1  0
 91 94  1  1
 91 92  1  0
 93 91  1  0
M  ISO  4  14 100  22 100  53 101  54 101
M  END
>  <TORSDO>  (47) 
F 21

>  <SCORE>  (47) 
-13.126

>  <name>  (47) 
48

>  <ligand_id>  (47) 
48

>  <original_smiles>  (47) 
[H]c1c(C([H])([H])C([H])([H])Oc2c([H])c([H])c3c(c2[H])C([H])([H])N(C(=O)C([H])(N([H])C(=O)C([H])(N([H])C([H])([H])[H])C([H])([H])[H])C(C([H])([H])[H])(C([H])([H])[H])C([H])([H])[H])C([H])(C(=O)N([H])C2([H])c4c([H])c([H])c([H])c([H])c4C([H])([H])C([H])([H])C2([H])[H])C3([H])[H])nc(C([H])([H])[H])nc1C([H])(C([H])([H])[H])C(C([H])([H])[H])(C([H])([H])[H])C([H])([H])N([H])C(=O)N1C([H])([H])C([H])([H])C([H])([H])C([H])(n2nc(-c3c([H])c([H])c(Oc4c([H])c([H])c(F)c([H])c4F)c([H])c3[H])c(C(=O)N([H])[H])c2N([H])[H])C1([H])[H]

>  <smiles>  (47) 
[H]c1c(C([H])([H])C([H])([H])Oc2c([H])c([H])c3c(c2[H])C([H])([H])N(C(=O)C([H])(N([H])C(=O)C([H])(N([H])C([H])([H])[H])C([H])([H])[H])C(C([H])([H])[H])(C([H])([H])[H])C([H])([H])[H])C([H])(C(=O)N([H])C2([H])c4c([H])c([H])c([H])c([H])c4C([H])([H])C([H])([H])C2([H])[H])C3([H])[H])nc(C([H])([H])[H])nc1C([H])(C([H])([H])[H])C(C([H])([H])[H])(C([H])([H])[H])C([H])([H])N([H])C(=O)N1C([H])([H])C([H])([H])C([H])([H])C([H])(n2nc(-c3c([H])c([H])c(Oc4c([H])c([H])c(F)c([H])c4F)c([H])c3[H])c(C(=O)N([H])[H])c2N([H])[H])C1([H])[H]

$$$$
49:0:0
     RDKit          3D

 91 99  0  0  1  0  0  0  0  0999 V2000
  -30.7610  -20.8180   19.2070 C   0  0  0  0  0  3  0  0  0  0  0  0
  -29.7040  -21.5870   19.7530 C   0  0  0  0  0  0  0  0  0  0  0  0
  -28.8950  -20.8040   20.6330 C   0  0  0  0  0  0  0  0  0  0  0  0
  -30.2180  -18.8840   20.3670 C   0  0  0  0  0  0  0  0  0  0  0  0
  -31.0040  -19.5150   19.4990 N   0  0  0  0  0  0  0  0  0  0  0  0
  -29.1700  -19.4920   20.9330 N   0  0  0  0  0  0  0  0  0  0  0  0
  -29.6120  -23.0550   19.2910 C   0  0  0  0  0  3  0  0  0  0  0  0
  -28.9430  -24.2060   19.6470 C   0  0  0  0  0  3  0  0  0  0  0  0
  -29.0370  -25.5420   18.8080 C   0  0  0  0  0  2  0  0  0  0  0  0
  -28.8970  -26.8720   19.4450 O   0  0  0  0  0  0  0  0  0  0  0  0
  -24.7170  -31.6370   22.8630 C   0  0  0  0  0  0  0  0  0  0  0  0
  -27.6880  -27.5910   19.4380 C   0  0  0  0  0  0  0  0  0  0  0  0
  -23.6190  -30.2500   21.1410 C   0  0  0  0  0  3  0  0  0  0  0  0
  -25.1790  -28.9650   19.5770 C   0  0  0  0  0  0  0  0  0  0  0  0
  -26.1070  -30.8380   20.9380 C   0  0  0  0  0  2  0  0  0  0  0  0
  -26.3080  -29.5230   20.1890 C   0  0  0  0  0  0  0  0  0  0  0  0
  -27.5620  -28.8470   20.1120 C   0  0  0  0  0  3  0  0  0  0  0  0
  -26.5240  -27.0770   18.8220 C   0  0  0  0  0  3  0  0  0  0  0  0
  -25.2900  -27.7500   18.8840 C   0  0  0  0  0  3  0  0  0  0  0  0
  -23.8650  -29.7070   19.7090 C   0  0  0  0  0  2  0  0  0  0  0  0
  -24.8340  -30.9220   21.7060 N   0  0  0  0  0  0  0  0  0  0  0  0
  -23.6250  -31.7640   23.4330 O   0  0  0  0  0  0  0  0  0  0  0  0
  -23.0850  -29.1020   22.0300 C   0  0  0  0  0  0  0  0  0  0  0  0
  -21.7790  -28.8080   21.9170 N   0  0  0  0  0  0  0  0  0  0  0  0
  -23.8430  -28.4850   22.7830 O   0  0  0  0  0  0  0  0  0  0  0  0
  -21.2210  -29.3660   21.2870 H   0  0  0  0  0  0  0  0  0  0  0  0
  -18.5420  -27.2660   22.3860 C   0  0  0  0  0  0  0  0  0  0  0  0
  -21.0710  -27.7410   22.6260 C   0  0  0  0  0  3  0  0  0  0  0  0
  -21.2870  -26.3730   21.9360 C   0  0  0  0  0  2  0  0  0  0  0  0
  -20.1940  -26.0280   20.9220 C   0  0  0  0  0  2  0  0  0  0  0  0
  -18.8230  -25.9940   21.6020 C   0  0  0  0  0  2  0  0  0  0  0  0
  -19.5970  -28.0950   22.8520 C   0  0  0  0  0  0  0  0  0  0  0  0
  -19.2790  -29.2830   23.5430 C   0  0  0  0  0  3  0  0  0  0  0  0
  -17.9380  -29.6440   23.7770 C   0  0  0  0  0  3  0  0  0  0  0  0
  -16.8980  -28.8140   23.3240 C   0  0  0  0  0  3  0  0  0  0  0  0
  -17.2000  -27.6270   22.6340 C   0  0  0  0  0  3  0  0  0  0  0  0
  -25.9460  -32.3460   23.5090 C   0  0  0  0  0  3  0  0  0  0  0  0
  -26.5870  -31.5200   24.6920 C   0  0  1  0  0  0  0  0  0  0  0  0
  -25.5660  -31.0700   25.7620 C   0  0  0  0  0  1  0  0  0  0  0  0
  -27.2930  -30.2560   24.1500 C   0  0  0  0  0  1  0  0  0  0  0  0
  -27.6730  -32.3700   25.3950 C   0  0  0  0  0  1  0  0  0  0  0  0
  -25.5010  -33.6650   23.9800 N   0  0  0  0  0  0  0  0  0  0  0  0
  -25.6970  -34.8150   23.3210 C   0  0  0  0  0  0  0  0  0  0  0  0
  -26.3430  -34.8830   22.2720 O   0  0  0  0  0  0  0  0  0  0  0  0
  -24.9240  -33.6790   24.8080 H   0  0  0  0  0  0  0  0  0  0  0  0
  -23.7700  -36.4250   23.1900 C   0  0  0  0  0  1  0  0  0  0  0  0
  -25.0800  -36.0910   23.9230 C   0  0  0  0  0  3  0  0  0  0  0  0
  -27.1400  -37.1290   24.7650 C   0  0  0  0  0  1  0  0  0  0  0  0
  -25.9810  -37.2620   23.8840 N   0  0  0  0  0  0  0  0  0  0  0  0
  -25.4820  -38.1080   24.1470 H   0  0  0  0  0  0  0  0  0  0  0  0
  -27.9470  -22.2110   22.5300 C   0  0  0  0  0  1  0  0  0  0  0  0
  -27.6410  -21.3450   21.3010 C   0  0  0  0  0  2  0  0  0  0  0  0
  -30.7670  -17.5270   20.9470 C   0  0  0  0  0  2  0  0  0  0  0  0
  -30.8610  -15.0460   20.3590 C   0  0  0  0  0  0  0  0  0  0  0  0
  -30.6250  -12.7980   19.3240 C   0  0  0  0  0  2  0  0  0  0  0  0
  -29.7020  -12.8790   18.0890 C   0  0  0  0  0  2  0  0  0  0  0  0
  -28.2310  -12.7110   18.5110 C   0  0  0  0  0  2  0  0  0  0  0  0
  -27.8440  -13.6120   19.7150 C   0  0  0  0  0  3  0  0  0  0  0  0
  -28.8880  -13.5260   20.8480 C   0  0  0  0  0  2  0  0  0  0  0  0
  -30.1960  -13.8530   20.2650 N   0  0  0  0  0  0  0  0  0  0  0  0
  -32.0460  -15.1260   20.0250 O   0  0  0  0  0  0  0  0  0  0  0  0
  -30.1550  -16.1800   20.6680 N   0  0  0  0  0  0  0  0  0  0  0  0
  -29.1680  -16.0960   20.8500 H   0  0  0  0  0  0  0  0  0  0  0  0
  -25.4490  -14.2050   20.4200 C   0  0  0  0  0  0  0  0  0  0  0  0
  -24.3790  -13.4280   20.7710 C   0  0  0  0  0  0  0  0  0  0  0  0
  -24.8420  -12.0760   20.7360 C   0  0  0  0  0  0  0  0  0  0  0  0
  -26.4940  -13.3260   20.1890 N   0  0  0  0  0  0  0  0  0  0  0  0
  -26.1360  -12.0410   20.4430 N   0  0  0  0  0  0  0  0  0  0  0  0
  -24.1130  -10.8140   20.9060 C   0  0  0  0  0  0  0  0  0  0  0  0
  -24.5350   -9.8360   21.8350 C   0  0  0  0  0  3  0  0  0  0  0  0
  -23.8070   -8.6370   21.9930 C   0  0  0  0  0  3  0  0  0  0  0  0
  -22.6420   -8.4070   21.2240 C   0  0  0  0  0  0  0  0  0  0  0  0
  -22.2390   -9.3730   20.2840 C   0  0  0  0  0  3  0  0  0  0  0  0
  -22.9690  -10.5630   20.1230 C   0  0  0  0  0  3  0  0  0  0  0  0
  -21.8850   -7.2630   21.2930 O   0  0  0  0  0  0  0  0  0  0  0  0
  -21.8280   -6.5060   22.4360 C   0  0  0  0  0  0  0  0  0  0  0  0
  -21.3940   -7.0460   23.6660 C   0  0  0  0  0  3  0  0  0  0  0  0
  -21.2860   -6.2170   24.8000 C   0  0  0  0  0  3  0  0  0  0  0  0
  -21.5980   -4.8470   24.7050 C   0  0  0  0  0  0  0  0  0  0  0  0
  -22.0250   -4.3070   23.4790 C   0  0  0  0  0  3  0  0  0  0  0  0
  -22.1360   -5.1340   22.3470 C   0  0  0  0  0  0  0  0  0  0  0  0
  -22.5280   -4.6030   21.1640 F   0  0  0  0  0  0  0  0  0  0  0  0
  -21.4860   -4.0490   25.7910 F   0  0  0  0  0  0  0  0  0  0  0  0
  -22.9780  -13.9030   21.0300 C   0  0  0  0  0  0  0  0  0  0  0  0
  -22.2400  -13.1990   21.8800 N   0  0  0  0  0  0  0  0  0  0  0  0
  -22.5470  -14.9330   20.5130 O   0  0  0  0  0  0  0  0  0  0  0  0
  -22.6020  -12.3640   22.3160 H   0  0  0  0  0  0  0  0  0  0  0  0
  -21.3000  -13.4980   22.0980 H   0  0  0  0  0  0  0  0  0  0  0  0
  -25.6160  -15.5760   20.2560 N   0  0  0  0  0  0  0  0  0  0  0  0
  -24.8490  -16.2300   20.3690 H   0  0  0  0  0  0  0  0  0  0  0  0
  -26.4670  -16.0190   19.9330 H   0  0  0  0  0  0  0  0  0  0  0  0
  1  5  1  0
  1  2  2  0
  2  3  1  0
  3  6  2  0
  3 52  1  0
  4  6  1  0
  4 53  1  0
  5  4  2  0
  7  8  2  0
  7  2  1  0
  9 10  1  0
  9  8  1  0
 11 22  2  0
 12 10  1  0
 12 17  1  0
 13 21  1  0
 13 23  1  0
 14 20  1  0
 14 16  1  0
 15 21  1  0
 16 15  1  0
 17 16  2  0
 18 19  1  0
 18 12  2  0
 19 14  2  0
 20 13  1  0
 21 11  1  0
 23 25  2  0
 24 23  1  0
 26 24  1  0
 27 36  2  0
 27 32  1  0
 28 24  1  0
 28 32  1  0
 29 28  1  0
 30 31  1  0
 30 29  1  0
 31 27  1  0
 32 33  2  0
 33 34  1  0
 35 34  2  0
 36 35  1  0
 37 11  1  0
 37 42  1  0
 37 38  1  0
 38 41  1  1
 38 39  1  0
 40 38  1  0
 42 45  1  0
 43 47  1  0
 43 42  1  0
 44 43  2  0
 47 46  1  0
 49 47  1  0
 49 50  1  0
 49 48  1  0
 52 51  1  0
 54 62  1  0
 55 60  1  0
 56 57  1  0
 56 55  1  0
 58 57  1  0
 58 67  1  0
 58 59  1  0
 60 54  1  0
 60 59  1  0
 61 54  2  0
 62 63  1  0
 62 53  1  0
 64 65  2  0
 65 84  1  0
 66 65  1  0
 66 69  1  0
 67 64  1  0
 67 68  1  0
 68 66  2  0
 69 70  1  0
 70 71  2  0
 72 75  1  0
 72 71  1  0
 73 72  2  0
 74 73  1  0
 74 69  2  0
 75 76  1  0
 76 77  1  0
 77 78  2  0
 79 78  1  0
 79 83  1  0
 80 79  2  0
 81 76  2  0
 81 80  1  0
 82 81  1  0
 84 85  1  0
 85 88  1  0
 85 87  1  0
 86 84  2  0
 89 90  1  0
 89 64  1  0
 91 89  1  0
M  ISO  4   9 101  10 101  54 100  62 100
M  END
>  <TORSDO>  (48) 
F 20

>  <SCORE>  (48) 
-10.903

>  <name>  (48) 
49

>  <ligand_id>  (48) 
49

>  <original_smiles>  (48) 
[H]C(=C([H])C([H])([H])Oc1c([H])c([H])c2c(c1[H])C([H])([H])N(C(=O)C([H])(N([H])C(=O)C([H])(N([H])C([H])([H])[H])C([H])([H])[H])C(C([H])([H])[H])(C([H])([H])[H])C([H])([H])[H])C([H])(C(=O)N([H])C1([H])c3c([H])c([H])c([H])c([H])c3C([H])([H])C([H])([H])C1([H])[H])C2([H])[H])c1c([H])nc(C([H])([H])N([H])C(=O)N2C([H])([H])C([H])([H])C([H])([H])C([H])(n3nc(-c4c([H])c([H])c(Oc5c([H])c([H])c(F)c([H])c5F)c([H])c4[H])c(C(=O)N([H])[H])c3N([H])[H])C2([H])[H])nc1C([H])([H])C([H])([H])[H]

>  <smiles>  (48) 
[H]C(=C([H])C([H])([H])Oc1c([H])c([H])c2c(c1[H])C([H])([H])N(C(=O)C([H])(N([H])C(=O)C([H])(N([H])C([H])([H])[H])C([H])([H])[H])C(C([H])([H])[H])(C([H])([H])[H])C([H])([H])[H])C([H])(C(=O)N([H])C1([H])c3c([H])c([H])c([H])c([H])c3C([H])([H])C([H])([H])C1([H])[H])C2([H])[H])c1c([H])nc(C([H])([H])N([H])C(=O)N2C([H])([H])C([H])([H])C([H])([H])C([H])(n3nc(-c4c([H])c([H])c(Oc5c([H])c([H])c(F)c([H])c5F)c([H])c4[H])c(C(=O)N([H])[H])c3N([H])[H])C2([H])[H])nc1C([H])([H])C([H])([H])[H]

$$$$
50:0:0
     RDKit          3D

 97105  0  0  1  0  0  0  0  0999 V2000
  -30.1150  -20.6000   20.3150 C   0  0  0  0  0  3  0  0  0  0  0  0
  -29.0670  -21.5130   18.3490 C   0  0  0  0  0  3  0  0  0  0  0  0
  -29.4170  -21.6760   19.7020 C   0  0  0  0  0  0  0  0  0  0  0  0
  -30.4480  -19.4210   19.5790 C   0  0  0  0  0  0  0  0  0  0  0  0
  -30.0460  -19.3920   18.2170 C   0  0  0  0  0  0  0  0  0  0  0  0
  -29.3770  -20.4120   17.6340 N   0  0  0  0  0  0  0  0  0  0  0  0
  -32.6400  -18.7250   20.7130 C   0  0  0  0  0  1  0  0  0  0  0  0
  -31.2580  -18.2530   20.2180 C   0  0  0  0  0  3  0  0  0  0  0  0
  -30.5190  -17.4800   21.3690 C   0  0  0  0  0  2  0  0  0  0  0  0
  -31.0120  -15.0150   20.8930 C   0  0  0  0  0  0  0  0  0  0  0  0
  -30.8990  -12.7370   19.9420 C   0  0  0  0  0  2  0  0  0  0  0  0
  -30.0690  -12.7750   18.6420 C   0  0  0  0  0  2  0  0  0  0  0  0
  -28.5610  -12.6490   18.9400 C   0  0  0  0  0  2  0  0  0  0  0  0
  -28.0850  -13.5920   20.0780 C   0  0  0  0  0  3  0  0  0  0  0  0
  -29.0340  -13.5070   21.2940 C   0  0  0  0  0  2  0  0  0  0  0  0
  -30.3940  -13.8050   20.8170 N   0  0  0  0  0  0  0  0  0  0  0  0
  -32.1960  -15.1850   20.5990 O   0  0  0  0  0  0  0  0  0  0  0  0
  -30.1860  -16.0580   21.1390 N   0  0  0  0  0  0  0  0  0  0  0  0
  -29.2270  -15.7990   21.3160 H   0  0  0  0  0  0  0  0  0  0  0  0
  -25.6530  -14.2220   20.6240 C   0  0  0  0  0  0  0  0  0  0  0  0
  -24.5490  -13.4600   20.8960 C   0  0  0  0  0  0  0  0  0  0  0  0
  -24.9930  -12.1020   20.8700 C   0  0  0  0  0  0  0  0  0  0  0  0
  -26.6990  -13.3290   20.4520 N   0  0  0  0  0  0  0  0  0  0  0  0
  -26.3020  -12.0490   20.6590 N   0  0  0  0  0  0  0  0  0  0  0  0
  -24.2390  -10.8470   20.9760 C   0  0  0  0  0  0  0  0  0  0  0  0
  -24.5730   -9.8620   21.9330 C   0  0  0  0  0  3  0  0  0  0  0  0
  -23.8190   -8.6710   22.0270 C   0  0  0  0  0  3  0  0  0  0  0  0
  -22.7200   -8.4570   21.1620 C   0  0  0  0  0  0  0  0  0  0  0  0
  -22.4090   -9.4300   20.1960 C   0  0  0  0  0  3  0  0  0  0  0  0
  -23.1610  -10.6110   20.1000 C   0  0  0  0  0  3  0  0  0  0  0  0
  -21.9470   -7.3210   21.1620 O   0  0  0  0  0  0  0  0  0  0  0  0
  -21.7360   -6.5940   22.3070 C   0  0  0  0  0  0  0  0  0  0  0  0
  -21.1710   -7.1730   23.4650 C   0  0  0  0  0  3  0  0  0  0  0  0
  -20.9090   -6.3750   24.5960 C   0  0  0  0  0  3  0  0  0  0  0  0
  -21.2020   -4.9980   24.5690 C   0  0  0  0  0  0  0  0  0  0  0  0
  -21.7580   -4.4190   23.4160 C   0  0  0  0  0  3  0  0  0  0  0  0
  -22.0230   -5.2140   22.2870 C   0  0  0  0  0  0  0  0  0  0  0  0
  -22.5400   -4.6470   21.1710 F   0  0  0  0  0  0  0  0  0  0  0  0
  -20.9420   -4.2280   25.6520 F   0  0  0  0  0  0  0  0  0  0  0  0
  -23.1420  -13.9510   21.0730 C   0  0  0  0  0  0  0  0  0  0  0  0
  -22.3450  -13.2550   21.8780 N   0  0  0  0  0  0  0  0  0  0  0  0
  -22.7530  -14.9870   20.5350 O   0  0  0  0  0  0  0  0  0  0  0  0
  -22.6700  -12.4160   22.3360 H   0  0  0  0  0  0  0  0  0  0  0  0
  -21.3990  -13.5670   22.0430 H   0  0  0  0  0  0  0  0  0  0  0  0
  -25.8510  -15.5930   20.4940 N   0  0  0  0  0  0  0  0  0  0  0  0
  -25.0920  -16.2570   20.5920 H   0  0  0  0  0  0  0  0  0  0  0  0
  -26.7430  -16.0350   20.3190 H   0  0  0  0  0  0  0  0  0  0  0  0
  -28.9350  -22.8990   20.5250 C   0  0  0  0  0  2  0  0  0  0  0  0
  -29.0140  -24.3440   19.9140 C   0  0  0  0  0  2  0  0  0  0  0  0
  -28.5090  -25.4430   20.9190 C   0  0  0  0  0  2  0  0  0  0  0  0
  -28.6050  -26.8340   20.5200 O   0  0  0  0  0  0  0  0  0  0  0  0
  -24.7290  -32.1290   23.4350 C   0  0  0  0  0  0  0  0  0  0  0  0
  -27.4400  -27.5800   20.5290 C   0  0  0  0  0  0  0  0  0  0  0  0
  -23.5510  -30.6620   21.8310 C   0  0  0  0  0  3  0  0  0  0  0  0
  -25.0340  -29.0880   20.4740 C   0  0  0  0  0  0  0  0  0  0  0  0
  -26.0790  -31.0320   21.6440 C   0  0  0  0  0  2  0  0  0  0  0  0
  -26.1860  -29.6380   21.0480 C   0  0  0  0  0  0  0  0  0  0  0  0
  -27.3970  -28.8940   21.0650 C   0  0  0  0  0  3  0  0  0  0  0  0
  -26.2640  -27.0460   19.9640 C   0  0  0  0  0  3  0  0  0  0  0  0
  -25.0680  -27.7900   19.9320 C   0  0  0  0  0  3  0  0  0  0  0  0
  -23.7810  -29.9360   20.4780 C   0  0  0  0  0  2  0  0  0  0  0  0
  -24.8030  -31.2920   22.3600 N   0  0  0  0  0  0  0  0  0  0  0  0
  -23.6390  -32.4110   23.9550 O   0  0  0  0  0  0  0  0  0  0  0  0
  -22.8970  -29.6670   22.8210 C   0  0  0  0  0  0  0  0  0  0  0  0
  -21.6050  -29.3700   22.6070 N   0  0  0  0  0  0  0  0  0  0  0  0
  -23.5560  -29.1640   23.7340 O   0  0  0  0  0  0  0  0  0  0  0  0
  -21.1350  -29.8380   21.8460 H   0  0  0  0  0  0  0  0  0  0  0  0
  -18.3060  -27.9240   22.9130 C   0  0  0  0  0  0  0  0  0  0  0  0
  -20.7970  -28.4300   23.3850 C   0  0  0  0  0  3  0  0  0  0  0  0
  -21.0720  -26.9710   22.9500 C   0  0  0  0  0  2  0  0  0  0  0  0
  -20.1000  -26.4700   21.8770 C   0  0  0  0  0  2  0  0  0  0  0  0
  -18.6550  -26.5430   22.3800 C   0  0  0  0  0  2  0  0  0  0  0  0
  -19.3140  -28.8150   23.3670 C   0  0  0  0  0  0  0  0  0  0  0  0
  -18.9410  -30.0990   23.8200 C   0  0  0  0  0  3  0  0  0  0  0  0
  -17.5910  -30.4980   23.8210 C   0  0  0  0  0  3  0  0  0  0  0  0
  -16.5950  -29.6060   23.3870 C   0  0  0  0  0  3  0  0  0  0  0  0
  -16.9530  -28.3210   22.9390 C   0  0  0  0  0  3  0  0  0  0  0  0
  -26.0020  -32.7920   24.0470 C   0  0  0  0  0  3  0  0  0  0  0  0
  -25.6630  -34.1810   24.3790 N   0  0  0  0  0  0  0  0  0  0  0  0
  -25.9390  -35.2390   23.6040 C   0  0  0  0  0  0  0  0  0  0  0  0
  -26.5790  -35.1510   22.5530 O   0  0  0  0  0  0  0  0  0  0  0  0
  -25.0870  -34.3200   25.1960 H   0  0  0  0  0  0  0  0  0  0  0  0
  -24.1340  -36.9670   23.3130 C   0  0  0  0  0  1  0  0  0  0  0  0
  -25.4230  -36.6140   24.0720 C   0  0  0  0  0  3  0  0  0  0  0  0
  -27.5670  -37.5690   24.7870 C   0  0  0  0  0  1  0  0  0  0  0  0
  -26.4110  -37.7030   23.9080 N   0  0  0  0  0  0  0  0  0  0  0  0
  -25.9800  -38.6070   24.0840 H   0  0  0  0  0  0  0  0  0  0  0  0
  -26.5530  -32.0330   25.3160 C   0  0  1  0  0  0  0  0  0  0  0  0
  -25.4640  -31.6980   26.3630 C   0  0  0  0  0  1  0  0  0  0  0  0
  -27.2340  -30.7080   24.9030 C   0  0  0  0  0  1  0  0  0  0  0  0
  -27.6330  -32.8910   26.0150 C   0  0  0  0  0  1  0  0  0  0  0  0
  -30.3040  -18.2110   17.2800 C   0  0  0  0  0  2  0  0  0  0  0  0
  -31.5840  -18.3890   16.4250 C   0  0  0  0  0  2  0  0  0  0  0  0
  -30.7180  -17.4180   14.2960 C   0  0  0  0  0  1  0  0  0  0  0  0
  -33.1210  -17.4070   14.7660 C   0  0  0  0  0  1  0  0  0  0  0  0
  -31.7590  -17.3650   15.3550 N   0  0  1  0  0  4  0  0  0  0  0  0
  -31.6880  -16.4580   15.7920 H   0  0  0  0  0  0  0  0  0  0  0  0
  2  3  2  0
  3  1  1  0
  3 48  1  0
  4  8  1  0
  4  1  2  0
  5  4  1  0
  6  5  2  0
  6  2  1  0
  8  7  1  0
  8  9  1  0
 10 18  1  0
 11 16  1  0
 12 13  1  0
 12 11  1  0
 14 13  1  0
 14 23  1  0
 14 15  1  0
 16 10  1  0
 16 15  1  0
 17 10  2  0
 18 19  1  0
 18  9  1  0
 20 21  2  0
 21 40  1  0
 22 21  1  0
 22 25  1  0
 23 20  1  0
 23 24  1  0
 24 22  2  0
 25 26  1  0
 26 27  2  0
 28 31  1  0
 28 27  1  0
 29 28  2  0
 30 29  1  0
 30 25  2  0
 31 32  1  0
 32 33  1  0
 33 34  2  0
 35 34  1  0
 35 39  1  0
 36 35  2  0
 37 32  2  0
 37 36  1  0
 38 37  1  0
 40 41  1  0
 41 44  1  0
 41 43  1  0
 42 40  2  0
 45 46  1  0
 45 20  1  0
 47 45  1  0
 49 48  1  0
 49 50  1  0
 51 53  1  0
 51 50  1  0
 52 63  2  0
 53 58  1  0
 54 62  1  0
 54 64  1  0
 55 61  1  0
 55 57  1  0
 56 62  1  0
 57 58  2  0
 57 56  1  0
 59 53  2  0
 60 59  1  0
 60 55  2  0
 61 54  1  0
 62 52  1  0
 64 66  2  0
 65 64  1  0
 67 65  1  0
 68 77  2  0
 68 73  1  0
 69 65  1  0
 70 69  1  0
 71 72  1  0
 71 70  1  0
 72 68  1  0
 73 69  1  0
 73 74  2  0
 74 75  1  0
 76 75  2  0
 77 76  1  0
 78 52  1  0
 78 79  1  0
 78 88  1  0
 79 82  1  0
 80 84  1  0
 80 79  1  0
 81 80  2  0
 84 83  1  0
 86 84  1  0
 86 87  1  0
 86 85  1  0
 88 91  1  1
 88 89  1  0
 90 88  1  0
 92  5  1  0
 93 92  1  0
 94 96  1  0
 95 96  1  0
 96 97  1  1
 96 93  1  0
M  ISO  4  10 100  18 100  50 101  51 101
M  END
>  <TORSDO>  (49) 
F 24

>  <SCORE>  (49) 
-12.010

>  <name>  (49) 
50

>  <ligand_id>  (49) 
50

>  <original_smiles>  (49) 
[H]c1nc(C([H])([H])C([H])([H])[N+]([H])(C([H])([H])[H])C([H])([H])[H])c(C([H])(C([H])([H])[H])C([H])([H])N([H])C(=O)N2C([H])([H])C([H])([H])C([H])([H])C([H])(n3nc(-c4c([H])c([H])c(Oc5c([H])c([H])c(F)c([H])c5F)c([H])c4[H])c(C(=O)N([H])[H])c3N([H])[H])C2([H])[H])c([H])c1C([H])([H])C([H])([H])C([H])([H])Oc1c([H])c([H])c2c(c1[H])C([H])([H])N(C(=O)C([H])(N([H])C(=O)C([H])(N([H])C([H])([H])[H])C([H])([H])[H])C(C([H])([H])[H])(C([H])([H])[H])C([H])([H])[H])C([H])(C(=O)N([H])C1([H])c3c([H])c([H])c([H])c([H])c3C([H])([H])C([H])([H])C1([H])[H])C2([H])[H]

>  <smiles>  (49) 
[H]c1nc(C([H])([H])C([H])([H])[N+]([H])(C([H])([H])[H])C([H])([H])[H])c(C([H])(C([H])([H])[H])C([H])([H])N([H])C(=O)N2C([H])([H])C([H])([H])C([H])([H])C([H])(n3nc(-c4c([H])c([H])c(Oc5c([H])c([H])c(F)c([H])c5F)c([H])c4[H])c(C(=O)N([H])[H])c3N([H])[H])C2([H])[H])c([H])c1C([H])([H])C([H])([H])C([H])([H])Oc1c([H])c([H])c2c(c1[H])C([H])([H])N(C(=O)C([H])(N([H])C(=O)C([H])(N([H])C([H])([H])[H])C([H])([H])[H])C(C([H])([H])[H])(C([H])([H])[H])C([H])([H])[H])C([H])(C(=O)N([H])C1([H])c3c([H])c([H])c([H])c([H])c3C([H])([H])C([H])([H])C1([H])[H])C2([H])[H]

$$$$
51:0:0
     RDKit          3D

 90 98  0  0  1  0  0  0  0  0999 V2000
  -28.7690  -21.7320   21.2090 C   0  0  0  0  0  2  0  0  0  0  0  0
  -28.5850  -19.1990   20.7680 C   0  0  0  0  0  3  0  0  0  0  0  0
  -29.4700  -18.1800   20.4700 C   0  0  0  0  0  0  0  0  0  0  0  0
  -30.5870  -20.1220   20.5690 C   0  0  0  0  0  3  0  0  0  0  0  0
  -31.7330  -21.0790   20.5320 C   0  0  0  0  0  1  0  0  0  0  0  0
  -29.2920  -20.3860   20.8240 N   0  0  0  0  0  0  0  0  0  0  0  0
  -30.6840  -18.8040   20.3430 N   0  0  0  0  0  0  0  0  0  0  0  0
  -31.5490  -18.3350   20.0980 H   0  0  0  0  0  0  0  0  0  0  0  0
  -29.2840  -16.6940   20.2140 C   0  0  0  0  0  2  0  0  0  0  0  0
  -30.1030  -15.7230   21.1200 C   0  0  0  0  0  2  0  0  0  0  0  0
  -30.6800  -14.4950   20.3600 C   0  0  0  0  0  0  0  0  0  0  0  0
  -30.3470  -12.3350   19.1990 C   0  0  0  0  0  2  0  0  0  0  0  0
  -29.4030  -12.5540   17.9990 C   0  0  0  0  0  2  0  0  0  0  0  0
  -27.9290  -12.4390   18.4360 C   0  0  0  0  0  2  0  0  0  0  0  0
  -27.6120  -13.2660   19.7100 C   0  0  0  0  0  3  0  0  0  0  0  0
  -28.6730  -13.0370   20.8080 C   0  0  0  0  0  2  0  0  0  0  0  0
  -29.9940  -13.3260   20.2330 N   0  0  0  0  0  0  0  0  0  0  0  0
  -31.7750  -14.6570   19.8120 O   0  0  0  0  0  0  0  0  0  0  0  0
  -25.2260  -13.8920   20.4390 C   0  0  0  0  0  0  0  0  0  0  0  0
  -24.1590  -13.1290   20.8260 C   0  0  0  0  0  0  0  0  0  0  0  0
  -24.6090  -11.7740   20.7980 C   0  0  0  0  0  0  0  0  0  0  0  0
  -26.2620  -13.0020   20.2010 N   0  0  0  0  0  0  0  0  0  0  0  0
  -25.8960  -11.7240   20.4750 N   0  0  0  0  0  0  0  0  0  0  0  0
  -23.8750  -10.5180   21.0020 C   0  0  0  0  0  0  0  0  0  0  0  0
  -24.3160   -9.5480   21.9290 C   0  0  0  0  0  3  0  0  0  0  0  0
  -23.5830   -8.3570   22.1230 C   0  0  0  0  0  3  0  0  0  0  0  0
  -22.3950   -8.1280   21.3890 C   0  0  0  0  0  0  0  0  0  0  0  0
  -21.9730   -9.0870   20.4520 C   0  0  0  0  0  3  0  0  0  0  0  0
  -22.7050  -10.2700   20.2570 C   0  0  0  0  0  3  0  0  0  0  0  0
  -21.6330   -6.9900   21.4910 O   0  0  0  0  0  0  0  0  0  0  0  0
  -21.6070   -6.2420   22.6410 C   0  0  0  0  0  0  0  0  0  0  0  0
  -21.2340   -6.7980   23.8840 C   0  0  0  0  0  3  0  0  0  0  0  0
  -21.1560   -5.9780   25.0260 C   0  0  0  0  0  3  0  0  0  0  0  0
  -21.4390   -4.6030   24.9280 C   0  0  0  0  0  0  0  0  0  0  0  0
  -21.8060   -4.0460   23.6900 C   0  0  0  0  0  3  0  0  0  0  0  0
  -21.8880   -4.8640   22.5490 C   0  0  0  0  0  0  0  0  0  0  0  0
  -22.2200   -4.3190   21.3540 F   0  0  0  0  0  0  0  0  0  0  0  0
  -21.3570   -3.8110   26.0240 F   0  0  0  0  0  0  0  0  0  0  0  0
  -22.7680  -13.6160   21.1110 C   0  0  0  0  0  0  0  0  0  0  0  0
  -22.0450  -12.9290   21.9890 N   0  0  0  0  0  0  0  0  0  0  0  0
  -22.3310  -14.6430   20.5910 O   0  0  0  0  0  0  0  0  0  0  0  0
  -22.4100  -12.0980   22.4300 H   0  0  0  0  0  0  0  0  0  0  0  0
  -21.1130  -13.2400   22.2250 H   0  0  0  0  0  0  0  0  0  0  0  0
  -25.3940  -15.2600   20.2470 N   0  0  0  0  0  0  0  0  0  0  0  0
  -24.6150  -15.9030   20.3320 H   0  0  0  0  0  0  0  0  0  0  0  0
  -26.2080  -15.6800   19.8200 H   0  0  0  0  0  0  0  0  0  0  0  0
  -28.8410  -22.8630   20.1340 C   0  0  0  0  0  2  0  0  0  0  0  0
  -28.3670  -24.2650   20.6370 C   0  0  0  0  0  2  0  0  0  0  0  0
  -28.5920  -25.4300   19.6320 C   0  0  0  0  0  2  0  0  0  0  0  0
  -28.4320  -26.7470   20.1960 O   0  0  0  0  0  0  0  0  0  0  0  0
  -24.5600  -31.8960   23.2150 C   0  0  0  0  0  0  0  0  0  0  0  0
  -27.2260  -27.4310   20.1610 C   0  0  0  0  0  0  0  0  0  0  0  0
  -23.3590  -30.4850   21.5740 C   0  0  0  0  0  3  0  0  0  0  0  0
  -24.8200  -28.9420   20.1580 C   0  0  0  0  0  0  0  0  0  0  0  0
  -25.8840  -30.8470   21.3790 C   0  0  0  0  0  2  0  0  0  0  0  0
  -25.9740  -29.4710   20.7470 C   0  0  0  0  0  0  0  0  0  0  0  0
  -27.1750  -28.7220   20.7450 C   0  0  0  0  0  3  0  0  0  0  0  0
  -26.0460  -26.9150   19.5760 C   0  0  0  0  0  3  0  0  0  0  0  0
  -24.8520  -27.6640   19.5700 C   0  0  0  0  0  3  0  0  0  0  0  0
  -23.5730  -29.7970   20.1990 C   0  0  0  0  0  2  0  0  0  0  0  0
  -24.6190  -31.0930   22.1150 N   0  0  0  0  0  0  0  0  0  0  0  0
  -23.4770  -32.1680   23.7530 O   0  0  0  0  0  0  0  0  0  0  0  0
  -22.7080  -29.4680   22.5400 C   0  0  0  0  0  0  0  0  0  0  0  0
  -21.3840  -29.2850   22.4140 N   0  0  0  0  0  0  0  0  0  0  0  0
  -23.3920  -28.8470   23.3570 O   0  0  0  0  0  0  0  0  0  0  0  0
  -20.8940  -29.8400   21.7260 H   0  0  0  0  0  0  0  0  0  0  0  0
  -18.0100  -28.0880   22.9050 C   0  0  0  0  0  0  0  0  0  0  0  0
  -20.5670  -28.3470   23.1840 C   0  0  0  0  0  3  0  0  0  0  0  0
  -20.6710  -26.9160   22.6090 C   0  0  0  0  0  2  0  0  0  0  0  0
  -19.5720  -26.5910   21.5930 C   0  0  0  0  0  2  0  0  0  0  0  0
  -18.1890  -26.7370   22.2330 C   0  0  0  0  0  2  0  0  0  0  0  0
  -19.1270  -28.8510   23.3360 C   0  0  0  0  0  0  0  0  0  0  0  0
  -18.9060  -30.1170   23.9210 C   0  0  0  0  0  3  0  0  0  0  0  0
  -17.6020  -30.6190   24.0820 C   0  0  0  0  0  3  0  0  0  0  0  0
  -16.4990  -29.8520   23.6700 C   0  0  0  0  0  3  0  0  0  0  0  0
  -16.7040  -28.5900   23.0840 C   0  0  0  0  0  3  0  0  0  0  0  0
  -25.8440  -32.5310   23.8350 C   0  0  0  0  0  3  0  0  0  0  0  0
  -25.5310  -33.9280   24.1670 N   0  0  0  0  0  0  0  0  0  0  0  0
  -25.8670  -34.9820   23.4120 C   0  0  0  0  0  0  0  0  0  0  0  0
  -26.5440  -34.8830   22.3860 O   0  0  0  0  0  0  0  0  0  0  0  0
  -24.9250  -34.0790   24.9600 H   0  0  0  0  0  0  0  0  0  0  0  0
  -24.1350  -36.7720   23.0510 C   0  0  0  0  0  1  0  0  0  0  0  0
  -25.3720  -36.3680   23.8700 C   0  0  0  0  0  3  0  0  0  0  0  0
  -27.5010  -37.2520   24.7140 C   0  0  0  0  0  1  0  0  0  0  0  0
  -26.4010  -37.4250   23.7680 N   0  0  0  0  0  0  0  0  0  0  0  0
  -25.9920  -38.3420   23.9220 H   0  0  0  0  0  0  0  0  0  0  0  0
  -26.3660  -31.7590   25.1090 C   0  0  1  0  0  0  0  0  0  0  0  0
  -25.2780  -31.5130   26.1790 C   0  0  0  0  0  1  0  0  0  0  0  0
  -26.9550  -30.3850   24.7110 C   0  0  0  0  0  1  0  0  0  0  0  0
  -27.5130  -32.5560   25.7730 C   0  0  0  0  0  1  0  0  0  0  0  0
  2  6  1  0
  3  2  2  0
  4  5  1  0
  4  6  1  0
  6  1  1  0
  7  3  1  0
  7  4  1  0
  8  7  1  0
  9  3  1  0
  9 10  1  0
 11 10  1  0
 12 17  1  0
 13 14  1  0
 13 12  1  0
 15 14  1  0
 15 22  1  0
 15 16  1  0
 17 11  1  0
 17 16  1  0
 18 11  2  0
 19 20  2  0
 20 39  1  0
 21 20  1  0
 21 24  1  0
 22 19  1  0
 22 23  1  0
 23 21  2  0
 24 25  1  0
 25 26  2  0
 27 30  1  0
 27 26  1  0
 28 27  2  0
 29 28  1  0
 29 24  2  0
 30 31  1  0
 31 32  1  0
 32 33  2  0
 34 33  1  0
 34 38  1  0
 35 34  2  0
 36 31  2  0
 36 35  1  0
 37 36  1  0
 39 40  1  0
 40 43  1  0
 40 42  1  0
 41 39  2  0
 44 45  1  0
 44 19  1  0
 46 44  1  0
 47 48  1  0
 47  1  1  0
 49 50  1  0
 49 48  1  0
 51 62  2  0
 52 50  1  0
 52 57  1  0
 53 61  1  0
 53 63  1  0
 54 60  1  0
 54 56  1  0
 55 61  1  0
 56 55  1  0
 57 56  2  0
 58 52  2  0
 59 58  1  0
 59 54  2  0
 60 53  1  0
 61 51  1  0
 63 65  2  0
 64 63  1  0
 66 64  1  0
 67 76  2  0
 67 72  1  0
 68 64  1  0
 68 72  1  0
 69 68  1  0
 70 71  1  0
 70 69  1  0
 71 67  1  0
 72 73  2  0
 73 74  1  0
 75 74  2  0
 76 75  1  0
 77 51  1  0
 77 78  1  0
 77 87  1  0
 78 81  1  0
 79 83  1  0
 79 78  1  0
 80 79  2  0
 83 82  1  0
 85 83  1  0
 85 86  1  0
 85 84  1  0
 87 90  1  1
 87 88  1  0
 89 87  1  0
M  ISO  4  10 100  11 100  49 101  50 101
M  END
>  <TORSDO>  (50) 
F 22

>  <SCORE>  (50) 
-13.202

>  <name>  (50) 
51

>  <ligand_id>  (50) 
51

>  <original_smiles>  (50) 
[H]c1c([H])c([H])c2c(c1[H])C([H])([H])C([H])([H])C([H])([H])C2([H])N([H])C(=O)C1([H])N(C(=O)C([H])(N([H])C(=O)C([H])(N([H])C([H])([H])[H])C([H])([H])[H])C(C([H])([H])[H])(C([H])([H])[H])C([H])([H])[H])C([H])([H])c2c([H])c(OC([H])([H])C([H])([H])C([H])([H])C([H])([H])n3c([H])c(C([H])([H])C([H])([H])C(=O)N4C([H])([H])C([H])([H])C([H])([H])C([H])(n5nc(-c6c([H])c([H])c(Oc7c([H])c([H])c(F)c([H])c7F)c([H])c6[H])c(C(=O)N([H])[H])c5N([H])[H])C4([H])[H])[n+]([H])c3C([H])([H])[H])c([H])c([H])c2C1([H])[H]

>  <smiles>  (50) 
[H]c1c([H])c([H])c2c(c1[H])C([H])([H])C([H])([H])C([H])([H])C2([H])N([H])C(=O)C1([H])N(C(=O)C([H])(N([H])C(=O)C([H])(N([H])C([H])([H])[H])C([H])([H])[H])C(C([H])([H])[H])(C([H])([H])[H])C([H])([H])[H])C([H])([H])c2c([H])c(OC([H])([H])C([H])([H])C([H])([H])C([H])([H])n3c([H])c(C([H])([H])C([H])([H])C(=O)N4C([H])([H])C([H])([H])C([H])([H])C([H])(n5nc(-c6c([H])c([H])c(Oc7c([H])c([H])c(F)c([H])c7F)c([H])c6[H])c(C(=O)N([H])[H])c5N([H])[H])C4([H])[H])[n+]([H])c3C([H])([H])[H])c([H])c([H])c2C1([H])[H]

$$$$
52:0:0
     RDKit          3D

 92100  0  0  1  0  0  0  0  0999 V2000
  -29.8120  -20.6730   19.7390 C   0  0  0  0  0  3  0  0  0  0  0  0
  -29.9650  -22.0140   20.1470 C   0  0  0  0  0  0  0  0  0  0  0  0
  -29.9470  -19.6570   20.7130 C   0  0  0  0  0  0  0  0  0  0  0  0
  -30.4140  -21.2910   22.2720 C   0  0  0  0  0  0  0  0  0  0  0  0
  -30.8350  -21.6440   23.6830 C   0  0  0  0  0  1  0  0  0  0  0  0
  -30.2660  -22.3040   21.4270 N   0  0  0  0  0  0  0  0  0  0  0  0
  -30.2490  -20.0010   21.9840 N   0  0  0  0  0  0  0  0  0  0  0  0
  -29.2640  -17.8570   18.9920 C   0  0  0  0  0  1  0  0  0  0  0  0
  -29.6170  -18.1590   20.4630 C   0  0  0  0  0  3  0  0  0  0  0  0
  -30.6960  -17.1480   20.9820 C   0  0  0  0  0  2  0  0  0  0  0  0
  -31.0260  -14.6690   20.4790 C   0  0  0  0  0  0  0  0  0  0  0  0
  -30.7360  -12.4840   19.3630 C   0  0  0  0  0  2  0  0  0  0  0  0
  -29.8170  -12.6720   18.1380 C   0  0  0  0  0  2  0  0  0  0  0  0
  -28.3340  -12.5610   18.5430 C   0  0  0  0  0  2  0  0  0  0  0  0
  -27.9830  -13.4160   19.7900 C   0  0  0  0  0  3  0  0  0  0  0  0
  -29.0190  -13.2040   20.9160 C   0  0  0  0  0  2  0  0  0  0  0  0
  -30.3510  -13.4920   20.3620 N   0  0  0  0  0  0  0  0  0  0  0  0
  -32.1860  -14.8180   20.0900 O   0  0  0  0  0  0  0  0  0  0  0  0
  -30.2850  -15.7250   20.8790 N   0  0  0  0  0  0  0  0  0  0  0  0
  -29.3320  -15.5130   21.1290 H   0  0  0  0  0  0  0  0  0  0  0  0
  -25.5810  -14.0560   20.4490 C   0  0  0  0  0  0  0  0  0  0  0  0
  -24.4950  -13.2990   20.8030 C   0  0  0  0  0  0  0  0  0  0  0  0
  -24.9400  -11.9420   20.7900 C   0  0  0  0  0  0  0  0  0  0  0  0
  -26.6200  -13.1600   20.2490 N   0  0  0  0  0  0  0  0  0  0  0  0
  -26.2370  -11.8850   20.5110 N   0  0  0  0  0  0  0  0  0  0  0  0
  -24.1930  -10.6890   20.9710 C   0  0  0  0  0  0  0  0  0  0  0  0
  -24.5870   -9.7270   21.9260 C   0  0  0  0  0  3  0  0  0  0  0  0
  -23.8420   -8.5390   22.0960 C   0  0  0  0  0  3  0  0  0  0  0  0
  -22.6900   -8.3070   21.3080 C   0  0  0  0  0  0  0  0  0  0  0  0
  -22.3150   -9.2570   20.3420 C   0  0  0  0  0  3  0  0  0  0  0  0
  -23.0600  -10.4360   20.1720 C   0  0  0  0  0  3  0  0  0  0  0  0
  -21.9210   -7.1700   21.3860 O   0  0  0  0  0  0  0  0  0  0  0  0
  -21.8180   -6.4480   22.5470 C   0  0  0  0  0  0  0  0  0  0  0  0
  -21.3460   -7.0280   23.7460 C   0  0  0  0  0  3  0  0  0  0  0  0
  -21.1910   -6.2340   24.8980 C   0  0  0  0  0  3  0  0  0  0  0  0
  -21.4950   -4.8600   24.8530 C   0  0  0  0  0  0  0  0  0  0  0  0
  -21.9580   -4.2790   23.6600 C   0  0  0  0  0  3  0  0  0  0  0  0
  -22.1170   -5.0710   22.5080 C   0  0  0  0  0  0  0  0  0  0  0  0
  -22.5430   -4.5020   21.3550 F   0  0  0  0  0  0  0  0  0  0  0  0
  -21.3370   -4.0940   25.9570 F   0  0  0  0  0  0  0  0  0  0  0  0
  -23.0990  -13.7950   21.0410 C   0  0  0  0  0  0  0  0  0  0  0  0
  -22.3490  -13.1180   21.9040 N   0  0  0  0  0  0  0  0  0  0  0  0
  -22.6820  -14.8170   20.4990 O   0  0  0  0  0  0  0  0  0  0  0  0
  -22.7020  -12.2910   22.3620 H   0  0  0  0  0  0  0  0  0  0  0  0
  -21.4110  -13.4290   22.1080 H   0  0  0  0  0  0  0  0  0  0  0  0
  -25.7650  -15.4220   20.2610 N   0  0  0  0  0  0  0  0  0  0  0  0
  -24.9940  -16.0770   20.3260 H   0  0  0  0  0  0  0  0  0  0  0  0
  -26.6140  -15.8420   19.9070 H   0  0  0  0  0  0  0  0  0  0  0  0
  -29.8040  -23.1700   19.1490 C   0  0  0  0  0  2  0  0  0  0  0  0
  -29.7960  -24.6370   19.6840 C   0  0  0  0  0  2  0  0  0  0  0  0
  -28.4150  -25.3310   19.6350 C   0  0  0  0  0  2  0  0  0  0  0  0
  -28.4970  -26.7510   19.8610 O   0  0  0  0  0  0  0  0  0  0  0  0
  -24.6530  -31.7710   23.1660 C   0  0  0  0  0  0  0  0  0  0  0  0
  -27.3100  -27.4670   19.8790 C   0  0  0  0  0  0  0  0  0  0  0  0
  -23.4390  -30.3950   21.5130 C   0  0  0  0  0  3  0  0  0  0  0  0
  -24.8880  -28.9430   19.9990 C   0  0  0  0  0  0  0  0  0  0  0  0
  -25.9560  -30.8090   21.2710 C   0  0  0  0  0  2  0  0  0  0  0  0
  -26.0540  -29.4660   20.5730 C   0  0  0  0  0  0  0  0  0  0  0  0
  -27.2680  -28.7390   20.5030 C   0  0  0  0  0  3  0  0  0  0  0  0
  -26.1170  -26.9690   19.2990 C   0  0  0  0  0  3  0  0  0  0  0  0
  -24.9170  -27.6980   19.3560 C   0  0  0  0  0  3  0  0  0  0  0  0
  -23.6290  -29.7690   20.1060 C   0  0  0  0  0  2  0  0  0  0  0  0
  -24.7020  -31.0030   22.0420 N   0  0  0  0  0  0  0  0  0  0  0  0
  -23.5780  -32.0070   23.7370 O   0  0  0  0  0  0  0  0  0  0  0  0
  -22.8310  -29.3270   22.4500 C   0  0  0  0  0  0  0  0  0  0  0  0
  -21.5160  -29.0910   22.3100 N   0  0  0  0  0  0  0  0  0  0  0  0
  -23.5370  -28.7190   23.2570 O   0  0  0  0  0  0  0  0  0  0  0  0
  -21.0070  -29.6320   21.6250 H   0  0  0  0  0  0  0  0  0  0  0  0
  -18.2050  -27.7060   22.7280 C   0  0  0  0  0  0  0  0  0  0  0  0
  -20.7360  -28.1060   23.0600 C   0  0  0  0  0  3  0  0  0  0  0  0
  -20.9350  -26.6860   22.4840 C   0  0  0  0  0  2  0  0  0  0  0  0
  -19.8770  -26.3040   21.4430 C   0  0  0  0  0  2  0  0  0  0  0  0
  -18.4750  -26.3690   22.0570 C   0  0  0  0  0  2  0  0  0  0  0  0
  -19.2690  -28.5290   23.1840 C   0  0  0  0  0  0  0  0  0  0  0  0
  -18.9650  -29.7770   23.7690 C   0  0  0  0  0  3  0  0  0  0  0  0
  -17.6310  -30.2040   23.9070 C   0  0  0  0  0  3  0  0  0  0  0  0
  -16.5800  -29.3760   23.4720 C   0  0  0  0  0  3  0  0  0  0  0  0
  -16.8690  -28.1310   22.8880 C   0  0  0  0  0  3  0  0  0  0  0  0
  -25.9400  -32.4060   23.7760 C   0  0  0  0  0  3  0  0  0  0  0  0
  -25.6170  -33.7910   24.1480 N   0  0  0  0  0  0  0  0  0  0  0  0
  -25.9070  -34.8640   23.4010 C   0  0  0  0  0  0  0  0  0  0  0  0
  -26.5470  -34.7950   22.3480 O   0  0  0  0  0  0  0  0  0  0  0  0
  -25.0440  -33.9190   24.9690 H   0  0  0  0  0  0  0  0  0  0  0  0
  -24.1260  -36.6200   23.1470 C   0  0  0  0  0  1  0  0  0  0  0  0
  -25.4070  -36.2310   23.9030 C   0  0  0  0  0  3  0  0  0  0  0  0
  -27.5530  -37.1470   24.6670 C   0  0  0  0  0  1  0  0  0  0  0  0
  -26.4090  -37.3110   23.7720 N   0  0  0  0  0  0  0  0  0  0  0  0
  -25.9900  -38.2180   23.9590 H   0  0  0  0  0  0  0  0  0  0  0  0
  -26.5020  -31.6080   25.0150 C   0  0  1  0  0  0  0  0  0  0  0  0
  -25.4350  -31.3170   26.0980 C   0  0  0  0  0  1  0  0  0  0  0  0
  -27.0970  -30.2510   24.5700 C   0  0  0  0  0  1  0  0  0  0  0  0
  -27.6600  -32.4000   25.6660 C   0  0  0  0  0  1  0  0  0  0  0  0
  1  2  2  0
  1  3  1  0
  2  6  1  0
  3  7  2  0
  4  5  1  0
  6  4  2  0
  7  4  1  0
  9  8  1  0
  9  3  1  0
  9 10  1  0
 11 19  1  0
 12 17  1  0
 13 14  1  0
 13 12  1  0
 15 14  1  0
 15 24  1  0
 15 16  1  0
 17 11  1  0
 17 16  1  0
 18 11  2  0
 19 10  1  0
 19 20  1  0
 21 22  2  0
 22 41  1  0
 23 22  1  0
 23 26  1  0
 24 21  1  0
 24 25  1  0
 25 23  2  0
 26 27  1  0
 27 28  2  0
 29 32  1  0
 29 28  1  0
 30 29  2  0
 31 30  1  0
 31 26  2  0
 32 33  1  0
 33 34  1  0
 34 35  2  0
 36 35  1  0
 36 40  1  0
 37 36  2  0
 38 33  2  0
 38 37  1  0
 39 38  1  0
 41 42  1  0
 42 45  1  0
 42 44  1  0
 43 41  2  0
 46 47  1  0
 46 21  1  0
 48 46  1  0
 49 50  1  0
 49  2  1  0
 51 50  1  0
 51 52  1  0
 52 54  1  0
 53 64  2  0
 54 59  1  0
 55 63  1  0
 55 65  1  0
 56 62  1  0
 56 58  1  0
 57 63  1  0
 58 57  1  0
 59 58  2  0
 60 61  1  0
 60 54  2  0
 61 56  2  0
 62 55  1  0
 63 53  1  0
 65 67  2  0
 66 65  1  0
 68 66  1  0
 69 78  2  0
 69 74  1  0
 70 66  1  0
 70 74  1  0
 71 70  1  0
 72 73  1  0
 72 71  1  0
 73 69  1  0
 74 75  2  0
 75 76  1  0
 77 76  2  0
 78 77  1  0
 79 53  1  0
 79 80  1  0
 79 89  1  0
 80 83  1  0
 81 85  1  0
 81 80  1  0
 82 81  2  0
 85 84  1  0
 87 85  1  0
 87 88  1  0
 87 86  1  0
 89 92  1  1
 89 90  1  0
 91 89  1  0
M  ISO  4  11 100  19 100  51 101  52 101
M  END
>  <TORSDO>  (51) 
F 21

>  <SCORE>  (51) 
-13.366

>  <name>  (51) 
52

>  <ligand_id>  (51) 
52

>  <original_smiles>  (51) 
[H]c1c(C([H])([H])C([H])([H])C([H])([H])Oc2c([H])c([H])c3c(c2[H])C([H])([H])N(C(=O)C([H])(N([H])C(=O)C([H])(N([H])C([H])([H])[H])C([H])([H])[H])C(C([H])([H])[H])(C([H])([H])[H])C([H])([H])[H])C([H])(C(=O)N([H])C2([H])c4c([H])c([H])c([H])c([H])c4C([H])([H])C([H])([H])C2([H])[H])C3([H])[H])nc(C([H])([H])[H])nc1C([H])(C([H])([H])[H])C([H])([H])N([H])C(=O)N1C([H])([H])C([H])([H])C([H])([H])C([H])(n2nc(-c3c([H])c([H])c(Oc4c([H])c([H])c(F)c([H])c4F)c([H])c3[H])c(C(=O)N([H])[H])c2N([H])[H])C1([H])[H]

>  <smiles>  (51) 
[H]c1c(C([H])([H])C([H])([H])C([H])([H])Oc2c([H])c([H])c3c(c2[H])C([H])([H])N(C(=O)C([H])(N([H])C(=O)C([H])(N([H])C([H])([H])[H])C([H])([H])[H])C(C([H])([H])[H])(C([H])([H])[H])C([H])([H])[H])C([H])(C(=O)N([H])C2([H])c4c([H])c([H])c([H])c([H])c4C([H])([H])C([H])([H])C2([H])[H])C3([H])[H])nc(C([H])([H])[H])nc1C([H])(C([H])([H])[H])C([H])([H])N([H])C(=O)N1C([H])([H])C([H])([H])C([H])([H])C([H])(n2nc(-c3c([H])c([H])c(Oc4c([H])c([H])c(F)c([H])c4F)c([H])c3[H])c(C(=O)N([H])[H])c2N([H])[H])C1([H])[H]

$$$$
53:0:0
     RDKit          3D

 94102  0  0  1  0  0  0  0  0999 V2000
  -27.8210  -18.3820   19.9760 C   0  0  0  0  0  3  0  0  0  0  0  0
  -28.9880  -19.0250   20.3070 C   0  0  0  0  0  0  0  0  0  0  0  0
  -27.3960  -20.5520   19.8510 C   0  0  0  0  0  3  0  0  0  0  0  0
  -26.6090  -21.8160   19.6570 C   0  0  0  0  0  1  0  0  0  0  0  0
  -28.6880  -20.4000   20.2150 N   0  0  0  0  0  0  0  0  0  0  0  0
  -26.8820  -19.3320   19.7030 N   0  0  0  0  0  0  0  0  0  0  0  0
  -25.9180  -19.1450   19.4510 H   0  0  0  0  0  0  0  0  0  0  0  0
  -30.3030  -18.3810   20.7410 C   0  0  1  0  0  0  0  0  0  0  0  0
  -31.2680  -19.2400   20.4150 F   0  0  0  0  0  0  0  0  0  0  0  0
  -30.3120  -18.2360   22.0660 F   0  0  0  0  0  0  0  0  0  0  0  0
  -30.7440  -17.0190   20.0580 C   0  0  0  0  0  2  0  0  0  0  0  0
  -31.0180  -14.5350   20.3200 C   0  0  0  0  0  0  0  0  0  0  0  0
  -30.6960  -12.3030   19.3080 C   0  0  0  0  0  2  0  0  0  0  0  0
  -29.7660  -12.4530   18.0870 C   0  0  0  0  0  2  0  0  0  0  0  0
  -28.2930  -12.3380   18.5210 C   0  0  0  0  0  2  0  0  0  0  0  0
  -27.9560  -13.2290   19.7460 C   0  0  0  0  0  3  0  0  0  0  0  0
  -29.0120  -13.0960   20.8670 C   0  0  0  0  0  2  0  0  0  0  0  0
  -30.3290  -13.3560   20.2760 N   0  0  0  0  0  0  0  0  0  0  0  0
  -32.1830  -14.6050   19.9230 O   0  0  0  0  0  0  0  0  0  0  0  0
  -30.3070  -15.6740   20.5630 N   0  0  0  0  0  0  0  0  0  0  0  0
  -29.3550  -15.5670   20.8730 H   0  0  0  0  0  0  0  0  0  0  0  0
  -25.5890  -13.8780   20.5060 C   0  0  0  0  0  0  0  0  0  0  0  0
  -24.5070  -13.1280   20.8820 C   0  0  0  0  0  0  0  0  0  0  0  0
  -24.9320  -11.7660   20.8200 C   0  0  0  0  0  0  0  0  0  0  0  0
  -26.6050  -12.9750   20.2420 N   0  0  0  0  0  0  0  0  0  0  0  0
  -26.2150  -11.6970   20.4900 N   0  0  0  0  0  0  0  0  0  0  0  0
  -24.1740  -10.5210   20.9960 C   0  0  0  0  0  0  0  0  0  0  0  0
  -24.5750   -9.5370   21.9260 C   0  0  0  0  0  3  0  0  0  0  0  0
  -23.8170   -8.3570   22.0920 C   0  0  0  0  0  3  0  0  0  0  0  0
  -22.6450   -8.1520   21.3260 C   0  0  0  0  0  0  0  0  0  0  0  0
  -22.2640   -9.1240   20.3850 C   0  0  0  0  0  3  0  0  0  0  0  0
  -23.0210  -10.2950   20.2170 C   0  0  0  0  0  3  0  0  0  0  0  0
  -21.8620   -7.0260   21.4010 O   0  0  0  0  0  0  0  0  0  0  0  0
  -21.7770   -6.2850   22.5520 C   0  0  0  0  0  0  0  0  0  0  0  0
  -21.3170   -6.8420   23.7660 C   0  0  0  0  0  3  0  0  0  0  0  0
  -21.1790   -6.0260   24.9070 C   0  0  0  0  0  3  0  0  0  0  0  0
  -21.4920   -4.6560   24.8360 C   0  0  0  0  0  0  0  0  0  0  0  0
  -21.9450   -4.0980   23.6270 C   0  0  0  0  0  3  0  0  0  0  0  0
  -22.0860   -4.9100   22.4890 C   0  0  0  0  0  0  0  0  0  0  0  0
  -22.5020   -4.3640   21.3210 F   0  0  0  0  0  0  0  0  0  0  0  0
  -21.3520   -3.8710   25.9300 F   0  0  0  0  0  0  0  0  0  0  0  0
  -23.1270  -13.6390   21.1740 C   0  0  0  0  0  0  0  0  0  0  0  0
  -22.3890  -12.9500   22.0380 N   0  0  0  0  0  0  0  0  0  0  0  0
  -22.7140  -14.6830   20.6720 O   0  0  0  0  0  0  0  0  0  0  0  0
  -22.7380  -12.1030   22.4640 H   0  0  0  0  0  0  0  0  0  0  0  0
  -21.4610  -13.2730   22.2750 H   0  0  0  0  0  0  0  0  0  0  0  0
  -25.7880  -15.2440   20.3330 N   0  0  0  0  0  0  0  0  0  0  0  0
  -24.9740  -15.8490   20.3460 H   0  0  0  0  0  0  0  0  0  0  0  0
  -26.4970  -15.5500   19.6830 H   0  0  0  0  0  0  0  0  0  0  0  0
  -29.5060  -21.6180   20.5520 C   0  0  0  0  0  2  0  0  0  0  0  0
  -29.4130  -22.8400   19.5610 C   0  0  0  0  0  2  0  0  0  0  0  0
  -29.0190  -24.2280   20.1850 C   0  0  0  0  0  3  0  0  0  0  0  0
  -29.0320  -25.4390   19.1960 C   0  0  0  0  0  3  0  0  0  0  0  0
  -28.7970  -26.7360   19.8050 O   0  0  0  0  0  0  0  0  0  0  0  0
  -24.5760  -31.5060   23.0250 C   0  0  0  0  0  0  0  0  0  0  0  0
  -27.5610  -27.3730   19.7800 C   0  0  0  0  0  0  0  0  0  0  0  0
  -23.4970  -30.1280   21.2800 C   0  0  0  0  0  3  0  0  0  0  0  0
  -25.0730  -28.7590   19.8100 C   0  0  0  0  0  0  0  0  0  0  0  0
  -26.0020  -30.6400   21.1650 C   0  0  0  0  0  2  0  0  0  0  0  0
  -26.1850  -29.3110   20.4530 C   0  0  0  0  0  0  0  0  0  0  0  0
  -27.4250  -28.6250   20.4340 C   0  0  0  0  0  3  0  0  0  0  0  0
  -26.4170  -26.8350   19.1420 C   0  0  0  0  0  3  0  0  0  0  0  0
  -25.1850  -27.5200   19.1530 C   0  0  0  0  0  3  0  0  0  0  0  0
  -23.7810  -29.5440   19.8700 C   0  0  0  0  0  2  0  0  0  0  0  0
  -24.7100  -30.7720   21.8830 N   0  0  0  0  0  0  0  0  0  0  0  0
  -23.4680  -31.6830   23.5520 O   0  0  0  0  0  0  0  0  0  0  0  0
  -22.8900  -29.0150   22.1620 C   0  0  0  0  0  0  0  0  0  0  0  0
  -21.5760  -28.7830   22.0090 N   0  0  0  0  0  0  0  0  0  0  0  0
  -23.5970  -28.3660   22.9390 O   0  0  0  0  0  0  0  0  0  0  0  0
  -21.0640  -29.3750   21.3710 H   0  0  0  0  0  0  0  0  0  0  0  0
  -18.2600  -27.3960   22.3780 C   0  0  0  0  0  0  0  0  0  0  0  0
  -20.7980  -27.7470   22.6910 C   0  0  0  0  0  3  0  0  0  0  0  0
  -20.9750  -26.3680   22.0050 C   0  0  0  0  0  2  0  0  0  0  0  0
  -19.8860  -26.0440   20.9760 C   0  0  0  0  0  2  0  0  0  0  0  0
  -18.4980  -26.1020   21.6170 C   0  0  0  0  0  2  0  0  0  0  0  0
  -19.3400  -28.1750   22.8690 C   0  0  0  0  0  0  0  0  0  0  0  0
  -19.0590  -29.3830   23.5440 C   0  0  0  0  0  3  0  0  0  0  0  0
  -17.7330  -29.8160   23.7280 C   0  0  0  0  0  3  0  0  0  0  0  0
  -16.6660  -29.0290   23.2610 C   0  0  0  0  0  3  0  0  0  0  0  0
  -16.9320  -27.8210   22.5930 C   0  0  0  0  0  3  0  0  0  0  0  0
  -25.8050  -32.1780   23.7140 C   0  0  0  0  0  3  0  0  0  0  0  0
  -25.4150  -33.5470   24.0780 N   0  0  0  0  0  0  0  0  0  0  0  0
  -25.7330  -34.6420   23.3720 C   0  0  0  0  0  0  0  0  0  0  0  0
  -26.4520  -34.6070   22.3700 O   0  0  0  0  0  0  0  0  0  0  0  0
  -24.7800  -33.6460   24.8540 H   0  0  0  0  0  0  0  0  0  0  0  0
  -23.9380  -36.3630   22.9970 C   0  0  0  0  0  1  0  0  0  0  0  0
  -25.1580  -35.9880   23.8540 C   0  0  0  0  0  3  0  0  0  0  0  0
  -27.2020  -36.9430   24.8210 C   0  0  0  0  0  1  0  0  0  0  0  0
  -26.1420  -37.0910   23.8270 N   0  0  0  0  0  0  0  0  0  0  0  0
  -25.6850  -37.9850   23.9790 H   0  0  0  0  0  0  0  0  0  0  0  0
  -26.3150  -31.3890   24.9810 C   0  0  1  0  0  0  0  0  0  0  0  0
  -25.2000  -31.0720   26.0040 C   0  0  0  0  0  1  0  0  0  0  0  0
  -26.9680  -30.0530   24.5620 C   0  0  0  0  0  1  0  0  0  0  0  0
  -27.4100  -32.2080   25.7040 C   0  0  0  0  0  1  0  0  0  0  0  0
  1  2  2  0
  2  8  1  0
  3  4  1  0
  3  5  1  0
  5  2  1  0
  5 50  1  0
  6  3  1  0
  6  1  1  0
  7  6  1  0
  8 10  1  1
  9  8  1  0
 11 20  1  0
 11  8  1  0
 12 20  1  0
 13 18  1  0
 14 15  1  0
 14 13  1  0
 16 15  1  0
 16 25  1  0
 16 17  1  0
 18 12  1  0
 18 17  1  0
 19 12  2  0
 20 21  1  0
 22 23  2  0
 23 42  1  0
 24 23  1  0
 24 27  1  0
 25 26  1  0
 25 22  1  0
 26 24  2  0
 27 28  1  0
 28 29  2  0
 30 33  1  0
 30 29  1  0
 31 30  2  0
 32 31  1  0
 32 27  2  0
 33 34  1  0
 34 35  1  0
 35 36  2  0
 37 36  1  0
 37 41  1  0
 38 37  2  0
 39 34  2  0
 39 38  1  0
 40 39  1  0
 42 43  1  0
 43 46  1  0
 43 45  1  0
 44 42  2  0
 47 48  1  0
 47 22  1  0
 49 47  1  0
 51 52  1  0
 51 50  1  0
 53 54  1  0
 53 52  2  0
 55 66  2  0
 56 54  1  0
 56 61  1  0
 57 65  1  0
 57 67  1  0
 58 64  1  0
 58 60  1  0
 59 65  1  0
 60 59  1  0
 61 60  2  0
 62 63  1  0
 62 56  2  0
 63 58  2  0
 64 57  1  0
 65 55  1  0
 67 69  2  0
 68 67  1  0
 70 68  1  0
 71 80  2  0
 71 76  1  0
 72 68  1  0
 72 76  1  0
 73 72  1  0
 74 75  1  0
 74 73  1  0
 75 71  1  0
 76 77  2  0
 77 78  1  0
 79 78  2  0
 80 79  1  0
 81 55  1  0
 81 82  1  0
 81 91  1  0
 82 85  1  0
 83 87  1  0
 83 82  1  0
 84 83  2  0
 87 86  1  0
 89 87  1  0
 89 90  1  0
 89 88  1  0
 91 94  1  1
 91 92  1  0
 93 91  1  0
M  ISO  4  12 100  20 100  53 101  54 101
M  END
>  <TORSDO>  (52) 
F 22

>  <SCORE>  (52) 
-12.034

>  <name>  (52) 
53

>  <ligand_id>  (52) 
53

>  <original_smiles>  (52) 
[H]c1c([H])c([H])c2c(c1[H])C([H])([H])C([H])([H])C([H])([H])C2([H])N([H])C(=O)C1([H])N(C(=O)C([H])(N([H])C(=O)C([H])(N([H])C([H])([H])[H])C([H])([H])[H])C(C([H])([H])[H])(C([H])([H])[H])C([H])([H])[H])C([H])([H])c2c([H])c(OC([H])([H])C([H])([H])C([H])([H])C([H])([H])n3c(C(F)(F)C([H])([H])N([H])C(=O)N4C([H])([H])C([H])([H])C([H])([H])C([H])(n5nc(-c6c([H])c([H])c(Oc7c([H])c([H])c(F)c([H])c7F)c([H])c6[H])c(C(=O)N([H])[H])c5N([H])[H])C4([H])[H])c([H])[n+]([H])c3C([H])([H])[H])c([H])c([H])c2C1([H])[H]

>  <smiles>  (52) 
[H]c1c([H])c([H])c2c(c1[H])C([H])([H])C([H])([H])C([H])([H])C2([H])N([H])C(=O)C1([H])N(C(=O)C([H])(N([H])C(=O)C([H])(N([H])C([H])([H])[H])C([H])([H])[H])C(C([H])([H])[H])(C([H])([H])[H])C([H])([H])[H])C([H])([H])c2c([H])c(OC([H])([H])C([H])([H])C([H])([H])C([H])([H])n3c(C(F)(F)C([H])([H])N([H])C(=O)N4C([H])([H])C([H])([H])C([H])([H])C([H])(n5nc(-c6c([H])c([H])c(Oc7c([H])c([H])c(F)c([H])c7F)c([H])c6[H])c(C(=O)N([H])[H])c5N([H])[H])C4([H])[H])c([H])[n+]([H])c3C([H])([H])[H])c([H])c([H])c2C1([H])[H]

$$$$
54:0:0
     RDKit          3D

 96104  0  0  1  0  0  0  0  0999 V2000
  -25.7380  -23.7930   20.5670 C   0  0  0  0  0  3  0  0  0  0  0  0
  -25.3130  -23.0270   21.6220 C   0  0  0  0  0  3  0  0  0  0  0  0
  -27.3670  -22.3630   21.0800 C   0  0  0  0  0  3  0  0  0  0  0  0
  -27.0090  -23.3690   20.2530 N   0  0  0  0  0  0  0  0  0  0  0  0
  -26.3330  -22.1650   21.9060 N   0  0  0  0  0  0  0  0  0  0  0  0
  -26.3120  -21.4620   22.6350 H   0  0  0  0  0  0  0  0  0  0  0  0
  -28.6370  -21.5620   21.1230 C   0  0  0  0  0  2  0  0  0  0  0  0
  -27.5080  -19.8650   19.5530 C   0  0  0  0  0  1  0  0  0  0  0  0
  -28.8260  -20.5590   19.9540 C   0  0  0  0  0  3  0  0  0  0  0  0
  -29.9900  -19.5490   20.1630 C   0  0  0  0  0  3  0  0  0  0  0  0
  -31.7410  -21.4470   19.7270 C   0  0  0  0  0  1  0  0  0  0  0  0
  -31.3170  -20.2360   20.5770 C   0  0  0  0  0  2  0  0  0  0  0  0
  -29.6210  -18.3630   21.1130 C   0  0  0  0  0  2  0  0  0  0  0  0
  -30.6700  -17.2310   21.2960 C   0  0  0  0  0  2  0  0  0  0  0  0
  -31.3310  -15.0300   20.5390 C   0  0  0  0  0  0  0  0  0  0  0  0
  -31.0960  -12.7660   19.6440 C   0  0  0  0  0  2  0  0  0  0  0  0
  -30.2160  -12.8120   18.3780 C   0  0  0  0  0  2  0  0  0  0  0  0
  -28.7160  -12.7410   18.7340 C   0  0  0  0  0  2  0  0  0  0  0  0
  -28.3050  -13.6900   19.8940 C   0  0  0  0  0  3  0  0  0  0  0  0
  -29.3080  -13.6310   21.0670 C   0  0  0  0  0  2  0  0  0  0  0  0
  -30.6530  -13.8570   20.5220 N   0  0  0  0  0  0  0  0  0  0  0  0
  -32.5430  -15.1170   20.3330 O   0  0  0  0  0  0  0  0  0  0  0  0
  -30.5510  -16.5710   18.9260 C   0  0  0  0  0  1  0  0  0  0  0  0
  -30.5660  -16.1240   20.3250 N   0  0  0  0  0  0  0  0  0  0  0  0
  -25.9020  -14.3280   20.5680 C   0  0  0  0  0  0  0  0  0  0  0  0
  -24.8010  -13.5700   20.8720 C   0  0  0  0  0  0  0  0  0  0  0  0
  -25.2320  -12.2100   20.8050 C   0  0  0  0  0  0  0  0  0  0  0  0
  -26.9330  -13.4300   20.3290 N   0  0  0  0  0  0  0  0  0  0  0  0
  -26.5300  -12.1490   20.5350 N   0  0  0  0  0  0  0  0  0  0  0  0
  -24.4680  -10.9620   20.9230 C   0  0  0  0  0  0  0  0  0  0  0  0
  -24.8230   -9.9690   21.8630 C   0  0  0  0  0  3  0  0  0  0  0  0
  -24.0670   -8.7810   21.9690 C   0  0  0  0  0  3  0  0  0  0  0  0
  -22.9400   -8.5800   21.1380 C   0  0  0  0  0  0  0  0  0  0  0  0
  -22.6020   -9.5630   20.1890 C   0  0  0  0  0  3  0  0  0  0  0  0
  -23.3600  -10.7410   20.0790 C   0  0  0  0  0  3  0  0  0  0  0  0
  -22.1590   -7.4490   21.1590 O   0  0  0  0  0  0  0  0  0  0  0  0
  -21.9610   -6.7320   22.3110 C   0  0  0  0  0  0  0  0  0  0  0  0
  -21.4230   -7.3210   23.4770 C   0  0  0  0  0  3  0  0  0  0  0  0
  -21.1720   -6.5280   24.6160 C   0  0  0  0  0  3  0  0  0  0  0  0
  -21.4530   -5.1480   24.5870 C   0  0  0  0  0  0  0  0  0  0  0  0
  -21.9900   -4.5610   23.4290 C   0  0  0  0  0  3  0  0  0  0  0  0
  -22.2400   -5.3500   22.2940 C   0  0  0  0  0  0  0  0  0  0  0  0
  -22.7350   -4.7750   21.1710 F   0  0  0  0  0  0  0  0  0  0  0  0
  -21.2070   -4.3840   25.6780 F   0  0  0  0  0  0  0  0  0  0  0  0
  -23.4080  -14.0740   21.1180 C   0  0  0  0  0  0  0  0  0  0  0  0
  -22.6410  -13.3710   21.9460 N   0  0  0  0  0  0  0  0  0  0  0  0
  -23.0080  -15.1210   20.6150 O   0  0  0  0  0  0  0  0  0  0  0  0
  -22.9730  -12.5210   22.3750 H   0  0  0  0  0  0  0  0  0  0  0  0
  -21.7040  -13.6880   22.1580 H   0  0  0  0  0  0  0  0  0  0  0  0
  -26.1160  -15.6960   20.4490 N   0  0  0  0  0  0  0  0  0  0  0  0
  -25.3800  -16.3820   20.5660 H   0  0  0  0  0  0  0  0  0  0  0  0
  -27.0120  -16.1010   20.2090 H   0  0  0  0  0  0  0  0  0  0  0  0
  -27.8420  -23.8890   19.1490 C   0  0  0  0  0  2  0  0  0  0  0  0
  -29.0460  -24.7560   19.5870 C   0  0  0  0  0  2  0  0  0  0  0  0
  -28.7070  -26.0710   20.3070 C   0  0  0  0  0  2  0  0  0  0  0  0
  -28.5280  -27.1300   19.3700 O   0  0  0  0  0  0  0  0  0  0  0  0
  -24.6960  -31.7570   23.1560 C   0  0  0  0  0  0  0  0  0  0  0  0
  -27.3420  -27.7970   19.5220 C   0  0  0  0  0  0  0  0  0  0  0  0
  -23.4530  -30.4420   21.4680 C   0  0  0  0  0  3  0  0  0  0  0  0
  -24.8840  -29.1300   19.8190 C   0  0  0  0  0  0  0  0  0  0  0  0
  -25.9340  -30.9700   21.1500 C   0  0  0  0  0  2  0  0  0  0  0  0
  -26.0480  -29.6740   20.3820 C   0  0  0  0  0  0  0  0  0  0  0  0
  -27.2850  -29.0110   20.2320 C   0  0  0  0  0  3  0  0  0  0  0  0
  -26.1720  -27.2650   18.9470 C   0  0  0  0  0  3  0  0  0  0  0  0
  -24.9390  -27.9230   19.1010 C   0  0  0  0  0  3  0  0  0  0  0  0
  -23.6040  -29.9050   20.0220 C   0  0  0  0  0  2  0  0  0  0  0  0
  -24.7160  -31.0680   21.9830 N   0  0  0  0  0  0  0  0  0  0  0  0
  -23.6400  -31.9140   23.7890 O   0  0  0  0  0  0  0  0  0  0  0  0
  -22.9260  -29.3000   22.3670 C   0  0  0  0  0  0  0  0  0  0  0  0
  -21.6200  -29.0040   22.2520 N   0  0  0  0  0  0  0  0  0  0  0  0
  -23.6850  -28.6860   23.1200 O   0  0  0  0  0  0  0  0  0  0  0  0
  -21.0620  -29.5620   21.6210 H   0  0  0  0  0  0  0  0  0  0  0  0
  -18.4020  -27.4130   22.6520 C   0  0  0  0  0  0  0  0  0  0  0  0
  -20.9110  -27.9450   22.9690 C   0  0  0  0  0  3  0  0  0  0  0  0
  -21.1800  -26.5630   22.3290 C   0  0  0  0  0  2  0  0  0  0  0  0
  -20.1310  -26.1650   21.2880 C   0  0  0  0  0  2  0  0  0  0  0  0
  -18.7370  -26.1230   21.9200 C   0  0  0  0  0  2  0  0  0  0  0  0
  -19.4230  -28.2750   23.1290 C   0  0  0  0  0  0  0  0  0  0  0  0
  -19.0570  -29.4790   23.7700 C   0  0  0  0  0  3  0  0  0  0  0  0
  -17.7020  -29.8230   23.9370 C   0  0  0  0  0  3  0  0  0  0  0  0
  -16.6960  -28.9560   23.4780 C   0  0  0  0  0  3  0  0  0  0  0  0
  -17.0450  -27.7520   22.8400 C   0  0  0  0  0  3  0  0  0  0  0  0
  -25.9880  -32.4000   23.7510 C   0  0  0  0  0  3  0  0  0  0  0  0
  -26.5730  -31.6040   24.9820 C   0  0  1  0  0  0  0  0  0  0  0  0
  -25.5310  -31.3080   26.0840 C   0  0  0  0  0  1  0  0  0  0  0  0
  -27.1670  -30.2510   24.5240 C   0  0  0  0  0  1  0  0  0  0  0  0
  -27.7330  -32.4030   25.6200 C   0  0  0  0  0  1  0  0  0  0  0  0
  -25.6580  -33.7800   24.1320 N   0  0  0  0  0  0  0  0  0  0  0  0
  -25.9490  -34.8620   23.3960 C   0  0  0  0  0  0  0  0  0  0  0  0
  -26.5930  -34.8040   22.3450 O   0  0  0  0  0  0  0  0  0  0  0  0
  -25.0850  -33.8960   24.9550 H   0  0  0  0  0  0  0  0  0  0  0  0
  -24.1700  -36.6200   23.1390 C   0  0  0  0  0  1  0  0  0  0  0  0
  -25.4410  -36.2240   23.9070 C   0  0  0  0  0  3  0  0  0  0  0  0
  -27.5800  -37.1310   24.7020 C   0  0  0  0  0  1  0  0  0  0  0  0
  -26.4450  -37.3060   23.7990 N   0  0  0  0  0  0  0  0  0  0  0  0
  -26.0220  -38.2100   23.9940 H   0  0  0  0  0  0  0  0  0  0  0  0
  1  2  2  0
  2  5  1  0
  3  7  1  0
  3  5  1  0
  4  1  1  0
  4  3  1  0
  5  6  1  0
  9  8  1  0
  9 10  1  0
  9  7  1  0
 10 12  1  0
 10 13  1  0
 11 12  1  0
 13 14  1  0
 16 21  1  0
 17 18  1  0
 17 16  1  0
 19 18  1  0
 19 28  1  0
 19 20  1  0
 21 15  1  0
 21 20  1  0
 22 15  2  0
 23 24  1  0
 24 15  1  0
 24 14  1  0
 25 26  2  0
 26 45  1  0
 27 26  1  0
 27 30  1  0
 28 29  1  0
 28 25  1  0
 29 27  2  0
 30 31  1  0
 31 32  2  0
 33 36  1  0
 33 32  1  0
 34 33  2  0
 35 34  1  0
 35 30  2  0
 36 37  1  0
 37 38  1  0
 38 39  2  0
 40 39  1  0
 40 44  1  0
 41 40  2  0
 42 37  2  0
 42 41  1  0
 43 42  1  0
 45 46  1  0
 46 49  1  0
 46 48  1  0
 47 45  2  0
 50 51  1  0
 50 25  1  0
 52 50  1  0
 53 54  1  0
 53  4  1  0
 54 55  1  0
 56 58  1  0
 56 55  1  0
 57 68  2  0
 58 63  1  0
 59 67  1  0
 59 69  1  0
 60 66  1  0
 60 62  1  0
 61 67  1  0
 62 61  1  0
 63 62  2  0
 64 65  1  0
 64 58  2  0
 65 60  2  0
 66 59  1  0
 67 57  1  0
 69 71  2  0
 70 69  1  0
 72 70  1  0
 73 82  2  0
 73 78  1  0
 74 70  1  0
 74 78  1  0
 75 74  1  0
 76 77  1  0
 76 75  1  0
 77 73  1  0
 78 79  2  0
 79 80  1  0
 81 80  2  0
 82 81  1  0
 83 57  1  0
 83 88  1  0
 83 84  1  0
 84 87  1  1
 84 85  1  0
 86 84  1  0
 88 91  1  0
 89 93  1  0
 89 88  1  0
 90 89  2  0
 93 92  1  0
 95 93  1  0
 95 96  1  0
 95 94  1  0
M  ISO  4  15 100  24 100  55 101  56 101
M  END
>  <TORSDO>  (53) 
F 25

>  <SCORE>  (53) 
-9.830

>  <name>  (53) 
54

>  <ligand_id>  (53) 
54

>  <original_smiles>  (53) 
[H]c1c([H])c([H])c2c(c1[H])C([H])([H])C([H])([H])C([H])([H])C2([H])N([H])C(=O)C1([H])N(C(=O)C([H])(N([H])C(=O)C([H])(N([H])C([H])([H])[H])C([H])([H])[H])C(C([H])([H])[H])(C([H])([H])[H])C([H])([H])[H])C([H])([H])c2c([H])c(OC([H])([H])C([H])([H])C([H])([H])n3c([H])c([H])[n+]([H])c3C([H])([H])C([H])(C([H])([H])[H])C([H])(C([H])([H])C([H])([H])[H])C([H])([H])C([H])([H])N(C(=O)N3C([H])([H])C([H])([H])C([H])([H])C([H])(n4nc(-c5c([H])c([H])c(Oc6c([H])c([H])c(F)c([H])c6F)c([H])c5[H])c(C(=O)N([H])[H])c4N([H])[H])C3([H])[H])C([H])([H])[H])c([H])c([H])c2C1([H])[H]

>  <smiles>  (53) 
[H]c1c([H])c([H])c2c(c1[H])C([H])([H])C([H])([H])C([H])([H])C2([H])N([H])C(=O)C1([H])N(C(=O)C([H])(N([H])C(=O)C([H])(N([H])C([H])([H])[H])C([H])([H])[H])C(C([H])([H])[H])(C([H])([H])[H])C([H])([H])[H])C([H])([H])c2c([H])c(OC([H])([H])C([H])([H])C([H])([H])n3c([H])c([H])[n+]([H])c3C([H])([H])C([H])(C([H])([H])[H])C([H])(C([H])([H])C([H])([H])[H])C([H])([H])C([H])([H])N(C(=O)N3C([H])([H])C([H])([H])C([H])([H])C([H])(n4nc(-c5c([H])c([H])c(Oc6c([H])c([H])c(F)c([H])c6F)c([H])c5[H])c(C(=O)N([H])[H])c4N([H])[H])C3([H])[H])C([H])([H])[H])c([H])c([H])c2C1([H])[H]

$$$$
55:0:0
     RDKit          3D

 96104  0  0  1  0  0  0  0  0999 V2000
  -30.6970  -20.4600   19.3310 C   0  0  0  0  0  3  0  0  0  0  0  0
  -31.5340  -19.6780   18.5940 C   0  0  0  0  0  0  0  0  0  0  0  0
  -30.8230  -18.4840   20.3560 C   0  0  0  0  0  3  0  0  0  0  0  0
  -32.2460  -19.9770   17.3140 C   0  0  0  0  0  1  0  0  0  0  0  0
  -30.3260  -19.7500   20.4450 N   0  0  0  0  0  0  0  0  0  0  0  0
  -31.6320  -18.4930   19.2790 N   0  0  0  0  0  0  0  0  0  0  0  0
  -32.2300  -17.7220   19.0010 H   0  0  0  0  0  0  0  0  0  0  0  0
  -30.5730  -17.2470   21.2220 C   0  0  0  0  0  2  0  0  0  0  0  0
  -29.8330  -16.0090   20.5400 C   0  0  0  0  0  3  0  0  0  0  0  0
  -30.6480  -14.6630   20.4090 C   0  0  0  0  0  0  0  0  0  0  0  0
  -30.3990  -12.4610   19.3200 C   0  0  0  0  0  2  0  0  0  0  0  0
  -29.4440  -12.6300   18.1110 C   0  0  0  0  0  2  0  0  0  0  0  0
  -27.9660  -12.4770   18.5460 C   0  0  0  0  0  2  0  0  0  0  0  0
  -27.6190  -13.3010   19.8170 C   0  0  0  0  0  3  0  0  0  0  0  0
  -28.6940  -13.1320   20.9180 C   0  0  0  0  0  2  0  0  0  0  0  0
  -30.0070  -13.4560   20.3410 N   0  0  0  0  0  0  0  0  0  0  0  0
  -31.8350  -14.7640   20.0860 O   0  0  0  0  0  0  0  0  0  0  0  0
  -25.2250  -13.9120   20.5310 C   0  0  0  0  0  0  0  0  0  0  0  0
  -24.1480  -13.1290   20.8780 C   0  0  0  0  0  0  0  0  0  0  0  0
  -24.6190  -11.7850   20.8480 C   0  0  0  0  0  0  0  0  0  0  0  0
  -26.2700  -13.0290   20.3040 N   0  0  0  0  0  0  0  0  0  0  0  0
  -25.9120  -11.7480   20.5510 N   0  0  0  0  0  0  0  0  0  0  0  0
  -23.9000  -10.5150   21.0310 C   0  0  0  0  0  0  0  0  0  0  0  0
  -24.3400   -9.5550   21.9700 C   0  0  0  0  0  3  0  0  0  0  0  0
  -23.6250   -8.3530   22.1500 C   0  0  0  0  0  3  0  0  0  0  0  0
  -22.4550   -8.1060   21.3930 C   0  0  0  0  0  0  0  0  0  0  0  0
  -22.0360   -9.0510   20.4380 C   0  0  0  0  0  3  0  0  0  0  0  0
  -22.7510  -10.2450   20.2590 C   0  0  0  0  0  3  0  0  0  0  0  0
  -21.7070   -6.9580   21.4870 O   0  0  0  0  0  0  0  0  0  0  0  0
  -21.6530   -6.2190   22.6400 C   0  0  0  0  0  0  0  0  0  0  0  0
  -21.2020   -6.7710   23.8580 C   0  0  0  0  0  3  0  0  0  0  0  0
  -21.0960   -5.9550   25.0010 C   0  0  0  0  0  3  0  0  0  0  0  0
  -21.4290   -4.5880   24.9270 C   0  0  0  0  0  0  0  0  0  0  0  0
  -21.8710   -4.0370   23.7130 C   0  0  0  0  0  3  0  0  0  0  0  0
  -21.9790   -4.8500   22.5710 C   0  0  0  0  0  0  0  0  0  0  0  0
  -22.3870   -4.3100   21.3970 F   0  0  0  0  0  0  0  0  0  0  0  0
  -21.3230   -3.8040   26.0250 F   0  0  0  0  0  0  0  0  0  0  0  0
  -22.7470  -13.5920   21.1590 C   0  0  0  0  0  0  0  0  0  0  0  0
  -22.0230  -12.8760   22.0140 N   0  0  0  0  0  0  0  0  0  0  0  0
  -22.2990  -14.6200   20.6460 O   0  0  0  0  0  0  0  0  0  0  0  0
  -22.3930  -12.0380   22.4440 H   0  0  0  0  0  0  0  0  0  0  0  0
  -21.0790  -13.1630   22.2350 H   0  0  0  0  0  0  0  0  0  0  0  0
  -25.4110  -15.2810   20.3970 N   0  0  0  0  0  0  0  0  0  0  0  0
  -24.5760  -15.8310   20.5680 H   0  0  0  0  0  0  0  0  0  0  0  0
  -26.1510  -15.6070   21.0080 H   0  0  0  0  0  0  0  0  0  0  0  0
  -29.2430  -16.3390   19.1290 C   0  0  0  0  0  2  0  0  0  0  0  0
  -28.0290  -17.1930   19.1460 N   0  0  0  0  0  4  0  0  0  0  0  0
  -27.2990  -16.8010   19.7130 H   0  0  0  0  0  0  0  0  0  0  0  0
  -27.6690  -17.2820   18.2100 H   0  0  0  0  0  0  0  0  0  0  0  0
  -28.1980  -18.1240   19.4760 H   0  0  0  0  0  0  0  0  0  0  0  0
  -29.4730  -20.3180   21.5230 C   0  0  0  0  0  2  0  0  0  0  0  0
  -29.7200  -21.8420   21.7910 C   0  0  0  0  0  3  0  0  0  0  0  0
  -28.6990  -22.8090   21.1200 C   0  0  0  0  0  3  0  0  0  0  0  0
  -29.1640  -24.2930   20.9730 C   0  0  0  0  0  2  0  0  0  0  0  0
  -28.1210  -25.1890   20.2480 C   0  0  0  0  0  2  0  0  0  0  0  0
  -28.3620  -26.6240   20.2790 O   0  0  0  0  0  0  0  0  0  0  0  0
  -24.5850  -31.9060   23.2350 C   0  0  0  0  0  0  0  0  0  0  0  0
  -27.2300  -27.4260   20.1920 C   0  0  0  0  0  0  0  0  0  0  0  0
  -23.3930  -30.5140   21.5680 C   0  0  0  0  0  3  0  0  0  0  0  0
  -24.8630  -28.9860   20.1500 C   0  0  0  0  0  0  0  0  0  0  0  0
  -25.9250  -30.8570   21.4100 C   0  0  0  0  0  2  0  0  0  0  0  0
  -26.0140  -29.4840   20.7740 C   0  0  0  0  0  0  0  0  0  0  0  0
  -27.2010  -28.7080   20.7990 C   0  0  0  0  0  3  0  0  0  0  0  0
  -26.0610  -26.9680   19.5350 C   0  0  0  0  0  3  0  0  0  0  0  0
  -24.8830  -27.7300   19.5300 C   0  0  0  0  0  3  0  0  0  0  0  0
  -23.6190  -29.8420   20.1880 C   0  0  0  0  0  2  0  0  0  0  0  0
  -24.6510  -31.1080   22.1300 N   0  0  0  0  0  0  0  0  0  0  0  0
  -23.4980  -32.1760   23.7650 O   0  0  0  0  0  0  0  0  0  0  0  0
  -22.7340  -29.4870   22.5190 C   0  0  0  0  0  0  0  0  0  0  0  0
  -21.4130  -29.2980   22.3730 N   0  0  0  0  0  0  0  0  0  0  0  0
  -23.4090  -28.8650   23.3440 O   0  0  0  0  0  0  0  0  0  0  0  0
  -20.9290  -29.8520   21.6790 H   0  0  0  0  0  0  0  0  0  0  0  0
  -18.0440  -28.0720   22.8200 C   0  0  0  0  0  0  0  0  0  0  0  0
  -20.5950  -28.3530   23.1310 C   0  0  0  0  0  3  0  0  0  0  0  0
  -20.7200  -26.9230   22.5570 C   0  0  0  0  0  2  0  0  0  0  0  0
  -19.6380  -26.5880   21.5250 C   0  0  0  0  0  2  0  0  0  0  0  0
  -18.2450  -26.7240   22.1460 C   0  0  0  0  0  2  0  0  0  0  0  0
  -19.1500  -28.8420   23.2690 C   0  0  0  0  0  0  0  0  0  0  0  0
  -18.9130  -30.1040   23.8580 C   0  0  0  0  0  3  0  0  0  0  0  0
  -17.6020  -30.5940   24.0010 C   0  0  0  0  0  3  0  0  0  0  0  0
  -16.5120  -29.8220   23.5680 C   0  0  0  0  0  3  0  0  0  0  0  0
  -16.7330  -28.5630   22.9830 C   0  0  0  0  0  3  0  0  0  0  0  0
  -25.8650  -32.5370   23.8700 C   0  0  0  0  0  3  0  0  0  0  0  0
  -26.3610  -31.7730   25.1600 C   0  0  1  0  0  0  0  0  0  0  0  0
  -25.2460  -31.5530   26.2090 C   0  0  0  0  0  1  0  0  0  0  0  0
  -26.9470  -30.3910   24.7880 C   0  0  0  0  0  1  0  0  0  0  0  0
  -27.5020  -32.5690   25.8370 C   0  0  0  0  0  1  0  0  0  0  0  0
  -25.5580  -33.9380   24.1830 N   0  0  0  0  0  0  0  0  0  0  0  0
  -25.8990  -34.9820   23.4160 C   0  0  0  0  0  0  0  0  0  0  0  0
  -26.5780  -34.8670   22.3910 O   0  0  0  0  0  0  0  0  0  0  0  0
  -24.9630  -34.1020   24.9820 H   0  0  0  0  0  0  0  0  0  0  0  0
  -24.1820  -36.7810   23.0200 C   0  0  0  0  0  1  0  0  0  0  0  0
  -25.4090  -36.3750   23.8550 C   0  0  0  0  0  3  0  0  0  0  0  0
  -27.5310  -37.2620   24.7180 C   0  0  0  0  0  1  0  0  0  0  0  0
  -26.4470  -37.4240   23.7520 N   0  0  0  0  0  0  0  0  0  0  0  0
  -26.0390  -38.3460   23.8830 H   0  0  0  0  0  0  0  0  0  0  0  0
  1  5  1  0
  2  6  1  0
  2  1  2  0
  3  5  1  0
  3  8  1  0
  4  2  1  0
  5 51  1  0
  6  3  1  0
  7  6  1  0
  9 46  1  0
  9  8  1  0
 10  9  1  0
 11 16  1  0
 12 13  1  0
 12 11  1  0
 14 13  1  0
 14 21  1  0
 14 15  1  0
 16 10  1  0
 16 15  1  0
 17 10  2  0
 18 19  2  0
 19 38  1  0
 20 19  1  0
 20 23  1  0
 21 18  1  0
 21 22  1  0
 22 20  2  0
 23 24  1  0
 24 25  2  0
 26 29  1  0
 26 25  1  0
 27 26  2  0
 28 27  1  0
 28 23  2  0
 29 30  1  0
 30 31  1  0
 31 32  2  0
 33 32  1  0
 33 37  1  0
 34 33  2  0
 35 30  2  0
 35 34  1  0
 36 35  1  0
 38 39  1  0
 39 42  1  0
 39 41  1  0
 40 38  2  0
 43 18  1  0
 43 44  1  0
 43 45  1  0
 46 47  1  0
 47 50  1  0
 47 48  1  0
 49 47  1  0
 51 52  1  0
 53 52  2  0
 54 53  1  0
 55 56  1  0
 55 54  1  0
 57 68  2  0
 58 56  1  0
 58 63  1  0
 59 67  1  0
 59 69  1  0
 60 66  1  0
 60 62  1  0
 61 67  1  0
 62 63  2  0
 62 61  1  0
 64 58  2  0
 65 64  1  0
 65 60  2  0
 66 59  1  0
 67 57  1  0
 69 71  2  0
 70 69  1  0
 72 70  1  0
 73 82  2  0
 73 78  1  0
 74 70  1  0
 74 78  1  0
 75 74  1  0
 76 77  1  0
 76 75  1  0
 77 73  1  0
 78 79  2  0
 79 80  1  0
 81 80  2  0
 82 81  1  0
 83 57  1  0
 83 88  1  0
 83 84  1  0
 84 87  1  1
 84 85  1  0
 86 84  1  0
 88 91  1  0
 89 93  1  0
 89 88  1  0
 90 89  2  0
 93 92  1  0
 95 93  1  0
 95 96  1  0
 95 94  1  0
M  ISO  4   9 100  10 100  55 101  56 101
M  END
>  <TORSDO>  (54) 
F 25

>  <SCORE>  (54) 
-12.490

>  <name>  (54) 
55

>  <ligand_id>  (54) 
55

>  <original_smiles>  (54) 
[H]c1c([H])c([H])c2c(c1[H])C([H])([H])C([H])([H])C([H])([H])C2([H])N([H])C(=O)C1([H])N(C(=O)C([H])(N([H])C(=O)C([H])(N([H])C([H])([H])[H])C([H])([H])[H])C(C([H])([H])[H])(C([H])([H])[H])C([H])([H])[H])C([H])([H])c2c([H])c(OC([H])([H])C([H])([H])C([H])([H])C([H])([H])C([H])([H])n3c([H])c(C([H])([H])[H])[n+]([H])c3C([H])([H])C([H])(C(=O)N3C([H])([H])C([H])([H])C([H])([H])C([H])(n4nc(-c5c([H])c([H])c(Oc6c([H])c([H])c(F)c([H])c6F)c([H])c5[H])c(C(=O)N([H])[H])c4N([H])[H])C3([H])[H])C([H])([H])[N+]([H])([H])[H])c([H])c([H])c2C1([H])[H]

>  <smiles>  (54) 
[H]c1c([H])c([H])c2c(c1[H])C([H])([H])C([H])([H])C([H])([H])C2([H])N([H])C(=O)C1([H])N(C(=O)C([H])(N([H])C(=O)C([H])(N([H])C([H])([H])[H])C([H])([H])[H])C(C([H])([H])[H])(C([H])([H])[H])C([H])([H])[H])C([H])([H])c2c([H])c(OC([H])([H])C([H])([H])C([H])([H])C([H])([H])C([H])([H])n3c([H])c(C([H])([H])[H])[n+]([H])c3C([H])([H])C([H])(C(=O)N3C([H])([H])C([H])([H])C([H])([H])C([H])(n4nc(-c5c([H])c([H])c(Oc6c([H])c([H])c(F)c([H])c6F)c([H])c5[H])c(C(=O)N([H])[H])c4N([H])[H])C3([H])[H])C([H])([H])[N+]([H])([H])[H])c([H])c([H])c2C1([H])[H]

$$$$
56:0:0
     RDKit          3D

 92100  0  0  1  0  0  0  0  0999 V2000
  -30.2770  -19.4230   19.5070 C   0  0  0  0  0  3  0  0  0  0  0  0
  -30.0130  -20.8170   19.5600 C   0  0  0  0  0  3  0  0  0  0  0  0
  -30.4180  -18.6560   20.6940 C   0  0  0  0  0  0  0  0  0  0  0  0
  -29.8360  -21.4610   20.8020 C   0  0  0  0  0  0  0  0  0  0  0  0
  -30.1610  -19.3730   21.8940 C   0  0  0  0  0  0  0  0  0  0  0  0
  -29.8610  -20.7080   21.9350 N   0  0  0  0  0  0  0  0  0  0  0  0
  -31.7210  -18.9980   23.8620 C   0  0  0  0  0  1  0  0  0  0  0  0
  -30.3350  -18.7280   23.2600 C   0  0  0  0  0  2  0  0  0  0  0  0
  -31.1350  -17.2510   20.6250 C   0  0  0  0  0  2  0  0  0  0  0  0
  -31.0970  -14.7420   20.2910 C   0  0  0  0  0  0  0  0  0  0  0  0
  -30.7800  -12.4830   19.3220 C   0  0  0  0  0  2  0  0  0  0  0  0
  -29.8660  -12.5610   18.0840 C   0  0  0  0  0  2  0  0  0  0  0  0
  -28.3870  -12.4570   18.5040 C   0  0  0  0  0  2  0  0  0  0  0  0
  -28.0260  -13.4020   19.6810 C   0  0  0  0  0  3  0  0  0  0  0  0
  -29.0640  -13.3210   20.8210 C   0  0  0  0  0  2  0  0  0  0  0  0
  -30.3850  -13.5740   20.2350 N   0  0  0  0  0  0  0  0  0  0  0  0
  -32.2770  -14.7710   19.9350 O   0  0  0  0  0  0  0  0  0  0  0  0
  -30.4410  -15.9170   20.5740 N   0  0  0  0  0  0  0  0  0  0  0  0
  -29.4590  -15.8720   20.8010 H   0  0  0  0  0  0  0  0  0  0  0  0
  -25.6560  -14.0840   20.3960 C   0  0  0  0  0  0  0  0  0  0  0  0
  -24.5590  -13.3490   20.7560 C   0  0  0  0  0  0  0  0  0  0  0  0
  -24.9700  -11.9820   20.7230 C   0  0  0  0  0  0  0  0  0  0  0  0
  -26.6670  -13.1660   20.1600 N   0  0  0  0  0  0  0  0  0  0  0  0
  -26.2590  -11.8970   20.4190 N   0  0  0  0  0  0  0  0  0  0  0  0
  -24.1950  -10.7460   20.9030 C   0  0  0  0  0  0  0  0  0  0  0  0
  -24.5690   -9.7650   21.8480 C   0  0  0  0  0  3  0  0  0  0  0  0
  -23.7940   -8.5980   22.0130 C   0  0  0  0  0  3  0  0  0  0  0  0
  -22.6290   -8.4030   21.2330 C   0  0  0  0  0  0  0  0  0  0  0  0
  -22.2730   -9.3710   20.2780 C   0  0  0  0  0  3  0  0  0  0  0  0
  -23.0500  -10.5300   20.1110 C   0  0  0  0  0  3  0  0  0  0  0  0
  -21.8290   -7.2890   21.3110 O   0  0  0  0  0  0  0  0  0  0  0  0
  -21.6960   -6.5760   22.4760 C   0  0  0  0  0  0  0  0  0  0  0  0
  -21.2350   -7.1760   23.6690 C   0  0  0  0  0  3  0  0  0  0  0  0
  -21.0450   -6.3920   24.8250 C   0  0  0  0  0  3  0  0  0  0  0  0
  -21.3090   -5.0100   24.7890 C   0  0  0  0  0  0  0  0  0  0  0  0
  -21.7620   -4.4100   23.6020 C   0  0  0  0  0  3  0  0  0  0  0  0
  -21.9540   -5.1900   22.4490 C   0  0  0  0  0  0  0  0  0  0  0  0
  -22.3720   -4.6020   21.3020 F   0  0  0  0  0  0  0  0  0  0  0  0
  -21.1200   -4.2550   25.8970 F   0  0  0  0  0  0  0  0  0  0  0  0
  -23.1800  -13.8800   21.0220 C   0  0  0  0  0  0  0  0  0  0  0  0
  -22.4250  -13.2220   21.8940 N   0  0  0  0  0  0  0  0  0  0  0  0
  -22.7820  -14.9160   20.4920 O   0  0  0  0  0  0  0  0  0  0  0  0
  -22.7580  -12.3850   22.3490 H   0  0  0  0  0  0  0  0  0  0  0  0
  -21.4990  -13.5650   22.1120 H   0  0  0  0  0  0  0  0  0  0  0  0
  -25.8740  -15.4500   20.2290 N   0  0  0  0  0  0  0  0  0  0  0  0
  -25.1290  -16.1310   20.3370 H   0  0  0  0  0  0  0  0  0  0  0  0
  -26.7320  -15.8590   19.8840 H   0  0  0  0  0  0  0  0  0  0  0  0
  -29.8900  -23.0190   20.9900 C   0  0  0  0  0  2  0  0  0  0  0  0
  -29.2140  -24.1280   18.7400 C   0  0  0  0  0  1  0  0  0  0  0  0
  -28.9280  -24.0460   20.2470 C   0  0  0  0  0  3  0  0  0  0  0  0
  -28.9470  -25.4880   20.9190 C   0  0  0  0  0  2  0  0  0  0  0  0
  -28.8820  -26.7030   20.1030 O   0  0  0  0  0  0  0  0  0  0  0  0
  -24.6300  -31.6340   23.1390 C   0  0  0  0  0  0  0  0  0  0  0  0
  -27.6840  -27.4060   20.1010 C   0  0  0  0  0  0  0  0  0  0  0  0
  -23.5810  -30.1650   21.4500 C   0  0  0  0  0  3  0  0  0  0  0  0
  -25.1890  -28.7610   20.0460 C   0  0  0  0  0  0  0  0  0  0  0  0
  -26.0790  -30.7180   21.3200 C   0  0  0  0  0  2  0  0  0  0  0  0
  -26.2930  -29.3610   20.6670 C   0  0  0  0  0  0  0  0  0  0  0  0
  -27.5480  -28.6970   20.6800 C   0  0  0  0  0  3  0  0  0  0  0  0
  -26.5660  -26.8350   19.4650 C   0  0  0  0  0  3  0  0  0  0  0  0
  -25.3240  -27.5010   19.4360 C   0  0  0  0  0  3  0  0  0  0  0  0
  -23.8790  -29.5220   20.0700 C   0  0  0  0  0  2  0  0  0  0  0  0
  -24.7800  -30.8570   22.0280 N   0  0  0  0  0  0  0  0  0  0  0  0
  -23.5170  -31.8120   23.6540 O   0  0  0  0  0  0  0  0  0  0  0  0
  -22.9880  -29.0840   22.3840 C   0  0  0  0  0  0  0  0  0  0  0  0
  -21.6890  -28.7830   22.2080 N   0  0  0  0  0  0  0  0  0  0  0  0
  -23.6950  -28.5160   23.2200 O   0  0  0  0  0  0  0  0  0  0  0  0
  -21.1730  -29.2980   21.5090 H   0  0  0  0  0  0  0  0  0  0  0  0
  -18.4340  -27.2530   22.5630 C   0  0  0  0  0  0  0  0  0  0  0  0
  -20.9380  -27.7680   22.9470 C   0  0  0  0  0  3  0  0  0  0  0  0
  -21.2090  -26.3540   22.3830 C   0  0  0  0  0  2  0  0  0  0  0  0
  -20.1920  -25.9220   21.3220 C   0  0  0  0  0  2  0  0  0  0  0  0
  -18.7740  -25.9290   21.9010 C   0  0  0  0  0  2  0  0  0  0  0  0
  -19.4490  -28.1230   23.0400 C   0  0  0  0  0  0  0  0  0  0  0  0
  -19.0780  -29.3580   23.6170 C   0  0  0  0  0  3  0  0  0  0  0  0
  -17.7230  -29.7260   23.7200 C   0  0  0  0  0  3  0  0  0  0  0  0
  -16.7220  -28.8560   23.2570 C   0  0  0  0  0  3  0  0  0  0  0  0
  -17.0770  -27.6220   22.6850 C   0  0  0  0  0  3  0  0  0  0  0  0
  -25.8420  -32.3600   23.8000 C   0  0  0  0  0  3  0  0  0  0  0  0
  -25.4140  -33.7280   24.1280 N   0  0  0  0  0  0  0  0  0  0  0  0
  -25.6790  -34.8080   23.3820 C   0  0  0  0  0  0  0  0  0  0  0  0
  -26.3800  -34.7650   22.3670 O   0  0  0  0  0  0  0  0  0  0  0  0
  -24.7930  -33.8310   24.9180 H   0  0  0  0  0  0  0  0  0  0  0  0
  -23.8230  -36.4600   22.9970 C   0  0  0  0  0  1  0  0  0  0  0  0
  -25.0730  -36.1500   23.8350 C   0  0  0  0  0  3  0  0  0  0  0  0
  -27.1130  -37.1980   24.7140 C   0  0  0  0  0  1  0  0  0  0  0  0
  -26.0190  -37.2820   23.7490 N   0  0  0  0  0  0  0  0  0  0  0  0
  -25.5380  -38.1660   23.8880 H   0  0  0  0  0  0  0  0  0  0  0  0
  -26.3860  -31.6220   25.0850 C   0  0  1  0  0  0  0  0  0  0  0  0
  -25.2890  -31.2950   26.1260 C   0  0  0  0  0  1  0  0  0  0  0  0
  -27.0780  -30.2940   24.6990 C   0  0  0  0  0  1  0  0  0  0  0  0
  -27.4530  -32.4990   25.7810 C   0  0  0  0  0  1  0  0  0  0  0  0
  1  2  2  0
  1  3  1  0
  2  4  1  0
  3  5  2  0
  4 48  1  0
  4  6  2  0
  5  6  1  0
  5  8  1  0
  8  7  1  0
  9  3  1  0
 10 18  1  0
 11 16  1  0
 12 13  1  0
 12 11  1  0
 14 13  1  0
 14 23  1  0
 14 15  1  0
 16 10  1  0
 16 15  1  0
 17 10  2  0
 18  9  1  0
 18 19  1  0
 20 21  2  0
 21 40  1  0
 22 21  1  0
 22 25  1  0
 23 20  1  0
 23 24  1  0
 24 22  2  0
 25 26  1  0
 26 27  2  0
 28 31  1  0
 28 27  1  0
 29 28  2  0
 30 29  1  0
 30 25  2  0
 31 32  1  0
 32 33  1  0
 33 34  2  0
 35 34  1  0
 35 39  1  0
 36 35  2  0
 37 32  2  0
 37 36  1  0
 38 37  1  0
 40 41  1  0
 41 44  1  0
 41 43  1  0
 42 40  2  0
 45 46  1  0
 45 20  1  0
 47 45  1  0
 50 49  1  0
 50 51  1  0
 50 48  1  0
 52 51  1  0
 53 64  2  0
 54 52  1  0
 54 59  1  0
 55 63  1  0
 55 65  1  0
 56 62  1  0
 56 58  1  0
 57 63  1  0
 58 59  2  0
 58 57  1  0
 60 54  2  0
 61 60  1  0
 61 56  2  0
 62 55  1  0
 63 53  1  0
 65 67  2  0
 66 65  1  0
 68 66  1  0
 69 78  2  0
 69 74  1  0
 70 66  1  0
 70 74  1  0
 71 70  1  0
 72 73  1  0
 72 71  1  0
 73 69  1  0
 74 75  2  0
 75 76  1  0
 77 76  2  0
 78 77  1  0
 79 53  1  0
 79 80  1  0
 79 89  1  0
 80 83  1  0
 81 85  1  0
 81 80  1  0
 82 81  2  0
 85 84  1  0
 87 85  1  0
 87 88  1  0
 87 86  1  0
 89 92  1  1
 89 90  1  0
 91 89  1  0
M  ISO  4  10 100  18 100  51 101  52 101
M  END
>  <TORSDO>  (55) 
F 21

>  <SCORE>  (55) 
-10.894

>  <name>  (55) 
56

>  <ligand_id>  (55) 
56

>  <original_smiles>  (55) 
[H]c1c(C([H])([H])C([H])(C([H])([H])[H])C([H])([H])Oc2c([H])c([H])c3c(c2[H])C([H])([H])N(C(=O)C([H])(N([H])C(=O)C([H])(N([H])C([H])([H])[H])C([H])([H])[H])C(C([H])([H])[H])(C([H])([H])[H])C([H])([H])[H])C([H])(C(=O)N([H])C2([H])c4c([H])c([H])c([H])c([H])c4C([H])([H])C([H])([H])C2([H])[H])C3([H])[H])nc(C([H])([H])C([H])([H])[H])c(C([H])([H])N([H])C(=O)N2C([H])([H])C([H])([H])C([H])([H])C([H])(n3nc(-c4c([H])c([H])c(Oc5c([H])c([H])c(F)c([H])c5F)c([H])c4[H])c(C(=O)N([H])[H])c3N([H])[H])C2([H])[H])c1[H]

>  <smiles>  (55) 
[H]c1c(C([H])([H])C([H])(C([H])([H])[H])C([H])([H])Oc2c([H])c([H])c3c(c2[H])C([H])([H])N(C(=O)C([H])(N([H])C(=O)C([H])(N([H])C([H])([H])[H])C([H])([H])[H])C(C([H])([H])[H])(C([H])([H])[H])C([H])([H])[H])C([H])(C(=O)N([H])C2([H])c4c([H])c([H])c([H])c([H])c4C([H])([H])C([H])([H])C2([H])[H])C3([H])[H])nc(C([H])([H])C([H])([H])[H])c(C([H])([H])N([H])C(=O)N2C([H])([H])C([H])([H])C([H])([H])C([H])(n3nc(-c4c([H])c([H])c(Oc5c([H])c([H])c(F)c([H])c5F)c([H])c4[H])c(C(=O)N([H])[H])c3N([H])[H])C2([H])[H])c1[H]

$$$$
57:0:0
     RDKit          3D

 94102  0  0  1  0  0  0  0  0999 V2000
  -31.7140  -22.2600   20.2370 C   0  0  0  0  0  3  0  0  0  0  0  0
  -29.5580  -21.2460   20.6080 C   0  0  0  0  0  3  0  0  0  0  0  0
  -30.4180  -22.3460   20.7770 C   0  0  0  0  0  0  0  0  0  0  0  0
  -32.0850  -21.0920   19.5410 C   0  0  0  0  0  0  0  0  0  0  0  0
  -30.0010  -20.1200   19.8820 C   0  0  0  0  0  0  0  0  0  0  0  0
  -33.4590  -20.9600   18.9200 C   0  0  0  0  0  1  0  0  0  0  0  0
  -31.2440  -20.0520   19.3510 N   0  0  0  0  0  0  0  0  0  0  0  0
  -28.4770  -19.5230   18.0220 C   0  0  0  0  0  1  0  0  0  0  0  0
  -28.9810  -19.0810   19.4160 C   0  0  0  0  0  3  0  0  0  0  0  0
  -28.3890  -16.6730   18.7970 C   0  0  0  0  0  1  0  0  0  0  0  0
  -29.4290  -17.5770   19.4970 C   0  0  0  0  0  3  0  0  0  0  0  0
  -29.7760  -17.1000   20.9490 C   0  0  0  0  0  2  0  0  0  0  0  0
  -30.5100  -14.6630   20.8970 C   0  0  0  0  0  0  0  0  0  0  0  0
  -30.4180  -12.4530   19.8120 C   0  0  0  0  0  2  0  0  0  0  0  0
  -29.5420  -12.5770   18.5470 C   0  0  0  0  0  2  0  0  0  0  0  0
  -28.0440  -12.4180   18.8820 C   0  0  0  0  0  2  0  0  0  0  0  0
  -27.5950  -13.2390   20.1210 C   0  0  0  0  0  3  0  0  0  0  0  0
  -28.5940  -13.0740   21.2900 C   0  0  0  0  0  2  0  0  0  0  0  0
  -29.9330  -13.4340   20.7920 N   0  0  0  0  0  0  0  0  0  0  0  0
  -31.6650  -14.9050   20.5430 O   0  0  0  0  0  0  0  0  0  0  0  0
  -29.6420  -15.6490   21.1900 N   0  0  0  0  0  0  0  0  0  0  0  0
  -28.7260  -15.3340   21.4700 H   0  0  0  0  0  0  0  0  0  0  0  0
  -25.1300  -13.7560   20.6540 C   0  0  0  0  0  0  0  0  0  0  0  0
  -24.0740  -12.9410   20.9650 C   0  0  0  0  0  0  0  0  0  0  0  0
  -24.5970  -11.6130   20.9930 C   0  0  0  0  0  0  0  0  0  0  0  0
  -26.2250  -12.9180   20.5140 N   0  0  0  0  0  0  0  0  0  0  0  0
  -25.9050  -11.6270   20.7730 N   0  0  0  0  0  0  0  0  0  0  0  0
  -23.9190  -10.3210   21.1600 C   0  0  0  0  0  0  0  0  0  0  0  0
  -24.3440   -9.3840   22.1250 C   0  0  0  0  0  3  0  0  0  0  0  0
  -23.6630   -8.1580   22.2810 C   0  0  0  0  0  3  0  0  0  0  0  0
  -22.5440   -7.8600   21.4660 C   0  0  0  0  0  0  0  0  0  0  0  0
  -22.1390   -8.7890   20.4910 C   0  0  0  0  0  3  0  0  0  0  0  0
  -22.8200  -10.0070   20.3360 C   0  0  0  0  0  3  0  0  0  0  0  0
  -21.8380   -6.6820   21.5260 O   0  0  0  0  0  0  0  0  0  0  0  0
  -21.7770   -5.9390   22.6790 C   0  0  0  0  0  0  0  0  0  0  0  0
  -21.2650   -6.4720   23.8820 C   0  0  0  0  0  3  0  0  0  0  0  0
  -21.1520   -5.6540   25.0230 C   0  0  0  0  0  3  0  0  0  0  0  0
  -21.5430   -4.3020   24.9620 C   0  0  0  0  0  0  0  0  0  0  0  0
  -22.0490   -3.7680   23.7640 C   0  0  0  0  0  3  0  0  0  0  0  0
  -22.1620   -4.5830   22.6250 C   0  0  0  0  0  0  0  0  0  0  0  0
  -22.6300   -4.0590   21.4650 F   0  0  0  0  0  0  0  0  0  0  0  0
  -21.4300   -3.5150   26.0540 F   0  0  0  0  0  0  0  0  0  0  0  0
  -22.6410  -13.3560   21.1370 C   0  0  0  0  0  0  0  0  0  0  0  0
  -21.8960  -12.6380   21.9700 N   0  0  0  0  0  0  0  0  0  0  0  0
  -22.1890  -14.3500   20.5710 O   0  0  0  0  0  0  0  0  0  0  0  0
  -22.2750  -11.8300   22.4410 H   0  0  0  0  0  0  0  0  0  0  0  0
  -20.9350  -12.9000   22.1400 H   0  0  0  0  0  0  0  0  0  0  0  0
  -25.2450  -15.1300   20.4610 N   0  0  0  0  0  0  0  0  0  0  0  0
  -24.4440  -15.7500   20.4970 H   0  0  0  0  0  0  0  0  0  0  0  0
  -26.0910  -15.5950   20.1580 H   0  0  0  0  0  0  0  0  0  0  0  0
  -29.9320  -23.6090   21.4750 C   0  0  0  0  0  2  0  0  0  0  0  0
  -29.6130  -24.7570   20.4940 C   0  0  0  0  0  2  0  0  0  0  0  0
  -28.7150  -25.8440   21.1120 C   0  0  0  0  0  2  0  0  0  0  0  0
  -28.6090  -26.9510   20.2190 O   0  0  0  0  0  0  0  0  0  0  0  0
  -24.6210  -31.9970   23.2930 C   0  0  0  0  0  0  0  0  0  0  0  0
  -27.4150  -27.6250   20.2610 C   0  0  0  0  0  0  0  0  0  0  0  0
  -23.4720  -30.5680   21.6320 C   0  0  0  0  0  3  0  0  0  0  0  0
  -24.9810  -29.0520   20.2420 C   0  0  0  0  0  0  0  0  0  0  0  0
  -25.9900  -30.9830   21.4730 C   0  0  0  0  0  2  0  0  0  0  0  0
  -26.1160  -29.6120   20.8440 C   0  0  0  0  0  0  0  0  0  0  0  0
  -27.3380  -28.9040   20.8500 C   0  0  0  0  0  3  0  0  0  0  0  0
  -26.2660  -27.0670   19.6630 C   0  0  0  0  0  3  0  0  0  0  0  0
  -25.0490  -27.7770   19.6500 C   0  0  0  0  0  3  0  0  0  0  0  0
  -23.7180  -29.8840   20.2600 C   0  0  0  0  0  2  0  0  0  0  0  0
  -24.7110  -31.1970   22.1930 N   0  0  0  0  0  0  0  0  0  0  0  0
  -23.5260  -32.2480   23.8140 O   0  0  0  0  0  0  0  0  0  0  0  0
  -22.8210  -29.5390   22.5830 C   0  0  0  0  0  0  0  0  0  0  0  0
  -21.5060  -29.3210   22.4210 N   0  0  0  0  0  0  0  0  0  0  0  0
  -23.4980  -28.9370   23.4220 O   0  0  0  0  0  0  0  0  0  0  0  0
  -21.0220  -29.8610   21.7180 H   0  0  0  0  0  0  0  0  0  0  0  0
  -18.1520  -28.0360   22.8210 C   0  0  0  0  0  0  0  0  0  0  0  0
  -20.6910  -28.3680   23.1730 C   0  0  0  0  0  3  0  0  0  0  0  0
  -20.8530  -26.9350   22.6130 C   0  0  0  0  0  2  0  0  0  0  0  0
  -19.7930  -26.5740   21.5680 C   0  0  0  0  0  2  0  0  0  0  0  0
  -18.3870  -26.6860   22.1650 C   0  0  0  0  0  2  0  0  0  0  0  0
  -19.2350  -28.8330   23.2800 C   0  0  0  0  0  0  0  0  0  0  0  0
  -18.9610  -30.0960   23.8490 C   0  0  0  0  0  3  0  0  0  0  0  0
  -17.6380  -30.5620   23.9660 C   0  0  0  0  0  3  0  0  0  0  0  0
  -16.5700  -29.7620   23.5240 C   0  0  0  0  0  3  0  0  0  0  0  0
  -16.8280  -28.5020   22.9580 C   0  0  0  0  0  3  0  0  0  0  0  0
  -25.8840  -32.6500   23.9370 C   0  0  0  0  0  3  0  0  0  0  0  0
  -25.5580  -34.0510   24.2320 N   0  0  0  0  0  0  0  0  0  0  0  0
  -25.9060  -35.0910   23.4620 C   0  0  0  0  0  0  0  0  0  0  0  0
  -26.6080  -34.9720   22.4530 O   0  0  0  0  0  0  0  0  0  0  0  0
  -24.9380  -34.2170   25.0120 H   0  0  0  0  0  0  0  0  0  0  0  0
  -24.1820  -36.8650   23.0130 C   0  0  0  0  0  1  0  0  0  0  0  0
  -25.3960  -36.4840   23.8750 C   0  0  0  0  0  3  0  0  0  0  0  0
  -27.4940  -37.3950   24.7670 C   0  0  0  0  0  1  0  0  0  0  0  0
  -26.4260  -37.5410   23.7820 N   0  0  0  0  0  0  0  0  0  0  0  0
  -26.0100  -38.4600   23.9000 H   0  0  0  0  0  0  0  0  0  0  0  0
  -26.3760  -31.9050   25.2380 C   0  0  1  0  0  0  0  0  0  0  0  0
  -25.2590  -31.6690   26.2820 C   0  0  0  0  0  1  0  0  0  0  0  0
  -26.9820  -30.5290   24.8780 C   0  0  0  0  0  1  0  0  0  0  0  0
  -27.5020  -32.7210   25.9160 C   0  0  0  0  0  1  0  0  0  0  0  0
  1  3  1  0
  2  3  2  0
  3 51  1  0
  4  1  2  0
  5  2  1  0
  6  4  1  0
  7  4  1  0
  7  5  2  0
  9  8  1  0
  9 11  1  0
  9  5  1  0
 11 10  1  0
 11 12  1  0
 12 21  1  0
 13 21  1  0
 14 19  1  0
 15 16  1  0
 15 14  1  0
 17 16  1  0
 17 26  1  0
 17 18  1  0
 19 13  1  0
 19 18  1  0
 20 13  2  0
 21 22  1  0
 23 24  2  0
 24 25  1  0
 24 43  1  0
 25 28  1  0
 26 23  1  0
 26 27  1  0
 27 25  2  0
 28 29  1  0
 29 30  2  0
 31 34  1  0
 31 30  1  0
 32 31  2  0
 33 32  1  0
 33 28  2  0
 34 35  1  0
 35 36  1  0
 36 37  2  0
 38 37  1  0
 38 42  1  0
 39 38  2  0
 40 35  2  0
 40 39  1  0
 41 40  1  0
 43 44  1  0
 44 47  1  0
 44 46  1  0
 45 43  2  0
 48 49  1  0
 48 23  1  0
 50 48  1  0
 52 53  1  0
 52 51  1  0
 54 56  1  0
 54 53  1  0
 55 66  2  0
 56 61  1  0
 57 65  1  0
 57 67  1  0
 58 64  1  0
 58 60  1  0
 59 65  1  0
 60 61  2  0
 60 59  1  0
 62 56  2  0
 63 62  1  0
 63 58  2  0
 64 57  1  0
 65 55  1  0
 67 69  2  0
 68 67  1  0
 70 68  1  0
 71 80  2  0
 71 76  1  0
 72 68  1  0
 72 76  1  0
 73 72  1  0
 74 75  1  0
 74 73  1  0
 75 71  1  0
 76 77  2  0
 77 78  1  0
 79 78  2  0
 80 79  1  0
 81 55  1  0
 81 82  1  0
 81 91  1  0
 82 85  1  0
 83 87  1  0
 83 82  1  0
 84 83  2  0
 87 86  1  0
 89 87  1  0
 89 90  1  0
 89 88  1  0
 91 94  1  1
 91 92  1  0
 93 91  1  0
M  ISO  4  13 100  21 100  53 101  54 101
M  END
>  <TORSDO>  (56) 
F 22

>  <SCORE>  (56) 
-13.161

>  <name>  (56) 
57

>  <ligand_id>  (56) 
57

>  <original_smiles>  (56) 
[H]c1c([H])c([H])c2c(c1[H])C([H])([H])C([H])([H])C([H])([H])C2([H])N([H])C(=O)C1([H])N(C(=O)C([H])(N([H])C(=O)C([H])(N([H])C([H])([H])[H])C([H])([H])[H])C(C([H])([H])[H])(C([H])([H])[H])C([H])([H])[H])C([H])([H])c2c([H])c(OC([H])([H])C([H])([H])C([H])([H])c3c([H])c(C([H])([H])[H])nc(C([H])(C([H])([H])[H])C([H])(C([H])([H])[H])C([H])([H])N([H])C(=O)N4C([H])([H])C([H])([H])C([H])([H])C([H])(n5nc(-c6c([H])c([H])c(Oc7c([H])c([H])c(F)c([H])c7F)c([H])c6[H])c(C(=O)N([H])[H])c5N([H])[H])C4([H])[H])c3[H])c([H])c([H])c2C1([H])[H]

>  <smiles>  (56) 
[H]c1c([H])c([H])c2c(c1[H])C([H])([H])C([H])([H])C([H])([H])C2([H])N([H])C(=O)C1([H])N(C(=O)C([H])(N([H])C(=O)C([H])(N([H])C([H])([H])[H])C([H])([H])[H])C(C([H])([H])[H])(C([H])([H])[H])C([H])([H])[H])C([H])([H])c2c([H])c(OC([H])([H])C([H])([H])C([H])([H])c3c([H])c(C([H])([H])[H])nc(C([H])(C([H])([H])[H])C([H])(C([H])([H])[H])C([H])([H])N([H])C(=O)N4C([H])([H])C([H])([H])C([H])([H])C([H])(n5nc(-c6c([H])c([H])c(Oc7c([H])c([H])c(F)c([H])c7F)c([H])c6[H])c(C(=O)N([H])[H])c5N([H])[H])C4([H])[H])c3[H])c([H])c([H])c2C1([H])[H]

$$$$
58:0:0
     RDKit          3D

 94102  0  0  1  0  0  0  0  0999 V2000
  -27.1860  -21.0290   20.2910 C   0  0  0  0  0  3  0  0  0  0  0  0
  -26.5340  -20.5310   19.1570 C   0  0  0  0  0  3  0  0  0  0  0  0
  -28.4500  -20.5080   20.6490 C   0  0  0  0  0  0  0  0  0  0  0  0
  -27.1460  -19.4960   18.4400 C   0  0  0  0  0  0  0  0  0  0  0  0
  -28.9500  -19.3960   19.9150 C   0  0  0  0  0  0  0  0  0  0  0  0
  -26.5720  -19.0000   17.1330 C   0  0  0  0  0  1  0  0  0  0  0  0
  -28.2980  -18.9260   18.8280 N   0  0  0  0  0  0  0  0  0  0  0  0
  -29.2110  -21.1590   21.8080 C   0  0  0  0  0  2  0  0  0  0  0  0
  -29.9670  -22.4730   21.4580 C   0  0  0  0  0  3  0  0  0  0  0  0
  -29.0790  -23.6240   20.9230 C   0  0  0  0  0  3  0  0  0  0  0  0
  -29.6120  -25.0800   20.9290 C   0  0  0  0  0  2  0  0  0  0  0  0
  -28.6320  -25.9560   20.1180 C   0  0  0  0  0  2  0  0  0  0  0  0
  -28.8090  -27.3770   20.2600 O   0  0  0  0  0  0  0  0  0  0  0  0
  -24.8360  -32.1420   23.7390 C   0  0  0  0  0  0  0  0  0  0  0  0
  -27.6390  -28.1130   20.2560 C   0  0  0  0  0  0  0  0  0  0  0  0
  -23.6950  -30.9040   21.9290 C   0  0  0  0  0  3  0  0  0  0  0  0
  -25.2100  -29.5630   20.3830 C   0  0  0  0  0  0  0  0  0  0  0  0
  -26.2180  -31.3280   21.8290 C   0  0  0  0  0  2  0  0  0  0  0  0
  -26.3470  -30.0380   21.0490 C   0  0  0  0  0  0  0  0  0  0  0  0
  -27.5620  -29.3160   20.9930 C   0  0  0  0  0  3  0  0  0  0  0  0
  -26.4860  -27.6740   19.5550 C   0  0  0  0  0  3  0  0  0  0  0  0
  -25.2720  -28.3780   19.6390 C   0  0  0  0  0  3  0  0  0  0  0  0
  -23.9460  -30.3860   20.4900 C   0  0  0  0  0  2  0  0  0  0  0  0
  -24.9340  -31.4630   22.5600 N   0  0  0  0  0  0  0  0  0  0  0  0
  -23.7380  -32.3350   24.2770 O   0  0  0  0  0  0  0  0  0  0  0  0
  -23.0520  -29.7680   22.7530 C   0  0  0  0  0  0  0  0  0  0  0  0
  -21.7430  -29.5530   22.5500 N   0  0  0  0  0  0  0  0  0  0  0  0
  -23.7280  -29.0900   23.5330 O   0  0  0  0  0  0  0  0  0  0  0  0
  -21.2610  -30.1430   21.8840 H   0  0  0  0  0  0  0  0  0  0  0  0
  -18.4040  -28.2010   22.7860 C   0  0  0  0  0  0  0  0  0  0  0  0
  -20.9360  -28.5160   23.1940 C   0  0  0  0  0  3  0  0  0  0  0  0
  -21.1170  -27.1540   22.4860 C   0  0  0  0  0  2  0  0  0  0  0  0
  -20.0670  -26.8940   21.4020 C   0  0  0  0  0  2  0  0  0  0  0  0
  -18.6560  -26.9320   21.9930 C   0  0  0  0  0  2  0  0  0  0  0  0
  -19.4750  -28.9530   23.3380 C   0  0  0  0  0  0  0  0  0  0  0  0
  -19.1830  -30.1470   24.0350 C   0  0  0  0  0  3  0  0  0  0  0  0
  -17.8540  -30.5880   24.1850 C   0  0  0  0  0  3  0  0  0  0  0  0
  -16.7990  -29.8290   23.6520 C   0  0  0  0  0  3  0  0  0  0  0  0
  -17.0740  -28.6370   22.9600 C   0  0  0  0  0  3  0  0  0  0  0  0
  -26.0950  -32.7260   24.4510 C   0  0  0  0  0  3  0  0  0  0  0  0
  -25.7690  -34.0970   24.8660 N   0  0  0  0  0  0  0  0  0  0  0  0
  -26.1520  -35.1980   24.2100 C   0  0  0  0  0  0  0  0  0  0  0  0
  -26.8920  -35.1660   23.2220 O   0  0  0  0  0  0  0  0  0  0  0  0
  -25.1150  -34.1990   25.6290 H   0  0  0  0  0  0  0  0  0  0  0  0
  -24.4600  -37.0240   23.8630 C   0  0  0  0  0  1  0  0  0  0  0  0
  -25.6360  -36.5500   24.7320 C   0  0  0  0  0  3  0  0  0  0  0  0
  -27.7020  -37.3530   25.7910 C   0  0  0  0  0  1  0  0  0  0  0  0
  -26.6760  -37.6010   24.7800 N   0  0  0  0  0  0  0  0  0  0  0  0
  -26.2600  -38.5100   24.9620 H   0  0  0  0  0  0  0  0  0  0  0  0
  -26.5630  -31.8660   25.6900 C   0  0  1  0  0  0  0  0  0  0  0  0
  -25.4230  -31.5450   26.6850 C   0  0  0  0  0  1  0  0  0  0  0  0
  -27.1740  -30.5250   25.2230 C   0  0  0  0  0  1  0  0  0  0  0  0
  -27.6770  -32.6150   26.4590 C   0  0  0  0  0  1  0  0  0  0  0  0
  -30.2680  -18.6800   20.2620 C   0  0  0  0  0  2  0  0  0  0  0  0
  -30.9790  -17.2330   18.2610 C   0  0  0  0  0  1  0  0  0  0  0  0
  -30.4450  -17.2280   19.7230 C   0  0  0  0  0  3  0  0  0  0  0  0
  -31.9110  -15.2940   20.3070 C   0  0  0  0  0  0  0  0  0  0  0  0
  -31.5880  -13.0320   19.4040 C   0  0  0  0  0  2  0  0  0  0  0  0
  -30.7210  -13.0400   18.1300 C   0  0  0  0  0  2  0  0  0  0  0  0
  -29.2230  -12.9750   18.4870 C   0  0  0  0  0  2  0  0  0  0  0  0
  -28.8160  -13.9840   19.5920 C   0  0  0  0  0  3  0  0  0  0  0  0
  -29.8070  -13.9700   20.7800 C   0  0  0  0  0  2  0  0  0  0  0  0
  -31.1670  -14.1580   20.2480 N   0  0  0  0  0  0  0  0  0  0  0  0
  -33.0880  -15.3510   19.9530 O   0  0  0  0  0  0  0  0  0  0  0  0
  -31.2900  -16.4320   20.6430 N   0  0  0  0  0  0  0  0  0  0  0  0
  -31.9380  -17.0480   21.1130 H   0  0  0  0  0  0  0  0  0  0  0  0
  -26.4320  -14.7210   20.2240 C   0  0  0  0  0  0  0  0  0  0  0  0
  -25.3150  -14.0050   20.5720 C   0  0  0  0  0  0  0  0  0  0  0  0
  -25.7140  -12.6350   20.5820 C   0  0  0  0  0  0  0  0  0  0  0  0
  -27.4390  -13.7860   20.0400 N   0  0  0  0  0  0  0  0  0  0  0  0
  -27.0110  -12.5290   20.3210 N   0  0  0  0  0  0  0  0  0  0  0  0
  -24.9260  -11.4100   20.7640 C   0  0  0  0  0  0  0  0  0  0  0  0
  -25.2260  -10.4810   21.7840 C   0  0  0  0  0  3  0  0  0  0  0  0
  -24.4400   -9.3190   21.9470 C   0  0  0  0  0  3  0  0  0  0  0  0
  -23.3430   -9.0800   21.0880 C   0  0  0  0  0  0  0  0  0  0  0  0
  -23.0640   -9.9950   20.0590 C   0  0  0  0  0  3  0  0  0  0  0  0
  -23.8500  -11.1490   19.8950 C   0  0  0  0  0  3  0  0  0  0  0  0
  -22.5410   -7.9660   21.1550 O   0  0  0  0  0  0  0  0  0  0  0  0
  -22.2780   -7.3440   22.3480 C   0  0  0  0  0  0  0  0  0  0  0  0
  -21.6490   -8.0170   23.4180 C   0  0  0  0  0  3  0  0  0  0  0  0
  -21.3380   -7.3190   24.6010 C   0  0  0  0  0  3  0  0  0  0  0  0
  -21.6400   -5.9480   24.7120 C   0  0  0  0  0  0  0  0  0  0  0  0
  -22.2610   -5.2760   23.6450 C   0  0  0  0  0  3  0  0  0  0  0  0
  -22.5770   -5.9730   22.4640 C   0  0  0  0  0  0  0  0  0  0  0  0
  -23.1570   -5.3150   21.4330 F   0  0  0  0  0  0  0  0  0  0  0  0
  -21.3320   -5.2750   25.8450 F   0  0  0  0  0  0  0  0  0  0  0  0
  -23.9310  -14.5540   20.7760 C   0  0  0  0  0  0  0  0  0  0  0  0
  -23.1420  -13.9180   21.6380 N   0  0  0  0  0  0  0  0  0  0  0  0
  -23.5590  -15.5810   20.2140 O   0  0  0  0  0  0  0  0  0  0  0  0
  -23.4540  -13.0900   22.1230 H   0  0  0  0  0  0  0  0  0  0  0  0
  -22.2150  -14.2740   21.8140 H   0  0  0  0  0  0  0  0  0  0  0  0
  -26.6580  -16.0780   20.0290 N   0  0  0  0  0  0  0  0  0  0  0  0
  -25.9090  -16.7530   20.1170 H   0  0  0  0  0  0  0  0  0  0  0  0
  -27.5280  -16.5020   19.7260 H   0  0  0  0  0  0  0  0  0  0  0  0
  1  3  1  0
  2  1  2  0
  3  8  1  0
  4  7  2  0
  4  2  1  0
  5 54  1  0
  5  3  2  0
  6  4  1  0
  7  5  1  0
  9  8  1  0
 10 11  1  0
 10  9  2  0
 12 13  1  0
 12 11  1  0
 14 25  2  0
 15 13  1  0
 15 20  1  0
 16 24  1  0
 16 26  1  0
 17 23  1  0
 17 19  1  0
 18 24  1  0
 19 18  1  0
 20 19  2  0
 21 22  1  0
 21 15  2  0
 22 17  2  0
 23 16  1  0
 24 14  1  0
 26 28  2  0
 27 26  1  0
 29 27  1  0
 30 39  2  0
 30 35  1  0
 31 27  1  0
 31 35  1  0
 32 31  1  0
 33 34  1  0
 33 32  1  0
 34 30  1  0
 35 36  2  0
 36 37  1  0
 38 37  2  0
 39 38  1  0
 40 14  1  0
 40 41  1  0
 40 50  1  0
 41 44  1  0
 42 46  1  0
 42 41  1  0
 43 42  2  0
 46 45  1  0
 46 48  1  0
 48 49  1  0
 48 47  1  0
 50 53  1  1
 50 51  1  0
 52 50  1  0
 56 55  1  0
 56 54  1  0
 56 65  1  0
 57 65  1  0
 58 63  1  0
 59 60  1  0
 59 58  1  0
 61 60  1  0
 61 70  1  0
 61 62  1  0
 63 57  1  0
 63 62  1  0
 64 57  2  0
 65 66  1  0
 67 68  2  0
 68 69  1  0
 68 87  1  0
 69 72  1  0
 70 67  1  0
 70 71  1  0
 71 69  2  0
 72 73  1  0
 73 74  2  0
 75 78  1  0
 75 74  1  0
 76 75  2  0
 77 76  1  0
 77 72  2  0
 78 79  1  0
 79 84  2  0
 79 80  1  0
 80 81  2  0
 81 82  1  0
 82 86  1  0
 83 82  2  0
 84 83  1  0
 85 84  1  0
 87 88  1  0
 88 91  1  0
 88 90  1  0
 89 87  2  0
 92 93  1  0
 92 67  1  0
 94 92  1  0
M  ISO  4  12 101  13 101  57 100  65 100
M  END
>  <TORSDO>  (57) 
F 23

>  <SCORE>  (57) 
-9.025

>  <name>  (57) 
58

>  <ligand_id>  (57) 
58

>  <original_smiles>  (57) 
[H]c1c(C([H])([H])[H])nc(C([H])([H])C([H])(N([H])C(=O)N2C([H])([H])C([H])([H])C([H])([H])C([H])(n3nc(-c4c([H])c([H])c(Oc5c([H])c([H])c(F)c([H])c5F)c([H])c4[H])c(C(=O)N([H])[H])c3N([H])[H])C2([H])[H])C([H])([H])[H])c(C([H])([H])C([H])([H])C([H])([H])C([H])([H])C([H])([H])Oc2c([H])c([H])c3c(c2[H])C([H])([H])N(C(=O)C([H])(N([H])C(=O)C([H])(N([H])C([H])([H])[H])C([H])([H])[H])C(C([H])([H])[H])(C([H])([H])[H])C([H])([H])[H])C([H])(C(=O)N([H])C2([H])c4c([H])c([H])c([H])c([H])c4C([H])([H])C([H])([H])C2([H])[H])C3([H])[H])c1[H]

>  <smiles>  (57) 
[H]c1c(C([H])([H])[H])nc(C([H])([H])C([H])(N([H])C(=O)N2C([H])([H])C([H])([H])C([H])([H])C([H])(n3nc(-c4c([H])c([H])c(Oc5c([H])c([H])c(F)c([H])c5F)c([H])c4[H])c(C(=O)N([H])[H])c3N([H])[H])C2([H])[H])C([H])([H])[H])c(C([H])([H])C([H])([H])C([H])([H])C([H])([H])C([H])([H])Oc2c([H])c([H])c3c(c2[H])C([H])([H])N(C(=O)C([H])(N([H])C(=O)C([H])(N([H])C([H])([H])[H])C([H])([H])[H])C(C([H])([H])[H])(C([H])([H])[H])C([H])([H])[H])C([H])(C(=O)N([H])C2([H])c4c([H])c([H])c([H])c([H])c4C([H])([H])C([H])([H])C2([H])[H])C3([H])[H])c1[H]

$$$$
59:0:0
     RDKit          3D

 99107  0  0  1  0  0  0  0  0999 V2000
  -28.8700  -20.1750   21.4560 C   0  0  0  0  0  3  0  0  0  0  0  0
  -31.0210  -20.5220   21.0240 C   0  0  0  0  0  3  0  0  0  0  0  0
  -30.1630  -19.5750   21.5150 C   0  0  0  0  0  0  0  0  0  0  0  0
  -28.9640  -21.4260   20.9130 C   0  0  0  0  0  0  0  0  0  0  0  0
  -30.3100  -21.6460   20.6400 N   0  0  0  0  0  0  0  0  0  0  0  0
  -29.8710  -18.0040   23.4220 C   0  0  0  0  0  1  0  0  0  0  0  0
  -32.0060  -17.9480   22.1140 C   0  0  0  0  0  1  0  0  0  0  0  0
  -30.4850  -18.1680   22.0140 C   0  0  2  0  0  0  0  0  0  0  0  0
  -29.9050  -17.1610   20.9880 C   0  0  0  0  0  2  0  0  0  0  0  0
  -30.8370  -14.9720   20.2660 C   0  0  0  0  0  0  0  0  0  0  0  0
  -30.6010  -12.8610   18.9980 C   0  0  0  0  0  2  0  0  0  0  0  0
  -29.5930  -13.0610   17.8470 C   0  0  0  0  0  2  0  0  0  0  0  0
  -28.1410  -12.8510   18.3210 C   0  0  0  0  0  2  0  0  0  0  0  0
  -27.8270  -13.6420   19.6160 C   0  0  0  0  0  3  0  0  0  0  0  0
  -28.9220  -13.3890   20.6760 C   0  0  0  0  0  2  0  0  0  0  0  0
  -30.2330  -13.7630   20.1020 N   0  0  0  0  0  0  0  0  0  0  0  0
  -31.7950  -15.3510   19.5840 O   0  0  0  0  0  0  0  0  0  0  0  0
  -30.2580  -15.7520   21.1920 N   0  0  0  0  0  0  0  0  0  0  0  0
  -29.6460  -15.2590   21.8250 H   0  0  0  0  0  0  0  0  0  0  0  0
  -25.4770  -14.1680   20.5370 C   0  0  0  0  0  0  0  0  0  0  0  0
  -24.4210  -13.3620   20.8670 C   0  0  0  0  0  0  0  0  0  0  0  0
  -24.8570  -12.0230   20.6200 C   0  0  0  0  0  0  0  0  0  0  0  0
  -26.4950  -13.3180   20.1260 N   0  0  0  0  0  0  0  0  0  0  0  0
  -26.1240  -12.0170   20.2240 N   0  0  0  0  0  0  0  0  0  0  0  0
  -24.1260  -10.7520   20.6860 C   0  0  0  0  0  0  0  0  0  0  0  0
  -24.6440   -9.6380   21.3830 C   0  0  0  0  0  3  0  0  0  0  0  0
  -23.9150   -8.4310   21.4440 C   0  0  0  0  0  3  0  0  0  0  0  0
  -22.6510   -8.3310   20.8110 C   0  0  0  0  0  0  0  0  0  0  0  0
  -22.1530   -9.4360   20.1000 C   0  0  0  0  0  3  0  0  0  0  0  0
  -22.8830  -10.6340   20.0350 C   0  0  0  0  0  3  0  0  0  0  0  0
  -21.8830   -7.1910   20.7980 O   0  0  0  0  0  0  0  0  0  0  0  0
  -21.9850   -6.2430   21.7840 C   0  0  0  0  0  0  0  0  0  0  0  0
  -21.7900   -6.5600   23.1450 C   0  0  0  0  0  3  0  0  0  0  0  0
  -21.8340   -5.5410   24.1190 C   0  0  0  0  0  3  0  0  0  0  0  0
  -22.0660   -4.2070   23.7320 C   0  0  0  0  0  0  0  0  0  0  0  0
  -22.2540   -3.8890   22.3760 C   0  0  0  0  0  3  0  0  0  0  0  0
  -22.2120   -4.9040   21.4050 C   0  0  0  0  0  0  0  0  0  0  0  0
  -22.3740   -4.5900   20.0970 F   0  0  0  0  0  0  0  0  0  0  0  0
  -22.1020   -3.2260   24.6660 F   0  0  0  0  0  0  0  0  0  0  0  0
  -23.0510  -13.8030   21.3000 C   0  0  0  0  0  0  0  0  0  0  0  0
  -22.3840  -13.0130   22.1310 N   0  0  0  0  0  0  0  0  0  0  0  0
  -22.5870  -14.8840   20.9360 O   0  0  0  0  0  0  0  0  0  0  0  0
  -22.7690  -12.1310   22.4410 H   0  0  0  0  0  0  0  0  0  0  0  0
  -21.4710  -13.2890   22.4640 H   0  0  0  0  0  0  0  0  0  0  0  0
  -25.6520  -15.5490   20.5360 N   0  0  0  0  0  0  0  0  0  0  0  0
  -24.9070  -16.1960   20.7730 H   0  0  0  0  0  0  0  0  0  0  0  0
  -26.4970  -16.0180   20.2330 H   0  0  0  0  0  0  0  0  0  0  0  0
  -30.9330  -22.8440   20.0830 C   0  0  0  0  0  2  0  0  0  0  0  0
  -31.4540  -21.6280   17.8400 C   0  0  0  0  0  1  0  0  0  0  0  0
  -30.9680  -22.9210   18.5310 C   0  0  0  0  0  3  0  0  0  0  0  0
  -31.8550  -24.0900   18.0410 C   0  0  0  0  0  2  0  0  0  0  0  0
  -31.7430  -25.4100   18.8220 C   0  0  0  0  0  2  0  0  0  0  0  0
  -30.3740  -26.0950   18.7130 C   0  0  0  0  0  2  0  0  0  0  0  0
  -30.2910  -27.0130   19.7940 O   0  0  0  0  0  0  0  0  0  0  0  0
  -26.5140  -30.8200   24.4360 C   0  0  0  0  0  0  0  0  0  0  0  0
  -29.1090  -27.6860   20.0110 C   0  0  0  0  0  0  0  0  0  0  0  0
  -25.3160  -30.1700   22.3700 C   0  0  0  0  0  3  0  0  0  0  0  0
  -26.7570  -29.1670   20.5220 C   0  0  0  0  0  0  0  0  0  0  0  0
  -27.8540  -30.4540   22.3640 C   0  0  0  0  0  2  0  0  0  0  0  0
  -27.9090  -29.3920   21.2890 C   0  0  0  0  0  0  0  0  0  0  0  0
  -29.0810  -28.6520   21.0380 C   0  0  0  0  0  3  0  0  0  0  0  0
  -27.9360  -27.4630   19.2500 C   0  0  0  0  0  3  0  0  0  0  0  0
  -26.7640  -28.1960   19.5050 C   0  0  0  0  0  3  0  0  0  0  0  0
  -25.5510  -30.0170   20.8420 C   0  0  0  0  0  2  0  0  0  0  0  0
  -26.5790  -30.4740   23.1200 N   0  0  0  0  0  0  0  0  0  0  0  0
  -25.4240  -30.9330   25.0160 O   0  0  0  0  0  0  0  0  0  0  0  0
  -24.5870  -28.9090   22.8840 C   0  0  0  0  0  0  0  0  0  0  0  0
  -23.2950  -28.7870   22.5440 N   0  0  0  0  0  0  0  0  0  0  0  0
  -25.1850  -28.0580   23.5470 O   0  0  0  0  0  0  0  0  0  0  0  0
  -22.8750  -29.5360   22.0120 H   0  0  0  0  0  0  0  0  0  0  0  0
  -19.9720  -27.4480   22.0760 C   0  0  0  0  0  0  0  0  0  0  0  0
  -22.4190  -27.6650   22.8800 C   0  0  0  0  0  3  0  0  0  0  0  0
  -22.7150  -26.4380   21.9870 C   0  0  0  0  0  2  0  0  0  0  0  0
  -21.8360  -26.3780   20.7340 C   0  0  0  0  0  2  0  0  0  0  0  0
  -20.3550  -26.3280   21.1220 C   0  0  0  0  0  2  0  0  0  0  0  0
  -20.9460  -28.0840   22.8910 C   0  0  0  0  0  0  0  0  0  0  0  0
  -20.5440  -29.1430   23.7360 C   0  0  0  0  0  3  0  0  0  0  0  0
  -19.2030  -29.5700   23.7680 C   0  0  0  0  0  3  0  0  0  0  0  0
  -18.2410  -28.9250   22.9720 C   0  0  0  0  0  3  0  0  0  0  0  0
  -18.6230  -27.8590   22.1380 C   0  0  0  0  0  3  0  0  0  0  0  0
  -27.8020  -31.1150   25.2710 C   0  0  0  0  0  3  0  0  0  0  0  0
  -28.1350  -29.9890   26.3230 C   0  0  1  0  0  0  0  0  0  0  0  0
  -26.9460  -29.6140   27.2360 C   0  0  0  0  0  1  0  0  0  0  0  0
  -28.5920  -28.7010   25.6010 C   0  0  0  0  0  1  0  0  0  0  0  0
  -29.3150  -30.4330   27.2210 C   0  0  0  0  0  1  0  0  0  0  0  0
  -27.6170  -32.4130   25.9360 N   0  0  0  0  0  0  0  0  0  0  0  0
  -28.2050  -33.5520   25.5520 C   0  0  0  0  0  0  0  0  0  0  0  0
  -29.0320  -33.6040   24.6370 O   0  0  0  0  0  0  0  0  0  0  0  0
  -26.9210  -32.4530   26.6670 H   0  0  0  0  0  0  0  0  0  0  0  0
  -26.8530  -35.6660   25.4360 C   0  0  0  0  0  1  0  0  0  0  0  0
  -27.8140  -34.8390   26.3040 C   0  0  0  0  0  3  0  0  0  0  0  0
  -29.8030  -35.0470   27.7240 C   0  0  0  0  0  1  0  0  0  0  0  0
  -28.9710  -35.6710   26.6990 N   0  0  0  0  0  0  0  0  0  0  0  0
  -28.6590  -36.5690   27.0580 H   0  0  0  0  0  0  0  0  0  0  0  0
  -27.8530  -22.4030   20.6410 C   0  0  0  0  0  2  0  0  0  0  0  0
  -27.4480  -23.2290   21.8820 C   0  0  0  0  0  2  0  0  0  0  0  0
  -25.8800  -24.9000   22.9720 C   0  0  0  0  0  1  0  0  0  0  0  0
  -26.4700  -25.1870   20.5350 C   0  0  0  0  0  1  0  0  0  0  0  0
  -26.2440  -24.1740   21.6660 C   0  0  0  0  0  3  0  0  0  0  0  0
  1  3  1  0
  2  3  2  0
  3  8  1  0
  4  1  2  0
  5  4  1  0
  5  2  1  0
  8  7  1  1
  8  6  1  0
  9 18  1  0
  9  8  1  0
 10 18  1  0
 11 16  1  0
 12 13  1  0
 12 11  1  0
 14 13  1  0
 14 23  1  0
 14 15  1  0
 16 10  1  0
 16 15  1  0
 17 10  2  0
 18 19  1  0
 20 21  2  0
 21 40  1  0
 22 25  1  0
 22 21  1  0
 23 24  1  0
 23 20  1  0
 24 22  2  0
 25 26  1  0
 26 27  2  0
 28 27  1  0
 29 28  2  0
 30 29  1  0
 30 25  2  0
 31 28  1  0
 31 32  1  0
 32 33  1  0
 33 34  2  0
 35 34  1  0
 35 39  1  0
 36 35  2  0
 37 32  2  0
 37 36  1  0
 38 37  1  0
 40 41  1  0
 41 43  1  0
 41 44  1  0
 42 40  2  0
 45 20  1  0
 45 46  1  0
 47 45  1  0
 48  5  1  0
 50 49  1  0
 50 48  1  0
 51 50  1  0
 51 52  1  0
 53 52  1  0
 53 54  1  0
 54 56  1  0
 55 66  2  0
 56 61  1  0
 57 67  1  0
 57 65  1  0
 58 64  1  0
 58 60  1  0
 59 65  1  0
 60 59  1  0
 61 60  2  0
 62 63  1  0
 62 56  2  0
 63 58  2  0
 64 57  1  0
 65 55  1  0
 67 69  2  0
 68 67  1  0
 70 68  1  0
 71 80  2  0
 71 76  1  0
 72 68  1  0
 72 76  1  0
 73 72  1  0
 74 75  1  0
 74 73  1  0
 75 71  1  0
 76 77  2  0
 77 78  1  0
 79 78  2  0
 80 79  1  0
 81 55  1  0
 81 86  1  0
 81 82  1  0
 82 85  1  1
 82 83  1  0
 84 82  1  0
 86 89  1  0
 87 86  1  0
 87 91  1  0
 88 87  2  0
 91 90  1  0
 91 93  1  0
 93 94  1  0
 93 92  1  0
 95  4  1  0
 95 96  1  0
 98 99  1  0
 99 96  1  0
 99 97  1  0
M  ISO  4  10 100  18 100  53 101  54 101
M  END
>  <TORSDO>  (58) 
F 26

>  <SCORE>  (58) 
-6.068

>  <name>  (58) 
59

>  <ligand_id>  (58) 
59

>  <original_smiles>  (58) 
[H]c1c([H])c([H])c2c(c1[H])C([H])([H])C([H])([H])C([H])([H])C2([H])N([H])C(=O)C1([H])N(C(=O)C([H])(N([H])C(=O)C([H])(N([H])C([H])([H])[H])C([H])([H])[H])C(C([H])([H])[H])(C([H])([H])[H])C([H])([H])[H])C([H])([H])c2c([H])c(OC([H])([H])C([H])([H])C([H])([H])C([H])(C([H])([H])[H])C([H])([H])n3c([H])c(C(C([H])([H])[H])(C([H])([H])[H])C([H])([H])N([H])C(=O)N4C([H])([H])C([H])([H])C([H])([H])C([H])(n5nc(-c6c([H])c([H])c(Oc7c([H])c([H])c(F)c([H])c7F)c([H])c6[H])c(C(=O)N([H])[H])c5N([H])[H])C4([H])[H])c([H])c3C([H])([H])C([H])([H])C([H])(C([H])([H])[H])C([H])([H])[H])c([H])c([H])c2C1([H])[H]

>  <smiles>  (58) 
[H]c1c([H])c([H])c2c(c1[H])C([H])([H])C([H])([H])C([H])([H])C2([H])N([H])C(=O)C1([H])N(C(=O)C([H])(N([H])C(=O)C([H])(N([H])C([H])([H])[H])C([H])([H])[H])C(C([H])([H])[H])(C([H])([H])[H])C([H])([H])[H])C([H])([H])c2c([H])c(OC([H])([H])C([H])([H])C([H])([H])C([H])(C([H])([H])[H])C([H])([H])n3c([H])c(C(C([H])([H])[H])(C([H])([H])[H])C([H])([H])N([H])C(=O)N4C([H])([H])C([H])([H])C([H])([H])C([H])(n5nc(-c6c([H])c([H])c(Oc7c([H])c([H])c(F)c([H])c7F)c([H])c6[H])c(C(=O)N([H])[H])c5N([H])[H])C4([H])[H])c([H])c3C([H])([H])C([H])([H])C([H])(C([H])([H])[H])C([H])([H])[H])c([H])c([H])c2C1([H])[H]

$$$$
60:0:0
     RDKit          3D

 95103  0  0  1  0  0  0  0  0999 V2000
  -27.9290  -21.7730   19.4080 C   0  0  0  0  0  3  0  0  0  0  0  0
  -29.6960  -21.2560   20.9200 C   0  0  0  0  0  3  0  0  0  0  0  0
  -28.8740  -22.2810   20.3260 C   0  0  0  0  0  0  0  0  0  0  0  0
  -27.8370  -20.3750   19.1650 C   0  0  0  0  0  0  0  0  0  0  0  0
  -29.5660  -19.8270   20.6460 C   0  0  0  0  0  0  0  0  0  0  0  0
  -28.6150  -19.4410   19.7740 N   0  0  0  0  0  0  0  0  0  0  0  0
  -27.4940  -19.4440   16.8440 C   0  0  0  0  0  1  0  0  0  0  0  0
  -25.5720  -20.6690   17.9720 C   0  0  0  0  0  1  0  0  0  0  0  0
  -26.8220  -19.7950   18.1800 C   0  0  0  0  0  3  0  0  0  0  0  0
  -31.4510  -19.3740   22.2300 C   0  0  0  0  0  1  0  0  0  0  0  0
  -30.2370  -18.6710   21.5470 C   0  0  0  0  0  3  0  0  0  0  0  0
  -31.1360  -16.4300   22.5410 C   0  0  0  0  0  1  0  0  0  0  0  0
  -30.7400  -17.1180   21.1890 C   0  0  0  0  0  3  0  0  0  0  0  0
  -30.5860  -14.8160   20.0320 C   0  0  0  0  0  0  0  0  0  0  0  0
  -30.2640  -12.5910   18.9300 C   0  0  0  0  0  2  0  0  0  0  0  0
  -29.2450  -12.6850   17.7750 C   0  0  0  0  0  2  0  0  0  0  0  0
  -27.8140  -12.4890   18.3090 C   0  0  0  0  0  2  0  0  0  0  0  0
  -27.5230  -13.3440   19.5710 C   0  0  0  0  0  3  0  0  0  0  0  0
  -28.6590  -13.2490   20.6140 C   0  0  0  0  0  2  0  0  0  0  0  0
  -29.9020  -13.6240   19.9300 N   0  0  0  0  0  0  0  0  0  0  0  0
  -31.7350  -14.8860   19.5890 O   0  0  0  0  0  0  0  0  0  0  0  0
  -29.9730  -15.9590   20.5450 N   0  0  0  0  0  0  0  0  0  0  0  0
  -28.9880  -15.8930   20.7560 H   0  0  0  0  0  0  0  0  0  0  0  0
  -25.1990  -13.8950   20.4980 C   0  0  0  0  0  0  0  0  0  0  0  0
  -24.1630  -13.1030   20.9120 C   0  0  0  0  0  0  0  0  0  0  0  0
  -24.6220  -11.7550   20.7910 C   0  0  0  0  0  0  0  0  0  0  0  0
  -26.2220  -13.0290   20.1500 N   0  0  0  0  0  0  0  0  0  0  0  0
  -25.8880  -11.7340   20.3910 N   0  0  0  0  0  0  0  0  0  0  0  0
  -23.9090  -10.4850   20.9810 C   0  0  0  0  0  0  0  0  0  0  0  0
  -24.3570   -9.5170   21.9080 C   0  0  0  0  0  3  0  0  0  0  0  0
  -23.6450   -8.3110   22.0840 C   0  0  0  0  0  3  0  0  0  0  0  0
  -22.4700   -8.0640   21.3350 C   0  0  0  0  0  0  0  0  0  0  0  0
  -22.0400   -9.0200   20.3980 C   0  0  0  0  0  3  0  0  0  0  0  0
  -22.7530  -10.2170   20.2190 C   0  0  0  0  0  3  0  0  0  0  0  0
  -21.7270   -6.9120   21.4240 O   0  0  0  0  0  0  0  0  0  0  0  0
  -21.6360   -6.2020   22.5940 C   0  0  0  0  0  0  0  0  0  0  0  0
  -21.1050   -6.7720   23.7720 C   0  0  0  0  0  3  0  0  0  0  0  0
  -20.9660   -5.9850   24.9330 C   0  0  0  0  0  3  0  0  0  0  0  0
  -21.3470   -4.6290   24.9170 C   0  0  0  0  0  0  0  0  0  0  0  0
  -21.8690   -4.0580   23.7420 C   0  0  0  0  0  3  0  0  0  0  0  0
  -22.0110   -4.8420   22.5840 C   0  0  0  0  0  0  0  0  0  0  0  0
  -22.4950   -4.2830   21.4490 F   0  0  0  0  0  0  0  0  0  0  0  0
  -21.2060   -3.8720   26.0280 F   0  0  0  0  0  0  0  0  0  0  0  0
  -22.7890  -13.5650   21.3010 C   0  0  0  0  0  0  0  0  0  0  0  0
  -22.1260  -12.8350   22.1910 N   0  0  0  0  0  0  0  0  0  0  0  0
  -22.3160  -14.6080   20.8520 O   0  0  0  0  0  0  0  0  0  0  0  0
  -22.5230  -11.9930   22.5790 H   0  0  0  0  0  0  0  0  0  0  0  0
  -21.2070  -13.1280   22.4920 H   0  0  0  0  0  0  0  0  0  0  0  0
  -25.3500  -15.2720   20.3630 N   0  0  0  0  0  0  0  0  0  0  0  0
  -24.5940  -15.9170   20.5550 H   0  0  0  0  0  0  0  0  0  0  0  0
  -26.1680  -15.7240   19.9730 H   0  0  0  0  0  0  0  0  0  0  0  0
  -28.9670  -23.8370   20.7250 C   0  0  0  0  0  2  0  0  0  0  0  0
  -28.7290  -25.0760   18.4630 C   0  0  0  0  0  1  0  0  0  0  0  0
  -28.2170  -25.0300   19.9150 C   0  0  0  0  0  3  0  0  0  0  0  0
  -28.2880  -26.4610   20.4020 O   0  0  0  0  0  0  0  0  0  0  0  0
  -24.5280  -31.9820   23.2580 C   0  0  0  0  0  0  0  0  0  0  0  0
  -27.1800  -27.3450   20.2950 C   0  0  0  0  0  0  0  0  0  0  0  0
  -23.3480  -30.5560   21.6270 C   0  0  0  0  0  3  0  0  0  0  0  0
  -24.8170  -28.9890   20.2370 C   0  0  0  0  0  0  0  0  0  0  0  0
  -25.8920  -30.8680   21.4680 C   0  0  0  0  0  2  0  0  0  0  0  0
  -25.9810  -29.4770   20.8420 C   0  0  0  0  0  0  0  0  0  0  0  0
  -27.1620  -28.6660   20.8640 C   0  0  0  0  0  3  0  0  0  0  0  0
  -25.9890  -26.9340   19.6520 C   0  0  0  0  0  3  0  0  0  0  0  0
  -24.8260  -27.7250   19.6340 C   0  0  0  0  0  3  0  0  0  0  0  0
  -23.5790  -29.8640   20.2590 C   0  0  0  0  0  2  0  0  0  0  0  0
  -24.6090  -31.1540   22.1750 N   0  0  0  0  0  0  0  0  0  0  0  0
  -23.4370  -32.2620   23.7760 O   0  0  0  0  0  0  0  0  0  0  0  0
  -22.6790  -29.5490   22.5960 C   0  0  0  0  0  0  0  0  0  0  0  0
  -21.3580  -29.3450   22.4430 N   0  0  0  0  0  0  0  0  0  0  0  0
  -23.3480  -28.9550   23.4450 O   0  0  0  0  0  0  0  0  0  0  0  0
  -20.8760  -29.8780   21.7330 H   0  0  0  0  0  0  0  0  0  0  0  0
  -17.9910  -28.1020   22.9020 C   0  0  0  0  0  0  0  0  0  0  0  0
  -20.5390  -28.4110   23.2190 C   0  0  0  0  0  3  0  0  0  0  0  0
  -20.6770  -26.9680   22.6790 C   0  0  0  0  0  2  0  0  0  0  0  0
  -19.6020  -26.6040   21.6510 C   0  0  0  0  0  2  0  0  0  0  0  0
  -18.2040  -26.7400   22.2620 C   0  0  0  0  0  2  0  0  0  0  0  0
  -19.0880  -28.8920   23.3380 C   0  0  0  0  0  0  0  0  0  0  0  0
  -18.8360  -30.1640   23.8970 C   0  0  0  0  0  3  0  0  0  0  0  0
  -17.5190  -30.6450   24.0260 C   0  0  0  0  0  3  0  0  0  0  0  0
  -16.4370  -29.8520   23.6050 C   0  0  0  0  0  3  0  0  0  0  0  0
  -16.6740  -28.5820   23.0490 C   0  0  0  0  0  3  0  0  0  0  0  0
  -25.8000  -32.6320   23.8820 C   0  0  0  0  0  3  0  0  0  0  0  0
  -25.4730  -34.0280   24.2060 N   0  0  0  0  0  0  0  0  0  0  0  0
  -25.7940  -35.0820   23.4440 C   0  0  0  0  0  0  0  0  0  0  0  0
  -26.4660  -34.9840   22.4140 O   0  0  0  0  0  0  0  0  0  0  0  0
  -24.8750  -34.1790   25.0050 H   0  0  0  0  0  0  0  0  0  0  0  0
  -24.0530  -36.8620   23.0760 C   0  0  0  0  0  1  0  0  0  0  0  0
  -25.2910  -36.4670   23.8970 C   0  0  0  0  0  3  0  0  0  0  0  0
  -27.4060  -37.3790   24.7500 C   0  0  0  0  0  1  0  0  0  0  0  0
  -26.3150  -37.5290   23.7910 N   0  0  0  0  0  0  0  0  0  0  0  0
  -25.8980  -38.4460   23.9260 H   0  0  0  0  0  0  0  0  0  0  0  0
  -26.3170  -31.8720   25.1660 C   0  0  1  0  0  0  0  0  0  0  0  0
  -25.2160  -31.6060   26.2170 C   0  0  0  0  0  1  0  0  0  0  0  0
  -26.9440  -30.5110   24.7830 C   0  0  0  0  0  1  0  0  0  0  0  0
  -27.4360  -32.6960   25.8460 C   0  0  0  0  0  1  0  0  0  0  0  0
  1  3  1  0
  3 52  1  0
  3  2  2  0
  4  1  2  0
  4  6  1  0
  5  2  1  0
  5 11  1  0
  6  5  2  0
  7  9  1  0
  8  9  1  0
  9  4  1  0
 11 10  1  0
 13 11  1  0
 13 12  1  0
 14 22  1  0
 15 20  1  0
 16 17  1  0
 16 15  1  0
 18 17  1  0
 18 27  1  0
 18 19  1  0
 20 14  1  0
 20 19  1  0
 21 14  2  0
 22 23  1  0
 22 13  1  0
 24 25  2  0
 25 44  1  0
 26 25  1  0
 26 29  1  0
 27 28  1  0
 27 24  1  0
 28 26  2  0
 29 30  1  0
 30 31  2  0
 32 35  1  0
 32 31  1  0
 33 32  2  0
 34 33  1  0
 34 29  2  0
 35 36  1  0
 36 37  1  0
 37 38  2  0
 39 38  1  0
 39 43  1  0
 40 39  2  0
 41 36  2  0
 41 40  1  0
 42 41  1  0
 44 45  1  0
 45 48  1  0
 45 47  1  0
 46 44  2  0
 49 24  1  0
 49 50  1  0
 51 49  1  0
 54 53  1  0
 54 55  1  0
 54 52  1  0
 56 67  2  0
 57 55  1  0
 57 62  1  0
 58 66  1  0
 58 68  1  0
 59 65  1  0
 59 61  1  0
 60 66  1  0
 61 62  2  0
 61 60  1  0
 63 57  2  0
 64 63  1  0
 64 59  2  0
 65 58  1  0
 66 56  1  0
 68 70  2  0
 69 68  1  0
 71 69  1  0
 72 81  2  0
 72 77  1  0
 73 69  1  0
 73 77  1  0
 74 73  1  0
 75 76  1  0
 75 74  1  0
 76 72  1  0
 77 78  2  0
 78 79  1  0
 80 79  2  0
 81 80  1  0
 82 56  1  0
 82 83  1  0
 82 92  1  0
 83 86  1  0
 84 88  1  0
 84 83  1  0
 85 84  2  0
 88 87  1  0
 90 88  1  0
 90 91  1  0
 90 89  1  0
 92 95  1  1
 92 93  1  0
 94 92  1  0
M  ISO  4  14 100  22 100  54 101  55 101
M  END
>  <TORSDO>  (59) 
F 21

>  <SCORE>  (59) 
-13.432

>  <name>  (59) 
60

>  <ligand_id>  (59) 
60

>  <original_smiles>  (59) 
[H]c1c([H])c([H])c2c(c1[H])C([H])([H])C([H])([H])C([H])([H])C2([H])N([H])C(=O)C1([H])N(C(=O)C([H])(N([H])C(=O)C([H])(N([H])C([H])([H])[H])C([H])([H])[H])C(C([H])([H])[H])(C([H])([H])[H])C([H])([H])[H])C([H])([H])c2c([H])c(OC([H])(C([H])([H])[H])C([H])([H])c3c([H])c(C([H])(C([H])([H])[H])C([H])([H])[H])nc(C([H])(C([H])([H])[H])C([H])(N([H])C(=O)N4C([H])([H])C([H])([H])C([H])([H])C([H])(n5nc(-c6c([H])c([H])c(Oc7c([H])c([H])c(F)c([H])c7F)c([H])c6[H])c(C(=O)N([H])[H])c5N([H])[H])C4([H])[H])C([H])([H])[H])c3[H])c([H])c([H])c2C1([H])[H]

>  <smiles>  (59) 
[H]c1c([H])c([H])c2c(c1[H])C([H])([H])C([H])([H])C([H])([H])C2([H])N([H])C(=O)C1([H])N(C(=O)C([H])(N([H])C(=O)C([H])(N([H])C([H])([H])[H])C([H])([H])[H])C(C([H])([H])[H])(C([H])([H])[H])C([H])([H])[H])C([H])([H])c2c([H])c(OC([H])(C([H])([H])[H])C([H])([H])c3c([H])c(C([H])(C([H])([H])[H])C([H])([H])[H])nc(C([H])(C([H])([H])[H])C([H])(N([H])C(=O)N4C([H])([H])C([H])([H])C([H])([H])C([H])(n5nc(-c6c([H])c([H])c(Oc7c([H])c([H])c(F)c([H])c7F)c([H])c6[H])c(C(=O)N([H])[H])c5N([H])[H])C4([H])[H])C([H])([H])[H])c3[H])c([H])c([H])c2C1([H])[H]

$$$$
61:0:0
     RDKit          3D

 95103  0  0  1  0  0  0  0  0999 V2000
  -27.9410  -21.6620   19.1600 C   0  0  0  0  0  3  0  0  0  0  0  0
  -27.5020  -20.3830   18.9170 C   0  0  0  0  0  0  0  0  0  0  0  0
  -29.3620  -20.2620   20.1670 C   0  0  0  0  0  3  0  0  0  0  0  0
  -29.0660  -21.5830   19.9500 N   0  0  0  0  0  0  0  0  0  0  0  0
  -28.4030  -19.5660   19.5450 N   0  0  0  0  0  0  0  0  0  0  0  0
  -28.3250  -18.5580   19.5850 H   0  0  0  0  0  0  0  0  0  0  0  0
  -26.2910  -19.8460   18.2060 C   0  0  0  0  0  2  0  0  0  0  0  0
  -25.1030  -19.5420   15.9560 C   0  0  0  0  0  1  0  0  0  0  0  0
  -26.3190  -20.1280   16.6950 C   0  0  0  0  0  2  0  0  0  0  0  0
  -30.4540  -19.6220   21.0280 C   0  0  0  0  0  2  0  0  0  0  0  0
  -30.8680  -18.0910   20.8970 C   0  0  0  0  0  2  0  0  0  0  0  0
  -29.8560  -17.0120   20.3960 C   0  0  0  0  0  2  0  0  0  0  0  0
  -30.7730  -14.5990   20.4780 C   0  0  0  0  0  0  0  0  0  0  0  0
  -30.5370  -12.3930   19.3860 C   0  0  0  0  0  2  0  0  0  0  0  0
  -29.6100  -12.5840   18.1680 C   0  0  0  0  0  2  0  0  0  0  0  0
  -28.1350  -12.4230   18.5810 C   0  0  0  0  0  2  0  0  0  0  0  0
  -27.7710  -13.2910   19.8160 C   0  0  0  0  0  3  0  0  0  0  0  0
  -28.8070  -13.0900   20.9480 C   0  0  0  0  0  2  0  0  0  0  0  0
  -30.1450  -13.3880   20.4020 N   0  0  0  0  0  0  0  0  0  0  0  0
  -31.8980  -14.7960   20.0110 O   0  0  0  0  0  0  0  0  0  0  0  0
  -29.9850  -15.6150   20.9000 N   0  0  0  0  0  0  0  0  0  0  0  0
  -29.1390  -15.2720   21.3320 H   0  0  0  0  0  0  0  0  0  0  0  0
  -25.3710  -13.9250   20.4970 C   0  0  0  0  0  0  0  0  0  0  0  0
  -24.2910  -13.1630   20.8540 C   0  0  0  0  0  0  0  0  0  0  0  0
  -24.7420  -11.8070   20.8310 C   0  0  0  0  0  0  0  0  0  0  0  0
  -26.4100  -13.0320   20.2780 N   0  0  0  0  0  0  0  0  0  0  0  0
  -26.0350  -11.7540   20.5400 N   0  0  0  0  0  0  0  0  0  0  0  0
  -24.0010  -10.5520   21.0140 C   0  0  0  0  0  0  0  0  0  0  0  0
  -24.4200   -9.5750   21.9440 C   0  0  0  0  0  3  0  0  0  0  0  0
  -23.6780   -8.3880   22.1160 C   0  0  0  0  0  3  0  0  0  0  0  0
  -22.5020   -8.1680   21.3610 C   0  0  0  0  0  0  0  0  0  0  0  0
  -22.1000   -9.1330   20.4200 C   0  0  0  0  0  3  0  0  0  0  0  0
  -22.8440  -10.3150   20.2460 C   0  0  0  0  0  3  0  0  0  0  0  0
  -21.7330   -7.0320   21.4420 O   0  0  0  0  0  0  0  0  0  0  0  0
  -21.6770   -6.2810   22.5890 C   0  0  0  0  0  0  0  0  0  0  0  0
  -21.2530   -6.8310   23.8190 C   0  0  0  0  0  3  0  0  0  0  0  0
  -21.1440   -6.0090   24.9580 C   0  0  0  0  0  3  0  0  0  0  0  0
  -21.4480   -4.6380   24.8690 C   0  0  0  0  0  0  0  0  0  0  0  0
  -21.8610   -4.0870   23.6440 C   0  0  0  0  0  3  0  0  0  0  0  0
  -21.9720   -4.9060   22.5070 C   0  0  0  0  0  0  0  0  0  0  0  0
  -22.3520   -4.3660   21.3240 F   0  0  0  0  0  0  0  0  0  0  0  0
  -21.3320   -3.8450   25.9600 F   0  0  0  0  0  0  0  0  0  0  0  0
  -22.8940  -13.6540   21.1040 C   0  0  0  0  0  0  0  0  0  0  0  0
  -22.1540  -12.9640   21.9680 N   0  0  0  0  0  0  0  0  0  0  0  0
  -22.4680  -14.6780   20.5730 O   0  0  0  0  0  0  0  0  0  0  0  0
  -22.5140  -12.1340   22.4140 H   0  0  0  0  0  0  0  0  0  0  0  0
  -21.2130  -13.2640   22.1800 H   0  0  0  0  0  0  0  0  0  0  0  0
  -25.5430  -15.2950   20.3210 N   0  0  0  0  0  0  0  0  0  0  0  0
  -24.7630  -15.9370   20.4230 H   0  0  0  0  0  0  0  0  0  0  0  0
  -26.3960  -15.7470   20.0180 H   0  0  0  0  0  0  0  0  0  0  0  0
  -29.7910  -22.7510   20.5550 C   0  0  0  0  0  2  0  0  0  0  0  0
  -29.5890  -24.2150   19.9500 C   0  0  0  0  0  2  0  0  0  0  0  0
  -28.1790  -25.1140   21.9230 C   0  0  0  0  0  1  0  0  0  0  0  0
  -28.3820  -25.1380   20.3980 C   0  0  0  0  0  3  0  0  0  0  0  0
  -28.5130  -26.5600   20.0170 O   0  0  0  0  0  0  0  0  0  0  0  0
  -24.7300  -31.8200   23.1700 C   0  0  0  0  0  0  0  0  0  0  0  0
  -27.3630  -27.3600   20.0160 C   0  0  0  0  0  0  0  0  0  0  0  0
  -23.5150  -30.4230   21.5330 C   0  0  0  0  0  3  0  0  0  0  0  0
  -24.9620  -28.9060   20.0700 C   0  0  0  0  0  0  0  0  0  0  0  0
  -26.0420  -30.7840   21.3090 C   0  0  0  0  0  2  0  0  0  0  0  0
  -26.1300  -29.4160   20.6500 C   0  0  0  0  0  0  0  0  0  0  0  0
  -27.3330  -28.6540   20.6140 C   0  0  0  0  0  3  0  0  0  0  0  0
  -26.1740  -26.8980   19.4080 C   0  0  0  0  0  3  0  0  0  0  0  0
  -24.9850  -27.6510   19.4400 C   0  0  0  0  0  3  0  0  0  0  0  0
  -23.7100  -29.7530   20.1480 C   0  0  0  0  0  2  0  0  0  0  0  0
  -24.7820  -31.0270   22.0610 N   0  0  0  0  0  0  0  0  0  0  0  0
  -23.6530  -32.0800   23.7250 O   0  0  0  0  0  0  0  0  0  0  0  0
  -22.8780  -29.3950   22.4950 C   0  0  0  0  0  0  0  0  0  0  0  0
  -21.5520  -29.2150   22.3900 N   0  0  0  0  0  0  0  0  0  0  0  0
  -23.5750  -28.7610   23.2910 O   0  0  0  0  0  0  0  0  0  0  0  0
  -21.0510  -29.7700   21.7100 H   0  0  0  0  0  0  0  0  0  0  0  0
  -18.1880  -28.0070   22.9420 C   0  0  0  0  0  0  0  0  0  0  0  0
  -20.7500  -28.2650   23.1640 C   0  0  0  0  0  3  0  0  0  0  0  0
  -20.8450  -26.8450   22.5630 C   0  0  0  0  0  2  0  0  0  0  0  0
  -19.7220  -26.5340   21.5690 C   0  0  0  0  0  2  0  0  0  0  0  0
  -18.3530  -26.6680   22.2430 C   0  0  0  0  0  2  0  0  0  0  0  0
  -19.3140  -28.7650   23.3600 C   0  0  0  0  0  0  0  0  0  0  0  0
  -19.1060  -30.0190   23.9740 C   0  0  0  0  0  3  0  0  0  0  0  0
  -17.8050  -30.5130   24.1780 C   0  0  0  0  0  3  0  0  0  0  0  0
  -16.6930  -29.7520   23.7770 C   0  0  0  0  0  3  0  0  0  0  0  0
  -16.8850  -28.5010   23.1620 C   0  0  0  0  0  3  0  0  0  0  0  0
  -26.0170  -32.4550   23.7830 C   0  0  0  0  0  3  0  0  0  0  0  0
  -25.7070  -33.8530   24.1150 N   0  0  0  0  0  0  0  0  0  0  0  0
  -26.0330  -34.9060   23.3540 C   0  0  0  0  0  0  0  0  0  0  0  0
  -26.6950  -34.8030   22.3170 O   0  0  0  0  0  0  0  0  0  0  0  0
  -25.1150  -34.0070   24.9190 H   0  0  0  0  0  0  0  0  0  0  0  0
  -24.2950  -36.6930   23.0110 C   0  0  0  0  0  1  0  0  0  0  0  0
  -25.5460  -36.2950   23.8120 C   0  0  0  0  0  3  0  0  0  0  0  0
  -27.6870  -37.1850   24.6210 C   0  0  0  0  0  1  0  0  0  0  0  0
  -26.5740  -37.3510   23.6880 N   0  0  0  0  0  0  0  0  0  0  0  0
  -26.1680  -38.2710   23.8390 H   0  0  0  0  0  0  0  0  0  0  0  0
  -26.5460  -31.6850   25.0560 C   0  0  1  0  0  0  0  0  0  0  0  0
  -25.4640  -31.4490   26.1360 C   0  0  0  0  0  1  0  0  0  0  0  0
  -27.1200  -30.3050   24.6590 C   0  0  0  0  0  1  0  0  0  0  0  0
  -27.7050  -32.4780   25.7030 C   0  0  0  0  0  1  0  0  0  0  0  0
  1  4  1  0
  2  1  2  0
  2  5  1  0
  3 10  1  0
  4  3  1  0
  4 51  1  0
  5  6  1  0
  5  3  1  0
  7  2  1  0
  8  9  1  0
  9  7  1  0
 11 10  1  0
 12 11  1  0
 12 21  1  0
 13 21  1  0
 14 19  1  0
 15 16  1  0
 15 14  1  0
 17 16  1  0
 17 26  1  0
 17 18  1  0
 19 13  1  0
 19 18  1  0
 20 13  2  0
 21 22  1  0
 23 24  2  0
 24 43  1  0
 25 24  1  0
 25 28  1  0
 26 23  1  0
 26 27  1  0
 27 25  2  0
 28 29  1  0
 29 30  2  0
 31 34  1  0
 31 30  1  0
 32 31  2  0
 33 32  1  0
 33 28  2  0
 34 35  1  0
 35 36  1  0
 36 37  2  0
 38 37  1  0
 38 42  1  0
 39 38  2  0
 40 35  2  0
 40 39  1  0
 41 40  1  0
 43 44  1  0
 44 47  1  0
 44 46  1  0
 45 43  2  0
 48 49  1  0
 48 23  1  0
 50 48  1  0
 52 54  1  0
 52 51  1  0
 54 53  1  0
 55 54  1  0
 56 67  2  0
 57 55  1  0
 57 62  1  0
 58 66  1  0
 58 68  1  0
 59 65  1  0
 59 61  1  0
 60 66  1  0
 61 60  1  0
 62 61  2  0
 63 64  1  0
 63 57  2  0
 64 59  2  0
 65 58  1  0
 66 56  1  0
 68 70  2  0
 69 68  1  0
 71 69  1  0
 72 81  2  0
 72 77  1  0
 73 69  1  0
 73 77  1  0
 74 73  1  0
 75 76  1  0
 75 74  1  0
 76 72  1  0
 77 78  2  0
 78 79  1  0
 80 79  2  0
 81 80  1  0
 82 56  1  0
 82 83  1  0
 82 92  1  0
 83 86  1  0
 84 88  1  0
 84 83  1  0
 85 84  2  0
 88 87  1  0
 90 88  1  0
 90 91  1  0
 90 89  1  0
 92 95  1  1
 92 93  1  0
 94 92  1  0
M  ISO  4  13 100  21 100  54 101  55 101
M  END
>  <TORSDO>  (60) 
F 24

>  <SCORE>  (60) 
-11.108

>  <name>  (60) 
61

>  <ligand_id>  (60) 
61

>  <original_smiles>  (60) 
[H]c1c([H])c([H])c2c(c1[H])C([H])([H])C([H])([H])C([H])([H])C2([H])N([H])C(=O)C1([H])N(C(=O)C([H])(N([H])C(=O)C([H])(N([H])C([H])([H])[H])C([H])([H])[H])C(C([H])([H])[H])(C([H])([H])[H])C([H])([H])[H])C([H])([H])c2c([H])c(OC([H])(C([H])([H])[H])C([H])([H])C([H])([H])n3c([H])c(C([H])([H])C([H])([H])C([H])([H])[H])[n+]([H])c3C([H])([H])C([H])([H])C([H])([H])N([H])C(=O)N3C([H])([H])C([H])([H])C([H])([H])C([H])(n4nc(-c5c([H])c([H])c(Oc6c([H])c([H])c(F)c([H])c6F)c([H])c5[H])c(C(=O)N([H])[H])c4N([H])[H])C3([H])[H])c([H])c([H])c2C1([H])[H]

>  <smiles>  (60) 
[H]c1c([H])c([H])c2c(c1[H])C([H])([H])C([H])([H])C([H])([H])C2([H])N([H])C(=O)C1([H])N(C(=O)C([H])(N([H])C(=O)C([H])(N([H])C([H])([H])[H])C([H])([H])[H])C(C([H])([H])[H])(C([H])([H])[H])C([H])([H])[H])C([H])([H])c2c([H])c(OC([H])(C([H])([H])[H])C([H])([H])C([H])([H])n3c([H])c(C([H])([H])C([H])([H])C([H])([H])[H])[n+]([H])c3C([H])([H])C([H])([H])C([H])([H])N([H])C(=O)N3C([H])([H])C([H])([H])C([H])([H])C([H])(n4nc(-c5c([H])c([H])c(Oc6c([H])c([H])c(F)c([H])c6F)c([H])c5[H])c(C(=O)N([H])[H])c4N([H])[H])C3([H])[H])c([H])c([H])c2C1([H])[H]

$$$$
62:0:0
     RDKit          3D

 93101  0  0  1  0  0  0  0  0999 V2000
  -27.9690  -21.6300   19.5150 C   0  0  0  0  0  3  0  0  0  0  0  0
  -29.9560  -20.5600   20.3780 C   0  0  0  0  0  3  0  0  0  0  0  0
  -29.1530  -21.7320   20.2660 C   0  0  0  0  0  0  0  0  0  0  0  0
  -27.6150  -20.3880   18.9590 C   0  0  0  0  0  0  0  0  0  0  0  0
  -29.5450  -19.3370   19.7740 C   0  0  0  0  0  0  0  0  0  0  0  0
  -26.3510  -20.2270   18.1380 C   0  0  0  0  0  1  0  0  0  0  0  0
  -28.3680  -19.2740   19.1040 N   0  0  0  0  0  0  0  0  0  0  0  0
  -31.8560  -18.2900   20.1010 C   0  0  0  0  0  1  0  0  0  0  0  0
  -30.2850  -17.2910   18.4620 C   0  0  0  0  0  1  0  0  0  0  0  0
  -30.3590  -17.9970   19.8420 C   0  0  2  0  0  0  0  0  0  0  0  0
  -29.8370  -17.0720   21.0070 C   0  0  0  0  0  2  0  0  0  0  0  0
  -30.6550  -14.6030   20.5700 C   0  0  0  0  0  0  0  0  0  0  0  0
  -30.4730  -12.4140   19.4310 C   0  0  0  0  0  2  0  0  0  0  0  0
  -29.5540  -12.6140   18.2030 C   0  0  0  0  0  2  0  0  0  0  0  0
  -28.0670  -12.4610   18.5910 C   0  0  0  0  0  2  0  0  0  0  0  0
  -27.6890  -13.2900   19.8450 C   0  0  0  0  0  3  0  0  0  0  0  0
  -28.7170  -13.0490   20.9750 C   0  0  0  0  0  2  0  0  0  0  0  0
  -30.0510  -13.3870   20.4480 N   0  0  0  0  0  0  0  0  0  0  0  0
  -31.8290  -14.8080   20.2560 O   0  0  0  0  0  0  0  0  0  0  0  0
  -29.7800  -15.5920   20.8570 N   0  0  0  0  0  0  0  0  0  0  0  0
  -28.8550  -15.2270   21.0220 H   0  0  0  0  0  0  0  0  0  0  0  0
  -25.2730  -13.9120   20.4680 C   0  0  0  0  0  0  0  0  0  0  0  0
  -24.1950  -13.1460   20.8200 C   0  0  0  0  0  0  0  0  0  0  0  0
  -24.6600  -11.7950   20.8300 C   0  0  0  0  0  0  0  0  0  0  0  0
  -26.3240  -13.0250   20.2840 N   0  0  0  0  0  0  0  0  0  0  0  0
  -25.9570  -11.7500   20.5610 N   0  0  0  0  0  0  0  0  0  0  0  0
  -23.9320  -10.5350   21.0230 C   0  0  0  0  0  0  0  0  0  0  0  0
  -24.3480   -9.5810   21.9790 C   0  0  0  0  0  3  0  0  0  0  0  0
  -23.6240   -8.3820   22.1540 C   0  0  0  0  0  3  0  0  0  0  0  0
  -22.4710   -8.1290   21.3750 C   0  0  0  0  0  0  0  0  0  0  0  0
  -22.0770   -9.0700   20.4070 C   0  0  0  0  0  3  0  0  0  0  0  0
  -22.8010  -10.2600   20.2310 C   0  0  0  0  0  3  0  0  0  0  0  0
  -21.7190   -6.9830   21.4610 O   0  0  0  0  0  0  0  0  0  0  0  0
  -21.6540   -6.2520   22.6180 C   0  0  0  0  0  0  0  0  0  0  0  0
  -21.2060   -6.8180   23.8330 C   0  0  0  0  0  3  0  0  0  0  0  0
  -21.0840   -6.0120   24.9820 C   0  0  0  0  0  3  0  0  0  0  0  0
  -21.4000   -4.6420   24.9180 C   0  0  0  0  0  0  0  0  0  0  0  0
  -21.8430   -4.0760   23.7090 C   0  0  0  0  0  3  0  0  0  0  0  0
  -21.9670   -4.8790   22.5610 C   0  0  0  0  0  0  0  0  0  0  0  0
  -22.3720   -4.3240   21.3940 F   0  0  0  0  0  0  0  0  0  0  0  0
  -21.2790   -3.8660   26.0200 F   0  0  0  0  0  0  0  0  0  0  0  0
  -22.7880  -13.6250   21.0370 C   0  0  0  0  0  0  0  0  0  0  0  0
  -22.0320  -12.9430   21.8900 N   0  0  0  0  0  0  0  0  0  0  0  0
  -22.3640  -14.6370   20.4820 O   0  0  0  0  0  0  0  0  0  0  0  0
  -22.3900  -12.1280   22.3690 H   0  0  0  0  0  0  0  0  0  0  0  0
  -21.0840  -13.2420   22.0710 H   0  0  0  0  0  0  0  0  0  0  0  0
  -25.4420  -15.2790   20.2690 N   0  0  0  0  0  0  0  0  0  0  0  0
  -24.6650  -15.9280   20.3270 H   0  0  0  0  0  0  0  0  0  0  0  0
  -26.2890  -15.7090   19.9200 H   0  0  0  0  0  0  0  0  0  0  0  0
  -29.5200  -23.0300   21.0140 C   0  0  0  0  0  2  0  0  0  0  0  0
  -29.4100  -24.4120   20.2800 C   0  0  0  0  0  2  0  0  0  0  0  0
  -28.1430  -25.2680   20.5640 C   0  0  0  0  0  2  0  0  0  0  0  0
  -28.3000  -26.6710   20.2140 O   0  0  0  0  0  0  0  0  0  0  0  0
  -24.5400  -31.9540   23.2580 C   0  0  0  0  0  0  0  0  0  0  0  0
  -27.1470  -27.4460   20.2060 C   0  0  0  0  0  0  0  0  0  0  0  0
  -23.3310  -30.5510   21.6250 C   0  0  0  0  0  3  0  0  0  0  0  0
  -24.7740  -29.0040   20.2030 C   0  0  0  0  0  0  0  0  0  0  0  0
  -25.8630  -30.8870   21.4290 C   0  0  0  0  0  2  0  0  0  0  0  0
  -25.9410  -29.5110   20.7890 C   0  0  0  0  0  0  0  0  0  0  0  0
  -27.1340  -28.7450   20.7770 C   0  0  0  0  0  3  0  0  0  0  0  0
  -25.9620  -26.9710   19.6020 C   0  0  0  0  0  3  0  0  0  0  0  0
  -24.7820  -27.7360   19.6020 C   0  0  0  0  0  3  0  0  0  0  0  0
  -23.5380  -29.8740   20.2470 C   0  0  0  0  0  2  0  0  0  0  0  0
  -24.5970  -31.1430   22.1630 N   0  0  0  0  0  0  0  0  0  0  0  0
  -23.4580  -32.2350   23.7920 O   0  0  0  0  0  0  0  0  0  0  0  0
  -22.6720  -29.5330   22.5860 C   0  0  0  0  0  0  0  0  0  0  0  0
  -21.3480  -29.3550   22.4550 N   0  0  0  0  0  0  0  0  0  0  0  0
  -23.3500  -28.9100   23.4060 O   0  0  0  0  0  0  0  0  0  0  0  0
  -20.8610  -29.9120   21.7680 H   0  0  0  0  0  0  0  0  0  0  0  0
  -17.9670  -28.1780   22.9510 C   0  0  0  0  0  0  0  0  0  0  0  0
  -20.5250  -28.4240   23.2280 C   0  0  0  0  0  3  0  0  0  0  0  0
  -20.6220  -26.9900   22.6590 C   0  0  0  0  0  2  0  0  0  0  0  0
  -19.5210  -26.6670   21.6430 C   0  0  0  0  0  2  0  0  0  0  0  0
  -18.1390  -26.8230   22.2830 C   0  0  0  0  0  2  0  0  0  0  0  0
  -19.0880  -28.9360   23.3800 C   0  0  0  0  0  0  0  0  0  0  0  0
  -18.8740  -30.2040   23.9630 C   0  0  0  0  0  3  0  0  0  0  0  0
  -17.5720  -30.7140   24.1200 C   0  0  0  0  0  3  0  0  0  0  0  0
  -16.4650  -29.9520   23.7090 C   0  0  0  0  0  3  0  0  0  0  0  0
  -16.6620  -28.6850   23.1300 C   0  0  0  0  0  3  0  0  0  0  0  0
  -25.8250  -32.5850   23.8770 C   0  0  0  0  0  3  0  0  0  0  0  0
  -25.5240  -33.9870   24.1920 N   0  0  0  0  0  0  0  0  0  0  0  0
  -25.8770  -35.0310   23.4300 C   0  0  0  0  0  0  0  0  0  0  0  0
  -26.5630  -34.9130   22.4100 O   0  0  0  0  0  0  0  0  0  0  0  0
  -24.9140  -34.1540   24.9810 H   0  0  0  0  0  0  0  0  0  0  0  0
  -24.1800  -36.8400   23.0260 C   0  0  0  0  0  1  0  0  0  0  0  0
  -25.3960  -36.4260   23.8690 C   0  0  0  0  0  3  0  0  0  0  0  0
  -27.5200  -37.2860   24.7490 C   0  0  0  0  0  1  0  0  0  0  0  0
  -26.4440  -37.4660   23.7790 N   0  0  0  0  0  0  0  0  0  0  0  0
  -26.0470  -38.3920   23.9130 H   0  0  0  0  0  0  0  0  0  0  0  0
  -26.3360  -31.8210   25.1600 C   0  0  1  0  0  0  0  0  0  0  0  0
  -25.2390  -31.5970   26.2270 C   0  0  0  0  0  1  0  0  0  0  0  0
  -26.9150  -30.4390   24.7760 C   0  0  0  0  0  1  0  0  0  0  0  0
  -27.4920  -32.6150   25.8150 C   0  0  0  0  0  1  0  0  0  0  0  0
  1  3  1  0
  3  2  2  0
  3 50  1  0
  4  7  1  0
  4  1  2  0
  5 10  1  0
  5  2  1  0
  6  4  1  0
  7  5  2  0
 10  9  1  6
 10  8  1  0
 10 11  1  0
 12 20  1  0
 13 18  1  0
 14 15  1  0
 14 13  1  0
 16 15  1  0
 16 25  1  0
 16 17  1  0
 18 12  1  0
 18 17  1  0
 19 12  2  0
 20 11  1  0
 20 21  1  0
 22 23  2  0
 23 24  1  0
 23 42  1  0
 24 27  1  0
 25 22  1  0
 25 26  1  0
 26 24  2  0
 27 28  1  0
 28 29  2  0
 30 33  1  0
 30 29  1  0
 31 30  2  0
 32 31  1  0
 32 27  2  0
 33 34  1  0
 34 35  1  0
 35 36  2  0
 37 36  1  0
 37 41  1  0
 38 37  2  0
 39 34  2  0
 39 38  1  0
 40 39  1  0
 42 43  1  0
 43 46  1  0
 43 45  1  0
 44 42  2  0
 47 48  1  0
 47 22  1  0
 49 47  1  0
 51 52  1  0
 51 50  1  0
 53 52  1  0
 54 65  2  0
 55 53  1  0
 55 60  1  0
 56 64  1  0
 56 66  1  0
 57 63  1  0
 57 59  1  0
 58 64  1  0
 59 58  1  0
 60 59  2  0
 61 55  2  0
 62 61  1  0
 62 57  2  0
 63 56  1  0
 64 54  1  0
 66 68  2  0
 67 66  1  0
 69 67  1  0
 70 79  2  0
 70 75  1  0
 71 67  1  0
 71 75  1  0
 72 71  1  0
 73 74  1  0
 73 72  1  0
 74 70  1  0
 75 76  2  0
 76 77  1  0
 78 77  2  0
 79 78  1  0
 80 54  1  0
 80 81  1  0
 80 90  1  0
 81 84  1  0
 82 86  1  0
 82 81  1  0
 83 82  2  0
 86 85  1  0
 88 86  1  0
 88 89  1  0
 88 87  1  0
 90 93  1  1
 90 91  1  0
 92 90  1  0
M  ISO  4  12 100  20 100  52 101  53 101
M  END
>  <TORSDO>  (61) 
F 21

>  <SCORE>  (61) 
-13.711

>  <name>  (61) 
62

>  <ligand_id>  (61) 
62

>  <original_smiles>  (61) 
[H]c1c([H])c([H])c2c(c1[H])C([H])([H])C([H])([H])C([H])([H])C2([H])N([H])C(=O)C1([H])N(C(=O)C([H])(N([H])C(=O)C([H])(N([H])C([H])([H])[H])C([H])([H])[H])C(C([H])([H])[H])(C([H])([H])[H])C([H])([H])[H])C([H])([H])c2c([H])c(OC([H])([H])C([H])([H])C([H])([H])c3c([H])c(C([H])([H])[H])nc(C(C([H])([H])[H])(C([H])([H])[H])C([H])([H])N([H])C(=O)N4C([H])([H])C([H])([H])C([H])([H])C([H])(n5nc(-c6c([H])c([H])c(Oc7c([H])c([H])c(F)c([H])c7F)c([H])c6[H])c(C(=O)N([H])[H])c5N([H])[H])C4([H])[H])c3[H])c([H])c([H])c2C1([H])[H]

>  <smiles>  (61) 
[H]c1c([H])c([H])c2c(c1[H])C([H])([H])C([H])([H])C([H])([H])C2([H])N([H])C(=O)C1([H])N(C(=O)C([H])(N([H])C(=O)C([H])(N([H])C([H])([H])[H])C([H])([H])[H])C(C([H])([H])[H])(C([H])([H])[H])C([H])([H])[H])C([H])([H])c2c([H])c(OC([H])([H])C([H])([H])C([H])([H])c3c([H])c(C([H])([H])[H])nc(C(C([H])([H])[H])(C([H])([H])[H])C([H])([H])N([H])C(=O)N4C([H])([H])C([H])([H])C([H])([H])C([H])(n5nc(-c6c([H])c([H])c(Oc7c([H])c([H])c(F)c([H])c7F)c([H])c6[H])c(C(=O)N([H])[H])c5N([H])[H])C4([H])[H])c3[H])c([H])c([H])c2C1([H])[H]

$$$$
63:0:0
     RDKit          3D

 93101  0  0  1  0  0  0  0  0999 V2000
  -28.3490  -19.1930   19.7190 C   0  0  0  0  0  3  0  0  0  0  0  0
  -29.6390  -18.8150   20.1610 C   0  0  0  0  0  0  0  0  0  0  0  0
  -29.8350  -20.8270   21.2870 C   0  0  0  0  0  0  0  0  0  0  0  0
  -28.5310  -21.2010   20.8580 C   0  0  0  0  0  0  0  0  0  0  0  0
  -30.6860  -21.7110   22.1780 C   0  0  0  0  0  1  0  0  0  0  0  0
  -27.7940  -20.3830   20.0650 N   0  0  0  0  0  0  0  0  0  0  0  0
  -30.3860  -19.6370   20.9390 N   0  0  0  0  0  0  0  0  0  0  0  0
  -30.2460  -17.4610   19.8030 C   0  0  0  0  0  2  0  0  0  0  0  0
  -29.0420  -16.5700   21.9580 C   0  0  0  0  0  1  0  0  0  0  0  0
  -29.6860  -16.2380   20.5930 C   0  0  0  0  0  3  0  0  0  0  0  0
  -30.9220  -14.3180   19.6490 C   0  0  0  0  0  0  0  0  0  0  0  0
  -30.3850  -12.2210   18.4560 C   0  0  0  0  0  2  0  0  0  0  0  0
  -29.3190  -12.4450   17.3680 C   0  0  0  0  0  2  0  0  0  0  0  0
  -27.9030  -12.3270   17.9630 C   0  0  0  0  0  2  0  0  0  0  0  0
  -27.7270  -13.1780   19.2460 C   0  0  0  0  0  3  0  0  0  0  0  0
  -28.8890  -12.9350   20.2340 C   0  0  0  0  0  2  0  0  0  0  0  0
  -30.1580  -13.1970   19.5340 N   0  0  0  0  0  0  0  0  0  0  0  0
  -31.8930  -14.5430   18.9190 O   0  0  0  0  0  0  0  0  0  0  0  0
  -31.7150  -15.3220   21.7050 C   0  0  0  0  0  1  0  0  0  0  0  0
  -30.6560  -15.1210   20.7070 N   0  0  0  0  0  0  0  0  0  0  0  0
  -25.4540  -13.8550   20.2480 C   0  0  0  0  0  0  0  0  0  0  0  0
  -24.4050  -13.1120   20.7160 C   0  0  0  0  0  0  0  0  0  0  0  0
  -24.8030  -11.7450   20.5930 C   0  0  0  0  0  0  0  0  0  0  0  0
  -26.4280  -12.9430   19.8720 N   0  0  0  0  0  0  0  0  0  0  0  0
  -26.0460  -11.6670   20.1350 N   0  0  0  0  0  0  0  0  0  0  0  0
  -24.0540  -10.5050   20.8310 C   0  0  0  0  0  0  0  0  0  0  0  0
  -24.5050   -9.5350   21.7540 C   0  0  0  0  0  3  0  0  0  0  0  0
  -23.7580   -8.3580   21.9760 C   0  0  0  0  0  3  0  0  0  0  0  0
  -22.5460   -8.1440   21.2780 C   0  0  0  0  0  0  0  0  0  0  0  0
  -22.1140   -9.1010   20.3430 C   0  0  0  0  0  3  0  0  0  0  0  0
  -22.8610  -10.2690   20.1190 C   0  0  0  0  0  3  0  0  0  0  0  0
  -21.7680   -7.0190   21.4100 O   0  0  0  0  0  0  0  0  0  0  0  0
  -21.6840   -6.3400   22.5990 C   0  0  0  0  0  0  0  0  0  0  0  0
  -21.2470   -6.9670   23.7870 C   0  0  0  0  0  3  0  0  0  0  0  0
  -21.1070   -6.2140   24.9700 C   0  0  0  0  0  3  0  0  0  0  0  0
  -21.3950   -4.8350   24.9670 C   0  0  0  0  0  0  0  0  0  0  0  0
  -21.8250   -4.2090   23.7840 C   0  0  0  0  0  3  0  0  0  0  0  0
  -21.9660   -4.9580   22.6030 C   0  0  0  0  0  0  0  0  0  0  0  0
  -22.3600   -4.3450   21.4610 F   0  0  0  0  0  0  0  0  0  0  0  0
  -21.2530   -4.1110   26.1010 F   0  0  0  0  0  0  0  0  0  0  0  0
  -23.0700  -13.6310   21.1650 C   0  0  0  0  0  0  0  0  0  0  0  0
  -22.4320  -12.9490   22.1120 N   0  0  0  0  0  0  0  0  0  0  0  0
  -22.6040  -14.6750   20.7100 O   0  0  0  0  0  0  0  0  0  0  0  0
  -22.8230  -12.1050   22.4990 H   0  0  0  0  0  0  0  0  0  0  0  0
  -21.5430  -13.2820   22.4560 H   0  0  0  0  0  0  0  0  0  0  0  0
  -25.6540  -15.2240   20.0910 N   0  0  0  0  0  0  0  0  0  0  0  0
  -24.9350  -15.9040   20.3110 H   0  0  0  0  0  0  0  0  0  0  0  0
  -26.4800  -15.6380   19.6780 H   0  0  0  0  0  0  0  0  0  0  0  0
  -27.8370  -22.4820   21.3260 C   0  0  0  0  0  2  0  0  0  0  0  0
  -27.7990  -23.6400   20.3030 C   0  0  0  0  0  2  0  0  0  0  0  0
  -29.0900  -24.4800   20.2350 C   0  0  0  0  0  2  0  0  0  0  0  0
  -29.0640  -25.6260   19.1970 C   0  0  0  0  0  2  0  0  0  0  0  0
  -28.8500  -26.9140   19.7870 O   0  0  0  0  0  0  0  0  0  0  0  0
  -24.7060  -31.6650   23.0600 C   0  0  0  0  0  0  0  0  0  0  0  0
  -27.6030  -27.5060   19.8050 C   0  0  0  0  0  0  0  0  0  0  0  0
  -23.5780  -30.2520   21.3690 C   0  0  0  0  0  3  0  0  0  0  0  0
  -25.1130  -28.8550   19.8880 C   0  0  0  0  0  0  0  0  0  0  0  0
  -26.0750  -30.7690   21.1790 C   0  0  0  0  0  2  0  0  0  0  0  0
  -26.2380  -29.4270   20.4920 C   0  0  0  0  0  0  0  0  0  0  0  0
  -27.4800  -28.7580   20.4520 C   0  0  0  0  0  3  0  0  0  0  0  0
  -26.4540  -26.9410   19.2030 C   0  0  0  0  0  3  0  0  0  0  0  0
  -25.2150  -27.6100   19.2450 C   0  0  0  0  0  3  0  0  0  0  0  0
  -23.8210  -29.6340   19.9660 C   0  0  0  0  0  2  0  0  0  0  0  0
  -24.8030  -30.9100   21.9270 N   0  0  0  0  0  0  0  0  0  0  0  0
  -23.6130  -31.8510   23.6120 O   0  0  0  0  0  0  0  0  0  0  0  0
  -22.9940  -29.1620   22.2940 C   0  0  0  0  0  0  0  0  0  0  0  0
  -21.6800  -28.9130   22.1710 N   0  0  0  0  0  0  0  0  0  0  0  0
  -23.7190  -28.5430   23.0790 O   0  0  0  0  0  0  0  0  0  0  0  0
  -21.1550  -29.4660   21.5080 H   0  0  0  0  0  0  0  0  0  0  0  0
  -18.3810  -27.5210   22.6460 C   0  0  0  0  0  0  0  0  0  0  0  0
  -20.9250  -27.9020   22.9080 C   0  0  0  0  0  3  0  0  0  0  0  0
  -21.0950  -26.5030   22.2700 C   0  0  0  0  0  2  0  0  0  0  0  0
  -20.0020  -26.1660   21.2510 C   0  0  0  0  0  2  0  0  0  0  0  0
  -18.6220  -26.2110   21.9140 C   0  0  0  0  0  2  0  0  0  0  0  0
  -19.4630  -28.3210   23.0990 C   0  0  0  0  0  0  0  0  0  0  0  0
  -19.1860  -29.5470   23.7430 C   0  0  0  0  0  3  0  0  0  0  0  0
  -17.8590  -29.9720   23.9390 C   0  0  0  0  0  3  0  0  0  0  0  0
  -16.7910  -29.1680   23.5030 C   0  0  0  0  0  3  0  0  0  0  0  0
  -17.0540  -27.9440   22.8630 C   0  0  0  0  0  3  0  0  0  0  0  0
  -25.9550  -32.3470   23.6990 C   0  0  0  0  0  3  0  0  0  0  0  0
  -25.5690  -33.7140   24.0760 N   0  0  0  0  0  0  0  0  0  0  0  0
  -25.8410  -34.8070   23.3520 C   0  0  0  0  0  0  0  0  0  0  0  0
  -26.5160  -34.7750   22.3190 O   0  0  0  0  0  0  0  0  0  0  0  0
  -24.9680  -33.8070   24.8820 H   0  0  0  0  0  0  0  0  0  0  0  0
  -24.0140  -36.5070   23.0510 C   0  0  0  0  0  1  0  0  0  0  0  0
  -25.2750  -36.1480   23.8530 C   0  0  0  0  0  3  0  0  0  0  0  0
  -27.3550  -37.1230   24.7200 C   0  0  0  0  0  1  0  0  0  0  0  0
  -26.2460  -37.2610   23.7790 N   0  0  0  0  0  0  0  0  0  0  0  0
  -25.7880  -38.1520   23.9570 H   0  0  0  0  0  0  0  0  0  0  0  0
  -26.5250  -31.5640   24.9460 C   0  0  1  0  0  0  0  0  0  0  0  0
  -25.4530  -31.2270   26.0100 C   0  0  0  0  0  1  0  0  0  0  0  0
  -27.1820  -30.2360   24.5010 C   0  0  0  0  0  1  0  0  0  0  0  0
  -27.6330  -32.3990   25.6300 C   0  0  0  0  0  1  0  0  0  0  0  0
  1  6  2  0
  1  2  1  0
  2  7  2  0
  3  5  1  0
  4  3  2  0
  4 49  1  0
  6  4  1  0
  7  3  1  0
  8  2  1  0
  8 10  1  0
 10 20  1  0
 10  9  1  0
 11 20  1  0
 12 17  1  0
 13 14  1  0
 13 12  1  0
 15 14  1  0
 15 24  1  0
 15 16  1  0
 17 11  1  0
 17 16  1  0
 18 11  2  0
 20 19  1  0
 21 22  2  0
 22 41  1  0
 23 22  1  0
 23 26  1  0
 24 25  1  0
 24 21  1  0
 25 23  2  0
 26 27  1  0
 27 28  2  0
 29 32  1  0
 29 28  1  0
 30 29  2  0
 31 30  1  0
 31 26  2  0
 32 33  1  0
 33 38  2  0
 33 34  1  0
 34 35  2  0
 36 35  1  0
 36 40  1  0
 37 36  2  0
 38 37  1  0
 39 38  1  0
 41 42  1  0
 42 45  1  0
 42 44  1  0
 43 41  2  0
 46 21  1  0
 46 47  1  0
 48 46  1  0
 50 49  1  0
 51 50  1  0
 52 53  1  0
 52 51  1  0
 53 55  1  0
 54 65  2  0
 55 60  1  0
 56 64  1  0
 56 66  1  0
 57 63  1  0
 57 59  1  0
 58 64  1  0
 59 58  1  0
 60 59  2  0
 61 62  1  0
 61 55  2  0
 62 57  2  0
 63 56  1  0
 64 54  1  0
 66 68  2  0
 67 66  1  0
 69 67  1  0
 70 79  2  0
 70 75  1  0
 71 67  1  0
 71 75  1  0
 72 71  1  0
 73 74  1  0
 73 72  1  0
 74 70  1  0
 75 76  2  0
 76 77  1  0
 78 77  2  0
 79 78  1  0
 80 54  1  0
 80 81  1  0
 80 90  1  0
 81 84  1  0
 82 86  1  0
 82 81  1  0
 83 82  2  0
 86 85  1  0
 88 86  1  0
 88 89  1  0
 88 87  1  0
 90 93  1  1
 90 91  1  0
 92 90  1  0
M  ISO  4  11 100  20 100  52 101  53 101
M  END
>  <TORSDO>  (62) 
F 22

>  <SCORE>  (62) 
-10.923

>  <name>  (62) 
63

>  <ligand_id>  (62) 
63

>  <original_smiles>  (62) 
[H]c1nc(C([H])([H])C([H])([H])C([H])([H])C([H])([H])Oc2c([H])c([H])c3c(c2[H])C([H])([H])N(C(=O)C([H])(N([H])C(=O)C([H])(N([H])C([H])([H])[H])C([H])([H])[H])C(C([H])([H])[H])(C([H])([H])[H])C([H])([H])[H])C([H])(C(=O)N([H])C2([H])c4c([H])c([H])c([H])c([H])c4C([H])([H])C([H])([H])C2([H])[H])C3([H])[H])c(C([H])([H])[H])nc1C([H])([H])C([H])(N(C(=O)N1C([H])([H])C([H])([H])C([H])([H])C([H])(n2nc(-c3c([H])c([H])c(Oc4c([H])c([H])c(F)c([H])c4F)c([H])c3[H])c(C(=O)N([H])[H])c2N([H])[H])C1([H])[H])C([H])([H])[H])C([H])([H])[H]

>  <smiles>  (62) 
[H]c1nc(C([H])([H])C([H])([H])C([H])([H])C([H])([H])Oc2c([H])c([H])c3c(c2[H])C([H])([H])N(C(=O)C([H])(N([H])C(=O)C([H])(N([H])C([H])([H])[H])C([H])([H])[H])C(C([H])([H])[H])(C([H])([H])[H])C([H])([H])[H])C([H])(C(=O)N([H])C2([H])c4c([H])c([H])c([H])c([H])c4C([H])([H])C([H])([H])C2([H])[H])C3([H])[H])c(C([H])([H])[H])nc1C([H])([H])C([H])(N(C(=O)N1C([H])([H])C([H])([H])C([H])([H])C([H])(n2nc(-c3c([H])c([H])c(Oc4c([H])c([H])c(F)c([H])c4F)c([H])c3[H])c(C(=O)N([H])[H])c2N([H])[H])C1([H])[H])C([H])([H])[H])C([H])([H])[H]

$$$$
64:0:0
     RDKit          3D

 90 98  0  0  1  0  0  0  0  0999 V2000
  -28.5790  -21.5860   21.0680 C   0  0  0  0  0  3  0  0  0  0  0  0
  -29.1810  -19.1130   21.5020 C   0  0  0  0  0  3  0  0  0  0  0  0
  -29.1830  -19.7080   19.4250 C   0  0  0  0  0  3  0  0  0  0  0  0
  -29.5130  -18.0080   20.7340 C   0  0  0  0  0  0  0  0  0  0  0  0
  -29.5260  -18.4140   19.3970 N   0  0  0  0  0  0  0  0  0  0  0  0
  -28.9680  -20.2130   20.6530 N   0  0  0  0  0  0  0  0  0  0  0  0
  -30.7550  -16.5070   22.3650 C   0  0  0  0  0  1  0  0  0  0  0  0
  -29.7970  -16.5560   21.1590 C   0  0  0  0  0  3  0  0  0  0  0  0
  -31.0190  -14.6110   20.0110 C   0  0  0  0  0  0  0  0  0  0  0  0
  -30.6070  -12.4340   18.9270 C   0  0  0  0  0  2  0  0  0  0  0  0
  -29.6260  -12.6820   17.7640 C   0  0  0  0  0  2  0  0  0  0  0  0
  -28.1730  -12.5770   18.2680 C   0  0  0  0  0  2  0  0  0  0  0  0
  -27.9200  -13.4050   19.5600 C   0  0  0  0  0  3  0  0  0  0  0  0
  -29.0300  -13.1770   20.6090 C   0  0  0  0  0  2  0  0  0  0  0  0
  -30.3150  -13.4450   19.9540 N   0  0  0  0  0  0  0  0  0  0  0  0
  -32.1750  -14.6960   19.5970 O   0  0  0  0  0  0  0  0  0  0  0  0
  -30.2820  -15.7440   20.0260 N   0  0  0  0  0  0  0  0  0  0  0  0
  -30.6060  -16.3980   19.3260 H   0  0  0  0  0  0  0  0  0  0  0  0
  -25.5970  -14.0560   20.4400 C   0  0  0  0  0  0  0  0  0  0  0  0
  -24.5290  -13.3020   20.8490 C   0  0  0  0  0  0  0  0  0  0  0  0
  -24.9460  -11.9400   20.7440 C   0  0  0  0  0  0  0  0  0  0  0  0
  -26.5960  -13.1510   20.1130 N   0  0  0  0  0  0  0  0  0  0  0  0
  -26.2130  -11.8720   20.3560 N   0  0  0  0  0  0  0  0  0  0  0  0
  -24.1910  -10.6950   20.9370 C   0  0  0  0  0  0  0  0  0  0  0  0
  -24.6100   -9.7120   21.8610 C   0  0  0  0  0  3  0  0  0  0  0  0
  -23.8560   -8.5320   22.0420 C   0  0  0  0  0  3  0  0  0  0  0  0
  -22.6700   -8.3270   21.3000 C   0  0  0  0  0  0  0  0  0  0  0  0
  -22.2690   -9.2980   20.3640 C   0  0  0  0  0  3  0  0  0  0  0  0
  -23.0240  -10.4690   20.1800 C   0  0  0  0  0  3  0  0  0  0  0  0
  -21.8880   -7.2010   21.3910 O   0  0  0  0  0  0  0  0  0  0  0  0
  -21.7800   -6.4930   22.5620 C   0  0  0  0  0  0  0  0  0  0  0  0
  -21.3310   -7.0950   23.7580 C   0  0  0  0  0  3  0  0  0  0  0  0
  -21.1640   -6.3140   24.9190 C   0  0  0  0  0  3  0  0  0  0  0  0
  -21.4380   -4.9340   24.8860 C   0  0  0  0  0  0  0  0  0  0  0  0
  -21.8820   -4.3320   23.6950 C   0  0  0  0  0  3  0  0  0  0  0  0
  -22.0480   -5.1090   22.5360 C   0  0  0  0  0  0  0  0  0  0  0  0
  -22.4530   -4.5200   21.3850 F   0  0  0  0  0  0  0  0  0  0  0  0
  -21.2730   -4.1830   26.0000 F   0  0  0  0  0  0  0  0  0  0  0  0
  -23.1680  -13.8130   21.2250 C   0  0  0  0  0  0  0  0  0  0  0  0
  -22.4810  -13.1170   22.1250 N   0  0  0  0  0  0  0  0  0  0  0  0
  -22.7240  -14.8590   20.7560 O   0  0  0  0  0  0  0  0  0  0  0  0
  -22.8540  -12.2670   22.5240 H   0  0  0  0  0  0  0  0  0  0  0  0
  -21.5720  -13.4420   22.4220 H   0  0  0  0  0  0  0  0  0  0  0  0
  -25.7940  -15.4250   20.2990 N   0  0  0  0  0  0  0  0  0  0  0  0
  -25.0530  -16.0970   20.4660 H   0  0  0  0  0  0  0  0  0  0  0  0
  -26.6280  -15.8490   19.9090 H   0  0  0  0  0  0  0  0  0  0  0  0
  -28.6030  -22.7270   19.9890 C   0  0  0  0  0  3  0  0  0  0  0  0
  -28.2390  -24.1700   20.5030 C   0  0  0  0  0  3  0  0  0  0  0  0
  -28.4700  -25.3370   19.4880 C   0  0  0  0  0  3  0  0  0  0  0  0
  -28.3770  -26.6730   20.0460 O   0  0  0  0  0  0  0  0  0  0  0  0
  -24.5990  -31.8710   23.1730 C   0  0  0  0  0  0  0  0  0  0  0  0
  -27.1880  -27.3910   20.0530 C   0  0  0  0  0  0  0  0  0  0  0  0
  -23.3660  -30.4650   21.5560 C   0  0  0  0  0  3  0  0  0  0  0  0
  -24.7940  -28.9270   20.1070 C   0  0  0  0  0  0  0  0  0  0  0  0
  -25.8910  -30.8200   21.3120 C   0  0  0  0  0  2  0  0  0  0  0  0
  -25.9660  -29.4460   20.6700 C   0  0  0  0  0  0  0  0  0  0  0  0
  -27.1620  -28.6860   20.6370 C   0  0  0  0  0  3  0  0  0  0  0  0
  -25.9870  -26.8920   19.4990 C   0  0  0  0  0  3  0  0  0  0  0  0
  -24.8020  -27.6510   19.5210 C   0  0  0  0  0  3  0  0  0  0  0  0
  -23.5500  -29.7860   20.1730 C   0  0  0  0  0  2  0  0  0  0  0  0
  -24.6380  -31.0690   22.0710 N   0  0  0  0  0  0  0  0  0  0  0  0
  -23.5270  -32.1410   23.7330 O   0  0  0  0  0  0  0  0  0  0  0  0
  -22.7350  -29.4430   22.5310 C   0  0  0  0  0  0  0  0  0  0  0  0
  -21.4110  -29.2390   22.4150 N   0  0  0  0  0  0  0  0  0  0  0  0
  -23.4330  -28.8410   23.3520 O   0  0  0  0  0  0  0  0  0  0  0  0
  -20.9110  -29.7650   21.7110 H   0  0  0  0  0  0  0  0  0  0  0  0
  -18.0640  -28.0020   22.9670 C   0  0  0  0  0  0  0  0  0  0  0  0
  -20.6180  -28.3080   23.2180 C   0  0  0  0  0  3  0  0  0  0  0  0
  -20.7350  -26.8670   22.6740 C   0  0  0  0  0  2  0  0  0  0  0  0
  -19.6440  -26.5350   21.6500 C   0  0  0  0  0  2  0  0  0  0  0  0
  -18.2650  -26.6460   22.3070 C   0  0  0  0  0  2  0  0  0  0  0  0
  -19.1710  -28.7880   23.3800 C   0  0  0  0  0  0  0  0  0  0  0  0
  -18.9360  -30.0550   23.9550 C   0  0  0  0  0  3  0  0  0  0  0  0
  -17.6240  -30.5370   24.1190 C   0  0  0  0  0  3  0  0  0  0  0  0
  -16.5300  -29.7500   23.7210 C   0  0  0  0  0  3  0  0  0  0  0  0
  -16.7500  -28.4830   23.1520 C   0  0  0  0  0  3  0  0  0  0  0  0
  -25.8930  -32.5090   23.7670 C   0  0  0  0  0  3  0  0  0  0  0  0
  -25.5790  -33.9030   24.1140 N   0  0  0  0  0  0  0  0  0  0  0  0
  -25.8970  -34.9640   23.3610 C   0  0  0  0  0  0  0  0  0  0  0  0
  -26.5540  -34.8740   22.3210 O   0  0  0  0  0  0  0  0  0  0  0  0
  -24.9880  -34.0460   24.9210 H   0  0  0  0  0  0  0  0  0  0  0  0
  -24.1600  -36.7540   23.0390 C   0  0  0  0  0  1  0  0  0  0  0  0
  -25.4080  -36.3460   23.8370 C   0  0  0  0  0  3  0  0  0  0  0  0
  -27.5440  -37.2270   24.6650 C   0  0  0  0  0  1  0  0  0  0  0  0
  -26.4370  -37.4040   23.7290 N   0  0  0  0  0  0  0  0  0  0  0  0
  -26.0290  -38.3210   23.8900 H   0  0  0  0  0  0  0  0  0  0  0  0
  -26.4500  -31.7330   25.0230 C   0  0  1  0  0  0  0  0  0  0  0  0
  -25.3860  -31.4580   26.1110 C   0  0  0  0  0  1  0  0  0  0  0  0
  -27.0500  -30.3710   24.5990 C   0  0  0  0  0  1  0  0  0  0  0  0
  -27.6010  -32.5400   25.6700 C   0  0  0  0  0  1  0  0  0  0  0  0
  3  6  1  0
  4  8  1  0
  4  2  2  0
  5  3  2  0
  5  4  1  0
  6  1  1  0
  6  2  1  0
  8  7  1  0
  9 17  1  0
 10 15  1  0
 11 12  1  0
 11 10  1  0
 13 12  1  0
 13 22  1  0
 13 14  1  0
 15  9  1  0
 15 14  1  0
 16  9  2  0
 17  8  1  0
 18 17  1  0
 19 20  2  0
 20 39  1  0
 21 20  1  0
 21 24  1  0
 22 23  1  0
 22 19  1  0
 23 21  2  0
 24 25  1  0
 25 26  2  0
 27 30  1  0
 27 26  1  0
 28 27  2  0
 29 28  1  0
 29 24  2  0
 30 31  1  0
 31 32  1  0
 32 33  2  0
 34 33  1  0
 34 38  1  0
 35 34  2  0
 36 31  2  0
 36 35  1  0
 37 36  1  0
 39 40  1  0
 40 43  1  0
 40 42  1  0
 41 39  2  0
 44 19  1  0
 44 45  1  0
 46 44  1  0
 47 48  1  0
 47  1  2  0
 49 50  1  0
 49 48  2  0
 50 52  1  0
 51 62  2  0
 52 57  1  0
 53 61  1  0
 53 63  1  0
 54 60  1  0
 54 56  1  0
 55 61  1  0
 56 55  1  0
 57 56  2  0
 58 59  1  0
 58 52  2  0
 59 54  2  0
 60 53  1  0
 61 51  1  0
 63 65  2  0
 64 63  1  0
 66 64  1  0
 67 76  2  0
 67 72  1  0
 68 64  1  0
 68 72  1  0
 69 68  1  0
 70 71  1  0
 70 69  1  0
 71 67  1  0
 72 73  2  0
 73 74  1  0
 75 74  2  0
 76 75  1  0
 77 51  1  0
 77 78  1  0
 77 87  1  0
 78 81  1  0
 79 83  1  0
 79 78  1  0
 80 79  2  0
 83 82  1  0
 85 83  1  0
 85 86  1  0
 85 84  1  0
 87 90  1  1
 87 88  1  0
 89 87  1  0
M  ISO  4   9 100  17 100  49 101  50 101
M  END
>  <TORSDO>  (63) 
F 21

>  <SCORE>  (63) 
-12.624

>  <name>  (63) 
64

>  <ligand_id>  (63) 
64

>  <original_smiles>  (63) 
[H]c1c([H])c([H])c2c(c1[H])C([H])([H])C([H])([H])C([H])([H])C2([H])N([H])C(=O)C1([H])N(C(=O)C([H])(N([H])C(=O)C([H])(N([H])C([H])([H])[H])C([H])([H])[H])C(C([H])([H])[H])(C([H])([H])[H])C([H])([H])[H])C([H])([H])c2c([H])c(OC([H])([H])C([H])([H])C([H])([H])C([H])([H])n3c([H])nc(C([H])(N([H])C(=O)N4C([H])([H])C([H])([H])C([H])([H])C([H])(n5nc(-c6c([H])c([H])c(Oc7c([H])c([H])c(F)c([H])c7F)c([H])c6[H])c(C(=O)N([H])[H])c5N([H])[H])C4([H])[H])C([H])([H])[H])c3[H])c([H])c([H])c2C1([H])[H]

>  <smiles>  (63) 
[H]c1c([H])c([H])c2c(c1[H])C([H])([H])C([H])([H])C([H])([H])C2([H])N([H])C(=O)C1([H])N(C(=O)C([H])(N([H])C(=O)C([H])(N([H])C([H])([H])[H])C([H])([H])[H])C(C([H])([H])[H])(C([H])([H])[H])C([H])([H])[H])C([H])([H])c2c([H])c(OC([H])([H])C([H])([H])C([H])([H])C([H])([H])n3c([H])nc(C([H])(N([H])C(=O)N4C([H])([H])C([H])([H])C([H])([H])C([H])(n5nc(-c6c([H])c([H])c(Oc7c([H])c([H])c(F)c([H])c7F)c([H])c6[H])c(C(=O)N([H])[H])c5N([H])[H])C4([H])[H])C([H])([H])[H])c3[H])c([H])c([H])c2C1([H])[H]

$$$$
65:0:0
     RDKit          3D

 94102  0  0  1  0  0  0  0  0999 V2000
  -29.9200  -22.2220   21.4650 C   0  0  0  0  0  3  0  0  0  0  0  0
  -30.2440  -20.8590   21.7370 C   0  0  0  0  0  3  0  0  0  0  0  0
  -29.1780  -22.3190   20.3230 C   0  0  0  0  0  0  0  0  0  0  0  0
  -29.6650  -20.0210   20.8130 C   0  0  0  0  0  0  0  0  0  0  0  0
  -29.1210  -20.9450   19.8450 N   0  0  0  0  0  0  0  0  0  0  0  0
  -29.1250  -21.2290   17.3370 C   0  0  0  0  0  1  0  0  0  0  0  0
  -27.0340  -20.3790   18.5350 C   0  0  0  0  0  1  0  0  0  0  0  0
  -28.5710  -20.4810   18.5630 C   0  0  0  0  0  3  0  0  0  0  0  0
  -28.0510  -17.9990   20.8840 C   0  0  0  0  0  1  0  0  0  0  0  0
  -29.9820  -18.0270   22.3680 C   0  0  0  0  0  1  0  0  0  0  0  0
  -29.5350  -18.4130   20.9400 C   0  0  2  0  0  0  0  0  0  0  0  0
  -30.3720  -17.3760   20.0170 C   0  0  0  0  0  2  0  0  0  0  0  0
  -30.8980  -14.7670   19.8540 C   0  0  0  0  0  0  0  0  0  0  0  0
  -30.5690  -12.5580   18.7360 C   0  0  0  0  0  2  0  0  0  0  0  0
  -29.5240  -12.7160   17.6080 C   0  0  0  0  0  2  0  0  0  0  0  0
  -28.0900  -12.5630   18.1490 C   0  0  0  0  0  2  0  0  0  0  0  0
  -27.8510  -13.3790   19.4470 C   0  0  0  0  0  3  0  0  0  0  0  0
  -29.0010  -13.1990   20.4660 C   0  0  0  0  0  2  0  0  0  0  0  0
  -30.2540  -13.5540   19.7850 N   0  0  0  0  0  0  0  0  0  0  0  0
  -32.0350  -14.8950   19.3910 O   0  0  0  0  0  0  0  0  0  0  0  0
  -30.1570  -15.8700   20.2420 N   0  0  0  0  0  0  0  0  0  0  0  0
  -29.2560  -15.6340   20.6280 H   0  0  0  0  0  0  0  0  0  0  0  0
  -25.5380  -13.9690   20.3830 C   0  0  0  0  0  0  0  0  0  0  0  0
  -24.4970  -13.1940   20.8130 C   0  0  0  0  0  0  0  0  0  0  0  0
  -24.9370  -11.8370   20.7000 C   0  0  0  0  0  0  0  0  0  0  0  0
  -26.5500  -13.0880   20.0390 N   0  0  0  0  0  0  0  0  0  0  0  0
  -26.2020  -11.7990   20.2970 N   0  0  0  0  0  0  0  0  0  0  0  0
  -24.2080  -10.5770   20.8960 C   0  0  0  0  0  0  0  0  0  0  0  0
  -24.6480   -9.6020   21.8200 C   0  0  0  0  0  3  0  0  0  0  0  0
  -23.9140   -8.4130   22.0130 C   0  0  0  0  0  3  0  0  0  0  0  0
  -22.7250   -8.1860   21.2790 C   0  0  0  0  0  0  0  0  0  0  0  0
  -22.3020   -9.1470   20.3450 C   0  0  0  0  0  3  0  0  0  0  0  0
  -23.0370  -10.3290   20.1510 C   0  0  0  0  0  3  0  0  0  0  0  0
  -21.9640   -7.0470   21.3780 O   0  0  0  0  0  0  0  0  0  0  0  0
  -21.8630   -6.3520   22.5560 C   0  0  0  0  0  0  0  0  0  0  0  0
  -21.3980   -6.9620   23.7420 C   0  0  0  0  0  3  0  0  0  0  0  0
  -21.2450   -6.1950   24.9140 C   0  0  0  0  0  3  0  0  0  0  0  0
  -21.5460   -4.8200   24.8990 C   0  0  0  0  0  0  0  0  0  0  0  0
  -22.0040   -4.2100   23.7190 C   0  0  0  0  0  3  0  0  0  0  0  0
  -22.1610   -4.9750   22.5490 C   0  0  0  0  0  0  0  0  0  0  0  0
  -22.5840   -4.3790   21.4090 F   0  0  0  0  0  0  0  0  0  0  0  0
  -21.3900   -4.0810   26.0240 F   0  0  0  0  0  0  0  0  0  0  0  0
  -23.1310  -13.6750   21.2080 C   0  0  0  0  0  0  0  0  0  0  0  0
  -22.4740  -12.9790   22.1280 N   0  0  0  0  0  0  0  0  0  0  0  0
  -22.6610  -14.7120   20.7360 O   0  0  0  0  0  0  0  0  0  0  0  0
  -22.8630  -12.1400   22.5310 H   0  0  0  0  0  0  0  0  0  0  0  0
  -21.5680  -13.2950   22.4440 H   0  0  0  0  0  0  0  0  0  0  0  0
  -25.7010  -15.3430   20.2310 N   0  0  0  0  0  0  0  0  0  0  0  0
  -24.9290  -15.9860   20.3710 H   0  0  0  0  0  0  0  0  0  0  0  0
  -26.5050  -15.7850   19.8070 H   0  0  0  0  0  0  0  0  0  0  0  0
  -26.9900  -23.5150   19.7930 C   0  0  0  0  0  1  0  0  0  0  0  0
  -28.5210  -23.6560   19.7390 C   0  0  0  0  0  3  0  0  0  0  0  0
  -28.8480  -25.1000   20.4190 C   0  0  0  0  0  2  0  0  0  0  0  0
  -28.6720  -26.4590   19.7950 O   0  0  0  0  0  0  0  0  0  0  0  0
  -24.6410  -31.6150   22.9860 C   0  0  0  0  0  0  0  0  0  0  0  0
  -27.4990  -27.2340   19.8670 C   0  0  0  0  0  0  0  0  0  0  0  0
  -23.5300  -30.2200   21.2790 C   0  0  0  0  0  3  0  0  0  0  0  0
  -25.0710  -28.7600   19.8480 C   0  0  0  0  0  0  0  0  0  0  0  0
  -26.0610  -30.6370   21.1620 C   0  0  0  0  0  2  0  0  0  0  0  0
  -26.2070  -29.2770   20.4870 C   0  0  0  0  0  0  0  0  0  0  0  0
  -27.4240  -28.5240   20.4890 C   0  0  0  0  0  3  0  0  0  0  0  0
  -26.3530  -26.7930   19.1810 C   0  0  0  0  0  3  0  0  0  0  0  0
  -25.1460  -27.5200   19.1880 C   0  0  0  0  0  3  0  0  0  0  0  0
  -23.8040  -29.5910   19.8890 C   0  0  0  0  0  2  0  0  0  0  0  0
  -24.7600  -30.8430   21.8650 N   0  0  0  0  0  0  0  0  0  0  0  0
  -23.5350  -31.8310   23.5040 O   0  0  0  0  0  0  0  0  0  0  0  0
  -22.8840  -29.1520   22.1930 C   0  0  0  0  0  0  0  0  0  0  0  0
  -21.5590  -28.9620   22.0660 N   0  0  0  0  0  0  0  0  0  0  0  0
  -23.5770  -28.4950   22.9740 O   0  0  0  0  0  0  0  0  0  0  0  0
  -21.0540  -29.5380   21.4050 H   0  0  0  0  0  0  0  0  0  0  0  0
  -18.1960  -27.7370   22.5960 C   0  0  0  0  0  0  0  0  0  0  0  0
  -20.7630  -27.9740   22.7950 C   0  0  0  0  0  3  0  0  0  0  0  0
  -20.8400  -26.5860   22.1170 C   0  0  0  0  0  2  0  0  0  0  0  0
  -19.7050  -26.3400   21.1190 C   0  0  0  0  0  2  0  0  0  0  0  0
  -18.3450  -26.4410   21.8180 C   0  0  0  0  0  2  0  0  0  0  0  0
  -19.3310  -28.4660   23.0420 C   0  0  0  0  0  0  0  0  0  0  0  0
  -19.1360  -29.6820   23.7330 C   0  0  0  0  0  3  0  0  0  0  0  0
  -17.8390  -30.1710   23.9760 C   0  0  0  0  0  3  0  0  0  0  0  0
  -16.7180  -29.4380   23.5450 C   0  0  0  0  0  3  0  0  0  0  0  0
  -16.8990  -28.2230   22.8620 C   0  0  0  0  0  3  0  0  0  0  0  0
  -25.8830  -32.2800   23.6520 C   0  0  0  0  0  3  0  0  0  0  0  0
  -25.5100  -33.6510   24.0250 N   0  0  0  0  0  0  0  0  0  0  0  0
  -25.8130  -34.7440   23.3110 C   0  0  0  0  0  0  0  0  0  0  0  0
  -26.5030  -34.7030   22.2880 O   0  0  0  0  0  0  0  0  0  0  0  0
  -24.9000  -33.7540   24.8230 H   0  0  0  0  0  0  0  0  0  0  0  0
  -24.0200  -36.4780   22.9870 C   0  0  0  0  0  1  0  0  0  0  0  0
  -25.2640  -36.0940   23.8060 C   0  0  0  0  0  3  0  0  0  0  0  0
  -27.3460  -37.0360   24.7090 C   0  0  0  0  0  1  0  0  0  0  0  0
  -26.2550  -37.1900   23.7490 N   0  0  0  0  0  0  0  0  0  0  0  0
  -25.8120  -38.0890   23.9160 H   0  0  0  0  0  0  0  0  0  0  0  0
  -26.4070  -31.4870   24.9140 C   0  0  1  0  0  0  0  0  0  0  0  0
  -25.3050  -31.1700   25.9510 C   0  0  0  0  0  1  0  0  0  0  0  0
  -27.0540  -30.1470   24.4930 C   0  0  0  0  0  1  0  0  0  0  0  0
  -27.5150  -32.3060   25.6210 C   0  0  0  0  0  1  0  0  0  0  0  0
  1  2  1  0
  3  1  2  0
  4 11  1  0
  4  2  2  0
  5  3  1  0
  5  4  1  0
  6  8  1  0
  7  8  1  0
  8  5  1  0
 11  9  1  1
 11 10  1  0
 12 21  1  0
 12 11  1  0
 13 21  1  0
 14 19  1  0
 15 16  1  0
 15 14  1  0
 17 16  1  0
 17 26  1  0
 17 18  1  0
 19 13  1  0
 19 18  1  0
 20 13  2  0
 21 22  1  0
 23 24  2  0
 24 43  1  0
 25 24  1  0
 25 28  1  0
 26 27  1  0
 26 23  1  0
 27 25  2  0
 28 29  1  0
 29 30  2  0
 31 34  1  0
 31 30  1  0
 32 31  2  0
 33 32  1  0
 33 28  2  0
 34 35  1  0
 35 36  1  0
 36 37  2  0
 38 37  1  0
 38 42  1  0
 39 38  2  0
 40 35  2  0
 40 39  1  0
 41 40  1  0
 43 44  1  0
 44 47  1  0
 44 46  1  0
 45 43  2  0
 48 49  1  0
 48 23  1  0
 50 48  1  0
 52 51  1  0
 52  3  1  0
 52 53  1  0
 54 56  1  0
 54 53  1  0
 55 66  2  0
 56 61  1  0
 57 65  1  0
 57 67  1  0
 58 64  1  0
 58 60  1  0
 59 65  1  0
 60 61  2  0
 60 59  1  0
 62 63  1  0
 62 56  2  0
 63 58  2  0
 64 57  1  0
 65 55  1  0
 67 69  2  0
 68 67  1  0
 70 68  1  0
 71 80  2  0
 71 76  1  0
 72 68  1  0
 72 76  1  0
 73 72  1  0
 74 75  1  0
 74 73  1  0
 75 71  1  0
 76 77  2  0
 77 78  1  0
 79 78  2  0
 80 79  1  0
 81 55  1  0
 81 82  1  0
 81 91  1  0
 82 85  1  0
 83 87  1  0
 83 82  1  0
 84 83  2  0
 87 86  1  0
 89 87  1  0
 89 90  1  0
 89 88  1  0
 91 94  1  1
 91 92  1  0
 93 91  1  0
M  ISO  4  13 100  21 100  53 101  54 101
M  END
>  <TORSDO>  (64) 
F 21

>  <SCORE>  (64) 
-11.885

>  <name>  (64) 
65

>  <ligand_id>  (64) 
65

>  <original_smiles>  (64) 
[H]c1c([H])c([H])c2c(c1[H])C([H])([H])C([H])([H])C([H])([H])C2([H])N([H])C(=O)C1([H])N(C(=O)C([H])(N([H])C(=O)C([H])(N([H])C([H])([H])[H])C([H])([H])[H])C(C([H])([H])[H])(C([H])([H])[H])C([H])([H])[H])C([H])([H])c2c([H])c(OC([H])([H])C([H])(c3c([H])c([H])c(C(C([H])([H])[H])(C([H])([H])[H])C([H])([H])N([H])C(=O)N4C([H])([H])C([H])([H])C([H])([H])C([H])(n5nc(-c6c([H])c([H])c(Oc7c([H])c([H])c(F)c([H])c7F)c([H])c6[H])c(C(=O)N([H])[H])c5N([H])[H])C4([H])[H])n3C([H])(C([H])([H])[H])C([H])([H])[H])C([H])([H])[H])c([H])c([H])c2C1([H])[H]

>  <smiles>  (64) 
[H]c1c([H])c([H])c2c(c1[H])C([H])([H])C([H])([H])C([H])([H])C2([H])N([H])C(=O)C1([H])N(C(=O)C([H])(N([H])C(=O)C([H])(N([H])C([H])([H])[H])C([H])([H])[H])C(C([H])([H])[H])(C([H])([H])[H])C([H])([H])[H])C([H])([H])c2c([H])c(OC([H])([H])C([H])(c3c([H])c([H])c(C(C([H])([H])[H])(C([H])([H])[H])C([H])([H])N([H])C(=O)N4C([H])([H])C([H])([H])C([H])([H])C([H])(n5nc(-c6c([H])c([H])c(Oc7c([H])c([H])c(F)c([H])c7F)c([H])c6[H])c(C(=O)N([H])[H])c5N([H])[H])C4([H])[H])n3C([H])(C([H])([H])[H])C([H])([H])[H])C([H])([H])[H])c([H])c([H])c2C1([H])[H]

$$$$
66:0:0
     RDKit          3D

 93101  0  0  1  0  0  0  0  0999 V2000
  -29.7520  -21.0060   21.4010 C   0  0  0  0  0  3  0  0  0  0  0  0
  -29.6650  -19.8820   20.6070 C   0  0  0  0  0  0  0  0  0  0  0  0
  -28.5390  -21.5520   19.6280 C   0  0  0  0  0  3  0  0  0  0  0  0
  -27.6910  -22.2670   18.6260 C   0  0  0  0  0  1  0  0  0  0  0  0
  -29.0520  -22.0180   20.7820 N   0  0  0  0  0  0  0  0  0  0  0  0
  -28.9120  -20.2710   19.5300 N   0  0  0  0  0  0  0  0  0  0  0  0
  -28.6470  -19.6660   18.7600 H   0  0  0  0  0  0  0  0  0  0  0  0
  -29.8360  -17.9800   22.2030 C   0  0  0  0  0  1  0  0  0  0  0  0
  -30.1440  -18.4570   20.7760 C   0  0  0  0  0  3  0  0  0  0  0  0
  -31.6440  -18.2730   20.4280 C   0  0  0  0  0  2  0  0  0  0  0  0
  -31.9800  -17.0340   19.5670 C   0  0  0  0  0  2  0  0  0  0  0  0
  -32.2530  -14.5800   19.8500 C   0  0  0  0  0  0  0  0  0  0  0  0
  -31.7940  -12.2700   19.1340 C   0  0  0  0  0  2  0  0  0  0  0  0
  -30.8360  -12.3160   17.9260 C   0  0  0  0  0  2  0  0  0  0  0  0
  -29.3660  -12.3660   18.3880 C   0  0  0  0  0  2  0  0  0  0  0  0
  -29.1160  -13.4300   19.4900 C   0  0  0  0  0  3  0  0  0  0  0  0
  -30.1870  -13.3440   20.6040 C   0  0  0  0  0  2  0  0  0  0  0  0
  -31.5120  -13.4470   19.9730 N   0  0  0  0  0  0  0  0  0  0  0  0
  -33.3660  -14.5920   19.3170 O   0  0  0  0  0  0  0  0  0  0  0  0
  -31.6200  -15.7290   20.1530 N   0  0  0  0  0  0  0  0  0  0  0  0
  -30.7110  -15.6400   20.5810 H   0  0  0  0  0  0  0  0  0  0  0  0
  -26.8830  -14.3400   20.3900 C   0  0  0  0  0  0  0  0  0  0  0  0
  -25.7290  -13.7150   20.7760 C   0  0  0  0  0  0  0  0  0  0  0  0
  -25.9670  -12.3160   20.6220 C   0  0  0  0  0  0  0  0  0  0  0  0
  -27.7620  -13.3300   20.0320 N   0  0  0  0  0  0  0  0  0  0  0  0
  -27.2150  -12.1030   20.2260 N   0  0  0  0  0  0  0  0  0  0  0  0
  -25.0620  -11.1680   20.7740 C   0  0  0  0  0  0  0  0  0  0  0  0
  -25.3500  -10.1130   21.6680 C   0  0  0  0  0  3  0  0  0  0  0  0
  -24.4560   -9.0290   21.8070 C   0  0  0  0  0  3  0  0  0  0  0  0
  -23.2610   -8.9910   21.0510 C   0  0  0  0  0  0  0  0  0  0  0  0
  -22.9900  -10.0320   20.1460 C   0  0  0  0  0  3  0  0  0  0  0  0
  -23.8820  -11.1080   20.0040 C   0  0  0  0  0  3  0  0  0  0  0  0
  -22.3470   -7.9670   21.1030 O   0  0  0  0  0  0  0  0  0  0  0  0
  -22.1070   -7.2730   22.2620 C   0  0  0  0  0  0  0  0  0  0  0  0
  -21.6610   -7.9160   23.4370 C   0  0  0  0  0  3  0  0  0  0  0  0
  -21.3620   -7.1550   24.5850 C   0  0  0  0  0  3  0  0  0  0  0  0
  -21.4970   -5.7540   24.5570 C   0  0  0  0  0  0  0  0  0  0  0  0
  -21.9340   -5.1120   23.3860 C   0  0  0  0  0  3  0  0  0  0  0  0
  -22.2350   -5.8700   22.2410 C   0  0  0  0  0  0  0  0  0  0  0  0
  -22.6370   -5.2450   21.1090 F   0  0  0  0  0  0  0  0  0  0  0  0
  -21.2010   -5.0230   25.6570 F   0  0  0  0  0  0  0  0  0  0  0  0
  -24.4400  -14.3780   21.1700 C   0  0  0  0  0  0  0  0  0  0  0  0
  -23.6710  -13.7530   22.0570 N   0  0  0  0  0  0  0  0  0  0  0  0
  -24.1300  -15.4840   20.7260 O   0  0  0  0  0  0  0  0  0  0  0  0
  -23.9320  -12.8550   22.4360 H   0  0  0  0  0  0  0  0  0  0  0  0
  -22.8070  -14.1790   22.3600 H   0  0  0  0  0  0  0  0  0  0  0  0
  -27.2560  -15.6780   20.2920 N   0  0  0  0  0  0  0  0  0  0  0  0
  -26.5950  -16.4280   20.4640 H   0  0  0  0  0  0  0  0  0  0  0  0
  -28.1160  -15.9960   19.8640 H   0  0  0  0  0  0  0  0  0  0  0  0
  -28.7830  -23.3660   21.3440 C   0  0  0  0  0  2  0  0  0  0  0  0
  -29.1330  -24.5820   20.4490 C   0  0  0  0  0  2  0  0  0  0  0  0
  -29.0100  -25.9210   21.2140 C   0  0  0  0  0  2  0  0  0  0  0  0
  -28.9960  -27.0620   20.3490 O   0  0  0  0  0  0  0  0  0  0  0  0
  -24.6770  -31.8670   23.3520 C   0  0  0  0  0  0  0  0  0  0  0  0
  -27.7950  -27.7280   20.3100 C   0  0  0  0  0  0  0  0  0  0  0  0
  -23.6730  -30.4630   21.5790 C   0  0  0  0  0  3  0  0  0  0  0  0
  -25.3150  -29.0700   20.2070 C   0  0  0  0  0  0  0  0  0  0  0  0
  -26.1770  -30.9830   21.5690 C   0  0  0  0  0  2  0  0  0  0  0  0
  -26.3930  -29.6450   20.8930 C   0  0  0  0  0  0  0  0  0  0  0  0
  -27.6370  -28.9800   20.9460 C   0  0  0  0  0  3  0  0  0  0  0  0
  -26.7050  -27.1610   19.6190 C   0  0  0  0  0  3  0  0  0  0  0  0
  -25.4640  -27.8250   19.5680 C   0  0  0  0  0  3  0  0  0  0  0  0
  -24.0190  -29.8510   20.1940 C   0  0  0  0  0  2  0  0  0  0  0  0
  -24.8550  -31.1180   22.2270 N   0  0  0  0  0  0  0  0  0  0  0  0
  -23.5480  -32.0530   23.8260 O   0  0  0  0  0  0  0  0  0  0  0  0
  -23.0240  -29.3680   22.4540 C   0  0  0  0  0  0  0  0  0  0  0  0
  -21.7130  -29.1480   22.2620 N   0  0  0  0  0  0  0  0  0  0  0  0
  -23.6970  -28.7210   23.2620 O   0  0  0  0  0  0  0  0  0  0  0  0
  -21.2310  -29.7290   21.5910 H   0  0  0  0  0  0  0  0  0  0  0  0
  -18.3510  -27.8760   22.6200 C   0  0  0  0  0  0  0  0  0  0  0  0
  -20.9020  -28.1390   22.9430 C   0  0  0  0  0  3  0  0  0  0  0  0
  -21.0290  -26.7620   22.2500 C   0  0  0  0  0  2  0  0  0  0  0  0
  -19.9420  -26.5110   21.2010 C   0  0  0  0  0  2  0  0  0  0  0  0
  -18.5520  -26.5870   21.8390 C   0  0  0  0  0  2  0  0  0  0  0  0
  -19.4560  -28.6120   23.1250 C   0  0  0  0  0  0  0  0  0  0  0  0
  -19.2150  -29.8180   23.8160 C   0  0  0  0  0  3  0  0  0  0  0  0
  -17.9040  -30.2900   24.0070 C   0  0  0  0  0  3  0  0  0  0  0  0
  -16.8130  -29.5510   23.5170 C   0  0  0  0  0  3  0  0  0  0  0  0
  -17.0380  -28.3440   22.8310 C   0  0  0  0  0  3  0  0  0  0  0  0
  -25.8790  -32.5450   24.0830 C   0  0  0  0  0  3  0  0  0  0  0  0
  -25.5090  -33.9440   24.3380 N   0  0  0  0  0  0  0  0  0  0  0  0
  -25.8930  -34.9810   23.5830 C   0  0  0  0  0  0  0  0  0  0  0  0
  -26.6630  -34.8660   22.6260 O   0  0  0  0  0  0  0  0  0  0  0  0
  -24.8380  -34.1060   25.0740 H   0  0  0  0  0  0  0  0  0  0  0  0
  -24.1660  -36.7150   23.0010 C   0  0  0  0  0  1  0  0  0  0  0  0
  -25.3290  -36.3680   23.9450 C   0  0  0  0  0  3  0  0  0  0  0  0
  -27.3510  -37.3310   24.9540 C   0  0  0  0  0  1  0  0  0  0  0  0
  -26.3420  -37.4450   23.9030 N   0  0  0  0  0  0  0  0  0  0  0  0
  -25.9030  -38.3570   23.9820 H   0  0  0  0  0  0  0  0  0  0  0  0
  -26.2820  -31.8190   25.4250 C   0  0  1  0  0  0  0  0  0  0  0  0
  -25.0860  -31.5390   26.3630 C   0  0  0  0  0  1  0  0  0  0  0  0
  -26.9750  -30.4680   25.1270 C   0  0  0  0  0  1  0  0  0  0  0  0
  -27.3050  -32.6810   26.2010 C   0  0  0  0  0  1  0  0  0  0  0  0
  2  9  1  0
  2  1  2  0
  3  4  1  0
  3  5  1  0
  5 50  1  0
  5  1  1  0
  6  3  1  0
  6  2  1  0
  7  6  1  0
  9  8  1  0
 10  9  1  0
 11 20  1  0
 11 10  1  0
 12 18  1  0
 12 20  1  0
 13 18  1  0
 14 15  1  0
 14 13  1  0
 16 15  1  0
 16 25  1  0
 16 17  1  0
 18 17  1  0
 19 12  2  0
 20 21  1  0
 22 23  2  0
 23 42  1  0
 24 27  1  0
 24 23  1  0
 25 26  1  0
 25 22  1  0
 26 24  2  0
 27 28  1  0
 28 29  2  0
 30 33  1  0
 30 29  1  0
 31 30  2  0
 32 31  1  0
 32 27  2  0
 33 34  1  0
 34 35  1  0
 35 36  2  0
 37 36  1  0
 37 41  1  0
 38 37  2  0
 39 34  2  0
 39 38  1  0
 40 39  1  0
 42 43  1  0
 43 46  1  0
 43 45  1  0
 44 42  2  0
 47 22  1  0
 47 48  1  0
 49 47  1  0
 51 52  1  0
 51 50  1  0
 53 52  1  0
 54 65  2  0
 55 53  1  0
 55 60  1  0
 56 64  1  0
 56 66  1  0
 57 59  1  0
 58 64  1  0
 59 60  2  0
 59 58  1  0
 61 55  2  0
 62 61  1  0
 62 57  2  0
 63 57  1  0
 63 56  1  0
 64 54  1  0
 66 68  2  0
 67 66  1  0
 69 67  1  0
 70 79  2  0
 70 75  1  0
 71 67  1  0
 71 75  1  0
 72 71  1  0
 73 74  1  0
 73 72  1  0
 74 70  1  0
 75 76  2  0
 76 77  1  0
 78 77  2  0
 79 78  1  0
 80 54  1  0
 80 81  1  0
 80 90  1  0
 81 84  1  0
 82 86  1  0
 82 81  1  0
 83 82  2  0
 86 85  1  0
 88 86  1  0
 88 89  1  0
 88 87  1  0
 90 93  1  1
 90 91  1  0
 92 90  1  0
M  ISO  4  12 100  20 100  52 101  53 101
M  END
>  <TORSDO>  (65) 
F 22

>  <SCORE>  (65) 
-11.005

>  <name>  (65) 
66

>  <ligand_id>  (65) 
66

>  <original_smiles>  (65) 
[H]c1c([H])c([H])c2c(c1[H])C([H])([H])C([H])([H])C([H])([H])C2([H])N([H])C(=O)C1([H])N(C(=O)C([H])(N([H])C(=O)C([H])(N([H])C([H])([H])[H])C([H])([H])[H])C(C([H])([H])[H])(C([H])([H])[H])C([H])([H])[H])C([H])([H])c2c([H])c(OC([H])([H])C([H])([H])C([H])([H])n3c([H])c(C([H])(C([H])([H])[H])C([H])([H])C([H])([H])N([H])C(=O)N4C([H])([H])C([H])([H])C([H])([H])C([H])(n5nc(-c6c([H])c([H])c(Oc7c([H])c([H])c(F)c([H])c7F)c([H])c6[H])c(C(=O)N([H])[H])c5N([H])[H])C4([H])[H])[n+]([H])c3C([H])([H])[H])c([H])c([H])c2C1([H])[H]

>  <smiles>  (65) 
[H]c1c([H])c([H])c2c(c1[H])C([H])([H])C([H])([H])C([H])([H])C2([H])N([H])C(=O)C1([H])N(C(=O)C([H])(N([H])C(=O)C([H])(N([H])C([H])([H])[H])C([H])([H])[H])C(C([H])([H])[H])(C([H])([H])[H])C([H])([H])[H])C([H])([H])c2c([H])c(OC([H])([H])C([H])([H])C([H])([H])n3c([H])c(C([H])(C([H])([H])[H])C([H])([H])C([H])([H])N([H])C(=O)N4C([H])([H])C([H])([H])C([H])([H])C([H])(n5nc(-c6c([H])c([H])c(Oc7c([H])c([H])c(F)c([H])c7F)c([H])c6[H])c(C(=O)N([H])[H])c5N([H])[H])C4([H])[H])[n+]([H])c3C([H])([H])[H])c([H])c([H])c2C1([H])[H]

$$$$
67:0:0
     RDKit          3D

 93101  0  0  1  0  0  0  0  0999 V2000
  -28.5410  -20.8900   20.4920 C   0  0  0  0  0  3  0  0  0  0  0  0
  -27.5420  -21.2390   17.9510 C   0  0  0  0  0  3  0  0  0  0  0  0
  -28.5340  -19.7780   19.6290 C   0  0  0  0  0  0  0  0  0  0  0  0
  -28.0660  -19.9770   18.3060 C   0  0  0  0  0  0  0  0  0  0  0  0
  -28.0480  -22.1290   20.0220 C   0  0  0  0  0  0  0  0  0  0  0  0
  -28.0990  -18.8870   17.2520 C   0  0  0  0  0  1  0  0  0  0  0  0
  -27.5230  -22.2870   18.7920 N   0  0  0  0  0  0  0  0  0  0  0  0
  -29.3740  -18.3580   21.6290 C   0  0  0  0  0  1  0  0  0  0  0  0
  -28.9780  -18.3930   20.1220 C   0  0  0  0  0  3  0  0  0  0  0  0
  -30.0260  -17.7330   19.1510 C   0  0  0  0  0  2  0  0  0  0  0  0
  -31.3560  -16.9650   19.4950 C   0  0  0  0  0  2  0  0  0  0  0  0
  -32.0980  -14.5480   19.4850 C   0  0  0  0  0  0  0  0  0  0  0  0
  -31.7820  -12.1780   19.0100 C   0  0  0  0  0  2  0  0  0  0  0  0
  -30.7700  -12.0760   17.8480 C   0  0  0  0  0  2  0  0  0  0  0  0
  -29.3090  -12.1220   18.3480 C   0  0  0  0  0  2  0  0  0  0  0  0
  -29.0520  -13.2800   19.3380 C   0  0  0  0  0  3  0  0  0  0  0  0
  -30.1560  -13.3040   20.4150 C   0  0  0  0  0  2  0  0  0  0  0  0
  -31.4620  -13.3890   19.7380 N   0  0  0  0  0  0  0  0  0  0  0  0
  -33.2990  -14.6640   19.2020 O   0  0  0  0  0  0  0  0  0  0  0  0
  -31.2000  -15.5250   19.3440 N   0  0  0  0  0  0  0  0  0  0  0  0
  -30.2630  -15.1820   19.4900 H   0  0  0  0  0  0  0  0  0  0  0  0
  -26.8910  -14.2300   20.3380 C   0  0  0  0  0  0  0  0  0  0  0  0
  -25.7360  -13.6340   20.7500 C   0  0  0  0  0  0  0  0  0  0  0  0
  -25.9440  -12.2250   20.5850 C   0  0  0  0  0  0  0  0  0  0  0  0
  -27.7300  -13.2020   19.9330 N   0  0  0  0  0  0  0  0  0  0  0  0
  -27.1730  -11.9870   20.1510 N   0  0  0  0  0  0  0  0  0  0  0  0
  -25.0270  -11.1010   20.7580 C   0  0  0  0  0  0  0  0  0  0  0  0
  -25.3070  -10.0650   21.6760 C   0  0  0  0  0  3  0  0  0  0  0  0
  -24.4060   -8.9910   21.8350 C   0  0  0  0  0  3  0  0  0  0  0  0
  -23.2120   -8.9540   21.0770 C   0  0  0  0  0  0  0  0  0  0  0  0
  -22.9510   -9.9750   20.1470 C   0  0  0  0  0  3  0  0  0  0  0  0
  -23.8510  -11.0400   19.9850 C   0  0  0  0  0  3  0  0  0  0  0  0
  -22.2840   -7.9460   21.1490 O   0  0  0  0  0  0  0  0  0  0  0  0
  -22.0330   -7.2850   22.3250 C   0  0  0  0  0  0  0  0  0  0  0  0
  -21.5770   -7.9610   23.4760 C   0  0  0  0  0  3  0  0  0  0  0  0
  -21.2620   -7.2330   24.6400 C   0  0  0  0  0  3  0  0  0  0  0  0
  -21.3940   -5.8310   24.6520 C   0  0  0  0  0  0  0  0  0  0  0  0
  -21.8440   -5.1570   23.5040 C   0  0  0  0  0  3  0  0  0  0  0  0
  -22.1610   -5.8820   22.3420 C   0  0  0  0  0  0  0  0  0  0  0  0
  -22.5750   -5.2250   21.2320 F   0  0  0  0  0  0  0  0  0  0  0  0
  -21.0860   -5.1300   25.7680 F   0  0  0  0  0  0  0  0  0  0  0  0
  -24.4780  -14.3180   21.1870 C   0  0  0  0  0  0  0  0  0  0  0  0
  -23.7210  -13.6990   22.0810 N   0  0  0  0  0  0  0  0  0  0  0  0
  -24.1740  -15.4370   20.7600 O   0  0  0  0  0  0  0  0  0  0  0  0
  -23.9880  -12.7970   22.4460 H   0  0  0  0  0  0  0  0  0  0  0  0
  -22.8710  -14.1300   22.4090 H   0  0  0  0  0  0  0  0  0  0  0  0
  -27.2920  -15.5600   20.2660 N   0  0  0  0  0  0  0  0  0  0  0  0
  -26.6830  -16.3120   20.5770 H   0  0  0  0  0  0  0  0  0  0  0  0
  -28.1960  -15.8800   19.9520 H   0  0  0  0  0  0  0  0  0  0  0  0
  -27.9980  -23.3720   20.8980 C   0  0  0  0  0  2  0  0  0  0  0  0
  -28.9150  -24.5190   20.4260 C   0  0  0  0  0  2  0  0  0  0  0  0
  -28.7600  -25.7640   21.3150 C   0  0  0  0  0  2  0  0  0  0  0  0
  -28.7870  -26.9690   20.5630 O   0  0  0  0  0  0  0  0  0  0  0  0
  -24.6120  -31.9580   23.4060 C   0  0  0  0  0  0  0  0  0  0  0  0
  -27.5840  -27.6310   20.5180 C   0  0  0  0  0  0  0  0  0  0  0  0
  -23.5480  -30.5230   21.7010 C   0  0  0  0  0  3  0  0  0  0  0  0
  -25.1380  -29.0180   20.3900 C   0  0  0  0  0  0  0  0  0  0  0  0
  -26.0710  -30.9610   21.6610 C   0  0  0  0  0  2  0  0  0  0  0  0
  -26.2390  -29.5960   21.0320 C   0  0  0  0  0  0  0  0  0  0  0  0
  -27.4710  -28.9160   21.0920 C   0  0  0  0  0  3  0  0  0  0  0  0
  -26.4720  -27.0400   19.9010 C   0  0  0  0  0  3  0  0  0  0  0  0
  -25.2410  -27.7280   19.8290 C   0  0  0  0  0  3  0  0  0  0  0  0
  -23.8700  -29.8470   20.3460 C   0  0  0  0  0  2  0  0  0  0  0  0
  -24.7590  -31.1600   22.3160 N   0  0  0  0  0  0  0  0  0  0  0  0
  -23.4920  -32.1970   23.8730 O   0  0  0  0  0  0  0  0  0  0  0  0
  -22.8640  -29.4880   22.6210 C   0  0  0  0  0  0  0  0  0  0  0  0
  -21.5510  -29.2920   22.4380 N   0  0  0  0  0  0  0  0  0  0  0  0
  -23.5200  -28.8600   23.4570 O   0  0  0  0  0  0  0  0  0  0  0  0
  -21.0530  -29.9130   21.8130 H   0  0  0  0  0  0  0  0  0  0  0  0
  -18.1920  -28.0010   22.7180 C   0  0  0  0  0  0  0  0  0  0  0  0
  -20.7240  -28.3090   23.1350 C   0  0  0  0  0  3  0  0  0  0  0  0
  -20.8940  -26.9060   22.5150 C   0  0  0  0  0  2  0  0  0  0  0  0
  -19.8530  -26.6130   21.4280 C   0  0  0  0  0  2  0  0  0  0  0  0
  -18.4460  -26.6760   22.0210 C   0  0  0  0  0  2  0  0  0  0  0  0
  -19.2700  -28.7810   23.2190 C   0  0  0  0  0  0  0  0  0  0  0  0
  -18.9960  -30.0250   23.8310 C   0  0  0  0  0  3  0  0  0  0  0  0
  -17.6700  -30.4940   23.9390 C   0  0  0  0  0  3  0  0  0  0  0  0
  -16.6070  -29.7100   23.4510 C   0  0  0  0  0  3  0  0  0  0  0  0
  -16.8680  -28.4680   22.8470 C   0  0  0  0  0  3  0  0  0  0  0  0
  -25.8430  -32.6260   24.1040 C   0  0  0  0  0  3  0  0  0  0  0  0
  -25.5040  -34.0340   24.3360 N   0  0  0  0  0  0  0  0  0  0  0  0
  -25.8850  -35.0450   23.5410 C   0  0  0  0  0  0  0  0  0  0  0  0
  -26.6300  -34.8910   22.5670 O   0  0  0  0  0  0  0  0  0  0  0  0
  -24.8740  -34.2380   25.0990 H   0  0  0  0  0  0  0  0  0  0  0  0
  -24.1710  -36.7900   22.9690 C   0  0  0  0  0  1  0  0  0  0  0  0
  -25.3560  -36.4490   23.8860 C   0  0  0  0  0  3  0  0  0  0  0  0
  -27.4260  -37.3980   24.8000 C   0  0  0  0  0  1  0  0  0  0  0  0
  -26.3810  -37.5090   23.7870 N   0  0  0  0  0  0  0  0  0  0  0  0
  -25.9570  -38.4280   23.8670 H   0  0  0  0  0  0  0  0  0  0  0  0
  -26.2570  -31.9180   25.4550 C   0  0  1  0  0  0  0  0  0  0  0  0
  -25.0670  -31.6590   26.4050 C   0  0  0  0  0  1  0  0  0  0  0  0
  -26.9410  -30.5560   25.1790 C   0  0  0  0  0  1  0  0  0  0  0  0
  -27.2940  -32.7860   26.2110 C   0  0  0  0  0  1  0  0  0  0  0  0
  2  4  2  0
  2  7  1  0
  3  9  1  0
  3  1  2  0
  4  3  1  0
  5  1  1  0
  5 50  1  0
  6  4  1  0
  7  5  2  0
  9  8  1  0
 10 11  1  0
 10  9  1  0
 12 18  1  0
 13 18  1  0
 14 15  1  0
 14 13  1  0
 16 15  1  0
 16 25  1  0
 16 17  1  0
 18 17  1  0
 19 12  2  0
 20 12  1  0
 20 21  1  0
 20 11  1  0
 22 23  2  0
 23 42  1  0
 24 23  1  0
 24 27  1  0
 25 26  1  0
 25 22  1  0
 26 24  2  0
 27 28  1  0
 28 29  2  0
 30 33  1  0
 30 29  1  0
 31 30  2  0
 32 31  1  0
 32 27  2  0
 33 34  1  0
 34 39  2  0
 34 35  1  0
 35 36  2  0
 36 37  1  0
 37 41  1  0
 38 37  2  0
 39 38  1  0
 40 39  1  0
 42 43  1  0
 43 46  1  0
 43 45  1  0
 44 42  2  0
 47 22  1  0
 47 48  1  0
 49 47  1  0
 51 50  1  0
 51 52  1  0
 53 52  1  0
 54 65  2  0
 55 53  1  0
 55 60  1  0
 56 64  1  0
 56 66  1  0
 57 59  1  0
 58 64  1  0
 59 60  2  0
 59 58  1  0
 61 55  2  0
 62 61  1  0
 62 57  2  0
 63 57  1  0
 63 56  1  0
 64 54  1  0
 66 68  2  0
 67 66  1  0
 69 67  1  0
 70 79  2  0
 70 75  1  0
 71 67  1  0
 71 75  1  0
 72 71  1  0
 73 74  1  0
 73 72  1  0
 74 70  1  0
 75 76  2  0
 76 77  1  0
 78 77  2  0
 79 78  1  0
 80 54  1  0
 80 81  1  0
 80 90  1  0
 81 84  1  0
 82 86  1  0
 82 81  1  0
 83 82  2  0
 86 85  1  0
 88 89  1  0
 88 86  1  0
 88 87  1  0
 90 93  1  1
 90 91  1  0
 92 90  1  0
M  ISO  4  12 100  20 100  52 101  53 101
M  END
>  <TORSDO>  (66) 
F 22

>  <SCORE>  (66) 
-11.224

>  <name>  (66) 
67

>  <ligand_id>  (66) 
67

>  <original_smiles>  (66) 
[H]c1nc(C([H])([H])C([H])([H])C([H])([H])Oc2c([H])c([H])c3c(c2[H])C([H])([H])N(C(=O)C([H])(N([H])C(=O)C([H])(N([H])C([H])([H])[H])C([H])([H])[H])C(C([H])([H])[H])(C([H])([H])[H])C([H])([H])[H])C([H])(C(=O)N([H])C2([H])c4c([H])c([H])c([H])c([H])c4C([H])([H])C([H])([H])C2([H])[H])C3([H])[H])c([H])c(C([H])(C([H])([H])[H])C([H])([H])C([H])([H])N([H])C(=O)N2C([H])([H])C([H])([H])C([H])([H])C([H])(n3nc(-c4c([H])c([H])c(Oc5c([H])c([H])c(F)c([H])c5F)c([H])c4[H])c(C(=O)N([H])[H])c3N([H])[H])C2([H])[H])c1C([H])([H])[H]

>  <smiles>  (66) 
[H]c1nc(C([H])([H])C([H])([H])C([H])([H])Oc2c([H])c([H])c3c(c2[H])C([H])([H])N(C(=O)C([H])(N([H])C(=O)C([H])(N([H])C([H])([H])[H])C([H])([H])[H])C(C([H])([H])[H])(C([H])([H])[H])C([H])([H])[H])C([H])(C(=O)N([H])C2([H])c4c([H])c([H])c([H])c([H])c4C([H])([H])C([H])([H])C2([H])[H])C3([H])[H])c([H])c(C([H])(C([H])([H])[H])C([H])([H])C([H])([H])N([H])C(=O)N2C([H])([H])C([H])([H])C([H])([H])C([H])(n3nc(-c4c([H])c([H])c(Oc5c([H])c([H])c(F)c([H])c5F)c([H])c4[H])c(C(=O)N([H])[H])c3N([H])[H])C2([H])[H])c1C([H])([H])[H]

$$$$
68:0:0
     RDKit          3D

 92100  0  0  1  0  0  0  0  0999 V2000
  -28.1450  -19.1300   21.1940 C   0  0  0  0  0  3  0  0  0  0  0  0
  -28.9270  -18.0640   20.7180 C   0  0  0  0  0  3  0  0  0  0  0  0
  -28.4660  -20.4410   20.8060 C   0  0  0  0  0  3  0  0  0  0  0  0
  -30.0260  -18.3390   19.8840 C   0  0  0  0  0  0  0  0  0  0  0  0
  -29.5550  -20.6650   19.9460 C   0  0  0  0  0  0  0  0  0  0  0  0
  -30.3260  -19.6240   19.5070 N   0  0  0  0  0  0  0  0  0  0  0  0
  -30.9700  -17.1480   17.8460 C   0  0  0  0  0  1  0  0  0  0  0  0
  -30.9400  -17.1850   19.3900 C   0  0  0  0  0  3  0  0  0  0  0  0
  -31.3400  -14.7100   19.7940 C   0  0  0  0  0  0  0  0  0  0  0  0
  -30.9450  -12.4910   18.8210 C   0  0  0  0  0  2  0  0  0  0  0  0
  -29.9480  -12.6770   17.6590 C   0  0  0  0  0  2  0  0  0  0  0  0
  -28.4980  -12.5790   18.1720 C   0  0  0  0  0  2  0  0  0  0  0  0
  -28.2410  -13.4630   19.4230 C   0  0  0  0  0  3  0  0  0  0  0  0
  -29.3600  -13.2990   20.4770 C   0  0  0  0  0  2  0  0  0  0  0  0
  -30.6490  -13.5370   19.8120 N   0  0  0  0  0  0  0  0  0  0  0  0
  -32.5090  -14.7840   19.4150 O   0  0  0  0  0  0  0  0  0  0  0  0
  -30.5850  -15.8290   19.8950 N   0  0  0  0  0  0  0  0  0  0  0  0
  -29.6230  -15.7010   20.1610 H   0  0  0  0  0  0  0  0  0  0  0  0
  -25.9430  -14.1400   20.3610 C   0  0  0  0  0  0  0  0  0  0  0  0
  -24.8630  -13.3990   20.7580 C   0  0  0  0  0  0  0  0  0  0  0  0
  -25.2430  -12.0290   20.6050 C   0  0  0  0  0  0  0  0  0  0  0  0
  -26.9180  -13.2220   19.9910 N   0  0  0  0  0  0  0  0  0  0  0  0
  -26.5040  -11.9450   20.1970 N   0  0  0  0  0  0  0  0  0  0  0  0
  -24.4610  -10.7970   20.7650 C   0  0  0  0  0  0  0  0  0  0  0  0
  -24.8460   -9.7910   21.6770 C   0  0  0  0  0  3  0  0  0  0  0  0
  -24.0680   -8.6230   21.8250 C   0  0  0  0  0  3  0  0  0  0  0  0
  -22.8900   -8.4540   21.0590 C   0  0  0  0  0  0  0  0  0  0  0  0
  -22.5250   -9.4470   20.1340 C   0  0  0  0  0  3  0  0  0  0  0  0
  -23.3040  -10.6060   19.9840 C   0  0  0  0  0  3  0  0  0  0  0  0
  -22.0850   -7.3410   21.1190 O   0  0  0  0  0  0  0  0  0  0  0  0
  -21.9200   -6.6340   22.2820 C   0  0  0  0  0  0  0  0  0  0  0  0
  -21.3850   -7.2290   23.4460 C   0  0  0  0  0  3  0  0  0  0  0  0
  -21.1660   -6.4480   24.5990 C   0  0  0  0  0  3  0  0  0  0  0  0
  -21.4720   -5.0740   24.5880 C   0  0  0  0  0  0  0  0  0  0  0  0
  -21.9990   -4.4790   23.4290 C   0  0  0  0  0  3  0  0  0  0  0  0
  -22.2200   -5.2570   22.2790 C   0  0  0  0  0  0  0  0  0  0  0  0
  -22.7080   -4.6750   21.1570 F   0  0  0  0  0  0  0  0  0  0  0  0
  -21.2550   -4.3210   25.6930 F   0  0  0  0  0  0  0  0  0  0  0  0
  -23.5160  -13.9270   21.1630 C   0  0  0  0  0  0  0  0  0  0  0  0
  -22.8180  -13.2180   22.0420 N   0  0  0  0  0  0  0  0  0  0  0  0
  -23.1000  -15.0040   20.7370 O   0  0  0  0  0  0  0  0  0  0  0  0
  -23.1700  -12.3460   22.4080 H   0  0  0  0  0  0  0  0  0  0  0  0
  -21.9180  -13.5540   22.3550 H   0  0  0  0  0  0  0  0  0  0  0  0
  -26.1730  -15.5090   20.2640 N   0  0  0  0  0  0  0  0  0  0  0  0
  -25.4510  -16.1850   20.4850 H   0  0  0  0  0  0  0  0  0  0  0  0
  -27.0050  -15.9350   19.8790 H   0  0  0  0  0  0  0  0  0  0  0  0
  -29.8550  -21.9330   19.4390 O   0  0  0  0  0  0  0  0  0  0  0  0
  -29.8870  -23.0680   20.3500 C   0  0  0  0  0  2  0  0  0  0  0  0
  -27.3770  -23.6740   20.2120 C   0  0  0  0  0  1  0  0  0  0  0  0
  -28.8070  -24.2280   20.2630 C   0  0  0  0  0  3  0  0  0  0  0  0
  -29.0410  -25.4020   19.2400 C   0  0  0  0  0  2  0  0  0  0  0  0
  -28.8320  -26.7600   19.7440 O   0  0  0  0  0  0  0  0  0  0  0  0
  -24.6310  -31.5170   23.0400 C   0  0  0  0  0  0  0  0  0  0  0  0
  -27.6020  -27.4110   19.7300 C   0  0  0  0  0  0  0  0  0  0  0  0
  -23.5390  -30.1380   21.3030 C   0  0  0  0  0  3  0  0  0  0  0  0
  -25.1060  -28.7850   19.8040 C   0  0  0  0  0  0  0  0  0  0  0  0
  -26.0410  -30.6660   21.1590 C   0  0  0  0  0  2  0  0  0  0  0  0
  -26.2240  -29.3400   20.4390 C   0  0  0  0  0  0  0  0  0  0  0  0
  -27.4690  -28.6600   20.3990 C   0  0  0  0  0  3  0  0  0  0  0  0
  -26.4610  -26.8880   19.0810 C   0  0  0  0  0  3  0  0  0  0  0  0
  -25.2240  -27.5600   19.1210 C   0  0  0  0  0  3  0  0  0  0  0  0
  -23.8070  -29.5550   19.8890 C   0  0  0  0  0  2  0  0  0  0  0  0
  -24.7530  -30.7890   21.8920 N   0  0  0  0  0  0  0  0  0  0  0  0
  -23.5270  -31.6830   23.5810 O   0  0  0  0  0  0  0  0  0  0  0  0
  -22.9480  -29.0220   22.1940 C   0  0  0  0  0  0  0  0  0  0  0  0
  -21.6400  -28.7590   22.0390 N   0  0  0  0  0  0  0  0  0  0  0  0
  -23.6640  -28.3990   22.9830 O   0  0  0  0  0  0  0  0  0  0  0  0
  -21.1210  -29.3180   21.3770 H   0  0  0  0  0  0  0  0  0  0  0  0
  -18.3510  -27.3070   22.4200 C   0  0  0  0  0  0  0  0  0  0  0  0
  -20.8830  -27.7220   22.7390 C   0  0  0  0  0  3  0  0  0  0  0  0
  -21.0900  -26.3400   22.0760 C   0  0  0  0  0  2  0  0  0  0  0  0
  -20.0200  -26.0050   21.0320 C   0  0  0  0  0  2  0  0  0  0  0  0
  -18.6260  -26.0160   21.6670 C   0  0  0  0  0  2  0  0  0  0  0  0
  -19.4110  -28.1140   22.9100 C   0  0  0  0  0  0  0  0  0  0  0  0
  -19.1010  -29.3220   23.5720 C   0  0  0  0  0  3  0  0  0  0  0  0
  -17.7640  -29.7210   23.7540 C   0  0  0  0  0  3  0  0  0  0  0  0
  -16.7180  -28.9100   23.2800 C   0  0  0  0  0  3  0  0  0  0  0  0
  -17.0130  -27.7040   22.6190 C   0  0  0  0  0  3  0  0  0  0  0  0
  -25.8630  -32.1990   23.7130 C   0  0  0  0  0  3  0  0  0  0  0  0
  -25.4760  -33.5730   24.0620 N   0  0  0  0  0  0  0  0  0  0  0  0
  -25.7820  -34.6580   23.3370 C   0  0  0  0  0  0  0  0  0  0  0  0
  -26.4890  -34.6090   22.3260 O   0  0  0  0  0  0  0  0  0  0  0  0
  -24.8490  -33.6810   24.8450 H   0  0  0  0  0  0  0  0  0  0  0  0
  -23.9760  -36.3690   22.9670 C   0  0  0  0  0  1  0  0  0  0  0  0
  -25.2130  -36.0100   23.8060 C   0  0  0  0  0  3  0  0  0  0  0  0
  -27.2690  -36.9890   24.7250 C   0  0  0  0  0  1  0  0  0  0  0  0
  -26.1940  -37.1150   23.7440 N   0  0  0  0  0  0  0  0  0  0  0  0
  -25.7370  -38.0110   23.8870 H   0  0  0  0  0  0  0  0  0  0  0  0
  -26.3780  -31.4260   24.9890 C   0  0  1  0  0  0  0  0  0  0  0  0
  -25.2680  -31.1160   26.0190 C   0  0  0  0  0  1  0  0  0  0  0  0
  -27.0350  -30.0860   24.5860 C   0  0  0  0  0  1  0  0  0  0  0  0
  -27.4700  -32.2580   25.7010 C   0  0  0  0  0  1  0  0  0  0  0  0
  2  1  1  0
  3  1  2  0
  4  2  2  0
  5  3  1  0
  6  4  1  0
  6  5  2  0
  8  7  1  0
  8  4  1  0
  8 17  1  0
  9 15  1  0
  9 17  1  0
 10 15  1  0
 11 12  1  0
 11 10  1  0
 13 12  1  0
 13 22  1  0
 13 14  1  0
 15 14  1  0
 16  9  2  0
 17 18  1  0
 19 20  2  0
 20 39  1  0
 21 20  1  0
 21 24  1  0
 22 23  1  0
 22 19  1  0
 23 21  2  0
 24 25  1  0
 25 26  2  0
 27 30  1  0
 27 26  1  0
 28 27  2  0
 29 28  1  0
 29 24  2  0
 30 31  1  0
 31 32  1  0
 32 33  2  0
 34 33  1  0
 34 38  1  0
 35 34  2  0
 36 31  2  0
 36 35  1  0
 37 36  1  0
 39 40  1  0
 40 43  1  0
 40 42  1  0
 41 39  2  0
 44 19  1  0
 44 45  1  0
 46 44  1  0
 47  5  1  0
 47 48  1  0
 50 49  1  0
 50 48  1  0
 51 52  1  0
 51 50  1  0
 53 64  2  0
 54 52  1  0
 54 59  1  0
 55 63  1  0
 55 65  1  0
 56 62  1  0
 56 58  1  0
 57 63  1  0
 58 57  1  0
 59 58  2  0
 60 61  1  0
 60 54  2  0
 61 56  2  0
 62 55  1  0
 63 53  1  0
 65 67  2  0
 66 65  1  0
 68 66  1  0
 69 78  2  0
 69 74  1  0
 70 66  1  0
 70 74  1  0
 71 70  1  0
 72 73  1  0
 72 71  1  0
 73 69  1  0
 74 75  2  0
 75 76  1  0
 77 76  2  0
 78 77  1  0
 79 53  1  0
 79 80  1  0
 79 89  1  0
 80 83  1  0
 81 85  1  0
 81 80  1  0
 82 81  2  0
 85 84  1  0
 87 85  1  0
 87 88  1  0
 87 86  1  0
 89 92  1  1
 89 90  1  0
 91 89  1  0
M  ISO  4   9 100  17 100  51 101  52 101
M  END
>  <TORSDO>  (67) 
F 21

>  <SCORE>  (67) 
-10.918

>  <name>  (67) 
68

>  <ligand_id>  (67) 
68

>  <original_smiles>  (67) 
[H]c1c(OC([H])([H])C([H])(C([H])([H])[H])C([H])([H])Oc2c([H])c([H])c3c(c2[H])C([H])([H])N(C(=O)C([H])(N([H])C(=O)C([H])(N([H])C([H])([H])[H])C([H])([H])[H])C(C([H])([H])[H])(C([H])([H])[H])C([H])([H])[H])C([H])(C(=O)N([H])C2([H])c4c([H])c([H])c([H])c([H])c4C([H])([H])C([H])([H])C2([H])[H])C3([H])[H])nc(C([H])(N([H])C(=O)N2C([H])([H])C([H])([H])C([H])([H])C([H])(n3nc(-c4c([H])c([H])c(Oc5c([H])c([H])c(F)c([H])c5F)c([H])c4[H])c(C(=O)N([H])[H])c3N([H])[H])C2([H])[H])C([H])([H])[H])c([H])c1[H]

>  <smiles>  (67) 
[H]c1c(OC([H])([H])C([H])(C([H])([H])[H])C([H])([H])Oc2c([H])c([H])c3c(c2[H])C([H])([H])N(C(=O)C([H])(N([H])C(=O)C([H])(N([H])C([H])([H])[H])C([H])([H])[H])C(C([H])([H])[H])(C([H])([H])[H])C([H])([H])[H])C([H])(C(=O)N([H])C2([H])c4c([H])c([H])c([H])c([H])c4C([H])([H])C([H])([H])C2([H])[H])C3([H])[H])nc(C([H])(N([H])C(=O)N2C([H])([H])C([H])([H])C([H])([H])C([H])(n3nc(-c4c([H])c([H])c(Oc5c([H])c([H])c(F)c([H])c5F)c([H])c4[H])c(C(=O)N([H])[H])c3N([H])[H])C2([H])[H])C([H])([H])[H])c([H])c1[H]

$$$$
69:0:0
     RDKit          3D

 93101  0  0  1  0  0  0  0  0999 V2000
  -29.3130  -20.5260   18.2620 C   0  0  0  0  0  3  0  0  0  0  0  0
  -29.2630  -21.1240   19.4910 C   0  0  0  0  0  0  0  0  0  0  0  0
  -29.2920  -22.7070   17.8730 C   0  0  0  0  0  3  0  0  0  0  0  0
  -29.2230  -22.5550   19.2360 N   0  0  0  0  0  0  0  0  0  0  0  0
  -29.3220  -21.4910   17.3250 N   0  0  0  0  0  0  0  0  0  0  0  0
  -29.3750  -21.3020   16.3330 H   0  0  0  0  0  0  0  0  0  0  0  0
  -29.2930  -20.2310   20.7620 C   0  0  0  0  0  2  0  0  0  0  0  0
  -28.9250  -18.6440   20.5750 C   0  0  0  0  0  3  0  0  0  0  0  0
  -30.0190  -17.4580   20.3700 C   0  0  0  0  0  3  0  0  0  0  0  0
  -30.4010  -14.8510   20.3440 C   0  0  0  0  0  0  0  0  0  0  0  0
  -30.2350  -12.6000   19.2750 C   0  0  0  0  0  2  0  0  0  0  0  0
  -29.2490  -12.6730   18.0850 C   0  0  0  0  0  2  0  0  0  0  0  0
  -27.8010  -12.4340   18.5560 C   0  0  0  0  0  2  0  0  0  0  0  0
  -27.4380  -13.2680   19.8140 C   0  0  0  0  0  3  0  0  0  0  0  0
  -28.5370  -13.1830   20.8930 C   0  0  0  0  0  2  0  0  0  0  0  0
  -29.7990  -13.6150   20.2650 N   0  0  0  0  0  0  0  0  0  0  0  0
  -31.5800  -14.9800   20.0010 O   0  0  0  0  0  0  0  0  0  0  0  0
  -29.6270  -15.9810   20.5680 N   0  0  0  0  0  0  0  0  0  0  0  0
  -28.6620  -15.7970   20.7940 H   0  0  0  0  0  0  0  0  0  0  0  0
  -25.0610  -13.7500   20.6390 C   0  0  0  0  0  0  0  0  0  0  0  0
  -24.0330  -12.9310   21.0210 C   0  0  0  0  0  0  0  0  0  0  0  0
  -24.5350  -11.5980   20.9210 C   0  0  0  0  0  0  0  0  0  0  0  0
  -26.1250  -12.9110   20.3390 N   0  0  0  0  0  0  0  0  0  0  0  0
  -25.8170  -11.6080   20.5720 N   0  0  0  0  0  0  0  0  0  0  0  0
  -23.8520  -10.3070   21.0950 C   0  0  0  0  0  0  0  0  0  0  0  0
  -24.3190   -9.3450   22.0170 C   0  0  0  0  0  3  0  0  0  0  0  0
  -23.6370   -8.1190   22.1810 C   0  0  0  0  0  3  0  0  0  0  0  0
  -22.4770   -7.8450   21.4210 C   0  0  0  0  0  0  0  0  0  0  0  0
  -22.0290   -8.7950   20.4880 C   0  0  0  0  0  3  0  0  0  0  0  0
  -22.7100  -10.0120   20.3230 C   0  0  0  0  0  3  0  0  0  0  0  0
  -21.7720   -6.6680   21.4900 O   0  0  0  0  0  0  0  0  0  0  0  0
  -21.7240   -5.9220   22.6400 C   0  0  0  0  0  0  0  0  0  0  0  0
  -21.2150   -6.4490   23.8470 C   0  0  0  0  0  3  0  0  0  0  0  0
  -21.1190   -5.6280   24.9900 C   0  0  0  0  0  3  0  0  0  0  0  0
  -21.5220   -4.2800   24.9230 C   0  0  0  0  0  0  0  0  0  0  0  0
  -22.0180   -3.7510   23.7200 C   0  0  0  0  0  3  0  0  0  0  0  0
  -22.1160   -4.5700   22.5800 C   0  0  0  0  0  0  0  0  0  0  0  0
  -22.5780   -4.0530   21.4180 F   0  0  0  0  0  0  0  0  0  0  0  0
  -21.4210   -3.4860   26.0150 F   0  0  0  0  0  0  0  0  0  0  0  0
  -22.6320  -13.3520   21.3490 C   0  0  0  0  0  0  0  0  0  0  0  0
  -21.9540  -12.6000   22.2110 N   0  0  0  0  0  0  0  0  0  0  0  0
  -22.1440  -14.3760   20.8740 O   0  0  0  0  0  0  0  0  0  0  0  0
  -22.3650  -11.7740   22.6240 H   0  0  0  0  0  0  0  0  0  0  0  0
  -21.0120  -12.8590   22.4650 H   0  0  0  0  0  0  0  0  0  0  0  0
  -25.1720  -15.1310   20.5000 N   0  0  0  0  0  0  0  0  0  0  0  0
  -24.3900  -15.7570   20.6530 H   0  0  0  0  0  0  0  0  0  0  0  0
  -25.9780  -15.6030   20.1080 H   0  0  0  0  0  0  0  0  0  0  0  0
  -29.3490  -23.9350   16.9930 C   0  0  0  0  0  2  0  0  0  0  0  0
  -29.8930  -25.0450   14.7470 C   0  0  0  0  0  1  0  0  0  0  0  0
  -29.8660  -23.7320   15.5490 C   0  0  0  0  0  2  0  0  0  0  0  0
  -29.2330  -23.8070   20.1860 C   0  0  0  0  0  3  0  0  0  0  0  0
  -28.4000  -25.1630   19.8160 C   0  0  0  0  0  3  0  0  0  0  0  0
  -28.4160  -26.4810   20.5450 O   0  0  0  0  0  0  0  0  0  0  0  0
  -24.6090  -32.0050   23.3870 C   0  0  0  0  0  0  0  0  0  0  0  0
  -27.3160  -27.3760   20.4390 C   0  0  0  0  0  0  0  0  0  0  0  0
  -23.4520  -30.5810   21.7350 C   0  0  0  0  0  3  0  0  0  0  0  0
  -24.9500  -29.0200   20.3590 C   0  0  0  0  0  0  0  0  0  0  0  0
  -26.0000  -30.8870   21.6280 C   0  0  0  0  0  2  0  0  0  0  0  0
  -26.1000  -29.4960   21.0020 C   0  0  0  0  0  0  0  0  0  0  0  0
  -27.2770  -28.6760   21.0500 C   0  0  0  0  0  3  0  0  0  0  0  0
  -26.1500  -27.0010   19.7310 C   0  0  0  0  0  3  0  0  0  0  0  0
  -24.9810  -27.7790   19.7130 C   0  0  0  0  0  3  0  0  0  0  0  0
  -23.7120  -29.8930   20.3690 C   0  0  0  0  0  2  0  0  0  0  0  0
  -24.7030  -31.1770   22.3070 N   0  0  0  0  0  0  0  0  0  0  0  0
  -23.5100  -32.2910   23.8880 O   0  0  0  0  0  0  0  0  0  0  0  0
  -22.7590  -29.5780   22.6910 C   0  0  0  0  0  0  0  0  0  0  0  0
  -21.4410  -29.3790   22.5150 N   0  0  0  0  0  0  0  0  0  0  0  0
  -23.4060  -28.9830   23.5570 O   0  0  0  0  0  0  0  0  0  0  0  0
  -20.9710  -29.9080   21.7940 H   0  0  0  0  0  0  0  0  0  0  0  0
  -18.0600  -28.1470   22.8970 C   0  0  0  0  0  0  0  0  0  0  0  0
  -20.6020  -28.4500   23.2740 C   0  0  0  0  0  3  0  0  0  0  0  0
  -20.7500  -27.0070   22.7380 C   0  0  0  0  0  2  0  0  0  0  0  0
  -19.6960  -26.6430   21.6880 C   0  0  0  0  0  2  0  0  0  0  0  0
  -18.2850  -26.7830   22.2650 C   0  0  0  0  0  2  0  0  0  0  0  0
  -19.1480  -28.9340   23.3570 C   0  0  0  0  0  0  0  0  0  0  0  0
  -18.8840  -30.2100   23.9050 C   0  0  0  0  0  3  0  0  0  0  0  0
  -17.5650  -30.6930   24.0080 C   0  0  0  0  0  3  0  0  0  0  0  0
  -16.4910  -29.9020   23.5670 C   0  0  0  0  0  3  0  0  0  0  0  0
  -16.7380  -28.6330   23.0130 C   0  0  0  0  0  3  0  0  0  0  0  0
  -25.8730  -32.6460   24.0360 C   0  0  0  0  0  3  0  0  0  0  0  0
  -25.5710  -34.0600   24.3040 N   0  0  0  0  0  0  0  0  0  0  0  0
  -25.9090  -35.0760   23.4970 C   0  0  0  0  0  0  0  0  0  0  0  0
  -26.5760  -34.9240   22.4710 O   0  0  0  0  0  0  0  0  0  0  0  0
  -24.9880  -34.2560   25.1050 H   0  0  0  0  0  0  0  0  0  0  0  0
  -24.1850  -36.8550   23.0820 C   0  0  0  0  0  1  0  0  0  0  0  0
  -25.4330  -36.4870   23.8990 C   0  0  0  0  0  3  0  0  0  0  0  0
  -27.5740  -37.4070   24.6650 C   0  0  0  0  0  1  0  0  0  0  0  0
  -26.4670  -37.5270   23.7200 N   0  0  0  0  0  0  0  0  0  0  0  0
  -26.0640  -38.4550   23.8210 H   0  0  0  0  0  0  0  0  0  0  0  0
  -26.3350  -31.9100   25.3530 C   0  0  1  0  0  0  0  0  0  0  0  0
  -25.1920  -31.6920   26.3710 C   0  0  0  0  0  1  0  0  0  0  0  0
  -26.9460  -30.5270   25.0290 C   0  0  0  0  0  1  0  0  0  0  0  0
  -27.4540  -32.7270   26.0420 C   0  0  0  0  0  1  0  0  0  0  0  0
  1  2  2  0
  2  7  1  0
  3 48  1  0
  3  4  1  0
  4  2  1  0
  4 51  1  0
  5  3  1  0
  5  1  1  0
  6  5  1  0
  8  7  1  0
  9 18  1  0
  9  8  2  0
 10 18  1  0
 11 16  1  0
 12 13  1  0
 12 11  1  0
 14 13  1  0
 14 23  1  0
 14 15  1  0
 16 10  1  0
 16 15  1  0
 17 10  2  0
 18 19  1  0
 20 21  2  0
 21 40  1  0
 22 21  1  0
 22 25  1  0
 23 24  1  0
 23 20  1  0
 24 22  2  0
 25 26  1  0
 26 27  2  0
 28 31  1  0
 28 27  1  0
 29 28  2  0
 30 29  1  0
 30 25  2  0
 31 32  1  0
 32 33  1  0
 33 34  2  0
 35 34  1  0
 35 39  1  0
 36 35  2  0
 37 32  2  0
 37 36  1  0
 38 37  1  0
 40 41  1  0
 41 44  1  0
 41 43  1  0
 42 40  2  0
 45 20  1  0
 45 46  1  0
 47 45  1  0
 49 50  1  0
 50 48  1  0
 52 51  2  0
 52 53  1  0
 54 65  2  0
 55 53  1  0
 55 60  1  0
 56 64  1  0
 56 66  1  0
 57 63  1  0
 57 59  1  0
 58 64  1  0
 59 60  2  0
 59 58  1  0
 61 55  2  0
 62 61  1  0
 62 57  2  0
 63 56  1  0
 64 54  1  0
 66 68  2  0
 67 66  1  0
 69 67  1  0
 70 79  2  0
 70 75  1  0
 71 67  1  0
 71 75  1  0
 72 71  1  0
 73 74  1  0
 73 72  1  0
 74 70  1  0
 75 76  2  0
 76 77  1  0
 78 77  2  0
 79 78  1  0
 80 54  1  0
 80 81  1  0
 80 90  1  0
 81 84  1  0
 82 86  1  0
 82 81  1  0
 83 82  2  0
 86 85  1  0
 88 89  1  0
 88 86  1  0
 88 87  1  0
 90 93  1  1
 90 91  1  0
 92 90  1  0
M  ISO  4  10 100  18 100  52 101  53 101
M  END
>  <TORSDO>  (68) 
F 23

>  <SCORE>  (68) 
-12.570

>  <name>  (68) 
69

>  <ligand_id>  (68) 
69

>  <original_smiles>  (68) 
[H]c1c([H])c([H])c2c(c1[H])C([H])([H])C([H])([H])C([H])([H])C2([H])N([H])C(=O)C1([H])N(C(=O)C([H])(N([H])C(=O)C([H])(N([H])C([H])([H])[H])C([H])([H])[H])C(C([H])([H])[H])(C([H])([H])[H])C([H])([H])[H])C([H])([H])c2c([H])c(OC([H])([H])C([H])([H])n3c(C([H])([H])C([H])([H])C([H])([H])N([H])C(=O)N4C([H])([H])C([H])([H])C([H])([H])C([H])(n5nc(-c6c([H])c([H])c(Oc7c([H])c([H])c(F)c([H])c7F)c([H])c6[H])c(C(=O)N([H])[H])c5N([H])[H])C4([H])[H])c([H])[n+]([H])c3C([H])([H])C([H])([H])C([H])([H])[H])c([H])c([H])c2C1([H])[H]

>  <smiles>  (68) 
[H]c1c([H])c([H])c2c(c1[H])C([H])([H])C([H])([H])C([H])([H])C2([H])N([H])C(=O)C1([H])N(C(=O)C([H])(N([H])C(=O)C([H])(N([H])C([H])([H])[H])C([H])([H])[H])C(C([H])([H])[H])(C([H])([H])[H])C([H])([H])[H])C([H])([H])c2c([H])c(OC([H])([H])C([H])([H])n3c(C([H])([H])C([H])([H])C([H])([H])N([H])C(=O)N4C([H])([H])C([H])([H])C([H])([H])C([H])(n5nc(-c6c([H])c([H])c(Oc7c([H])c([H])c(F)c([H])c7F)c([H])c6[H])c(C(=O)N([H])[H])c5N([H])[H])C4([H])[H])c([H])[n+]([H])c3C([H])([H])C([H])([H])C([H])([H])[H])c([H])c([H])c2C1([H])[H]

$$$$
70:0:0
     RDKit          3D

 94102  0  0  1  0  0  0  0  0999 V2000
  -28.7020  -21.1240   21.8130 C   0  0  0  0  0  3  0  0  0  0  0  0
  -29.8770  -20.6640   22.4140 C   0  0  0  0  0  0  0  0  0  0  0  0
  -30.6230  -19.6440   21.7640 C   0  0  0  0  0  0  0  0  0  0  0  0
  -28.2730  -20.5490   20.6140 C   0  0  0  0  0  0  0  0  0  0  0  0
  -30.0730  -19.0180   20.6030 C   0  0  0  0  0  0  0  0  0  0  0  0
  -30.2950  -21.2780   23.7410 C   0  0  0  0  0  1  0  0  0  0  0  0
  -32.0020  -19.3110   22.3130 C   0  0  0  0  0  1  0  0  0  0  0  0
  -28.9320  -19.5090   20.0380 N   0  0  0  0  0  0  0  0  0  0  0  0
  -26.9840  -21.0620   19.9750 C   0  0  0  0  0  2  0  0  0  0  0  0
  -27.1010  -22.2510   18.9800 C   0  0  0  0  0  2  0  0  0  0  0  0
  -27.1030  -23.7040   19.5530 C   0  0  0  0  0  2  0  0  0  0  0  0
  -27.0100  -24.7610   18.4140 C   0  0  0  0  0  2  0  0  0  0  0  0
  -27.3180  -26.1190   18.7610 O   0  0  0  0  0  0  0  0  0  0  0  0
  -25.2630  -30.9930   23.4890 C   0  0  0  0  0  0  0  0  0  0  0  0
  -26.3290  -27.0330   19.0800 C   0  0  0  0  0  0  0  0  0  0  0  0
  -23.5490  -30.3350   21.8290 C   0  0  0  0  0  3  0  0  0  0  0  0
  -24.3920  -28.9540   19.8550 C   0  0  0  0  0  0  0  0  0  0  0  0
  -26.0380  -30.2140   21.2540 C   0  0  0  0  0  2  0  0  0  0  0  0
  -25.7050  -29.0610   20.3240 C   0  0  0  0  0  0  0  0  0  0  0  0
  -26.6740  -28.1110   19.9310 C   0  0  0  0  0  3  0  0  0  0  0  0
  -24.9950  -26.9410   18.6180 C   0  0  0  0  0  3  0  0  0  0  0  0
  -24.0330  -27.8980   18.9960 C   0  0  0  0  0  3  0  0  0  0  0  0
  -23.4080  -30.0040   20.3190 C   0  0  0  0  0  2  0  0  0  0  0  0
  -24.9770  -30.5090   22.2460 N   0  0  0  0  0  0  0  0  0  0  0  0
  -24.3590  -31.3300   24.2660 O   0  0  0  0  0  0  0  0  0  0  0  0
  -22.8030  -29.2560   22.6440 C   0  0  0  0  0  0  0  0  0  0  0  0
  -21.4700  -29.2050   22.4840 N   0  0  0  0  0  0  0  0  0  0  0  0
  -23.4180  -28.4730   23.3720 O   0  0  0  0  0  0  0  0  0  0  0  0
  -21.0380  -29.8740   21.8620 H   0  0  0  0  0  0  0  0  0  0  0  0
  -18.0610  -28.0140   22.5510 C   0  0  0  0  0  0  0  0  0  0  0  0
  -20.5690  -28.2490   23.1250 C   0  0  0  0  0  3  0  0  0  0  0  0
  -20.7350  -26.8370   22.5170 C   0  0  0  0  0  2  0  0  0  0  0  0
  -19.7580  -26.5540   21.3700 C   0  0  0  0  0  2  0  0  0  0  0  0
  -18.3110  -26.6870   21.8530 C   0  0  0  0  0  2  0  0  0  0  0  0
  -19.1230  -28.7550   23.1350 C   0  0  0  0  0  0  0  0  0  0  0  0
  -18.8390  -29.9960   23.7400 C   0  0  0  0  0  3  0  0  0  0  0  0
  -17.5260  -30.5030   23.7660 C   0  0  0  0  0  3  0  0  0  0  0  0
  -16.4770  -29.7590   23.2020 C   0  0  0  0  0  3  0  0  0  0  0  0
  -16.7430  -28.5140   22.6040 C   0  0  0  0  0  3  0  0  0  0  0  0
  -26.7330  -31.1690   23.9840 C   0  0  0  0  0  3  0  0  0  0  0  0
  -26.8100  -32.4540   24.6920 N   0  0  0  0  0  0  0  0  0  0  0  0
  -27.3240  -33.5770   24.1740 C   0  0  0  0  0  0  0  0  0  0  0  0
  -27.8530  -33.6190   23.0610 O   0  0  0  0  0  0  0  0  0  0  0  0
  -26.3450  -32.5080   25.5860 H   0  0  0  0  0  0  0  0  0  0  0  0
  -26.0720  -35.7290   24.5320 C   0  0  0  0  0  1  0  0  0  0  0  0
  -27.2370  -34.8570   25.0270 C   0  0  0  0  0  3  0  0  0  0  0  0
  -29.5880  -34.9930   25.7270 C   0  0  0  0  0  1  0  0  0  0  0  0
  -28.4860  -35.6500   25.0280 N   0  0  0  0  0  0  0  0  0  0  0  0
  -28.3350  -36.5600   25.4570 H   0  0  0  0  0  0  0  0  0  0  0  0
  -27.2260  -29.9900   24.9110 C   0  0  1  0  0  0  0  0  0  0  0  0
  -26.2600  -29.6730   26.0750 C   0  0  0  0  0  1  0  0  0  0  0  0
  -27.4170  -28.6910   24.0920 C   0  0  0  0  0  1  0  0  0  0  0  0
  -28.6090  -30.3380   25.5140 C   0  0  0  0  0  1  0  0  0  0  0  0
  -30.7060  -17.8330   19.8050 C   0  0  0  0  0  2  0  0  0  0  0  0
  -32.8890  -16.6040   20.4890 C   0  0  0  0  0  1  0  0  0  0  0  0
  -31.3420  -16.5880   20.5270 C   0  0  0  0  0  3  0  0  0  0  0  0
  -31.3640  -14.2500   19.4210 C   0  0  0  0  0  0  0  0  0  0  0  0
  -31.0260  -11.8820   18.7630 C   0  0  0  0  0  2  0  0  0  0  0  0
  -29.9520  -11.7190   17.6660 C   0  0  0  0  0  2  0  0  0  0  0  0
  -28.5360  -11.6800   18.2730 C   0  0  0  0  0  2  0  0  0  0  0  0
  -28.2880  -12.8350   19.2750 C   0  0  0  0  0  3  0  0  0  0  0  0
  -29.4350  -12.8890   20.3040 C   0  0  0  0  0  2  0  0  0  0  0  0
  -30.6980  -13.0740   19.5610 N   0  0  0  0  0  0  0  0  0  0  0  0
  -32.3710  -14.3800   18.7160 O   0  0  0  0  0  0  0  0  0  0  0  0
  -30.8280  -15.2620   20.1270 N   0  0  0  0  0  0  0  0  0  0  0  0
  -29.9790  -14.9890   20.6010 H   0  0  0  0  0  0  0  0  0  0  0  0
  -26.1070  -13.7070   20.3280 C   0  0  0  0  0  0  0  0  0  0  0  0
  -25.0060  -13.0550   20.8150 C   0  0  0  0  0  0  0  0  0  0  0  0
  -25.2800  -11.6600   20.6770 C   0  0  0  0  0  0  0  0  0  0  0  0
  -26.9850  -12.7140   19.9240 N   0  0  0  0  0  0  0  0  0  0  0  0
  -26.5010  -11.4740   20.1920 N   0  0  0  0  0  0  0  0  0  0  0  0
  -24.4320  -10.4880   20.9240 C   0  0  0  0  0  0  0  0  0  0  0  0
  -24.7870   -9.5080   21.8780 C   0  0  0  0  0  3  0  0  0  0  0  0
  -23.9480   -8.3980   22.1060 C   0  0  0  0  0  3  0  0  0  0  0  0
  -22.7400   -8.2600   21.3820 C   0  0  0  0  0  0  0  0  0  0  0  0
  -22.4020   -9.2270   20.4190 C   0  0  0  0  0  3  0  0  0  0  0  0
  -23.2410  -10.3310   20.1880 C   0  0  0  0  0  3  0  0  0  0  0  0
  -21.8740   -7.2020   21.5210 O   0  0  0  0  0  0  0  0  0  0  0  0
  -21.6690   -6.5940   22.7340 C   0  0  0  0  0  0  0  0  0  0  0  0
  -21.1940   -7.3090   23.8540 C   0  0  0  0  0  3  0  0  0  0  0  0
  -20.9300   -6.6330   25.0610 C   0  0  0  0  0  3  0  0  0  0  0  0
  -21.1310   -5.2420   25.1490 C   0  0  0  0  0  0  0  0  0  0  0  0
  -21.5990   -4.5270   24.0320 C   0  0  0  0  0  3  0  0  0  0  0  0
  -21.8650   -5.2010   22.8280 C   0  0  0  0  0  0  0  0  0  0  0  0
  -22.2940   -4.5030   21.7480 F   0  0  0  0  0  0  0  0  0  0  0  0
  -20.8710   -4.5890   26.3060 F   0  0  0  0  0  0  0  0  0  0  0  0
  -23.7300  -13.6850   21.2960 C   0  0  0  0  0  0  0  0  0  0  0  0
  -23.0570  -13.0520   22.2510 N   0  0  0  0  0  0  0  0  0  0  0  0
  -23.3450  -14.7680   20.8580 O   0  0  0  0  0  0  0  0  0  0  0  0
  -23.3790  -12.1700   22.6180 H   0  0  0  0  0  0  0  0  0  0  0  0
  -22.2060  -13.4530   22.6150 H   0  0  0  0  0  0  0  0  0  0  0  0
  -26.4310  -15.0530   20.1760 N   0  0  0  0  0  0  0  0  0  0  0  0
  -25.7990  -15.8060   20.4250 H   0  0  0  0  0  0  0  0  0  0  0  0
  -27.2930  -15.3820   19.7600 H   0  0  0  0  0  0  0  0  0  0  0  0
  1  2  1  0
  2  6  1  0
  3  7  1  0
  3  2  2  0
  4  1  2  0
  5  3  1  0
  8  5  2  0
  8  4  1  0
  9  4  1  0
 10 11  1  0
 10  9  1  0
 12 13  1  0
 12 11  1  0
 13 15  1  0
 14 25  2  0
 15 20  1  0
 16 24  1  0
 16 26  1  0
 17 23  1  0
 17 19  1  0
 18 24  1  0
 19 18  1  0
 20 19  2  0
 21 22  1  0
 21 15  2  0
 22 17  2  0
 23 16  1  0
 24 14  1  0
 26 28  2  0
 27 26  1  0
 29 27  1  0
 30 39  2  0
 30 35  1  0
 31 27  1  0
 31 35  1  0
 32 31  1  0
 33 34  1  0
 33 32  1  0
 34 30  1  0
 35 36  2  0
 36 37  1  0
 38 37  2  0
 39 38  1  0
 40 14  1  0
 40 41  1  0
 40 50  1  0
 41 44  1  0
 42 41  1  0
 42 46  1  0
 43 42  2  0
 46 45  1  0
 46 48  1  0
 48 49  1  0
 48 47  1  0
 50 53  1  1
 50 51  1  0
 52 50  1  0
 54 56  1  0
 54  5  1  0
 56 55  1  0
 57 63  1  0
 57 65  1  0
 58 63  1  0
 59 60  1  0
 59 58  1  0
 61 60  1  0
 61 70  1  0
 61 62  1  0
 63 62  1  0
 64 57  2  0
 65 56  1  0
 65 66  1  0
 67 68  2  0
 68 87  1  0
 69 68  1  0
 69 72  1  0
 70 71  1  0
 70 67  1  0
 71 69  2  0
 72 73  1  0
 73 74  2  0
 75 78  1  0
 75 74  1  0
 76 75  2  0
 77 76  1  0
 77 72  2  0
 78 79  1  0
 79 84  2  0
 79 80  1  0
 80 81  2  0
 81 82  1  0
 82 86  1  0
 83 82  2  0
 84 83  1  0
 85 84  1  0
 87 88  1  0
 88 91  1  0
 88 90  1  0
 89 87  2  0
 92 67  1  0
 92 93  1  0
 94 92  1  0
M  ISO  4  12 101  13 101  57 100  65 100
M  END
>  <TORSDO>  (69) 
F 22

>  <SCORE>  (69) 
-9.452

>  <name>  (69) 
70

>  <ligand_id>  (69) 
70

>  <original_smiles>  (69) 
[H]c1c([H])c([H])c2c(c1[H])C([H])([H])C([H])([H])C([H])([H])C2([H])N([H])C(=O)C1([H])N(C(=O)C([H])(N([H])C(=O)C([H])(N([H])C([H])([H])[H])C([H])([H])[H])C(C([H])([H])[H])(C([H])([H])[H])C([H])([H])[H])C([H])([H])c2c([H])c(OC([H])([H])C([H])([H])C([H])([H])C([H])([H])c3nc(C([H])([H])C([H])(N([H])C(=O)N4C([H])([H])C([H])([H])C([H])([H])C([H])(n5nc(-c6c([H])c([H])c(Oc7c([H])c([H])c(F)c([H])c7F)c([H])c6[H])c(C(=O)N([H])[H])c5N([H])[H])C4([H])[H])C([H])([H])[H])c(C([H])([H])[H])c(C([H])([H])[H])c3[H])c([H])c([H])c2C1([H])[H]

>  <smiles>  (69) 
[H]c1c([H])c([H])c2c(c1[H])C([H])([H])C([H])([H])C([H])([H])C2([H])N([H])C(=O)C1([H])N(C(=O)C([H])(N([H])C(=O)C([H])(N([H])C([H])([H])[H])C([H])([H])[H])C(C([H])([H])[H])(C([H])([H])[H])C([H])([H])[H])C([H])([H])c2c([H])c(OC([H])([H])C([H])([H])C([H])([H])C([H])([H])c3nc(C([H])([H])C([H])(N([H])C(=O)N4C([H])([H])C([H])([H])C([H])([H])C([H])(n5nc(-c6c([H])c([H])c(Oc7c([H])c([H])c(F)c([H])c7F)c([H])c6[H])c(C(=O)N([H])[H])c5N([H])[H])C4([H])[H])C([H])([H])[H])c(C([H])([H])[H])c(C([H])([H])[H])c3[H])c([H])c([H])c2C1([H])[H]

$$$$
71:0:0
     RDKit          3D

 93101  0  0  1  0  0  0  0  0999 V2000
  -30.3990  -22.7640   20.9750 C   0  0  0  0  0  3  0  0  0  0  0  0
  -28.8190  -21.5630   19.6250 C   0  0  0  0  0  3  0  0  0  0  0  0
  -29.2660  -22.8110   20.1370 C   0  0  0  0  0  0  0  0  0  0  0  0
  -31.0430  -21.5290   21.2080 C   0  0  0  0  0  0  0  0  0  0  0  0
  -29.5540  -20.3610   19.8570 C   0  0  0  0  0  0  0  0  0  0  0  0
  -32.2780  -21.4590   22.0800 C   0  0  0  0  0  1  0  0  0  0  0  0
  -30.6580  -20.3650   20.6350 N   0  0  0  0  0  0  0  0  0  0  0  0
  -29.4520  -19.5030   17.5210 C   0  0  0  0  0  1  0  0  0  0  0  0
  -29.2540  -19.0910   19.0060 C   0  0  0  0  0  3  0  0  0  0  0  0
  -29.7020  -16.6470   18.2030 C   0  0  0  0  0  1  0  0  0  0  0  0
  -30.0250  -17.7120   19.2890 C   0  0  0  0  0  3  0  0  0  0  0  0
  -29.9480  -17.0820   20.7360 C   0  0  0  0  0  2  0  0  0  0  0  0
  -30.5830  -14.5580   20.6530 C   0  0  0  0  0  0  0  0  0  0  0  0
  -30.3930  -12.3320   19.5950 C   0  0  0  0  0  2  0  0  0  0  0  0
  -29.4940  -12.4800   18.3480 C   0  0  0  0  0  2  0  0  0  0  0  0
  -28.0020  -12.3390   18.7210 C   0  0  0  0  0  2  0  0  0  0  0  0
  -27.6080  -13.2060   19.9470 C   0  0  0  0  0  3  0  0  0  0  0  0
  -28.6260  -13.0350   21.0990 C   0  0  0  0  0  2  0  0  0  0  0  0
  -29.9620  -13.3470   20.5680 N   0  0  0  0  0  0  0  0  0  0  0  0
  -31.7640  -14.7240   20.3400 O   0  0  0  0  0  0  0  0  0  0  0  0
  -29.7420  -15.6040   20.8530 N   0  0  0  0  0  0  0  0  0  0  0  0
  -28.7990  -15.3250   21.0760 H   0  0  0  0  0  0  0  0  0  0  0  0
  -25.1870  -13.8200   20.5640 C   0  0  0  0  0  0  0  0  0  0  0  0
  -24.1070  -13.0530   20.9060 C   0  0  0  0  0  0  0  0  0  0  0  0
  -24.5700  -11.7020   20.9150 C   0  0  0  0  0  0  0  0  0  0  0  0
  -26.2400  -12.9350   20.3840 N   0  0  0  0  0  0  0  0  0  0  0  0
  -25.8700  -11.6580   20.6550 N   0  0  0  0  0  0  0  0  0  0  0  0
  -23.8380  -10.4420   21.0990 C   0  0  0  0  0  0  0  0  0  0  0  0
  -24.2580   -9.4740   22.0370 C   0  0  0  0  0  3  0  0  0  0  0  0
  -23.5280   -8.2780   22.2080 C   0  0  0  0  0  3  0  0  0  0  0  0
  -22.3630   -8.0420   21.4410 C   0  0  0  0  0  0  0  0  0  0  0  0
  -21.9610   -9.0000   20.4930 C   0  0  0  0  0  3  0  0  0  0  0  0
  -22.6930  -10.1860   20.3200 C   0  0  0  0  0  3  0  0  0  0  0  0
  -21.6040   -6.8990   21.5240 O   0  0  0  0  0  0  0  0  0  0  0  0
  -21.5650   -6.1410   22.6660 C   0  0  0  0  0  0  0  0  0  0  0  0
  -21.1780   -6.6870   23.9090 C   0  0  0  0  0  3  0  0  0  0  0  0
  -21.0830   -5.8570   25.0440 C   0  0  0  0  0  3  0  0  0  0  0  0
  -21.3650   -4.4820   24.9360 C   0  0  0  0  0  0  0  0  0  0  0  0
  -21.7440   -3.9350   23.6980 C   0  0  0  0  0  3  0  0  0  0  0  0
  -21.8400   -4.7630   22.5650 C   0  0  0  0  0  0  0  0  0  0  0  0
  -22.1860   -4.2270   21.3700 F   0  0  0  0  0  0  0  0  0  0  0  0
  -21.2670   -3.6830   26.0240 F   0  0  0  0  0  0  0  0  0  0  0  0
  -22.7000  -13.5330   21.1190 C   0  0  0  0  0  0  0  0  0  0  0  0
  -21.9420  -12.8520   21.9710 N   0  0  0  0  0  0  0  0  0  0  0  0
  -22.2800  -14.5480   20.5650 O   0  0  0  0  0  0  0  0  0  0  0  0
  -22.2910  -12.0310   22.4440 H   0  0  0  0  0  0  0  0  0  0  0  0
  -20.9960  -13.1580   22.1560 H   0  0  0  0  0  0  0  0  0  0  0  0
  -25.3570  -15.1880   20.3690 N   0  0  0  0  0  0  0  0  0  0  0  0
  -24.5860  -15.8430   20.4390 H   0  0  0  0  0  0  0  0  0  0  0  0
  -26.2100  -15.6220   20.0400 H   0  0  0  0  0  0  0  0  0  0  0  0
  -28.6820  -24.1630   19.6350 C   0  0  0  0  0  2  0  0  0  0  0  0
  -28.3710  -25.2980   20.6680 C   0  0  0  0  0  2  0  0  0  0  0  0
  -28.3860  -26.6430   20.1110 O   0  0  0  0  0  0  0  0  0  0  0  0
  -24.6160  -31.8810   23.2110 C   0  0  0  0  0  0  0  0  0  0  0  0
  -27.2190  -27.3880   20.1370 C   0  0  0  0  0  0  0  0  0  0  0  0
  -23.3920  -30.4790   21.5800 C   0  0  0  0  0  3  0  0  0  0  0  0
  -24.8310  -28.9240   20.1500 C   0  0  0  0  0  0  0  0  0  0  0  0
  -25.9200  -30.8200   21.3640 C   0  0  0  0  0  2  0  0  0  0  0  0
  -25.9980  -29.4440   20.7250 C   0  0  0  0  0  0  0  0  0  0  0  0
  -27.1960  -28.6880   20.7060 C   0  0  0  0  0  3  0  0  0  0  0  0
  -26.0340  -26.8860   19.5600 C   0  0  0  0  0  3  0  0  0  0  0  0
  -24.8470  -27.6460   19.5610 C   0  0  0  0  0  3  0  0  0  0  0  0
  -23.5890  -29.7900   20.2020 C   0  0  0  0  0  2  0  0  0  0  0  0
  -24.6610  -31.0770   22.1080 N   0  0  0  0  0  0  0  0  0  0  0  0
  -23.5410  -32.1580   23.7590 O   0  0  0  0  0  0  0  0  0  0  0  0
  -22.7450  -29.4640   22.5510 C   0  0  0  0  0  0  0  0  0  0  0  0
  -21.4190  -29.2850   22.4360 N   0  0  0  0  0  0  0  0  0  0  0  0
  -23.4330  -28.8400   23.3630 O   0  0  0  0  0  0  0  0  0  0  0  0
  -20.9230  -29.8400   21.7530 H   0  0  0  0  0  0  0  0  0  0  0  0
  -18.0470  -28.0850   22.9560 C   0  0  0  0  0  0  0  0  0  0  0  0
  -20.6060  -28.3500   23.2160 C   0  0  0  0  0  3  0  0  0  0  0  0
  -20.7070  -26.9150   22.6470 C   0  0  0  0  0  2  0  0  0  0  0  0
  -19.6030  -26.5860   21.6390 C   0  0  0  0  0  2  0  0  0  0  0  0
  -18.2230  -26.7330   22.2870 C   0  0  0  0  0  2  0  0  0  0  0  0
  -19.1670  -28.8520   23.3780 C   0  0  0  0  0  0  0  0  0  0  0  0
  -18.9500  -30.1180   23.9630 C   0  0  0  0  0  3  0  0  0  0  0  0
  -17.6440  -30.6200   24.1290 C   0  0  0  0  0  3  0  0  0  0  0  0
  -16.5390  -29.8500   23.7260 C   0  0  0  0  0  3  0  0  0  0  0  0
  -16.7420  -28.5850   23.1450 C   0  0  0  0  0  3  0  0  0  0  0  0
  -25.9100  -32.5090   23.8200 C   0  0  0  0  0  3  0  0  0  0  0  0
  -25.6020  -33.9010   24.1730 N   0  0  0  0  0  0  0  0  0  0  0  0
  -25.9180  -34.9650   23.4210 C   0  0  0  0  0  0  0  0  0  0  0  0
  -26.5720  -34.8780   22.3790 O   0  0  0  0  0  0  0  0  0  0  0  0
  -25.0180  -34.0420   24.9840 H   0  0  0  0  0  0  0  0  0  0  0  0
  -24.1750  -36.7540   23.1220 C   0  0  0  0  0  1  0  0  0  0  0  0
  -25.4320  -36.3450   23.9050 C   0  0  0  0  0  3  0  0  0  0  0  0
  -27.5790  -37.2260   24.7060 C   0  0  0  0  0  1  0  0  0  0  0  0
  -26.4580  -37.4050   23.7870 N   0  0  0  0  0  0  0  0  0  0  0  0
  -26.0500  -38.3200   23.9570 H   0  0  0  0  0  0  0  0  0  0  0  0
  -26.4540  -31.7230   25.0760 C   0  0  1  0  0  0  0  0  0  0  0  0
  -25.3830  -31.4700   26.1630 C   0  0  0  0  0  1  0  0  0  0  0  0
  -27.0330  -30.3510   24.6560 C   0  0  0  0  0  1  0  0  0  0  0  0
  -27.6150  -32.5130   25.7250 C   0  0  0  0  0  1  0  0  0  0  0  0
  1  4  1  0
  2  5  2  0
  2  3  1  0
  3  1  2  0
  4  6  1  0
  5  7  1  0
  7  4  2  0
  9  8  1  0
  9 11  1  0
  9  5  1  0
 11 10  1  0
 11 12  1  0
 12 21  1  0
 13 21  1  0
 14 19  1  0
 15 16  1  0
 15 14  1  0
 17 16  1  0
 17 26  1  0
 17 18  1  0
 19 13  1  0
 19 18  1  0
 20 13  2  0
 21 22  1  0
 23 24  2  0
 24 25  1  0
 24 43  1  0
 25 28  1  0
 26 23  1  0
 26 27  1  0
 27 25  2  0
 28 29  1  0
 29 30  2  0
 31 34  1  0
 31 30  1  0
 32 31  2  0
 33 32  1  0
 33 28  2  0
 34 35  1  0
 35 36  1  0
 36 37  2  0
 38 37  1  0
 38 42  1  0
 39 38  2  0
 40 35  2  0
 40 39  1  0
 41 40  1  0
 43 44  1  0
 44 47  1  0
 44 46  1  0
 45 43  2  0
 48 49  1  0
 48 23  1  0
 50 48  1  0
 51  3  1  0
 51 52  1  0
 53 55  1  0
 53 52  1  0
 54 65  2  0
 55 60  1  0
 56 64  1  0
 56 66  1  0
 57 63  1  0
 57 59  1  0
 58 64  1  0
 59 58  1  0
 60 59  2  0
 61 62  1  0
 61 55  2  0
 62 57  2  0
 63 56  1  0
 64 54  1  0
 66 68  2  0
 67 66  1  0
 69 67  1  0
 70 79  2  0
 70 75  1  0
 71 67  1  0
 71 75  1  0
 72 71  1  0
 73 74  1  0
 73 72  1  0
 74 70  1  0
 75 76  2  0
 76 77  1  0
 78 77  2  0
 79 78  1  0
 80 54  1  0
 80 81  1  0
 80 90  1  0
 81 84  1  0
 82 86  1  0
 82 81  1  0
 83 82  2  0
 86 85  1  0
 88 86  1  0
 88 89  1  0
 88 87  1  0
 90 93  1  1
 90 91  1  0
 92 90  1  0
M  ISO  4  13 100  21 100  52 101  53 101
M  END
>  <TORSDO>  (70) 
F 21

>  <SCORE>  (70) 
-12.933

>  <name>  (70) 
71

>  <ligand_id>  (70) 
71

>  <original_smiles>  (70) 
[H]c1c([H])c([H])c2c(c1[H])C([H])([H])C([H])([H])C([H])([H])C2([H])N([H])C(=O)C1([H])N(C(=O)C([H])(N([H])C(=O)C([H])(N([H])C([H])([H])[H])C([H])([H])[H])C(C([H])([H])[H])(C([H])([H])[H])C([H])([H])[H])C([H])([H])c2c([H])c(OC([H])([H])C([H])([H])c3c([H])c(C([H])([H])[H])nc(C([H])(C([H])([H])[H])C([H])(C([H])([H])[H])C([H])([H])N([H])C(=O)N4C([H])([H])C([H])([H])C([H])([H])C([H])(n5nc(-c6c([H])c([H])c(Oc7c([H])c([H])c(F)c([H])c7F)c([H])c6[H])c(C(=O)N([H])[H])c5N([H])[H])C4([H])[H])c3[H])c([H])c([H])c2C1([H])[H]

>  <smiles>  (70) 
[H]c1c([H])c([H])c2c(c1[H])C([H])([H])C([H])([H])C([H])([H])C2([H])N([H])C(=O)C1([H])N(C(=O)C([H])(N([H])C(=O)C([H])(N([H])C([H])([H])[H])C([H])([H])[H])C(C([H])([H])[H])(C([H])([H])[H])C([H])([H])[H])C([H])([H])c2c([H])c(OC([H])([H])C([H])([H])c3c([H])c(C([H])([H])[H])nc(C([H])(C([H])([H])[H])C([H])(C([H])([H])[H])C([H])([H])N([H])C(=O)N4C([H])([H])C([H])([H])C([H])([H])C([H])(n5nc(-c6c([H])c([H])c(Oc7c([H])c([H])c(F)c([H])c7F)c([H])c6[H])c(C(=O)N([H])[H])c5N([H])[H])C4([H])[H])c3[H])c([H])c([H])c2C1([H])[H]

$$$$
73:0:0
     RDKit          3D

 96104  0  0  1  0  0  0  0  0999 V2000
  -31.3080  -20.2060   20.0810 C   0  0  0  0  0  3  0  0  0  0  0  0
  -32.1060  -19.1020   19.8820 C   0  0  0  0  0  0  0  0  0  0  0  0
  -30.0460  -18.3870   20.3590 C   0  0  0  0  0  3  0  0  0  0  0  0
  -30.0200  -19.7860   20.3750 N   0  0  0  0  0  0  0  0  0  0  0  0
  -31.2970  -18.0350   20.0970 N   0  0  0  0  0  0  0  0  0  0  0  0
  -31.5720  -17.0610   19.9920 H   0  0  0  0  0  0  0  0  0  0  0  0
  -34.1790  -20.1710   18.9620 C   0  0  0  0  0  1  0  0  0  0  0  0
  -33.6090  -17.7890   18.4090 C   0  0  0  0  0  1  0  0  0  0  0  0
  -34.3050  -18.3840   20.7540 C   0  0  0  0  0  1  0  0  0  0  0  0
  -33.5470  -18.8770   19.5040 C   0  0  2  0  0  0  0  0  0  0  0  0
  -29.0510  -17.2130   20.4600 C   0  0  0  0  0  2  0  0  0  0  0  0
  -30.4610  -14.8850   20.2900 C   0  0  0  0  0  0  0  0  0  0  0  0
  -30.4150  -12.6680   19.1350 C   0  0  0  0  0  2  0  0  0  0  0  0
  -29.4130  -12.7800   17.9550 C   0  0  0  0  0  2  0  0  0  0  0  0
  -27.9550  -12.5740   18.4180 C   0  0  0  0  0  2  0  0  0  0  0  0
  -27.6270  -13.3640   19.7130 C   0  0  0  0  0  3  0  0  0  0  0  0
  -28.7150  -13.1400   20.7860 C   0  0  0  0  0  2  0  0  0  0  0  0
  -29.9830  -13.5980   20.2020 N   0  0  0  0  0  0  0  0  0  0  0  0
  -31.5490  -15.2020   19.7980 O   0  0  0  0  0  0  0  0  0  0  0  0
  -29.5700  -15.8080   20.8100 N   0  0  0  0  0  0  0  0  0  0  0  0
  -28.8730  -15.3180   21.3510 H   0  0  0  0  0  0  0  0  0  0  0  0
  -25.2470  -13.9170   20.4960 C   0  0  0  0  0  0  0  0  0  0  0  0
  -24.2070  -13.1180   20.8830 C   0  0  0  0  0  0  0  0  0  0  0  0
  -24.6910  -11.7770   20.8180 C   0  0  0  0  0  0  0  0  0  0  0  0
  -26.2980  -13.0550   20.2210 N   0  0  0  0  0  0  0  0  0  0  0  0
  -25.9730  -11.7630   20.4740 N   0  0  0  0  0  0  0  0  0  0  0  0
  -23.9990  -10.4980   21.0060 C   0  0  0  0  0  0  0  0  0  0  0  0
  -24.4480   -9.5430   21.9460 C   0  0  0  0  0  3  0  0  0  0  0  0
  -23.7520   -8.3290   22.1190 C   0  0  0  0  0  3  0  0  0  0  0  0
  -22.5950   -8.0580   21.3520 C   0  0  0  0  0  0  0  0  0  0  0  0
  -22.1680   -9.0000   20.4000 C   0  0  0  0  0  3  0  0  0  0  0  0
  -22.8630  -10.2070   20.2240 C   0  0  0  0  0  3  0  0  0  0  0  0
  -21.8700   -6.8950   21.4350 O   0  0  0  0  0  0  0  0  0  0  0  0
  -21.7830   -6.1830   22.6050 C   0  0  0  0  0  0  0  0  0  0  0  0
  -21.2530   -6.7500   23.7830 C   0  0  0  0  0  3  0  0  0  0  0  0
  -21.1180   -5.9640   24.9440 C   0  0  0  0  0  3  0  0  0  0  0  0
  -21.5020   -4.6100   24.9270 C   0  0  0  0  0  0  0  0  0  0  0  0
  -22.0250   -4.0410   23.7520 C   0  0  0  0  0  3  0  0  0  0  0  0
  -22.1630   -4.8270   22.5920 C   0  0  0  0  0  0  0  0  0  0  0  0
  -22.6460   -4.2680   21.4570 F   0  0  0  0  0  0  0  0  0  0  0  0
  -21.3670   -3.8510   26.0400 F   0  0  0  0  0  0  0  0  0  0  0  0
  -22.8070  -13.5650   21.1970 C   0  0  0  0  0  0  0  0  0  0  0  0
  -22.1130  -12.8420   22.0680 N   0  0  0  0  0  0  0  0  0  0  0  0
  -22.3400  -14.5900   20.7030 O   0  0  0  0  0  0  0  0  0  0  0  0
  -22.5060  -12.0150   22.4930 H   0  0  0  0  0  0  0  0  0  0  0  0
  -21.1730  -13.1190   22.3130 H   0  0  0  0  0  0  0  0  0  0  0  0
  -25.3820  -15.2930   20.3310 N   0  0  0  0  0  0  0  0  0  0  0  0
  -24.6080  -15.9320   20.4710 H   0  0  0  0  0  0  0  0  0  0  0  0
  -26.1900  -15.7380   19.9160 H   0  0  0  0  0  0  0  0  0  0  0  0
  -28.8500  -20.7940   20.5620 C   0  0  0  0  0  3  0  0  0  0  0  0
  -29.1770  -22.3960   20.7440 C   0  0  0  0  0  3  0  0  0  0  0  0
  -27.8310  -23.6630   18.9830 C   0  0  0  0  0  1  0  0  0  0  0  0
  -26.8180  -23.2070   21.2390 C   0  0  0  0  0  1  0  0  0  0  0  0
  -28.1070  -23.6140   20.4960 C   0  0  1  0  0  0  0  0  0  0  0  0
  -28.5350  -25.1210   21.0300 C   0  0  0  0  0  2  0  0  0  0  0  0
  -28.4180  -26.4840   20.3710 O   0  0  0  0  0  0  0  0  0  0  0  0
  -24.5960  -32.0100   23.3160 C   0  0  0  0  0  0  0  0  0  0  0  0
  -27.2850  -27.3300   20.4340 C   0  0  0  0  0  0  0  0  0  0  0  0
  -23.4390  -30.5610   21.6900 C   0  0  0  0  0  3  0  0  0  0  0  0
  -24.9230  -28.9670   20.3390 C   0  0  0  0  0  0  0  0  0  0  0  0
  -25.9800  -30.8860   21.5320 C   0  0  0  0  0  2  0  0  0  0  0  0
  -26.0840  -29.4790   20.9350 C   0  0  0  0  0  0  0  0  0  0  0  0
  -27.2740  -28.6730   20.9600 C   0  0  0  0  0  3  0  0  0  0  0  0
  -26.0930  -26.8800   19.8380 C   0  0  0  0  0  3  0  0  0  0  0  0
  -24.9320  -27.6800   19.7840 C   0  0  0  0  0  3  0  0  0  0  0  0
  -23.6840  -29.8430   20.3340 C   0  0  0  0  0  2  0  0  0  0  0  0
  -24.6920  -31.1750   22.2380 N   0  0  0  0  0  0  0  0  0  0  0  0
  -23.4990  -32.2830   23.8260 O   0  0  0  0  0  0  0  0  0  0  0  0
  -22.7600  -29.5650   22.6610 C   0  0  0  0  0  0  0  0  0  0  0  0
  -21.4440  -29.3510   22.4950 N   0  0  0  0  0  0  0  0  0  0  0  0
  -23.4240  -28.9780   23.5230 O   0  0  0  0  0  0  0  0  0  0  0  0
  -20.9640  -29.8860   21.7850 H   0  0  0  0  0  0  0  0  0  0  0  0
  -18.0940  -28.0300   22.8760 C   0  0  0  0  0  0  0  0  0  0  0  0
  -20.6220  -28.4100   23.2630 C   0  0  0  0  0  3  0  0  0  0  0  0
  -20.8140  -26.9580   22.7590 C   0  0  0  0  0  2  0  0  0  0  0  0
  -19.7780  -26.5400   21.7130 C   0  0  0  0  0  2  0  0  0  0  0  0
  -18.3580  -26.6610   22.2730 C   0  0  0  0  0  2  0  0  0  0  0  0
  -19.1570  -28.8570   23.3260 C   0  0  0  0  0  0  0  0  0  0  0  0
  -18.8550  -30.1320   23.8470 C   0  0  0  0  0  3  0  0  0  0  0  0
  -17.5230  -30.5830   23.9260 C   0  0  0  0  0  3  0  0  0  0  0  0
  -16.4740  -29.7510   23.5000 C   0  0  0  0  0  3  0  0  0  0  0  0
  -16.7610  -28.4790   22.9780 C   0  0  0  0  0  3  0  0  0  0  0  0
  -25.8530  -32.6780   23.9520 C   0  0  0  0  0  3  0  0  0  0  0  0
  -25.5230  -34.0790   24.2520 N   0  0  0  0  0  0  0  0  0  0  0  0
  -25.8350  -35.1210   23.4720 C   0  0  0  0  0  0  0  0  0  0  0  0
  -26.5020  -35.0070   22.4410 O   0  0  0  0  0  0  0  0  0  0  0  0
  -24.9660  -34.2460   25.0770 H   0  0  0  0  0  0  0  0  0  0  0  0
  -24.0780  -36.8790   23.0930 C   0  0  0  0  0  1  0  0  0  0  0  0
  -25.3290  -36.5110   23.9060 C   0  0  0  0  0  3  0  0  0  0  0  0
  -27.4490  -37.4470   24.7140 C   0  0  0  0  0  1  0  0  0  0  0  0
  -26.3440  -37.5790   23.7700 N   0  0  0  0  0  0  0  0  0  0  0  0
  -25.9230  -38.4960   23.9030 H   0  0  0  0  0  0  0  0  0  0  0  0
  -26.3470  -31.9500   25.2610 C   0  0  1  0  0  0  0  0  0  0  0  0
  -25.2260  -31.7190   26.3050 C   0  0  0  0  0  1  0  0  0  0  0  0
  -26.9750  -30.5840   24.9080 C   0  0  0  0  0  1  0  0  0  0  0  0
  -27.4590  -32.7870   25.9430 C   0  0  0  0  0  1  0  0  0  0  0  0
  1  4  1  0
  2  1  2  0
  2  5  1  0
  3  4  1  0
  3 11  1  0
  4 50  1  0
  5  3  1  0
  6  5  1  0
 10  7  1  6
  8 10  1  0
 10  2  1  0
 10  9  1  0
 11 20  1  0
 12 20  1  0
 13 18  1  0
 14 15  1  0
 14 13  1  0
 16 15  1  0
 16 25  1  0
 16 17  1  0
 18 12  1  0
 18 17  1  0
 19 12  2  0
 20 21  1  0
 22 23  2  0
 23 42  1  0
 24 23  1  0
 24 27  1  0
 25 26  1  0
 25 22  1  0
 26 24  2  0
 27 28  1  0
 28 29  2  0
 30 33  1  0
 30 29  1  0
 31 30  2  0
 32 31  1  0
 32 27  2  0
 33 34  1  0
 34 35  1  0
 35 36  2  0
 37 36  1  0
 37 41  1  0
 38 37  2  0
 39 34  2  0
 39 38  1  0
 40 39  1  0
 42 43  1  0
 43 46  1  0
 43 45  1  0
 44 42  2  0
 47 48  1  0
 47 22  1  0
 49 47  1  0
 50 51  2  0
 54 52  1  6
 54 51  1  0
 54 55  1  0
 54 53  1  0
 56 58  1  0
 56 55  1  0
 57 68  2  0
 58 63  1  0
 59 67  1  0
 59 69  1  0
 60 62  1  0
 61 67  1  0
 62 63  2  0
 62 61  1  0
 64 58  2  0
 65 64  1  0
 65 60  2  0
 66 60  1  0
 66 59  1  0
 67 57  1  0
 69 71  2  0
 70 69  1  0
 72 70  1  0
 73 82  2  0
 73 78  1  0
 74 70  1  0
 74 78  1  0
 75 74  1  0
 76 77  1  0
 76 75  1  0
 77 73  1  0
 78 79  2  0
 79 80  1  0
 81 80  2  0
 82 81  1  0
 83 57  1  0
 83 84  1  0
 83 93  1  0
 84 87  1  0
 85 89  1  0
 85 84  1  0
 86 85  2  0
 89 88  1  0
 91 92  1  0
 91 89  1  0
 91 90  1  0
 93 96  1  1
 93 94  1  0
 95 93  1  0
M  ISO  4  12 100  20 100  55 101  56 101
M  END
>  <TORSDO>  (71) 
F 22

>  <SCORE>  (71) 
-13.097

>  <name>  (71) 
73

>  <ligand_id>  (71) 
73

>  <original_smiles>  (71) 
[H]c1c([H])c([H])c2c(c1[H])C([H])([H])C([H])([H])C([H])([H])C2([H])N([H])C(=O)C1([H])N(C(=O)C([H])(N([H])C(=O)C([H])(N([H])C([H])([H])[H])C([H])([H])[H])C(C([H])([H])[H])(C([H])([H])[H])C([H])([H])[H])C([H])([H])c2c([H])c(OC([H])([H])C(C([H])([H])[H])(C([H])([H])[H])C([H])([H])C([H])([H])n3c([H])c(C(C([H])([H])[H])(C([H])([H])[H])C([H])([H])[H])[n+]([H])c3C([H])([H])N([H])C(=O)N3C([H])([H])C([H])([H])C([H])([H])C([H])(n4nc(-c5c([H])c([H])c(Oc6c([H])c([H])c(F)c([H])c6F)c([H])c5[H])c(C(=O)N([H])[H])c4N([H])[H])C3([H])[H])c([H])c([H])c2C1([H])[H]

>  <smiles>  (71) 
[H]c1c([H])c([H])c2c(c1[H])C([H])([H])C([H])([H])C([H])([H])C2([H])N([H])C(=O)C1([H])N(C(=O)C([H])(N([H])C(=O)C([H])(N([H])C([H])([H])[H])C([H])([H])[H])C(C([H])([H])[H])(C([H])([H])[H])C([H])([H])[H])C([H])([H])c2c([H])c(OC([H])([H])C(C([H])([H])[H])(C([H])([H])[H])C([H])([H])C([H])([H])n3c([H])c(C(C([H])([H])[H])(C([H])([H])[H])C([H])([H])[H])[n+]([H])c3C([H])([H])N([H])C(=O)N3C([H])([H])C([H])([H])C([H])([H])C([H])(n4nc(-c5c([H])c([H])c(Oc6c([H])c([H])c(F)c([H])c6F)c([H])c5[H])c(C(=O)N([H])[H])c4N([H])[H])C3([H])[H])c([H])c([H])c2C1([H])[H]

$$$$
74:0:0
     RDKit          3D

 94102  0  0  1  0  0  0  0  0999 V2000
  -30.0890  -19.3430   19.7760 C   0  0  0  0  0  3  0  0  0  0  0  0
  -29.5700  -18.0960   20.1910 C   0  0  0  0  0  0  0  0  0  0  0  0
  -28.1940  -20.4290   20.5270 C   0  0  0  0  0  0  0  0  0  0  0  0
  -27.6900  -19.1810   21.0170 C   0  0  0  0  0  0  0  0  0  0  0  0
  -29.4000  -20.4940   19.9170 N   0  0  0  0  0  0  0  0  0  0  0  0
  -28.3650  -18.0110   20.8110 N   0  0  0  0  0  0  0  0  0  0  0  0
  -26.3880  -18.1510   22.9710 C   0  0  0  0  0  1  0  0  0  0  0  0
  -26.3360  -19.0250   21.7070 C   0  0  0  0  0  2  0  0  0  0  0  0
  -27.4050  -21.7460   20.4500 C   0  0  0  0  0  2  0  0  0  0  0  0
  -28.1260  -22.9810   21.0500 C   0  0  0  0  0  2  0  0  0  0  0  0
  -27.6780  -24.3160   20.4100 C   0  0  0  0  0  2  0  0  0  0  0  0
  -28.4340  -25.5610   20.9350 C   0  0  0  0  0  2  0  0  0  0  0  0
  -28.3820  -26.7030   20.0680 O   0  0  0  0  0  0  0  0  0  0  0  0
  -24.6120  -31.8710   23.2100 C   0  0  0  0  0  0  0  0  0  0  0  0
  -27.2240  -27.4400   20.1050 C   0  0  0  0  0  0  0  0  0  0  0  0
  -23.3990  -30.4940   21.5510 C   0  0  0  0  0  3  0  0  0  0  0  0
  -24.8440  -28.9600   20.1160 C   0  0  0  0  0  0  0  0  0  0  0  0
  -25.9260  -30.8370   21.3620 C   0  0  0  0  0  2  0  0  0  0  0  0
  -26.0040  -29.4700   20.7150 C   0  0  0  0  0  0  0  0  0  0  0  0
  -27.1990  -28.7160   20.7090 C   0  0  0  0  0  3  0  0  0  0  0  0
  -26.0560  -26.9500   19.4880 C   0  0  0  0  0  3  0  0  0  0  0  0
  -24.8640  -27.6970   19.5010 C   0  0  0  0  0  3  0  0  0  0  0  0
  -23.6070  -29.8270   20.1630 C   0  0  0  0  0  2  0  0  0  0  0  0
  -24.6630  -31.0830   22.0990 N   0  0  0  0  0  0  0  0  0  0  0  0
  -23.5320  -32.1470   23.7520 O   0  0  0  0  0  0  0  0  0  0  0  0
  -22.7400  -29.4670   22.4990 C   0  0  0  0  0  0  0  0  0  0  0  0
  -21.4130  -29.3020   22.3730 N   0  0  0  0  0  0  0  0  0  0  0  0
  -23.4180  -28.8210   23.3020 O   0  0  0  0  0  0  0  0  0  0  0  0
  -20.9310  -29.8760   21.6950 H   0  0  0  0  0  0  0  0  0  0  0  0
  -18.0270  -28.1360   22.8450 C   0  0  0  0  0  0  0  0  0  0  0  0
  -20.5850  -28.3640   23.1310 C   0  0  0  0  0  3  0  0  0  0  0  0
  -20.6770  -26.9390   22.5400 C   0  0  0  0  0  2  0  0  0  0  0  0
  -19.5760  -26.6370   21.5190 C   0  0  0  0  0  2  0  0  0  0  0  0
  -18.1920  -26.7910   22.1590 C   0  0  0  0  0  2  0  0  0  0  0  0
  -19.1510  -28.8820   23.2870 C   0  0  0  0  0  0  0  0  0  0  0  0
  -18.9470  -30.1430   23.8890 C   0  0  0  0  0  3  0  0  0  0  0  0
  -17.6470  -30.6570   24.0550 C   0  0  0  0  0  3  0  0  0  0  0  0
  -16.5350  -29.9080   23.6310 C   0  0  0  0  0  3  0  0  0  0  0  0
  -16.7260  -28.6490   23.0320 C   0  0  0  0  0  3  0  0  0  0  0  0
  -25.9040  -32.4830   23.8390 C   0  0  0  0  0  3  0  0  0  0  0  0
  -25.5950  -33.8620   24.2350 N   0  0  0  0  0  0  0  0  0  0  0  0
  -25.9050  -34.9470   23.5130 C   0  0  0  0  0  0  0  0  0  0  0  0
  -26.5590  -34.8920   22.4670 O   0  0  0  0  0  0  0  0  0  0  0  0
  -25.0090  -33.9790   25.0500 H   0  0  0  0  0  0  0  0  0  0  0  0
  -24.1510  -36.7310   23.2630 C   0  0  0  0  0  1  0  0  0  0  0  0
  -25.4120  -36.3100   24.0330 C   0  0  0  0  0  3  0  0  0  0  0  0
  -27.5590  -37.1800   24.8460 C   0  0  0  0  0  1  0  0  0  0  0  0
  -26.4300  -37.3790   23.9400 N   0  0  0  0  0  0  0  0  0  0  0  0
  -26.0180  -38.2870   24.1410 H   0  0  0  0  0  0  0  0  0  0  0  0
  -26.4470  -31.6590   25.0710 C   0  0  1  0  0  0  0  0  0  0  0  0
  -25.3740  -31.3700   26.1470 C   0  0  0  0  0  1  0  0  0  0  0  0
  -27.0300  -30.3040   24.6050 C   0  0  0  0  0  1  0  0  0  0  0  0
  -27.6060  -32.4300   25.7470 C   0  0  0  0  0  1  0  0  0  0  0  0
  -30.3110  -16.8230   19.7760 C   0  0  0  0  0  3  0  0  0  0  0  0
  -30.6880  -14.4820   20.4610 C   0  0  0  0  0  0  0  0  0  0  0  0
  -30.4100  -12.2810   19.4390 C   0  0  0  0  0  2  0  0  0  0  0  0
  -29.4930  -12.4670   18.2120 C   0  0  0  0  0  2  0  0  0  0  0  0
  -28.0120  -12.3490   18.6240 C   0  0  0  0  0  2  0  0  0  0  0  0
  -27.6530  -13.2040   19.8720 C   0  0  0  0  0  3  0  0  0  0  0  0
  -28.6990  -13.0370   20.9980 C   0  0  0  0  0  2  0  0  0  0  0  0
  -30.0230  -13.3010   20.4240 N   0  0  0  0  0  0  0  0  0  0  0  0
  -31.8840  -14.5820   20.1740 O   0  0  0  0  0  0  0  0  0  0  0  0
  -29.9050  -15.5780   20.4550 N   0  0  0  0  0  0  0  0  0  0  0  0
  -28.9260  -15.4820   20.6740 H   0  0  0  0  0  0  0  0  0  0  0  0
  -25.2570  -13.8160   20.5710 C   0  0  0  0  0  0  0  0  0  0  0  0
  -24.1820  -13.0440   20.9190 C   0  0  0  0  0  0  0  0  0  0  0  0
  -24.6380  -11.6910   20.8770 C   0  0  0  0  0  0  0  0  0  0  0  0
  -26.2990  -12.9310   20.3390 N   0  0  0  0  0  0  0  0  0  0  0  0
  -25.9300  -11.6480   20.5810 N   0  0  0  0  0  0  0  0  0  0  0  0
  -23.9060  -10.4290   21.0430 C   0  0  0  0  0  0  0  0  0  0  0  0
  -24.3620   -9.4200   21.9200 C   0  0  0  0  0  3  0  0  0  0  0  0
  -23.6290   -8.2250   22.0760 C   0  0  0  0  0  3  0  0  0  0  0  0
  -22.4270   -8.0290   21.3550 C   0  0  0  0  0  0  0  0  0  0  0  0
  -21.9910   -9.0260   20.4650 C   0  0  0  0  0  3  0  0  0  0  0  0
  -22.7240  -10.2140   20.3060 C   0  0  0  0  0  3  0  0  0  0  0  0
  -21.6630   -6.8890   21.4250 O   0  0  0  0  0  0  0  0  0  0  0  0
  -21.6850   -6.0740   22.5290 C   0  0  0  0  0  0  0  0  0  0  0  0
  -21.4010   -6.5640   23.8220 C   0  0  0  0  0  3  0  0  0  0  0  0
  -21.3650   -5.6800   24.9180 C   0  0  0  0  0  3  0  0  0  0  0  0
  -21.6050   -4.3060   24.7220 C   0  0  0  0  0  0  0  0  0  0  0  0
  -21.8820   -3.8150   23.4340 C   0  0  0  0  0  3  0  0  0  0  0  0
  -21.9190   -4.6970   22.3400 C   0  0  0  0  0  0  0  0  0  0  0  0
  -22.1660   -4.2160   21.0980 F   0  0  0  0  0  0  0  0  0  0  0  0
  -21.5620   -3.4540   25.7730 F   0  0  0  0  0  0  0  0  0  0  0  0
  -22.7850  -13.5240   21.1850 C   0  0  0  0  0  0  0  0  0  0  0  0
  -22.0480  -12.8230   22.0400 N   0  0  0  0  0  0  0  0  0  0  0  0
  -22.3550  -14.5550   20.6710 O   0  0  0  0  0  0  0  0  0  0  0  0
  -22.4090  -11.9890   22.4780 H   0  0  0  0  0  0  0  0  0  0  0  0
  -21.1110  -13.1280   22.2600 H   0  0  0  0  0  0  0  0  0  0  0  0
  -25.4300  -15.1890   20.4150 N   0  0  0  0  0  0  0  0  0  0  0  0
  -24.6680  -15.8430   20.5470 H   0  0  0  0  0  0  0  0  0  0  0  0
  -26.2910  -15.6410   20.1350 H   0  0  0  0  0  0  0  0  0  0  0  0
  -28.8240  -16.4770   17.6510 C   0  0  0  0  0  1  0  0  0  0  0  0
  -30.2390  -16.6450   18.2320 C   0  0  0  0  0  2  0  0  0  0  0  0
  1  5  2  0
  1  2  1  0
  2  6  2  0
  3  4  2  0
  4  8  1  0
  5  3  1  0
  6  4  1  0
  8  7  1  0
  9  3  1  0
  9 10  1  0
 11 12  1  0
 11 10  1  0
 13 15  1  0
 13 12  1  0
 14 25  2  0
 15 20  1  0
 16 24  1  0
 16 26  1  0
 17 23  1  0
 17 19  1  0
 18 24  1  0
 19 18  1  0
 20 19  2  0
 21 22  1  0
 21 15  2  0
 22 17  2  0
 23 16  1  0
 24 14  1  0
 26 28  2  0
 27 26  1  0
 29 27  1  0
 30 39  2  0
 30 35  1  0
 31 27  1  0
 31 35  1  0
 32 31  1  0
 33 34  1  0
 33 32  1  0
 34 30  1  0
 35 36  2  0
 36 37  1  0
 38 37  2  0
 39 38  1  0
 40 14  1  0
 40 41  1  0
 40 50  1  0
 41 44  1  0
 42 46  1  0
 42 41  1  0
 43 42  2  0
 46 45  1  0
 48 46  1  0
 48 49  1  0
 48 47  1  0
 50 53  1  1
 50 51  1  0
 52 50  1  0
 54 94  1  0
 54  2  1  0
 54 63  1  0
 56 61  1  0
 57 58  1  0
 57 56  1  0
 59 58  1  0
 59 68  1  0
 59 60  1  0
 61 55  1  0
 61 60  1  0
 62 55  2  0
 63 55  1  0
 63 64  1  0
 65 66  2  0
 66 85  1  0
 67 66  1  0
 67 70  1  0
 68 65  1  0
 68 69  1  0
 69 67  2  0
 70 71  1  0
 71 72  2  0
 73 76  1  0
 73 72  1  0
 74 73  2  0
 75 74  1  0
 75 70  2  0
 76 77  1  0
 77 78  1  0
 78 79  2  0
 80 79  1  0
 80 84  1  0
 81 80  2  0
 82 77  2  0
 82 81  1  0
 83 82  1  0
 85 86  1  0
 86 89  1  0
 86 88  1  0
 87 85  2  0
 90 91  1  0
 90 65  1  0
 92 90  1  0
 93 94  1  0
M  ISO  4  12 101  13 101  55 100  63 100
M  END
>  <TORSDO>  (72) 
F 23

>  <SCORE>  (72) 
4.364

>  <name>  (72) 
74

>  <ligand_id>  (72) 
74

>  <original_smiles>  (72) 
[H]c1nc(C([H])([H])C([H])([H])C([H])([H])C([H])([H])Oc2c([H])c([H])c3c(c2[H])C([H])([H])N(C(=O)C([H])(N([H])C(=O)C([H])(N([H])C([H])([H])[H])C([H])([H])[H])C(C([H])([H])[H])(C([H])([H])[H])C([H])([H])[H])C([H])(C(=O)N([H])C2([H])c4c([H])c([H])c([H])c([H])c4C([H])([H])C([H])([H])C2([H])[H])C3([H])[H])c(C([H])([H])C([H])([H])[H])nc1C([H])(N([H])C(=O)N1C([H])([H])C([H])([H])C([H])([H])C([H])(n2nc(-c3c([H])c([H])c(Oc4c([H])c([H])c(F)c([H])c4F)c([H])c3[H])c(C(=O)N([H])[H])c2N([H])[H])C1([H])[H])C([H])([H])C([H])([H])[H]

>  <smiles>  (72) 
[H]c1nc(C([H])([H])C([H])([H])C([H])([H])C([H])([H])Oc2c([H])c([H])c3c(c2[H])C([H])([H])N(C(=O)C([H])(N([H])C(=O)C([H])(N([H])C([H])([H])[H])C([H])([H])[H])C(C([H])([H])[H])(C([H])([H])[H])C([H])([H])[H])C([H])(C(=O)N([H])C2([H])c4c([H])c([H])c([H])c([H])c4C([H])([H])C([H])([H])C2([H])[H])C3([H])[H])c(C([H])([H])C([H])([H])[H])nc1C([H])(N([H])C(=O)N1C([H])([H])C([H])([H])C([H])([H])C([H])(n2nc(-c3c([H])c([H])c(Oc4c([H])c([H])c(F)c([H])c4F)c([H])c3[H])c(C(=O)N([H])[H])c2N([H])[H])C1([H])[H])C([H])([H])C([H])([H])[H]

$$$$
75:0:0
     RDKit          3D

 95103  0  0  1  0  0  0  0  0999 V2000
  -27.6240  -19.6120   19.8220 C   0  0  0  0  0  3  0  0  0  0  0  0
  -29.2040  -18.3010   20.2710 C   0  0  0  0  0  0  0  0  0  0  0  0
  -27.1300  -18.4020   19.5840 N   0  0  0  0  0  0  0  0  0  0  0  0
  -28.1560  -17.5550   19.8820 N   0  0  0  0  0  0  0  0  0  0  0  0
  -28.9020  -19.6740   20.2530 N   0  0  0  0  0  0  0  0  0  0  0  0
  -29.5730  -20.9930   20.5840 C   0  0  0  0  0  3  0  0  0  0  0  0
  -28.7530  -22.3230   20.1440 C   0  0  0  0  0  3  0  0  0  0  0  0
  -29.2980  -23.8310   20.2410 C   0  0  0  0  0  3  0  0  0  0  0  0
  -28.2700  -24.9570   19.7440 C   0  0  0  0  0  3  0  0  0  0  0  0
  -28.5580  -26.4240   19.6390 O   0  0  0  0  0  0  0  0  0  0  0  0
  -24.7310  -31.5050   23.0630 C   0  0  0  0  0  0  0  0  0  0  0  0
  -27.4330  -27.2810   19.6290 C   0  0  0  0  0  0  0  0  0  0  0  0
  -23.5350  -30.1550   21.3780 C   0  0  0  0  0  3  0  0  0  0  0  0
  -25.0050  -28.7940   19.7910 C   0  0  0  0  0  0  0  0  0  0  0  0
  -26.0490  -30.6160   21.1290 C   0  0  0  0  0  2  0  0  0  0  0  0
  -26.1710  -29.2910   20.3850 C   0  0  0  0  0  0  0  0  0  0  0  0
  -27.3890  -28.5460   20.2970 C   0  0  0  0  0  3  0  0  0  0  0  0
  -26.2450  -26.8670   18.9790 C   0  0  0  0  0  3  0  0  0  0  0  0
  -25.0470  -27.5920   19.0730 C   0  0  0  0  0  3  0  0  0  0  0  0
  -23.7250  -29.5870   19.9480 C   0  0  0  0  0  2  0  0  0  0  0  0
  -24.7920  -30.7730   21.9140 N   0  0  0  0  0  0  0  0  0  0  0  0
  -23.6580  -31.6890   23.6550 O   0  0  0  0  0  0  0  0  0  0  0  0
  -22.9650  -29.0420   22.2890 C   0  0  0  0  0  0  0  0  0  0  0  0
  -21.6560  -28.7710   22.1640 N   0  0  0  0  0  0  0  0  0  0  0  0
  -23.6990  -28.4310   23.0690 O   0  0  0  0  0  0  0  0  0  0  0  0
  -21.1160  -29.3250   21.5140 H   0  0  0  0  0  0  0  0  0  0  0  0
  -18.4060  -27.2320   22.5570 C   0  0  0  0  0  0  0  0  0  0  0  0
  -20.9190  -27.7340   22.8890 C   0  0  0  0  0  3  0  0  0  0  0  0
  -21.1750  -26.3370   22.2790 C   0  0  0  0  0  2  0  0  0  0  0  0
  -20.1310  -25.9360   21.2310 C   0  0  0  0  0  2  0  0  0  0  0  0
  -18.7290  -25.9250   21.8500 C   0  0  0  0  0  2  0  0  0  0  0  0
  -19.4340  -28.0900   23.0300 C   0  0  0  0  0  0  0  0  0  0  0  0
  -19.0800  -29.3090   23.6470 C   0  0  0  0  0  3  0  0  0  0  0  0
  -17.7290  -29.6730   23.7990 C   0  0  0  0  0  3  0  0  0  0  0  0
  -16.7140  -28.8120   23.3440 C   0  0  0  0  0  3  0  0  0  0  0  0
  -17.0540  -27.5940   22.7280 C   0  0  0  0  0  3  0  0  0  0  0  0
  -26.0050  -32.1630   23.6780 C   0  0  0  0  0  3  0  0  0  0  0  0
  -26.6290  -31.3210   24.8580 C   0  0  1  0  0  0  0  0  0  0  0  0
  -25.6090  -30.9320   25.9530 C   0  0  0  0  0  1  0  0  0  0  0  0
  -27.2650  -30.0140   24.3280 C   0  0  0  0  0  1  0  0  0  0  0  0
  -27.7700  -32.1210   25.5300 C   0  0  0  0  0  1  0  0  0  0  0  0
  -25.6300  -33.5070   24.1420 N   0  0  0  0  0  0  0  0  0  0  0  0
  -25.9590  -34.6470   23.5210 C   0  0  0  0  0  0  0  0  0  0  0  0
  -26.6790  -34.6790   22.5190 O   0  0  0  0  0  0  0  0  0  0  0  0
  -24.9940  -33.5520   24.9250 H   0  0  0  0  0  0  0  0  0  0  0  0
  -24.2030  -36.4320   23.2580 C   0  0  0  0  0  1  0  0  0  0  0  0
  -25.4020  -35.9620   24.1000 C   0  0  0  0  0  3  0  0  0  0  0  0
  -27.4540  -36.7910   25.1660 C   0  0  0  0  0  1  0  0  0  0  0  0
  -26.4070  -37.0450   24.1800 N   0  0  0  0  0  0  0  0  0  0  0  0
  -25.9660  -37.9320   24.4050 H   0  0  0  0  0  0  0  0  0  0  0  0
  -30.4500  -17.4780   20.7300 C   0  0  0  0  0  3  0  0  0  0  0  0
  -30.5710  -17.9250   23.2800 C   0  0  0  0  0  1  0  0  0  0  0  0
  -30.2240  -16.9310   22.1630 C   0  0  0  0  0  2  0  0  0  0  0  0
  -30.9590  -16.3110   19.7160 C   0  0  0  0  0  3  0  0  0  0  0  0
  -31.5060  -14.8480   20.1430 C   0  0  0  0  0  0  0  0  0  0  0  0
  -31.1680  -12.5680   19.2290 C   0  0  0  0  0  2  0  0  0  0  0  0
  -30.2650  -12.6300   17.9790 C   0  0  0  0  0  2  0  0  0  0  0  0
  -28.7750  -12.5820   18.3680 C   0  0  0  0  0  2  0  0  0  0  0  0
  -28.4140  -13.5020   19.5680 C   0  0  0  0  0  3  0  0  0  0  0  0
  -29.4530  -13.4150   20.7000 C   0  0  0  0  0  2  0  0  0  0  0  0
  -30.7730  -13.6840   20.1190 N   0  0  0  0  0  0  0  0  0  0  0  0
  -32.7320  -14.7530   20.0640 O   0  0  0  0  0  0  0  0  0  0  0  0
  -26.0400  -14.1890   20.2340 C   0  0  0  0  0  0  0  0  0  0  0  0
  -24.9390  -13.4600   20.5830 C   0  0  0  0  0  0  0  0  0  0  0  0
  -25.3550  -12.0930   20.5900 C   0  0  0  0  0  0  0  0  0  0  0  0
  -27.0580  -13.2710   20.0430 N   0  0  0  0  0  0  0  0  0  0  0  0
  -26.6520  -12.0030   20.3220 N   0  0  0  0  0  0  0  0  0  0  0  0
  -24.5790  -10.8630   20.7760 C   0  0  0  0  0  0  0  0  0  0  0  0
  -24.8870   -9.9460   21.8050 C   0  0  0  0  0  3  0  0  0  0  0  0
  -24.1110   -8.7820   21.9800 C   0  0  0  0  0  3  0  0  0  0  0  0
  -23.0130   -8.5240   21.1230 C   0  0  0  0  0  0  0  0  0  0  0  0
  -22.7260   -9.4290   20.0840 C   0  0  0  0  0  3  0  0  0  0  0  0
  -23.5030  -10.5850   19.9100 C   0  0  0  0  0  3  0  0  0  0  0  0
  -22.2230   -7.4020   21.2000 O   0  0  0  0  0  0  0  0  0  0  0  0
  -21.9490   -6.7970   22.4010 C   0  0  0  0  0  0  0  0  0  0  0  0
  -21.3370   -7.4930   23.4640 C   0  0  0  0  0  3  0  0  0  0  0  0
  -21.0110   -6.8140   24.6560 C   0  0  0  0  0  3  0  0  0  0  0  0
  -21.2840   -5.4390   24.7810 C   0  0  0  0  0  0  0  0  0  0  0  0
  -21.8860   -4.7410   23.7190 C   0  0  0  0  0  3  0  0  0  0  0  0
  -22.2130   -5.4180   22.5310 C   0  0  0  0  0  0  0  0  0  0  0  0
  -22.7740   -4.7360   21.5030 F   0  0  0  0  0  0  0  0  0  0  0  0
  -20.9600   -4.7840   25.9210 F   0  0  0  0  0  0  0  0  0  0  0  0
  -23.5520  -13.9920   20.8010 C   0  0  0  0  0  0  0  0  0  0  0  0
  -22.7800  -13.3510   21.6700 N   0  0  0  0  0  0  0  0  0  0  0  0
  -23.1630  -15.0130   20.2340 O   0  0  0  0  0  0  0  0  0  0  0  0
  -23.1060  -12.5280   22.1540 H   0  0  0  0  0  0  0  0  0  0  0  0
  -21.8460  -13.6860   21.8550 H   0  0  0  0  0  0  0  0  0  0  0  0
  -26.2380  -15.5520   20.0370 N   0  0  0  0  0  0  0  0  0  0  0  0
  -25.4640  -16.2050   20.0950 H   0  0  0  0  0  0  0  0  0  0  0  0
  -27.0930  -16.0160   19.7440 H   0  0  0  0  0  0  0  0  0  0  0  0
  -30.4040  -16.3620   18.2520 C   0  0  0  0  0  2  0  0  0  0  0  0
  -31.3540  -15.9320   17.1990 N   0  0  0  0  0  4  0  0  0  0  0  0
  -32.1560  -16.5380   17.1650 H   0  0  0  0  0  0  0  0  0  0  0  0
  -30.9030  -15.9730   16.3010 H   0  0  0  0  0  0  0  0  0  0  0  0
  -31.6800  -14.9920   17.3340 H   0  0  0  0  0  0  0  0  0  0  0  0
  1  5  1  0
  2 51  1  0
  3  1  2  0
  3  4  1  0
  4  2  2  0
  5  2  1  0
  5  6  1  0
  7  8  1  0
  7  6  2  0
  9  8  2  0
 10  9  1  0
 11 22  2  0
 12 10  1  0
 12 17  1  0
 13 21  1  0
 13 23  1  0
 14 20  1  0
 14 16  1  0
 15 21  1  0
 16 15  1  0
 17 16  2  0
 18 19  1  0
 18 12  2  0
 19 14  2  0
 20 13  1  0
 21 11  1  0
 23 25  2  0
 24 23  1  0
 26 24  1  0
 27 36  2  0
 27 32  1  0
 28 24  1  0
 28 32  1  0
 29 28  1  0
 30 31  1  0
 30 29  1  0
 31 27  1  0
 32 33  2  0
 33 34  1  0
 35 34  2  0
 36 35  1  0
 37 11  1  0
 37 42  1  0
 37 38  1  0
 38 41  1  1
 38 39  1  0
 40 38  1  0
 42 45  1  0
 43 47  1  0
 43 42  1  0
 44 43  2  0
 47 46  1  0
 47 49  1  0
 49 50  1  0
 49 48  1  0
 51 53  1  0
 53 52  1  0
 54 91  1  0
 54 55  1  0
 54 51  1  0
 56 61  1  0
 57 58  1  0
 57 56  1  0
 59 58  1  0
 59 66  1  0
 59 60  1  0
 61 55  1  0
 61 60  1  0
 62 55  2  0
 63 64  2  0
 64 65  1  0
 64 83  1  0
 65 68  1  0
 66 63  1  0
 66 67  1  0
 67 65  2  0
 68 69  1  0
 69 70  2  0
 71 74  1  0
 71 70  1  0
 72 71  2  0
 73 72  1  0
 73 68  2  0
 74 75  1  0
 75 80  2  0
 75 76  1  0
 76 77  2  0
 77 78  1  0
 78 82  1  0
 79 78  2  0
 80 79  1  0
 81 80  1  0
 83 84  1  0
 84 87  1  0
 84 86  1  0
 85 83  2  0
 88 89  1  0
 88 63  1  0
 90 88  1  0
 92 95  1  0
 92 91  1  0
 93 92  1  0
 94 92  1  0
M  ISO  4   9 101  10 101  54 100  55 100
M  END
>  <TORSDO>  (73) 
F 25

>  <SCORE>  (73) 
-10.065

>  <name>  (73) 
75

>  <ligand_id>  (73) 
75

>  <original_smiles>  (73) 
[H]c1c([H])c([H])c2c(c1[H])C([H])([H])C([H])([H])C([H])([H])C2([H])N([H])C(=O)C1([H])N(C(=O)C([H])(N([H])C(=O)C([H])(N([H])C([H])([H])[H])C([H])([H])[H])C(C([H])([H])[H])(C([H])([H])[H])C([H])([H])[H])C([H])([H])c2c([H])c(OC([H])([H])C([H])([H])C([H])([H])C([H])([H])n3c([H])nnc3C([H])(C([H])([H])C([H])([H])[H])C([H])(C(=O)N3C([H])([H])C([H])([H])C([H])([H])C([H])(n4nc(-c5c([H])c([H])c(Oc6c([H])c([H])c(F)c([H])c6F)c([H])c5[H])c(C(=O)N([H])[H])c4N([H])[H])C3([H])[H])C([H])([H])[N+]([H])([H])[H])c([H])c([H])c2C1([H])[H]

>  <smiles>  (73) 
[H]c1c([H])c([H])c2c(c1[H])C([H])([H])C([H])([H])C([H])([H])C2([H])N([H])C(=O)C1([H])N(C(=O)C([H])(N([H])C(=O)C([H])(N([H])C([H])([H])[H])C([H])([H])[H])C(C([H])([H])[H])(C([H])([H])[H])C([H])([H])[H])C([H])([H])c2c([H])c(OC([H])([H])C([H])([H])C([H])([H])C([H])([H])n3c([H])nnc3C([H])(C([H])([H])C([H])([H])[H])C([H])(C(=O)N3C([H])([H])C([H])([H])C([H])([H])C([H])(n4nc(-c5c([H])c([H])c(Oc6c([H])c([H])c(F)c([H])c6F)c([H])c5[H])c(C(=O)N([H])[H])c4N([H])[H])C3([H])[H])C([H])([H])[N+]([H])([H])[H])c([H])c([H])c2C1([H])[H]

$$$$
76:0:0
     RDKit          3D

 94102  0  0  1  0  0  0  0  0999 V2000
  -30.0680  -21.0270   21.9490 C   0  0  0  0  0  3  0  0  0  0  0  0
  -30.9680  -20.0460   22.2650 C   0  0  0  0  0  0  0  0  0  0  0  0
  -29.7370  -19.2890   20.5260 C   0  0  0  0  0  3  0  0  0  0  0  0
  -29.2850  -20.6130   20.9010 N   0  0  0  0  0  0  0  0  0  0  0  0
  -30.7420  -19.0360   21.3750 N   0  0  0  0  0  0  0  0  0  0  0  0
  -31.2730  -18.1760   21.3480 H   0  0  0  0  0  0  0  0  0  0  0  0
  -32.0580  -21.2400   24.1820 C   0  0  0  0  0  1  0  0  0  0  0  0
  -33.3940  -19.7000   22.6800 C   0  0  0  0  0  1  0  0  0  0  0  0
  -32.0280  -19.9650   23.3220 C   0  0  0  0  0  3  0  0  0  0  0  0
  -28.2300  -18.3850   18.6270 C   0  0  0  0  0  1  0  0  0  0  0  0
  -29.4840  -18.0750   19.4570 C   0  0  0  0  0  3  0  0  0  0  0  0
  -30.2780  -15.4250   19.8170 C   0  0  0  0  0  0  0  0  0  0  0  0
  -30.3280  -12.9910   19.0850 C   0  0  0  0  0  2  0  0  0  0  0  0
  -29.3460  -12.7480   17.9130 C   0  0  0  0  0  2  0  0  0  0  0  0
  -27.9310  -12.4470   18.4440 C   0  0  0  0  0  2  0  0  0  0  0  0
  -27.4960  -13.4360   19.5540 C   0  0  0  0  0  3  0  0  0  0  0  0
  -28.5960  -13.6510   20.6180 C   0  0  0  0  0  2  0  0  0  0  0  0
  -29.7960  -14.1170   19.9120 N   0  0  0  0  0  0  0  0  0  0  0  0
  -31.4450  -15.5620   19.4390 O   0  0  0  0  0  0  0  0  0  0  0  0
  -29.4040  -16.5510   19.9370 N   0  0  0  0  0  0  0  0  0  0  0  0
  -28.4740  -16.2680   20.2030 H   0  0  0  0  0  0  0  0  0  0  0  0
  -25.1670  -13.8970   20.5160 C   0  0  0  0  0  0  0  0  0  0  0  0
  -24.1610  -13.0670   20.9300 C   0  0  0  0  0  0  0  0  0  0  0  0
  -24.6630  -11.7370   20.7890 C   0  0  0  0  0  0  0  0  0  0  0  0
  -26.2130  -13.0680   20.1450 N   0  0  0  0  0  0  0  0  0  0  0  0
  -25.9240  -11.7600   20.3740 N   0  0  0  0  0  0  0  0  0  0  0  0
  -23.9930  -10.4420   20.9700 C   0  0  0  0  0  0  0  0  0  0  0  0
  -24.4330   -9.5100   21.9360 C   0  0  0  0  0  3  0  0  0  0  0  0
  -23.7600   -8.2820   22.1050 C   0  0  0  0  0  3  0  0  0  0  0  0
  -22.6320   -7.9750   21.3060 C   0  0  0  0  0  0  0  0  0  0  0  0
  -22.2140   -8.8950   20.3270 C   0  0  0  0  0  3  0  0  0  0  0  0
  -22.8900  -10.1140   20.1580 C   0  0  0  0  0  3  0  0  0  0  0  0
  -21.9290   -6.7970   21.3850 O   0  0  0  0  0  0  0  0  0  0  0  0
  -21.7480   -6.1410   22.5770 C   0  0  0  0  0  0  0  0  0  0  0  0
  -21.0790   -6.7440   23.6650 C   0  0  0  0  0  3  0  0  0  0  0  0
  -20.8570   -6.0100   24.8480 C   0  0  0  0  0  3  0  0  0  0  0  0
  -21.2920   -4.6750   24.9420 C   0  0  0  0  0  0  0  0  0  0  0  0
  -21.9550   -4.0730   23.8580 C   0  0  0  0  0  3  0  0  0  0  0  0
  -22.1800   -4.8030   22.6790 C   0  0  0  0  0  0  0  0  0  0  0  0
  -22.7990   -4.2100   21.6290 F   0  0  0  0  0  0  0  0  0  0  0  0
  -21.0730   -3.9680   26.0750 F   0  0  0  0  0  0  0  0  0  0  0  0
  -22.7770  -13.4810   21.3360 C   0  0  0  0  0  0  0  0  0  0  0  0
  -22.1520  -12.7290   22.2350 N   0  0  0  0  0  0  0  0  0  0  0  0
  -22.2610  -14.5050   20.8910 O   0  0  0  0  0  0  0  0  0  0  0  0
  -22.5840  -11.9000   22.6160 H   0  0  0  0  0  0  0  0  0  0  0  0
  -21.2260  -12.9850   22.5470 H   0  0  0  0  0  0  0  0  0  0  0  0
  -25.2750  -15.2800   20.4000 N   0  0  0  0  0  0  0  0  0  0  0  0
  -24.5010  -15.8990   20.6190 H   0  0  0  0  0  0  0  0  0  0  0  0
  -26.0560  -15.7630   19.9760 H   0  0  0  0  0  0  0  0  0  0  0  0
  -28.1250  -21.6330   20.5060 C   0  0  0  0  0  2  0  0  0  0  0  0
  -28.2990  -23.3210   20.1570 C   0  0  0  0  0  2  0  0  0  0  0  0
  -25.8220  -24.0450   20.0420 C   0  0  0  0  0  1  0  0  0  0  0  0
  -27.2190  -24.6400   20.2840 C   0  0  0  0  0  3  0  0  0  0  0  0
  -27.3790  -26.1140   19.6780 O   0  0  0  0  0  0  0  0  0  0  0  0
  -24.5090  -31.9950   23.2120 C   0  0  0  0  0  0  0  0  0  0  0  0
  -26.4000  -27.1980   19.7690 C   0  0  0  0  0  0  0  0  0  0  0  0
  -23.0370  -30.7290   21.6990 C   0  0  0  0  0  3  0  0  0  0  0  0
  -24.2070  -29.1230   20.0720 C   0  0  0  0  0  0  0  0  0  0  0  0
  -25.5740  -30.8260   21.2440 C   0  0  0  0  0  2  0  0  0  0  0  0
  -25.4770  -29.4550   20.5530 C   0  0  0  0  0  0  0  0  0  0  0  0
  -26.5670  -28.5060   20.3980 C   0  0  0  0  0  3  0  0  0  0  0  0
  -25.1220  -27.0420   19.1850 C   0  0  0  0  0  3  0  0  0  0  0  0
  -24.0430  -27.9250   19.3730 C   0  0  0  0  0  3  0  0  0  0  0  0
  -23.0480  -30.0830   20.2910 C   0  0  0  0  0  2  0  0  0  0  0  0
  -24.4030  -31.2050   22.1010 N   0  0  0  0  0  0  0  0  0  0  0  0
  -23.5120  -32.3280   23.8730 O   0  0  0  0  0  0  0  0  0  0  0  0
  -22.4120  -29.7310   22.7060 C   0  0  0  0  0  0  0  0  0  0  0  0
  -21.1040  -29.4530   22.5620 N   0  0  0  0  0  0  0  0  0  0  0  0
  -23.1090  -29.2080   23.5790 O   0  0  0  0  0  0  0  0  0  0  0  0
  -20.6030  -29.9150   21.8160 H   0  0  0  0  0  0  0  0  0  0  0  0
  -17.8770  -27.8470   22.9300 C   0  0  0  0  0  0  0  0  0  0  0  0
  -20.3370  -28.5080   23.3770 C   0  0  0  0  0  3  0  0  0  0  0  0
  -20.6890  -27.0500   23.0080 C   0  0  0  0  0  2  0  0  0  0  0  0
  -19.7510  -26.4520   21.9540 C   0  0  0  0  0  2  0  0  0  0  0  0
  -18.3040  -26.4680   22.4530 C   0  0  0  0  0  2  0  0  0  0  0  0
  -18.8340  -28.8090   23.3500 C   0  0  0  0  0  0  0  0  0  0  0  0
  -18.3870  -30.0850   23.7550 C   0  0  0  0  0  3  0  0  0  0  0  0
  -17.0160  -30.4050   23.7480 C   0  0  0  0  0  3  0  0  0  0  0  0
  -16.0730  -29.4440   23.3450 C   0  0  0  0  0  3  0  0  0  0  0  0
  -16.5030  -28.1670   22.9420 C   0  0  0  0  0  3  0  0  0  0  0  0
  -25.8890  -32.5320   23.6960 C   0  0  0  0  0  3  0  0  0  0  0  0
  -25.7090  -33.9400   24.0880 N   0  0  0  0  0  0  0  0  0  0  0  0
  -26.1410  -34.9920   23.3770 C   0  0  0  0  0  0  0  0  0  0  0  0
  -26.8060  -34.8700   22.3440 O   0  0  0  0  0  0  0  0  0  0  0  0
  -25.1240  -34.1140   24.8920 H   0  0  0  0  0  0  0  0  0  0  0  0
  -24.6210  -36.9730   23.0670 C   0  0  0  0  0  1  0  0  0  0  0  0
  -25.7850  -36.3990   23.8940 C   0  0  0  0  0  3  0  0  0  0  0  0
  -27.9640  -37.0090   24.8470 C   0  0  0  0  0  1  0  0  0  0  0  0
  -26.9270  -37.3410   23.8720 N   0  0  0  0  0  0  0  0  0  0  0  0
  -26.6120  -38.2910   24.0530 H   0  0  0  0  0  0  0  0  0  0  0  0
  -26.4890  -31.6990   24.8940 C   0  0  1  0  0  0  0  0  0  0  0  0
  -25.4990  -31.4950   26.0630 C   0  0  0  0  0  1  0  0  0  0  0  0
  -26.9490  -30.2970   24.4310 C   0  0  0  0  0  1  0  0  0  0  0  0
  -27.7490  -32.4110   25.4400 C   0  0  0  0  0  1  0  0  0  0  0  0
  1  2  2  0
  2  9  1  0
  3 11  1  0
  3  4  1  0
  3  5  1  0
  4  1  1  0
  5  2  1  0
  6  5  1  0
  8  9  1  0
  9  7  1  0
 11 10  1  0
 11 20  1  0
 12 18  1  0
 12 20  1  0
 13 18  1  0
 14 15  1  0
 14 13  1  0
 16 15  1  0
 16 25  1  0
 16 17  1  0
 18 17  1  0
 19 12  2  0
 20 21  1  0
 22 23  2  0
 23 42  1  0
 24 23  1  0
 24 27  1  0
 25 26  1  0
 25 22  1  0
 26 24  2  0
 27 28  1  0
 28 29  2  0
 30 33  1  0
 30 29  1  0
 31 30  2  0
 32 31  1  0
 32 27  2  0
 33 34  1  0
 34 39  2  0
 34 35  1  0
 35 36  2  0
 36 37  1  0
 37 41  1  0
 38 37  2  0
 39 38  1  0
 40 39  1  0
 42 43  1  0
 43 46  1  0
 43 45  1  0
 44 42  2  0
 47 22  1  0
 47 48  1  0
 49 47  1  0
 50  4  1  0
 51 53  1  0
 51 50  1  0
 53 52  1  0
 54 56  1  0
 54 53  1  0
 55 66  2  0
 56 61  1  0
 57 65  1  0
 57 67  1  0
 58 64  1  0
 58 60  1  0
 59 65  1  0
 60 59  1  0
 61 60  2  0
 62 63  1  0
 62 56  2  0
 63 58  2  0
 64 57  1  0
 65 55  1  0
 67 69  2  0
 68 67  1  0
 70 68  1  0
 71 80  2  0
 71 76  1  0
 72 68  1  0
 73 72  1  0
 74 75  1  0
 74 73  1  0
 75 71  1  0
 76 72  1  0
 76 77  2  0
 78 77  1  0
 79 78  2  0
 80 79  1  0
 81 55  1  0
 81 82  1  0
 81 91  1  0
 82 85  1  0
 83 87  1  0
 83 82  1  0
 84 83  2  0
 87 86  1  0
 89 87  1  0
 89 90  1  0
 89 88  1  0
 91 94  1  1
 91 92  1  0
 93 91  1  0
M  ISO  4  12 100  20 100  53 101  54 101
M  END
>  <TORSDO>  (74) 
F 21

>  <SCORE>  (74) 
-13.985

>  <name>  (74) 
76

>  <ligand_id>  (74) 
76

>  <original_smiles>  (74) 
[H]c1c([H])c([H])c2c(c1[H])C([H])([H])C([H])([H])C([H])([H])C2([H])N([H])C(=O)C1([H])N(C(=O)C([H])(N([H])C(=O)C([H])(N([H])C([H])([H])[H])C([H])([H])[H])C(C([H])([H])[H])(C([H])([H])[H])C([H])([H])[H])C([H])([H])c2c([H])c(OC([H])(C([H])([H])[H])C([H])([H])C([H])([H])n3c([H])c(C([H])(C([H])([H])[H])C([H])([H])[H])[n+]([H])c3C([H])(N([H])C(=O)N3C([H])([H])C([H])([H])C([H])([H])C([H])(n4nc(-c5c([H])c([H])c(Oc6c([H])c([H])c(F)c([H])c6F)c([H])c5[H])c(C(=O)N([H])[H])c4N([H])[H])C3([H])[H])C([H])([H])[H])c([H])c([H])c2C1([H])[H]

>  <smiles>  (74) 
[H]c1c([H])c([H])c2c(c1[H])C([H])([H])C([H])([H])C([H])([H])C2([H])N([H])C(=O)C1([H])N(C(=O)C([H])(N([H])C(=O)C([H])(N([H])C([H])([H])[H])C([H])([H])[H])C(C([H])([H])[H])(C([H])([H])[H])C([H])([H])[H])C([H])([H])c2c([H])c(OC([H])(C([H])([H])[H])C([H])([H])C([H])([H])n3c([H])c(C([H])(C([H])([H])[H])C([H])([H])[H])[n+]([H])c3C([H])(N([H])C(=O)N3C([H])([H])C([H])([H])C([H])([H])C([H])(n4nc(-c5c([H])c([H])c(Oc6c([H])c([H])c(F)c([H])c6F)c([H])c5[H])c(C(=O)N([H])[H])c4N([H])[H])C3([H])[H])C([H])([H])[H])c([H])c([H])c2C1([H])[H]

$$$$
77:0:0
     RDKit          3D

 92100  0  0  1  0  0  0  0  0999 V2000
  -29.8740  -20.6500   22.2880 C   0  0  0  0  0  3  0  0  0  0  0  0
  -29.3960  -21.1500   21.1080 C   0  0  0  0  0  0  0  0  0  0  0  0
  -29.4180  -22.7850   22.6630 C   0  0  0  0  0  3  0  0  0  0  0  0
  -29.2400  -23.9710   23.5640 C   0  0  0  0  0  1  0  0  0  0  0  0
  -29.1950  -22.5780   21.3270 N   0  0  0  0  0  0  0  0  0  0  0  0
  -29.8640  -21.6500   23.1950 N   0  0  0  0  0  0  0  0  0  0  0  0
  -30.1310  -21.5360   24.1660 H   0  0  0  0  0  0  0  0  0  0  0  0
  -27.7150  -23.3730   19.4030 C   0  0  0  0  0  1  0  0  0  0  0  0
  -28.8480  -23.7800   20.3590 C   0  0  0  0  0  3  0  0  0  0  0  0
  -28.5240  -25.2910   20.9340 C   0  0  0  0  0  2  0  0  0  0  0  0
  -28.5650  -26.5930   20.1840 O   0  0  0  0  0  0  0  0  0  0  0  0
  -24.6910  -31.9420   23.2860 C   0  0  0  0  0  0  0  0  0  0  0  0
  -27.4430  -27.4490   20.2130 C   0  0  0  0  0  0  0  0  0  0  0  0
  -23.5450  -30.5460   21.6020 C   0  0  0  0  0  3  0  0  0  0  0  0
  -25.0510  -29.0370   20.1830 C   0  0  0  0  0  0  0  0  0  0  0  0
  -26.0820  -30.9080   21.4690 C   0  0  0  0  0  2  0  0  0  0  0  0
  -26.2020  -29.5350   20.8070 C   0  0  0  0  0  0  0  0  0  0  0  0
  -27.4040  -28.7550   20.8070 C   0  0  0  0  0  3  0  0  0  0  0  0
  -26.2690  -27.0100   19.5700 C   0  0  0  0  0  3  0  0  0  0  0  0
  -25.0890  -27.7810   19.5530 C   0  0  0  0  0  3  0  0  0  0  0  0
  -23.7980  -29.8920   20.2180 C   0  0  0  0  0  2  0  0  0  0  0  0
  -24.7910  -31.1520   22.1760 N   0  0  0  0  0  0  0  0  0  0  0  0
  -23.5930  -32.1900   23.8050 O   0  0  0  0  0  0  0  0  0  0  0  0
  -22.8820  -29.5060   22.5380 C   0  0  0  0  0  0  0  0  0  0  0  0
  -21.5600  -29.3120   22.3920 N   0  0  0  0  0  0  0  0  0  0  0  0
  -23.5600  -28.8760   23.3540 O   0  0  0  0  0  0  0  0  0  0  0  0
  -21.0710  -29.8750   21.7110 H   0  0  0  0  0  0  0  0  0  0  0  0
  -18.1940  -28.0550   22.8330 C   0  0  0  0  0  0  0  0  0  0  0  0
  -20.7470  -28.3460   23.1330 C   0  0  0  0  0  3  0  0  0  0  0  0
  -20.8740  -26.9270   22.5300 C   0  0  0  0  0  2  0  0  0  0  0  0
  -19.7880  -26.6110   21.4990 C   0  0  0  0  0  2  0  0  0  0  0  0
  -18.3970  -26.7230   22.1300 C   0  0  0  0  0  2  0  0  0  0  0  0
  -19.2980  -28.8240   23.2910 C   0  0  0  0  0  0  0  0  0  0  0  0
  -19.0550  -30.0700   23.9080 C   0  0  0  0  0  3  0  0  0  0  0  0
  -17.7400  -30.5480   24.0730 C   0  0  0  0  0  3  0  0  0  0  0  0
  -16.6520  -29.7760   23.6310 C   0  0  0  0  0  3  0  0  0  0  0  0
  -16.8800  -28.5310   23.0170 C   0  0  0  0  0  3  0  0  0  0  0  0
  -25.9490  -32.5910   23.9420 C   0  0  0  0  0  3  0  0  0  0  0  0
  -25.6080  -33.9810   24.2820 N   0  0  0  0  0  0  0  0  0  0  0  0
  -25.9280  -35.0480   23.5380 C   0  0  0  0  0  0  0  0  0  0  0  0
  -26.6100  -34.9680   22.5130 O   0  0  0  0  0  0  0  0  0  0  0  0
  -25.0040  -34.1160   25.0790 H   0  0  0  0  0  0  0  0  0  0  0  0
  -24.1690  -36.8130   23.1870 C   0  0  0  0  0  1  0  0  0  0  0  0
  -25.4110  -36.4230   24.0050 C   0  0  0  0  0  3  0  0  0  0  0  0
  -27.5190  -37.3430   24.8640 C   0  0  0  0  0  1  0  0  0  0  0  0
  -26.4250  -37.4960   23.9110 N   0  0  0  0  0  0  0  0  0  0  0  0
  -25.9990  -38.4070   24.0590 H   0  0  0  0  0  0  0  0  0  0  0  0
  -26.4500  -31.8170   25.2220 C   0  0  1  0  0  0  0  0  0  0  0  0
  -25.3390  -31.5520   26.2650 C   0  0  0  0  0  1  0  0  0  0  0  0
  -27.0650  -30.4540   24.8300 C   0  0  0  0  0  1  0  0  0  0  0  0
  -27.5740  -32.6240   25.9140 C   0  0  0  0  0  1  0  0  0  0  0  0
  -29.1040  -20.1970   19.9130 C   0  0  0  0  0  2  0  0  0  0  0  0
  -29.7620  -18.6950   19.7310 C   0  0  0  0  0  2  0  0  0  0  0  0
  -29.8510  -17.4780   20.7970 C   0  0  0  0  0  2  0  0  0  0  0  0
  -30.4850  -14.9210   20.1510 C   0  0  0  0  0  0  0  0  0  0  0  0
  -30.2980  -12.6640   19.0750 C   0  0  0  0  0  2  0  0  0  0  0  0
  -29.3050  -12.7390   17.8930 C   0  0  0  0  0  2  0  0  0  0  0  0
  -27.8530  -12.5460   18.3770 C   0  0  0  0  0  2  0  0  0  0  0  0
  -27.5180  -13.4050   19.6250 C   0  0  0  0  0  3  0  0  0  0  0  0
  -28.6210  -13.2910   20.6990 C   0  0  0  0  0  2  0  0  0  0  0  0
  -29.8850  -13.6850   20.0620 N   0  0  0  0  0  0  0  0  0  0  0  0
  -31.6720  -15.0610   19.8470 O   0  0  0  0  0  0  0  0  0  0  0  0
  -29.6540  -16.0070   20.3950 N   0  0  0  0  0  0  0  0  0  0  0  0
  -28.6940  -15.7110   20.4860 H   0  0  0  0  0  0  0  0  0  0  0  0
  -25.1520  -13.9710   20.4420 C   0  0  0  0  0  0  0  0  0  0  0  0
  -24.1060  -13.1840   20.8390 C   0  0  0  0  0  0  0  0  0  0  0  0
  -24.5790  -11.8370   20.7780 C   0  0  0  0  0  0  0  0  0  0  0  0
  -26.1940  -13.1030   20.1610 N   0  0  0  0  0  0  0  0  0  0  0  0
  -25.8600  -11.8140   20.4270 N   0  0  0  0  0  0  0  0  0  0  0  0
  -23.8710  -10.5660   20.9770 C   0  0  0  0  0  0  0  0  0  0  0  0
  -24.3310   -9.6010   21.9000 C   0  0  0  0  0  3  0  0  0  0  0  0
  -23.6210   -8.3960   22.0880 C   0  0  0  0  0  3  0  0  0  0  0  0
  -22.4360   -8.1480   21.3540 C   0  0  0  0  0  0  0  0  0  0  0  0
  -21.9960   -9.1030   20.4210 C   0  0  0  0  0  3  0  0  0  0  0  0
  -22.7060  -10.3000   20.2310 C   0  0  0  0  0  3  0  0  0  0  0  0
  -21.6950   -6.9960   21.4520 O   0  0  0  0  0  0  0  0  0  0  0  0
  -21.6670   -6.2530   22.6060 C   0  0  0  0  0  0  0  0  0  0  0  0
  -21.2300   -6.7990   23.8320 C   0  0  0  0  0  3  0  0  0  0  0  0
  -21.1520   -5.9830   24.9780 C   0  0  0  0  0  3  0  0  0  0  0  0
  -21.5000   -4.6210   24.8990 C   0  0  0  0  0  0  0  0  0  0  0  0
  -21.9310   -4.0750   23.6760 C   0  0  0  0  0  3  0  0  0  0  0  0
  -22.0120   -4.8880   22.5330 C   0  0  0  0  0  0  0  0  0  0  0  0
  -22.4050   -4.3520   21.3520 F   0  0  0  0  0  0  0  0  0  0  0  0
  -21.4190   -3.8330   25.9960 F   0  0  0  0  0  0  0  0  0  0  0  0
  -22.7140  -13.6460   21.1580 C   0  0  0  0  0  0  0  0  0  0  0  0
  -22.0180  -12.9330   22.0370 N   0  0  0  0  0  0  0  0  0  0  0  0
  -22.2520  -14.6740   20.6640 O   0  0  0  0  0  0  0  0  0  0  0  0
  -22.4050  -12.1000   22.4570 H   0  0  0  0  0  0  0  0  0  0  0  0
  -21.0850  -13.2240   22.2900 H   0  0  0  0  0  0  0  0  0  0  0  0
  -25.2960  -15.3460   20.2690 N   0  0  0  0  0  0  0  0  0  0  0  0
  -24.5240  -15.9870   20.4130 H   0  0  0  0  0  0  0  0  0  0  0  0
  -26.1110  -15.7960   19.8750 H   0  0  0  0  0  0  0  0  0  0  0  0
  1  6  1  0
  2  5  1  0
  2  1  2  0
  3  6  1  0
  3  4  1  0
  5  3  1  0
  6  7  1  0
  9  8  1  0
  9 10  1  0
  9  5  1  0
 11 13  1  0
 11 10  1  0
 12 23  2  0
 13 18  1  0
 14 22  1  0
 14 24  1  0
 15 21  1  0
 15 17  1  0
 16 22  1  0
 17 16  1  0
 18 17  2  0
 19 13  2  0
 20 19  1  0
 20 15  2  0
 21 14  1  0
 22 12  1  0
 24 26  2  0
 25 24  1  0
 27 25  1  0
 28 37  2  0
 28 33  1  0
 29 25  1  0
 29 33  1  0
 30 29  1  0
 31 32  1  0
 31 30  1  0
 32 28  1  0
 33 34  2  0
 34 35  1  0
 36 35  2  0
 37 36  1  0
 38 12  1  0
 38 39  1  0
 38 48  1  0
 39 42  1  0
 40 44  1  0
 40 39  1  0
 41 40  2  0
 44 43  1  0
 46 44  1  0
 46 47  1  0
 46 45  1  0
 48 51  1  1
 48 49  1  0
 50 48  1  0
 52  2  1  0
 53 52  1  0
 53 54  1  0
 55 63  1  0
 56 61  1  0
 57 58  1  0
 57 56  1  0
 59 58  1  0
 59 68  1  0
 59 60  1  0
 61 55  1  0
 61 60  1  0
 62 55  2  0
 63 64  1  0
 63 54  1  0
 65 66  2  0
 66 85  1  0
 67 66  1  0
 67 70  1  0
 68 69  1  0
 68 65  1  0
 69 67  2  0
 70 71  1  0
 71 72  2  0
 73 76  1  0
 73 72  1  0
 74 73  2  0
 75 74  1  0
 75 70  2  0
 76 77  1  0
 77 78  1  0
 78 79  2  0
 80 79  1  0
 80 84  1  0
 81 80  2  0
 82 77  2  0
 82 81  1  0
 83 82  1  0
 85 86  1  0
 86 89  1  0
 86 88  1  0
 87 85  2  0
 90 91  1  0
 90 65  1  0
 92 90  1  0
M  ISO  4  10 101  11 101  55 100  63 100
M  END
>  <TORSDO>  (75) 
F 21

>  <SCORE>  (75) 
-13.294

>  <name>  (75) 
77

>  <ligand_id>  (75) 
77

>  <original_smiles>  (75) 
[H]c1c([H])c([H])c2c(c1[H])C([H])([H])C([H])([H])C([H])([H])C2([H])N([H])C(=O)C1([H])N(C(=O)C([H])(N([H])C(=O)C([H])(N([H])C([H])([H])[H])C([H])([H])[H])C(C([H])([H])[H])(C([H])([H])[H])C([H])([H])[H])C([H])([H])c2c([H])c(OC([H])([H])C([H])(n3c(C([H])([H])C([H])([H])C([H])([H])N([H])C(=O)N4C([H])([H])C([H])([H])C([H])([H])C([H])(n5nc(-c6c([H])c([H])c(Oc7c([H])c([H])c(F)c([H])c7F)c([H])c6[H])c(C(=O)N([H])[H])c5N([H])[H])C4([H])[H])c([H])[n+]([H])c3C([H])([H])[H])C([H])([H])[H])c([H])c([H])c2C1([H])[H]

>  <smiles>  (75) 
[H]c1c([H])c([H])c2c(c1[H])C([H])([H])C([H])([H])C([H])([H])C2([H])N([H])C(=O)C1([H])N(C(=O)C([H])(N([H])C(=O)C([H])(N([H])C([H])([H])[H])C([H])([H])[H])C(C([H])([H])[H])(C([H])([H])[H])C([H])([H])[H])C([H])([H])c2c([H])c(OC([H])([H])C([H])(n3c(C([H])([H])C([H])([H])C([H])([H])N([H])C(=O)N4C([H])([H])C([H])([H])C([H])([H])C([H])(n5nc(-c6c([H])c([H])c(Oc7c([H])c([H])c(F)c([H])c7F)c([H])c6[H])c(C(=O)N([H])[H])c5N([H])[H])C4([H])[H])c([H])[n+]([H])c3C([H])([H])[H])C([H])([H])[H])c([H])c([H])c2C1([H])[H]

$$$$
78:0:0
     RDKit          3D

 91 99  0  0  1  0  0  0  0  0999 V2000
  -28.7690  -20.7460   21.1720 C   0  0  0  0  0  2  0  0  0  0  0  0
  -28.8320  -20.2660   18.7510 C   0  0  0  0  0  2  0  0  0  0  0  0
  -29.6390  -19.4800   21.4420 C   0  0  0  0  0  2  0  0  0  0  0  0
  -29.6700  -18.9800   18.9920 C   0  0  0  0  0  2  0  0  0  0  0  0
  -29.0400  -21.4070   19.7910 C   0  0  0  0  0  3  0  0  0  0  0  0
  -29.5120  -18.3270   20.3940 C   0  0  0  0  0  3  0  0  0  0  0  0
  -26.7180  -22.6000   19.9170 C   0  0  0  0  0  1  0  0  0  0  0  0
  -28.1730  -22.6950   19.4220 C   0  0  0  0  0  3  0  0  0  0  0  0
  -28.7870  -24.1690   19.4930 C   0  0  0  0  0  2  0  0  0  0  0  0
  -28.1820  -25.2560   20.4680 C   0  0  0  0  0  2  0  0  0  0  0  0
  -28.3810  -26.6730   20.1240 O   0  0  0  0  0  0  0  0  0  0  0  0
  -24.5970  -31.9530   23.2430 C   0  0  0  0  0  0  0  0  0  0  0  0
  -27.2460  -27.4820   20.1150 C   0  0  0  0  0  0  0  0  0  0  0  0
  -23.3990  -30.5410   21.6120 C   0  0  0  0  0  3  0  0  0  0  0  0
  -24.8530  -29.0250   20.1600 C   0  0  0  0  0  0  0  0  0  0  0  0
  -25.9260  -30.9040   21.4020 C   0  0  0  0  0  2  0  0  0  0  0  0
  -26.0200  -29.5350   20.7440 C   0  0  0  0  0  0  0  0  0  0  0  0
  -27.2230  -28.7770   20.7090 C   0  0  0  0  0  3  0  0  0  0  0  0
  -26.0640  -27.0210   19.4950 C   0  0  0  0  0  3  0  0  0  0  0  0
  -24.8750  -27.7730   19.5260 C   0  0  0  0  0  3  0  0  0  0  0  0
  -23.6020  -29.8760   20.2280 C   0  0  0  0  0  2  0  0  0  0  0  0
  -24.6600  -31.1480   22.1440 N   0  0  0  0  0  0  0  0  0  0  0  0
  -23.5140  -32.2130   23.7860 O   0  0  0  0  0  0  0  0  0  0  0  0
  -22.7600  -29.5110   22.5720 C   0  0  0  0  0  0  0  0  0  0  0  0
  -21.4380  -29.3100   22.4430 N   0  0  0  0  0  0  0  0  0  0  0  0
  -23.4510  -28.8960   23.3870 O   0  0  0  0  0  0  0  0  0  0  0  0
  -20.9420  -29.8580   21.7540 H   0  0  0  0  0  0  0  0  0  0  0  0
  -18.0770  -28.0680   22.9470 C   0  0  0  0  0  0  0  0  0  0  0  0
  -20.6320  -28.3620   23.2120 C   0  0  0  0  0  3  0  0  0  0  0  0
  -20.7520  -26.9340   22.6350 C   0  0  0  0  0  2  0  0  0  0  0  0
  -19.6530  -26.5960   21.6230 C   0  0  0  0  0  2  0  0  0  0  0  0
  -18.2700  -26.7200   22.2700 C   0  0  0  0  0  2  0  0  0  0  0  0
  -19.1860  -28.8450   23.3730 C   0  0  0  0  0  0  0  0  0  0  0  0
  -18.9550  -30.1040   23.9690 C   0  0  0  0  0  3  0  0  0  0  0  0
  -17.6460  -30.5910   24.1370 C   0  0  0  0  0  3  0  0  0  0  0  0
  -16.5490  -29.8120   23.7280 C   0  0  0  0  0  3  0  0  0  0  0  0
  -16.7650  -28.5510   23.1420 C   0  0  0  0  0  3  0  0  0  0  0  0
  -25.8770  -32.5950   23.8580 C   0  0  0  0  0  3  0  0  0  0  0  0
  -26.4040  -31.8320   25.1340 C   0  0  1  0  0  0  0  0  0  0  0  0
  -25.3190  -31.5860   26.2100 C   0  0  0  0  0  1  0  0  0  0  0  0
  -26.9960  -30.4590   24.7410 C   0  0  0  0  0  1  0  0  0  0  0  0
  -27.5560  -32.6350   25.7860 C   0  0  0  0  0  1  0  0  0  0  0  0
  -25.5590  -33.9930   24.1830 N   0  0  0  0  0  0  0  0  0  0  0  0
  -25.8870  -35.0460   23.4210 C   0  0  0  0  0  0  0  0  0  0  0  0
  -26.5630  -34.9430   22.3940 O   0  0  0  0  0  0  0  0  0  0  0  0
  -24.9530  -34.1430   24.9750 H   0  0  0  0  0  0  0  0  0  0  0  0
  -24.1570  -36.8320   23.0440 C   0  0  0  0  0  1  0  0  0  0  0  0
  -25.3900  -36.4330   23.8710 C   0  0  0  0  0  3  0  0  0  0  0  0
  -27.5120  -37.3230   24.7260 C   0  0  0  0  0  1  0  0  0  0  0  0
  -26.4200  -37.4890   23.7670 N   0  0  0  0  0  0  0  0  0  0  0  0
  -26.0110  -38.4090   23.9100 H   0  0  0  0  0  0  0  0  0  0  0  0
  -31.3160  -17.1520   21.9240 C   0  0  0  0  0  1  0  0  0  0  0  0
  -30.5360  -17.1170   20.5950 C   0  0  0  0  0  3  0  0  0  0  0  0
  -30.6700  -14.6480   20.0490 C   0  0  0  0  0  0  0  0  0  0  0  0
  -30.3140  -12.4700   18.9400 C   0  0  0  0  0  2  0  0  0  0  0  0
  -29.3210  -12.6780   17.7780 C   0  0  0  0  0  2  0  0  0  0  0  0
  -27.8700  -12.5440   18.2790 C   0  0  0  0  0  2  0  0  0  0  0  0
  -27.5950  -13.3670   19.5660 C   0  0  0  0  0  3  0  0  0  0  0  0
  -28.7080  -13.1640   20.6190 C   0  0  0  0  0  2  0  0  0  0  0  0
  -29.9890  -13.4700   19.9720 N   0  0  0  0  0  0  0  0  0  0  0  0
  -31.8230  -14.7610   19.6240 O   0  0  0  0  0  0  0  0  0  0  0  0
  -29.9710  -15.7450   20.4450 N   0  0  0  0  0  0  0  0  0  0  0  0
  -29.0070  -15.6030   20.7020 H   0  0  0  0  0  0  0  0  0  0  0  0
  -25.2370  -13.9540   20.3980 C   0  0  0  0  0  0  0  0  0  0  0  0
  -24.1910  -13.1720   20.8090 C   0  0  0  0  0  0  0  0  0  0  0  0
  -24.6540  -11.8240   20.7440 C   0  0  0  0  0  0  0  0  0  0  0  0
  -26.2720  -13.0770   20.1110 N   0  0  0  0  0  0  0  0  0  0  0  0
  -25.9290  -11.7900   20.3800 N   0  0  0  0  0  0  0  0  0  0  0  0
  -23.9410  -10.5560   20.9520 C   0  0  0  0  0  0  0  0  0  0  0  0
  -24.3930   -9.5970   21.8850 C   0  0  0  0  0  3  0  0  0  0  0  0
  -23.6780   -8.3950   22.0800 C   0  0  0  0  0  3  0  0  0  0  0  0
  -22.4980   -8.1450   21.3410 C   0  0  0  0  0  0  0  0  0  0  0  0
  -22.0660   -9.0920   20.3960 C   0  0  0  0  0  3  0  0  0  0  0  0
  -22.7820  -10.2840   20.2000 C   0  0  0  0  0  3  0  0  0  0  0  0
  -21.7520   -6.9960   21.4460 O   0  0  0  0  0  0  0  0  0  0  0  0
  -21.7040   -6.2720   22.6100 C   0  0  0  0  0  0  0  0  0  0  0  0
  -21.2450   -6.8360   23.8210 C   0  0  0  0  0  3  0  0  0  0  0  0
  -21.1470   -6.0380   24.9780 C   0  0  0  0  0  3  0  0  0  0  0  0
  -21.4970   -4.6760   24.9260 C   0  0  0  0  0  0  0  0  0  0  0  0
  -21.9490   -4.1110   23.7210 C   0  0  0  0  0  3  0  0  0  0  0  0
  -22.0490   -4.9050   22.5650 C   0  0  0  0  0  0  0  0  0  0  0  0
  -22.4650   -4.3510   21.4030 F   0  0  0  0  0  0  0  0  0  0  0  0
  -21.3950   -3.9070   26.0350 F   0  0  0  0  0  0  0  0  0  0  0  0
  -22.8050  -13.6400   21.1440 C   0  0  0  0  0  0  0  0  0  0  0  0
  -22.1150  -12.9270   22.0300 N   0  0  0  0  0  0  0  0  0  0  0  0
  -22.3440  -14.6730   20.6610 O   0  0  0  0  0  0  0  0  0  0  0  0
  -22.5050  -12.0920   22.4410 H   0  0  0  0  0  0  0  0  0  0  0  0
  -21.1860  -13.2200   22.2990 H   0  0  0  0  0  0  0  0  0  0  0  0
  -25.3880  -15.3240   20.2240 N   0  0  0  0  0  0  0  0  0  0  0  0
  -24.6190  -15.9710   20.3620 H   0  0  0  0  0  0  0  0  0  0  0  0
  -26.2110  -15.7690   19.8390 H   0  0  0  0  0  0  0  0  0  0  0  0
  1  3  1  0
  2  4  1  0
  2  5  1  0
  4  6  1  0
  5  8  1  0
  5  1  1  0
  6 53  1  0
  6  3  1  0
  8  9  1  0
  8  7  1  0
  9 10  1  0
 11 10  1  0
 12 23  2  0
 13 11  1  0
 13 18  1  0
 14 22  1  0
 14 24  1  0
 15 21  1  0
 15 17  1  0
 16 22  1  0
 17 16  1  0
 18 17  2  0
 19 20  1  0
 19 13  2  0
 20 15  2  0
 21 14  1  0
 22 12  1  0
 24 26  2  0
 25 24  1  0
 27 25  1  0
 28 37  2  0
 28 33  1  0
 29 25  1  0
 29 33  1  0
 30 29  1  0
 31 32  1  0
 31 30  1  0
 32 28  1  0
 33 34  2  0
 34 35  1  0
 36 35  2  0
 37 36  1  0
 38 12  1  0
 38 43  1  0
 38 39  1  0
 39 42  1  1
 39 40  1  0
 41 39  1  0
 43 46  1  0
 44 48  1  0
 44 43  1  0
 45 44  2  0
 48 47  1  0
 50 48  1  0
 50 51  1  0
 50 49  1  0
 53 52  1  0
 54 62  1  0
 55 60  1  0
 56 57  1  0
 56 55  1  0
 58 57  1  0
 58 67  1  0
 58 59  1  0
 60 54  1  0
 60 59  1  0
 61 54  2  0
 62 53  1  0
 62 63  1  0
 64 65  2  0
 65 84  1  0
 66 65  1  0
 66 69  1  0
 67 68  1  0
 67 64  1  0
 68 66  2  0
 69 70  1  0
 70 71  2  0
 72 75  1  0
 72 71  1  0
 73 72  2  0
 74 73  1  0
 74 69  2  0
 75 76  1  0
 76 77  1  0
 77 78  2  0
 79 78  1  0
 79 83  1  0
 80 79  2  0
 81 76  2  0
 81 80  1  0
 82 81  1  0
 84 85  1  0
 85 88  1  0
 85 87  1  0
 86 84  2  0
 89 90  1  0
 89 64  1  0
 91 89  1  0
M  ISO  4  10 101  11 101  54 100  62 100
M  END
>  <TORSDO>  (76) 
F 20

>  <SCORE>  (76) 
-13.343

>  <name>  (76) 
78

>  <ligand_id>  (76) 
78

>  <original_smiles>  (76) 
[H]c1c([H])c([H])c2c(c1[H])C([H])([H])C([H])([H])C([H])([H])C2([H])N([H])C(=O)C1([H])N(C(=O)C([H])(N([H])C(=O)C([H])(N([H])C([H])([H])[H])C([H])([H])[H])C(C([H])([H])[H])(C([H])([H])[H])C([H])([H])[H])C([H])([H])c2c([H])c(OC([H])([H])C([H])([H])C([H])(C([H])([H])[H])C3([H])C([H])([H])C([H])([H])C([H])(C([H])(N([H])C(=O)N4C([H])([H])C([H])([H])C([H])([H])C([H])(n5nc(-c6c([H])c([H])c(Oc7c([H])c([H])c(F)c([H])c7F)c([H])c6[H])c(C(=O)N([H])[H])c5N([H])[H])C4([H])[H])C([H])([H])[H])C([H])([H])C3([H])[H])c([H])c([H])c2C1([H])[H]

>  <smiles>  (76) 
[H]c1c([H])c([H])c2c(c1[H])C([H])([H])C([H])([H])C([H])([H])C2([H])N([H])C(=O)C1([H])N(C(=O)C([H])(N([H])C(=O)C([H])(N([H])C([H])([H])[H])C([H])([H])[H])C(C([H])([H])[H])(C([H])([H])[H])C([H])([H])[H])C([H])([H])c2c([H])c(OC([H])([H])C([H])([H])C([H])(C([H])([H])[H])C3([H])C([H])([H])C([H])([H])C([H])(C([H])(N([H])C(=O)N4C([H])([H])C([H])([H])C([H])([H])C([H])(n5nc(-c6c([H])c([H])c(Oc7c([H])c([H])c(F)c([H])c7F)c([H])c6[H])c(C(=O)N([H])[H])c5N([H])[H])C4([H])[H])C([H])([H])[H])C([H])([H])C3([H])[H])c([H])c([H])c2C1([H])[H]

$$$$
79:0:0
     RDKit          3D

 96104  0  0  1  0  0  0  0  0999 V2000
  -28.2940  -21.3670   17.5710 C   0  0  0  0  0  3  0  0  0  0  0  0
  -29.6360  -21.2800   19.5830 C   0  0  0  0  0  3  0  0  0  0  0  0
  -28.6170  -21.9000   18.8330 C   0  0  0  0  0  0  0  0  0  0  0  0
  -28.9820  -20.2270   17.1250 C   0  0  0  0  0  0  0  0  0  0  0  0
  -30.2860  -20.1510   19.0480 C   0  0  0  0  0  0  0  0  0  0  0  0
  -28.6720  -19.6080   15.7830 C   0  0  0  0  0  1  0  0  0  0  0  0
  -29.9530  -19.6300   17.8460 N   0  0  0  0  0  0  0  0  0  0  0  0
  -32.6590  -19.4650   18.7330 C   0  0  0  0  0  1  0  0  0  0  0  0
  -31.5000  -19.5310   19.7470 C   0  0  0  0  0  3  0  0  0  0  0  0
  -31.1660  -18.1940   20.5180 C   0  0  0  0  0  3  0  0  0  0  0  0
  -30.9820  -18.3560   22.0710 C   0  0  0  0  0  2  0  0  0  0  0  0
  -30.6040  -20.3460   23.7430 C   0  0  0  0  0  1  0  0  0  0  0  0
  -31.6010  -19.3530   23.1080 C   0  0  0  0  0  2  0  0  0  0  0  0
  -32.0900  -16.9990   20.1310 C   0  0  0  0  0  2  0  0  0  0  0  0
  -31.9950  -14.5490   19.9060 C   0  0  0  0  0  0  0  0  0  0  0  0
  -31.4510  -12.3070   19.0620 C   0  0  0  0  0  2  0  0  0  0  0  0
  -30.5330  -12.4350   17.8330 C   0  0  0  0  0  2  0  0  0  0  0  0
  -29.0590  -12.4880   18.2700 C   0  0  0  0  0  2  0  0  0  0  0  0
  -28.8050  -13.5270   19.3960 C   0  0  0  0  0  3  0  0  0  0  0  0
  -29.8430  -13.3830   20.5310 C   0  0  0  0  0  2  0  0  0  0  0  0
  -31.1890  -13.4570   19.9390 N   0  0  0  0  0  0  0  0  0  0  0  0
  -33.1060  -14.5450   19.3700 O   0  0  0  0  0  0  0  0  0  0  0  0
  -31.4690  -15.6900   20.3680 N   0  0  0  0  0  0  0  0  0  0  0  0
  -30.5600  -15.6600   20.8040 H   0  0  0  0  0  0  0  0  0  0  0  0
  -26.5430  -14.4520   20.1960 C   0  0  0  0  0  0  0  0  0  0  0  0
  -25.3830  -13.8290   20.5750 C   0  0  0  0  0  0  0  0  0  0  0  0
  -25.6400  -12.4270   20.4860 C   0  0  0  0  0  0  0  0  0  0  0  0
  -27.4400  -13.4370   19.9060 N   0  0  0  0  0  0  0  0  0  0  0  0
  -26.9020  -12.2120   20.1360 N   0  0  0  0  0  0  0  0  0  0  0  0
  -24.7430  -11.2760   20.6560 C   0  0  0  0  0  0  0  0  0  0  0  0
  -25.0390  -10.2350   21.5620 C   0  0  0  0  0  3  0  0  0  0  0  0
  -24.1500   -9.1490   21.7210 C   0  0  0  0  0  3  0  0  0  0  0  0
  -22.9510   -9.1010   20.9730 C   0  0  0  0  0  0  0  0  0  0  0  0
  -22.6740  -10.1270   20.0530 C   0  0  0  0  0  3  0  0  0  0  0  0
  -23.5620  -11.2050   19.8940 C   0  0  0  0  0  3  0  0  0  0  0  0
  -22.0410   -8.0740   21.0410 O   0  0  0  0  0  0  0  0  0  0  0  0
  -21.8590   -7.3500   22.1930 C   0  0  0  0  0  0  0  0  0  0  0  0
  -21.4980   -7.9660   23.4120 C   0  0  0  0  0  3  0  0  0  0  0  0
  -21.2530   -7.1770   24.5530 C   0  0  0  0  0  3  0  0  0  0  0  0
  -21.3570   -5.7750   24.4770 C   0  0  0  0  0  0  0  0  0  0  0  0
  -21.7070   -5.1600   23.2620 C   0  0  0  0  0  3  0  0  0  0  0  0
  -21.9540   -5.9460   22.1230 C   0  0  0  0  0  0  0  0  0  0  0  0
  -22.2700   -5.3460   20.9500 F   0  0  0  0  0  0  0  0  0  0  0  0
  -21.1130   -5.0160   25.5710 F   0  0  0  0  0  0  0  0  0  0  0  0
  -24.0780  -14.4940   20.9090 C   0  0  0  0  0  0  0  0  0  0  0  0
  -23.2960  -13.8890   21.7960 N   0  0  0  0  0  0  0  0  0  0  0  0
  -23.7680  -15.5770   20.4170 O   0  0  0  0  0  0  0  0  0  0  0  0
  -23.5630  -13.0110   22.2140 H   0  0  0  0  0  0  0  0  0  0  0  0
  -22.4140  -14.3060   22.0580 H   0  0  0  0  0  0  0  0  0  0  0  0
  -26.9090  -15.7870   20.0570 N   0  0  0  0  0  0  0  0  0  0  0  0
  -26.2590  -16.5510   20.2110 H   0  0  0  0  0  0  0  0  0  0  0  0
  -27.8230  -16.1010   19.7530 H   0  0  0  0  0  0  0  0  0  0  0  0
  -27.8960  -23.1230   19.3610 C   0  0  0  0  0  2  0  0  0  0  0  0
  -28.6610  -24.4410   19.1130 C   0  0  0  0  0  2  0  0  0  0  0  0
  -28.8430  -25.3070   20.3770 C   0  0  0  0  0  2  0  0  0  0  0  0
  -28.8590  -26.7110   20.0990 O   0  0  0  0  0  0  0  0  0  0  0  0
  -24.6200  -31.5740   23.0850 C   0  0  0  0  0  0  0  0  0  0  0  0
  -27.6350  -27.3460   20.0620 C   0  0  0  0  0  0  0  0  0  0  0  0
  -23.5570  -30.1180   21.3920 C   0  0  0  0  0  3  0  0  0  0  0  0
  -25.1500  -28.6930   20.0070 C   0  0  0  0  0  0  0  0  0  0  0  0
  -26.0610  -30.6440   21.2760 C   0  0  0  0  0  2  0  0  0  0  0  0
  -26.2550  -29.2900   20.6240 C   0  0  0  0  0  0  0  0  0  0  0  0
  -27.5050  -28.6290   20.6360 C   0  0  0  0  0  3  0  0  0  0  0  0
  -26.5010  -26.7510   19.4600 C   0  0  0  0  0  3  0  0  0  0  0  0
  -25.2680  -27.4220   19.4220 C   0  0  0  0  0  3  0  0  0  0  0  0
  -23.8550  -29.4690   20.0160 C   0  0  0  0  0  2  0  0  0  0  0  0
  -24.7620  -30.7930   21.9770 N   0  0  0  0  0  0  0  0  0  0  0  0
  -23.5050  -31.7700   23.5920 O   0  0  0  0  0  0  0  0  0  0  0  0
  -22.9390  -29.0470   22.3200 C   0  0  0  0  0  0  0  0  0  0  0  0
  -21.6410  -28.7590   22.1220 N   0  0  0  0  0  0  0  0  0  0  0  0
  -23.6250  -28.4770   23.1710 O   0  0  0  0  0  0  0  0  0  0  0  0
  -21.1450  -29.2830   21.4140 H   0  0  0  0  0  0  0  0  0  0  0  0
  -18.3660  -27.2550   22.3880 C   0  0  0  0  0  0  0  0  0  0  0  0
  -20.8600  -27.7580   22.8470 C   0  0  0  0  0  3  0  0  0  0  0  0
  -21.1390  -26.3340   22.3110 C   0  0  0  0  0  2  0  0  0  0  0  0
  -20.1540  -25.8940   21.2240 C   0  0  0  0  0  2  0  0  0  0  0  0
  -18.7190  -25.9170   21.7590 C   0  0  0  0  0  2  0  0  0  0  0  0
  -19.3720  -28.1260   22.8850 C   0  0  0  0  0  0  0  0  0  0  0  0
  -18.9930  -29.3720   23.4270 C   0  0  0  0  0  3  0  0  0  0  0  0
  -17.6380  -29.7520   23.4790 C   0  0  0  0  0  3  0  0  0  0  0  0
  -16.6460  -28.8790   23.0030 C   0  0  0  0  0  3  0  0  0  0  0  0
  -17.0090  -27.6320   22.4630 C   0  0  0  0  0  3  0  0  0  0  0  0
  -25.8420  -32.2780   23.7530 C   0  0  0  0  0  3  0  0  0  0  0  0
  -25.4310  -33.6410   24.1070 N   0  0  0  0  0  0  0  0  0  0  0  0
  -25.7110  -34.7330   23.3810 C   0  0  0  0  0  0  0  0  0  0  0  0
  -26.4150  -34.7010   22.3690 O   0  0  0  0  0  0  0  0  0  0  0  0
  -24.8110  -33.7370   24.8980 H   0  0  0  0  0  0  0  0  0  0  0  0
  -23.8680  -36.4050   23.0200 C   0  0  0  0  0  1  0  0  0  0  0  0
  -25.1160  -36.0730   23.8550 C   0  0  0  0  0  3  0  0  0  0  0  0
  -27.1630  -37.0820   24.7570 C   0  0  0  0  0  1  0  0  0  0  0  0
  -26.0730  -37.1990   23.7920 N   0  0  0  0  0  0  0  0  0  0  0  0
  -25.6000  -38.0830   23.9520 H   0  0  0  0  0  0  0  0  0  0  0  0
  -26.3810  -31.5120   25.0220 C   0  0  1  0  0  0  0  0  0  0  0  0
  -25.2850  -31.1740   26.0590 C   0  0  0  0  0  1  0  0  0  0  0  0
  -27.0620  -30.1870   24.6090 C   0  0  0  0  0  1  0  0  0  0  0  0
  -27.4580  -32.3660   25.7320 C   0  0  0  0  0  1  0  0  0  0  0  0
  1  3  1  0
  3 53  1  0
  3  2  2  0
  4  1  2  0
  4  7  1  0
  5  2  1  0
  5  9  1  0
  6  4  1  0
  7  5  2  0
  9  8  1  0
  9 10  1  0
 10 14  1  0
 10 11  1  0
 11 13  1  0
 13 12  1  0
 14 23  1  0
 15 21  1  0
 15 23  1  0
 16 21  1  0
 17 18  1  0
 17 16  1  0
 19 18  1  0
 19 28  1  0
 19 20  1  0
 21 20  1  0
 22 15  2  0
 23 24  1  0
 25 26  2  0
 26 45  1  0
 27 26  1  0
 27 30  1  0
 28 29  1  0
 28 25  1  0
 29 27  2  0
 30 31  1  0
 31 32  2  0
 33 36  1  0
 33 32  1  0
 34 33  2  0
 35 34  1  0
 35 30  2  0
 36 37  1  0
 37 38  1  0
 38 39  2  0
 40 39  1  0
 40 44  1  0
 41 40  2  0
 42 37  2  0
 42 41  1  0
 43 42  1  0
 45 46  1  0
 46 49  1  0
 46 48  1  0
 47 45  2  0
 50 25  1  0
 50 51  1  0
 52 50  1  0
 54 53  1  0
 54 55  1  0
 56 55  1  0
 57 68  2  0
 58 56  1  0
 58 63  1  0
 59 67  1  0
 59 69  1  0
 60 66  1  0
 60 62  1  0
 61 67  1  0
 62 63  2  0
 62 61  1  0
 64 58  2  0
 65 64  1  0
 65 60  2  0
 66 59  1  0
 67 57  1  0
 69 71  2  0
 70 69  1  0
 72 70  1  0
 73 82  2  0
 73 78  1  0
 74 70  1  0
 74 78  1  0
 75 74  1  0
 76 77  1  0
 76 75  1  0
 77 73  1  0
 78 79  2  0
 79 80  1  0
 81 80  2  0
 82 81  1  0
 83 57  1  0
 83 84  1  0
 83 93  1  0
 84 87  1  0
 85 89  1  0
 85 84  1  0
 86 85  2  0
 89 88  1  0
 91 89  1  0
 91 92  1  0
 91 90  1  0
 93 96  1  1
 93 94  1  0
 95 93  1  0
M  ISO  4  15 100  23 100  55 101  56 101
M  END
>  <TORSDO>  (77) 
F 24

>  <SCORE>  (77) 
-10.667

>  <name>  (77) 
79

>  <ligand_id>  (77) 
79

>  <original_smiles>  (77) 
[H]c1c([H])c([H])c2c(c1[H])C([H])([H])C([H])([H])C([H])([H])C2([H])N([H])C(=O)C1([H])N(C(=O)C([H])(N([H])C(=O)C([H])(N([H])C([H])([H])[H])C([H])([H])[H])C(C([H])([H])[H])(C([H])([H])[H])C([H])([H])[H])C([H])([H])c2c([H])c(OC([H])([H])C([H])([H])C([H])([H])c3c([H])c(C([H])([H])[H])nc(C([H])(C([H])([H])[H])C([H])(C([H])([H])N([H])C(=O)N4C([H])([H])C([H])([H])C([H])([H])C([H])(n5nc(-c6c([H])c([H])c(Oc7c([H])c([H])c(F)c([H])c7F)c([H])c6[H])c(C(=O)N([H])[H])c5N([H])[H])C4([H])[H])C([H])([H])C([H])([H])C([H])([H])[H])c3[H])c([H])c([H])c2C1([H])[H]

>  <smiles>  (77) 
[H]c1c([H])c([H])c2c(c1[H])C([H])([H])C([H])([H])C([H])([H])C2([H])N([H])C(=O)C1([H])N(C(=O)C([H])(N([H])C(=O)C([H])(N([H])C([H])([H])[H])C([H])([H])[H])C(C([H])([H])[H])(C([H])([H])[H])C([H])([H])[H])C([H])([H])c2c([H])c(OC([H])([H])C([H])([H])C([H])([H])c3c([H])c(C([H])([H])[H])nc(C([H])(C([H])([H])[H])C([H])(C([H])([H])N([H])C(=O)N4C([H])([H])C([H])([H])C([H])([H])C([H])(n5nc(-c6c([H])c([H])c(Oc7c([H])c([H])c(F)c([H])c7F)c([H])c6[H])c(C(=O)N([H])[H])c5N([H])[H])C4([H])[H])C([H])([H])C([H])([H])C([H])([H])[H])c3[H])c([H])c([H])c2C1([H])[H]

$$$$
80:0:0
     RDKit          3D

 93101  0  0  1  0  0  0  0  0999 V2000
  -27.5800  -21.6980   21.1880 C   0  0  0  0  0  2  0  0  0  0  0  0
  -29.2640  -19.8770   20.7300 C   0  0  0  0  0  3  0  0  0  0  0  0
  -27.3220  -19.6320   19.7830 C   0  0  0  0  0  3  0  0  0  0  0  0
  -29.2270  -18.6780   20.0620 C   0  0  0  0  0  0  0  0  0  0  0  0
  -27.9810  -18.5240   19.4490 N   0  0  0  0  0  0  0  0  0  0  0  0
  -28.0220  -20.4700   20.5610 N   0  0  0  0  0  0  0  0  0  0  0  0
  -30.2730  -17.6010   20.0390 C   0  0  0  0  0  2  0  0  0  0  0  0
  -31.5200  -17.0960   22.2580 C   0  0  0  0  0  1  0  0  0  0  0  0
  -30.3060  -16.7940   21.3650 C   0  0  0  0  0  3  0  0  0  0  0  0
  -30.7850  -14.5240   20.3310 C   0  0  0  0  0  0  0  0  0  0  0  0
  -30.5100  -12.4260   19.0660 C   0  0  0  0  0  2  0  0  0  0  0  0
  -29.5300  -12.6400   17.8950 C   0  0  0  0  0  2  0  0  0  0  0  0
  -28.0640  -12.4860   18.3530 C   0  0  0  0  0  2  0  0  0  0  0  0
  -27.7460  -13.2990   19.6380 C   0  0  0  0  0  3  0  0  0  0  0  0
  -28.8170  -13.0050   20.7100 C   0  0  0  0  0  2  0  0  0  0  0  0
  -30.1370  -13.3460   20.1470 N   0  0  0  0  0  0  0  0  0  0  0  0
  -31.8210  -14.8390   19.7370 O   0  0  0  0  0  0  0  0  0  0  0  0
  -30.1410  -15.3560   21.1610 N   0  0  0  0  0  0  0  0  0  0  0  0
  -29.3290  -14.9540   21.6030 H   0  0  0  0  0  0  0  0  0  0  0  0
  -25.3370  -13.8940   20.3480 C   0  0  0  0  0  0  0  0  0  0  0  0
  -24.2820  -13.1140   20.7380 C   0  0  0  0  0  0  0  0  0  0  0  0
  -24.7590  -11.7680   20.7220 C   0  0  0  0  0  0  0  0  0  0  0  0
  -26.3940  -13.0230   20.1240 N   0  0  0  0  0  0  0  0  0  0  0  0
  -26.0460  -11.7400   20.4010 N   0  0  0  0  0  0  0  0  0  0  0  0
  -24.0500  -10.5020   20.9420 C   0  0  0  0  0  0  0  0  0  0  0  0
  -24.4540   -9.5910   21.9450 C   0  0  0  0  0  3  0  0  0  0  0  0
  -23.7440   -8.3880   22.1460 C   0  0  0  0  0  3  0  0  0  0  0  0
  -22.6190   -8.0840   21.3450 C   0  0  0  0  0  0  0  0  0  0  0  0
  -22.2340   -8.9840   20.3350 C   0  0  0  0  0  3  0  0  0  0  0  0
  -22.9440  -10.1790   20.1300 C   0  0  0  0  0  3  0  0  0  0  0  0
  -21.8850   -6.9280   21.4510 O   0  0  0  0  0  0  0  0  0  0  0  0
  -21.7400   -6.2760   22.6490 C   0  0  0  0  0  0  0  0  0  0  0  0
  -21.1580   -6.9040   23.7710 C   0  0  0  0  0  3  0  0  0  0  0  0
  -20.9640   -6.1780   24.9630 C   0  0  0  0  0  3  0  0  0  0  0  0
  -21.3410   -4.8230   25.0320 C   0  0  0  0  0  0  0  0  0  0  0  0
  -21.9180   -4.1940   23.9140 C   0  0  0  0  0  3  0  0  0  0  0  0
  -22.1150   -4.9190   22.7250 C   0  0  0  0  0  0  0  0  0  0  0  0
  -22.6490   -4.3030   21.6440 F   0  0  0  0  0  0  0  0  0  0  0  0
  -21.1490   -4.1220   26.1740 F   0  0  0  0  0  0  0  0  0  0  0  0
  -22.8810  -13.5790   21.0210 C   0  0  0  0  0  0  0  0  0  0  0  0
  -22.1730  -12.8850   21.9040 N   0  0  0  0  0  0  0  0  0  0  0  0
  -22.4250  -14.5950   20.4980 O   0  0  0  0  0  0  0  0  0  0  0  0
  -22.5530  -12.0620   22.3480 H   0  0  0  0  0  0  0  0  0  0  0  0
  -21.2360  -13.1810   22.1410 H   0  0  0  0  0  0  0  0  0  0  0  0
  -25.4750  -15.2660   20.1550 N   0  0  0  0  0  0  0  0  0  0  0  0
  -24.6910  -15.8950   20.2820 H   0  0  0  0  0  0  0  0  0  0  0  0
  -26.3130  -15.7420   19.8430 H   0  0  0  0  0  0  0  0  0  0  0  0
  -26.9350  -22.6830   20.2000 C   0  0  0  0  0  2  0  0  0  0  0  0
  -25.4800  -23.8540   21.9500 C   0  0  0  0  0  1  0  0  0  0  0  0
  -26.5180  -24.0310   20.8270 C   0  0  0  0  0  3  0  0  0  0  0  0
  -27.7080  -24.9020   21.2990 C   0  0  0  0  0  2  0  0  0  0  0  0
  -28.5690  -25.5100   20.1650 C   0  0  0  0  0  2  0  0  0  0  0  0
  -28.6540  -26.9360   20.2690 O   0  0  0  0  0  0  0  0  0  0  0  0
  -24.6330  -31.9360   23.2910 C   0  0  0  0  0  0  0  0  0  0  0  0
  -27.4710  -27.6390   20.1930 C   0  0  0  0  0  0  0  0  0  0  0  0
  -23.5130  -30.5400   21.5860 C   0  0  0  0  0  3  0  0  0  0  0  0
  -25.0450  -29.0840   20.1700 C   0  0  0  0  0  0  0  0  0  0  0  0
  -26.0360  -30.9680   21.4760 C   0  0  0  0  0  2  0  0  0  0  0  0
  -26.1710  -29.6180   20.8050 C   0  0  0  0  0  0  0  0  0  0  0  0
  -27.3890  -28.9040   20.8140 C   0  0  0  0  0  3  0  0  0  0  0  0
  -26.3280  -27.1280   19.5320 C   0  0  0  0  0  3  0  0  0  0  0  0
  -25.1200  -27.8400   19.5290 C   0  0  0  0  0  3  0  0  0  0  0  0
  -23.7750  -29.8980   20.1980 C   0  0  0  0  0  2  0  0  0  0  0  0
  -24.7420  -31.1630   22.1740 N   0  0  0  0  0  0  0  0  0  0  0  0
  -23.5280  -32.1680   23.8010 O   0  0  0  0  0  0  0  0  0  0  0  0
  -22.8630  -29.4790   22.5040 C   0  0  0  0  0  0  0  0  0  0  0  0
  -21.5510  -29.2560   22.3200 N   0  0  0  0  0  0  0  0  0  0  0  0
  -23.5340  -28.8610   23.3330 O   0  0  0  0  0  0  0  0  0  0  0  0
  -21.0720  -29.8170   21.6300 H   0  0  0  0  0  0  0  0  0  0  0  0
  -18.1920  -27.9630   22.6640 C   0  0  0  0  0  0  0  0  0  0  0  0
  -20.7310  -28.2780   23.0370 C   0  0  0  0  0  3  0  0  0  0  0  0
  -20.8900  -26.8640   22.4300 C   0  0  0  0  0  2  0  0  0  0  0  0
  -19.8330  -26.5340   21.3710 C   0  0  0  0  0  2  0  0  0  0  0  0
  -18.4250  -26.6330   21.9680 C   0  0  0  0  0  2  0  0  0  0  0  0
  -19.2740  -28.7440   23.1510 C   0  0  0  0  0  0  0  0  0  0  0  0
  -19.0010  -29.9910   23.7550 C   0  0  0  0  0  3  0  0  0  0  0  0
  -17.6790  -30.4570   23.8780 C   0  0  0  0  0  3  0  0  0  0  0  0
  -16.6110  -29.6720   23.4100 C   0  0  0  0  0  3  0  0  0  0  0  0
  -16.8680  -28.4270   22.8100 C   0  0  0  0  0  3  0  0  0  0  0  0
  -25.8820  -32.5850   23.9640 C   0  0  0  0  0  3  0  0  0  0  0  0
  -25.5500  -33.9870   24.2500 N   0  0  0  0  0  0  0  0  0  0  0  0
  -25.9100  -35.0260   23.4830 C   0  0  0  0  0  0  0  0  0  0  0  0
  -26.6280  -34.9050   22.4870 O   0  0  0  0  0  0  0  0  0  0  0  0
  -24.9200  -34.1530   25.0200 H   0  0  0  0  0  0  0  0  0  0  0  0
  -24.1910  -36.7980   23.0010 C   0  0  0  0  0  1  0  0  0  0  0  0
  -25.3900  -36.4210   23.8860 C   0  0  0  0  0  3  0  0  0  0  0  0
  -27.4750  -37.3390   24.8080 C   0  0  0  0  0  1  0  0  0  0  0  0
  -26.4220  -37.4770   23.8040 N   0  0  0  0  0  0  0  0  0  0  0  0
  -26.0060  -38.3980   23.9050 H   0  0  0  0  0  0  0  0  0  0  0  0
  -26.3390  -31.8440   25.2800 C   0  0  1  0  0  0  0  0  0  0  0  0
  -25.1950  -31.6120   26.2970 C   0  0  0  0  0  1  0  0  0  0  0  0
  -26.9580  -30.4670   24.9430 C   0  0  0  0  0  1  0  0  0  0  0  0
  -27.4430  -32.6640   25.9870 C   0  0  0  0  0  1  0  0  0  0  0  0
  3  6  1  0
  4  2  2  0
  5  3  2  0
  5  4  1  0
  6  2  1  0
  6  1  1  0
  7  4  1  0
  7  9  1  0
  9  8  1  0
 10 18  1  0
 11 16  1  0
 12 13  1  0
 12 11  1  0
 14 13  1  0
 14 23  1  0
 14 15  1  0
 16 10  1  0
 16 15  1  0
 17 10  2  0
 18  9  1  0
 18 19  1  0
 20 21  2  0
 21 40  1  0
 22 21  1  0
 22 25  1  0
 23 20  1  0
 23 24  1  0
 24 22  2  0
 25 26  1  0
 26 27  2  0
 28 31  1  0
 28 27  1  0
 29 28  2  0
 30 29  1  0
 30 25  2  0
 31 32  1  0
 32 37  2  0
 32 33  1  0
 33 34  2  0
 34 35  1  0
 35 39  1  0
 36 35  2  0
 37 36  1  0
 38 37  1  0
 40 41  1  0
 41 44  1  0
 41 43  1  0
 42 40  2  0
 45 46  1  0
 45 20  1  0
 47 45  1  0
 48 50  1  0
 48  1  1  0
 50 51  1  0
 50 49  1  0
 52 53  1  0
 52 51  1  0
 54 65  2  0
 55 53  1  0
 55 60  1  0
 56 64  1  0
 56 66  1  0
 57 63  1  0
 57 59  1  0
 58 64  1  0
 59 60  2  0
 59 58  1  0
 61 55  2  0
 62 61  1  0
 62 57  2  0
 63 56  1  0
 64 54  1  0
 66 68  2  0
 67 66  1  0
 69 67  1  0
 70 79  2  0
 70 75  1  0
 71 67  1  0
 71 75  1  0
 72 71  1  0
 73 74  1  0
 73 72  1  0
 74 70  1  0
 75 76  2  0
 76 77  1  0
 78 77  2  0
 79 78  1  0
 80 54  1  0
 80 81  1  0
 80 90  1  0
 81 84  1  0
 82 86  1  0
 82 81  1  0
 83 82  2  0
 86 85  1  0
 88 86  1  0
 88 89  1  0
 88 87  1  0
 90 93  1  1
 90 91  1  0
 92 90  1  0
M  ISO  4  10 100  18 100  52 101  53 101
M  END
>  <TORSDO>  (78) 
F 23

>  <SCORE>  (78) 
-12.078

>  <name>  (78) 
80

>  <ligand_id>  (78) 
80

>  <original_smiles>  (78) 
[H]c1c([H])c([H])c2c(c1[H])C([H])([H])C([H])([H])C([H])([H])C2([H])N([H])C(=O)C1([H])N(C(=O)C([H])(N([H])C(=O)C([H])(N([H])C([H])([H])[H])C([H])([H])[H])C(C([H])([H])[H])(C([H])([H])[H])C([H])([H])[H])C([H])([H])c2c([H])c(OC([H])([H])C([H])([H])C([H])(C([H])([H])[H])C([H])([H])C([H])([H])n3c([H])nc(C([H])([H])C([H])(N([H])C(=O)N4C([H])([H])C([H])([H])C([H])([H])C([H])(n5nc(-c6c([H])c([H])c(Oc7c([H])c([H])c(F)c([H])c7F)c([H])c6[H])c(C(=O)N([H])[H])c5N([H])[H])C4([H])[H])C([H])([H])[H])c3[H])c([H])c([H])c2C1([H])[H]

>  <smiles>  (78) 
[H]c1c([H])c([H])c2c(c1[H])C([H])([H])C([H])([H])C([H])([H])C2([H])N([H])C(=O)C1([H])N(C(=O)C([H])(N([H])C(=O)C([H])(N([H])C([H])([H])[H])C([H])([H])[H])C(C([H])([H])[H])(C([H])([H])[H])C([H])([H])[H])C([H])([H])c2c([H])c(OC([H])([H])C([H])([H])C([H])(C([H])([H])[H])C([H])([H])C([H])([H])n3c([H])nc(C([H])([H])C([H])(N([H])C(=O)N4C([H])([H])C([H])([H])C([H])([H])C([H])(n5nc(-c6c([H])c([H])c(Oc7c([H])c([H])c(F)c([H])c7F)c([H])c6[H])c(C(=O)N([H])[H])c5N([H])[H])C4([H])[H])C([H])([H])[H])c3[H])c([H])c([H])c2C1([H])[H]

$$$$
81:0:0
     RDKit          3D

 98106  0  0  1  0  0  0  0  0999 V2000
  -28.2510  -20.1180   20.6220 C   0  0  0  0  0  3  0  0  0  0  0  0
  -28.7440  -21.9560   19.3030 C   0  0  0  0  0  0  0  0  0  0  0  0
  -29.9510  -21.3220   18.8970 C   0  0  0  0  0  0  0  0  0  0  0  0
  -29.4680  -19.4860   20.2360 C   0  0  0  0  0  0  0  0  0  0  0  0
  -27.8860  -21.3380   20.1520 N   0  0  0  0  0  0  0  0  0  0  0  0
  -30.2980  -20.1040   19.3650 N   0  0  0  0  0  0  0  0  0  0  0  0
  -28.8850  -17.2670   21.1930 C   0  0  0  0  0  1  0  0  0  0  0  0
  -29.8820  -18.2210   20.7200 N   0  0  0  0  0  0  0  0  0  0  0  0
  -31.2610  -17.7620   20.5120 C   0  0  0  0  0  2  0  0  0  0  0  0
  -31.3710  -16.6970   19.4060 C   0  0  0  0  0  2  0  0  0  0  0  0
  -31.5600  -14.2390   19.4860 C   0  0  0  0  0  0  0  0  0  0  0  0
  -31.1930  -11.8690   18.9330 C   0  0  0  0  0  2  0  0  0  0  0  0
  -30.1940  -11.7740   17.7650 C   0  0  0  0  0  2  0  0  0  0  0  0
  -28.7470  -11.7540   18.2950 C   0  0  0  0  0  2  0  0  0  0  0  0
  -28.4630  -12.8820   19.3230 C   0  0  0  0  0  3  0  0  0  0  0  0
  -29.5800  -12.9560   20.3910 C   0  0  0  0  0  2  0  0  0  0  0  0
  -30.8720  -13.0850   19.6980 N   0  0  0  0  0  0  0  0  0  0  0  0
  -32.6280  -14.2770   18.8710 O   0  0  0  0  0  0  0  0  0  0  0  0
  -30.9460  -15.3700   19.8550 N   0  0  0  0  0  0  0  0  0  0  0  0
  -30.0570  -15.2940   20.3230 H   0  0  0  0  0  0  0  0  0  0  0  0
  -26.2080  -13.6990   20.2600 C   0  0  0  0  0  0  0  0  0  0  0  0
  -25.1150  -13.0200   20.7300 C   0  0  0  0  0  0  0  0  0  0  0  0
  -25.4450  -11.6320   20.6500 C   0  0  0  0  0  0  0  0  0  0  0  0
  -27.1430  -12.7280   19.9300 N   0  0  0  0  0  0  0  0  0  0  0  0
  -26.6900  -11.4800   20.2170 N   0  0  0  0  0  0  0  0  0  0  0  0
  -24.6280  -10.4400   20.9030 C   0  0  0  0  0  0  0  0  0  0  0  0
  -24.9780   -9.4980   21.8960 C   0  0  0  0  0  3  0  0  0  0  0  0
  -24.1630   -8.3710   22.1320 C   0  0  0  0  0  3  0  0  0  0  0  0
  -22.9830   -8.1770   21.3760 C   0  0  0  0  0  0  0  0  0  0  0  0
  -22.6520   -9.1040   20.3710 C   0  0  0  0  0  3  0  0  0  0  0  0
  -23.4660  -10.2230   20.1320 C   0  0  0  0  0  3  0  0  0  0  0  0
  -22.1440   -7.0960   21.5190 O   0  0  0  0  0  0  0  0  0  0  0  0
  -21.9380   -6.5020   22.7380 C   0  0  0  0  0  0  0  0  0  0  0  0
  -21.4140   -7.2180   23.8370 C   0  0  0  0  0  3  0  0  0  0  0  0
  -21.1520   -6.5520   25.0520 C   0  0  0  0  0  3  0  0  0  0  0  0
  -21.4040   -5.1720   25.1670 C   0  0  0  0  0  0  0  0  0  0  0  0
  -21.9210   -4.4570   24.0720 C   0  0  0  0  0  3  0  0  0  0  0  0
  -22.1840   -5.1190   22.8610 C   0  0  0  0  0  0  0  0  0  0  0  0
  -22.6610   -4.4210   21.8010 F   0  0  0  0  0  0  0  0  0  0  0  0
  -21.1480   -4.5280   26.3300 F   0  0  0  0  0  0  0  0  0  0  0  0
  -23.7990  -13.6180   21.1350 C   0  0  0  0  0  0  0  0  0  0  0  0
  -23.1070  -12.9970   22.0840 N   0  0  0  0  0  0  0  0  0  0  0  0
  -23.3980  -14.6730   20.6440 O   0  0  0  0  0  0  0  0  0  0  0  0
  -23.4350  -12.1380   22.4990 H   0  0  0  0  0  0  0  0  0  0  0  0
  -22.2300  -13.3870   22.3950 H   0  0  0  0  0  0  0  0  0  0  0  0
  -26.4840  -15.0500   20.0660 N   0  0  0  0  0  0  0  0  0  0  0  0
  -25.7920  -15.7740   20.2240 H   0  0  0  0  0  0  0  0  0  0  0  0
  -27.3210  -15.3990   19.6180 H   0  0  0  0  0  0  0  0  0  0  0  0
  -28.3030  -23.3260   18.7840 C   0  0  0  0  0  2  0  0  0  0  0  0
  -28.9600  -24.1510   21.1720 C   0  0  0  0  0  1  0  0  0  0  0  0
  -28.3280  -24.5050   19.8040 C   0  0  0  0  0  3  0  0  0  0  0  0
  -28.6160  -26.0810   17.7160 C   0  0  0  0  0  1  0  0  0  0  0  0
  -30.4660  -25.8440   19.3580 C   0  0  0  0  0  1  0  0  0  0  0  0
  -28.9290  -25.8280   19.2110 C   0  0  2  0  0  0  0  0  0  0  0  0
  -28.5880  -26.9730   20.0050 O   0  0  0  0  0  0  0  0  0  0  0  0
  -24.7860  -31.8620   23.4270 C   0  0  0  0  0  0  0  0  0  0  0  0
  -27.3610  -27.6040   20.0410 C   0  0  0  0  0  0  0  0  0  0  0  0
  -23.5420  -30.5590   21.7330 C   0  0  0  0  0  3  0  0  0  0  0  0
  -24.9570  -29.0930   20.2010 C   0  0  0  0  0  0  0  0  0  0  0  0
  -26.0610  -30.9180   21.5090 C   0  0  0  0  0  2  0  0  0  0  0  0
  -26.1250  -29.5830   20.7980 C   0  0  0  0  0  0  0  0  0  0  0  0
  -27.3190  -28.8390   20.7250 C   0  0  0  0  0  3  0  0  0  0  0  0
  -26.1680  -27.1220   19.4480 C   0  0  0  0  0  3  0  0  0  0  0  0
  -24.9730  -27.8590   19.5320 C   0  0  0  0  0  3  0  0  0  0  0  0
  -23.7200  -29.9540   20.3140 C   0  0  0  0  0  2  0  0  0  0  0  0
  -24.8160  -31.1260   22.2810 N   0  0  0  0  0  0  0  0  0  0  0  0
  -23.7170  -32.1120   23.9990 O   0  0  0  0  0  0  0  0  0  0  0  0
  -22.9050  -29.4890   22.6470 C   0  0  0  0  0  0  0  0  0  0  0  0
  -21.5970  -29.2490   22.4590 N   0  0  0  0  0  0  0  0  0  0  0  0
  -23.5830  -28.8810   23.4800 O   0  0  0  0  0  0  0  0  0  0  0  0
  -21.1120  -29.7940   21.7620 H   0  0  0  0  0  0  0  0  0  0  0  0
  -18.2910  -27.8150   22.7060 C   0  0  0  0  0  0  0  0  0  0  0  0
  -20.7950  -28.2600   23.1770 C   0  0  0  0  0  3  0  0  0  0  0  0
  -21.0450  -26.8370   22.6290 C   0  0  0  0  0  2  0  0  0  0  0  0
  -20.0550  -26.4250   21.5350 C   0  0  0  0  0  2  0  0  0  0  0  0
  -18.6190  -26.4760   22.0640 C   0  0  0  0  0  2  0  0  0  0  0  0
  -19.3140  -28.6580   23.2120 C   0  0  0  0  0  0  0  0  0  0  0  0
  -18.9590  -29.9080   23.7650 C   0  0  0  0  0  3  0  0  0  0  0  0
  -17.6130  -30.3160   23.8190 C   0  0  0  0  0  3  0  0  0  0  0  0
  -16.6030  -29.4690   23.3290 C   0  0  0  0  0  3  0  0  0  0  0  0
  -16.9420  -28.2210   22.7780 C   0  0  0  0  0  3  0  0  0  0  0  0
  -26.0880  -32.4490   24.0580 C   0  0  0  0  0  3  0  0  0  0  0  0
  -25.8110  -33.8430   24.4310 N   0  0  0  0  0  0  0  0  0  0  0  0
  -26.1540  -34.9090   23.6950 C   0  0  0  0  0  0  0  0  0  0  0  0
  -26.8100  -34.8210   22.6540 O   0  0  0  0  0  0  0  0  0  0  0  0
  -25.2320  -33.9880   25.2450 H   0  0  0  0  0  0  0  0  0  0  0  0
  -24.4480  -36.7310   23.4120 C   0  0  0  0  0  1  0  0  0  0  0  0
  -25.6940  -36.2910   24.1950 C   0  0  0  0  0  3  0  0  0  0  0  0
  -27.8490  -37.1270   25.0230 C   0  0  0  0  0  1  0  0  0  0  0  0
  -26.7410  -37.3320   24.0930 N   0  0  0  0  0  0  0  0  0  0  0  0
  -26.3480  -38.2530   24.2640 H   0  0  0  0  0  0  0  0  0  0  0  0
  -26.5990  -31.6300   25.3070 C   0  0  1  0  0  0  0  0  0  0  0  0
  -25.5020  -31.3530   26.3610 C   0  0  0  0  0  1  0  0  0  0  0  0
  -27.1830  -30.2700   24.8600 C   0  0  0  0  0  1  0  0  0  0  0  0
  -27.7510  -32.3950   26.0020 C   0  0  0  0  0  1  0  0  0  0  0  0
  -30.9220  -21.8980   17.8780 C   0  0  0  0  0  2  0  0  0  0  0  0
  -31.6570  -21.6550   15.4330 C   0  0  0  0  0  1  0  0  0  0  0  0
  -30.4820  -21.6630   16.4190 C   0  0  0  0  0  2  0  0  0  0  0  0
  2  5  1  0
  3  2  2  0
  3  6  1  0
  4  1  1  0
  4  8  1  0
  5  1  2  0
  6  4  2  0
  8  7  1  0
  9  8  1  0
 10 19  1  0
 10  9  1  0
 11 17  1  0
 11 19  1  0
 12 17  1  0
 13 14  1  0
 13 12  1  0
 15 14  1  0
 15 24  1  0
 15 16  1  0
 17 16  1  0
 18 11  2  0
 19 20  1  0
 21 22  2  0
 22 41  1  0
 23 22  1  0
 23 26  1  0
 24 25  1  0
 24 21  1  0
 25 23  2  0
 26 27  1  0
 27 28  2  0
 29 32  1  0
 29 28  1  0
 30 29  2  0
 31 30  1  0
 31 26  2  0
 32 33  1  0
 33 38  2  0
 33 34  1  0
 34 35  2  0
 35 36  1  0
 36 40  1  0
 37 36  2  0
 38 37  1  0
 39 38  1  0
 41 42  1  0
 42 45  1  0
 42 44  1  0
 43 41  2  0
 46 47  1  0
 46 21  1  0
 48 46  1  0
 49  2  1  0
 49 51  1  0
 51 50  1  0
 54 52  1  6
 54 53  1  0
 54 51  1  0
 54 55  1  0
 55 57  1  0
 56 67  2  0
 57 62  1  0
 58 66  1  0
 58 68  1  0
 59 65  1  0
 59 61  1  0
 60 66  1  0
 61 60  1  0
 62 61  2  0
 63 64  1  0
 63 57  2  0
 64 59  2  0
 65 58  1  0
 66 56  1  0
 68 70  2  0
 69 68  1  0
 71 69  1  0
 72 81  2  0
 72 77  1  0
 73 69  1  0
 73 77  1  0
 74 73  1  0
 75 76  1  0
 75 74  1  0
 76 72  1  0
 77 78  2  0
 78 79  1  0
 80 79  2  0
 81 80  1  0
 82 56  1  0
 82 83  1  0
 82 92  1  0
 83 86  1  0
 84 88  1  0
 84 83  1  0
 85 84  2  0
 88 87  1  0
 90 88  1  0
 90 91  1  0
 90 89  1  0
 92 95  1  1
 92 93  1  0
 94 92  1  0
 96  3  1  0
 97 98  1  0
 98 96  1  0
M  ISO  4  11 100  19 100  54 101  55 101
M  END
>  <TORSDO>  (79) 
F 24

>  <SCORE>  (79) 
-11.194

>  <name>  (79) 
81

>  <ligand_id>  (79) 
81

>  <original_smiles>  (79) 
[H]c1nc(C([H])([H])C([H])(C([H])([H])[H])C(Oc2c([H])c([H])c3c(c2[H])C([H])([H])N(C(=O)C([H])(N([H])C(=O)C([H])(N([H])C([H])([H])[H])C([H])([H])[H])C(C([H])([H])[H])(C([H])([H])[H])C([H])([H])[H])C([H])(C(=O)N([H])C2([H])c4c([H])c([H])c([H])c([H])c4C([H])([H])C([H])([H])C2([H])[H])C3([H])[H])(C([H])([H])[H])C([H])([H])[H])c(C([H])([H])C([H])([H])C([H])([H])[H])nc1N(C([H])([H])[H])C([H])([H])C([H])([H])N([H])C(=O)N1C([H])([H])C([H])([H])C([H])([H])C([H])(n2nc(-c3c([H])c([H])c(Oc4c([H])c([H])c(F)c([H])c4F)c([H])c3[H])c(C(=O)N([H])[H])c2N([H])[H])C1([H])[H]

>  <smiles>  (79) 
[H]c1nc(C([H])([H])C([H])(C([H])([H])[H])C(Oc2c([H])c([H])c3c(c2[H])C([H])([H])N(C(=O)C([H])(N([H])C(=O)C([H])(N([H])C([H])([H])[H])C([H])([H])[H])C(C([H])([H])[H])(C([H])([H])[H])C([H])([H])[H])C([H])(C(=O)N([H])C2([H])c4c([H])c([H])c([H])c([H])c4C([H])([H])C([H])([H])C2([H])[H])C3([H])[H])(C([H])([H])[H])C([H])([H])[H])c(C([H])([H])C([H])([H])C([H])([H])[H])nc1N(C([H])([H])[H])C([H])([H])C([H])([H])N([H])C(=O)N1C([H])([H])C([H])([H])C([H])([H])C([H])(n2nc(-c3c([H])c([H])c(Oc4c([H])c([H])c(F)c([H])c4F)c([H])c3[H])c(C(=O)N([H])[H])c2N([H])[H])C1([H])[H]

$$$$
82:0:0
     RDKit          3D

 92100  0  0  1  0  0  0  0  0999 V2000
  -29.4280  -21.1610   20.4840 C   0  0  0  0  0  3  0  0  0  0  0  0
  -28.5030  -22.2320   20.4670 C   0  0  0  0  0  0  0  0  0  0  0  0
  -29.0730  -19.9710   19.8100 C   0  0  0  0  0  0  0  0  0  0  0  0
  -27.2920  -22.0230   19.7620 C   0  0  0  0  0  0  0  0  0  0  0  0
  -26.1650  -23.0400   19.7500 C   0  0  0  0  0  1  0  0  0  0  0  0
  -27.9110  -19.8610   19.1190 N   0  0  0  0  0  0  0  0  0  0  0  0
  -27.0360  -20.8700   19.0990 N   0  0  0  0  0  0  0  0  0  0  0  0
  -28.7720  -23.5170   21.2480 C   0  0  0  0  0  2  0  0  0  0  0  0
  -29.1210  -24.7420   20.3750 C   0  0  0  0  0  2  0  0  0  0  0  0
  -29.1770  -26.0430   21.2030 C   0  0  0  0  0  2  0  0  0  0  0  0
  -29.1290  -27.2140   20.3870 O   0  0  0  0  0  0  0  0  0  0  0  0
  -24.6970  -31.9350   23.3630 C   0  0  0  0  0  0  0  0  0  0  0  0
  -27.9100  -27.8460   20.3590 C   0  0  0  0  0  0  0  0  0  0  0  0
  -23.7360  -30.5270   21.5690 C   0  0  0  0  0  3  0  0  0  0  0  0
  -25.4140  -29.1550   20.2210 C   0  0  0  0  0  0  0  0  0  0  0  0
  -26.2320  -31.0740   21.6020 C   0  0  0  0  0  2  0  0  0  0  0  0
  -26.4730  -29.7400   20.9280 C   0  0  0  0  0  0  0  0  0  0  0  0
  -27.7260  -29.0900   21.0000 C   0  0  0  0  0  3  0  0  0  0  0  0
  -26.8400  -27.2680   19.6480 C   0  0  0  0  0  3  0  0  0  0  0  0
  -25.5910  -27.9150   19.5790 C   0  0  0  0  0  3  0  0  0  0  0  0
  -24.1100  -29.9190   20.1900 C   0  0  0  0  0  2  0  0  0  0  0  0
  -24.9010  -31.1930   22.2390 N   0  0  0  0  0  0  0  0  0  0  0  0
  -23.5590  -32.1080   23.8200 O   0  0  0  0  0  0  0  0  0  0  0  0
  -23.0840  -29.4230   22.4320 C   0  0  0  0  0  0  0  0  0  0  0  0
  -21.7770  -29.1950   22.2220 N   0  0  0  0  0  0  0  0  0  0  0  0
  -23.7520  -28.7750   23.2420 O   0  0  0  0  0  0  0  0  0  0  0  0
  -21.2980  -29.7770   21.5480 H   0  0  0  0  0  0  0  0  0  0  0  0
  -18.4150  -27.9170   22.5530 C   0  0  0  0  0  0  0  0  0  0  0  0
  -20.9630  -28.1780   22.8870 C   0  0  0  0  0  3  0  0  0  0  0  0
  -21.0950  -26.8090   22.1790 C   0  0  0  0  0  2  0  0  0  0  0  0
  -20.0110  -26.5700   21.1220 C   0  0  0  0  0  2  0  0  0  0  0  0
  -18.6190  -26.6390   21.7560 C   0  0  0  0  0  2  0  0  0  0  0  0
  -19.5160  -28.6480   23.0700 C   0  0  0  0  0  0  0  0  0  0  0  0
  -19.2740  -29.8470   23.7730 C   0  0  0  0  0  3  0  0  0  0  0  0
  -17.9610  -30.3180   23.9630 C   0  0  0  0  0  3  0  0  0  0  0  0
  -16.8730  -29.5820   23.4620 C   0  0  0  0  0  3  0  0  0  0  0  0
  -17.1000  -28.3830   22.7630 C   0  0  0  0  0  3  0  0  0  0  0  0
  -25.8800  -32.6230   24.1150 C   0  0  0  0  0  3  0  0  0  0  0  0
  -25.4920  -34.0190   24.3630 N   0  0  0  0  0  0  0  0  0  0  0  0
  -25.8780  -35.0590   23.6130 C   0  0  0  0  0  0  0  0  0  0  0  0
  -26.6680  -34.9500   22.6700 O   0  0  0  0  0  0  0  0  0  0  0  0
  -24.8050  -34.1740   25.0860 H   0  0  0  0  0  0  0  0  0  0  0  0
  -24.1450  -36.7760   23.0050 C   0  0  0  0  0  1  0  0  0  0  0  0
  -25.2980  -36.4420   23.9650 C   0  0  0  0  0  3  0  0  0  0  0  0
  -27.2990  -37.4240   24.9950 C   0  0  0  0  0  1  0  0  0  0  0  0
  -26.3020  -37.5270   23.9330 N   0  0  0  0  0  0  0  0  0  0  0  0
  -25.8530  -38.4360   24.0060 H   0  0  0  0  0  0  0  0  0  0  0  0
  -26.2640  -31.9000   25.4630 C   0  0  1  0  0  0  0  0  0  0  0  0
  -25.0560  -31.6220   26.3850 C   0  0  0  0  0  1  0  0  0  0  0  0
  -26.9640  -30.5510   25.1780 C   0  0  0  0  0  1  0  0  0  0  0  0
  -27.2750  -32.7650   26.2520 C   0  0  0  0  0  1  0  0  0  0  0  0
  -29.9410  -18.7150   19.8390 C   0  0  0  0  0  2  0  0  0  0  0  0
  -29.6710  -17.8420   21.0900 C   0  0  0  0  0  2  0  0  0  0  0  0
  -29.6610  -16.3120   20.8650 C   0  0  0  0  0  2  0  0  0  0  0  0
  -31.3400  -14.6640   19.8310 C   0  0  0  0  0  0  0  0  0  0  0  0
  -30.9620  -12.3770   18.9780 C   0  0  0  0  0  2  0  0  0  0  0  0
  -29.9900  -12.3920   17.7820 C   0  0  0  0  0  2  0  0  0  0  0  0
  -28.5270  -12.3180   18.2630 C   0  0  0  0  0  2  0  0  0  0  0  0
  -28.2260  -13.3370   19.3900 C   0  0  0  0  0  3  0  0  0  0  0  0
  -29.3090  -13.2580   20.4920 C   0  0  0  0  0  2  0  0  0  0  0  0
  -30.6160  -13.5050   19.8660 N   0  0  0  0  0  0  0  0  0  0  0  0
  -32.3980  -14.7510   19.2070 O   0  0  0  0  0  0  0  0  0  0  0  0
  -30.9760  -15.7360   20.5660 N   0  0  0  0  0  0  0  0  0  0  0  0
  -31.7260  -16.4080   20.6230 H   0  0  0  0  0  0  0  0  0  0  0  0
  -25.9250  -14.1120   20.2490 C   0  0  0  0  0  0  0  0  0  0  0  0
  -24.8220  -13.4130   20.6580 C   0  0  0  0  0  0  0  0  0  0  0  0
  -25.1730  -12.0310   20.5640 C   0  0  0  0  0  0  0  0  0  0  0  0
  -26.8830  -13.1590   19.9360 N   0  0  0  0  0  0  0  0  0  0  0  0
  -26.4370  -11.9020   20.1820 N   0  0  0  0  0  0  0  0  0  0  0  0
  -24.3630  -10.8230   20.7620 C   0  0  0  0  0  0  0  0  0  0  0  0
  -24.7490   -9.8190   21.6770 C   0  0  0  0  0  3  0  0  0  0  0  0
  -23.9460   -8.6730   21.8620 C   0  0  0  0  0  3  0  0  0  0  0  0
  -22.7420   -8.5250   21.1330 C   0  0  0  0  0  0  0  0  0  0  0  0
  -22.3750   -9.5170   20.2060 C   0  0  0  0  0  3  0  0  0  0  0  0
  -23.1780  -10.6540   20.0190 C   0  0  0  0  0  3  0  0  0  0  0  0
  -21.9130   -7.4330   21.2260 O   0  0  0  0  0  0  0  0  0  0  0  0
  -21.7990   -6.7140   22.3900 C   0  0  0  0  0  0  0  0  0  0  0  0
  -21.3800   -7.3140   23.5980 C   0  0  0  0  0  3  0  0  0  0  0  0
  -21.2090   -6.5240   24.7520 C   0  0  0  0  0  3  0  0  0  0  0  0
  -21.4460   -5.1380   24.7000 C   0  0  0  0  0  0  0  0  0  0  0  0
  -21.8580   -4.5380   23.4970 C   0  0  0  0  0  3  0  0  0  0  0  0
  -22.0310   -5.3250   22.3450 C   0  0  0  0  0  0  0  0  0  0  0  0
  -22.4070   -4.7390   21.1820 F   0  0  0  0  0  0  0  0  0  0  0  0
  -21.2740   -4.3780   25.8080 F   0  0  0  0  0  0  0  0  0  0  0  0
  -23.4830  -13.9860   21.0220 C   0  0  0  0  0  0  0  0  0  0  0  0
  -22.7570  -13.3270   21.9180 N   0  0  0  0  0  0  0  0  0  0  0  0
  -23.0940  -15.0520   20.5480 O   0  0  0  0  0  0  0  0  0  0  0  0
  -23.0860  -12.4620   22.3210 H   0  0  0  0  0  0  0  0  0  0  0  0
  -21.8600  -13.6920   22.2040 H   0  0  0  0  0  0  0  0  0  0  0  0
  -26.1880  -15.4700   20.0990 N   0  0  0  0  0  0  0  0  0  0  0  0
  -25.4880  -16.1810   20.2780 H   0  0  0  0  0  0  0  0  0  0  0  0
  -27.0490  -15.8510   19.7280 H   0  0  0  0  0  0  0  0  0  0  0  0
  2  1  1  0
  2  8  1  0
  3 52  1  0
  3  1  2  0
  4  2  2  0
  5  4  1  0
  6  3  1  0
  7  6  2  0
  7  4  1  0
  9 10  1  0
  9  8  1  0
 11 10  1  0
 12 23  2  0
 13 11  1  0
 13 18  1  0
 14 22  1  0
 14 24  1  0
 15 17  1  0
 16 22  1  0
 17 18  2  0
 17 16  1  0
 19 13  2  0
 20 19  1  0
 20 15  2  0
 21 15  1  0
 21 14  1  0
 22 12  1  0
 24 26  2  0
 25 24  1  0
 27 25  1  0
 28 37  2  0
 28 33  1  0
 29 25  1  0
 29 33  1  0
 30 29  1  0
 31 32  1  0
 31 30  1  0
 32 28  1  0
 33 34  2  0
 34 35  1  0
 36 35  2  0
 37 36  1  0
 38 12  1  0
 38 39  1  0
 38 48  1  0
 39 42  1  0
 40 44  1  0
 40 39  1  0
 41 40  2  0
 44 43  1  0
 46 44  1  0
 46 47  1  0
 46 45  1  0
 48 51  1  1
 48 49  1  0
 50 48  1  0
 52 53  1  0
 54 53  1  0
 55 61  1  0
 55 63  1  0
 56 61  1  0
 57 58  1  0
 57 56  1  0
 59 58  1  0
 59 68  1  0
 59 60  1  0
 61 60  1  0
 62 55  2  0
 63 64  1  0
 63 54  1  0
 65 66  2  0
 66 85  1  0
 67 66  1  0
 67 70  1  0
 68 69  1  0
 68 65  1  0
 69 67  2  0
 70 71  1  0
 71 72  2  0
 73 76  1  0
 73 72  1  0
 74 73  2  0
 75 74  1  0
 75 70  2  0
 76 77  1  0
 77 78  1  0
 78 79  2  0
 80 79  1  0
 80 84  1  0
 81 80  2  0
 82 77  2  0
 82 81  1  0
 83 82  1  0
 85 86  1  0
 86 89  1  0
 86 88  1  0
 87 85  2  0
 90 65  1  0
 90 91  1  0
 92 90  1  0
M  ISO  4  10 101  11 101  55 100  63 100
M  END
>  <TORSDO>  (80) 
F 22

>  <SCORE>  (80) 
-12.283

>  <name>  (80) 
82

>  <ligand_id>  (80) 
82

>  <original_smiles>  (80) 
[H]c1c([H])c([H])c2c(c1[H])C([H])([H])C([H])([H])C([H])([H])C2([H])N([H])C(=O)C1([H])N(C(=O)C([H])(N([H])C(=O)C([H])(N([H])C([H])([H])[H])C([H])([H])[H])C(C([H])([H])[H])(C([H])([H])[H])C([H])([H])[H])C([H])([H])c2c([H])c(OC([H])([H])C([H])([H])C([H])([H])c3c(C([H])([H])[H])nnc(C([H])([H])C([H])([H])C([H])([H])N([H])C(=O)N4C([H])([H])C([H])([H])C([H])([H])C([H])(n5nc(-c6c([H])c([H])c(Oc7c([H])c([H])c(F)c([H])c7F)c([H])c6[H])c(C(=O)N([H])[H])c5N([H])[H])C4([H])[H])c3[H])c([H])c([H])c2C1([H])[H]

>  <smiles>  (80) 
[H]c1c([H])c([H])c2c(c1[H])C([H])([H])C([H])([H])C([H])([H])C2([H])N([H])C(=O)C1([H])N(C(=O)C([H])(N([H])C(=O)C([H])(N([H])C([H])([H])[H])C([H])([H])[H])C(C([H])([H])[H])(C([H])([H])[H])C([H])([H])[H])C([H])([H])c2c([H])c(OC([H])([H])C([H])([H])C([H])([H])c3c(C([H])([H])[H])nnc(C([H])([H])C([H])([H])C([H])([H])N([H])C(=O)N4C([H])([H])C([H])([H])C([H])([H])C([H])(n5nc(-c6c([H])c([H])c(Oc7c([H])c([H])c(F)c([H])c7F)c([H])c6[H])c(C(=O)N([H])[H])c5N([H])[H])C4([H])[H])c3[H])c([H])c([H])c2C1([H])[H]

$$$$
83:0:0
     RDKit          3D

 90 98  0  0  1  0  0  0  0  0999 V2000
  -29.1760  -20.7060   17.3820 C   0  0  0  0  0  3  0  0  0  0  0  0
  -29.0910  -21.7390   18.2560 C   0  0  0  0  0  3  0  0  0  0  0  0
  -29.2230  -19.4970   18.1180 C   0  0  0  0  0  0  0  0  0  0  0  0
  -29.2630  -19.7990   19.4650 C   0  0  0  0  0  0  0  0  0  0  0  0
  -29.1880  -18.1370   17.4610 C   0  0  0  0  0  1  0  0  0  0  0  0
  -29.1100  -21.2530   19.5520 N   0  0  0  0  0  0  0  0  0  0  0  0
  -29.3150  -18.6730   20.5690 C   0  0  0  0  0  2  0  0  0  0  0  0
  -30.3230  -17.3970   20.3960 C   0  0  0  0  0  2  0  0  0  0  0  0
  -30.6280  -14.8010   20.3780 C   0  0  0  0  0  0  0  0  0  0  0  0
  -30.4190  -12.5430   19.3350 C   0  0  0  0  0  2  0  0  0  0  0  0
  -29.4900  -12.6400   18.1070 C   0  0  0  0  0  2  0  0  0  0  0  0
  -28.0170  -12.4670   18.5250 C   0  0  0  0  0  2  0  0  0  0  0  0
  -27.6400  -13.3360   19.7560 C   0  0  0  0  0  3  0  0  0  0  0  0
  -28.6920  -13.2280   20.8810 C   0  0  0  0  0  2  0  0  0  0  0  0
  -29.9910  -13.5840   20.2980 N   0  0  0  0  0  0  0  0  0  0  0  0
  -31.8130  -14.8950   20.0480 O   0  0  0  0  0  0  0  0  0  0  0  0
  -29.8770  -15.9460   20.6040 N   0  0  0  0  0  0  0  0  0  0  0  0
  -28.9050  -15.7980   20.8330 H   0  0  0  0  0  0  0  0  0  0  0  0
  -25.2410  -13.9130   20.4550 C   0  0  0  0  0  0  0  0  0  0  0  0
  -24.1780  -13.1330   20.8220 C   0  0  0  0  0  0  0  0  0  0  0  0
  -24.6530  -11.7860   20.8090 C   0  0  0  0  0  0  0  0  0  0  0  0
  -26.2940  -13.0400   20.2360 N   0  0  0  0  0  0  0  0  0  0  0  0
  -25.9460  -11.7570   20.5120 N   0  0  0  0  0  0  0  0  0  0  0  0
  -23.9340  -10.5200   21.0030 C   0  0  0  0  0  0  0  0  0  0  0  0
  -24.3610   -9.5650   21.9520 C   0  0  0  0  0  3  0  0  0  0  0  0
  -23.6420   -8.3640   22.1340 C   0  0  0  0  0  3  0  0  0  0  0  0
  -22.4830   -8.1080   21.3660 C   0  0  0  0  0  0  0  0  0  0  0  0
  -22.0740   -9.0500   20.4050 C   0  0  0  0  0  3  0  0  0  0  0  0
  -22.7930  -10.2430   20.2220 C   0  0  0  0  0  3  0  0  0  0  0  0
  -21.7360   -6.9590   21.4570 O   0  0  0  0  0  0  0  0  0  0  0  0
  -21.6750   -6.2290   22.6160 C   0  0  0  0  0  0  0  0  0  0  0  0
  -21.2160   -6.7920   23.8280 C   0  0  0  0  0  3  0  0  0  0  0  0
  -21.1030   -5.9880   24.9790 C   0  0  0  0  0  3  0  0  0  0  0  0
  -21.4390   -4.6220   24.9220 C   0  0  0  0  0  0  0  0  0  0  0  0
  -21.8920   -4.0590   23.7160 C   0  0  0  0  0  3  0  0  0  0  0  0
  -22.0070   -4.8600   22.5660 C   0  0  0  0  0  0  0  0  0  0  0  0
  -22.4220   -4.3070   21.4010 F   0  0  0  0  0  0  0  0  0  0  0  0
  -21.3240   -3.8480   26.0260 F   0  0  0  0  0  0  0  0  0  0  0  0
  -22.7740  -13.6020   21.0730 C   0  0  0  0  0  0  0  0  0  0  0  0
  -22.0420  -12.9060   21.9360 N   0  0  0  0  0  0  0  0  0  0  0  0
  -22.3350  -14.6200   20.5400 O   0  0  0  0  0  0  0  0  0  0  0  0
  -22.4100  -12.0830   22.3890 H   0  0  0  0  0  0  0  0  0  0  0  0
  -21.0990  -13.2020   22.1470 H   0  0  0  0  0  0  0  0  0  0  0  0
  -25.3960  -15.2840   20.2650 N   0  0  0  0  0  0  0  0  0  0  0  0
  -24.6190  -15.9290   20.3580 H   0  0  0  0  0  0  0  0  0  0  0  0
  -26.2310  -15.7220   19.9020 H   0  0  0  0  0  0  0  0  0  0  0  0
  -28.9010  -22.2450   20.6770 C   0  0  0  0  0  2  0  0  0  0  0  0
  -29.2050  -23.8400   20.4520 C   0  0  0  0  0  3  0  0  0  0  0  0
  -28.0620  -24.9370   20.1350 C   0  0  0  0  0  3  0  0  0  0  0  0
  -28.3230  -26.4210   20.2320 O   0  0  0  0  0  0  0  0  0  0  0  0
  -24.6330  -31.9060   23.2560 C   0  0  0  0  0  0  0  0  0  0  0  0
  -27.2260  -27.3170   20.1790 C   0  0  0  0  0  0  0  0  0  0  0  0
  -23.4270  -30.5160   21.6130 C   0  0  0  0  0  3  0  0  0  0  0  0
  -24.8730  -28.9710   20.1750 C   0  0  0  0  0  0  0  0  0  0  0  0
  -25.9710  -30.8220   21.4300 C   0  0  0  0  0  2  0  0  0  0  0  0
  -26.0480  -29.4440   20.7740 C   0  0  0  0  0  0  0  0  0  0  0  0
  -27.2270  -28.6300   20.7630 C   0  0  0  0  0  3  0  0  0  0  0  0
  -26.0240  -26.9140   19.5510 C   0  0  0  0  0  3  0  0  0  0  0  0
  -24.8670  -27.7150   19.5530 C   0  0  0  0  0  3  0  0  0  0  0  0
  -23.6410  -29.8530   20.2290 C   0  0  0  0  0  2  0  0  0  0  0  0
  -24.6970  -31.1000   22.1560 N   0  0  0  0  0  0  0  0  0  0  0  0
  -23.5510  -32.1820   23.7940 O   0  0  0  0  0  0  0  0  0  0  0  0
  -22.7650  -29.4960   22.5700 C   0  0  0  0  0  0  0  0  0  0  0  0
  -21.4410  -29.3050   22.4330 N   0  0  0  0  0  0  0  0  0  0  0  0
  -23.4420  -28.8770   23.3950 O   0  0  0  0  0  0  0  0  0  0  0  0
  -20.9530  -29.8570   21.7410 H   0  0  0  0  0  0  0  0  0  0  0  0
  -18.0750  -28.0610   22.8990 C   0  0  0  0  0  0  0  0  0  0  0  0
  -20.6250  -28.3620   23.2000 C   0  0  0  0  0  3  0  0  0  0  0  0
  -20.7560  -26.9270   22.6390 C   0  0  0  0  0  2  0  0  0  0  0  0
  -19.6730  -26.5790   21.6130 C   0  0  0  0  0  2  0  0  0  0  0  0
  -18.2800  -26.7090   22.2360 C   0  0  0  0  0  2  0  0  0  0  0  0
  -19.1750  -28.8440   23.3380 C   0  0  0  0  0  0  0  0  0  0  0  0
  -18.9290  -30.1060   23.9170 C   0  0  0  0  0  3  0  0  0  0  0  0
  -17.6150  -30.5890   24.0620 C   0  0  0  0  0  3  0  0  0  0  0  0
  -16.5280  -29.8040   23.6390 C   0  0  0  0  0  3  0  0  0  0  0  0
  -16.7590  -28.5420   23.0630 C   0  0  0  0  0  3  0  0  0  0  0  0
  -25.9170  -32.5380   23.8790 C   0  0  0  0  0  3  0  0  0  0  0  0
  -25.6120  -33.9390   24.2020 N   0  0  0  0  0  0  0  0  0  0  0  0
  -25.9470  -34.9870   23.4390 C   0  0  0  0  0  0  0  0  0  0  0  0
  -26.6150  -34.8770   22.4070 O   0  0  0  0  0  0  0  0  0  0  0  0
  -25.0180  -34.0990   25.0020 H   0  0  0  0  0  0  0  0  0  0  0  0
  -24.2270  -36.7880   23.0750 C   0  0  0  0  0  1  0  0  0  0  0  0
  -25.4660  -36.3800   23.8900 C   0  0  0  0  0  3  0  0  0  0  0  0
  -27.6010  -37.2610   24.7220 C   0  0  0  0  0  1  0  0  0  0  0  0
  -26.5030  -37.4280   23.7740 N   0  0  0  0  0  0  0  0  0  0  0  0
  -26.1010  -38.3510   23.9140 H   0  0  0  0  0  0  0  0  0  0  0  0
  -26.4250  -31.7730   25.1630 C   0  0  1  0  0  0  0  0  0  0  0  0
  -25.3260  -31.5470   26.2290 C   0  0  0  0  0  1  0  0  0  0  0  0
  -27.0030  -30.3890   24.7830 C   0  0  0  0  0  1  0  0  0  0  0  0
  -27.5770  -32.5650   25.8230 C   0  0  0  0  0  1  0  0  0  0  0  0
  1  3  1  0
  1  2  2  0
  2  6  1  0
  3  4  2  0
  4  6  1  0
  4  7  1  0
  5  3  1  0
  6 47  1  0
  8  7  1  0
  8 17  1  0
  9 17  1  0
 10 15  1  0
 11 12  1  0
 11 10  1  0
 13 12  1  0
 13 22  1  0
 13 14  1  0
 15  9  1  0
 15 14  1  0
 16  9  2  0
 17 18  1  0
 19 20  2  0
 20 39  1  0
 21 20  1  0
 21 24  1  0
 22 19  1  0
 22 23  1  0
 23 21  2  0
 24 25  1  0
 25 26  2  0
 27 30  1  0
 27 26  1  0
 28 27  2  0
 29 28  1  0
 29 24  2  0
 30 31  1  0
 31 32  1  0
 32 33  2  0
 34 33  1  0
 34 38  1  0
 35 34  2  0
 36 31  2  0
 36 35  1  0
 37 36  1  0
 39 40  1  0
 40 43  1  0
 40 42  1  0
 41 39  2  0
 44 45  1  0
 44 19  1  0
 46 44  1  0
 48 47  1  0
 49 50  1  0
 49 48  2  0
 51 62  2  0
 52 50  1  0
 52 57  1  0
 53 61  1  0
 53 63  1  0
 54 60  1  0
 54 56  1  0
 55 61  1  0
 56 55  1  0
 57 56  2  0
 58 59  1  0
 58 52  2  0
 59 54  2  0
 60 53  1  0
 61 51  1  0
 63 65  2  0
 64 63  1  0
 66 64  1  0
 67 76  2  0
 67 72  1  0
 68 64  1  0
 68 72  1  0
 69 68  1  0
 70 71  1  0
 70 69  1  0
 71 67  1  0
 72 73  2  0
 73 74  1  0
 75 74  2  0
 76 75  1  0
 77 51  1  0
 77 78  1  0
 77 87  1  0
 78 81  1  0
 79 83  1  0
 79 78  1  0
 80 79  2  0
 83 82  1  0
 85 83  1  0
 85 86  1  0
 85 84  1  0
 87 90  1  1
 87 88  1  0
 89 87  1  0
M  ISO  4   9 100  17 100  49 101  50 101
M  END
>  <TORSDO>  (81) 
F 21

>  <SCORE>  (81) 
-13.359

>  <name>  (81) 
83

>  <ligand_id>  (81) 
83

>  <original_smiles>  (81) 
[H]c1c([H])c([H])c2c(c1[H])C([H])([H])C([H])([H])C([H])([H])C2([H])N([H])C(=O)C1([H])N(C(=O)C([H])(N([H])C(=O)C([H])(N([H])C([H])([H])[H])C([H])([H])[H])C(C([H])([H])[H])(C([H])([H])[H])C([H])([H])[H])C([H])([H])c2c([H])c(OC([H])([H])C([H])([H])C([H])([H])n3c([H])c([H])c(C([H])([H])[H])c3C([H])([H])C([H])([H])N([H])C(=O)N3C([H])([H])C([H])([H])C([H])([H])C([H])(n4nc(-c5c([H])c([H])c(Oc6c([H])c([H])c(F)c([H])c6F)c([H])c5[H])c(C(=O)N([H])[H])c4N([H])[H])C3([H])[H])c([H])c([H])c2C1([H])[H]

>  <smiles>  (81) 
[H]c1c([H])c([H])c2c(c1[H])C([H])([H])C([H])([H])C([H])([H])C2([H])N([H])C(=O)C1([H])N(C(=O)C([H])(N([H])C(=O)C([H])(N([H])C([H])([H])[H])C([H])([H])[H])C(C([H])([H])[H])(C([H])([H])[H])C([H])([H])[H])C([H])([H])c2c([H])c(OC([H])([H])C([H])([H])C([H])([H])n3c([H])c([H])c(C([H])([H])[H])c3C([H])([H])C([H])([H])N([H])C(=O)N3C([H])([H])C([H])([H])C([H])([H])C([H])(n4nc(-c5c([H])c([H])c(Oc6c([H])c([H])c(F)c([H])c6F)c([H])c5[H])c(C(=O)N([H])[H])c4N([H])[H])C3([H])[H])c([H])c([H])c2C1([H])[H]

$$$$
84:0:0
     RDKit          3D

 91 99  0  0  1  0  0  0  0  0999 V2000
  -30.8840  -19.6210   20.3130 C   0  0  0  0  0  3  0  0  0  0  0  0
  -30.0410  -18.5340   19.9400 C   0  0  0  0  0  0  0  0  0  0  0  0
  -28.2740  -20.0730   19.8810 C   0  0  0  0  0  0  0  0  0  0  0  0
  -29.1280  -21.1670   20.2520 C   0  0  0  0  0  0  0  0  0  0  0  0
  -26.7860  -20.2640   19.6600 C   0  0  0  0  0  1  0  0  0  0  0  0
  -30.4430  -20.9050   20.4790 N   0  0  0  0  0  0  0  0  0  0  0  0
  -28.7210  -18.7830   19.7230 N   0  0  0  0  0  0  0  0  0  0  0  0
  -30.4690  -16.9950   17.9960 C   0  0  0  0  0  1  0  0  0  0  0  0
  -30.6650  -17.1560   19.5160 C   0  0  0  0  0  3  0  0  0  0  0  0
  -31.0060  -14.6960   20.0020 C   0  0  0  0  0  0  0  0  0  0  0  0
  -30.6480  -12.4840   18.9570 C   0  0  0  0  0  2  0  0  0  0  0  0
  -29.6680  -12.6620   17.7780 C   0  0  0  0  0  2  0  0  0  0  0  0
  -28.2130  -12.5340   18.2660 C   0  0  0  0  0  2  0  0  0  0  0  0
  -27.9270  -13.3910   19.5290 C   0  0  0  0  0  3  0  0  0  0  0  0
  -29.0280  -13.2250   20.6010 C   0  0  0  0  0  2  0  0  0  0  0  0
  -30.3170  -13.5150   19.9620 N   0  0  0  0  0  0  0  0  0  0  0  0
  -32.1750  -14.7520   19.6120 O   0  0  0  0  0  0  0  0  0  0  0  0
  -30.2930  -15.8550   20.1790 N   0  0  0  0  0  0  0  0  0  0  0  0
  -29.3470  -15.7770   20.5210 H   0  0  0  0  0  0  0  0  0  0  0  0
  -25.5850  -14.0210   20.3720 C   0  0  0  0  0  0  0  0  0  0  0  0
  -24.5200  -13.2620   20.7710 C   0  0  0  0  0  0  0  0  0  0  0  0
  -24.9490  -11.9010   20.6890 C   0  0  0  0  0  0  0  0  0  0  0  0
  -26.5970  -13.1240   20.0700 N   0  0  0  0  0  0  0  0  0  0  0  0
  -26.2240  -11.8440   20.3220 N   0  0  0  0  0  0  0  0  0  0  0  0
  -24.2040  -10.6510   20.8820 C   0  0  0  0  0  0  0  0  0  0  0  0
  -24.6260   -9.6740   21.8110 C   0  0  0  0  0  3  0  0  0  0  0  0
  -23.8800   -8.4890   21.9920 C   0  0  0  0  0  3  0  0  0  0  0  0
  -22.6980   -8.2730   21.2460 C   0  0  0  0  0  0  0  0  0  0  0  0
  -22.2950   -9.2380   20.3050 C   0  0  0  0  0  3  0  0  0  0  0  0
  -23.0410  -10.4140   20.1220 C   0  0  0  0  0  3  0  0  0  0  0  0
  -21.9240   -7.1410   21.3360 O   0  0  0  0  0  0  0  0  0  0  0  0
  -21.8360   -6.4210   22.5010 C   0  0  0  0  0  0  0  0  0  0  0  0
  -21.3690   -7.0000   23.7020 C   0  0  0  0  0  3  0  0  0  0  0  0
  -21.2270   -6.2060   24.8570 C   0  0  0  0  0  3  0  0  0  0  0  0
  -21.5430   -4.8350   24.8140 C   0  0  0  0  0  0  0  0  0  0  0  0
  -22.0040   -4.2560   23.6180 C   0  0  0  0  0  3  0  0  0  0  0  0
  -22.1470   -5.0470   22.4640 C   0  0  0  0  0  0  0  0  0  0  0  0
  -22.5710   -4.4790   21.3100 F   0  0  0  0  0  0  0  0  0  0  0  0
  -21.4000   -4.0700   25.9220 F   0  0  0  0  0  0  0  0  0  0  0  0
  -23.1470  -13.7620   21.1160 C   0  0  0  0  0  0  0  0  0  0  0  0
  -22.4510  -13.0730   22.0130 N   0  0  0  0  0  0  0  0  0  0  0  0
  -22.7030  -14.7980   20.6250 O   0  0  0  0  0  0  0  0  0  0  0  0
  -22.8230  -12.2330   22.4310 H   0  0  0  0  0  0  0  0  0  0  0  0
  -21.5320  -13.3920   22.2870 H   0  0  0  0  0  0  0  0  0  0  0  0
  -25.7710  -15.3930   20.2190 N   0  0  0  0  0  0  0  0  0  0  0  0
  -25.0230  -16.0580   20.3780 H   0  0  0  0  0  0  0  0  0  0  0  0
  -26.6110  -15.8270   19.8580 H   0  0  0  0  0  0  0  0  0  0  0  0
  -28.6030  -22.6000   20.6390 C   0  0  0  0  0  2  0  0  0  0  0  0
  -28.8850  -23.8900   19.7490 C   0  0  0  0  0  2  0  0  0  0  0  0
  -28.3220  -25.2490   20.3610 C   0  0  0  0  0  2  0  0  0  0  0  0
  -28.4220  -26.5290   19.6310 O   0  0  0  0  0  0  0  0  0  0  0  0
  -24.6390  -31.6570   23.0000 C   0  0  0  0  0  0  0  0  0  0  0  0
  -27.2940  -27.3510   19.6720 C   0  0  0  0  0  0  0  0  0  0  0  0
  -23.4360  -30.3220   21.3040 C   0  0  0  0  0  3  0  0  0  0  0  0
  -24.8960  -28.8840   19.7750 C   0  0  0  0  0  0  0  0  0  0  0  0
  -25.9610  -30.7170   21.0950 C   0  0  0  0  0  2  0  0  0  0  0  0
  -26.0610  -29.3770   20.3760 C   0  0  0  0  0  0  0  0  0  0  0  0
  -27.2690  -28.6250   20.3130 C   0  0  0  0  0  3  0  0  0  0  0  0
  -26.1120  -26.9010   19.0510 C   0  0  0  0  0  3  0  0  0  0  0  0
  -24.9220  -27.6510   19.1020 C   0  0  0  0  0  3  0  0  0  0  0  0
  -23.6400  -29.7240   19.8870 C   0  0  0  0  0  2  0  0  0  0  0  0
  -24.6970  -30.9120   21.8580 N   0  0  0  0  0  0  0  0  0  0  0  0
  -23.5590  -31.8820   23.5670 O   0  0  0  0  0  0  0  0  0  0  0  0
  -22.8140  -29.2400   22.2200 C   0  0  0  0  0  0  0  0  0  0  0  0
  -21.4860  -29.0560   22.1190 N   0  0  0  0  0  0  0  0  0  0  0  0
  -23.5230  -28.5730   22.9770 O   0  0  0  0  0  0  0  0  0  0  0  0
  -20.9730  -29.6500   21.4830 H   0  0  0  0  0  0  0  0  0  0  0  0
  -18.1280  -27.8350   22.6820 C   0  0  0  0  0  0  0  0  0  0  0  0
  -20.6980  -28.0630   22.8520 C   0  0  0  0  0  3  0  0  0  0  0  0
  -20.7640  -26.6800   22.1650 C   0  0  0  0  0  2  0  0  0  0  0  0
  -19.6150  -26.4410   21.1810 C   0  0  0  0  0  2  0  0  0  0  0  0
  -18.2650  -26.5400   21.8970 C   0  0  0  0  0  2  0  0  0  0  0  0
  -19.2710  -28.5580   23.1160 C   0  0  0  0  0  0  0  0  0  0  0  0
  -19.0890  -29.7730   23.8120 C   0  0  0  0  0  3  0  0  0  0  0  0
  -17.7970  -30.2660   24.0750 C   0  0  0  0  0  3  0  0  0  0  0  0
  -16.6700  -29.5370   23.6570 C   0  0  0  0  0  3  0  0  0  0  0  0
  -16.8360  -28.3230   22.9660 C   0  0  0  0  0  3  0  0  0  0  0  0
  -25.9200  -32.2830   23.6340 C   0  0  0  0  0  3  0  0  0  0  0  0
  -26.4620  -31.4670   24.8700 C   0  0  1  0  0  0  0  0  0  0  0  0
  -25.3860  -31.1760   25.9440 C   0  0  0  0  0  1  0  0  0  0  0  0
  -27.0510  -30.1120   24.4170 C   0  0  0  0  0  1  0  0  0  0  0  0
  -27.6140  -32.2450   25.5470 C   0  0  0  0  0  1  0  0  0  0  0  0
  -25.5930  -33.6610   24.0250 N   0  0  0  0  0  0  0  0  0  0  0  0
  -25.9100  -34.7510   23.3140 C   0  0  0  0  0  0  0  0  0  0  0  0
  -26.5770  -34.7010   22.2780 O   0  0  0  0  0  0  0  0  0  0  0  0
  -24.9970  -33.7710   24.8340 H   0  0  0  0  0  0  0  0  0  0  0  0
  -24.1540  -36.5330   23.0490 C   0  0  0  0  0  1  0  0  0  0  0  0
  -25.4060  -36.1110   23.8340 C   0  0  0  0  0  3  0  0  0  0  0  0
  -27.5300  -36.9940   24.6940 C   0  0  0  0  0  1  0  0  0  0  0  0
  -26.4230  -37.1840   23.7610 N   0  0  0  0  0  0  0  0  0  0  0  0
  -26.0030  -38.0900   23.9490 H   0  0  0  0  0  0  0  0  0  0  0  0
  1  6  1  0
  2  1  2  0
  3  4  1  0
  4  6  2  0
  4 48  1  0
  5  3  1  0
  7  3  2  0
  7  2  1  0
  9  8  1  0
  9  2  1  0
  9 18  1  0
 10 18  1  0
 11 16  1  0
 12 13  1  0
 12 11  1  0
 14 13  1  0
 14 23  1  0
 14 15  1  0
 16 10  1  0
 16 15  1  0
 17 10  2  0
 18 19  1  0
 20 21  2  0
 21 40  1  0
 22 21  1  0
 22 25  1  0
 23 24  1  0
 23 20  1  0
 24 22  2  0
 25 26  1  0
 26 27  2  0
 28 31  1  0
 28 27  1  0
 29 28  2  0
 30 29  1  0
 30 25  2  0
 31 32  1  0
 32 33  1  0
 33 34  2  0
 35 34  1  0
 35 39  1  0
 36 35  2  0
 37 32  2  0
 37 36  1  0
 38 37  1  0
 40 41  1  0
 41 44  1  0
 41 43  1  0
 42 40  2  0
 45 20  1  0
 45 46  1  0
 47 45  1  0
 49 50  1  0
 49 48  1  0
 51 53  1  0
 51 50  1  0
 52 63  2  0
 53 58  1  0
 54 62  1  0
 54 64  1  0
 55 61  1  0
 55 57  1  0
 56 62  1  0
 57 56  1  0
 58 57  2  0
 59 60  1  0
 59 53  2  0
 60 55  2  0
 61 54  1  0
 62 52  1  0
 64 66  2  0
 65 64  1  0
 67 65  1  0
 68 77  2  0
 68 73  1  0
 69 65  1  0
 69 73  1  0
 70 69  1  0
 71 72  1  0
 71 70  1  0
 72 68  1  0
 73 74  2  0
 74 75  1  0
 76 75  2  0
 77 76  1  0
 78 52  1  0
 78 83  1  0
 78 79  1  0
 79 82  1  1
 79 80  1  0
 81 79  1  0
 83 86  1  0
 84 88  1  0
 84 83  1  0
 85 84  2  0
 88 87  1  0
 90 88  1  0
 90 91  1  0
 90 89  1  0
M  ISO  4  10 100  18 100  50 101  51 101
M  END
>  <TORSDO>  (82) 
F 20

>  <SCORE>  (82) 
-12.448

>  <name>  (82) 
84

>  <ligand_id>  (82) 
84

>  <original_smiles>  (82) 
[H]c1nc(C([H])([H])C([H])([H])C([H])([H])Oc2c([H])c([H])c3c(c2[H])C([H])([H])N(C(=O)C([H])(N([H])C(=O)C([H])(N([H])C([H])([H])[H])C([H])([H])[H])C(C([H])([H])[H])(C([H])([H])[H])C([H])([H])[H])C([H])(C(=O)N([H])C2([H])c4c([H])c([H])c([H])c([H])c4C([H])([H])C([H])([H])C2([H])[H])C3([H])[H])c(C([H])([H])[H])nc1C([H])(N([H])C(=O)N1C([H])([H])C([H])([H])C([H])([H])C([H])(n2nc(-c3c([H])c([H])c(Oc4c([H])c([H])c(F)c([H])c4F)c([H])c3[H])c(C(=O)N([H])[H])c2N([H])[H])C1([H])[H])C([H])([H])[H]

>  <smiles>  (82) 
[H]c1nc(C([H])([H])C([H])([H])C([H])([H])Oc2c([H])c([H])c3c(c2[H])C([H])([H])N(C(=O)C([H])(N([H])C(=O)C([H])(N([H])C([H])([H])[H])C([H])([H])[H])C(C([H])([H])[H])(C([H])([H])[H])C([H])([H])[H])C([H])(C(=O)N([H])C2([H])c4c([H])c([H])c([H])c([H])c4C([H])([H])C([H])([H])C2([H])[H])C3([H])[H])c(C([H])([H])[H])nc1C([H])(N([H])C(=O)N1C([H])([H])C([H])([H])C([H])([H])C([H])(n2nc(-c3c([H])c([H])c(Oc4c([H])c([H])c(F)c([H])c4F)c([H])c3[H])c(C(=O)N([H])[H])c2N([H])[H])C1([H])[H])C([H])([H])[H]

$$$$
85:0:0
     RDKit          3D

 93101  0  0  1  0  0  0  0  0999 V2000
  -30.3530  -19.0250   21.3560 C   0  0  0  0  0  3  0  0  0  0  0  0
  -30.8050  -17.7810   20.9780 C   0  0  0  0  0  0  0  0  0  0  0  0
  -30.9290  -19.1650   19.2200 C   0  0  0  0  0  3  0  0  0  0  0  0
  -31.2100  -19.6690   17.8390 C   0  0  0  0  0  1  0  0  0  0  0  0
  -30.4610  -19.8610   20.2690 N   0  0  0  0  0  0  0  0  0  0  0  0
  -31.1310  -17.9110   19.6510 N   0  0  0  0  0  0  0  0  0  0  0  0
  -31.5100  -17.1630   19.0820 H   0  0  0  0  0  0  0  0  0  0  0  0
  -30.6560  -16.6850   23.2390 C   0  0  0  0  0  1  0  0  0  0  0  0
  -31.0370  -16.5080   21.7610 C   0  0  0  0  0  3  0  0  0  0  0  0
  -30.8280  -14.4870   20.3040 C   0  0  0  0  0  0  0  0  0  0  0  0
  -30.4180  -12.4180   19.0240 C   0  0  0  0  0  2  0  0  0  0  0  0
  -29.4440  -12.6820   17.8590 C   0  0  0  0  0  2  0  0  0  0  0  0
  -27.9850  -12.5420   18.3310 C   0  0  0  0  0  2  0  0  0  0  0  0
  -27.6980  -13.3440   19.6270 C   0  0  0  0  0  3  0  0  0  0  0  0
  -28.7780  -13.0640   20.6970 C   0  0  0  0  0  2  0  0  0  0  0  0
  -30.0980  -13.3570   20.1090 N   0  0  0  0  0  0  0  0  0  0  0  0
  -31.8580  -14.7480   19.6770 O   0  0  0  0  0  0  0  0  0  0  0  0
  -30.3500  -15.3330   21.2240 N   0  0  0  0  0  0  0  0  0  0  0  0
  -29.4950  -15.0590   21.6800 H   0  0  0  0  0  0  0  0  0  0  0  0
  -25.3120  -13.9610   20.3790 C   0  0  0  0  0  0  0  0  0  0  0  0
  -24.2500  -13.1930   20.7740 C   0  0  0  0  0  0  0  0  0  0  0  0
  -24.7090  -11.8410   20.7400 C   0  0  0  0  0  0  0  0  0  0  0  0
  -26.3530  -13.0770   20.1340 N   0  0  0  0  0  0  0  0  0  0  0  0
  -25.9920  -11.7960   20.4070 N   0  0  0  0  0  0  0  0  0  0  0  0
  -23.9840  -10.5810   20.9540 C   0  0  0  0  0  0  0  0  0  0  0  0
  -24.4340   -9.6190   21.8850 C   0  0  0  0  0  3  0  0  0  0  0  0
  -23.7110   -8.4220   22.0850 C   0  0  0  0  0  3  0  0  0  0  0  0
  -22.5240   -8.1810   21.3540 C   0  0  0  0  0  0  0  0  0  0  0  0
  -22.0930   -9.1310   20.4120 C   0  0  0  0  0  3  0  0  0  0  0  0
  -22.8140  -10.3190   20.2100 C   0  0  0  0  0  3  0  0  0  0  0  0
  -21.7730   -7.0350   21.4640 O   0  0  0  0  0  0  0  0  0  0  0  0
  -21.7420   -6.3020   22.6230 C   0  0  0  0  0  0  0  0  0  0  0  0
  -21.3410   -6.8700   23.8530 C   0  0  0  0  0  3  0  0  0  0  0  0
  -21.2540   -6.0630   25.0060 C   0  0  0  0  0  3  0  0  0  0  0  0
  -21.5600   -4.6910   24.9300 C   0  0  0  0  0  0  0  0  0  0  0  0
  -21.9530   -4.1230   23.7060 C   0  0  0  0  0  3  0  0  0  0  0  0
  -22.0400   -4.9260   22.5550 C   0  0  0  0  0  0  0  0  0  0  0  0
  -22.3990   -4.3700   21.3730 F   0  0  0  0  0  0  0  0  0  0  0  0
  -21.4700   -3.9140   26.0350 F   0  0  0  0  0  0  0  0  0  0  0  0
  -22.8600  -13.6730   21.0760 C   0  0  0  0  0  0  0  0  0  0  0  0
  -22.1520  -12.9840   21.9640 N   0  0  0  0  0  0  0  0  0  0  0  0
  -22.4100  -14.6970   20.5610 O   0  0  0  0  0  0  0  0  0  0  0  0
  -22.5290  -12.1590   22.4060 H   0  0  0  0  0  0  0  0  0  0  0  0
  -21.2200  -13.2890   22.2100 H   0  0  0  0  0  0  0  0  0  0  0  0
  -25.4770  -15.3300   20.1910 N   0  0  0  0  0  0  0  0  0  0  0  0
  -24.7130  -15.9870   20.2990 H   0  0  0  0  0  0  0  0  0  0  0  0
  -26.3320  -15.7670   19.8700 H   0  0  0  0  0  0  0  0  0  0  0  0
  -30.1710  -21.3130   20.2480 C   0  0  0  0  0  2  0  0  0  0  0  0
  -28.7510  -21.6660   19.7480 C   0  0  0  0  0  2  0  0  0  0  0  0
  -28.1570  -22.9550   20.3680 C   0  0  0  0  0  2  0  0  0  0  0  0
  -28.6310  -24.3170   19.8010 C   0  0  0  0  0  2  0  0  0  0  0  0
  -28.2260  -25.4720   20.7490 C   0  0  0  0  0  2  0  0  0  0  0  0
  -28.3510  -26.7890   20.1880 O   0  0  0  0  0  0  0  0  0  0  0  0
  -24.5770  -31.9950   23.2750 C   0  0  0  0  0  0  0  0  0  0  0  0
  -27.1900  -27.5350   20.1880 C   0  0  0  0  0  0  0  0  0  0  0  0
  -23.3570  -30.5910   21.6420 C   0  0  0  0  0  3  0  0  0  0  0  0
  -24.7990  -29.0430   20.2150 C   0  0  0  0  0  0  0  0  0  0  0  0
  -25.8830  -30.9430   21.4270 C   0  0  0  0  0  2  0  0  0  0  0  0
  -25.9630  -29.5690   20.7890 C   0  0  0  0  0  0  0  0  0  0  0  0
  -27.1640  -28.8240   20.7680 C   0  0  0  0  0  3  0  0  0  0  0  0
  -26.0110  -27.0220   19.6070 C   0  0  0  0  0  3  0  0  0  0  0  0
  -24.8160  -27.7690   19.6220 C   0  0  0  0  0  3  0  0  0  0  0  0
  -23.5590  -29.9060   20.2630 C   0  0  0  0  0  2  0  0  0  0  0  0
  -24.6250  -31.1920   22.1740 N   0  0  0  0  0  0  0  0  0  0  0  0
  -23.5010  -32.2720   23.8220 O   0  0  0  0  0  0  0  0  0  0  0  0
  -22.7090  -29.5740   22.6080 C   0  0  0  0  0  0  0  0  0  0  0  0
  -21.3850  -29.3840   22.4780 N   0  0  0  0  0  0  0  0  0  0  0  0
  -23.3910  -28.9580   23.4310 O   0  0  0  0  0  0  0  0  0  0  0  0
  -20.8950  -29.9300   21.7820 H   0  0  0  0  0  0  0  0  0  0  0  0
  -18.0180  -28.1660   22.9640 C   0  0  0  0  0  0  0  0  0  0  0  0
  -20.5710  -28.4510   23.2560 C   0  0  0  0  0  3  0  0  0  0  0  0
  -20.6910  -27.0110   22.7020 C   0  0  0  0  0  2  0  0  0  0  0  0
  -19.6010  -26.6650   21.6830 C   0  0  0  0  0  2  0  0  0  0  0  0
  -18.2120  -26.8080   22.3110 C   0  0  0  0  0  2  0  0  0  0  0  0
  -19.1250  -28.9430   23.3950 C   0  0  0  0  0  0  0  0  0  0  0  0
  -18.8890  -30.2140   23.9630 C   0  0  0  0  0  3  0  0  0  0  0  0
  -17.5780  -30.7050   24.1080 C   0  0  0  0  0  3  0  0  0  0  0  0
  -16.4860  -29.9250   23.6930 C   0  0  0  0  0  3  0  0  0  0  0  0
  -16.7060  -28.6570   23.1270 C   0  0  0  0  0  3  0  0  0  0  0  0
  -25.8710  -32.6220   23.8830 C   0  0  0  0  0  3  0  0  0  0  0  0
  -25.5700  -34.0200   24.2160 N   0  0  0  0  0  0  0  0  0  0  0  0
  -25.9010  -35.0700   23.4520 C   0  0  0  0  0  0  0  0  0  0  0  0
  -26.5660  -34.9650   22.4180 O   0  0  0  0  0  0  0  0  0  0  0  0
  -24.9830  -34.1770   25.0220 H   0  0  0  0  0  0  0  0  0  0  0  0
  -24.1770  -36.8630   23.0950 C   0  0  0  0  0  1  0  0  0  0  0  0
  -25.4170  -36.4590   23.9090 C   0  0  0  0  0  3  0  0  0  0  0  0
  -27.5550  -37.3340   24.7400 C   0  0  0  0  0  1  0  0  0  0  0  0
  -26.4530  -37.5090   23.7980 N   0  0  0  0  0  0  0  0  0  0  0  0
  -26.0500  -38.4280   23.9510 H   0  0  0  0  0  0  0  0  0  0  0  0
  -26.3980  -31.8520   25.1560 C   0  0  1  0  0  0  0  0  0  0  0  0
  -25.3100  -31.6110   26.2290 C   0  0  0  0  0  1  0  0  0  0  0  0
  -26.9830  -30.4770   24.7580 C   0  0  0  0  0  1  0  0  0  0  0  0
  -27.5530  -32.6440   25.8140 C   0  0  0  0  0  1  0  0  0  0  0  0
  2  1  2  0
  2  9  1  0
  3  4  1  0
  3  6  1  0
  3  5  1  0
  5  1  1  0
  6  2  1  0
  7  6  1  0
  9  8  1  0
 10 18  1  0
 11 16  1  0
 12 13  1  0
 12 11  1  0
 14 13  1  0
 14 23  1  0
 14 15  1  0
 16 10  1  0
 16 15  1  0
 17 10  2  0
 18 19  1  0
 18  9  1  0
 20 21  2  0
 21 40  1  0
 22 21  1  0
 22 25  1  0
 23 20  1  0
 23 24  1  0
 24 22  2  0
 25 26  1  0
 26 27  2  0
 28 31  1  0
 28 27  1  0
 29 28  2  0
 30 29  1  0
 30 25  2  0
 31 32  1  0
 32 33  1  0
 33 34  2  0
 35 34  1  0
 35 39  1  0
 36 35  2  0
 37 32  2  0
 37 36  1  0
 38 37  1  0
 40 41  1  0
 41 44  1  0
 41 43  1  0
 42 40  2  0
 45 46  1  0
 45 20  1  0
 47 45  1  0
 48  5  1  0
 49 48  1  0
 49 50  1  0
 51 50  1  0
 51 52  1  0
 53 52  1  0
 54 65  2  0
 55 53  1  0
 55 60  1  0
 56 64  1  0
 56 66  1  0
 57 63  1  0
 57 59  1  0
 58 64  1  0
 59 58  1  0
 60 59  2  0
 61 62  1  0
 61 55  2  0
 62 57  2  0
 63 56  1  0
 64 54  1  0
 66 68  2  0
 67 66  1  0
 69 67  1  0
 70 79  2  0
 70 75  1  0
 71 67  1  0
 71 75  1  0
 72 71  1  0
 73 74  1  0
 73 72  1  0
 74 70  1  0
 75 76  2  0
 76 77  1  0
 78 77  2  0
 79 78  1  0
 80 54  1  0
 80 81  1  0
 80 90  1  0
 81 84  1  0
 82 86  1  0
 82 81  1  0
 83 82  2  0
 86 85  1  0
 88 86  1  0
 88 89  1  0
 88 87  1  0
 90 93  1  1
 90 91  1  0
 92 90  1  0
M  ISO  4  10 100  18 100  52 101  53 101
M  END
>  <TORSDO>  (83) 
F 22

>  <SCORE>  (83) 
-12.386

>  <name>  (83) 
85

>  <ligand_id>  (83) 
85

>  <original_smiles>  (83) 
[H]c1c([H])c([H])c2c(c1[H])C([H])([H])C([H])([H])C([H])([H])C2([H])N([H])C(=O)C1([H])N(C(=O)C([H])(N([H])C(=O)C([H])(N([H])C([H])([H])[H])C([H])([H])[H])C(C([H])([H])[H])(C([H])([H])[H])C([H])([H])[H])C([H])([H])c2c([H])c(OC([H])([H])C([H])([H])C([H])([H])C([H])([H])C([H])([H])n3c([H])c(C([H])(N([H])C(=O)N4C([H])([H])C([H])([H])C([H])([H])C([H])(n5nc(-c6c([H])c([H])c(Oc7c([H])c([H])c(F)c([H])c7F)c([H])c6[H])c(C(=O)N([H])[H])c5N([H])[H])C4([H])[H])C([H])([H])[H])[n+]([H])c3C([H])([H])[H])c([H])c([H])c2C1([H])[H]

>  <smiles>  (83) 
[H]c1c([H])c([H])c2c(c1[H])C([H])([H])C([H])([H])C([H])([H])C2([H])N([H])C(=O)C1([H])N(C(=O)C([H])(N([H])C(=O)C([H])(N([H])C([H])([H])[H])C([H])([H])[H])C(C([H])([H])[H])(C([H])([H])[H])C([H])([H])[H])C([H])([H])c2c([H])c(OC([H])([H])C([H])([H])C([H])([H])C([H])([H])C([H])([H])n3c([H])c(C([H])(N([H])C(=O)N4C([H])([H])C([H])([H])C([H])([H])C([H])(n5nc(-c6c([H])c([H])c(Oc7c([H])c([H])c(F)c([H])c7F)c([H])c6[H])c(C(=O)N([H])[H])c5N([H])[H])C4([H])[H])C([H])([H])[H])[n+]([H])c3C([H])([H])[H])c([H])c([H])c2C1([H])[H]

$$$$
86:0:0
     RDKit          3D

 91 99  0  0  1  0  0  0  0  0999 V2000
  -29.1300  -20.5740   18.1990 C   0  0  0  0  0  3  0  0  0  0  0  0
  -29.2160  -21.0610   19.4800 C   0  0  0  0  0  0  0  0  0  0  0  0
  -29.1330  -22.7780   18.0120 C   0  0  0  0  0  3  0  0  0  0  0  0
  -29.2310  -24.1010   17.3080 C   0  0  0  0  0  1  0  0  0  0  0  0
  -29.1110  -22.4970   19.3400 N   0  0  0  0  0  0  0  0  0  0  0  0
  -29.0860  -21.6280   17.3470 N   0  0  0  0  0  0  0  0  0  0  0  0
  -29.0700  -21.5460   16.3370 H   0  0  0  0  0  0  0  0  0  0  0  0
  -29.4540  -20.1120   20.6970 C   0  0  0  0  0  2  0  0  0  0  0  0
  -29.1270  -18.5150   20.5460 C   0  0  0  0  0  3  0  0  0  0  0  0
  -30.2620  -17.3590   20.5410 C   0  0  0  0  0  3  0  0  0  0  0  0
  -30.6020  -14.7540   20.3720 C   0  0  0  0  0  0  0  0  0  0  0  0
  -30.3850  -12.4950   19.3300 C   0  0  0  0  0  2  0  0  0  0  0  0
  -29.4410  -12.5890   18.1110 C   0  0  0  0  0  2  0  0  0  0  0  0
  -27.9740  -12.4140   18.5460 C   0  0  0  0  0  2  0  0  0  0  0  0
  -27.6070  -13.2870   19.7760 C   0  0  0  0  0  3  0  0  0  0  0  0
  -28.6710  -13.1820   20.8920 C   0  0  0  0  0  2  0  0  0  0  0  0
  -29.9660  -13.5360   20.2950 N   0  0  0  0  0  0  0  0  0  0  0  0
  -31.7840  -14.8560   20.0360 O   0  0  0  0  0  0  0  0  0  0  0  0
  -29.8440  -15.8860   20.6140 N   0  0  0  0  0  0  0  0  0  0  0  0
  -28.8770  -15.7100   20.8450 H   0  0  0  0  0  0  0  0  0  0  0  0
  -25.2200  -13.8720   20.5070 C   0  0  0  0  0  0  0  0  0  0  0  0
  -24.1560  -13.0950   20.8780 C   0  0  0  0  0  0  0  0  0  0  0  0
  -24.6230  -11.7460   20.8470 C   0  0  0  0  0  0  0  0  0  0  0  0
  -26.2660  -12.9960   20.2700 N   0  0  0  0  0  0  0  0  0  0  0  0
  -25.9140  -11.7110   20.5360 N   0  0  0  0  0  0  0  0  0  0  0  0
  -23.9000  -10.4810   21.0380 C   0  0  0  0  0  0  0  0  0  0  0  0
  -24.3350   -9.5160   21.9730 C   0  0  0  0  0  3  0  0  0  0  0  0
  -23.6130   -8.3170   22.1520 C   0  0  0  0  0  3  0  0  0  0  0  0
  -22.4420   -8.0740   21.3960 C   0  0  0  0  0  0  0  0  0  0  0  0
  -22.0260   -9.0270   20.4500 C   0  0  0  0  0  3  0  0  0  0  0  0
  -22.7500  -10.2180   20.2690 C   0  0  0  0  0  3  0  0  0  0  0  0
  -21.6910   -6.9270   21.4840 O   0  0  0  0  0  0  0  0  0  0  0  0
  -21.6410   -6.1860   22.6380 C   0  0  0  0  0  0  0  0  0  0  0  0
  -21.2050   -6.7400   23.8610 C   0  0  0  0  0  3  0  0  0  0  0  0
  -21.1030   -5.9250   25.0060 C   0  0  0  0  0  3  0  0  0  0  0  0
  -21.4260   -4.5560   24.9280 C   0  0  0  0  0  0  0  0  0  0  0  0
  -21.8550   -4.0030   23.7100 C   0  0  0  0  0  3  0  0  0  0  0  0
  -21.9590   -4.8150   22.5670 C   0  0  0  0  0  0  0  0  0  0  0  0
  -22.3530   -4.2710   21.3900 F   0  0  0  0  0  0  0  0  0  0  0  0
  -21.3200   -3.7710   26.0260 F   0  0  0  0  0  0  0  0  0  0  0  0
  -22.7580  -13.5690   21.1500 C   0  0  0  0  0  0  0  0  0  0  0  0
  -22.0320  -12.8680   22.0120 N   0  0  0  0  0  0  0  0  0  0  0  0
  -22.3180  -14.5940   20.6310 O   0  0  0  0  0  0  0  0  0  0  0  0
  -22.4030  -12.0390   22.4550 H   0  0  0  0  0  0  0  0  0  0  0  0
  -21.0930  -13.1640   22.2350 H   0  0  0  0  0  0  0  0  0  0  0  0
  -25.3780  -15.2440   20.3280 N   0  0  0  0  0  0  0  0  0  0  0  0
  -24.6040  -15.8900   20.4310 H   0  0  0  0  0  0  0  0  0  0  0  0
  -26.2130  -15.6850   19.9660 H   0  0  0  0  0  0  0  0  0  0  0  0
  -29.1180  -23.7050   20.3080 C   0  0  0  0  0  2  0  0  0  0  0  0
  -28.0150  -24.8910   20.1270 C   0  0  0  0  0  2  0  0  0  0  0  0
  -28.3060  -26.3710   20.2030 O   0  0  0  0  0  0  0  0  0  0  0  0
  -24.6290  -31.8820   23.2200 C   0  0  0  0  0  0  0  0  0  0  0  0
  -27.2140  -27.2750   20.1530 C   0  0  0  0  0  0  0  0  0  0  0  0
  -23.4210  -30.4890   21.5850 C   0  0  0  0  0  3  0  0  0  0  0  0
  -24.8650  -28.9390   20.1500 C   0  0  0  0  0  0  0  0  0  0  0  0
  -25.9690  -30.7860   21.4040 C   0  0  0  0  0  2  0  0  0  0  0  0
  -26.0420  -29.4080   20.7480 C   0  0  0  0  0  0  0  0  0  0  0  0
  -27.2200  -28.5910   20.7340 C   0  0  0  0  0  3  0  0  0  0  0  0
  -26.0070  -26.8810   19.5280 C   0  0  0  0  0  3  0  0  0  0  0  0
  -24.8530  -27.6850   19.5280 C   0  0  0  0  0  3  0  0  0  0  0  0
  -23.6320  -29.8200   20.2030 C   0  0  0  0  0  2  0  0  0  0  0  0
  -24.6930  -31.0710   22.1250 N   0  0  0  0  0  0  0  0  0  0  0  0
  -23.5450  -32.1630   23.7540 O   0  0  0  0  0  0  0  0  0  0  0  0
  -22.7580  -29.4700   22.5440 C   0  0  0  0  0  0  0  0  0  0  0  0
  -21.4310  -29.2920   22.4160 N   0  0  0  0  0  0  0  0  0  0  0  0
  -23.4350  -28.8450   23.3630 O   0  0  0  0  0  0  0  0  0  0  0  0
  -20.9440  -29.8460   21.7260 H   0  0  0  0  0  0  0  0  0  0  0  0
  -18.0520  -28.0950   22.9190 C   0  0  0  0  0  0  0  0  0  0  0  0
  -20.6110  -28.3550   23.1880 C   0  0  0  0  0  3  0  0  0  0  0  0
  -20.7130  -26.9230   22.6130 C   0  0  0  0  0  2  0  0  0  0  0  0
  -19.6110  -26.6000   21.6000 C   0  0  0  0  0  2  0  0  0  0  0  0
  -18.2290  -26.7450   22.2450 C   0  0  0  0  0  2  0  0  0  0  0  0
  -19.1710  -28.8580   23.3480 C   0  0  0  0  0  0  0  0  0  0  0  0
  -18.9510  -30.1220   23.9380 C   0  0  0  0  0  3  0  0  0  0  0  0
  -17.6450  -30.6210   24.1040 C   0  0  0  0  0  3  0  0  0  0  0  0
  -16.5410  -29.8550   23.6920 C   0  0  0  0  0  3  0  0  0  0  0  0
  -16.7460  -28.5940   23.1050 C   0  0  0  0  0  3  0  0  0  0  0  0
  -25.9110  -32.5150   23.8410 C   0  0  0  0  0  3  0  0  0  0  0  0
  -25.6010  -33.9140   24.1720 N   0  0  0  0  0  0  0  0  0  0  0  0
  -25.9290  -34.9680   23.4120 C   0  0  0  0  0  0  0  0  0  0  0  0
  -26.5940  -34.8650   22.3780 O   0  0  0  0  0  0  0  0  0  0  0  0
  -25.0100  -34.0670   24.9760 H   0  0  0  0  0  0  0  0  0  0  0  0
  -24.2020  -36.7640   23.0640 C   0  0  0  0  0  1  0  0  0  0  0  0
  -25.4440  -36.3560   23.8730 C   0  0  0  0  0  3  0  0  0  0  0  0
  -27.5800  -37.2380   24.7030 C   0  0  0  0  0  1  0  0  0  0  0  0
  -26.4770  -37.4080   23.7600 N   0  0  0  0  0  0  0  0  0  0  0  0
  -26.0730  -38.3290   23.9070 H   0  0  0  0  0  0  0  0  0  0  0  0
  -26.4250  -31.7450   25.1200 C   0  0  1  0  0  0  0  0  0  0  0  0
  -25.3320  -31.5120   26.1880 C   0  0  0  0  0  1  0  0  0  0  0  0
  -27.0060  -30.3660   24.7350 C   0  0  0  0  0  1  0  0  0  0  0  0
  -27.5770  -32.5410   25.7800 C   0  0  0  0  0  1  0  0  0  0  0  0
  1  2  2  0
  2  8  1  0
  3  4  1  0
  3  5  1  0
  5  2  1  0
  5 49  1  0
  6  3  1  0
  6  1  1  0
  7  6  1  0
  9  8  1  0
 10  9  2  0
 10 19  1  0
 11 19  1  0
 12 17  1  0
 13 14  1  0
 13 12  1  0
 15 14  1  0
 15 24  1  0
 15 16  1  0
 17 11  1  0
 17 16  1  0
 18 11  2  0
 19 20  1  0
 21 22  2  0
 22 41  1  0
 23 22  1  0
 23 26  1  0
 24 21  1  0
 24 25  1  0
 25 23  2  0
 26 27  1  0
 27 28  2  0
 29 32  1  0
 29 28  1  0
 30 29  2  0
 31 30  1  0
 31 26  2  0
 32 33  1  0
 33 34  1  0
 34 35  2  0
 36 35  1  0
 36 40  1  0
 37 36  2  0
 38 33  2  0
 38 37  1  0
 39 38  1  0
 41 42  1  0
 42 45  1  0
 42 44  1  0
 43 41  2  0
 46 47  1  0
 46 21  1  0
 48 46  1  0
 50 51  1  0
 50 49  1  0
 52 63  2  0
 53 51  1  0
 53 58  1  0
 54 62  1  0
 54 64  1  0
 55 61  1  0
 55 57  1  0
 56 62  1  0
 57 56  1  0
 58 57  2  0
 59 60  1  0
 59 53  2  0
 60 55  2  0
 61 54  1  0
 62 52  1  0
 64 66  2  0
 65 64  1  0
 67 65  1  0
 68 77  2  0
 68 73  1  0
 69 65  1  0
 69 73  1  0
 70 69  1  0
 71 72  1  0
 71 70  1  0
 72 68  1  0
 73 74  2  0
 74 75  1  0
 76 75  2  0
 77 76  1  0
 78 52  1  0
 78 79  1  0
 78 88  1  0
 79 82  1  0
 80 84  1  0
 80 79  1  0
 81 80  2  0
 84 83  1  0
 86 84  1  0
 86 87  1  0
 86 85  1  0
 88 91  1  1
 88 89  1  0
 90 88  1  0
M  ISO  4  11 100  19 100  50 101  51 101
M  END
>  <TORSDO>  (84) 
F 21

>  <SCORE>  (84) 
-13.417

>  <name>  (84) 
86

>  <ligand_id>  (84) 
86

>  <original_smiles>  (84) 
[H]c1c([H])c([H])c2c(c1[H])C([H])([H])C([H])([H])C([H])([H])C2([H])N([H])C(=O)C1([H])N(C(=O)C([H])(N([H])C(=O)C([H])(N([H])C([H])([H])[H])C([H])([H])[H])C(C([H])([H])[H])(C([H])([H])[H])C([H])([H])[H])C([H])([H])c2c([H])c(OC([H])([H])C([H])([H])n3c(C([H])([H])C([H])([H])C([H])([H])N([H])C(=O)N4C([H])([H])C([H])([H])C([H])([H])C([H])(n5nc(-c6c([H])c([H])c(Oc7c([H])c([H])c(F)c([H])c7F)c([H])c6[H])c(C(=O)N([H])[H])c5N([H])[H])C4([H])[H])c([H])[n+]([H])c3C([H])([H])[H])c([H])c([H])c2C1([H])[H]

>  <smiles>  (84) 
[H]c1c([H])c([H])c2c(c1[H])C([H])([H])C([H])([H])C([H])([H])C2([H])N([H])C(=O)C1([H])N(C(=O)C([H])(N([H])C(=O)C([H])(N([H])C([H])([H])[H])C([H])([H])[H])C(C([H])([H])[H])(C([H])([H])[H])C([H])([H])[H])C([H])([H])c2c([H])c(OC([H])([H])C([H])([H])n3c(C([H])([H])C([H])([H])C([H])([H])N([H])C(=O)N4C([H])([H])C([H])([H])C([H])([H])C([H])(n5nc(-c6c([H])c([H])c(Oc7c([H])c([H])c(F)c([H])c7F)c([H])c6[H])c(C(=O)N([H])[H])c5N([H])[H])C4([H])[H])c([H])[n+]([H])c3C([H])([H])[H])c([H])c([H])c2C1([H])[H]

$$$$
87:0:0
     RDKit          3D

 90 98  0  0  1  0  0  0  0  0999 V2000
  -29.1920  -21.8980   21.3100 C   0  0  0  0  0  3  0  0  0  0  0  0
  -29.3410  -20.7430   20.5690 C   0  0  0  0  0  0  0  0  0  0  0  0
  -29.8460  -21.1270   19.3270 N   0  0  0  0  0  0  0  0  0  0  0  0
  -29.9700  -22.4240   19.2740 N   0  0  0  0  0  0  0  0  0  0  0  0
  -29.5460  -22.9450   20.4540 N   0  0  0  0  0  0  0  0  0  0  0  0
  -28.8950  -19.3030   20.8550 C   0  0  0  0  0  2  0  0  0  0  0  0
  -29.9640  -18.1970   21.1810 C   0  0  0  0  0  2  0  0  0  0  0  0
  -30.2000  -17.0680   20.1150 C   0  0  0  0  0  2  0  0  0  0  0  0
  -30.6870  -14.5800   20.1550 C   0  0  0  0  0  0  0  0  0  0  0  0
  -30.3660  -12.3910   19.0560 C   0  0  0  0  0  2  0  0  0  0  0  0
  -29.3920  -12.5860   17.8740 C   0  0  0  0  0  2  0  0  0  0  0  0
  -27.9290  -12.4550   18.3430 C   0  0  0  0  0  2  0  0  0  0  0  0
  -27.6280  -13.2880   19.6180 C   0  0  0  0  0  3  0  0  0  0  0  0
  -28.7190  -13.0850   20.6950 C   0  0  0  0  0  2  0  0  0  0  0  0
  -30.0220  -13.3910   20.0850 N   0  0  0  0  0  0  0  0  0  0  0  0
  -31.8160  -14.7240   19.6800 O   0  0  0  0  0  0  0  0  0  0  0  0
  -29.9630  -15.6600   20.5510 N   0  0  0  0  0  0  0  0  0  0  0  0
  -29.0520  -15.4540   20.9320 H   0  0  0  0  0  0  0  0  0  0  0  0
  -25.2500  -13.8900   20.3910 C   0  0  0  0  0  0  0  0  0  0  0  0
  -24.1940  -13.1190   20.7920 C   0  0  0  0  0  0  0  0  0  0  0  0
  -24.6560  -11.7660   20.7540 C   0  0  0  0  0  0  0  0  0  0  0  0
  -26.2900  -13.0100   20.1360 N   0  0  0  0  0  0  0  0  0  0  0  0
  -25.9380  -11.7280   20.4130 N   0  0  0  0  0  0  0  0  0  0  0  0
  -23.9360  -10.5050   20.9700 C   0  0  0  0  0  0  0  0  0  0  0  0
  -24.3820   -9.5510   21.9110 C   0  0  0  0  0  3  0  0  0  0  0  0
  -23.6610   -8.3540   22.1140 C   0  0  0  0  0  3  0  0  0  0  0  0
  -22.4820   -8.1010   21.3750 C   0  0  0  0  0  0  0  0  0  0  0  0
  -22.0540   -9.0440   20.4230 C   0  0  0  0  0  3  0  0  0  0  0  0
  -22.7750  -10.2330   20.2200 C   0  0  0  0  0  3  0  0  0  0  0  0
  -21.7320   -6.9540   21.4870 O   0  0  0  0  0  0  0  0  0  0  0  0
  -21.6900   -6.2340   22.6530 C   0  0  0  0  0  0  0  0  0  0  0  0
  -21.2550   -6.8060   23.8680 C   0  0  0  0  0  3  0  0  0  0  0  0
  -21.1600   -6.0110   25.0270 C   0  0  0  0  0  3  0  0  0  0  0  0
  -21.4880   -4.6430   24.9730 C   0  0  0  0  0  0  0  0  0  0  0  0
  -21.9170   -4.0690   23.7620 C   0  0  0  0  0  3  0  0  0  0  0  0
  -22.0140   -4.8620   22.6060 C   0  0  0  0  0  0  0  0  0  0  0  0
  -22.4060   -4.2990   21.4370 F   0  0  0  0  0  0  0  0  0  0  0  0
  -21.3890   -3.8770   26.0850 F   0  0  0  0  0  0  0  0  0  0  0  0
  -22.8040  -13.5960   21.1000 C   0  0  0  0  0  0  0  0  0  0  0  0
  -22.0990  -12.9020   21.9860 N   0  0  0  0  0  0  0  0  0  0  0  0
  -22.3520  -14.6200   20.5880 O   0  0  0  0  0  0  0  0  0  0  0  0
  -22.4760  -12.0750   22.4240 H   0  0  0  0  0  0  0  0  0  0  0  0
  -21.1660  -13.2060   22.2330 H   0  0  0  0  0  0  0  0  0  0  0  0
  -25.4060  -15.2600   20.2000 N   0  0  0  0  0  0  0  0  0  0  0  0
  -24.6380  -15.9100   20.3230 H   0  0  0  0  0  0  0  0  0  0  0  0
  -26.2390  -15.6970   19.8260 H   0  0  0  0  0  0  0  0  0  0  0  0
  -29.6070  -24.4230   20.6510 C   0  0  0  0  0  2  0  0  0  0  0  0
  -27.0270  -24.3730   20.5230 C   0  0  0  0  0  1  0  0  0  0  0  0
  -28.2690  -25.2380   20.8490 C   0  0  0  0  0  3  0  0  0  0  0  0
  -28.3510  -26.5690   20.2130 O   0  0  0  0  0  0  0  0  0  0  0  0
  -24.5760  -31.8990   23.2310 C   0  0  0  0  0  0  0  0  0  0  0  0
  -27.2260  -27.3930   20.1940 C   0  0  0  0  0  0  0  0  0  0  0  0
  -23.3890  -30.5020   21.5750 C   0  0  0  0  0  3  0  0  0  0  0  0
  -24.8580  -28.9730   20.1560 C   0  0  0  0  0  0  0  0  0  0  0  0
  -25.9250  -30.8370   21.4170 C   0  0  0  0  0  2  0  0  0  0  0  0
  -26.0130  -29.4630   20.7790 C   0  0  0  0  0  0  0  0  0  0  0  0
  -27.2000  -28.6780   20.8020 C   0  0  0  0  0  3  0  0  0  0  0  0
  -26.0720  -26.9810   19.4940 C   0  0  0  0  0  3  0  0  0  0  0  0
  -24.8850  -27.7320   19.5060 C   0  0  0  0  0  3  0  0  0  0  0  0
  -23.6170  -29.8380   20.1920 C   0  0  0  0  0  2  0  0  0  0  0  0
  -24.6480  -31.0950   22.1310 N   0  0  0  0  0  0  0  0  0  0  0  0
  -23.4880  -32.1700   23.7590 O   0  0  0  0  0  0  0  0  0  0  0  0
  -22.7280  -29.4740   22.5230 C   0  0  0  0  0  0  0  0  0  0  0  0
  -21.4020  -29.2950   22.3850 N   0  0  0  0  0  0  0  0  0  0  0  0
  -23.4030  -28.8430   23.3400 O   0  0  0  0  0  0  0  0  0  0  0  0
  -20.9180  -29.8550   21.6960 H   0  0  0  0  0  0  0  0  0  0  0  0
  -18.0220  -28.1090   22.8640 C   0  0  0  0  0  0  0  0  0  0  0  0
  -20.5790  -28.3550   23.1450 C   0  0  0  0  0  3  0  0  0  0  0  0
  -20.6780  -26.9290   22.5590 C   0  0  0  0  0  2  0  0  0  0  0  0
  -19.5760  -26.6150   21.5410 C   0  0  0  0  0  2  0  0  0  0  0  0
  -18.1930  -26.7640   22.1820 C   0  0  0  0  0  2  0  0  0  0  0  0
  -19.1410  -28.8640   23.3040 C   0  0  0  0  0  0  0  0  0  0  0  0
  -18.9260  -30.1240   23.9040 C   0  0  0  0  0  3  0  0  0  0  0  0
  -17.6230  -30.6300   24.0690 C   0  0  0  0  0  3  0  0  0  0  0  0
  -16.5180  -29.8720   23.6460 C   0  0  0  0  0  3  0  0  0  0  0  0
  -16.7170  -28.6140   23.0480 C   0  0  0  0  0  3  0  0  0  0  0  0
  -25.8550  -32.5290   23.8640 C   0  0  0  0  0  3  0  0  0  0  0  0
  -25.5450  -33.9290   24.1850 N   0  0  0  0  0  0  0  0  0  0  0  0
  -25.8890  -34.9770   23.4260 C   0  0  0  0  0  0  0  0  0  0  0  0
  -26.5730  -34.8690   22.4040 O   0  0  0  0  0  0  0  0  0  0  0  0
  -24.9430  -34.0890   24.9800 H   0  0  0  0  0  0  0  0  0  0  0  0
  -24.1760  -36.7750   23.0290 C   0  0  0  0  0  1  0  0  0  0  0  0
  -25.3970  -36.3680   23.8690 C   0  0  0  0  0  3  0  0  0  0  0  0
  -27.5150  -37.2470   24.7490 C   0  0  0  0  0  1  0  0  0  0  0  0
  -26.4360  -37.4170   23.7790 N   0  0  0  0  0  0  0  0  0  0  0  0
  -26.0290  -38.3380   23.9160 H   0  0  0  0  0  0  0  0  0  0  0  0
  -26.3570  -31.7600   25.1470 C   0  0  1  0  0  0  0  0  0  0  0  0
  -25.2520  -31.5250   26.2020 C   0  0  0  0  0  1  0  0  0  0  0  0
  -26.9450  -30.3820   24.7640 C   0  0  0  0  0  1  0  0  0  0  0  0
  -27.5000  -32.5570   25.8200 C   0  0  0  0  0  1  0  0  0  0  0  0
  2  6  1  0
  2  1  2  0
  3  2  1  0
  4  3  2  0
  4  5  1  0
  5 47  1  0
  5  1  1  0
  6  7  1  0
  8 17  1  0
  8  7  1  0
  9 17  1  0
 10 15  1  0
 11 12  1  0
 11 10  1  0
 13 12  1  0
 13 22  1  0
 13 14  1  0
 15  9  1  0
 15 14  1  0
 16  9  2  0
 17 18  1  0
 19 20  2  0
 20 39  1  0
 21 20  1  0
 21 24  1  0
 22 19  1  0
 22 23  1  0
 23 21  2  0
 24 25  1  0
 25 26  2  0
 27 30  1  0
 27 26  1  0
 28 27  2  0
 29 28  1  0
 29 24  2  0
 30 31  1  0
 31 32  1  0
 32 33  2  0
 34 33  1  0
 34 38  1  0
 35 34  2  0
 36 31  2  0
 36 35  1  0
 37 36  1  0
 39 40  1  0
 40 43  1  0
 40 42  1  0
 41 39  2  0
 44 45  1  0
 44 19  1  0
 46 44  1  0
 47 49  1  0
 49 48  1  0
 50 49  1  0
 51 62  2  0
 52 50  1  0
 52 57  1  0
 53 61  1  0
 53 63  1  0
 54 60  1  0
 54 56  1  0
 55 61  1  0
 56 57  2  0
 56 55  1  0
 58 59  1  0
 58 52  2  0
 59 54  2  0
 60 53  1  0
 61 51  1  0
 63 65  2  0
 64 63  1  0
 66 64  1  0
 67 76  2  0
 67 72  1  0
 68 64  1  0
 68 72  1  0
 69 68  1  0
 70 71  1  0
 70 69  1  0
 71 67  1  0
 72 73  2  0
 73 74  1  0
 75 74  2  0
 76 75  1  0
 77 51  1  0
 77 78  1  0
 77 87  1  0
 78 81  1  0
 79 83  1  0
 79 78  1  0
 80 79  2  0
 83 82  1  0
 85 83  1  0
 85 86  1  0
 85 84  1  0
 87 90  1  1
 87 88  1  0
 89 87  1  0
M  ISO  4   9 100  17 100  49 101  50 101
M  END
>  <TORSDO>  (85) 
F 21

>  <SCORE>  (85) 
-13.265

>  <name>  (85) 
87

>  <ligand_id>  (85) 
87

>  <original_smiles>  (85) 
[H]c1c([H])c([H])c2c(c1[H])C([H])([H])C([H])([H])C([H])([H])C2([H])N([H])C(=O)C1([H])N(C(=O)C([H])(N([H])C(=O)C([H])(N([H])C([H])([H])[H])C([H])([H])[H])C(C([H])([H])[H])(C([H])([H])[H])C([H])([H])[H])C([H])([H])c2c([H])c(OC([H])(C([H])([H])[H])C([H])([H])n3nnc(C([H])([H])C([H])([H])C([H])([H])N([H])C(=O)N4C([H])([H])C([H])([H])C([H])([H])C([H])(n5nc(-c6c([H])c([H])c(Oc7c([H])c([H])c(F)c([H])c7F)c([H])c6[H])c(C(=O)N([H])[H])c5N([H])[H])C4([H])[H])c3[H])c([H])c([H])c2C1([H])[H]

>  <smiles>  (85) 
[H]c1c([H])c([H])c2c(c1[H])C([H])([H])C([H])([H])C([H])([H])C2([H])N([H])C(=O)C1([H])N(C(=O)C([H])(N([H])C(=O)C([H])(N([H])C([H])([H])[H])C([H])([H])[H])C(C([H])([H])[H])(C([H])([H])[H])C([H])([H])[H])C([H])([H])c2c([H])c(OC([H])(C([H])([H])[H])C([H])([H])n3nnc(C([H])([H])C([H])([H])C([H])([H])N([H])C(=O)N4C([H])([H])C([H])([H])C([H])([H])C([H])(n5nc(-c6c([H])c([H])c(Oc7c([H])c([H])c(F)c([H])c7F)c([H])c6[H])c(C(=O)N([H])[H])c5N([H])[H])C4([H])[H])c3[H])c([H])c([H])c2C1([H])[H]

$$$$
88:0:0
     RDKit          3D

 94102  0  0  1  0  0  0  0  0999 V2000
  -30.2210  -22.8930   22.0640 C   0  0  0  0  0  3  0  0  0  0  0  0
  -31.3030  -22.2050   22.6230 C   0  0  0  0  0  3  0  0  0  0  0  0
  -29.5720  -22.4310   20.8890 C   0  0  0  0  0  0  0  0  0  0  0  0
  -31.7220  -21.0050   22.0400 C   0  0  0  0  0  0  0  0  0  0  0  0
  -29.9240  -21.0400   20.5050 C   0  0  0  0  0  0  0  0  0  0  0  0
  -31.0060  -20.4270   21.0570 N   0  0  0  0  0  0  0  0  0  0  0  0
  -27.6960  -19.7670   20.2720 C   0  0  0  0  0  1  0  0  0  0  0  0
  -29.1060  -19.9620   19.6790 C   0  0  0  0  0  3  0  0  0  0  0  0
  -29.7140  -18.4720   19.3330 C   0  0  0  0  0  2  0  0  0  0  0  0
  -30.1820  -17.3690   20.4230 C   0  0  0  0  0  2  0  0  0  0  0  0
  -30.7430  -14.7520   20.1970 C   0  0  0  0  0  0  0  0  0  0  0  0
  -30.5510  -12.4290   19.2930 C   0  0  0  0  0  2  0  0  0  0  0  0
  -29.6100  -12.4680   18.0710 C   0  0  0  0  0  2  0  0  0  0  0  0
  -28.1370  -12.3260   18.5100 C   0  0  0  0  0  2  0  0  0  0  0  0
  -27.7700  -13.2530   19.7010 C   0  0  0  0  0  3  0  0  0  0  0  0
  -28.8390  -13.2020   20.8130 C   0  0  0  0  0  2  0  0  0  0  0  0
  -30.1270  -13.5240   20.1870 N   0  0  0  0  0  0  0  0  0  0  0  0
  -31.9540  -14.8480   19.9840 O   0  0  0  0  0  0  0  0  0  0  0  0
  -29.9210  -15.8700   20.2170 N   0  0  0  0  0  0  0  0  0  0  0  0
  -28.9460  -15.6210   20.2180 H   0  0  0  0  0  0  0  0  0  0  0  0
  -25.4070  -13.8880   20.4730 C   0  0  0  0  0  0  0  0  0  0  0  0
  -24.3330  -13.1320   20.8510 C   0  0  0  0  0  0  0  0  0  0  0  0
  -24.7700  -11.7700   20.8050 C   0  0  0  0  0  0  0  0  0  0  0  0
  -26.4300  -12.9880   20.2130 N   0  0  0  0  0  0  0  0  0  0  0  0
  -26.0560  -11.7120   20.4780 N   0  0  0  0  0  0  0  0  0  0  0  0
  -24.0210  -10.5230   20.9900 C   0  0  0  0  0  0  0  0  0  0  0  0
  -24.4230   -9.5530   21.9360 C   0  0  0  0  0  3  0  0  0  0  0  0
  -23.6740   -8.3690   22.1100 C   0  0  0  0  0  3  0  0  0  0  0  0
  -22.5070   -8.1480   21.3420 C   0  0  0  0  0  0  0  0  0  0  0  0
  -22.1230   -9.1060   20.3850 C   0  0  0  0  0  3  0  0  0  0  0  0
  -22.8720  -10.2810   20.2090 C   0  0  0  0  0  3  0  0  0  0  0  0
  -21.7290   -7.0180   21.4250 O   0  0  0  0  0  0  0  0  0  0  0  0
  -21.6350   -6.2960   22.5890 C   0  0  0  0  0  0  0  0  0  0  0  0
  -21.1680   -6.8750   23.7880 C   0  0  0  0  0  3  0  0  0  0  0  0
  -21.0170   -6.0800   24.9430 C   0  0  0  0  0  3  0  0  0  0  0  0
  -21.3250   -4.7070   24.8970 C   0  0  0  0  0  0  0  0  0  0  0  0
  -21.7850   -4.1280   23.7020 C   0  0  0  0  0  3  0  0  0  0  0  0
  -21.9370   -4.9200   22.5500 C   0  0  0  0  0  0  0  0  0  0  0  0
  -22.3600   -4.3520   21.3960 F   0  0  0  0  0  0  0  0  0  0  0  0
  -21.1740   -3.9410   26.0040 F   0  0  0  0  0  0  0  0  0  0  0  0
  -22.9480  -13.6330   21.1410 C   0  0  0  0  0  0  0  0  0  0  0  0
  -22.2190  -12.9510   22.0170 N   0  0  0  0  0  0  0  0  0  0  0  0
  -22.5200  -14.6650   20.6230 O   0  0  0  0  0  0  0  0  0  0  0  0
  -22.5760  -12.1170   22.4570 H   0  0  0  0  0  0  0  0  0  0  0  0
  -21.2900  -13.2690   22.2530 H   0  0  0  0  0  0  0  0  0  0  0  0
  -25.5900  -15.2560   20.2990 N   0  0  0  0  0  0  0  0  0  0  0  0
  -24.8270  -15.9140   20.4250 H   0  0  0  0  0  0  0  0  0  0  0  0
  -26.4110  -15.6820   19.8920 H   0  0  0  0  0  0  0  0  0  0  0  0
  -28.6410  -23.5250   20.1610 C   0  0  0  0  0  2  0  0  0  0  0  0
  -28.4820  -25.0570   20.7730 C   0  0  0  0  0  2  0  0  0  0  0  0
  -28.4200  -26.3510   20.0100 O   0  0  0  0  0  0  0  0  0  0  0  0
  -24.5520  -31.7060   23.1220 C   0  0  0  0  0  0  0  0  0  0  0  0
  -27.2980  -27.2010   20.0720 C   0  0  0  0  0  0  0  0  0  0  0  0
  -23.4150  -30.3140   21.4270 C   0  0  0  0  0  3  0  0  0  0  0  0
  -24.9200  -28.8000   20.0180 C   0  0  0  0  0  0  0  0  0  0  0  0
  -25.9530  -30.6710   21.3060 C   0  0  0  0  0  2  0  0  0  0  0  0
  -26.0700  -29.2960   20.6490 C   0  0  0  0  0  0  0  0  0  0  0  0
  -27.2690  -28.5130   20.6520 C   0  0  0  0  0  3  0  0  0  0  0  0
  -26.1270  -26.7600   19.4330 C   0  0  0  0  0  3  0  0  0  0  0  0
  -24.9530  -27.5400   19.4010 C   0  0  0  0  0  3  0  0  0  0  0  0
  -23.6710  -29.6600   20.0420 C   0  0  0  0  0  2  0  0  0  0  0  0
  -24.6590  -30.9190   22.0100 N   0  0  0  0  0  0  0  0  0  0  0  0
  -23.4520  -31.9550   23.6370 O   0  0  0  0  0  0  0  0  0  0  0  0
  -22.7440  -29.2730   22.3580 C   0  0  0  0  0  0  0  0  0  0  0  0
  -21.4180  -29.1010   22.2220 N   0  0  0  0  0  0  0  0  0  0  0  0
  -23.4180  -28.6270   23.1600 O   0  0  0  0  0  0  0  0  0  0  0  0
  -20.9330  -29.6790   21.5500 H   0  0  0  0  0  0  0  0  0  0  0  0
  -18.0350  -27.9050   22.6950 C   0  0  0  0  0  0  0  0  0  0  0  0
  -20.5980  -28.1380   22.9600 C   0  0  0  0  0  3  0  0  0  0  0  0
  -20.6850  -26.7280   22.3260 C   0  0  0  0  0  2  0  0  0  0  0  0
  -19.5730  -26.4570   21.3070 C   0  0  0  0  0  2  0  0  0  0  0  0
  -18.1980  -26.5830   21.9660 C   0  0  0  0  0  2  0  0  0  0  0  0
  -19.1620  -28.6430   23.1480 C   0  0  0  0  0  0  0  0  0  0  0  0
  -18.9500  -29.8840   23.7890 C   0  0  0  0  0  3  0  0  0  0  0  0
  -17.6490  -30.3860   23.9780 C   0  0  0  0  0  3  0  0  0  0  0  0
  -16.5390  -29.6420   23.5380 C   0  0  0  0  0  3  0  0  0  0  0  0
  -16.7330  -28.4030   22.9020 C   0  0  0  0  0  3  0  0  0  0  0  0
  -25.8060  -32.3490   23.7900 C   0  0  0  0  0  3  0  0  0  0  0  0
  -25.4720  -33.7390   24.1280 N   0  0  0  0  0  0  0  0  0  0  0  0
  -25.8170  -34.8070   23.3950 C   0  0  0  0  0  0  0  0  0  0  0  0
  -26.5180  -34.7220   22.3810 O   0  0  0  0  0  0  0  0  0  0  0  0
  -24.8500  -33.8780   24.9130 H   0  0  0  0  0  0  0  0  0  0  0  0
  -24.0820  -36.5860   23.0080 C   0  0  0  0  0  1  0  0  0  0  0  0
  -25.3030  -36.1870   23.8540 C   0  0  0  0  0  3  0  0  0  0  0  0
  -27.4030  -37.0810   24.7570 C   0  0  0  0  0  1  0  0  0  0  0  0
  -26.3300  -37.2490   23.7810 N   0  0  0  0  0  0  0  0  0  0  0  0
  -25.9160  -38.1650   23.9200 H   0  0  0  0  0  0  0  0  0  0  0  0
  -26.2930  -31.5710   25.0740 C   0  0  1  0  0  0  0  0  0  0  0  0
  -25.1710  -31.3110   26.1100 C   0  0  0  0  0  1  0  0  0  0  0  0
  -26.8980  -30.2040   24.6800 C   0  0  0  0  0  1  0  0  0  0  0  0
  -27.4220  -32.3660   25.7720 C   0  0  0  0  0  1  0  0  0  0  0  0
  -32.9690  -20.2770   22.5490 C   0  0  0  0  0  2  0  0  0  0  0  0
  -35.4960  -20.4020   23.0730 C   0  0  0  0  0  1  0  0  0  0  0  0
  -34.3200  -20.9860   22.2570 C   0  0  0  0  0  2  0  0  0  0  0  0
  1  2  1  0
  3  1  2  0
  4 92  1  0
  4  2  2  0
  5  3  1  0
  5  6  2  0
  6  4  1  0
  8  7  1  0
  8  5  1  0
  9  8  1  0
  9 10  1  0
 11 19  1  0
 12 17  1  0
 13 14  1  0
 13 12  1  0
 15 14  1  0
 15 24  1  0
 15 16  1  0
 17 11  1  0
 17 16  1  0
 18 11  2  0
 19 20  1  0
 19 10  1  0
 21 22  2  0
 22 41  1  0
 23 22  1  0
 23 26  1  0
 24 21  1  0
 24 25  1  0
 25 23  2  0
 26 27  1  0
 27 28  2  0
 29 32  1  0
 29 28  1  0
 30 29  2  0
 31 30  1  0
 31 26  2  0
 32 33  1  0
 33 34  1  0
 34 35  2  0
 36 35  1  0
 36 40  1  0
 37 36  2  0
 38 33  2  0
 38 37  1  0
 39 38  1  0
 41 42  1  0
 42 45  1  0
 42 44  1  0
 43 41  2  0
 46 47  1  0
 46 21  1  0
 48 46  1  0
 49 50  1  0
 49  3  1  0
 51 53  1  0
 51 50  1  0
 52 63  2  0
 53 58  1  0
 54 62  1  0
 54 64  1  0
 55 61  1  0
 55 57  1  0
 56 62  1  0
 57 58  2  0
 57 56  1  0
 59 53  2  0
 60 59  1  0
 60 55  2  0
 61 54  1  0
 62 52  1  0
 64 66  2  0
 65 64  1  0
 67 65  1  0
 68 77  2  0
 68 73  1  0
 69 65  1  0
 69 73  1  0
 70 69  1  0
 71 72  1  0
 71 70  1  0
 72 68  1  0
 73 74  2  0
 74 75  1  0
 76 75  2  0
 77 76  1  0
 78 52  1  0
 78 79  1  0
 78 88  1  0
 79 82  1  0
 80 84  1  0
 80 79  1  0
 81 80  2  0
 84 83  1  0
 86 84  1  0
 86 87  1  0
 86 85  1  0
 88 91  1  1
 88 89  1  0
 90 88  1  0
 94 92  1  0
 94 93  1  0
M  ISO  4  11 100  19 100  50 101  51 101
M  END
>  <TORSDO>  (86) 
F 23

>  <SCORE>  (86) 
-12.745

>  <name>  (86) 
88

>  <ligand_id>  (86) 
88

>  <original_smiles>  (86) 
[H]c1c(C([H])([H])C([H])([H])C([H])([H])[H])nc(C([H])(C([H])([H])[H])C([H])([H])C([H])([H])N([H])C(=O)N2C([H])([H])C([H])([H])C([H])([H])C([H])(n3nc(-c4c([H])c([H])c(Oc5c([H])c([H])c(F)c([H])c5F)c([H])c4[H])c(C(=O)N([H])[H])c3N([H])[H])C2([H])[H])c(C([H])([H])C([H])([H])Oc2c([H])c([H])c3c(c2[H])C([H])([H])N(C(=O)C([H])(N([H])C(=O)C([H])(N([H])C([H])([H])[H])C([H])([H])[H])C(C([H])([H])[H])(C([H])([H])[H])C([H])([H])[H])C([H])(C(=O)N([H])C2([H])c4c([H])c([H])c([H])c([H])c4C([H])([H])C([H])([H])C2([H])[H])C3([H])[H])c1[H]

>  <smiles>  (86) 
[H]c1c(C([H])([H])C([H])([H])C([H])([H])[H])nc(C([H])(C([H])([H])[H])C([H])([H])C([H])([H])N([H])C(=O)N2C([H])([H])C([H])([H])C([H])([H])C([H])(n3nc(-c4c([H])c([H])c(Oc5c([H])c([H])c(F)c([H])c5F)c([H])c4[H])c(C(=O)N([H])[H])c3N([H])[H])C2([H])[H])c(C([H])([H])C([H])([H])Oc2c([H])c([H])c3c(c2[H])C([H])([H])N(C(=O)C([H])(N([H])C(=O)C([H])(N([H])C([H])([H])[H])C([H])([H])[H])C(C([H])([H])[H])(C([H])([H])[H])C([H])([H])[H])C([H])(C(=O)N([H])C2([H])c4c([H])c([H])c([H])c([H])c4C([H])([H])C([H])([H])C2([H])[H])C3([H])[H])c1[H]

$$$$
89:0:0
     RDKit          3D

 93101  0  0  1  0  0  0  0  0999 V2000
  -28.7830  -19.4680   21.6240 C   0  0  0  0  0  3  0  0  0  0  0  0
  -28.7650  -19.1160   20.2500 C   0  0  0  0  0  0  0  0  0  0  0  0
  -27.8290  -21.1990   19.7830 C   0  0  0  0  0  0  0  0  0  0  0  0
  -27.9880  -21.5880   21.1460 C   0  0  0  0  0  0  0  0  0  0  0  0
  -27.2610  -22.1280   18.7220 C   0  0  0  0  0  1  0  0  0  0  0  0
  -28.4290  -20.6970   22.0710 N   0  0  0  0  0  0  0  0  0  0  0  0
  -28.2440  -19.9800   19.3390 N   0  0  0  0  0  0  0  0  0  0  0  0
  -29.4630  -17.8580   19.6810 C   0  0  0  0  0  2  0  0  0  0  0  0
  -29.8500  -16.6930   20.6450 C   0  0  0  0  0  2  0  0  0  0  0  0
  -31.4350  -14.8670   19.6370 C   0  0  0  0  0  0  0  0  0  0  0  0
  -31.0010  -12.5690   18.8430 C   0  0  0  0  0  2  0  0  0  0  0  0
  -30.0190  -12.6160   17.6560 C   0  0  0  0  0  2  0  0  0  0  0  0
  -28.5640  -12.5380   18.1610 C   0  0  0  0  0  2  0  0  0  0  0  0
  -28.2960  -13.5210   19.3360 C   0  0  0  0  0  3  0  0  0  0  0  0
  -29.4160  -13.4410   20.4020 C   0  0  0  0  0  2  0  0  0  0  0  0
  -30.6910  -13.7140   19.7330 N   0  0  0  0  0  0  0  0  0  0  0  0
  -32.4750  -14.8360   18.9580 O   0  0  0  0  0  0  0  0  0  0  0  0
  -31.1580  -16.0450   20.3140 N   0  0  0  0  0  0  0  0  0  0  0  0
  -26.0480  -14.2520   20.3350 C   0  0  0  0  0  0  0  0  0  0  0  0
  -24.9580  -13.5400   20.7490 C   0  0  0  0  0  0  0  0  0  0  0  0
  -25.2880  -12.1610   20.5610 C   0  0  0  0  0  0  0  0  0  0  0  0
  -26.9790  -13.3120   19.9260 N   0  0  0  0  0  0  0  0  0  0  0  0
  -26.5310  -12.0440   20.1150 N   0  0  0  0  0  0  0  0  0  0  0  0
  -24.4700  -10.9520   20.7250 C   0  0  0  0  0  0  0  0  0  0  0  0
  -24.9130   -9.8640   21.5080 C   0  0  0  0  0  3  0  0  0  0  0  0
  -24.1010   -8.7210   21.6690 C   0  0  0  0  0  3  0  0  0  0  0  0
  -22.8310   -8.6590   21.0460 C   0  0  0  0  0  0  0  0  0  0  0  0
  -22.4060   -9.7360   20.2470 C   0  0  0  0  0  3  0  0  0  0  0  0
  -23.2170  -10.8710   20.0850 C   0  0  0  0  0  3  0  0  0  0  0  0
  -21.9870   -7.5780   21.1230 O   0  0  0  0  0  0  0  0  0  0  0  0
  -21.9950   -6.7300   22.2020 C   0  0  0  0  0  0  0  0  0  0  0  0
  -21.7650   -7.1930   23.5160 C   0  0  0  0  0  3  0  0  0  0  0  0
  -21.7210   -6.2790   24.5880 C   0  0  0  0  0  3  0  0  0  0  0  0
  -21.8890   -4.9020   24.3480 C   0  0  0  0  0  0  0  0  0  0  0  0
  -22.1070   -4.4380   23.0390 C   0  0  0  0  0  3  0  0  0  0  0  0
  -22.1600   -5.3500   21.9700 C   0  0  0  0  0  0  0  0  0  0  0  0
  -22.3540   -4.8940   20.7080 F   0  0  0  0  0  0  0  0  0  0  0  0
  -21.8370   -4.0230   25.3750 F   0  0  0  0  0  0  0  0  0  0  0  0
  -23.6460  -14.1060   21.2080 C   0  0  0  0  0  0  0  0  0  0  0  0
  -22.9600  -13.4110   22.1090 N   0  0  0  0  0  0  0  0  0  0  0  0
  -23.2440  -15.1970   20.8060 O   0  0  0  0  0  0  0  0  0  0  0  0
  -23.3030  -12.5330   22.4710 H   0  0  0  0  0  0  0  0  0  0  0  0
  -22.0810  -13.7710   22.4490 H   0  0  0  0  0  0  0  0  0  0  0  0
  -26.3150  -15.6160   20.2550 N   0  0  0  0  0  0  0  0  0  0  0  0
  -25.6090  -16.3050   20.4790 H   0  0  0  0  0  0  0  0  0  0  0  0
  -27.1670  -16.0250   19.8970 H   0  0  0  0  0  0  0  0  0  0  0  0
  -32.1910  -18.3640   21.0600 C   0  0  0  0  0  1  0  0  0  0  0  0
  -32.3090  -17.0080   20.3290 C   0  0  0  0  0  2  0  0  0  0  0  0
  -27.7950  -23.0300   21.6370 C   0  0  0  0  0  2  0  0  0  0  0  0
  -28.8220  -24.0000   20.9990 C   0  0  0  0  0  2  0  0  0  0  0  0
  -28.2600  -25.3980   20.6450 C   0  0  0  0  0  2  0  0  0  0  0  0
  -29.0500  -26.1190   19.5200 C   0  0  0  0  0  2  0  0  0  0  0  0
  -28.8600  -27.5310   19.4010 O   0  0  0  0  0  0  0  0  0  0  0  0
  -24.5570  -31.6870   23.1370 C   0  0  0  0  0  0  0  0  0  0  0  0
  -27.5950  -28.0650   19.4540 C   0  0  0  0  0  0  0  0  0  0  0  0
  -23.4670  -30.3920   21.3370 C   0  0  0  0  0  3  0  0  0  0  0  0
  -25.0460  -29.2510   19.6750 C   0  0  0  0  0  0  0  0  0  0  0  0
  -25.9220  -31.0820   21.1400 C   0  0  0  0  0  2  0  0  0  0  0  0
  -26.1430  -29.8300   20.3210 C   0  0  0  0  0  0  0  0  0  0  0  0
  -27.4210  -29.2510   20.1960 C   0  0  0  0  0  3  0  0  0  0  0  0
  -26.4850  -27.4900   18.7960 C   0  0  0  0  0  3  0  0  0  0  0  0
  -25.2120  -28.0890   18.8970 C   0  0  0  0  0  3  0  0  0  0  0  0
  -23.7030  -29.9280   19.8730 C   0  0  0  0  0  2  0  0  0  0  0  0
  -24.6680  -31.0580   21.9320 N   0  0  0  0  0  0  0  0  0  0  0  0
  -23.4710  -31.7500   23.7300 O   0  0  0  0  0  0  0  0  0  0  0  0
  -22.9770  -29.1730   22.1530 C   0  0  0  0  0  0  0  0  0  0  0  0
  -21.6920  -28.8340   21.9810 N   0  0  0  0  0  0  0  0  0  0  0  0
  -23.7460  -28.5410   22.8820 O   0  0  0  0  0  0  0  0  0  0  0  0
  -21.1340  -29.4270   21.3820 H   0  0  0  0  0  0  0  0  0  0  0  0
  -18.5450  -27.0780   22.1760 C   0  0  0  0  0  0  0  0  0  0  0  0
  -21.0190  -27.6850   22.5870 C   0  0  0  0  0  3  0  0  0  0  0  0
  -21.3780  -26.3780   21.8360 C   0  0  0  0  0  2  0  0  0  0  0  0
  -20.3530  -25.9600   20.7700 C   0  0  0  0  0  2  0  0  0  0  0  0
  -18.9480  -25.8630   21.3520 C   0  0  0  0  0  2  0  0  0  0  0  0
  -19.5170  -27.9400   22.7400 C   0  0  0  0  0  0  0  0  0  0  0  0
  -19.0990  -29.0850   23.4540 C   0  0  0  0  0  3  0  0  0  0  0  0
  -17.7300  -29.3580   23.6160 C   0  0  0  0  0  3  0  0  0  0  0  0
  -16.7650  -28.4920   23.0710 C   0  0  0  0  0  3  0  0  0  0  0  0
  -17.1740  -27.3490   22.3520 C   0  0  0  0  0  3  0  0  0  0  0  0
  -25.7790  -32.3730   23.8220 C   0  0  0  0  0  3  0  0  0  0  0  0
  -25.3680  -33.7350   24.1930 N   0  0  0  0  0  0  0  0  0  0  0  0
  -25.6770  -34.8350   23.5010 C   0  0  0  0  0  0  0  0  0  0  0  0
  -26.4110  -34.8240   22.5050 O   0  0  0  0  0  0  0  0  0  0  0  0
  -24.7130  -33.8110   24.9610 H   0  0  0  0  0  0  0  0  0  0  0  0
  -23.8640  -36.5400   23.1150 C   0  0  0  0  0  1  0  0  0  0  0  0
  -25.0780  -36.1780   23.9850 C   0  0  0  0  0  3  0  0  0  0  0  0
  -27.1120  -37.1340   24.9730 C   0  0  0  0  0  1  0  0  0  0  0  0
  -26.0550  -37.2920   23.9760 N   0  0  0  0  0  0  0  0  0  0  0  0
  -25.5900  -38.1800   24.1410 H   0  0  0  0  0  0  0  0  0  0  0  0
  -26.3030  -31.5880   25.0850 C   0  0  1  0  0  0  0  0  0  0  0  0
  -25.2060  -31.2690   26.1280 C   0  0  0  0  0  1  0  0  0  0  0  0
  -26.9420  -30.2480   24.6520 C   0  0  0  0  0  1  0  0  0  0  0  0
  -27.4120  -32.4040   25.7890 C   0  0  0  0  0  1  0  0  0  0  0  0
  1  6  1  0
  2  1  2  0
  3  4  1  0
  4 49  1  0
  4  6  2  0
  5  3  1  0
  7  3  2  0
  7  2  1  0
  8  2  1  0
  8  9  1  0
 10 16  1  0
 10 18  1  0
 11 16  1  0
 12 13  1  0
 12 11  1  0
 14 13  1  0
 14 22  1  0
 14 15  1  0
 16 15  1  0
 17 10  2  0
 18 48  1  0
 18  9  1  0
 19 20  2  0
 20 39  1  0
 21 24  1  0
 21 20  1  0
 22 23  1  0
 22 19  1  0
 23 21  2  0
 24 25  1  0
 25 26  2  0
 27 30  1  0
 27 26  1  0
 28 27  2  0
 29 28  1  0
 29 24  2  0
 30 31  1  0
 31 32  1  0
 32 33  2  0
 34 33  1  0
 34 38  1  0
 35 34  2  0
 36 31  2  0
 36 35  1  0
 37 36  1  0
 39 40  1  0
 40 43  1  0
 40 42  1  0
 41 39  2  0
 44 19  1  0
 44 45  1  0
 46 44  1  0
 48 47  1  0
 50 49  1  0
 51 50  1  0
 52 51  1  0
 53 55  1  0
 53 52  1  0
 54 65  2  0
 55 60  1  0
 56 64  1  0
 56 66  1  0
 57 63  1  0
 57 59  1  0
 58 64  1  0
 59 58  1  0
 60 59  2  0
 61 62  1  0
 61 55  2  0
 62 57  2  0
 63 56  1  0
 64 54  1  0
 66 68  2  0
 67 66  1  0
 69 67  1  0
 70 79  2  0
 70 75  1  0
 71 67  1  0
 71 75  1  0
 72 71  1  0
 73 74  1  0
 73 72  1  0
 74 70  1  0
 75 76  2  0
 76 77  1  0
 78 77  2  0
 79 78  1  0
 80 54  1  0
 80 81  1  0
 80 90  1  0
 81 84  1  0
 82 86  1  0
 82 81  1  0
 83 82  2  0
 86 85  1  0
 88 86  1  0
 88 89  1  0
 88 87  1  0
 90 93  1  1
 90 91  1  0
 92 90  1  0
M  ISO  4  10 100  18 100  52 101  53 101
M  END
>  <TORSDO>  (87) 
F 23

>  <SCORE>  (87) 
-8.562

>  <name>  (87) 
89

>  <ligand_id>  (87) 
89

>  <original_smiles>  (87) 
[H]c1nc(C([H])([H])C([H])([H])C([H])([H])C([H])([H])Oc2c([H])c([H])c3c(c2[H])C([H])([H])N(C(=O)C([H])(N([H])C(=O)C([H])(N([H])C([H])([H])[H])C([H])([H])[H])C(C([H])([H])[H])(C([H])([H])[H])C([H])([H])[H])C([H])(C(=O)N([H])C2([H])c4c([H])c([H])c([H])c([H])c4C([H])([H])C([H])([H])C2([H])[H])C3([H])[H])c(C([H])([H])[H])nc1C([H])([H])C([H])([H])N(C(=O)N1C([H])([H])C([H])([H])C([H])([H])C([H])(n2nc(-c3c([H])c([H])c(Oc4c([H])c([H])c(F)c([H])c4F)c([H])c3[H])c(C(=O)N([H])[H])c2N([H])[H])C1([H])[H])C([H])([H])C([H])([H])[H]

>  <smiles>  (87) 
[H]c1nc(C([H])([H])C([H])([H])C([H])([H])C([H])([H])Oc2c([H])c([H])c3c(c2[H])C([H])([H])N(C(=O)C([H])(N([H])C(=O)C([H])(N([H])C([H])([H])[H])C([H])([H])[H])C(C([H])([H])[H])(C([H])([H])[H])C([H])([H])[H])C([H])(C(=O)N([H])C2([H])c4c([H])c([H])c([H])c([H])c4C([H])([H])C([H])([H])C2([H])[H])C3([H])[H])c(C([H])([H])[H])nc1C([H])([H])C([H])([H])N(C(=O)N1C([H])([H])C([H])([H])C([H])([H])C([H])(n2nc(-c3c([H])c([H])c(Oc4c([H])c([H])c(F)c([H])c4F)c([H])c3[H])c(C(=O)N([H])[H])c2N([H])[H])C1([H])[H])C([H])([H])C([H])([H])[H]

$$$$
90:0:0
     RDKit          3D

 92100  0  0  1  0  0  0  0  0999 V2000
  -28.5020  -20.1290   20.1410 C   0  0  0  0  0  3  0  0  0  0  0  0
  -29.6550  -19.3040   20.2180 C   0  0  0  0  0  0  0  0  0  0  0  0
  -30.9730  -21.2130   20.1540 C   0  0  0  0  0  0  0  0  0  0  0  0
  -29.8160  -22.0330   20.0240 C   0  0  0  0  0  0  0  0  0  0  0  0
  -32.3760  -21.7890   20.1600 C   0  0  0  0  0  1  0  0  0  0  0  0
  -28.5770  -21.4810   20.0400 N   0  0  0  0  0  0  0  0  0  0  0  0
  -30.8950  -19.8580   20.2400 N   0  0  0  0  0  0  0  0  0  0  0  0
  -29.9520  -17.3520   18.6530 C   0  0  0  0  0  1  0  0  0  0  0  0
  -29.5420  -17.7740   20.0750 C   0  0  0  0  0  3  0  0  0  0  0  0
  -30.2780  -16.9320   21.1630 C   0  0  0  0  0  2  0  0  0  0  0  0
  -30.6490  -14.4970   20.5590 C   0  0  0  0  0  0  0  0  0  0  0  0
  -30.3640  -12.3570   19.3620 C   0  0  0  0  0  2  0  0  0  0  0  0
  -29.4360  -12.5900   18.1500 C   0  0  0  0  0  2  0  0  0  0  0  0
  -27.9560  -12.4530   18.5560 C   0  0  0  0  0  2  0  0  0  0  0  0
  -27.6070  -13.2670   19.8300 C   0  0  0  0  0  3  0  0  0  0  0  0
  -28.6450  -13.0140   20.9470 C   0  0  0  0  0  2  0  0  0  0  0  0
  -29.9800  -13.3220   20.4040 N   0  0  0  0  0  0  0  0  0  0  0  0
  -31.7780  -14.6930   20.0980 O   0  0  0  0  0  0  0  0  0  0  0  0
  -29.9310  -15.4940   21.1060 N   0  0  0  0  0  0  0  0  0  0  0  0
  -29.0150  -15.2400   21.4450 H   0  0  0  0  0  0  0  0  0  0  0  0
  -25.1980  -13.8860   20.4870 C   0  0  0  0  0  0  0  0  0  0  0  0
  -24.1220  -13.1190   20.8430 C   0  0  0  0  0  0  0  0  0  0  0  0
  -24.5790  -11.7670   20.8280 C   0  0  0  0  0  0  0  0  0  0  0  0
  -26.2450  -13.0000   20.2830 N   0  0  0  0  0  0  0  0  0  0  0  0
  -25.8750  -11.7200   20.5430 N   0  0  0  0  0  0  0  0  0  0  0  0
  -23.8470  -10.5070   21.0140 C   0  0  0  0  0  0  0  0  0  0  0  0
  -24.2620   -9.5450   21.9600 C   0  0  0  0  0  3  0  0  0  0  0  0
  -23.5320   -8.3490   22.1340 C   0  0  0  0  0  3  0  0  0  0  0  0
  -22.3720   -8.1080   21.3600 C   0  0  0  0  0  0  0  0  0  0  0  0
  -21.9760   -9.0580   20.4030 C   0  0  0  0  0  3  0  0  0  0  0  0
  -22.7060  -10.2460   20.2290 C   0  0  0  0  0  3  0  0  0  0  0  0
  -21.6160   -6.9640   21.4420 O   0  0  0  0  0  0  0  0  0  0  0  0
  -21.5470   -6.2260   22.5980 C   0  0  0  0  0  0  0  0  0  0  0  0
  -21.0970   -6.7870   23.8130 C   0  0  0  0  0  3  0  0  0  0  0  0
  -20.9760   -5.9760   24.9590 C   0  0  0  0  0  3  0  0  0  0  0  0
  -21.2940   -4.6050   24.8900 C   0  0  0  0  0  0  0  0  0  0  0  0
  -21.7360   -4.0460   23.6790 C   0  0  0  0  0  3  0  0  0  0  0  0
  -21.8590   -4.8540   22.5350 C   0  0  0  0  0  0  0  0  0  0  0  0
  -22.2650   -4.3050   21.3640 F   0  0  0  0  0  0  0  0  0  0  0  0
  -21.1710   -3.8240   25.9880 F   0  0  0  0  0  0  0  0  0  0  0  0
  -22.7210  -13.6010   21.0880 C   0  0  0  0  0  0  0  0  0  0  0  0
  -21.9760  -12.9100   21.9430 N   0  0  0  0  0  0  0  0  0  0  0  0
  -22.2950  -14.6260   20.5560 O   0  0  0  0  0  0  0  0  0  0  0  0
  -22.3330  -12.0810   22.3950 H   0  0  0  0  0  0  0  0  0  0  0  0
  -21.0340  -13.2140   22.1500 H   0  0  0  0  0  0  0  0  0  0  0  0
  -25.3700  -15.2550   20.3010 N   0  0  0  0  0  0  0  0  0  0  0  0
  -24.5990  -15.9090   20.3810 H   0  0  0  0  0  0  0  0  0  0  0  0
  -26.2220  -15.6870   19.9700 H   0  0  0  0  0  0  0  0  0  0  0  0
  -29.8740  -23.5470   19.7540 C   0  0  0  0  0  2  0  0  0  0  0  0
  -29.4110  -24.4480   20.9300 C   0  0  0  0  0  2  0  0  0  0  0  0
  -28.1350  -25.2830   20.6670 C   0  0  0  0  0  2  0  0  0  0  0  0
  -28.3660  -26.6580   20.2860 O   0  0  0  0  0  0  0  0  0  0  0  0
  -24.5640  -31.9150   23.2660 C   0  0  0  0  0  0  0  0  0  0  0  0
  -27.2180  -27.4300   20.2400 C   0  0  0  0  0  0  0  0  0  0  0  0
  -23.3680  -30.4990   21.6300 C   0  0  0  0  0  3  0  0  0  0  0  0
  -24.8280  -28.9550   20.2230 C   0  0  0  0  0  0  0  0  0  0  0  0
  -25.8980  -30.8520   21.4450 C   0  0  0  0  0  2  0  0  0  0  0  0
  -25.9870  -29.4780   20.8120 C   0  0  0  0  0  0  0  0  0  0  0  0
  -27.1870  -28.7250   20.8130 C   0  0  0  0  0  3  0  0  0  0  0  0
  -26.0400  -26.9350   19.6320 C   0  0  0  0  0  3  0  0  0  0  0  0
  -24.8520  -27.6850   19.6270 C   0  0  0  0  0  3  0  0  0  0  0  0
  -23.5840  -29.8150   20.2570 C   0  0  0  0  0  2  0  0  0  0  0  0
  -24.6280  -31.1040   22.1720 N   0  0  0  0  0  0  0  0  0  0  0  0
  -23.4780  -32.1920   23.7960 O   0  0  0  0  0  0  0  0  0  0  0  0
  -22.7110  -29.4840   22.5940 C   0  0  0  0  0  0  0  0  0  0  0  0
  -21.3890  -29.2930   22.4520 N   0  0  0  0  0  0  0  0  0  0  0  0
  -23.3880  -28.8720   23.4230 O   0  0  0  0  0  0  0  0  0  0  0  0
  -20.9050  -29.8400   21.7540 H   0  0  0  0  0  0  0  0  0  0  0  0
  -18.0130  -28.0910   22.9230 C   0  0  0  0  0  0  0  0  0  0  0  0
  -20.5670  -28.3610   23.2230 C   0  0  0  0  0  3  0  0  0  0  0  0
  -20.6810  -26.9240   22.6630 C   0  0  0  0  0  2  0  0  0  0  0  0
  -19.5920  -26.5860   21.6400 C   0  0  0  0  0  2  0  0  0  0  0  0
  -18.2020  -26.7350   22.2670 C   0  0  0  0  0  2  0  0  0  0  0  0
  -19.1230  -28.8610   23.3580 C   0  0  0  0  0  0  0  0  0  0  0  0
  -18.8940  -30.1320   23.9300 C   0  0  0  0  0  3  0  0  0  0  0  0
  -17.5860  -30.6310   24.0730 C   0  0  0  0  0  3  0  0  0  0  0  0
  -16.4900  -29.8570   23.6560 C   0  0  0  0  0  3  0  0  0  0  0  0
  -16.7030  -28.5900   23.0870 C   0  0  0  0  0  3  0  0  0  0  0  0
  -25.8450  -32.5510   23.8890 C   0  0  0  0  0  3  0  0  0  0  0  0
  -25.5360  -33.9530   24.1980 N   0  0  0  0  0  0  0  0  0  0  0  0
  -25.8850  -34.9950   23.4320 C   0  0  0  0  0  0  0  0  0  0  0  0
  -26.5710  -34.8770   22.4120 O   0  0  0  0  0  0  0  0  0  0  0  0
  -24.9290  -34.1190   24.9860 H   0  0  0  0  0  0  0  0  0  0  0  0
  -24.1780  -36.7930   23.0150 C   0  0  0  0  0  1  0  0  0  0  0  0
  -25.3940  -36.3890   23.8630 C   0  0  0  0  0  3  0  0  0  0  0  0
  -27.5110  -37.2680   24.7430 C   0  0  0  0  0  1  0  0  0  0  0  0
  -26.4360  -37.4350   23.7680 N   0  0  0  0  0  0  0  0  0  0  0  0
  -26.0330  -38.3590   23.8960 H   0  0  0  0  0  0  0  0  0  0  0  0
  -26.3510  -31.7930   25.1770 C   0  0  1  0  0  0  0  0  0  0  0  0
  -25.2500  -31.5680   26.2380 C   0  0  0  0  0  1  0  0  0  0  0  0
  -26.9360  -30.4120   24.8020 C   0  0  0  0  0  1  0  0  0  0  0  0
  -27.4980  -32.5940   25.8380 C   0  0  0  0  0  1  0  0  0  0  0  0
  1  2  1  0
  2  7  2  0
  3  5  1  0
  3  7  1  0
  4  6  1  0
  4  3  2  0
  6  1  2  0
  9  8  1  0
  9  2  1  0
  9 10  1  0
 11 19  1  0
 12 17  1  0
 13 14  1  0
 13 12  1  0
 15 14  1  0
 15 24  1  0
 15 16  1  0
 17 11  1  0
 17 16  1  0
 18 11  2  0
 19 10  1  0
 19 20  1  0
 21 22  2  0
 22 41  1  0
 23 22  1  0
 23 26  1  0
 24 21  1  0
 24 25  1  0
 25 23  2  0
 26 27  1  0
 27 28  2  0
 29 32  1  0
 29 28  1  0
 30 29  2  0
 31 30  1  0
 31 26  2  0
 32 33  1  0
 33 34  1  0
 34 35  2  0
 36 35  1  0
 36 40  1  0
 37 36  2  0
 38 33  2  0
 38 37  1  0
 39 38  1  0
 41 42  1  0
 42 45  1  0
 42 44  1  0
 43 41  2  0
 46 47  1  0
 46 21  1  0
 48 46  1  0
 49  4  1  0
 49 50  1  0
 51 50  1  0
 52 51  1  0
 53 64  2  0
 54 52  1  0
 54 59  1  0
 55 63  1  0
 55 65  1  0
 56 62  1  0
 56 58  1  0
 57 63  1  0
 58 59  2  0
 58 57  1  0
 60 54  2  0
 61 60  1  0
 61 56  2  0
 62 55  1  0
 63 53  1  0
 65 67  2  0
 66 65  1  0
 68 66  1  0
 69 78  2  0
 69 74  1  0
 70 66  1  0
 70 74  1  0
 71 70  1  0
 72 73  1  0
 72 71  1  0
 73 69  1  0
 74 75  2  0
 75 76  1  0
 77 76  2  0
 78 77  1  0
 79 53  1  0
 79 80  1  0
 79 89  1  0
 80 83  1  0
 81 85  1  0
 81 80  1  0
 82 81  2  0
 85 84  1  0
 87 85  1  0
 87 88  1  0
 87 86  1  0
 89 92  1  1
 89 90  1  0
 91 89  1  0
M  ISO  4  11 100  19 100  51 101  52 101
M  END
>  <TORSDO>  (88) 
F 21

>  <SCORE>  (88) 
-13.674

>  <name>  (88) 
90

>  <ligand_id>  (88) 
90

>  <original_smiles>  (88) 
[H]c1nc(C([H])([H])C([H])([H])C([H])([H])Oc2c([H])c([H])c3c(c2[H])C([H])([H])N(C(=O)C([H])(N([H])C(=O)C([H])(N([H])C([H])([H])[H])C([H])([H])[H])C(C([H])([H])[H])(C([H])([H])[H])C([H])([H])[H])C([H])(C(=O)N([H])C2([H])c4c([H])c([H])c([H])c([H])c4C([H])([H])C([H])([H])C2([H])[H])C3([H])[H])c(C([H])([H])[H])nc1C([H])(C([H])([H])[H])C([H])([H])N([H])C(=O)N1C([H])([H])C([H])([H])C([H])([H])C([H])(n2nc(-c3c([H])c([H])c(Oc4c([H])c([H])c(F)c([H])c4F)c([H])c3[H])c(C(=O)N([H])[H])c2N([H])[H])C1([H])[H]

>  <smiles>  (88) 
[H]c1nc(C([H])([H])C([H])([H])C([H])([H])Oc2c([H])c([H])c3c(c2[H])C([H])([H])N(C(=O)C([H])(N([H])C(=O)C([H])(N([H])C([H])([H])[H])C([H])([H])[H])C(C([H])([H])[H])(C([H])([H])[H])C([H])([H])[H])C([H])(C(=O)N([H])C2([H])c4c([H])c([H])c([H])c([H])c4C([H])([H])C([H])([H])C2([H])[H])C3([H])[H])c(C([H])([H])[H])nc1C([H])(C([H])([H])[H])C([H])([H])N([H])C(=O)N1C([H])([H])C([H])([H])C([H])([H])C([H])(n2nc(-c3c([H])c([H])c(Oc4c([H])c([H])c(F)c([H])c4F)c([H])c3[H])c(C(=O)N([H])[H])c2N([H])[H])C1([H])[H]

$$$$
91:0:0
     RDKit          3D

 94102  0  0  1  0  0  0  0  0999 V2000
  -28.0670  -23.3110   21.1080 C   0  0  0  0  0  2  0  0  0  0  0  0
  -28.7830  -22.2960   21.7730 C   0  0  0  0  0  3  0  0  0  0  0  0
  -28.5880  -23.4060   19.8400 C   0  0  0  0  0  3  0  0  0  0  0  0
  -28.6690  -21.8540   23.2030 C   0  0  0  0  0  1  0  0  0  0  0  0
  -29.6230  -21.7040   20.9620 N   0  0  0  0  0  2  0  0  0  0  0  0
  -29.4280  -22.2140   19.7210 N   0  0  0  0  0  0  0  0  0  0  0  0
  -28.1390  -24.5640   18.8560 C   0  0  0  0  0  2  0  0  0  0  0  0
  -28.1980  -26.5260   20.6860 C   0  0  0  0  0  1  0  0  0  0  0  0
  -28.4190  -26.1620   19.1990 C   0  0  1  0  0  0  0  0  0  0  0  0
  -30.3870  -26.3650   17.4720 C   0  0  0  0  0  1  0  0  0  0  0  0
  -29.9290  -26.4170   18.9420 C   0  0  0  0  0  2  0  0  0  0  0  0
  -27.8100  -27.2820   18.3930 O   0  0  0  0  0  0  0  0  0  0  0  0
  -24.6180  -31.6750   23.2250 C   0  0  0  0  0  0  0  0  0  0  0  0
  -26.6960  -28.0410   18.8090 C   0  0  0  0  0  0  0  0  0  0  0  0
  -23.1560  -30.6170   21.5390 C   0  0  0  0  0  3  0  0  0  0  0  0
  -24.3470  -29.4970   19.5660 C   0  0  0  0  0  0  0  0  0  0  0  0
  -25.6140  -31.1050   20.9950 C   0  0  0  0  0  2  0  0  0  0  0  0
  -25.5970  -29.9060   20.0480 C   0  0  0  0  0  0  0  0  0  0  0  0
  -26.7750  -29.1950   19.6570 C   0  0  0  0  0  3  0  0  0  0  0  0
  -25.4220  -27.6870   18.3230 C   0  0  0  0  0  3  0  0  0  0  0  0
  -24.2610  -28.3970   18.6950 C   0  0  0  0  0  3  0  0  0  0  0  0
  -23.1270  -30.2760   20.0250 C   0  0  0  0  0  2  0  0  0  0  0  0
  -24.4910  -31.1380   21.9760 N   0  0  0  0  0  0  0  0  0  0  0  0
  -23.6460  -31.7670   23.9890 O   0  0  0  0  0  0  0  0  0  0  0  0
  -22.6900  -29.3780   22.3420 C   0  0  0  0  0  0  0  0  0  0  0  0
  -21.3980  -29.0280   22.2200 N   0  0  0  0  0  0  0  0  0  0  0  0
  -23.4880  -28.7410   23.0340 O   0  0  0  0  0  0  0  0  0  0  0  0
  -20.8020  -29.6050   21.6430 H   0  0  0  0  0  0  0  0  0  0  0  0
  -18.3240  -27.1280   22.3960 C   0  0  0  0  0  0  0  0  0  0  0  0
  -20.7590  -27.8700   22.8490 C   0  0  0  0  0  3  0  0  0  0  0  0
  -21.1800  -26.5550   22.1510 C   0  0  0  0  0  2  0  0  0  0  0  0
  -20.2130  -26.1230   21.0440 C   0  0  0  0  0  2  0  0  0  0  0  0
  -18.8050  -25.9190   21.6110 C   0  0  0  0  0  2  0  0  0  0  0  0
  -19.2410  -28.0520   22.9640 C   0  0  0  0  0  0  0  0  0  0  0  0
  -18.7390  -29.1770   23.6540 C   0  0  0  0  0  3  0  0  0  0  0  0
  -17.3530  -29.3830   23.7840 C   0  0  0  0  0  3  0  0  0  0  0  0
  -16.4500  -28.4570   23.2330 C   0  0  0  0  0  3  0  0  0  0  0  0
  -16.9360  -27.3310   22.5450 C   0  0  0  0  0  3  0  0  0  0  0  0
  -25.9840  -32.2190   23.7460 C   0  0  0  0  0  3  0  0  0  0  0  0
  -25.7490  -33.5650   24.2890 N   0  0  0  0  0  0  0  0  0  0  0  0
  -26.0520  -34.7060   23.6570 C   0  0  0  0  0  0  0  0  0  0  0  0
  -26.6290  -34.7330   22.5660 O   0  0  0  0  0  0  0  0  0  0  0  0
  -25.2270  -33.6200   25.1520 H   0  0  0  0  0  0  0  0  0  0  0  0
  -24.3750  -36.5810   23.6910 C   0  0  0  0  0  1  0  0  0  0  0  0
  -25.6530  -36.0270   24.3420 C   0  0  0  0  0  3  0  0  0  0  0  0
  -27.8700  -36.7240   25.1350 C   0  0  0  0  0  1  0  0  0  0  0  0
  -26.7150  -37.0550   24.3040 N   0  0  0  0  0  0  0  0  0  0  0  0
  -26.3560  -37.9570   24.6060 H   0  0  0  0  0  0  0  0  0  0  0  0
  -26.6490  -31.2890   24.8340 C   0  0  1  0  0  0  0  0  0  0  0  0
  -25.6940  -30.9010   25.9870 C   0  0  0  0  0  1  0  0  0  0  0  0
  -27.1690  -29.9810   24.1920 C   0  0  0  0  0  1  0  0  0  0  0  0
  -27.8780  -31.9990   25.4490 C   0  0  0  0  0  1  0  0  0  0  0  0
  -30.2320  -21.4670   18.6590 C   0  0  0  0  0  2  0  0  0  0  0  0
  -28.8840  -19.1250   18.8420 C   0  0  0  0  0  1  0  0  0  0  0  0
  -30.2360  -19.8090   18.5700 C   0  0  0  0  0  3  0  0  0  0  0  0
  -31.4260  -18.9250   19.2420 C   0  0  0  0  0  2  0  0  0  0  0  0
  -32.0220  -16.4390   19.9550 C   0  0  0  0  0  0  0  0  0  0  0  0
  -32.1030  -13.9410   19.8400 C   0  0  0  0  0  2  0  0  0  0  0  0
  -31.3260  -13.4620   18.5940 C   0  0  0  0  0  2  0  0  0  0  0  0
  -29.8260  -13.3070   18.9150 C   0  0  0  0  0  2  0  0  0  0  0  0
  -29.2450  -14.5300   19.6720 C   0  0  0  0  0  3  0  0  0  0  0  0
  -30.1550  -14.9620   20.8430 C   0  0  0  0  0  2  0  0  0  0  0  0
  -31.4910  -15.2130   20.2850 N   0  0  0  0  0  0  0  0  0  0  0  0
  -33.2280  -16.5470   19.7180 O   0  0  0  0  0  0  0  0  0  0  0  0
  -31.1510  -17.4870   19.7030 N   0  0  0  0  0  0  0  0  0  0  0  0
  -30.1820  -17.2730   19.8780 H   0  0  0  0  0  0  0  0  0  0  0  0
  -26.8490  -15.2200   20.2840 C   0  0  0  0  0  0  0  0  0  0  0  0
  -25.7410  -14.4920   20.6150 C   0  0  0  0  0  0  0  0  0  0  0  0
  -26.1530  -13.1240   20.6150 C   0  0  0  0  0  0  0  0  0  0  0  0
  -27.8700  -14.3000   20.1030 N   0  0  0  0  0  0  0  0  0  0  0  0
  -27.4540  -13.0340   20.3650 N   0  0  0  0  0  0  0  0  0  0  0  0
  -25.3690  -11.8930   20.7800 C   0  0  0  0  0  0  0  0  0  0  0  0
  -25.5770  -11.0260   21.8750 C   0  0  0  0  0  3  0  0  0  0  0  0
  -24.7960   -9.8590   22.0220 C   0  0  0  0  0  3  0  0  0  0  0  0
  -23.7930   -9.5510   21.0710 C   0  0  0  0  0  0  0  0  0  0  0  0
  -23.6080  -10.4060   19.9700 C   0  0  0  0  0  3  0  0  0  0  0  0
  -24.3880  -11.5650   19.8220 C   0  0  0  0  0  3  0  0  0  0  0  0
  -23.0030   -8.4280   21.1180 O   0  0  0  0  0  0  0  0  0  0  0  0
  -22.5050   -7.9500   22.3040 C   0  0  0  0  0  0  0  0  0  0  0  0
  -21.6470   -8.7220   23.1180 C   0  0  0  0  0  3  0  0  0  0  0  0
  -21.1020   -8.1670   24.2920 C   0  0  0  0  0  3  0  0  0  0  0  0
  -21.4040   -6.8390   24.6500 C   0  0  0  0  0  0  0  0  0  0  0  0
  -22.2530   -6.0670   23.8380 C   0  0  0  0  0  3  0  0  0  0  0  0
  -22.8000   -6.6210   22.6660 C   0  0  0  0  0  0  0  0  0  0  0  0
  -23.6000   -5.8650   21.8760 F   0  0  0  0  0  0  0  0  0  0  0  0
  -20.8750   -6.3020   25.7740 F   0  0  0  0  0  0  0  0  0  0  0  0
  -24.3520  -15.0260   20.8180 C   0  0  0  0  0  0  0  0  0  0  0  0
  -23.5630  -14.3730   21.6620 N   0  0  0  0  0  0  0  0  0  0  0  0
  -23.9770  -16.0590   20.2650 O   0  0  0  0  0  0  0  0  0  0  0  0
  -23.8780  -13.5360   22.1310 H   0  0  0  0  0  0  0  0  0  0  0  0
  -22.6290  -14.7120   21.8430 H   0  0  0  0  0  0  0  0  0  0  0  0
  -27.0680  -16.5810   20.0950 N   0  0  0  0  0  0  0  0  0  0  0  0
  -26.3140  -17.2570   20.1560 H   0  0  0  0  0  0  0  0  0  0  0  0
  -27.9240  -16.9790   19.7350 H   0  0  0  0  0  0  0  0  0  0  0  0
  1  2  1  0
  2  4  1  0
  3  7  1  0
  3  1  1  0
  5  2  1  0
  6  3  1  0
  6  5  1  0
  7  9  1  0
  9  8  1  1
 10 11  1  0
 11  9  1  0
 12 14  1  0
 12  9  1  0
 13 24  2  0
 14 19  1  0
 15 23  1  0
 15 25  1  0
 16 22  1  0
 16 18  1  0
 17 23  1  0
 18 17  1  0
 19 18  2  0
 20 21  1  0
 20 14  2  0
 21 16  2  0
 22 15  1  0
 23 13  1  0
 25 27  2  0
 26 25  1  0
 28 26  1  0
 29 38  2  0
 29 34  1  0
 30 26  1  0
 30 34  1  0
 31 30  1  0
 32 33  1  0
 32 31  1  0
 33 29  1  0
 34 35  2  0
 35 36  1  0
 37 36  2  0
 38 37  1  0
 39 13  1  0
 39 40  1  0
 39 49  1  0
 40 43  1  0
 41 40  1  0
 41 45  1  0
 42 41  2  0
 45 44  1  0
 47 45  1  0
 47 48  1  0
 47 46  1  0
 49 52  1  1
 49 50  1  0
 51 49  1  0
 53  6  1  0
 55 53  1  0
 55 54  1  0
 55 56  1  0
 56 65  1  0
 57 63  1  0
 58 63  1  0
 59 60  1  0
 59 58  1  0
 61 60  1  0
 61 70  1  0
 61 62  1  0
 63 62  1  0
 64 57  2  0
 65 66  1  0
 65 57  1  0
 67 68  2  0
 68 87  1  0
 69 68  1  0
 69 72  1  0
 70 67  1  0
 70 71  1  0
 71 69  2  0
 72 73  1  0
 73 74  2  0
 75 78  1  0
 75 74  1  0
 76 75  2  0
 77 76  1  0
 77 72  2  0
 78 79  1  0
 79 84  2  0
 79 80  1  0
 80 81  2  0
 81 82  1  0
 82 86  1  0
 83 82  2  0
 84 83  1  0
 85 84  1  0
 87 88  1  0
 88 91  1  0
 88 90  1  0
 89 87  2  0
 92 93  1  0
 92 67  1  0
 94 92  1  0
M  ISO  4   9 101  12 101  57 100  65 100
M  END
>  <TORSDO>  (89) 
F 22

>  <SCORE>  (89) 
-7.135

>  <name>  (89) 
91

>  <ligand_id>  (89) 
91

>  <original_smiles>  (89) 
[H]c1c([H])c([H])c2c(c1[H])C([H])([H])C([H])([H])C([H])([H])C2([H])N([H])C(=O)C1([H])N(C(=O)C([H])(N([H])C(=O)C([H])(N([H])C([H])([H])[H])C([H])([H])[H])C(C([H])([H])[H])(C([H])([H])[H])C([H])([H])[H])C([H])([H])c2c([H])c(OC(C([H])([H])[H])(C([H])([H])c3c([H])c(C([H])([H])[H])nn3C([H])([H])C([H])(C([H])([H])[H])C([H])([H])N([H])C(=O)N3C([H])([H])C([H])([H])C([H])([H])C([H])(n4nc(-c5c([H])c([H])c(Oc6c([H])c([H])c(F)c([H])c6F)c([H])c5[H])c(C(=O)N([H])[H])c4N([H])[H])C3([H])[H])C([H])([H])C([H])([H])[H])c([H])c([H])c2C1([H])[H]

>  <smiles>  (89) 
[H]c1c([H])c([H])c2c(c1[H])C([H])([H])C([H])([H])C([H])([H])C2([H])N([H])C(=O)C1([H])N(C(=O)C([H])(N([H])C(=O)C([H])(N([H])C([H])([H])[H])C([H])([H])[H])C(C([H])([H])[H])(C([H])([H])[H])C([H])([H])[H])C([H])([H])c2c([H])c(OC(C([H])([H])[H])(C([H])([H])c3c([H])c(C([H])([H])[H])nn3C([H])([H])C([H])(C([H])([H])[H])C([H])([H])N([H])C(=O)N3C([H])([H])C([H])([H])C([H])([H])C([H])(n4nc(-c5c([H])c([H])c(Oc6c([H])c([H])c(F)c([H])c6F)c([H])c5[H])c(C(=O)N([H])[H])c4N([H])[H])C3([H])[H])C([H])([H])C([H])([H])[H])c([H])c([H])c2C1([H])[H]

$$$$
92:0:0
     RDKit          3D

 88 95  0  0  1  0  0  0  0  0999 V2000
  -29.3410  -21.3130   19.8360 C   0  0  0  0  0  0  0  0  0  0  0  0
  -29.4510  -22.5880   20.3780 C   0  0  0  0  0  0  0  0  0  0  0  0
  -28.5380  -21.0630   18.5710 C   0  0  0  0  0  1  0  0  0  0  0  0
  -30.2970  -22.8300   21.6210 C   0  0  0  0  0  1  0  0  0  0  0  0
  -30.0670  -20.0010   20.3620 C   0  0  0  0  0  2  0  0  0  0  0  0
  -29.4970  -18.5190   20.1060 C   0  0  0  0  0  2  0  0  0  0  0  0
  -30.5480  -17.3010   20.2020 C   0  0  0  0  0  2  0  0  0  0  0  0
  -30.7340  -14.7330   20.0710 C   0  0  0  0  0  0  0  0  0  0  0  0
  -30.4510  -12.5230   18.9260 C   0  0  0  0  0  2  0  0  0  0  0  0
  -29.4360  -12.6330   17.7650 C   0  0  0  0  0  2  0  0  0  0  0  0
  -27.9900  -12.4490   18.2700 C   0  0  0  0  0  2  0  0  0  0  0  0
  -27.6960  -13.2750   19.5490 C   0  0  0  0  0  3  0  0  0  0  0  0
  -28.8170  -13.0780   20.5870 C   0  0  0  0  0  2  0  0  0  0  0  0
  -30.0740  -13.5210   19.9590 N   0  0  0  0  0  0  0  0  0  0  0  0
  -31.8520  -14.8460   19.5530 O   0  0  0  0  0  0  0  0  0  0  0  0
  -29.4080  -15.8940   21.8240 C   0  0  0  0  0  1  0  0  0  0  0  0
  -30.0720  -15.8840   20.5130 N   0  0  0  0  0  0  0  0  0  0  0  0
  -25.3470  -13.8400   20.4190 C   0  0  0  0  0  0  0  0  0  0  0  0
  -24.3050  -13.0500   20.8250 C   0  0  0  0  0  0  0  0  0  0  0  0
  -24.7690  -11.7020   20.7290 C   0  0  0  0  0  0  0  0  0  0  0  0
  -26.3790  -12.9700   20.1010 N   0  0  0  0  0  0  0  0  0  0  0  0
  -26.0400  -11.6790   20.3460 N   0  0  0  0  0  0  0  0  0  0  0  0
  -24.0590  -10.4310   20.9230 C   0  0  0  0  0  0  0  0  0  0  0  0
  -24.4930   -9.4780   21.8700 C   0  0  0  0  0  3  0  0  0  0  0  0
  -23.7810   -8.2720   22.0510 C   0  0  0  0  0  3  0  0  0  0  0  0
  -22.6200   -8.0130   21.2840 C   0  0  0  0  0  0  0  0  0  0  0  0
  -22.2050   -8.9550   20.3260 C   0  0  0  0  0  3  0  0  0  0  0  0
  -22.9180  -10.1510   20.1430 C   0  0  0  0  0  3  0  0  0  0  0  0
  -21.8800   -6.8580   21.3730 O   0  0  0  0  0  0  0  0  0  0  0  0
  -21.7540   -6.1740   22.5550 C   0  0  0  0  0  0  0  0  0  0  0  0
  -21.2060   -6.7750   23.7100 C   0  0  0  0  0  3  0  0  0  0  0  0
  -21.0320   -6.0140   24.8840 C   0  0  0  0  0  3  0  0  0  0  0  0
  -21.3930   -4.6540   24.9020 C   0  0  0  0  0  0  0  0  0  0  0  0
  -21.9340   -4.0530   23.7520 C   0  0  0  0  0  3  0  0  0  0  0  0
  -22.1100   -4.8100   22.5810 C   0  0  0  0  0  0  0  0  0  0  0  0
  -22.6110   -4.2200   21.4690 F   0  0  0  0  0  0  0  0  0  0  0  0
  -21.2180   -3.9210   26.0270 F   0  0  0  0  0  0  0  0  0  0  0  0
  -22.9230  -13.5130   21.1880 C   0  0  0  0  0  0  0  0  0  0  0  0
  -22.2470  -12.7880   22.0720 N   0  0  0  0  0  0  0  0  0  0  0  0
  -22.4530  -14.5500   20.7230 O   0  0  0  0  0  0  0  0  0  0  0  0
  -22.6380  -11.9470   22.4690 H   0  0  0  0  0  0  0  0  0  0  0  0
  -21.3230  -13.0800   22.3580 H   0  0  0  0  0  0  0  0  0  0  0  0
  -25.4960  -15.2150   20.2730 N   0  0  0  0  0  0  0  0  0  0  0  0
  -24.7390  -15.8660   20.4520 H   0  0  0  0  0  0  0  0  0  0  0  0
  -26.3320  -15.6670   19.9220 H   0  0  0  0  0  0  0  0  0  0  0  0
  -28.8320  -23.9340   19.7940 C   0  0  0  0  0  2  0  0  0  0  0  0
  -28.3900  -25.1440   20.7520 C   0  0  0  0  0  2  0  0  0  0  0  0
  -28.4830  -26.5480   20.2780 O   0  0  0  0  0  0  0  0  0  0  0  0
  -24.6480  -31.9070   23.2830 C   0  0  0  0  0  0  0  0  0  0  0  0
  -27.3380  -27.3560   20.2880 C   0  0  0  0  0  0  0  0  0  0  0  0
  -23.4740  -30.4850   21.6390 C   0  0  0  0  0  3  0  0  0  0  0  0
  -24.9510  -28.9260   20.2510 C   0  0  0  0  0  0  0  0  0  0  0  0
  -26.0080  -30.8290   21.4750 C   0  0  0  0  0  2  0  0  0  0  0  0
  -26.1100  -29.4430   20.8480 C   0  0  0  0  0  0  0  0  0  0  0  0
  -27.3090  -28.6700   20.8500 C   0  0  0  0  0  3  0  0  0  0  0  0
  -26.1570  -26.8820   19.6810 C   0  0  0  0  0  3  0  0  0  0  0  0
  -24.9750  -27.6510   19.6630 C   0  0  0  0  0  3  0  0  0  0  0  0
  -23.7070  -29.7920   20.2700 C   0  0  0  0  0  2  0  0  0  0  0  0
  -24.7290  -31.0900   22.1910 N   0  0  0  0  0  0  0  0  0  0  0  0
  -23.5570  -32.1810   23.8040 O   0  0  0  0  0  0  0  0  0  0  0  0
  -22.8080  -29.4740   22.6040 C   0  0  0  0  0  0  0  0  0  0  0  0
  -21.4820  -29.2960   22.4710 N   0  0  0  0  0  0  0  0  0  0  0  0
  -23.4830  -28.8510   23.4280 O   0  0  0  0  0  0  0  0  0  0  0  0
  -20.9960  -29.8540   21.7830 H   0  0  0  0  0  0  0  0  0  0  0  0
  -18.1030  -28.1090   22.9680 C   0  0  0  0  0  0  0  0  0  0  0  0
  -20.6610  -28.3610   23.2420 C   0  0  0  0  0  3  0  0  0  0  0  0
  -20.7590  -26.9290   22.6660 C   0  0  0  0  0  2  0  0  0  0  0  0
  -19.6570  -26.6100   21.6510 C   0  0  0  0  0  2  0  0  0  0  0  0
  -18.2760  -26.7600   22.2930 C   0  0  0  0  0  2  0  0  0  0  0  0
  -19.2230  -28.8680   23.4000 C   0  0  0  0  0  0  0  0  0  0  0  0
  -19.0070  -30.1310   23.9910 C   0  0  0  0  0  3  0  0  0  0  0  0
  -17.7050  -30.6350   24.1590 C   0  0  0  0  0  3  0  0  0  0  0  0
  -16.5990  -29.8740   23.7420 C   0  0  0  0  0  3  0  0  0  0  0  0
  -16.7990  -28.6140   23.1520 C   0  0  0  0  0  3  0  0  0  0  0  0
  -25.9190  -32.5540   23.9140 C   0  0  0  0  0  3  0  0  0  0  0  0
  -25.5940  -33.9500   24.2390 N   0  0  0  0  0  0  0  0  0  0  0  0
  -25.9240  -35.0050   23.4840 C   0  0  0  0  0  0  0  0  0  0  0  0
  -26.6040  -34.9070   22.4590 O   0  0  0  0  0  0  0  0  0  0  0  0
  -24.9890  -34.0980   25.0340 H   0  0  0  0  0  0  0  0  0  0  0  0
  -24.1900  -36.7890   23.1060 C   0  0  0  0  0  1  0  0  0  0  0  0
  -25.4210  -36.3900   23.9340 C   0  0  0  0  0  3  0  0  0  0  0  0
  -27.5320  -37.2930   24.8040 C   0  0  0  0  0  1  0  0  0  0  0  0
  -26.4480  -37.4500   23.8390 N   0  0  0  0  0  0  0  0  0  0  0  0
  -26.0310  -38.3670   23.9770 H   0  0  0  0  0  0  0  0  0  0  0  0
  -26.4340  -31.7910   25.1970 C   0  0  1  0  0  0  0  0  0  0  0  0
  -25.3330  -31.5410   26.2550 C   0  0  0  0  0  1  0  0  0  0  0  0
  -27.0380  -30.4190   24.8110 C   0  0  0  0  0  1  0  0  0  0  0  0
  -27.5650  -32.6010   25.8710 C   0  0  0  0  0  1  0  0  0  0  0  0
  1  5  1  0
  1  2  2  0
  2  4  1  0
  3  1  1  0
  6  7  1  0
  6  5  1  0
  7 17  1  0
  8 17  1  0
  9 14  1  0
 10 11  1  0
 10  9  1  0
 12 11  1  0
 12 21  1  0
 12 13  1  0
 14  8  1  0
 14 13  1  0
 15  8  2  0
 17 16  1  0
 18 19  2  0
 19 38  1  0
 20 19  1  0
 20 23  1  0
 21 22  1  0
 21 18  1  0
 22 20  2  0
 23 24  1  0
 24 25  2  0
 26 29  1  0
 26 25  1  0
 27 26  2  0
 28 27  1  0
 28 23  2  0
 29 30  1  0
 30 35  2  0
 30 31  1  0
 31 32  2  0
 32 33  1  0
 33 37  1  0
 34 33  2  0
 35 34  1  0
 36 35  1  0
 38 39  1  0
 39 42  1  0
 39 41  1  0
 40 38  2  0
 43 18  1  0
 43 44  1  0
 45 43  1  0
 46  2  1  0
 46 47  1  0
 48 50  1  0
 48 47  1  0
 49 60  2  0
 50 55  1  0
 51 59  1  0
 51 61  1  0
 52 58  1  0
 52 54  1  0
 53 59  1  0
 54 55  2  0
 54 53  1  0
 56 50  2  0
 57 56  1  0
 57 52  2  0
 58 51  1  0
 59 49  1  0
 61 63  2  0
 62 61  1  0
 64 62  1  0
 65 74  2  0
 65 70  1  0
 66 62  1  0
 66 70  1  0
 67 66  1  0
 68 69  1  0
 68 67  1  0
 69 65  1  0
 70 71  2  0
 71 72  1  0
 73 72  2  0
 74 73  1  0
 75 49  1  0
 75 76  1  0
 75 85  1  0
 76 79  1  0
 77 81  1  0
 77 76  1  0
 78 77  2  0
 81 80  1  0
 83 81  1  0
 83 84  1  0
 83 82  1  0
 85 88  1  1
 85 86  1  0
 87 85  1  0
M  ISO  4   8 100  17 100  47 101  48 101
M  END
>  <TORSDO>  (90) 
F 21

>  <SCORE>  (90) 
-12.699

>  <name>  (90) 
92

>  <ligand_id>  (90) 
92

>  <original_smiles>  (90) 
[H]c1c([H])c([H])c2c(c1[H])C([H])([H])C([H])([H])C([H])([H])C2([H])N([H])C(=O)C1([H])N(C(=O)C([H])(N([H])C(=O)C([H])(N([H])C([H])([H])[H])C([H])([H])[H])C(C([H])([H])[H])(C([H])([H])[H])C([H])([H])[H])C([H])([H])c2c([H])c(OC([H])([H])C([H])([H])C(=C(C([H])([H])[H])C([H])([H])C([H])([H])C([H])([H])N(C(=O)N3C([H])([H])C([H])([H])C([H])([H])C([H])(n4nc(-c5c([H])c([H])c(Oc6c([H])c([H])c(F)c([H])c6F)c([H])c5[H])c(C(=O)N([H])[H])c4N([H])[H])C3([H])[H])C([H])([H])[H])C([H])([H])[H])c([H])c([H])c2C1([H])[H]

>  <smiles>  (90) 
[H]c1c([H])c([H])c2c(c1[H])C([H])([H])C([H])([H])C([H])([H])C2([H])N([H])C(=O)C1([H])N(C(=O)C([H])(N([H])C(=O)C([H])(N([H])C([H])([H])[H])C([H])([H])[H])C(C([H])([H])[H])(C([H])([H])[H])C([H])([H])[H])C([H])([H])c2c([H])c(OC([H])([H])C([H])([H])C(=C(C([H])([H])[H])C([H])([H])C([H])([H])C([H])([H])N(C(=O)N3C([H])([H])C([H])([H])C([H])([H])C([H])(n4nc(-c5c([H])c([H])c(Oc6c([H])c([H])c(F)c([H])c6F)c([H])c5[H])c(C(=O)N([H])[H])c4N([H])[H])C3([H])[H])C([H])([H])[H])C([H])([H])[H])c([H])c([H])c2C1([H])[H]

$$$$
93:0:0
     RDKit          3D

 95103  0  0  1  0  0  0  0  0999 V2000
  -27.6650  -22.1260   19.1160 C   0  0  0  0  0  3  0  0  0  0  0  0
  -27.0690  -20.9600   18.7150 C   0  0  0  0  0  0  0  0  0  0  0  0
  -28.7870  -20.4520   20.0710 C   0  0  0  0  0  0  0  0  0  0  0  0
  -28.7290  -21.8070   19.9260 N   0  0  0  0  0  0  0  0  0  0  0  0
  -27.7960  -19.9650   19.3140 N   0  0  0  0  0  0  0  0  0  0  0  0
  -27.6050  -18.9770   19.2020 H   0  0  0  0  0  0  0  0  0  0  0  0
  -26.4800  -20.0250   16.5100 C   0  0  0  0  0  1  0  0  0  0  0  0
  -25.2360  -22.0140   17.3910 C   0  0  0  0  0  1  0  0  0  0  0  0
  -24.8930  -19.7680   18.4580 C   0  0  0  0  0  1  0  0  0  0  0  0
  -25.9230  -20.6910   17.7790 C   0  0  2  0  0  0  0  0  0  0  0  0
  -29.7440  -19.5580   20.8590 C   0  0  0  0  0  3  0  0  0  0  0  0
  -29.4800  -18.0080   20.7390 C   0  0  0  0  0  2  0  0  0  0  0  0
  -30.4030  -17.0660   21.5820 C   0  0  0  0  0  2  0  0  0  0  0  0
  -30.8740  -14.5850   21.1540 C   0  0  0  0  0  0  0  0  0  0  0  0
  -30.7650  -12.3430   20.1130 C   0  0  0  0  0  2  0  0  0  0  0  0
  -29.9340  -12.4460   18.8160 C   0  0  0  0  0  2  0  0  0  0  0  0
  -28.4300  -12.2840   19.1130 C   0  0  0  0  0  2  0  0  0  0  0  0
  -27.9520  -13.1680   20.2970 C   0  0  0  0  0  3  0  0  0  0  0  0
  -28.9070  -13.0390   21.5050 C   0  0  0  0  0  2  0  0  0  0  0  0
  -30.2630  -13.3710   21.0390 N   0  0  0  0  0  0  0  0  0  0  0  0
  -32.0490  -14.7690   20.8290 O   0  0  0  0  0  0  0  0  0  0  0  0
  -30.0640  -15.6210   21.4800 N   0  0  0  0  0  0  0  0  0  0  0  0
  -29.1110  -15.3680   21.6930 H   0  0  0  0  0  0  0  0  0  0  0  0
  -25.4960  -13.7440   20.8000 C   0  0  0  0  0  0  0  0  0  0  0  0
  -24.4100  -12.9590   21.0780 C   0  0  0  0  0  0  0  0  0  0  0  0
  -24.8880  -11.6130   21.0880 C   0  0  0  0  0  0  0  0  0  0  0  0
  -26.5680  -12.8750   20.6620 N   0  0  0  0  0  0  0  0  0  0  0  0
  -26.2010  -11.5890   20.8920 N   0  0  0  0  0  0  0  0  0  0  0  0
  -24.1630  -10.3420   21.2170 C   0  0  0  0  0  0  0  0  0  0  0  0
  -24.5260   -9.3800   22.1840 C   0  0  0  0  0  3  0  0  0  0  0  0
  -23.8010   -8.1740   22.3020 C   0  0  0  0  0  3  0  0  0  0  0  0
  -22.7000   -7.9220   21.4500 C   0  0  0  0  0  0  0  0  0  0  0  0
  -22.3560   -8.8740   20.4730 C   0  0  0  0  0  3  0  0  0  0  0  0
  -23.0820  -10.0710   20.3550 C   0  0  0  0  0  3  0  0  0  0  0  0
  -21.9540   -6.7680   21.4740 O   0  0  0  0  0  0  0  0  0  0  0  0
  -21.8020   -6.0330   22.6210 C   0  0  0  0  0  0  0  0  0  0  0  0
  -21.2280   -6.5840   23.7880 C   0  0  0  0  0  3  0  0  0  0  0  0
  -21.0290   -5.7750   24.9240 C   0  0  0  0  0  3  0  0  0  0  0  0
  -21.3910   -4.4150   24.8930 C   0  0  0  0  0  0  0  0  0  0  0  0
  -21.9570   -3.8630   23.7310 C   0  0  0  0  0  3  0  0  0  0  0  0
  -22.1590   -4.6700   22.5970 C   0  0  0  0  0  0  0  0  0  0  0  0
  -22.6860   -4.1280   21.4720 F   0  0  0  0  0  0  0  0  0  0  0  0
  -21.1900   -3.6340   25.9810 F   0  0  0  0  0  0  0  0  0  0  0  0
  -22.9890  -13.4200   21.2290 C   0  0  0  0  0  0  0  0  0  0  0  0
  -22.2020  -12.7180   22.0350 N   0  0  0  0  0  0  0  0  0  0  0  0
  -22.5850  -14.4380   20.6700 O   0  0  0  0  0  0  0  0  0  0  0  0
  -22.5420  -11.8940   22.5090 H   0  0  0  0  0  0  0  0  0  0  0  0
  -21.2450  -13.0080   22.1800 H   0  0  0  0  0  0  0  0  0  0  0  0
  -25.6590  -15.1160   20.6320 N   0  0  0  0  0  0  0  0  0  0  0  0
  -24.8810  -15.7640   20.6730 H   0  0  0  0  0  0  0  0  0  0  0  0
  -26.5290  -15.5570   20.3610 H   0  0  0  0  0  0  0  0  0  0  0  0
  -29.6370  -22.8010   20.5630 C   0  0  0  0  0  2  0  0  0  0  0  0
  -29.6150  -24.2580   19.9610 C   0  0  0  0  0  2  0  0  0  0  0  0
  -28.5200  -25.2340   20.4920 C   0  0  0  0  0  2  0  0  0  0  0  0
  -28.6330  -26.6000   20.0000 O   0  0  0  0  0  0  0  0  0  0  0  0
  -24.7190  -31.6110   23.3020 C   0  0  0  0  0  0  0  0  0  0  0  0
  -27.4680  -27.3540   20.0200 C   0  0  0  0  0  0  0  0  0  0  0  0
  -23.5540  -30.2730   21.5800 C   0  0  0  0  0  3  0  0  0  0  0  0
  -25.0510  -28.8430   20.0840 C   0  0  0  0  0  0  0  0  0  0  0  0
  -26.0800  -30.6820   21.4270 C   0  0  0  0  0  2  0  0  0  0  0  0
  -26.1970  -29.3470   20.7120 C   0  0  0  0  0  0  0  0  0  0  0  0
  -27.4100  -28.6130   20.6740 C   0  0  0  0  0  3  0  0  0  0  0  0
  -26.3050  -26.8890   19.3670 C   0  0  0  0  0  3  0  0  0  0  0  0
  -25.1020  -27.6160   19.4060 C   0  0  0  0  0  3  0  0  0  0  0  0
  -23.7890  -29.6750   20.1680 C   0  0  0  0  0  2  0  0  0  0  0  0
  -24.8020  -30.8680   22.1610 N   0  0  0  0  0  0  0  0  0  0  0  0
  -23.6290  -31.8320   23.8460 O   0  0  0  0  0  0  0  0  0  0  0  0
  -22.9180  -29.1890   22.4800 C   0  0  0  0  0  0  0  0  0  0  0  0
  -21.6100  -28.9450   22.2940 N   0  0  0  0  0  0  0  0  0  0  0  0
  -23.6000  -28.5710   23.3010 O   0  0  0  0  0  0  0  0  0  0  0  0
  -21.1180  -29.5010   21.6080 H   0  0  0  0  0  0  0  0  0  0  0  0
  -18.2950  -27.5340   22.5820 C   0  0  0  0  0  0  0  0  0  0  0  0
  -20.8130  -27.9440   23.0010 C   0  0  0  0  0  3  0  0  0  0  0  0
  -21.0360  -26.5340   22.4070 C   0  0  0  0  0  2  0  0  0  0  0  0
  -20.0140  -26.1650   21.3270 C   0  0  0  0  0  2  0  0  0  0  0  0
  -18.5920  -26.2120   21.8950 C   0  0  0  0  0  2  0  0  0  0  0  0
  -19.3380  -28.3550   23.0880 C   0  0  0  0  0  0  0  0  0  0  0  0
  -19.0090  -29.5900   23.6870 C   0  0  0  0  0  3  0  0  0  0  0  0
  -17.6690  -30.0070   23.7870 C   0  0  0  0  0  3  0  0  0  0  0  0
  -16.6390  -29.1830   23.2990 C   0  0  0  0  0  3  0  0  0  0  0  0
  -16.9530  -27.9490   22.7020 C   0  0  0  0  0  3  0  0  0  0  0  0
  -25.9870  -32.2360   23.9630 C   0  0  0  0  0  3  0  0  0  0  0  0
  -25.6550  -33.6170   24.3380 N   0  0  0  0  0  0  0  0  0  0  0  0
  -25.9880  -34.7000   23.6240 C   0  0  0  0  0  0  0  0  0  0  0  0
  -26.6790  -34.6430   22.6030 O   0  0  0  0  0  0  0  0  0  0  0  0
  -25.0430  -33.7350   25.1320 H   0  0  0  0  0  0  0  0  0  0  0  0
  -24.2500  -36.4870   23.2930 C   0  0  0  0  0  1  0  0  0  0  0  0
  -25.4730  -36.0640   24.1220 C   0  0  0  0  0  3  0  0  0  0  0  0
  -27.5720  -36.9400   25.0460 C   0  0  0  0  0  1  0  0  0  0  0  0
  -26.4970  -37.1310   24.0770 N   0  0  0  0  0  0  0  0  0  0  0  0
  -26.0760  -38.0410   24.2440 H   0  0  0  0  0  0  0  0  0  0  0  0
  -26.4980  -31.4250   25.2160 C   0  0  1  0  0  0  0  0  0  0  0  0
  -25.3960  -31.1340   26.2610 C   0  0  0  0  0  1  0  0  0  0  0  0
  -27.1060  -30.0710   24.7830 C   0  0  0  0  0  1  0  0  0  0  0  0
  -27.6290  -32.2110   25.9220 C   0  0  0  0  0  1  0  0  0  0  0  0
  1  4  1  0
  2  1  2  0
  2  5  1  0
  3 11  2  0
  4  3  1  0
  4 52  1  0
  5  3  1  0
  6  5  1  0
 10  7  1  6
  8 10  1  0
 10  9  1  0
 10  2  1  0
 12 11  1  0
 12 13  1  0
 14 22  1  0
 15 20  1  0
 16 17  1  0
 16 15  1  0
 18 17  1  0
 18 27  1  0
 18 19  1  0
 20 14  1  0
 20 19  1  0
 21 14  2  0
 22 13  1  0
 22 23  1  0
 24 25  2  0
 25 26  1  0
 25 44  1  0
 26 29  1  0
 27 24  1  0
 27 28  1  0
 28 26  2  0
 29 30  1  0
 30 31  2  0
 32 35  1  0
 32 31  1  0
 33 32  2  0
 34 33  1  0
 34 29  2  0
 35 36  1  0
 36 37  1  0
 37 38  2  0
 39 38  1  0
 39 43  1  0
 40 39  2  0
 41 36  2  0
 41 40  1  0
 42 41  1  0
 44 45  1  0
 45 48  1  0
 45 47  1  0
 46 44  2  0
 49 50  1  0
 49 24  1  0
 51 49  1  0
 53 54  1  0
 53 52  1  0
 55 57  1  0
 55 54  1  0
 56 67  2  0
 57 62  1  0
 58 66  1  0
 58 68  1  0
 59 65  1  0
 59 61  1  0
 60 66  1  0
 61 60  1  0
 62 61  2  0
 63 64  1  0
 63 57  2  0
 64 59  2  0
 65 58  1  0
 66 56  1  0
 68 70  2  0
 69 68  1  0
 71 69  1  0
 72 81  2  0
 72 77  1  0
 73 69  1  0
 73 77  1  0
 74 73  1  0
 75 76  1  0
 75 74  1  0
 76 72  1  0
 77 78  2  0
 78 79  1  0
 80 79  2  0
 81 80  1  0
 82 56  1  0
 82 83  1  0
 82 92  1  0
 83 86  1  0
 84 88  1  0
 84 83  1  0
 85 84  2  0
 88 87  1  0
 90 88  1  0
 90 91  1  0
 90 89  1  0
 92 95  1  1
 92 93  1  0
 94 92  1  0
M  ISO  4  14 100  22 100  54 101  55 101
M  END
>  <TORSDO>  (91) 
F 23

>  <SCORE>  (91) 
-11.146

>  <name>  (91) 
93

>  <ligand_id>  (91) 
93

>  <original_smiles>  (91) 
[H]c1c([H])c([H])c2c(c1[H])C([H])([H])C([H])([H])C([H])([H])C2([H])N([H])C(=O)C1([H])N(C(=O)C([H])(N([H])C(=O)C([H])(N([H])C([H])([H])[H])C([H])([H])[H])C(C([H])([H])[H])(C([H])([H])[H])C([H])([H])[H])C([H])([H])c2c([H])c(OC([H])([H])C([H])([H])C([H])([H])n3c([H])c(C(C([H])([H])[H])(C([H])([H])[H])C([H])([H])[H])[n+]([H])c3C([H])([H])C([H])([H])C([H])([H])N([H])C(=O)N3C([H])([H])C([H])([H])C([H])([H])C([H])(n4nc(-c5c([H])c([H])c(Oc6c([H])c([H])c(F)c([H])c6F)c([H])c5[H])c(C(=O)N([H])[H])c4N([H])[H])C3([H])[H])c([H])c([H])c2C1([H])[H]

>  <smiles>  (91) 
[H]c1c([H])c([H])c2c(c1[H])C([H])([H])C([H])([H])C([H])([H])C2([H])N([H])C(=O)C1([H])N(C(=O)C([H])(N([H])C(=O)C([H])(N([H])C([H])([H])[H])C([H])([H])[H])C(C([H])([H])[H])(C([H])([H])[H])C([H])([H])[H])C([H])([H])c2c([H])c(OC([H])([H])C([H])([H])C([H])([H])n3c([H])c(C(C([H])([H])[H])(C([H])([H])[H])C([H])([H])[H])[n+]([H])c3C([H])([H])C([H])([H])C([H])([H])N([H])C(=O)N3C([H])([H])C([H])([H])C([H])([H])C([H])(n4nc(-c5c([H])c([H])c(Oc6c([H])c([H])c(F)c([H])c6F)c([H])c5[H])c(C(=O)N([H])[H])c4N([H])[H])C3([H])[H])c([H])c([H])c2C1([H])[H]

$$$$
94:0:0
     RDKit          3D

 90 98  0  0  1  0  0  0  0  0999 V2000
  -28.0160  -19.6910   19.3200 C   0  0  0  0  0  3  0  0  0  0  0  0
  -27.7680  -21.0010   19.6360 C   0  0  0  0  0  3  0  0  0  0  0  0
  -29.7590  -20.4380   20.4790 C   0  0  0  0  0  3  0  0  0  0  0  0
  -29.2820  -19.3020   19.8540 C   0  0  0  0  0  0  0  0  0  0  0  0
  -28.8430  -21.4930   20.3490 N   0  0  0  0  0  0  0  0  0  0  0  0
  -31.2590  -18.0200   18.9390 C   0  0  0  0  0  1  0  0  0  0  0  0
  -29.9150  -17.9010   19.6730 C   0  0  0  0  0  3  0  0  0  0  0  0
  -30.0440  -17.0340   20.9720 C   0  0  0  0  0  2  0  0  0  0  0  0
  -30.6140  -14.5500   20.4680 C   0  0  0  0  0  0  0  0  0  0  0  0
  -30.3740  -12.3510   19.3570 C   0  0  0  0  0  2  0  0  0  0  0  0
  -29.4310  -12.5270   18.1470 C   0  0  0  0  0  2  0  0  0  0  0  0
  -27.9540  -12.3900   18.5730 C   0  0  0  0  0  2  0  0  0  0  0  0
  -27.6080  -13.2410   19.8230 C   0  0  0  0  0  3  0  0  0  0  0  0
  -28.6600  -13.0270   20.9350 C   0  0  0  0  0  2  0  0  0  0  0  0
  -29.9800  -13.3460   20.3660 N   0  0  0  0  0  0  0  0  0  0  0  0
  -31.7790  -14.7240   20.1050 O   0  0  0  0  0  0  0  0  0  0  0  0
  -29.8030  -15.5750   20.8160 N   0  0  0  0  0  0  0  0  0  0  0  0
  -28.8630  -15.2830   21.0370 H   0  0  0  0  0  0  0  0  0  0  0  0
  -25.2110  -13.8700   20.5150 C   0  0  0  0  0  0  0  0  0  0  0  0
  -24.1340  -13.1070   20.8810 C   0  0  0  0  0  0  0  0  0  0  0  0
  -24.5870  -11.7530   20.8600 C   0  0  0  0  0  0  0  0  0  0  0  0
  -26.2510  -12.9800   20.2960 N   0  0  0  0  0  0  0  0  0  0  0  0
  -25.8790  -11.7020   20.5650 N   0  0  0  0  0  0  0  0  0  0  0  0
  -23.8510  -10.4970   21.0520 C   0  0  0  0  0  0  0  0  0  0  0  0
  -24.2770   -9.5260   21.9860 C   0  0  0  0  0  3  0  0  0  0  0  0
  -23.5430   -8.3340   22.1630 C   0  0  0  0  0  3  0  0  0  0  0  0
  -22.3690   -8.1030   21.4080 C   0  0  0  0  0  0  0  0  0  0  0  0
  -21.9630   -9.0620   20.4620 C   0  0  0  0  0  3  0  0  0  0  0  0
  -22.6980  -10.2470   20.2830 C   0  0  0  0  0  3  0  0  0  0  0  0
  -21.6060   -6.9650   21.4960 O   0  0  0  0  0  0  0  0  0  0  0  0
  -21.5590   -6.2150   22.6460 C   0  0  0  0  0  0  0  0  0  0  0  0
  -21.1600   -6.7700   23.8810 C   0  0  0  0  0  3  0  0  0  0  0  0
  -21.0600   -5.9490   25.0210 C   0  0  0  0  0  3  0  0  0  0  0  0
  -21.3500   -4.5750   24.9290 C   0  0  0  0  0  0  0  0  0  0  0  0
  -21.7450   -4.0200   23.6970 C   0  0  0  0  0  3  0  0  0  0  0  0
  -21.8460   -4.8380   22.5590 C   0  0  0  0  0  0  0  0  0  0  0  0
  -22.2050   -4.2950   21.3710 F   0  0  0  0  0  0  0  0  0  0  0  0
  -21.2480   -3.7840   26.0220 F   0  0  0  0  0  0  0  0  0  0  0  0
  -22.7370  -13.5940   21.1370 C   0  0  0  0  0  0  0  0  0  0  0  0
  -21.9970  -12.9050   21.9980 N   0  0  0  0  0  0  0  0  0  0  0  0
  -22.3100  -14.6200   20.6080 O   0  0  0  0  0  0  0  0  0  0  0  0
  -22.3550  -12.0730   22.4450 H   0  0  0  0  0  0  0  0  0  0  0  0
  -21.0590  -13.2120   22.2150 H   0  0  0  0  0  0  0  0  0  0  0  0
  -25.3860  -15.2380   20.3310 N   0  0  0  0  0  0  0  0  0  0  0  0
  -24.6230  -15.8980   20.4340 H   0  0  0  0  0  0  0  0  0  0  0  0
  -26.2360  -15.6700   19.9910 H   0  0  0  0  0  0  0  0  0  0  0  0
  -28.9350  -22.8410   20.9620 C   0  0  0  0  0  2  0  0  0  0  0  0
  -28.5310  -24.0750   20.0810 C   0  0  0  0  0  2  0  0  0  0  0  0
  -28.4230  -25.4060   20.9010 C   0  0  0  0  0  2  0  0  0  0  0  0
  -28.4040  -26.6490   20.1560 O   0  0  0  0  0  0  0  0  0  0  0  0
  -24.5890  -31.8810   23.2360 C   0  0  0  0  0  0  0  0  0  0  0  0
  -27.2400  -27.3960   20.1940 C   0  0  0  0  0  0  0  0  0  0  0  0
  -23.3890  -30.4740   21.5950 C   0  0  0  0  0  3  0  0  0  0  0  0
  -24.8480  -28.9200   20.1870 C   0  0  0  0  0  0  0  0  0  0  0  0
  -25.9150  -30.8240   21.4030 C   0  0  0  0  0  2  0  0  0  0  0  0
  -26.0070  -29.4440   20.7760 C   0  0  0  0  0  0  0  0  0  0  0  0
  -27.2080  -28.6920   20.7710 C   0  0  0  0  0  3  0  0  0  0  0  0
  -26.0630  -26.8870   19.6100 C   0  0  0  0  0  3  0  0  0  0  0  0
  -24.8710  -27.6400   19.6030 C   0  0  0  0  0  3  0  0  0  0  0  0
  -23.6040  -29.7820   20.2220 C   0  0  0  0  0  2  0  0  0  0  0  0
  -24.6490  -31.0760   22.1370 N   0  0  0  0  0  0  0  0  0  0  0  0
  -23.5060  -32.1580   23.7710 O   0  0  0  0  0  0  0  0  0  0  0  0
  -22.7290  -29.4620   22.5580 C   0  0  0  0  0  0  0  0  0  0  0  0
  -21.4040  -29.2860   22.4290 N   0  0  0  0  0  0  0  0  0  0  0  0
  -23.4070  -28.8360   23.3770 O   0  0  0  0  0  0  0  0  0  0  0  0
  -20.9180  -29.8440   21.7410 H   0  0  0  0  0  0  0  0  0  0  0  0
  -18.0210  -28.1160   22.9350 C   0  0  0  0  0  0  0  0  0  0  0  0
  -20.5820  -28.3530   23.1990 C   0  0  0  0  0  3  0  0  0  0  0  0
  -20.6730  -26.9230   22.6180 C   0  0  0  0  0  2  0  0  0  0  0  0
  -19.5640  -26.6140   21.6060 C   0  0  0  0  0  2  0  0  0  0  0  0
  -18.1840  -26.7680   22.2530 C   0  0  0  0  0  2  0  0  0  0  0  0
  -19.1480  -28.8670   23.3640 C   0  0  0  0  0  0  0  0  0  0  0  0
  -18.9420  -30.1300   23.9600 C   0  0  0  0  0  3  0  0  0  0  0  0
  -17.6430  -30.6430   24.1300 C   0  0  0  0  0  3  0  0  0  0  0  0
  -16.5310  -29.8900   23.7170 C   0  0  0  0  0  3  0  0  0  0  0  0
  -16.7210  -28.6270   23.1260 C   0  0  0  0  0  3  0  0  0  0  0  0
  -25.8730  -32.5120   23.8610 C   0  0  0  0  0  3  0  0  0  0  0  0
  -25.5640  -33.9110   24.1860 N   0  0  0  0  0  0  0  0  0  0  0  0
  -25.9040  -34.9620   23.4260 C   0  0  0  0  0  0  0  0  0  0  0  0
  -26.5800  -34.8550   22.4000 O   0  0  0  0  0  0  0  0  0  0  0  0
  -24.9640  -34.0680   24.9820 H   0  0  0  0  0  0  0  0  0  0  0  0
  -24.1800  -36.7560   23.0550 C   0  0  0  0  0  1  0  0  0  0  0  0
  -25.4140  -36.3520   23.8770 C   0  0  0  0  0  3  0  0  0  0  0  0
  -27.5450  -37.2320   24.7200 C   0  0  0  0  0  1  0  0  0  0  0  0
  -26.4480  -37.4040   23.7720 N   0  0  0  0  0  0  0  0  0  0  0  0
  -26.0400  -38.3230   23.9200 H   0  0  0  0  0  0  0  0  0  0  0  0
  -26.3850  -31.7430   25.1390 C   0  0  1  0  0  0  0  0  0  0  0  0
  -25.2890  -31.5080   26.2040 C   0  0  0  0  0  1  0  0  0  0  0  0
  -26.9690  -30.3650   24.7470 C   0  0  0  0  0  1  0  0  0  0  0  0
  -27.5350  -32.5370   25.8030 C   0  0  0  0  0  1  0  0  0  0  0  0
  1  2  2  0
  1  4  1  0
  2  5  1  0
  4  3  2  0
  5  3  1  0
  5 47  1  0
  7  6  1  0
  7  4  1  0
  7  8  1  0
  9 17  1  0
 10 15  1  0
 11 12  1  0
 11 10  1  0
 13 12  1  0
 13 22  1  0
 13 14  1  0
 15  9  1  0
 15 14  1  0
 16  9  2  0
 17  8  1  0
 17 18  1  0
 19 20  2  0
 20 39  1  0
 21 20  1  0
 21 24  1  0
 22 19  1  0
 22 23  1  0
 23 21  2  0
 24 25  1  0
 25 26  2  0
 27 30  1  0
 27 26  1  0
 28 27  2  0
 29 28  1  0
 29 24  2  0
 30 31  1  0
 31 32  1  0
 32 33  2  0
 34 33  1  0
 34 38  1  0
 35 34  2  0
 36 31  2  0
 36 35  1  0
 37 36  1  0
 39 40  1  0
 40 43  1  0
 40 42  1  0
 41 39  2  0
 44 45  1  0
 44 19  1  0
 46 44  1  0
 48 49  1  0
 48 47  1  0
 50 52  1  0
 50 49  1  0
 51 62  2  0
 52 57  1  0
 53 61  1  0
 53 63  1  0
 54 60  1  0
 54 56  1  0
 55 61  1  0
 56 55  1  0
 57 56  2  0
 58 52  2  0
 59 58  1  0
 59 54  2  0
 60 53  1  0
 61 51  1  0
 63 65  2  0
 64 63  1  0
 66 64  1  0
 67 76  2  0
 67 72  1  0
 68 64  1  0
 68 72  1  0
 69 68  1  0
 70 71  1  0
 70 69  1  0
 71 67  1  0
 72 73  2  0
 73 74  1  0
 75 74  2  0
 76 75  1  0
 77 51  1  0
 77 78  1  0
 77 87  1  0
 78 81  1  0
 79 83  1  0
 79 78  1  0
 80 79  2  0
 83 82  1  0
 85 83  1  0
 85 86  1  0
 85 84  1  0
 87 90  1  1
 87 88  1  0
 89 87  1  0
M  ISO  4   9 100  17 100  49 101  50 101
M  END
>  <TORSDO>  (92) 
F 21

>  <SCORE>  (92) 
-13.530

>  <name>  (92) 
94

>  <ligand_id>  (92) 
94

>  <original_smiles>  (92) 
[H]c1c([H])c([H])c2c(c1[H])C([H])([H])C([H])([H])C([H])([H])C2([H])N([H])C(=O)C1([H])N(C(=O)C([H])(N([H])C(=O)C([H])(N([H])C([H])([H])[H])C([H])([H])[H])C(C([H])([H])[H])(C([H])([H])[H])C([H])([H])[H])C([H])([H])c2c([H])c(OC([H])([H])C([H])([H])C([H])([H])n3c([H])c([H])c(C([H])(C([H])([H])[H])C([H])([H])N([H])C(=O)N4C([H])([H])C([H])([H])C([H])([H])C([H])(n5nc(-c6c([H])c([H])c(Oc7c([H])c([H])c(F)c([H])c7F)c([H])c6[H])c(C(=O)N([H])[H])c5N([H])[H])C4([H])[H])c3[H])c([H])c([H])c2C1([H])[H]

>  <smiles>  (92) 
[H]c1c([H])c([H])c2c(c1[H])C([H])([H])C([H])([H])C([H])([H])C2([H])N([H])C(=O)C1([H])N(C(=O)C([H])(N([H])C(=O)C([H])(N([H])C([H])([H])[H])C([H])([H])[H])C(C([H])([H])[H])(C([H])([H])[H])C([H])([H])[H])C([H])([H])c2c([H])c(OC([H])([H])C([H])([H])C([H])([H])n3c([H])c([H])c(C([H])(C([H])([H])[H])C([H])([H])N([H])C(=O)N4C([H])([H])C([H])([H])C([H])([H])C([H])(n5nc(-c6c([H])c([H])c(Oc7c([H])c([H])c(F)c([H])c7F)c([H])c6[H])c(C(=O)N([H])[H])c5N([H])[H])C4([H])[H])c3[H])c([H])c([H])c2C1([H])[H]

$$$$
95:0:0
     RDKit          3D

 93101  0  0  1  0  0  0  0  0999 V2000
  -30.1490  -20.4520   19.2130 C   0  0  0  0  0  3  0  0  0  0  0  0
  -29.1880  -21.4880   19.1420 C   0  0  0  0  0  0  0  0  0  0  0  0
  -29.6980  -19.1160   19.1100 C   0  0  0  0  0  0  0  0  0  0  0  0
  -27.5420  -19.9030   18.9670 C   0  0  0  0  0  0  0  0  0  0  0  0
  -26.0670  -19.5790   18.8860 C   0  0  0  0  0  1  0  0  0  0  0  0
  -27.8820  -21.1860   19.0110 N   0  0  0  0  0  0  0  0  0  0  0  0
  -28.3770  -18.8710   18.9850 N   0  0  0  0  0  0  0  0  0  0  0  0
  -29.5720  -22.9680   18.9880 C   0  0  0  0  0  2  0  0  0  0  0  0
  -28.7450  -24.0140   19.8000 C   0  0  0  0  0  2  0  0  0  0  0  0
  -29.0690  -25.4810   19.3970 C   0  0  0  0  0  2  0  0  0  0  0  0
  -28.7010  -26.4850   20.3650 O   0  0  0  0  0  0  0  0  0  0  0  0
  -24.6710  -31.5830   23.2790 C   0  0  0  0  0  0  0  0  0  0  0  0
  -27.5070  -27.1820   20.2780 C   0  0  0  0  0  0  0  0  0  0  0  0
  -23.5720  -30.2160   21.5350 C   0  0  0  0  0  3  0  0  0  0  0  0
  -25.1110  -28.7050   20.1730 C   0  0  0  0  0  0  0  0  0  0  0  0
  -26.1060  -30.5730   21.5040 C   0  0  0  0  0  2  0  0  0  0  0  0
  -26.2300  -29.2130   20.8430 C   0  0  0  0  0  0  0  0  0  0  0  0
  -27.4270  -28.4580   20.8920 C   0  0  0  0  0  3  0  0  0  0  0  0
  -26.3620  -26.6860   19.6160 C   0  0  0  0  0  3  0  0  0  0  0  0
  -25.1730  -27.4410   19.5580 C   0  0  0  0  0  3  0  0  0  0  0  0
  -23.8680  -29.5670   20.1560 C   0  0  0  0  0  2  0  0  0  0  0  0
  -24.7990  -30.8040   22.1660 N   0  0  0  0  0  0  0  0  0  0  0  0
  -23.5570  -31.8430   23.7550 O   0  0  0  0  0  0  0  0  0  0  0  0
  -22.8620  -29.1760   22.4320 C   0  0  0  0  0  0  0  0  0  0  0  0
  -21.5400  -29.0300   22.2490 N   0  0  0  0  0  0  0  0  0  0  0  0
  -23.5000  -28.5040   23.2480 O   0  0  0  0  0  0  0  0  0  0  0  0
  -21.0890  -29.6240   21.5670 H   0  0  0  0  0  0  0  0  0  0  0  0
  -18.1130  -27.9460   22.6280 C   0  0  0  0  0  0  0  0  0  0  0  0
  -20.6740  -28.0850   22.9540 C   0  0  0  0  0  3  0  0  0  0  0  0
  -20.7300  -26.6850   22.2990 C   0  0  0  0  0  2  0  0  0  0  0  0
  -19.6350  -26.4650   21.2510 C   0  0  0  0  0  2  0  0  0  0  0  0
  -18.2480  -26.6300   21.8790 C   0  0  0  0  0  2  0  0  0  0  0  0
  -19.2530  -28.6350   23.1190 C   0  0  0  0  0  0  0  0  0  0  0  0
  -19.0750  -29.8710   23.7790 C   0  0  0  0  0  3  0  0  0  0  0  0
  -17.7890  -30.4150   23.9530 C   0  0  0  0  0  3  0  0  0  0  0  0
  -16.6630  -29.7210   23.4800 C   0  0  0  0  0  3  0  0  0  0  0  0
  -16.8250  -28.4890   22.8220 C   0  0  0  0  0  3  0  0  0  0  0  0
  -25.9130  -32.2020   23.9900 C   0  0  0  0  0  3  0  0  0  0  0  0
  -25.6130  -33.6140   24.2580 N   0  0  0  0  0  0  0  0  0  0  0  0
  -26.0220  -34.6380   23.4950 C   0  0  0  0  0  0  0  0  0  0  0  0
  -26.7630  -34.4900   22.5190 O   0  0  0  0  0  0  0  0  0  0  0  0
  -24.9640  -33.8050   25.0080 H   0  0  0  0  0  0  0  0  0  0  0  0
  -24.3550  -36.4460   22.9720 C   0  0  0  0  0  1  0  0  0  0  0  0
  -25.5320  -36.0490   23.8760 C   0  0  0  0  0  3  0  0  0  0  0  0
  -27.6210  -36.9290   24.8190 C   0  0  0  0  0  1  0  0  0  0  0  0
  -26.5900  -37.0790   23.7950 N   0  0  0  0  0  0  0  0  0  0  0  0
  -26.1940  -38.0110   23.8790 H   0  0  0  0  0  0  0  0  0  0  0  0
  -26.3010  -31.4530   25.3230 C   0  0  1  0  0  0  0  0  0  0  0  0
  -25.1130  -31.2530   26.2930 C   0  0  0  0  0  1  0  0  0  0  0  0
  -26.8980  -30.0600   25.0120 C   0  0  0  0  0  1  0  0  0  0  0  0
  -27.4000  -32.2470   26.0690 C   0  0  0  0  0  1  0  0  0  0  0  0
  -30.6460  -17.8980   18.9420 C   0  0  0  0  0  2  0  0  0  0  0  0
  -30.7250  -17.7530   21.5310 C   0  0  0  0  0  1  0  0  0  0  0  0
  -32.8250  -17.5630   20.2250 C   0  0  0  0  0  1  0  0  0  0  0  0
  -31.3160  -17.2230   20.2070 C   0  0  2  0  0  0  0  0  0  0  0  0
  -31.7450  -14.6670   19.7520 C   0  0  0  0  0  0  0  0  0  0  0  0
  -31.3540  -12.3590   18.9430 C   0  0  0  0  0  2  0  0  0  0  0  0
  -30.3570  -12.4030   17.7660 C   0  0  0  0  0  2  0  0  0  0  0  0
  -28.9010  -12.3810   18.2760 C   0  0  0  0  0  2  0  0  0  0  0  0
  -28.6500  -13.4150   19.4070 C   0  0  0  0  0  3  0  0  0  0  0  0
  -29.7470  -13.3130   20.4890 C   0  0  0  0  0  2  0  0  0  0  0  0
  -31.0520  -13.4950   19.8290 N   0  0  0  0  0  0  0  0  0  0  0  0
  -32.8400  -14.7480   19.1900 O   0  0  0  0  0  0  0  0  0  0  0  0
  -31.0730  -15.7480   20.2220 N   0  0  0  0  0  0  0  0  0  0  0  0
  -30.1870  -15.4890   20.6290 H   0  0  0  0  0  0  0  0  0  0  0  0
  -26.4090  -14.2570   20.3500 C   0  0  0  0  0  0  0  0  0  0  0  0
  -25.2810  -13.5970   20.7570 C   0  0  0  0  0  0  0  0  0  0  0  0
  -25.5610  -12.2050   20.6000 C   0  0  0  0  0  0  0  0  0  0  0  0
  -27.3120  -13.2750   19.9760 N   0  0  0  0  0  0  0  0  0  0  0  0
  -26.8100  -12.0310   20.1840 N   0  0  0  0  0  0  0  0  0  0  0  0
  -24.6970  -11.0310   20.7690 C   0  0  0  0  0  0  0  0  0  0  0  0
  -25.0320   -9.9890   21.6620 C   0  0  0  0  0  3  0  0  0  0  0  0
  -24.1760   -8.8790   21.8190 C   0  0  0  0  0  3  0  0  0  0  0  0
  -22.9700   -8.8010   21.0830 C   0  0  0  0  0  0  0  0  0  0  0  0
  -22.6540   -9.8290   20.1770 C   0  0  0  0  0  3  0  0  0  0  0  0
  -23.5090  -10.9320   20.0180 C   0  0  0  0  0  3  0  0  0  0  0  0
  -22.0900   -7.7490   21.1510 O   0  0  0  0  0  0  0  0  0  0  0  0
  -21.9120   -7.0340   22.3090 C   0  0  0  0  0  0  0  0  0  0  0  0
  -21.4700   -7.6450   23.5020 C   0  0  0  0  0  3  0  0  0  0  0  0
  -21.2340   -6.8610   24.6480 C   0  0  0  0  0  3  0  0  0  0  0  0
  -21.4300   -5.4680   24.6020 C   0  0  0  0  0  0  0  0  0  0  0  0
  -21.8650   -4.8570   23.4130 C   0  0  0  0  0  3  0  0  0  0  0  0
  -22.1030   -5.6380   22.2690 C   0  0  0  0  0  0  0  0  0  0  0  0
  -22.5020   -5.0420   21.1190 F   0  0  0  0  0  0  0  0  0  0  0  0
  -21.1950   -4.7120   25.7000 F   0  0  0  0  0  0  0  0  0  0  0  0
  -23.9790  -14.2200   21.1740 C   0  0  0  0  0  0  0  0  0  0  0  0
  -23.2390  -13.5580   22.0560 N   0  0  0  0  0  0  0  0  0  0  0  0
  -23.6350  -15.3240   20.7540 O   0  0  0  0  0  0  0  0  0  0  0  0
  -23.5310  -12.6630   22.4180 H   0  0  0  0  0  0  0  0  0  0  0  0
  -22.3640  -13.9540   22.3750 H   0  0  0  0  0  0  0  0  0  0  0  0
  -26.7330  -15.6070   20.2480 N   0  0  0  0  0  0  0  0  0  0  0  0
  -26.0690  -16.3400   20.4690 H   0  0  0  0  0  0  0  0  0  0  0  0
  -27.6090  -15.9650   19.8910 H   0  0  0  0  0  0  0  0  0  0  0  0
  2  1  2  0
  3  1  1  0
  4  7  1  0
  4  6  2  0
  5  4  1  0
  6  2  1  0
  7  3  2  0
  8  2  1  0
  8  9  1  0
 10  9  1  0
 10 11  1  0
 12 23  2  0
 13 11  1  0
 13 18  1  0
 14 22  1  0
 14 24  1  0
 15 17  1  0
 16 22  1  0
 17 18  2  0
 17 16  1  0
 19 13  2  0
 20 19  1  0
 20 15  2  0
 21 15  1  0
 21 14  1  0
 22 12  1  0
 24 26  2  0
 25 24  1  0
 27 25  1  0
 28 37  2  0
 28 33  1  0
 29 25  1  0
 29 33  1  0
 30 29  1  0
 31 32  1  0
 31 30  1  0
 32 28  1  0
 33 34  2  0
 34 35  1  0
 36 35  2  0
 37 36  1  0
 38 12  1  0
 38 39  1  0
 38 48  1  0
 39 42  1  0
 40 44  1  0
 40 39  1  0
 41 40  2  0
 44 43  1  0
 46 44  1  0
 46 47  1  0
 46 45  1  0
 48 51  1  1
 48 49  1  0
 50 48  1  0
 52  3  1  0
 52 55  1  0
 55 64  1  0
 55 54  1  1
 55 53  1  0
 56 62  1  0
 56 64  1  0
 57 62  1  0
 58 59  1  0
 58 57  1  0
 60 59  1  0
 60 69  1  0
 60 61  1  0
 62 61  1  0
 63 56  2  0
 64 65  1  0
 66 67  2  0
 67 86  1  0
 68 67  1  0
 68 71  1  0
 69 70  1  0
 69 66  1  0
 70 68  2  0
 71 72  1  0
 72 73  2  0
 74 77  1  0
 74 73  1  0
 75 74  2  0
 76 75  1  0
 76 71  2  0
 77 78  1  0
 78 79  1  0
 79 80  2  0
 81 80  1  0
 81 85  1  0
 82 81  2  0
 83 78  2  0
 83 82  1  0
 84 83  1  0
 86 87  1  0
 87 90  1  0
 87 89  1  0
 88 86  2  0
 91 66  1  0
 91 92  1  0
 93 91  1  0
M  ISO  4  10 101  11 101  56 100  64 100
M  END
>  <TORSDO>  (93) 
F 21

>  <SCORE>  (93) 
-11.783

>  <name>  (93) 
95

>  <ligand_id>  (93) 
95

>  <original_smiles>  (93) 
[H]c1c(C([H])([H])C([H])([H])C([H])([H])Oc2c([H])c([H])c3c(c2[H])C([H])([H])N(C(=O)C([H])(N([H])C(=O)C([H])(N([H])C([H])([H])[H])C([H])([H])[H])C(C([H])([H])[H])(C([H])([H])[H])C([H])([H])[H])C([H])(C(=O)N([H])C2([H])c4c([H])c([H])c([H])c([H])c4C([H])([H])C([H])([H])C2([H])[H])C3([H])[H])nc(C([H])([H])[H])nc1C([H])([H])C(N([H])C(=O)N1C([H])([H])C([H])([H])C([H])([H])C([H])(n2nc(-c3c([H])c([H])c(Oc4c([H])c([H])c(F)c([H])c4F)c([H])c3[H])c(C(=O)N([H])[H])c2N([H])[H])C1([H])[H])(C([H])([H])[H])C([H])([H])[H]

>  <smiles>  (93) 
[H]c1c(C([H])([H])C([H])([H])C([H])([H])Oc2c([H])c([H])c3c(c2[H])C([H])([H])N(C(=O)C([H])(N([H])C(=O)C([H])(N([H])C([H])([H])[H])C([H])([H])[H])C(C([H])([H])[H])(C([H])([H])[H])C([H])([H])[H])C([H])(C(=O)N([H])C2([H])c4c([H])c([H])c([H])c([H])c4C([H])([H])C([H])([H])C2([H])[H])C3([H])[H])nc(C([H])([H])[H])nc1C([H])([H])C(N([H])C(=O)N1C([H])([H])C([H])([H])C([H])([H])C([H])(n2nc(-c3c([H])c([H])c(Oc4c([H])c([H])c(F)c([H])c4F)c([H])c3[H])c(C(=O)N([H])[H])c2N([H])[H])C1([H])[H])(C([H])([H])[H])C([H])([H])[H]

$$$$
96:0:0
     RDKit          3D

 94102  0  0  1  0  0  0  0  0999 V2000
  -29.4300  -21.0690   18.8730 C   0  0  0  0  0  3  0  0  0  0  0  0
  -28.4000  -21.6960   18.2190 C   0  0  0  0  0  0  0  0  0  0  0  0
  -27.2480  -20.9730   18.6380 C   0  0  0  0  0  0  0  0  0  0  0  0
  -25.8190  -21.1510   18.2030 C   0  0  0  0  0  1  0  0  0  0  0  0
  -27.5450  -20.0050   19.4880 N   0  0  0  0  0  0  0  0  0  0  0  0
  -28.8920  -20.0220   19.5980 N   0  0  0  0  0  0  0  0  0  0  0  0
  -28.4510  -22.8400   17.2350 C   0  0  0  0  0  2  0  0  0  0  0  0
  -28.0350  -24.1950   17.8360 C   0  0  0  0  0  2  0  0  0  0  0  0
  -29.0050  -24.7400   18.9040 C   0  0  0  0  0  2  0  0  0  0  0  0
  -29.0490  -26.2800   18.9780 C   0  0  0  0  0  2  0  0  0  0  0  0
  -28.5750  -26.7840   20.2250 O   0  0  0  0  0  0  0  0  0  0  0  0
  -24.6700  -31.9080   23.2120 C   0  0  0  0  0  0  0  0  0  0  0  0
  -27.3810  -27.4650   20.2060 C   0  0  0  0  0  0  0  0  0  0  0  0
  -23.4860  -30.4740   21.5800 C   0  0  0  0  0  3  0  0  0  0  0  0
  -24.9620  -28.9230   20.1960 C   0  0  0  0  0  0  0  0  0  0  0  0
  -26.0120  -30.8470   21.4050 C   0  0  0  0  0  2  0  0  0  0  0  0
  -26.1080  -29.4700   20.7880 C   0  0  0  0  0  0  0  0  0  0  0  0
  -27.3150  -28.7400   20.8030 C   0  0  0  0  0  3  0  0  0  0  0  0
  -26.2150  -26.9190   19.6290 C   0  0  0  0  0  3  0  0  0  0  0  0
  -25.0050  -27.6390   19.6230 C   0  0  0  0  0  3  0  0  0  0  0  0
  -23.7110  -29.7700   20.2150 C   0  0  0  0  0  2  0  0  0  0  0  0
  -24.7410  -31.0940   22.1230 N   0  0  0  0  0  0  0  0  0  0  0  0
  -23.5820  -32.1800   23.7400 O   0  0  0  0  0  0  0  0  0  0  0  0
  -22.8380  -29.4620   22.5530 C   0  0  0  0  0  0  0  0  0  0  0  0
  -21.5150  -29.2720   22.4230 N   0  0  0  0  0  0  0  0  0  0  0  0
  -23.5200  -28.8500   23.3780 O   0  0  0  0  0  0  0  0  0  0  0  0
  -21.0250  -29.8190   21.7290 H   0  0  0  0  0  0  0  0  0  0  0  0
  -18.1420  -28.0840   22.9400 C   0  0  0  0  0  0  0  0  0  0  0  0
  -20.7020  -28.3390   23.2030 C   0  0  0  0  0  3  0  0  0  0  0  0
  -20.8020  -26.9070   22.6320 C   0  0  0  0  0  2  0  0  0  0  0  0
  -19.6980  -26.5850   21.6210 C   0  0  0  0  0  2  0  0  0  0  0  0
  -18.3160  -26.7360   22.2640 C   0  0  0  0  0  2  0  0  0  0  0  0
  -19.2630  -28.8450   23.3660 C   0  0  0  0  0  0  0  0  0  0  0  0
  -19.0500  -30.1130   23.9490 C   0  0  0  0  0  3  0  0  0  0  0  0
  -17.7470  -30.6210   24.1100 C   0  0  0  0  0  3  0  0  0  0  0  0
  -16.6400  -29.8550   23.7030 C   0  0  0  0  0  3  0  0  0  0  0  0
  -16.8390  -28.5890   23.1250 C   0  0  0  0  0  3  0  0  0  0  0  0
  -25.9460  -32.5600   23.8300 C   0  0  0  0  0  3  0  0  0  0  0  0
  -25.6170  -33.9530   24.1570 N   0  0  0  0  0  0  0  0  0  0  0  0
  -25.9360  -35.0080   23.3960 C   0  0  0  0  0  0  0  0  0  0  0  0
  -26.6100  -34.9130   22.3670 O   0  0  0  0  0  0  0  0  0  0  0  0
  -25.0230  -34.0990   24.9580 H   0  0  0  0  0  0  0  0  0  0  0  0
  -24.1880  -36.7780   23.0240 C   0  0  0  0  0  1  0  0  0  0  0  0
  -25.4250  -36.3890   23.8500 C   0  0  0  0  0  3  0  0  0  0  0  0
  -27.5350  -37.3030   24.7110 C   0  0  0  0  0  1  0  0  0  0  0  0
  -26.4460  -37.4530   23.7510 N   0  0  0  0  0  0  0  0  0  0  0  0
  -26.0280  -38.3690   23.8880 H   0  0  0  0  0  0  0  0  0  0  0  0
  -26.4800  -31.8000   25.1050 C   0  0  1  0  0  0  0  0  0  0  0  0
  -25.3900  -31.5410   26.1730 C   0  0  0  0  0  1  0  0  0  0  0  0
  -27.0930  -30.4350   24.7130 C   0  0  0  0  0  1  0  0  0  0  0  0
  -27.6140  -32.6180   25.7660 C   0  0  0  0  0  1  0  0  0  0  0  0
  -29.5990  -19.0530   20.4410 C   0  0  0  0  0  2  0  0  0  0  0  0
  -29.8120  -17.3630   18.5240 C   0  0  0  0  0  1  0  0  0  0  0  0
  -28.0840  -17.0020   20.3220 C   0  0  0  0  0  1  0  0  0  0  0  0
  -29.5020  -17.5480   20.0310 C   0  0  2  0  0  0  0  0  0  0  0  0
  -30.5340  -16.7410   20.8780 C   0  0  0  0  0  2  0  0  0  0  0  0
  -30.8320  -14.3580   20.1480 C   0  0  0  0  0  0  0  0  0  0  0  0
  -30.4040  -12.2300   18.9830 C   0  0  0  0  0  2  0  0  0  0  0  0
  -29.4150  -12.4880   17.8270 C   0  0  0  0  0  2  0  0  0  0  0  0
  -27.9600  -12.3720   18.3300 C   0  0  0  0  0  2  0  0  0  0  0  0
  -27.7030  -13.2160   19.6090 C   0  0  0  0  0  3  0  0  0  0  0  0
  -28.8050  -12.9440   20.6640 C   0  0  0  0  0  2  0  0  0  0  0  0
  -30.1190  -13.2050   20.0440 N   0  0  0  0  0  0  0  0  0  0  0  0
  -31.8770  -14.5730   19.5300 O   0  0  0  0  0  0  0  0  0  0  0  0
  -30.2490  -15.3010   20.8950 N   0  0  0  0  0  0  0  0  0  0  0  0
  -29.4190  -15.0170   21.3920 H   0  0  0  0  0  0  0  0  0  0  0  0
  -25.3580  -13.8780   20.4540 C   0  0  0  0  0  0  0  0  0  0  0  0
  -24.2930  -13.1300   20.8760 C   0  0  0  0  0  0  0  0  0  0  0  0
  -24.7150  -11.7680   20.7900 C   0  0  0  0  0  0  0  0  0  0  0  0
  -26.3660  -12.9750   20.1500 N   0  0  0  0  0  0  0  0  0  0  0  0
  -25.9810  -11.6990   20.4000 N   0  0  0  0  0  0  0  0  0  0  0  0
  -23.9660  -10.5240   20.9910 C   0  0  0  0  0  0  0  0  0  0  0  0
  -24.4080   -9.5320   21.8950 C   0  0  0  0  0  3  0  0  0  0  0  0
  -23.6560   -8.3530   22.0880 C   0  0  0  0  0  3  0  0  0  0  0  0
  -22.4530   -8.1570   21.3700 C   0  0  0  0  0  0  0  0  0  0  0  0
  -22.0300   -9.1350   20.4520 C   0  0  0  0  0  3  0  0  0  0  0  0
  -22.7820  -10.3050   20.2580 C   0  0  0  0  0  3  0  0  0  0  0  0
  -21.6740   -7.0280   21.4690 O   0  0  0  0  0  0  0  0  0  0  0  0
  -21.6330   -6.2800   22.6170 C   0  0  0  0  0  0  0  0  0  0  0  0
  -21.2190   -6.8270   23.8510 C   0  0  0  0  0  3  0  0  0  0  0  0
  -21.1280   -6.0070   24.9920 C   0  0  0  0  0  3  0  0  0  0  0  0
  -21.4370   -4.6370   24.9020 C   0  0  0  0  0  0  0  0  0  0  0  0
  -21.8440   -4.0870   23.6740 C   0  0  0  0  0  3  0  0  0  0  0  0
  -21.9390   -4.9060   22.5340 C   0  0  0  0  0  0  0  0  0  0  0  0
  -22.3110   -4.3640   21.3490 F   0  0  0  0  0  0  0  0  0  0  0  0
  -21.3400   -3.8470   25.9970 F   0  0  0  0  0  0  0  0  0  0  0  0
  -22.9290  -13.6440   21.2420 C   0  0  0  0  0  0  0  0  0  0  0  0
  -22.2360  -12.9470   22.1350 N   0  0  0  0  0  0  0  0  0  0  0  0
  -22.4920  -14.6960   20.7800 O   0  0  0  0  0  0  0  0  0  0  0  0
  -22.6100  -12.0980   22.5310 H   0  0  0  0  0  0  0  0  0  0  0  0
  -21.3220  -13.2630   22.4310 H   0  0  0  0  0  0  0  0  0  0  0  0
  -25.5370  -15.2430   20.2810 N   0  0  0  0  0  0  0  0  0  0  0  0
  -24.7850  -15.9060   20.4280 H   0  0  0  0  0  0  0  0  0  0  0  0
  -26.3700  -15.6630   19.8880 H   0  0  0  0  0  0  0  0  0  0  0  0
  1  6  1  0
  2  3  1  0
  2  1  2  0
  3  5  2  0
  4  3  1  0
  5  6  1  0
  6 52  1  0
  7  8  1  0
  7  2  1  0
  8  9  1  0
  9 10  1  0
 10 11  1  0
 12 23  2  0
 13 11  1  0
 13 18  1  0
 14 22  1  0
 14 24  1  0
 15 21  1  0
 15 17  1  0
 16 22  1  0
 17 18  2  0
 17 16  1  0
 19 13  2  0
 20 19  1  0
 20 15  2  0
 21 14  1  0
 22 12  1  0
 24 26  2  0
 25 24  1  0
 27 25  1  0
 28 37  2  0
 28 33  1  0
 29 25  1  0
 29 33  1  0
 30 29  1  0
 31 32  1  0
 31 30  1  0
 32 28  1  0
 33 34  2  0
 34 35  1  0
 36 35  2  0
 37 36  1  0
 38 12  1  0
 38 39  1  0
 38 48  1  0
 39 42  1  0
 40 44  1  0
 40 39  1  0
 41 40  2  0
 44 43  1  0
 46 44  1  0
 46 47  1  0
 46 45  1  0
 48 51  1  1
 48 49  1  0
 50 48  1  0
 55 53  1  6
 55 54  1  0
 55 52  1  0
 55 56  1  0
 56 65  1  0
 57 65  1  0
 58 63  1  0
 59 60  1  0
 59 58  1  0
 61 60  1  0
 61 70  1  0
 61 62  1  0
 63 57  1  0
 63 62  1  0
 64 57  2  0
 65 66  1  0
 67 68  2  0
 68 87  1  0
 69 68  1  0
 69 72  1  0
 70 71  1  0
 70 67  1  0
 71 69  2  0
 72 73  1  0
 73 74  2  0
 75 78  1  0
 75 74  1  0
 76 75  2  0
 77 76  1  0
 77 72  2  0
 78 79  1  0
 79 80  1  0
 80 81  2  0
 82 81  1  0
 82 86  1  0
 83 82  2  0
 84 79  2  0
 84 83  1  0
 85 84  1  0
 87 88  1  0
 88 91  1  0
 88 90  1  0
 89 87  2  0
 92 93  1  0
 92 67  1  0
 94 92  1  0
M  ISO  4  10 101  11 101  57 100  65 100
M  END
>  <TORSDO>  (94) 
F 23

>  <SCORE>  (94) 
-12.775

>  <name>  (94) 
96

>  <ligand_id>  (94) 
96

>  <original_smiles>  (94) 
[H]c1c([H])c([H])c2c(c1[H])C([H])([H])C([H])([H])C([H])([H])C2([H])N([H])C(=O)C1([H])N(C(=O)C([H])(N([H])C(=O)C([H])(N([H])C([H])([H])[H])C([H])([H])[H])C(C([H])([H])[H])(C([H])([H])[H])C([H])([H])[H])C([H])([H])c2c([H])c(OC([H])([H])C([H])([H])C([H])([H])C([H])([H])c3c(C([H])([H])[H])nn(C([H])([H])C(C([H])([H])[H])(C([H])([H])[H])C([H])([H])N([H])C(=O)N4C([H])([H])C([H])([H])C([H])([H])C([H])(n5nc(-c6c([H])c([H])c(Oc7c([H])c([H])c(F)c([H])c7F)c([H])c6[H])c(C(=O)N([H])[H])c5N([H])[H])C4([H])[H])c3[H])c([H])c([H])c2C1([H])[H]

>  <smiles>  (94) 
[H]c1c([H])c([H])c2c(c1[H])C([H])([H])C([H])([H])C([H])([H])C2([H])N([H])C(=O)C1([H])N(C(=O)C([H])(N([H])C(=O)C([H])(N([H])C([H])([H])[H])C([H])([H])[H])C(C([H])([H])[H])(C([H])([H])[H])C([H])([H])[H])C([H])([H])c2c([H])c(OC([H])([H])C([H])([H])C([H])([H])C([H])([H])c3c(C([H])([H])[H])nn(C([H])([H])C(C([H])([H])[H])(C([H])([H])[H])C([H])([H])N([H])C(=O)N4C([H])([H])C([H])([H])C([H])([H])C([H])(n5nc(-c6c([H])c([H])c(Oc7c([H])c([H])c(F)c([H])c7F)c([H])c6[H])c(C(=O)N([H])[H])c5N([H])[H])C4([H])[H])c3[H])c([H])c([H])c2C1([H])[H]

$$$$
97:0:0
     RDKit          3D

 92100  0  0  1  0  0  0  0  0999 V2000
  -28.0250  -19.0620   20.6540 C   0  0  0  0  0  3  0  0  0  0  0  0
  -30.1320  -19.6960   20.2690 C   0  0  0  0  0  3  0  0  0  0  0  0
  -27.9730  -20.2830   20.0370 C   0  0  0  0  0  0  0  0  0  0  0  0
  -29.3170  -20.6840   19.7630 C   0  0  0  0  0  0  0  0  0  0  0  0
  -26.7130  -21.0370   19.6820 C   0  0  0  0  0  1  0  0  0  0  0  0
  -29.3460  -18.6790   20.7870 N   0  0  0  0  0  0  0  0  0  0  0  0
  -30.7550  -17.5910   22.5310 C   0  0  0  0  0  1  0  0  0  0  0  0
  -29.8040  -17.4030   21.3400 C   0  0  0  0  0  3  0  0  0  0  0  0
  -30.3890  -16.4950   20.2320 C   0  0  0  0  0  2  0  0  0  0  0  0
  -31.2070  -14.2010   19.9530 C   0  0  0  0  0  0  0  0  0  0  0  0
  -30.8070  -11.9760   18.9780 C   0  0  0  0  0  2  0  0  0  0  0  0
  -29.8270  -12.0750   17.7920 C   0  0  0  0  0  2  0  0  0  0  0  0
  -28.3630  -12.0360   18.2780 C   0  0  0  0  0  2  0  0  0  0  0  0
  -28.0900  -13.0080   19.4580 C   0  0  0  0  0  3  0  0  0  0  0  0
  -29.1680  -12.8460   20.5530 C   0  0  0  0  0  2  0  0  0  0  0  0
  -30.4950  -13.0450   19.9390 N   0  0  0  0  0  0  0  0  0  0  0  0
  -32.2090  -14.3980   19.2610 O   0  0  0  0  0  0  0  0  0  0  0  0
  -30.7140  -15.1620   20.7350 N   0  0  0  0  0  0  0  0  0  0  0  0
  -31.0280  -15.1120   21.6970 H   0  0  0  0  0  0  0  0  0  0  0  0
  -25.7740  -13.7730   20.2940 C   0  0  0  0  0  0  0  0  0  0  0  0
  -24.6730  -13.0730   20.7010 C   0  0  0  0  0  0  0  0  0  0  0  0
  -25.0250  -11.6900   20.6120 C   0  0  0  0  0  0  0  0  0  0  0  0
  -26.7400  -12.8230   19.9950 N   0  0  0  0  0  0  0  0  0  0  0  0
  -26.2910  -11.5640   20.2350 N   0  0  0  0  0  0  0  0  0  0  0  0
  -24.2140  -10.4810   20.8060 C   0  0  0  0  0  0  0  0  0  0  0  0
  -24.5300   -9.5240   21.7990 C   0  0  0  0  0  3  0  0  0  0  0  0
  -23.7200   -8.3800   21.9770 C   0  0  0  0  0  3  0  0  0  0  0  0
  -22.5780   -8.1850   21.1650 C   0  0  0  0  0  0  0  0  0  0  0  0
  -22.2790   -9.1270   20.1630 C   0  0  0  0  0  3  0  0  0  0  0  0
  -23.0890  -10.2610   19.9820 C   0  0  0  0  0  3  0  0  0  0  0  0
  -21.7520   -7.0900   21.2490 O   0  0  0  0  0  0  0  0  0  0  0  0
  -21.4860   -6.4800   22.4490 C   0  0  0  0  0  0  0  0  0  0  0  0
  -20.8920   -7.1780   23.5240 C   0  0  0  0  0  3  0  0  0  0  0  0
  -20.5750   -6.4960   24.7170 C   0  0  0  0  0  3  0  0  0  0  0  0
  -20.8320   -5.1170   24.8300 C   0  0  0  0  0  0  0  0  0  0  0  0
  -21.4220   -4.4200   23.7610 C   0  0  0  0  0  3  0  0  0  0  0  0
  -21.7400   -5.0980   22.5720 C   0  0  0  0  0  0  0  0  0  0  0  0
  -22.2830   -4.4140   21.5350 F   0  0  0  0  0  0  0  0  0  0  0  0
  -20.5210   -4.4610   25.9740 F   0  0  0  0  0  0  0  0  0  0  0  0
  -23.3290  -13.6450   21.0610 C   0  0  0  0  0  0  0  0  0  0  0  0
  -22.5980  -12.9910   21.9560 N   0  0  0  0  0  0  0  0  0  0  0  0
  -22.9400  -14.7090   20.5770 O   0  0  0  0  0  0  0  0  0  0  0  0
  -22.9230  -12.1330   22.3800 H   0  0  0  0  0  0  0  0  0  0  0  0
  -21.6930  -13.3520   22.2310 H   0  0  0  0  0  0  0  0  0  0  0  0
  -26.0340  -15.1350   20.1370 N   0  0  0  0  0  0  0  0  0  0  0  0
  -25.3200  -15.8440   20.2510 H   0  0  0  0  0  0  0  0  0  0  0  0
  -26.9090  -15.5040   19.7870 H   0  0  0  0  0  0  0  0  0  0  0  0
  -29.7300  -21.9430   19.0210 C   0  0  0  0  0  2  0  0  0  0  0  0
  -30.1340  -23.1130   19.9400 C   0  0  0  0  0  2  0  0  0  0  0  0
  -30.2530  -24.4840   19.2200 C   0  0  0  0  0  2  0  0  0  0  0  0
  -28.9050  -25.1020   18.7850 C   0  0  0  0  0  2  0  0  0  0  0  0
  -28.9340  -26.5390   18.7350 O   0  0  0  0  0  0  0  0  0  0  0  0
  -24.9350  -30.6590   22.9330 C   0  0  0  0  0  0  0  0  0  0  0  0
  -27.7130  -27.1710   18.8960 C   0  0  0  0  0  0  0  0  0  0  0  0
  -23.7310  -29.4990   21.1070 C   0  0  0  0  0  3  0  0  0  0  0  0
  -25.2050  -28.4210   19.3210 C   0  0  0  0  0  0  0  0  0  0  0  0
  -26.1980  -30.1330   20.8470 C   0  0  0  0  0  2  0  0  0  0  0  0
  -26.3550  -28.9280   19.9440 C   0  0  0  0  0  0  0  0  0  0  0  0
  -27.6090  -28.3080   19.7300 C   0  0  0  0  0  3  0  0  0  0  0  0
  -26.5440  -26.6920   18.2580 C   0  0  0  0  0  3  0  0  0  0  0  0
  -25.2930  -27.3050   18.4690 C   0  0  0  0  0  3  0  0  0  0  0  0
  -23.8920  -29.1160   19.6100 C   0  0  0  0  0  2  0  0  0  0  0  0
  -24.9760  -30.1000   21.6890 N   0  0  0  0  0  0  0  0  0  0  0  0
  -23.8780  -30.7140   23.5770 O   0  0  0  0  0  0  0  0  0  0  0  0
  -23.2350  -28.2540   21.8780 C   0  0  0  0  0  0  0  0  0  0  0  0
  -21.9320  -27.9430   21.7500 N   0  0  0  0  0  0  0  0  0  0  0  0
  -24.0180  -27.5800   22.5540 O   0  0  0  0  0  0  0  0  0  0  0  0
  -21.3550  -28.5410   21.1750 H   0  0  0  0  0  0  0  0  0  0  0  0
  -18.7450  -26.2720   22.0660 C   0  0  0  0  0  0  0  0  0  0  0  0
  -21.2590  -26.7980   22.3590 C   0  0  0  0  0  3  0  0  0  0  0  0
  -21.5190  -25.5110   21.5540 C   0  0  0  0  0  2  0  0  0  0  0  0
  -20.4400  -25.2290   20.5010 C   0  0  0  0  0  2  0  0  0  0  0  0
  -19.0680  -25.0900   21.1660 C   0  0  0  0  0  2  0  0  0  0  0  0
  -19.7740  -27.0850   22.6170 C   0  0  0  0  0  0  0  0  0  0  0  0
  -19.4170  -28.1940   23.4130 C   0  0  0  0  0  3  0  0  0  0  0  0
  -18.0640  -28.4910   23.6640 C   0  0  0  0  0  3  0  0  0  0  0  0
  -17.0540  -27.6770   23.1270 C   0  0  0  0  0  3  0  0  0  0  0  0
  -17.3940  -26.5670   22.3320 C   0  0  0  0  0  3  0  0  0  0  0  0
  -26.2090  -31.2770   23.5940 C   0  0  0  0  0  3  0  0  0  0  0  0
  -25.8210  -32.5690   24.1750 N   0  0  0  0  0  0  0  0  0  0  0  0
  -26.0570  -33.7610   23.6120 C   0  0  0  0  0  0  0  0  0  0  0  0
  -26.6950  -33.8890   22.5620 O   0  0  0  0  0  0  0  0  0  0  0  0
  -25.2450  -32.5350   25.0040 H   0  0  0  0  0  0  0  0  0  0  0  0
  -24.2020  -35.4580   23.6280 C   0  0  0  0  0  1  0  0  0  0  0  0
  -25.4960  -35.0070   24.3240 C   0  0  0  0  0  3  0  0  0  0  0  0
  -27.5950  -35.8820   25.2490 C   0  0  0  0  0  1  0  0  0  0  0  0
  -26.4520  -36.1330   24.3770 N   0  0  0  0  0  0  0  0  0  0  0  0
  -25.9920  -36.9840   24.6890 H   0  0  0  0  0  0  0  0  0  0  0  0
  -26.8550  -30.3450   24.6920 C   0  0  1  0  0  0  0  0  0  0  0  0
  -25.8460  -29.8480   25.7550 C   0  0  0  0  0  1  0  0  0  0  0  0
  -27.5000  -29.1020   24.0350 C   0  0  0  0  0  1  0  0  0  0  0  0
  -27.9910  -31.0950   25.4260 C   0  0  0  0  0  1  0  0  0  0  0  0
  1  6  1  0
  2  6  1  0
  3  1  2  0
  4  3  1  0
  4  2  2  0
  5  3  1  0
  6  8  1  0
  8  7  1  0
  9 18  1  0
  9  8  1  0
 10 18  1  0
 11 16  1  0
 12 13  1  0
 12 11  1  0
 14 13  1  0
 14 23  1  0
 14 15  1  0
 16 10  1  0
 16 15  1  0
 17 10  2  0
 18 19  1  0
 20 21  2  0
 21 40  1  0
 22 21  1  0
 22 25  1  0
 23 24  1  0
 23 20  1  0
 24 22  2  0
 25 26  1  0
 26 27  2  0
 28 31  1  0
 28 27  1  0
 29 28  2  0
 30 29  1  0
 30 25  2  0
 31 32  1  0
 32 37  2  0
 32 33  1  0
 33 34  2  0
 34 35  1  0
 35 39  1  0
 36 35  2  0
 37 36  1  0
 38 37  1  0
 40 41  1  0
 41 44  1  0
 41 43  1  0
 42 40  2  0
 45 46  1  0
 45 20  1  0
 47 45  1  0
 48  4  1  0
 48 49  1  0
 50 49  1  0
 51 50  1  0
 52 51  1  0
 52 54  1  0
 53 64  2  0
 54 59  1  0
 55 63  1  0
 55 65  1  0
 56 62  1  0
 56 58  1  0
 57 63  1  0
 58 57  1  0
 59 58  2  0
 60 61  1  0
 60 54  2  0
 61 56  2  0
 62 55  1  0
 63 53  1  0
 65 67  2  0
 66 65  1  0
 68 66  1  0
 69 78  2  0
 69 74  1  0
 70 66  1  0
 70 74  1  0
 71 70  1  0
 72 73  1  0
 72 71  1  0
 73 69  1  0
 74 75  2  0
 75 76  1  0
 77 76  2  0
 78 77  1  0
 79 53  1  0
 79 80  1  0
 79 89  1  0
 80 83  1  0
 81 80  1  0
 81 85  1  0
 82 81  2  0
 85 84  1  0
 85 87  1  0
 87 88  1  0
 87 86  1  0
 89 92  1  1
 89 90  1  0
 91 89  1  0
M  ISO  4  10 100  18 100  51 101  52 101
M  END
>  <TORSDO>  (95) 
F 22

>  <SCORE>  (95) 
-8.789

>  <name>  (95) 
97

>  <ligand_id>  (95) 
97

>  <original_smiles>  (95) 
[H]c1c([H])c([H])c2c(c1[H])C([H])([H])C([H])([H])C([H])([H])C2([H])N([H])C(=O)C1([H])N(C(=O)C([H])(N([H])C(=O)C([H])(N([H])C([H])([H])[H])C([H])([H])[H])C(C([H])([H])[H])(C([H])([H])[H])C([H])([H])[H])C([H])([H])c2c([H])c(OC([H])([H])C([H])([H])C([H])([H])C([H])([H])c3c(C([H])([H])[H])c([H])n(C([H])(C([H])([H])[H])C([H])([H])N([H])C(=O)N4C([H])([H])C([H])([H])C([H])([H])C([H])(n5nc(-c6c([H])c([H])c(Oc7c([H])c([H])c(F)c([H])c7F)c([H])c6[H])c(C(=O)N([H])[H])c5N([H])[H])C4([H])[H])c3[H])c([H])c([H])c2C1([H])[H]

>  <smiles>  (95) 
[H]c1c([H])c([H])c2c(c1[H])C([H])([H])C([H])([H])C([H])([H])C2([H])N([H])C(=O)C1([H])N(C(=O)C([H])(N([H])C(=O)C([H])(N([H])C([H])([H])[H])C([H])([H])[H])C(C([H])([H])[H])(C([H])([H])[H])C([H])([H])[H])C([H])([H])c2c([H])c(OC([H])([H])C([H])([H])C([H])([H])C([H])([H])c3c(C([H])([H])[H])c([H])n(C([H])(C([H])([H])[H])C([H])([H])N([H])C(=O)N4C([H])([H])C([H])([H])C([H])([H])C([H])(n5nc(-c6c([H])c([H])c(Oc7c([H])c([H])c(F)c([H])c7F)c([H])c6[H])c(C(=O)N([H])[H])c5N([H])[H])C4([H])[H])c3[H])c([H])c([H])c2C1([H])[H]

$$$$
