0:0:0
     RDKit          3D

 89 97  0  0  1  0  0  0  0  0999 V2000
  -31.0010  -21.1510   19.7290 C   0  0  0  0  0  3  0  0  0  0  0  0
  -31.8640  -22.0630   19.1430 C   0  0  0  0  0  3  0  0  0  0  0  0
  -29.6420  -21.4100   20.0330 C   0  0  0  0  0  0  0  0  0  0  0  0
  -29.2540  -22.9650   19.8550 C   0  0  0  0  0  0  0  0  0  0  0  0
  -30.2090  -23.6570   19.0320 C   0  0  0  0  0  0  0  0  0  0  0  0
  -29.9100  -24.9500   18.2810 C   0  0  0  0  0  1  0  0  0  0  0  0
  -31.4520  -23.2530   18.7300 N   0  0  0  0  0  0  0  0  0  0  0  0
  -29.0700  -19.8030   20.4220 C   0  0  0  0  0  3  0  0  0  0  0  0
  -29.9720  -18.2190   20.2100 C   0  0  0  0  0  3  0  0  0  0  0  0
  -30.3870  -15.2950   20.2300 C   0  0  0  0  0  0  0  0  0  0  0  0
  -30.3380  -12.8530   19.3310 C   0  0  0  0  0  2  0  0  0  0  0  0
  -29.4070  -12.6720   18.1040 C   0  0  0  0  0  2  0  0  0  0  0  0
  -27.9650  -12.3890   18.5600 C   0  0  0  0  0  2  0  0  0  0  0  0
  -27.5290  -13.3330   19.7090 C   0  0  0  0  0  3  0  0  0  0  0  0
  -28.5930  -13.4750   20.8210 C   0  0  0  0  0  2  0  0  0  0  0  0
  -29.8130  -13.9890   20.1790 N   0  0  0  0  0  0  0  0  0  0  0  0
  -31.5970  -15.2890   19.9620 O   0  0  0  0  0  0  0  0  0  0  0  0
  -29.6450  -16.5780   20.3770 N   0  0  0  0  0  0  0  0  0  0  0  0
  -28.6690  -16.4080   20.5780 H   0  0  0  0  0  0  0  0  0  0  0  0
  -25.1670  -13.8710   20.5010 C   0  0  0  0  0  0  0  0  0  0  0  0
  -24.1160  -13.0890   20.8850 C   0  0  0  0  0  0  0  0  0  0  0  0
  -24.5920  -11.7400   20.8460 C   0  0  0  0  0  0  0  0  0  0  0  0
  -26.2120  -13.0050   20.2390 N   0  0  0  0  0  0  0  0  0  0  0  0
  -25.8790  -11.7170   20.5150 N   0  0  0  0  0  0  0  0  0  0  0  0
  -23.8750  -10.4730   21.0420 C   0  0  0  0  0  0  0  0  0  0  0  0
  -24.3260   -9.5010   21.9630 C   0  0  0  0  0  3  0  0  0  0  0  0
  -23.6040   -8.3020   22.1510 C   0  0  0  0  0  3  0  0  0  0  0  0
  -22.4170   -8.0660   21.4160 C   0  0  0  0  0  0  0  0  0  0  0  0
  -21.9850   -9.0260   20.4850 C   0  0  0  0  0  3  0  0  0  0  0  0
  -22.7080  -10.2150   20.2950 C   0  0  0  0  0  3  0  0  0  0  0  0
  -21.6670   -6.9180   21.5130 O   0  0  0  0  0  0  0  0  0  0  0  0
  -21.6450   -6.1670   22.6610 C   0  0  0  0  0  0  0  0  0  0  0  0
  -21.2520   -6.7140   23.9020 C   0  0  0  0  0  3  0  0  0  0  0  0
  -21.1730   -5.8880   25.0410 C   0  0  0  0  0  3  0  0  0  0  0  0
  -21.4820   -4.5180   24.9430 C   0  0  0  0  0  0  0  0  0  0  0  0
  -21.8730   -3.9720   23.7070 C   0  0  0  0  0  3  0  0  0  0  0  0
  -21.9490   -4.7940   22.5690 C   0  0  0  0  0  0  0  0  0  0  0  0
  -22.3040   -4.2570   21.3760 F   0  0  0  0  0  0  0  0  0  0  0  0
  -21.4020   -3.7240   26.0360 F   0  0  0  0  0  0  0  0  0  0  0  0
  -22.7200  -13.5580   21.1720 C   0  0  0  0  0  0  0  0  0  0  0  0
  -22.0050  -12.8620   22.0490 N   0  0  0  0  0  0  0  0  0  0  0  0
  -22.2710  -14.5790   20.6530 O   0  0  0  0  0  0  0  0  0  0  0  0
  -22.3800  -12.0350   22.4900 H   0  0  0  0  0  0  0  0  0  0  0  0
  -21.0690  -13.1610   22.2840 H   0  0  0  0  0  0  0  0  0  0  0  0
  -25.3170  -15.2440   20.3210 N   0  0  0  0  0  0  0  0  0  0  0  0
  -24.5410  -15.8870   20.4210 H   0  0  0  0  0  0  0  0  0  0  0  0
  -26.1420  -15.6820   19.9340 H   0  0  0  0  0  0  0  0  0  0  0  0
  -28.0460  -24.1670   20.2590 C   0  0  0  0  0  2  0  0  0  0  0  0
  -28.2040  -25.8330   20.2480 O   0  0  0  0  0  0  0  0  0  0  0  0
  -24.6240  -31.8440   23.1740 C   0  0  0  0  0  0  0  0  0  0  0  0
  -27.1750  -26.9220   20.2030 C   0  0  0  0  0  0  0  0  0  0  0  0
  -23.4300  -30.4390   21.5460 C   0  0  0  0  0  3  0  0  0  0  0  0
  -24.8760  -28.8130   20.1400 C   0  0  0  0  0  0  0  0  0  0  0  0
  -25.9970  -30.6400   21.3970 C   0  0  0  0  0  2  0  0  0  0  0  0
  -26.0670  -29.2220   20.7560 C   0  0  0  0  0  0  0  0  0  0  0  0
  -27.2100  -28.3000   20.7560 C   0  0  0  0  0  3  0  0  0  0  0  0
  -25.9520  -26.6670   19.5430 C   0  0  0  0  0  3  0  0  0  0  0  0
  -24.8460  -27.5560   19.5140 C   0  0  0  0  0  3  0  0  0  0  0  0
  -23.6590  -29.7380   20.1770 C   0  0  0  0  0  2  0  0  0  0  0  0
  -24.7070  -31.0040   22.0930 N   0  0  0  0  0  0  0  0  0  0  0  0
  -23.5330  -32.1390   23.6920 O   0  0  0  0  0  0  0  0  0  0  0  0
  -22.7330  -29.4520   22.5180 C   0  0  0  0  0  0  0  0  0  0  0  0
  -21.4000  -29.3000   22.4030 N   0  0  0  0  0  0  0  0  0  0  0  0
  -23.3980  -28.8220   23.3450 O   0  0  0  0  0  0  0  0  0  0  0  0
  -20.9140  -29.8600   21.7170 H   0  0  0  0  0  0  0  0  0  0  0  0
  -18.0100  -28.1190   22.9420 C   0  0  0  0  0  0  0  0  0  0  0  0
  -20.5760  -28.3680   23.1820 C   0  0  0  0  0  3  0  0  0  0  0  0
  -20.6580  -26.9340   22.6080 C   0  0  0  0  0  2  0  0  0  0  0  0
  -19.5450  -26.6200   21.6030 C   0  0  0  0  0  2  0  0  0  0  0  0
  -18.1700  -26.7720   22.2600 C   0  0  0  0  0  2  0  0  0  0  0  0
  -19.1380  -28.8770   23.3610 C   0  0  0  0  0  0  0  0  0  0  0  0
  -18.9280  -30.1360   23.9620 C   0  0  0  0  0  3  0  0  0  0  0  0
  -17.6270  -30.6410   24.1460 C   0  0  0  0  0  3  0  0  0  0  0  0
  -16.5160  -29.8810   23.7400 C   0  0  0  0  0  3  0  0  0  0  0  0
  -16.7090  -28.6230   23.1430 C   0  0  0  0  0  3  0  0  0  0  0  0
  -25.8930  -32.4920   23.8080 C   0  0  0  0  0  3  0  0  0  0  0  0
  -26.4060  -31.7210   25.0870 C   0  0  1  0  0  0  0  0  0  0  0  0
  -25.3110  -31.4820   26.1540 C   0  0  0  0  0  1  0  0  0  0  0  0
  -26.9910  -30.3440   24.7020 C   0  0  0  0  0  1  0  0  0  0  0  0
  -27.5550  -32.5170   25.7500 C   0  0  0  0  0  1  0  0  0  0  0  0
  -25.5670  -33.8860   24.1560 N   0  0  0  0  0  0  0  0  0  0  0  0
  -25.8820  -34.9570   23.4130 C   0  0  0  0  0  0  0  0  0  0  0  0
  -26.5400  -34.8740   22.3740 O   0  0  0  0  0  0  0  0  0  0  0  0
  -24.9730  -34.0220   24.9600 H   0  0  0  0  0  0  0  0  0  0  0  0
  -24.1310  -36.7450   23.1250 C   0  0  0  0  0  1  0  0  0  0  0  0
  -25.3940  -36.3370   23.9000 C   0  0  0  0  0  3  0  0  0  0  0  0
  -27.5410  -37.2340   24.6910 C   0  0  0  0  0  1  0  0  0  0  0  0
  -26.4160  -37.4010   23.7760 N   0  0  0  0  0  0  0  0  0  0  0  0
  -26.0040  -38.3170   23.9400 H   0  0  0  0  0  0  0  0  0  0  0  0
  1  3  1  0
  2  1  2  0
  3  8  1  0
  4  3  2  0
  4 48  1  0
  5  4  1  0
  6  5  1  0
  7  5  2  0
  7  2  1  0
  9 18  1  0
  9  8  2  0
 10 18  1  0
 11 16  1  0
 12 13  1  0
 12 11  1  0
 14 13  1  0
 14 23  1  0
 14 15  1  0
 16 10  1  0
 16 15  1  0
 17 10  2  0
 18 19  1  0
 20 21  2  0
 21 40  1  0
 22 21  1  0
 22 25  1  0
 23 20  1  0
 23 24  1  0
 24 22  2  0
 25 26  1  0
 26 27  2  0
 28 31  1  0
 28 27  1  0
 29 28  2  0
 30 29  1  0
 30 25  2  0
 31 32  1  0
 32 33  1  0
 33 34  2  0
 35 34  1  0
 35 39  1  0
 36 35  2  0
 37 32  2  0
 37 36  1  0
 38 37  1  0
 40 41  1  0
 41 44  1  0
 41 43  1  0
 42 40  2  0
 45 46  1  0
 45 20  1  0
 47 45  1  0
 49 48  1  0
 50 61  2  0
 51 49  1  0
 51 56  1  0
 52 60  1  0
 52 62  1  0
 53 59  1  0
 53 55  1  0
 54 60  1  0
 55 54  1  0
 56 55  2  0
 57 51  2  0
 58 57  1  0
 58 53  2  0
 59 52  1  0
 60 50  1  0
 62 64  2  0
 63 62  1  0
 65 63  1  0
 66 75  2  0
 66 71  1  0
 67 63  1  0
 67 71  1  0
 68 67  1  0
 69 70  1  0
 69 68  1  0
 70 66  1  0
 71 72  2  0
 72 73  1  0
 74 73  2  0
 75 74  1  0
 76 50  1  0
 76 81  1  0
 76 77  1  0
 77 80  1  1
 77 78  1  0
 79 77  1  0
 81 84  1  0
 82 86  1  0
 82 81  1  0
 83 82  2  0
 86 85  1  0
 88 86  1  0
 88 89  1  0
 88 87  1  0
M  ISO  4  10 100  18 100  48 101  49 101
M  END
>  <TORSDO>  (1) 
F 19

>  <SCORE>  (1) 
-16.547

>  <name>  (1) 
0

>  <ligand_id>  (1) 
0

>  <original_smiles>  (1) 
[H]c1nc(C([H])([H])[H])c(C([H])([H])Oc2c([H])c([H])c3c(c2[H])C([H])([H])N(C(=O)C([H])(N([H])C(=O)C([H])(N([H])C([H])([H])[H])C([H])([H])[H])C(C([H])([H])[H])(C([H])([H])[H])C([H])([H])[H])C([H])(C(=O)N([H])C2([H])c4c([H])c([H])c([H])c([H])c4C([H])([H])C([H])([H])C2([H])[H])C3([H])[H])c(C([H])([H])C([H])([H])N([H])C(=O)N2C([H])([H])C([H])([H])C([H])([H])C([H])(n3nc(-c4c([H])c([H])c(Oc5c([H])c([H])c(F)c([H])c5F)c([H])c4[H])c(C(=O)N([H])[H])c3N([H])[H])C2([H])[H])c1[H]

>  <smiles>  (1) 
[H]c1nc(C([H])([H])[H])c(C([H])([H])Oc2c([H])c([H])c3c(c2[H])C([H])([H])N(C(=O)C([H])(N([H])C(=O)C([H])(N([H])C([H])([H])[H])C([H])([H])[H])C(C([H])([H])[H])(C([H])([H])[H])C([H])([H])[H])C([H])(C(=O)N([H])C2([H])c4c([H])c([H])c([H])c([H])c4C([H])([H])C([H])([H])C2([H])[H])C3([H])[H])c(C([H])([H])C([H])([H])N([H])C(=O)N2C([H])([H])C([H])([H])C([H])([H])C([H])(n3nc(-c4c([H])c([H])c(Oc5c([H])c([H])c(F)c([H])c5F)c([H])c4[H])c(C(=O)N([H])[H])c3N([H])[H])C2([H])[H])c1[H]

$$$$
1:0:0
     RDKit          3D

 94102  0  0  1  0  0  0  0  0999 V2000
  -29.5360  -21.7250   20.2630 C   0  0  0  0  0  3  0  0  0  0  0  0
  -30.2530  -22.9030   19.9950 C   0  0  0  0  0  0  0  0  0  0  0  0
  -30.2460  -20.5110   20.3230 C   0  0  0  0  0  0  0  0  0  0  0  0
  -31.6460  -22.7880   19.7770 C   0  0  0  0  0  0  0  0  0  0  0  0
  -32.5250  -23.9830   19.4600 C   0  0  0  0  0  1  0  0  0  0  0  0
  -31.5960  -20.4840   20.1540 N   0  0  0  0  0  0  0  0  0  0  0  0
  -32.2800  -21.5940   19.8620 N   0  0  0  0  0  0  0  0  0  0  0  0
  -28.0390  -19.1760   20.3520 C   0  0  0  0  0  1  0  0  0  0  0  0
  -29.5550  -19.1780   20.6510 C   0  0  0  0  0  3  0  0  0  0  0  0
  -30.2350  -17.9870   19.9380 C   0  0  0  0  0  2  0  0  0  0  0  0
  -31.4420  -17.4520   20.7340 C   0  0  0  0  0  2  0  0  0  0  0  0
  -31.0890  -16.4240   21.8330 C   0  0  0  0  0  2  0  0  0  0  0  0
  -30.8030  -14.4210   20.3720 C   0  0  0  0  0  0  0  0  0  0  0  0
  -30.3870  -12.3370   19.1350 C   0  0  0  0  0  2  0  0  0  0  0  0
  -29.4280  -12.5800   17.9600 C   0  0  0  0  0  2  0  0  0  0  0  0
  -27.9610  -12.4670   18.4180 C   0  0  0  0  0  2  0  0  0  0  0  0
  -27.6650  -13.2900   19.7010 C   0  0  0  0  0  3  0  0  0  0  0  0
  -28.7360  -13.0300   20.7810 C   0  0  0  0  0  2  0  0  0  0  0  0
  -30.0600  -13.3010   20.1920 N   0  0  0  0  0  0  0  0  0  0  0  0
  -31.8200  -14.6630   19.7180 O   0  0  0  0  0  0  0  0  0  0  0  0
  -30.3810  -15.2400   21.3420 N   0  0  0  0  0  0  0  0  0  0  0  0
  -29.5510  -14.9580   21.8430 H   0  0  0  0  0  0  0  0  0  0  0  0
  -25.2830  -13.9060   20.4560 C   0  0  0  0  0  0  0  0  0  0  0  0
  -24.2170  -13.1360   20.8390 C   0  0  0  0  0  0  0  0  0  0  0  0
  -24.6670  -11.7810   20.7800 C   0  0  0  0  0  0  0  0  0  0  0  0
  -26.3190  -13.0200   20.1990 N   0  0  0  0  0  0  0  0  0  0  0  0
  -25.9490  -11.7350   20.4460 N   0  0  0  0  0  0  0  0  0  0  0  0
  -23.9330  -10.5220   20.9690 C   0  0  0  0  0  0  0  0  0  0  0  0
  -24.3480   -9.5610   21.9160 C   0  0  0  0  0  3  0  0  0  0  0  0
  -23.6160   -8.3680   22.0950 C   0  0  0  0  0  3  0  0  0  0  0  0
  -22.4520   -8.1260   21.3250 C   0  0  0  0  0  0  0  0  0  0  0  0
  -22.0550   -9.0760   20.3660 C   0  0  0  0  0  3  0  0  0  0  0  0
  -22.7900  -10.2600   20.1860 C   0  0  0  0  0  3  0  0  0  0  0  0
  -21.6930   -6.9840   21.4130 O   0  0  0  0  0  0  0  0  0  0  0  0
  -21.6050   -6.2650   22.5780 C   0  0  0  0  0  0  0  0  0  0  0  0
  -21.1150   -6.8380   23.7730 C   0  0  0  0  0  3  0  0  0  0  0  0
  -20.9750   -6.0440   24.9290 C   0  0  0  0  0  3  0  0  0  0  0  0
  -21.3160   -4.6780   24.8910 C   0  0  0  0  0  0  0  0  0  0  0  0
  -21.7970   -4.1050   23.7020 C   0  0  0  0  0  3  0  0  0  0  0  0
  -21.9370   -4.8950   22.5480 C   0  0  0  0  0  0  0  0  0  0  0  0
  -22.3810   -4.3330   21.3970 F   0  0  0  0  0  0  0  0  0  0  0  0
  -21.1760   -3.9130   26.0000 F   0  0  0  0  0  0  0  0  0  0  0  0
  -22.8300  -13.6180   21.1530 C   0  0  0  0  0  0  0  0  0  0  0  0
  -22.1180  -12.9090   22.0250 N   0  0  0  0  0  0  0  0  0  0  0  0
  -22.3850  -14.6540   20.6600 O   0  0  0  0  0  0  0  0  0  0  0  0
  -22.4920  -12.0700   22.4430 H   0  0  0  0  0  0  0  0  0  0  0  0
  -21.1870  -13.2090   22.2780 H   0  0  0  0  0  0  0  0  0  0  0  0
  -25.4500  -15.2770   20.2910 N   0  0  0  0  0  0  0  0  0  0  0  0
  -24.6880  -15.9310   20.4290 H   0  0  0  0  0  0  0  0  0  0  0  0
  -26.2950  -15.7180   19.9510 H   0  0  0  0  0  0  0  0  0  0  0  0
  -29.5200  -24.2250   19.9970 C   0  0  0  0  0  2  0  0  0  0  0  0
  -29.6840  -24.9580   21.3350 C   0  0  0  0  0  2  0  0  0  0  0  0
  -28.5910  -26.0030   21.5400 C   0  0  0  0  0  2  0  0  0  0  0  0
  -28.4680  -26.7590   20.3460 O   0  0  0  0  0  0  0  0  0  0  0  0
  -24.6250  -31.9130   23.3120 C   0  0  0  0  0  0  0  0  0  0  0  0
  -27.3090  -27.4760   20.3250 C   0  0  0  0  0  0  0  0  0  0  0  0
  -23.4330  -30.4810   21.6790 C   0  0  0  0  0  3  0  0  0  0  0  0
  -24.9040  -28.9260   20.2960 C   0  0  0  0  0  0  0  0  0  0  0  0
  -25.9530  -30.8590   21.4920 C   0  0  0  0  0  2  0  0  0  0  0  0
  -26.0490  -29.4800   20.8840 C   0  0  0  0  0  0  0  0  0  0  0  0
  -27.2580  -28.7590   20.9000 C   0  0  0  0  0  3  0  0  0  0  0  0
  -26.1580  -26.9210   19.7320 C   0  0  0  0  0  3  0  0  0  0  0  0
  -24.9490  -27.6410   19.7220 C   0  0  0  0  0  3  0  0  0  0  0  0
  -23.6570  -29.7770   20.3130 C   0  0  0  0  0  2  0  0  0  0  0  0
  -24.6880  -31.0980   22.2210 N   0  0  0  0  0  0  0  0  0  0  0  0
  -23.5380  -32.1940   23.8370 O   0  0  0  0  0  0  0  0  0  0  0  0
  -22.7750  -29.4750   22.6500 C   0  0  0  0  0  0  0  0  0  0  0  0
  -21.4590  -29.2670   22.4900 N   0  0  0  0  0  0  0  0  0  0  0  0
  -23.4460  -28.8850   23.5010 O   0  0  0  0  0  0  0  0  0  0  0  0
  -20.9800  -29.7980   21.7770 H   0  0  0  0  0  0  0  0  0  0  0  0
  -18.0970  -28.0090   22.8880 C   0  0  0  0  0  0  0  0  0  0  0  0
  -20.6340  -28.3380   23.2590 C   0  0  0  0  0  3  0  0  0  0  0  0
  -20.7940  -26.8890   22.7420 C   0  0  0  0  0  2  0  0  0  0  0  0
  -19.7450  -26.5040   21.6950 C   0  0  0  0  0  2  0  0  0  0  0  0
  -18.3330  -26.6390   22.2730 C   0  0  0  0  0  2  0  0  0  0  0  0
  -19.1790  -28.8130   23.3360 C   0  0  0  0  0  0  0  0  0  0  0  0
  -18.9070  -30.0930   23.8670 C   0  0  0  0  0  3  0  0  0  0  0  0
  -17.5860  -30.5710   23.9530 C   0  0  0  0  0  3  0  0  0  0  0  0
  -16.5180  -29.7650   23.5250 C   0  0  0  0  0  3  0  0  0  0  0  0
  -16.7740  -28.4860   22.9980 C   0  0  0  0  0  3  0  0  0  0  0  0
  -25.9060  -32.5520   23.9330 C   0  0  0  0  0  3  0  0  0  0  0  0
  -25.5990  -33.9550   24.2360 N   0  0  0  0  0  0  0  0  0  0  0  0
  -25.9600  -34.9940   23.4710 C   0  0  0  0  0  0  0  0  0  0  0  0
  -26.6570  -34.8720   22.4600 O   0  0  0  0  0  0  0  0  0  0  0  0
  -24.9860  -34.1250   25.0210 H   0  0  0  0  0  0  0  0  0  0  0  0
  -24.2660  -36.7950   23.0260 C   0  0  0  0  0  1  0  0  0  0  0  0
  -25.4670  -36.3910   23.8940 C   0  0  0  0  0  3  0  0  0  0  0  0
  -27.5700  -37.2630   24.8110 C   0  0  0  0  0  1  0  0  0  0  0  0
  -26.5140  -37.4320   23.8170 N   0  0  0  0  0  0  0  0  0  0  0  0
  -26.1110  -38.3570   23.9370 H   0  0  0  0  0  0  0  0  0  0  0  0
  -26.4140  -31.7980   25.2220 C   0  0  1  0  0  0  0  0  0  0  0  0
  -25.3100  -31.5650   26.2770 C   0  0  0  0  0  1  0  0  0  0  0  0
  -27.0100  -30.4210   24.8430 C   0  0  0  0  0  1  0  0  0  0  0  0
  -27.5540  -32.6050   25.8870 C   0  0  0  0  0  1  0  0  0  0  0  0
  1  3  1  0
  2 51  1  0
  2  1  2  0
  3  9  1  0
  4  7  2  0
  4  2  1  0
  5  4  1  0
  6  3  2  0
  7  6  1  0
  9  8  1  0
 10  9  1  0
 10 11  1  0
 11 12  1  0
 13 21  1  0
 14 19  1  0
 15 16  1  0
 15 14  1  0
 17 16  1  0
 17 26  1  0
 17 18  1  0
 19 13  1  0
 19 18  1  0
 20 13  2  0
 21 12  1  0
 21 22  1  0
 23 24  2  0
 24 43  1  0
 25 24  1  0
 25 28  1  0
 26 27  1  0
 26 23  1  0
 27 25  2  0
 28 29  1  0
 29 30  2  0
 31 34  1  0
 31 30  1  0
 32 31  2  0
 33 32  1  0
 33 28  2  0
 34 35  1  0
 35 36  1  0
 36 37  2  0
 38 37  1  0
 38 42  1  0
 39 38  2  0
 40 35  2  0
 40 39  1  0
 41 40  1  0
 43 44  1  0
 44 47  1  0
 44 46  1  0
 45 43  2  0
 48 49  1  0
 48 23  1  0
 50 48  1  0
 51 52  1  0
 52 53  1  0
 54 53  1  0
 55 66  2  0
 56 54  1  0
 56 61  1  0
 57 65  1  0
 57 67  1  0
 58 64  1  0
 58 60  1  0
 59 65  1  0
 60 61  2  0
 60 59  1  0
 62 56  2  0
 63 62  1  0
 63 58  2  0
 64 57  1  0
 65 55  1  0
 67 69  2  0
 68 67  1  0
 70 68  1  0
 71 80  2  0
 71 76  1  0
 72 68  1  0
 72 76  1  0
 73 72  1  0
 74 75  1  0
 74 73  1  0
 75 71  1  0
 76 77  2  0
 77 78  1  0
 79 78  2  0
 80 79  1  0
 81 55  1  0
 81 82  1  0
 81 91  1  0
 82 85  1  0
 83 87  1  0
 83 82  1  0
 84 83  2  0
 87 86  1  0
 89 87  1  0
 89 90  1  0
 89 88  1  0
 91 94  1  1
 91 92  1  0
 93 91  1  0
M  ISO  4  13 100  21 100  53 101  54 101
M  END
>  <TORSDO>  (2) 
F 23

>  <SCORE>  (2) 
-13.031

>  <name>  (2) 
1

>  <ligand_id>  (2) 
1

>  <original_smiles>  (2) 
[H]c1c([H])c([H])c2c(c1[H])C([H])([H])C([H])([H])C([H])([H])C2([H])N([H])C(=O)C1([H])N(C(=O)C([H])(N([H])C(=O)C([H])(N([H])C([H])([H])[H])C([H])([H])[H])C(C([H])([H])[H])(C([H])([H])[H])C([H])([H])[H])C([H])([H])c2c([H])c(OC([H])([H])C([H])([H])C([H])([H])c3c(C([H])([H])[H])nnc(C([H])(C([H])([H])[H])C([H])([H])C([H])([H])C([H])([H])N([H])C(=O)N4C([H])([H])C([H])([H])C([H])([H])C([H])(n5nc(-c6c([H])c([H])c(Oc7c([H])c([H])c(F)c([H])c7F)c([H])c6[H])c(C(=O)N([H])[H])c5N([H])[H])C4([H])[H])c3[H])c([H])c([H])c2C1([H])[H]

>  <smiles>  (2) 
[H]c1c([H])c([H])c2c(c1[H])C([H])([H])C([H])([H])C([H])([H])C2([H])N([H])C(=O)C1([H])N(C(=O)C([H])(N([H])C(=O)C([H])(N([H])C([H])([H])[H])C([H])([H])[H])C(C([H])([H])[H])(C([H])([H])[H])C([H])([H])[H])C([H])([H])c2c([H])c(OC([H])([H])C([H])([H])C([H])([H])c3c(C([H])([H])[H])nnc(C([H])(C([H])([H])[H])C([H])([H])C([H])([H])C([H])([H])N([H])C(=O)N4C([H])([H])C([H])([H])C([H])([H])C([H])(n5nc(-c6c([H])c([H])c(Oc7c([H])c([H])c(F)c([H])c7F)c([H])c6[H])c(C(=O)N([H])[H])c5N([H])[H])C4([H])[H])c3[H])c([H])c([H])c2C1([H])[H]

$$$$
2:0:0
     RDKit          3D

 92100  0  0  1  0  0  0  0  0999 V2000
  -29.1580  -20.0200   21.4720 C   0  0  0  0  0  3  0  0  0  0  0  0
  -29.3480  -21.3530   21.9110 C   0  0  0  0  0  0  0  0  0  0  0  0
  -30.1370  -19.0500   21.7900 C   0  0  0  0  0  0  0  0  0  0  0  0
  -30.5160  -21.5840   22.6880 C   0  0  0  0  0  0  0  0  0  0  0  0
  -30.8500  -22.9440   23.2710 C   0  0  0  0  0  1  0  0  0  0  0  0
  -31.2140  -19.3480   22.5620 N   0  0  0  0  0  0  0  0  0  0  0  0
  -31.3980  -20.5980   22.9960 N   0  0  0  0  0  0  0  0  0  0  0  0
  -28.2780  -22.4340   21.6300 C   0  0  0  0  0  2  0  0  0  0  0  0
  -28.2630  -23.1060   20.2160 C   0  0  0  0  0  2  0  0  0  0  0  0
  -28.1930  -24.6630   20.2910 C   0  0  0  0  0  2  0  0  0  0  0  0
  -28.3080  -25.5230   19.0090 C   0  0  0  0  0  2  0  0  0  0  0  0
  -28.1900  -26.8870   19.4190 O   0  0  0  0  0  0  0  0  0  0  0  0
  -24.4720  -31.7090   23.0890 C   0  0  0  0  0  0  0  0  0  0  0  0
  -26.9640  -27.5060   19.5590 C   0  0  0  0  0  0  0  0  0  0  0  0
  -23.1620  -30.4150   21.4250 C   0  0  0  0  0  3  0  0  0  0  0  0
  -24.5330  -28.9420   19.8540 C   0  0  0  0  0  0  0  0  0  0  0  0
  -25.6870  -30.7610   21.1400 C   0  0  0  0  0  2  0  0  0  0  0  0
  -25.7230  -29.4560   20.3830 C   0  0  0  0  0  0  0  0  0  0  0  0
  -26.9360  -28.7540   20.2180 C   0  0  0  0  0  3  0  0  0  0  0  0
  -25.7490  -26.9650   19.0840 C   0  0  0  0  0  3  0  0  0  0  0  0
  -24.5400  -27.6760   19.2290 C   0  0  0  0  0  3  0  0  0  0  0  0
  -23.2970  -29.8080   20.0020 C   0  0  0  0  0  2  0  0  0  0  0  0
  -24.4590  -30.9730   21.9410 N   0  0  0  0  0  0  0  0  0  0  0  0
  -23.4230  -31.9580   23.6980 O   0  0  0  0  0  0  0  0  0  0  0  0
  -22.5470  -29.3530   22.3590 C   0  0  0  0  0  0  0  0  0  0  0  0
  -21.2190  -29.1770   22.2730 N   0  0  0  0  0  0  0  0  0  0  0  0
  -23.2630  -28.6940   23.1170 O   0  0  0  0  0  0  0  0  0  0  0  0
  -20.7020  -29.8010   21.6710 H   0  0  0  0  0  0  0  0  0  0  0  0
  -17.9140  -27.7800   22.6890 C   0  0  0  0  0  0  0  0  0  0  0  0
  -20.4470  -28.1700   23.0010 C   0  0  0  0  0  3  0  0  0  0  0  0
  -20.6340  -26.7700   22.3790 C   0  0  0  0  0  2  0  0  0  0  0  0
  -19.5590  -26.3980   21.3540 C   0  0  0  0  0  2  0  0  0  0  0  0
  -18.1620  -26.4620   21.9760 C   0  0  0  0  0  2  0  0  0  0  0  0
  -18.9820  -28.5910   23.1530 C   0  0  0  0  0  0  0  0  0  0  0  0
  -18.6960  -29.8270   23.7740 C   0  0  0  0  0  3  0  0  0  0  0  0
  -17.3650  -30.2530   23.9400 C   0  0  0  0  0  3  0  0  0  0  0  0
  -16.3080  -29.4390   23.4920 C   0  0  0  0  0  3  0  0  0  0  0  0
  -16.5830  -28.2050   22.8710 C   0  0  0  0  0  3  0  0  0  0  0  0
  -25.8020  -32.2900   23.6760 C   0  0  0  0  0  3  0  0  0  0  0  0
  -25.5330  -33.6700   24.0990 N   0  0  0  0  0  0  0  0  0  0  0  0
  -25.8360  -34.7660   23.3890 C   0  0  0  0  0  0  0  0  0  0  0  0
  -26.4500  -34.7140   22.3190 O   0  0  0  0  0  0  0  0  0  0  0  0
  -24.9940  -33.7910   24.9440 H   0  0  0  0  0  0  0  0  0  0  0  0
  -24.1120  -36.5920   23.2300 C   0  0  0  0  0  1  0  0  0  0  0  0
  -25.3890  -36.1300   23.9500 C   0  0  0  0  0  3  0  0  0  0  0  0
  -27.5700  -36.9510   24.7180 C   0  0  0  0  0  1  0  0  0  0  0  0
  -26.4230  -37.1840   23.8420 N   0  0  0  0  0  0  0  0  0  0  0  0
  -26.0350  -38.0980   24.0650 H   0  0  0  0  0  0  0  0  0  0  0  0
  -26.3710  -31.4530   24.8880 C   0  0  1  0  0  0  0  0  0  0  0  0
  -25.3300  -31.1820   25.9960 C   0  0  0  0  0  1  0  0  0  0  0  0
  -26.9200  -30.0860   24.4210 C   0  0  0  0  0  1  0  0  0  0  0  0
  -27.5650  -32.2010   25.5340 C   0  0  0  0  0  1  0  0  0  0  0  0
  -29.9410  -17.5870   21.4020 C   0  0  0  0  0  2  0  0  0  0  0  0
  -31.1840  -16.7990   20.9220 C   0  0  0  0  0  2  0  0  0  0  0  0
  -31.3430  -14.4590   20.0310 C   0  0  0  0  0  0  0  0  0  0  0  0
  -30.9120  -12.2670   18.9880 C   0  0  0  0  0  2  0  0  0  0  0  0
  -29.9570  -12.4360   17.7880 C   0  0  0  0  0  2  0  0  0  0  0  0
  -28.4890  -12.3590   18.2510 C   0  0  0  0  0  2  0  0  0  0  0  0
  -28.2190  -13.3060   19.4470 C   0  0  0  0  0  3  0  0  0  0  0  0
  -29.2670  -13.1260   20.5600 C   0  0  0  0  0  2  0  0  0  0  0  0
  -30.6070  -13.3190   19.9660 N   0  0  0  0  0  0  0  0  0  0  0  0
  -32.3780  -14.6530   19.3830 O   0  0  0  0  0  0  0  0  0  0  0  0
  -30.8220  -15.3870   20.8320 N   0  0  0  0  0  0  0  0  0  0  0  0
  -30.0170  -15.0930   21.3650 H   0  0  0  0  0  0  0  0  0  0  0  0
  -25.9110  -14.0890   20.2620 C   0  0  0  0  0  0  0  0  0  0  0  0
  -24.8070  -13.3970   20.6630 C   0  0  0  0  0  0  0  0  0  0  0  0
  -25.1640  -12.0120   20.6030 C   0  0  0  0  0  0  0  0  0  0  0  0
  -26.8720  -13.1330   19.9730 N   0  0  0  0  0  0  0  0  0  0  0  0
  -26.4270  -11.8760   20.2340 N   0  0  0  0  0  0  0  0  0  0  0  0
  -24.3640  -10.8030   20.8110 C   0  0  0  0  0  0  0  0  0  0  0  0
  -24.7400   -9.8230   21.7590 C   0  0  0  0  0  3  0  0  0  0  0  0
  -23.9430   -8.6730   21.9460 C   0  0  0  0  0  3  0  0  0  0  0  0
  -22.7590   -8.4980   21.1900 C   0  0  0  0  0  0  0  0  0  0  0  0
  -22.4090   -9.4640   20.2280 C   0  0  0  0  0  3  0  0  0  0  0  0
  -23.2040  -10.6040   20.0360 C   0  0  0  0  0  3  0  0  0  0  0  0
  -21.9320   -7.4070   21.2910 O   0  0  0  0  0  0  0  0  0  0  0  0
  -21.7930   -6.7180   22.4710 C   0  0  0  0  0  0  0  0  0  0  0  0
  -21.3440   -7.3470   23.6520 C   0  0  0  0  0  3  0  0  0  0  0  0
  -21.1450   -6.5890   24.8210 C   0  0  0  0  0  3  0  0  0  0  0  0
  -21.3800   -5.2000   24.8110 C   0  0  0  0  0  0  0  0  0  0  0  0
  -21.8170   -4.5710   23.6320 C   0  0  0  0  0  3  0  0  0  0  0  0
  -22.0190   -5.3270   22.4650 C   0  0  0  0  0  0  0  0  0  0  0  0
  -22.4210   -4.7100   21.3280 F   0  0  0  0  0  0  0  0  0  0  0  0
  -21.1810   -4.4680   25.9330 F   0  0  0  0  0  0  0  0  0  0  0  0
  -23.4580  -13.9620   21.0040 C   0  0  0  0  0  0  0  0  0  0  0  0
  -22.7350  -13.3070   21.8990 N   0  0  0  0  0  0  0  0  0  0  0  0
  -23.0640  -15.0220   20.5110 O   0  0  0  0  0  0  0  0  0  0  0  0
  -23.0700  -12.4510   22.3160 H   0  0  0  0  0  0  0  0  0  0  0  0
  -21.8220  -13.6510   22.1660 H   0  0  0  0  0  0  0  0  0  0  0  0
  -26.1780  -15.4510   20.0950 N   0  0  0  0  0  0  0  0  0  0  0  0
  -25.4890  -16.1750   20.2550 H   0  0  0  0  0  0  0  0  0  0  0  0
  -27.0560  -15.8180   19.7620 H   0  0  0  0  0  0  0  0  0  0  0  0
  1  3  2  0
  1  2  1  0
  2  4  2  0
  3  6  1  0
  4  7  1  0
  4  5  1  0
  6  7  2  0
  8  2  1  0
  9 10  1  0
  9  8  1  0
 11 12  1  0
 11 10  1  0
 12 14  1  0
 13 24  2  0
 14 19  1  0
 15 23  1  0
 15 25  1  0
 16 22  1  0
 16 18  1  0
 17 23  1  0
 18 17  1  0
 19 18  2  0
 20 21  1  0
 20 14  2  0
 21 16  2  0
 22 15  1  0
 23 13  1  0
 25 27  2  0
 26 25  1  0
 28 26  1  0
 29 38  2  0
 29 34  1  0
 30 26  1  0
 30 34  1  0
 31 30  1  0
 32 33  1  0
 32 31  1  0
 33 29  1  0
 34 35  2  0
 35 36  1  0
 37 36  2  0
 38 37  1  0
 39 13  1  0
 39 40  1  0
 39 49  1  0
 40 43  1  0
 41 45  1  0
 41 40  1  0
 42 41  2  0
 45 44  1  0
 47 45  1  0
 47 48  1  0
 47 46  1  0
 49 52  1  1
 49 50  1  0
 51 49  1  0
 53  3  1  0
 54 53  1  0
 55 63  1  0
 56 61  1  0
 57 58  1  0
 57 56  1  0
 59 58  1  0
 59 68  1  0
 59 60  1  0
 61 55  1  0
 61 60  1  0
 62 55  2  0
 63 54  1  0
 63 64  1  0
 65 66  2  0
 66 85  1  0
 67 66  1  0
 67 70  1  0
 68 69  1  0
 68 65  1  0
 69 67  2  0
 70 71  1  0
 71 72  2  0
 73 76  1  0
 73 72  1  0
 74 73  2  0
 75 74  1  0
 75 70  2  0
 76 77  1  0
 77 78  1  0
 78 79  2  0
 80 79  1  0
 80 84  1  0
 81 80  2  0
 82 77  2  0
 82 81  1  0
 83 82  1  0
 85 86  1  0
 86 89  1  0
 86 88  1  0
 87 85  2  0
 90 91  1  0
 90 65  1  0
 92 90  1  0
M  ISO  4  11 101  12 101  55 100  63 100
M  END
>  <TORSDO>  (3) 
F 22

>  <SCORE>  (3) 
-11.402

>  <name>  (3) 
2

>  <ligand_id>  (3) 
2

>  <original_smiles>  (3) 
[H]c1c([H])c([H])c2c(c1[H])C([H])([H])C([H])([H])C([H])([H])C2([H])N([H])C(=O)C1([H])N(C(=O)C([H])(N([H])C(=O)C([H])(N([H])C([H])([H])[H])C([H])([H])[H])C(C([H])([H])[H])(C([H])([H])[H])C([H])([H])[H])C([H])([H])c2c([H])c(OC([H])([H])C([H])([H])C([H])([H])C([H])([H])c3c(C([H])([H])[H])nnc(C([H])([H])C([H])([H])N([H])C(=O)N4C([H])([H])C([H])([H])C([H])([H])C([H])(n5nc(-c6c([H])c([H])c(Oc7c([H])c([H])c(F)c([H])c7F)c([H])c6[H])c(C(=O)N([H])[H])c5N([H])[H])C4([H])[H])c3[H])c([H])c([H])c2C1([H])[H]

>  <smiles>  (3) 
[H]c1c([H])c([H])c2c(c1[H])C([H])([H])C([H])([H])C([H])([H])C2([H])N([H])C(=O)C1([H])N(C(=O)C([H])(N([H])C(=O)C([H])(N([H])C([H])([H])[H])C([H])([H])[H])C(C([H])([H])[H])(C([H])([H])[H])C([H])([H])[H])C([H])([H])c2c([H])c(OC([H])([H])C([H])([H])C([H])([H])C([H])([H])c3c(C([H])([H])[H])nnc(C([H])([H])C([H])([H])N([H])C(=O)N4C([H])([H])C([H])([H])C([H])([H])C([H])(n5nc(-c6c([H])c([H])c(Oc7c([H])c([H])c(F)c([H])c7F)c([H])c6[H])c(C(=O)N([H])[H])c5N([H])[H])C4([H])[H])c3[H])c([H])c([H])c2C1([H])[H]

$$$$
3:0:0
     RDKit          3D

 91 99  0  0  1  0  0  0  0  0999 V2000
  -30.6260  -19.4370   22.7860 C   0  0  0  0  0  3  0  0  0  0  0  0
  -30.2830  -20.3770   20.7880 C   0  0  0  0  0  3  0  0  0  0  0  0
  -30.4360  -19.1600   21.4040 C   0  0  0  0  0  0  0  0  0  0  0  0
  -30.5520  -20.7850   22.9800 C   0  0  0  0  0  0  0  0  0  0  0  0
  -30.6740  -21.5700   24.2530 C   0  0  0  0  0  1  0  0  0  0  0  0
  -30.3340  -21.3820   21.7470 N   0  0  0  0  0  0  0  0  0  0  0  0
  -30.3680  -17.7750   20.7940 C   0  0  0  0  0  2  0  0  0  0  0  0
  -31.6560  -16.9350   20.9690 C   0  0  0  0  0  2  0  0  0  0  0  0
  -31.9280  -14.5460   20.1780 C   0  0  0  0  0  0  0  0  0  0  0  0
  -31.5120  -12.3380   19.1550 C   0  0  0  0  0  2  0  0  0  0  0  0
  -30.5340  -12.5090   17.9750 C   0  0  0  0  0  2  0  0  0  0  0  0
  -29.0700  -12.4800   18.4630 C   0  0  0  0  0  2  0  0  0  0  0  0
  -28.8230  -13.4130   19.6790 C   0  0  0  0  0  3  0  0  0  0  0  0
  -29.8980  -13.1740   20.7610 C   0  0  0  0  0  2  0  0  0  0  0  0
  -31.2200  -13.3870   20.1390 N   0  0  0  0  0  0  0  0  0  0  0  0
  -32.9780  -14.7330   19.5540 O   0  0  0  0  0  0  0  0  0  0  0  0
  -31.3340  -15.5090   20.8900 N   0  0  0  0  0  0  0  0  0  0  0  0
  -30.5000  -15.2150   21.3800 H   0  0  0  0  0  0  0  0  0  0  0  0
  -26.5450  -14.2190   20.5750 C   0  0  0  0  0  0  0  0  0  0  0  0
  -25.4200  -13.5370   20.9520 C   0  0  0  0  0  0  0  0  0  0  0  0
  -25.7220  -12.1510   20.7800 C   0  0  0  0  0  0  0  0  0  0  0  0
  -27.4720  -13.2510   20.2120 N   0  0  0  0  0  0  0  0  0  0  0  0
  -26.9810  -11.9970   20.3880 N   0  0  0  0  0  0  0  0  0  0  0  0
  -24.8720  -10.9620   20.9220 C   0  0  0  0  0  0  0  0  0  0  0  0
  -25.1850   -9.9400   21.8440 C   0  0  0  0  0  3  0  0  0  0  0  0
  -24.3450   -8.8120   21.9720 C   0  0  0  0  0  3  0  0  0  0  0  0
  -23.1780   -8.7000   21.1780 C   0  0  0  0  0  0  0  0  0  0  0  0
  -22.8880   -9.7110   20.2430 C   0  0  0  0  0  3  0  0  0  0  0  0
  -23.7270  -10.8300   20.1130 C   0  0  0  0  0  3  0  0  0  0  0  0
  -22.3180   -7.6300   21.2150 O   0  0  0  0  0  0  0  0  0  0  0  0
  -22.0410   -6.9700   22.3850 C   0  0  0  0  0  0  0  0  0  0  0  0
  -21.4560   -7.6270   23.4910 C   0  0  0  0  0  3  0  0  0  0  0  0
  -21.1230   -6.8970   24.6490 C   0  0  0  0  0  3  0  0  0  0  0  0
  -21.3640   -5.5110   24.7020 C   0  0  0  0  0  0  0  0  0  0  0  0
  -21.9400   -4.8540   23.6010 C   0  0  0  0  0  3  0  0  0  0  0  0
  -22.2760   -5.5820   22.4460 C   0  0  0  0  0  0  0  0  0  0  0  0
  -22.8120   -4.9410   21.3790 F   0  0  0  0  0  0  0  0  0  0  0  0
  -21.0380   -4.8070   25.8120 F   0  0  0  0  0  0  0  0  0  0  0  0
  -24.1010  -14.1320   21.3570 C   0  0  0  0  0  0  0  0  0  0  0  0
  -23.3730  -13.4660   22.2480 N   0  0  0  0  0  0  0  0  0  0  0  0
  -23.7290  -15.2180   20.9140 O   0  0  0  0  0  0  0  0  0  0  0  0
  -23.6820  -12.5820   22.6260 H   0  0  0  0  0  0  0  0  0  0  0  0
  -22.4900  -13.8450   22.5570 H   0  0  0  0  0  0  0  0  0  0  0  0
  -26.8510  -15.5740   20.4970 N   0  0  0  0  0  0  0  0  0  0  0  0
  -26.1750  -16.2960   20.7200 H   0  0  0  0  0  0  0  0  0  0  0  0
  -27.7290  -15.9460   20.1610 H   0  0  0  0  0  0  0  0  0  0  0  0
  -30.2120  -22.8280   21.5570 C   0  0  0  0  0  2  0  0  0  0  0  0
  -29.5470  -23.3200   20.2560 C   0  0  0  0  0  2  0  0  0  0  0  0
  -29.0750  -24.7830   20.4350 C   0  0  0  0  0  2  0  0  0  0  0  0
  -29.0130  -25.6240   19.1500 C   0  0  0  0  0  2  0  0  0  0  0  0
  -28.8130  -26.9990   19.4820 O   0  0  0  0  0  0  0  0  0  0  0  0
  -24.5440  -31.2250   23.2720 C   0  0  0  0  0  0  0  0  0  0  0  0
  -27.5430  -27.5290   19.5940 C   0  0  0  0  0  0  0  0  0  0  0  0
  -23.4490  -29.9870   21.4300 C   0  0  0  0  0  3  0  0  0  0  0  0
  -25.0170  -28.7880   19.8170 C   0  0  0  0  0  0  0  0  0  0  0  0
  -25.9330  -30.5840   21.3020 C   0  0  0  0  0  2  0  0  0  0  0  0
  -26.1300  -29.3310   20.4730 C   0  0  0  0  0  0  0  0  0  0  0  0
  -27.3910  -28.7110   20.3530 C   0  0  0  0  0  3  0  0  0  0  0  0
  -26.4010  -26.9760   18.9660 C   0  0  0  0  0  3  0  0  0  0  0  0
  -25.1480  -27.6100   19.0650 C   0  0  0  0  0  3  0  0  0  0  0  0
  -23.7050  -29.5220   19.9730 C   0  0  0  0  0  2  0  0  0  0  0  0
  -24.6590  -30.6080   22.0610 N   0  0  0  0  0  0  0  0  0  0  0  0
  -23.4470  -31.3200   23.8420 O   0  0  0  0  0  0  0  0  0  0  0  0
  -22.8860  -28.7920   22.2330 C   0  0  0  0  0  0  0  0  0  0  0  0
  -21.6080  -28.4600   22.0000 N   0  0  0  0  0  0  0  0  0  0  0  0
  -23.6020  -28.1710   23.0260 O   0  0  0  0  0  0  0  0  0  0  0  0
  -21.0810  -29.0170   21.3410 H   0  0  0  0  0  0  0  0  0  0  0  0
  -18.4740  -26.6710   21.9780 C   0  0  0  0  0  0  0  0  0  0  0  0
  -20.8860  -27.3430   22.6130 C   0  0  0  0  0  3  0  0  0  0  0  0
  -21.3090  -25.9930   21.9900 C   0  0  0  0  0  2  0  0  0  0  0  0
  -20.4320  -25.5860   20.8030 C   0  0  0  0  0  2  0  0  0  0  0  0
  -18.9770  -25.4320   21.2530 C   0  0  0  0  0  2  0  0  0  0  0  0
  -19.3730  -27.5780   22.5990 C   0  0  0  0  0  0  0  0  0  0  0  0
  -18.8590  -28.7410   23.2140 C   0  0  0  0  0  3  0  0  0  0  0  0
  -17.4760  -28.9990   23.2230 C   0  0  0  0  0  3  0  0  0  0  0  0
  -16.5880  -28.0850   22.6260 C   0  0  0  0  0  3  0  0  0  0  0  0
  -17.0870  -26.9260   22.0070 C   0  0  0  0  0  3  0  0  0  0  0  0
  -25.7790  -31.8610   23.9850 C   0  0  0  0  0  3  0  0  0  0  0  0
  -25.4270  -33.2460   24.3310 N   0  0  0  0  0  0  0  0  0  0  0  0
  -25.8320  -34.3260   23.6510 C   0  0  0  0  0  0  0  0  0  0  0  0
  -26.6070  -34.2640   22.6920 O   0  0  0  0  0  0  0  0  0  0  0  0
  -24.7530  -33.3700   25.0720 H   0  0  0  0  0  0  0  0  0  0  0  0
  -24.1390  -36.1250   23.1770 C   0  0  0  0  0  1  0  0  0  0  0  0
  -25.2860  -35.6940   24.1050 C   0  0  0  0  0  3  0  0  0  0  0  0
  -27.3050  -36.5590   25.1990 C   0  0  0  0  0  1  0  0  0  0  0  0
  -26.3130  -36.7540   24.1440 N   0  0  0  0  0  0  0  0  0  0  0  0
  -25.8860  -37.6660   24.2700 H   0  0  0  0  0  0  0  0  0  0  0  0
  -26.2380  -31.0640   25.2660 C   0  0  1  0  0  0  0  0  0  0  0  0
  -25.0990  -30.8020   26.2770 C   0  0  0  0  0  1  0  0  0  0  0  0
  -26.8510  -29.6990   24.8740 C   0  0  0  0  0  1  0  0  0  0  0  0
  -27.3500  -31.8480   26.0040 C   0  0  0  0  0  1  0  0  0  0  0  0
  1  4  2  0
  2  3  2  0
  2  6  1  0
  3  1  1  0
  4  5  1  0
  6  4  1  0
  7  8  1  0
  7  3  1  0
  9 17  1  0
 10 15  1  0
 11 12  1  0
 11 10  1  0
 13 12  1  0
 13 22  1  0
 13 14  1  0
 15  9  1  0
 15 14  1  0
 16  9  2  0
 17  8  1  0
 17 18  1  0
 19 20  2  0
 20 39  1  0
 21 24  1  0
 21 20  1  0
 22 23  1  0
 22 19  1  0
 23 21  2  0
 24 25  1  0
 25 26  2  0
 27 30  1  0
 27 26  1  0
 28 27  2  0
 29 28  1  0
 29 24  2  0
 30 31  1  0
 31 36  2  0
 31 32  1  0
 32 33  2  0
 33 34  1  0
 34 38  1  0
 35 34  2  0
 36 35  1  0
 37 36  1  0
 39 40  1  0
 40 43  1  0
 40 42  1  0
 41 39  2  0
 44 19  1  0
 44 45  1  0
 46 44  1  0
 47  6  1  0
 48 49  1  0
 48 47  1  0
 50 51  1  0
 50 49  1  0
 51 53  1  0
 52 63  2  0
 53 58  1  0
 54 62  1  0
 54 64  1  0
 55 61  1  0
 55 57  1  0
 56 62  1  0
 57 56  1  0
 58 57  2  0
 59 60  1  0
 59 53  2  0
 60 55  2  0
 61 54  1  0
 62 52  1  0
 64 66  2  0
 65 64  1  0
 67 65  1  0
 68 77  2  0
 68 73  1  0
 69 65  1  0
 70 69  1  0
 71 72  1  0
 71 70  1  0
 72 68  1  0
 73 69  1  0
 73 74  2  0
 74 75  1  0
 76 75  2  0
 77 76  1  0
 78 52  1  0
 78 79  1  0
 78 88  1  0
 79 82  1  0
 80 84  1  0
 80 79  1  0
 81 80  2  0
 84 83  1  0
 84 86  1  0
 86 87  1  0
 86 85  1  0
 88 91  1  1
 88 89  1  0
 90 88  1  0
M  ISO  4   9 100  17 100  50 101  51 101
M  END
>  <TORSDO>  (4) 
F 22

>  <SCORE>  (4) 
-10.236

>  <name>  (4) 
3

>  <ligand_id>  (4) 
3

>  <original_smiles>  (4) 
[H]c1c([H])c([H])c2c(c1[H])C([H])([H])C([H])([H])C([H])([H])C2([H])N([H])C(=O)C1([H])N(C(=O)C([H])(N([H])C(=O)C([H])(N([H])C([H])([H])[H])C([H])([H])[H])C(C([H])([H])[H])(C([H])([H])[H])C([H])([H])[H])C([H])([H])c2c([H])c(OC([H])([H])C([H])([H])C([H])([H])C([H])([H])n3c([H])c(C([H])([H])C([H])([H])N([H])C(=O)N4C([H])([H])C([H])([H])C([H])([H])C([H])(n5nc(-c6c([H])c([H])c(Oc7c([H])c([H])c(F)c([H])c7F)c([H])c6[H])c(C(=O)N([H])[H])c5N([H])[H])C4([H])[H])c([H])c3C([H])([H])[H])c([H])c([H])c2C1([H])[H]

>  <smiles>  (4) 
[H]c1c([H])c([H])c2c(c1[H])C([H])([H])C([H])([H])C([H])([H])C2([H])N([H])C(=O)C1([H])N(C(=O)C([H])(N([H])C(=O)C([H])(N([H])C([H])([H])[H])C([H])([H])[H])C(C([H])([H])[H])(C([H])([H])[H])C([H])([H])[H])C([H])([H])c2c([H])c(OC([H])([H])C([H])([H])C([H])([H])C([H])([H])n3c([H])c(C([H])([H])C([H])([H])N([H])C(=O)N4C([H])([H])C([H])([H])C([H])([H])C([H])(n5nc(-c6c([H])c([H])c(Oc7c([H])c([H])c(F)c([H])c7F)c([H])c6[H])c(C(=O)N([H])[H])c5N([H])[H])C4([H])[H])c([H])c3C([H])([H])[H])c([H])c([H])c2C1([H])[H]

$$$$
4:0:0
     RDKit          3D

 91 99  0  0  1  0  0  0  0  0999 V2000
  -29.6910  -24.1380   18.5110 C   0  0  0  0  0  3  0  0  0  0  0  0
  -30.2860  -23.1290   17.7240 C   0  0  0  0  0  3  0  0  0  0  0  0
  -28.9090  -22.4110   20.0260 C   0  0  0  0  0  3  0  0  0  0  0  0
  -28.9850  -23.8220   19.6820 C   0  0  0  0  0  0  0  0  0  0  0  0
  -30.1880  -21.7520   18.0480 C   0  0  0  0  0  0  0  0  0  0  0  0
  -29.4800  -21.3300   19.2280 C   0  0  0  0  0  0  0  0  0  0  0  0
  -30.8470  -20.7770   17.0660 C   0  0  0  0  0  1  0  0  0  0  0  0
  -28.1150  -19.5680   20.6550 C   0  0  0  0  0  1  0  0  0  0  0  0
  -29.1830  -19.7750   19.5300 C   0  0  0  0  0  3  0  0  0  0  0  0
  -30.3730  -18.6950   19.7650 C   0  0  0  0  0  2  0  0  0  0  0  0
  -30.2310  -17.1910   19.1670 C   0  0  0  0  0  2  0  0  0  0  0  0
  -31.0170  -14.7520   19.7740 C   0  0  0  0  0  0  0  0  0  0  0  0
  -30.7450  -12.4120   18.9480 C   0  0  0  0  0  2  0  0  0  0  0  0
  -29.7790  -12.4480   17.7400 C   0  0  0  0  0  2  0  0  0  0  0  0
  -28.3190  -12.3270   18.2180 C   0  0  0  0  0  2  0  0  0  0  0  0
  -28.0020  -13.2870   19.3990 C   0  0  0  0  0  3  0  0  0  0  0  0
  -29.0930  -13.2590   20.4990 C   0  0  0  0  0  2  0  0  0  0  0  0
  -30.3800  -13.5300   19.8490 N   0  0  0  0  0  0  0  0  0  0  0  0
  -32.1620  -14.8260   19.3210 O   0  0  0  0  0  0  0  0  0  0  0  0
  -30.2570  -15.8900   19.9780 N   0  0  0  0  0  0  0  0  0  0  0  0
  -29.3680  -15.6720   20.3970 H   0  0  0  0  0  0  0  0  0  0  0  0
  -25.6730  -13.9710   20.2290 C   0  0  0  0  0  0  0  0  0  0  0  0
  -24.5940  -13.2400   20.6380 C   0  0  0  0  0  0  0  0  0  0  0  0
  -25.0040  -11.8710   20.5900 C   0  0  0  0  0  0  0  0  0  0  0  0
  -26.6700  -13.0550   19.9470 N   0  0  0  0  0  0  0  0  0  0  0  0
  -26.2790  -11.7870   20.2320 N   0  0  0  0  0  0  0  0  0  0  0  0
  -24.2380  -10.6400   20.8130 C   0  0  0  0  0  0  0  0  0  0  0  0
  -24.6270   -9.6940   21.7880 C   0  0  0  0  0  3  0  0  0  0  0  0
  -23.8590   -8.5300   21.9970 C   0  0  0  0  0  3  0  0  0  0  0  0
  -22.6890   -8.3010   21.2290 C   0  0  0  0  0  0  0  0  0  0  0  0
  -22.3260   -9.2340   20.2420 C   0  0  0  0  0  3  0  0  0  0  0  0
  -23.0930  -10.3940   20.0350 C   0  0  0  0  0  3  0  0  0  0  0  0
  -21.8970   -7.1870   21.3410 O   0  0  0  0  0  0  0  0  0  0  0  0
  -21.7540   -6.5190   22.5340 C   0  0  0  0  0  0  0  0  0  0  0  0
  -21.2080   -7.1410   23.6770 C   0  0  0  0  0  3  0  0  0  0  0  0
  -21.0260   -6.4000   24.8590 C   0  0  0  0  0  3  0  0  0  0  0  0
  -21.3710   -5.0380   24.8970 C   0  0  0  0  0  0  0  0  0  0  0  0
  -21.9040   -4.4140   23.7550 C   0  0  0  0  0  3  0  0  0  0  0  0
  -22.0950   -5.1550   22.5780 C   0  0  0  0  0  0  0  0  0  0  0  0
  -22.5900   -4.5420   21.4740 F   0  0  0  0  0  0  0  0  0  0  0  0
  -21.1870   -4.3250   26.0300 F   0  0  0  0  0  0  0  0  0  0  0  0
  -23.2300  -13.7750   20.9660 C   0  0  0  0  0  0  0  0  0  0  0  0
  -22.5200  -13.1090   21.8630 N   0  0  0  0  0  0  0  0  0  0  0  0
  -22.8110  -14.8230   20.4650 O   0  0  0  0  0  0  0  0  0  0  0  0
  -22.8700  -12.2550   22.2780 H   0  0  0  0  0  0  0  0  0  0  0  0
  -21.6060  -13.4440   22.1370 H   0  0  0  0  0  0  0  0  0  0  0  0
  -25.8710  -15.3360   20.0380 N   0  0  0  0  0  0  0  0  0  0  0  0
  -25.1040  -15.9910   20.1310 H   0  0  0  0  0  0  0  0  0  0  0  0
  -26.7350  -15.7770   19.7520 H   0  0  0  0  0  0  0  0  0  0  0  0
  -28.3490  -24.9910   20.5530 C   0  0  0  0  0  2  0  0  0  0  0  0
  -28.4540  -26.4120   20.1080 O   0  0  0  0  0  0  0  0  0  0  0  0
  -24.5540  -31.6750   23.2460 C   0  0  0  0  0  0  0  0  0  0  0  0
  -27.3100  -27.2270   20.1430 C   0  0  0  0  0  0  0  0  0  0  0  0
  -23.4130  -30.3220   21.5180 C   0  0  0  0  0  3  0  0  0  0  0  0
  -24.9270  -28.8090   20.1040 C   0  0  0  0  0  0  0  0  0  0  0  0
  -25.9550  -30.6490   21.4420 C   0  0  0  0  0  2  0  0  0  0  0  0
  -26.0660  -29.2870   20.7630 C   0  0  0  0  0  0  0  0  0  0  0  0
  -27.2610  -28.5060   20.7720 C   0  0  0  0  0  3  0  0  0  0  0  0
  -26.1610  -26.8060   19.4460 C   0  0  0  0  0  3  0  0  0  0  0  0
  -24.9820  -27.5780   19.4260 C   0  0  0  0  0  3  0  0  0  0  0  0
  -23.6820  -29.6670   20.1290 C   0  0  0  0  0  2  0  0  0  0  0  0
  -24.6580  -30.8990   22.1260 N   0  0  0  0  0  0  0  0  0  0  0  0
  -23.4490  -31.9270   23.7540 O   0  0  0  0  0  0  0  0  0  0  0  0
  -22.7230  -29.2840   22.4370 C   0  0  0  0  0  0  0  0  0  0  0  0
  -21.3920  -29.1330   22.2990 N   0  0  0  0  0  0  0  0  0  0  0  0
  -23.3830  -28.6110   23.2380 O   0  0  0  0  0  0  0  0  0  0  0  0
  -20.9160  -29.7380   21.6400 H   0  0  0  0  0  0  0  0  0  0  0  0
  -17.9900  -27.9980   22.7520 C   0  0  0  0  0  0  0  0  0  0  0  0
  -20.5560  -28.1740   23.0230 C   0  0  0  0  0  3  0  0  0  0  0  0
  -20.6210  -26.7720   22.3740 C   0  0  0  0  0  2  0  0  0  0  0  0
  -19.5060  -26.5280   21.3530 C   0  0  0  0  0  2  0  0  0  0  0  0
  -18.1300  -26.6840   22.0050 C   0  0  0  0  0  2  0  0  0  0  0  0
  -19.1300  -28.7030   23.2200 C   0  0  0  0  0  0  0  0  0  0  0  0
  -18.9430  -29.9400   23.8750 C   0  0  0  0  0  3  0  0  0  0  0  0
  -17.6510  -30.4610   24.0790 C   0  0  0  0  0  3  0  0  0  0  0  0
  -16.5270  -29.7470   23.6300 C   0  0  0  0  0  3  0  0  0  0  0  0
  -16.6980  -28.5220   22.9650 C   0  0  0  0  0  3  0  0  0  0  0  0
  -25.8080  -32.3020   23.9270 C   0  0  0  0  0  3  0  0  0  0  0  0
  -26.2440  -31.5490   25.2400 C   0  0  1  0  0  0  0  0  0  0  0  0
  -25.0940  -31.3350   26.2520 C   0  0  0  0  0  1  0  0  0  0  0  0
  -26.8450  -30.1700   24.8940 C   0  0  0  0  0  1  0  0  0  0  0  0
  -27.3660  -32.3460   25.9480 C   0  0  0  0  0  1  0  0  0  0  0  0
  -25.5020  -33.7110   24.2200 N   0  0  0  0  0  0  0  0  0  0  0  0
  -25.8720  -34.7450   23.4600 C   0  0  0  0  0  0  0  0  0  0  0  0
  -26.5760  -34.6270   22.4560 O   0  0  0  0  0  0  0  0  0  0  0  0
  -24.8990  -33.8860   25.0090 H   0  0  0  0  0  0  0  0  0  0  0  0
  -24.1860  -36.5640   23.0330 C   0  0  0  0  0  1  0  0  0  0  0  0
  -25.3910  -36.1460   23.8880 C   0  0  0  0  0  3  0  0  0  0  0  0
  -27.4970  -37.0340   24.7860 C   0  0  0  0  0  1  0  0  0  0  0  0
  -26.4360  -37.1860   23.7960 N   0  0  0  0  0  0  0  0  0  0  0  0
  -26.0340  -38.1150   23.9040 H   0  0  0  0  0  0  0  0  0  0  0  0
  1  4  1  0
  2  5  1  0
  2  1  2  0
  4  3  2  0
  4 50  1  0
  5  6  2  0
  6  9  1  0
  6  3  1  0
  7  5  1  0
  9 10  1  0
  9  8  1  0
 11 10  1  0
 11 20  1  0
 12 18  1  0
 12 20  1  0
 13 18  1  0
 14 15  1  0
 14 13  1  0
 16 15  1  0
 16 25  1  0
 16 17  1  0
 18 17  1  0
 19 12  2  0
 20 21  1  0
 22 23  2  0
 23 42  1  0
 24 23  1  0
 24 27  1  0
 25 22  1  0
 25 26  1  0
 26 24  2  0
 27 28  1  0
 28 29  2  0
 30 33  1  0
 30 29  1  0
 31 30  2  0
 32 31  1  0
 32 27  2  0
 33 34  1  0
 34 39  2  0
 34 35  1  0
 35 36  2  0
 36 37  1  0
 37 41  1  0
 38 37  2  0
 39 38  1  0
 40 39  1  0
 42 43  1  0
 43 46  1  0
 43 45  1  0
 44 42  2  0
 47 48  1  0
 47 22  1  0
 49 47  1  0
 51 53  1  0
 51 50  1  0
 52 63  2  0
 53 58  1  0
 54 62  1  0
 54 64  1  0
 55 61  1  0
 55 57  1  0
 56 62  1  0
 57 58  2  0
 57 56  1  0
 59 53  2  0
 60 59  1  0
 60 55  2  0
 61 54  1  0
 62 52  1  0
 64 66  2  0
 65 64  1  0
 67 65  1  0
 68 77  2  0
 68 73  1  0
 69 65  1  0
 69 73  1  0
 70 69  1  0
 71 72  1  0
 71 70  1  0
 72 68  1  0
 73 74  2  0
 74 75  1  0
 76 75  2  0
 77 76  1  0
 78 52  1  0
 78 83  1  0
 78 79  1  0
 79 82  1  1
 79 80  1  0
 81 79  1  0
 83 86  1  0
 84 88  1  0
 84 83  1  0
 85 84  2  0
 88 87  1  0
 90 88  1  0
 90 91  1  0
 90 89  1  0
M  ISO  4  12 100  20 100  50 101  51 101
M  END
>  <TORSDO>  (5) 
F 20

>  <SCORE>  (5) 
-13.128

>  <name>  (5) 
4

>  <ligand_id>  (5) 
4

>  <original_smiles>  (5) 
[H]c1c([H])c([H])c2c(c1[H])C([H])([H])C([H])([H])C([H])([H])C2([H])N([H])C(=O)C1([H])N(C(=O)C([H])(N([H])C(=O)C([H])(N([H])C([H])([H])[H])C([H])([H])[H])C(C([H])([H])[H])(C([H])([H])[H])C([H])([H])[H])C([H])([H])c2c([H])c(OC([H])([H])c3c([H])c([H])c(C([H])([H])[H])c(C([H])(C([H])([H])[H])C([H])([H])C([H])([H])N([H])C(=O)N4C([H])([H])C([H])([H])C([H])([H])C([H])(n5nc(-c6c([H])c([H])c(Oc7c([H])c([H])c(F)c([H])c7F)c([H])c6[H])c(C(=O)N([H])[H])c5N([H])[H])C4([H])[H])c3[H])c([H])c([H])c2C1([H])[H]

>  <smiles>  (5) 
[H]c1c([H])c([H])c2c(c1[H])C([H])([H])C([H])([H])C([H])([H])C2([H])N([H])C(=O)C1([H])N(C(=O)C([H])(N([H])C(=O)C([H])(N([H])C([H])([H])[H])C([H])([H])[H])C(C([H])([H])[H])(C([H])([H])[H])C([H])([H])[H])C([H])([H])c2c([H])c(OC([H])([H])c3c([H])c([H])c(C([H])([H])[H])c(C([H])(C([H])([H])[H])C([H])([H])C([H])([H])N([H])C(=O)N4C([H])([H])C([H])([H])C([H])([H])C([H])(n5nc(-c6c([H])c([H])c(Oc7c([H])c([H])c(F)c([H])c7F)c([H])c6[H])c(C(=O)N([H])[H])c5N([H])[H])C4([H])[H])c3[H])c([H])c([H])c2C1([H])[H]

$$$$
5:0:0
     RDKit          3D

 93101  0  0  1  0  0  0  0  0999 V2000
  -29.1280  -23.3670   21.2530 C   0  0  0  0  0  3  0  0  0  0  0  0
  -28.3620  -21.8860   19.5310 C   0  0  0  0  0  3  0  0  0  0  0  0
  -28.3900  -23.2830   20.0600 C   0  0  0  0  0  0  0  0  0  0  0  0
  -29.7450  -22.2240   21.8220 C   0  0  0  0  0  0  0  0  0  0  0  0
  -29.0390  -20.7090   20.1450 C   0  0  0  0  0  0  0  0  0  0  0  0
  -29.7020  -20.9670   21.2940 N   0  0  0  0  0  0  0  0  0  0  0  0
  -31.9310  -21.9540   23.1210 C   0  0  0  0  0  1  0  0  0  0  0  0
  -29.6850  -21.5820   24.2650 C   0  0  0  0  0  1  0  0  0  0  0  0
  -30.4460  -22.3470   23.1720 C   0  0  0  0  0  3  0  0  0  0  0  0
  -26.4240  -24.3140   18.6130 C   0  0  0  0  0  1  0  0  0  0  0  0
  -27.6820  -24.6530   19.4320 C   0  0  0  0  0  3  0  0  0  0  0  0
  -27.7150  -26.1270   19.9990 O   0  0  0  0  0  0  0  0  0  0  0  0
  -24.7120  -31.9700   23.3860 C   0  0  0  0  0  0  0  0  0  0  0  0
  -26.7020  -27.1660   20.0210 C   0  0  0  0  0  0  0  0  0  0  0  0
  -23.2940  -30.7180   21.8080 C   0  0  0  0  0  3  0  0  0  0  0  0
  -24.5070  -29.0880   20.2320 C   0  0  0  0  0  0  0  0  0  0  0  0
  -25.8410  -30.8020   21.4490 C   0  0  0  0  0  2  0  0  0  0  0  0
  -25.7620  -29.4280   20.7530 C   0  0  0  0  0  0  0  0  0  0  0  0
  -26.8540  -28.4850   20.6300 C   0  0  0  0  0  3  0  0  0  0  0  0
  -25.4100  -26.9260   19.5050 C   0  0  0  0  0  3  0  0  0  0  0  0
  -24.3440  -27.8480   19.5970 C   0  0  0  0  0  3  0  0  0  0  0  0
  -23.3570  -30.0710   20.3980 C   0  0  0  0  0  2  0  0  0  0  0  0
  -24.6420  -31.1820   22.2670 N   0  0  0  0  0  0  0  0  0  0  0  0
  -23.6920  -32.3130   24.0040 O   0  0  0  0  0  0  0  0  0  0  0  0
  -22.6190  -29.7320   22.7920 C   0  0  0  0  0  0  0  0  0  0  0  0
  -21.3030  -29.5130   22.6360 N   0  0  0  0  0  0  0  0  0  0  0  0
  -23.2850  -29.1620   23.6610 O   0  0  0  0  0  0  0  0  0  0  0  0
  -20.8190  -30.0220   21.9090 H   0  0  0  0  0  0  0  0  0  0  0  0
  -17.9950  -28.0690   22.9540 C   0  0  0  0  0  0  0  0  0  0  0  0
  -20.4870  -28.5840   23.4220 C   0  0  0  0  0  3  0  0  0  0  0  0
  -20.7590  -27.1200   23.0080 C   0  0  0  0  0  2  0  0  0  0  0  0
  -19.7930  -26.6050   21.9360 C   0  0  0  0  0  2  0  0  0  0  0  0
  -18.3460  -26.6850   22.4340 C   0  0  0  0  0  2  0  0  0  0  0  0
  -19.0010  -28.9670   23.4000 C   0  0  0  0  0  0  0  0  0  0  0  0
  -18.6230  -30.2540   23.8410 C   0  0  0  0  0  3  0  0  0  0  0  0
  -17.2710  -30.6470   23.8400 C   0  0  0  0  0  3  0  0  0  0  0  0
  -16.2780  -29.7490   23.4100 C   0  0  0  0  0  3  0  0  0  0  0  0
  -16.6410  -28.4630   22.9710 C   0  0  0  0  0  3  0  0  0  0  0  0
  -26.0760  -32.4930   23.9320 C   0  0  0  0  0  3  0  0  0  0  0  0
  -26.6350  -31.6350   25.1340 C   0  0  1  0  0  0  0  0  0  0  0  0
  -25.6020  -31.3970   26.2610 C   0  0  0  0  0  1  0  0  0  0  0  0
  -27.1190  -30.2530   24.6390 C   0  0  0  0  0  1  0  0  0  0  0  0
  -27.8660  -32.3350   25.7560 C   0  0  0  0  0  1  0  0  0  0  0  0
  -25.8850  -33.8900   24.3530 N   0  0  0  0  0  0  0  0  0  0  0  0
  -26.2310  -34.9620   23.6290 C   0  0  0  0  0  0  0  0  0  0  0  0
  -26.8130  -34.8760   22.5440 O   0  0  0  0  0  0  0  0  0  0  0  0
  -25.3680  -34.0350   25.2080 H   0  0  0  0  0  0  0  0  0  0  0  0
  -24.5980  -36.8740   23.5160 C   0  0  0  0  0  1  0  0  0  0  0  0
  -25.8750  -36.3520   24.1960 C   0  0  0  0  0  3  0  0  0  0  0  0
  -28.1200  -37.0660   24.8850 C   0  0  0  0  0  1  0  0  0  0  0  0
  -26.9590  -37.3470   24.0450 N   0  0  0  0  0  0  0  0  0  0  0  0
  -26.6240  -38.2810   24.2680 H   0  0  0  0  0  0  0  0  0  0  0  0
  -28.3510  -18.8630   18.4090 C   0  0  0  0  0  1  0  0  0  0  0  0
  -28.8750  -19.0710   19.8380 C   0  0  0  0  0  3  0  0  0  0  0  0
  -29.9930  -17.8240   20.1570 C   0  0  0  0  0  2  0  0  0  0  0  0
  -30.5300  -15.0740   19.9760 C   0  0  0  0  0  0  0  0  0  0  0  0
  -30.4540  -12.6800   19.1260 C   0  0  0  0  0  2  0  0  0  0  0  0
  -29.4810  -12.5210   17.9340 C   0  0  0  0  0  2  0  0  0  0  0  0
  -28.0400  -12.2950   18.4280 C   0  0  0  0  0  2  0  0  0  0  0  0
  -27.6410  -13.2740   19.5630 C   0  0  0  0  0  3  0  0  0  0  0  0
  -28.7290  -13.3730   20.6520 C   0  0  0  0  0  2  0  0  0  0  0  0
  -29.9600  -13.8000   19.9760 N   0  0  0  0  0  0  0  0  0  0  0  0
  -31.7370  -15.1420   19.7270 O   0  0  0  0  0  0  0  0  0  0  0  0
  -29.7200  -16.2510   20.0490 N   0  0  0  0  0  0  0  0  0  0  0  0
  -28.7400  -16.0250   20.1330 H   0  0  0  0  0  0  0  0  0  0  0  0
  -25.2930  -13.8410   20.4050 C   0  0  0  0  0  0  0  0  0  0  0  0
  -24.2440  -13.0600   20.8100 C   0  0  0  0  0  0  0  0  0  0  0  0
  -24.7130  -11.7110   20.7560 C   0  0  0  0  0  0  0  0  0  0  0  0
  -26.3270  -12.9670   20.1180 N   0  0  0  0  0  0  0  0  0  0  0  0
  -25.9930  -11.6820   20.3980 N   0  0  0  0  0  0  0  0  0  0  0  0
  -23.9990  -10.4460   20.9630 C   0  0  0  0  0  0  0  0  0  0  0  0
  -24.4370   -9.4950   21.9120 C   0  0  0  0  0  3  0  0  0  0  0  0
  -23.7190   -8.2950   22.1060 C   0  0  0  0  0  3  0  0  0  0  0  0
  -22.5500   -8.0360   21.3520 C   0  0  0  0  0  0  0  0  0  0  0  0
  -22.1330   -8.9740   20.3910 C   0  0  0  0  0  3  0  0  0  0  0  0
  -22.8510  -10.1650   20.1950 C   0  0  0  0  0  3  0  0  0  0  0  0
  -21.8040   -6.8870   21.4560 O   0  0  0  0  0  0  0  0  0  0  0  0
  -21.7230   -6.1850   22.6330 C   0  0  0  0  0  0  0  0  0  0  0  0
  -21.2230   -6.7700   23.8160 C   0  0  0  0  0  3  0  0  0  0  0  0
  -21.0910   -5.9940   24.9840 C   0  0  0  0  0  3  0  0  0  0  0  0
  -21.4520   -4.6330   24.9700 C   0  0  0  0  0  0  0  0  0  0  0  0
  -21.9460   -4.0480   23.7900 C   0  0  0  0  0  3  0  0  0  0  0  0
  -22.0770   -4.8210   22.6240 C   0  0  0  0  0  0  0  0  0  0  0  0
  -22.5330   -4.2470   21.4850 F   0  0  0  0  0  0  0  0  0  0  0  0
  -21.3180   -3.8830   26.0890 F   0  0  0  0  0  0  0  0  0  0  0  0
  -22.8560  -13.5300   21.1280 C   0  0  0  0  0  0  0  0  0  0  0  0
  -22.1660  -12.8370   22.0260 N   0  0  0  0  0  0  0  0  0  0  0  0
  -22.3920  -14.5490   20.6150 O   0  0  0  0  0  0  0  0  0  0  0  0
  -22.5560  -12.0140   22.4630 H   0  0  0  0  0  0  0  0  0  0  0  0
  -21.2340  -13.1320   22.2810 H   0  0  0  0  0  0  0  0  0  0  0  0
  -25.4470  -15.2120   20.2250 N   0  0  0  0  0  0  0  0  0  0  0  0
  -24.6860  -15.8680   20.3660 H   0  0  0  0  0  0  0  0  0  0  0  0
  -26.2720  -15.6460   19.8330 H   0  0  0  0  0  0  0  0  0  0  0  0
  1  4  1  0
  2  3  1  0
  2  5  2  0
  3  1  2  0
  4  9  1  0
  5  6  1  0
  6  4  2  0
  7  9  1  0
  9  8  1  0
 11 10  1  0
 11 12  1  0
 11  3  1  0
 12 14  1  0
 13 24  2  0
 14 19  1  0
 15 23  1  0
 15 25  1  0
 16 22  1  0
 16 18  1  0
 17 23  1  0
 18 17  1  0
 19 18  2  0
 20 21  1  0
 20 14  2  0
 21 16  2  0
 22 15  1  0
 23 13  1  0
 25 27  2  0
 26 25  1  0
 28 26  1  0
 29 38  2  0
 29 34  1  0
 30 26  1  0
 31 30  1  0
 32 33  1  0
 32 31  1  0
 33 29  1  0
 34 30  1  0
 34 35  2  0
 36 35  1  0
 37 36  2  0
 38 37  1  0
 39 13  1  0
 39 44  1  0
 39 40  1  0
 40 43  1  1
 40 41  1  0
 42 40  1  0
 44 47  1  0
 45 49  1  0
 45 44  1  0
 46 45  2  0
 49 48  1  0
 51 49  1  0
 51 52  1  0
 51 50  1  0
 54 53  1  0
 54  5  1  0
 54 55  1  0
 56 62  1  0
 56 64  1  0
 57 62  1  0
 58 59  1  0
 58 57  1  0
 60 59  1  0
 60 69  1  0
 60 61  1  0
 62 61  1  0
 63 56  2  0
 64 65  1  0
 64 55  1  0
 66 67  2  0
 67 86  1  0
 68 67  1  0
 68 71  1  0
 69 70  1  0
 69 66  1  0
 70 68  2  0
 71 72  1  0
 72 73  2  0
 74 77  1  0
 74 73  1  0
 75 74  2  0
 76 75  1  0
 76 71  2  0
 77 78  1  0
 78 79  1  0
 79 80  2  0
 81 80  1  0
 81 85  1  0
 82 81  2  0
 83 78  2  0
 83 82  1  0
 84 83  1  0
 86 87  1  0
 87 90  1  0
 87 89  1  0
 88 86  2  0
 91 92  1  0
 91 66  1  0
 93 91  1  0
M  ISO  4  11 101  12 101  56 100  64 100
M  END
>  <TORSDO>  (6) 
F 20

>  <SCORE>  (6) 
-13.641

>  <name>  (6) 
5

>  <ligand_id>  (6) 
5

>  <original_smiles>  (6) 
[H]c1c([H])c([H])c2c(c1[H])C([H])([H])C([H])([H])C([H])([H])C2([H])N([H])C(=O)C1([H])N(C(=O)C([H])(N([H])C(=O)C([H])(N([H])C([H])([H])[H])C([H])([H])[H])C(C([H])([H])[H])(C([H])([H])[H])C([H])([H])[H])C([H])([H])c2c([H])c(OC([H])(c3c([H])c(C([H])(C([H])([H])[H])C([H])([H])[H])nc(C([H])(C([H])([H])[H])C([H])([H])N([H])C(=O)N4C([H])([H])C([H])([H])C([H])([H])C([H])(n5nc(-c6c([H])c([H])c(Oc7c([H])c([H])c(F)c([H])c7F)c([H])c6[H])c(C(=O)N([H])[H])c5N([H])[H])C4([H])[H])c3[H])C([H])([H])[H])c([H])c([H])c2C1([H])[H]

>  <smiles>  (6) 
[H]c1c([H])c([H])c2c(c1[H])C([H])([H])C([H])([H])C([H])([H])C2([H])N([H])C(=O)C1([H])N(C(=O)C([H])(N([H])C(=O)C([H])(N([H])C([H])([H])[H])C([H])([H])[H])C(C([H])([H])[H])(C([H])([H])[H])C([H])([H])[H])C([H])([H])c2c([H])c(OC([H])(c3c([H])c(C([H])(C([H])([H])[H])C([H])([H])[H])nc(C([H])(C([H])([H])[H])C([H])([H])N([H])C(=O)N4C([H])([H])C([H])([H])C([H])([H])C([H])(n5nc(-c6c([H])c([H])c(Oc7c([H])c([H])c(F)c([H])c7F)c([H])c6[H])c(C(=O)N([H])[H])c5N([H])[H])C4([H])[H])c3[H])C([H])([H])[H])c([H])c([H])c2C1([H])[H]

$$$$
6:0:0
     RDKit          3D

 90 98  0  0  1  0  0  0  0  0999 V2000
  -29.0610  -21.9520   18.2910 C   0  0  0  0  0  3  0  0  0  0  0  0
  -29.1550  -20.6920   17.6450 C   0  0  0  0  0  3  0  0  0  0  0  0
  -29.4050  -21.7100   19.5930 C   0  0  0  0  0  0  0  0  0  0  0  0
  -29.5350  -19.7310   18.4700 N   0  0  0  0  0  0  0  0  0  0  0  0
  -29.7100  -20.3310   19.6710 N   0  0  0  0  0  0  0  0  0  0  0  0
  -29.4300  -22.7060   20.7450 C   0  0  0  0  0  2  0  0  0  0  0  0
  -29.5940  -24.2440   20.4220 C   0  0  0  0  0  3  0  0  0  0  0  0
  -28.3130  -25.0850   20.1120 C   0  0  0  0  0  3  0  0  0  0  0  0
  -28.4820  -26.5320   20.2230 O   0  0  0  0  0  0  0  0  0  0  0  0
  -24.6930  -31.8440   23.2140 C   0  0  0  0  0  0  0  0  0  0  0  0
  -27.3330  -27.3210   20.1810 C   0  0  0  0  0  0  0  0  0  0  0  0
  -23.4920  -30.4360   21.5790 C   0  0  0  0  0  3  0  0  0  0  0  0
  -24.9500  -28.8860   20.1680 C   0  0  0  0  0  0  0  0  0  0  0  0
  -26.0290  -30.7710   21.3950 C   0  0  0  0  0  2  0  0  0  0  0  0
  -26.1140  -29.3930   20.7580 C   0  0  0  0  0  0  0  0  0  0  0  0
  -27.3070  -28.6230   20.7570 C   0  0  0  0  0  3  0  0  0  0  0  0
  -26.1430  -26.8490   19.5760 C   0  0  0  0  0  3  0  0  0  0  0  0
  -24.9640  -27.6150   19.5710 C   0  0  0  0  0  3  0  0  0  0  0  0
  -23.7090  -29.7510   20.2040 C   0  0  0  0  0  2  0  0  0  0  0  0
  -24.7570  -31.0320   22.1200 N   0  0  0  0  0  0  0  0  0  0  0  0
  -23.6090  -32.1220   23.7470 O   0  0  0  0  0  0  0  0  0  0  0  0
  -22.8330  -29.4210   22.5410 C   0  0  0  0  0  0  0  0  0  0  0  0
  -21.5060  -29.2520   22.4210 N   0  0  0  0  0  0  0  0  0  0  0  0
  -23.5130  -28.7870   23.3530 O   0  0  0  0  0  0  0  0  0  0  0  0
  -21.0190  -29.8130   21.7350 H   0  0  0  0  0  0  0  0  0  0  0  0
  -18.1200  -28.0930   22.9370 C   0  0  0  0  0  0  0  0  0  0  0  0
  -20.6820  -28.3230   23.1970 C   0  0  0  0  0  3  0  0  0  0  0  0
  -20.7670  -26.8910   22.6190 C   0  0  0  0  0  2  0  0  0  0  0  0
  -19.6560  -26.5820   21.6100 C   0  0  0  0  0  2  0  0  0  0  0  0
  -18.2790  -26.7420   22.2600 C   0  0  0  0  0  2  0  0  0  0  0  0
  -19.2490  -28.8430   23.3610 C   0  0  0  0  0  0  0  0  0  0  0  0
  -19.0480  -30.1080   23.9540 C   0  0  0  0  0  3  0  0  0  0  0  0
  -17.7500  -30.6240   24.1270 C   0  0  0  0  0  3  0  0  0  0  0  0
  -16.6350  -29.8720   23.7200 C   0  0  0  0  0  3  0  0  0  0  0  0
  -16.8210  -28.6090   23.1300 C   0  0  0  0  0  3  0  0  0  0  0  0
  -25.9760  -32.4780   23.8380 C   0  0  0  0  0  3  0  0  0  0  0  0
  -25.6580  -33.8710   24.1830 N   0  0  0  0  0  0  0  0  0  0  0  0
  -25.9730  -34.9330   23.4280 C   0  0  0  0  0  0  0  0  0  0  0  0
  -26.6320  -34.8420   22.3890 O   0  0  0  0  0  0  0  0  0  0  0  0
  -25.0750  -34.0130   24.9930 H   0  0  0  0  0  0  0  0  0  0  0  0
  -24.2190  -36.7070   23.1110 C   0  0  0  0  0  1  0  0  0  0  0  0
  -25.4780  -36.3120   23.9020 C   0  0  0  0  0  3  0  0  0  0  0  0
  -27.6170  -37.2130   24.7020 C   0  0  0  0  0  1  0  0  0  0  0  0
  -26.4970  -37.3760   23.7780 N   0  0  0  0  0  0  0  0  0  0  0  0
  -26.0850  -38.2910   23.9400 H   0  0  0  0  0  0  0  0  0  0  0  0
  -26.5040  -31.6960   25.1030 C   0  0  1  0  0  0  0  0  0  0  0  0
  -25.4150  -31.4410   26.1720 C   0  0  0  0  0  1  0  0  0  0  0  0
  -27.0950  -30.3280   24.6920 C   0  0  0  0  0  1  0  0  0  0  0  0
  -27.6550  -32.4910   25.7640 C   0  0  0  0  0  1  0  0  0  0  0  0
  -30.1080  -19.4880   20.8200 C   0  0  0  0  0  2  0  0  0  0  0  0
  -30.8180  -18.0990   20.5380 C   0  0  0  0  0  2  0  0  0  0  0  0
  -29.9160  -16.8520   20.2220 C   0  0  0  0  0  2  0  0  0  0  0  0
  -30.9480  -14.5130   20.1150 C   0  0  0  0  0  0  0  0  0  0  0  0
  -30.5880  -12.3390   18.9560 C   0  0  0  0  0  2  0  0  0  0  0  0
  -29.6040  -12.5270   17.7790 C   0  0  0  0  0  2  0  0  0  0  0  0
  -28.1420  -12.4130   18.2530 C   0  0  0  0  0  2  0  0  0  0  0  0
  -27.8610  -13.2650   19.5180 C   0  0  0  0  0  3  0  0  0  0  0  0
  -28.9420  -13.0230   20.5900 C   0  0  0  0  0  2  0  0  0  0  0  0
  -30.2560  -13.3330   19.9960 N   0  0  0  0  0  0  0  0  0  0  0  0
  -32.0010  -14.7080   19.4990 O   0  0  0  0  0  0  0  0  0  0  0  0
  -30.2590  -15.4790   22.2610 C   0  0  0  0  0  1  0  0  0  0  0  0
  -30.3340  -15.5300   20.7960 N   0  0  0  0  0  0  0  0  0  0  0  0
  -25.5040  -13.9300   20.3070 C   0  0  0  0  0  0  0  0  0  0  0  0
  -24.4300  -13.1850   20.7170 C   0  0  0  0  0  0  0  0  0  0  0  0
  -24.8580  -11.8230   20.6790 C   0  0  0  0  0  0  0  0  0  0  0  0
  -26.5190  -13.0230   20.0440 N   0  0  0  0  0  0  0  0  0  0  0  0
  -26.1350  -11.7520   20.3270 N   0  0  0  0  0  0  0  0  0  0  0  0
  -24.1080  -10.5800   20.9010 C   0  0  0  0  0  0  0  0  0  0  0  0
  -24.5340   -9.6220   21.8470 C   0  0  0  0  0  3  0  0  0  0  0  0
  -23.7870   -8.4420   22.0570 C   0  0  0  0  0  3  0  0  0  0  0  0
  -22.6000   -8.2140   21.3210 C   0  0  0  0  0  0  0  0  0  0  0  0
  -22.1930   -9.1600   20.3650 C   0  0  0  0  0  3  0  0  0  0  0  0
  -22.9400  -10.3310   20.1530 C   0  0  0  0  0  3  0  0  0  0  0  0
  -21.8240   -7.0860   21.4390 O   0  0  0  0  0  0  0  0  0  0  0  0
  -21.7520   -6.3830   22.6150 C   0  0  0  0  0  0  0  0  0  0  0  0
  -21.3370   -6.9880   23.8210 C   0  0  0  0  0  3  0  0  0  0  0  0
  -21.2090   -6.2120   24.9910 C   0  0  0  0  0  3  0  0  0  0  0  0
  -21.4840   -4.8330   24.9540 C   0  0  0  0  0  0  0  0  0  0  0  0
  -21.8910   -4.2270   23.7520 C   0  0  0  0  0  3  0  0  0  0  0  0
  -22.0210   -5.0000   22.5860 C   0  0  0  0  0  0  0  0  0  0  0  0
  -22.3930   -4.4080   21.4260 F   0  0  0  0  0  0  0  0  0  0  0  0
  -21.3540   -4.0850   26.0750 F   0  0  0  0  0  0  0  0  0  0  0  0
  -23.0540  -13.6970   21.0340 C   0  0  0  0  0  0  0  0  0  0  0  0
  -22.3460  -13.0310   21.9390 N   0  0  0  0  0  0  0  0  0  0  0  0
  -22.6190  -14.7240   20.5130 O   0  0  0  0  0  0  0  0  0  0  0  0
  -22.7100  -12.2010   22.3820 H   0  0  0  0  0  0  0  0  0  0  0  0
  -21.4240  -13.3560   22.1910 H   0  0  0  0  0  0  0  0  0  0  0  0
  -25.6960  -15.2950   20.1180 N   0  0  0  0  0  0  0  0  0  0  0  0
  -24.9540  -15.9730   20.2520 H   0  0  0  0  0  0  0  0  0  0  0  0
  -26.5530  -15.7100   19.7730 H   0  0  0  0  0  0  0  0  0  0  0  0
  1  3  2  0
  2  1  1  0
  2  4  2  0
  3  5  1  0
  3  6  1  0
  4  5  1  0
  5 50  1  0
  7  6  1  0
  8  9  1  0
  8  7  2  0
 10 21  2  0
 11  9  1  0
 11 16  1  0
 12 20  1  0
 12 22  1  0
 13 19  1  0
 13 15  1  0
 14 20  1  0
 15 14  1  0
 16 15  2  0
 17 11  2  0
 18 17  1  0
 18 13  2  0
 19 12  1  0
 20 10  1  0
 22 24  2  0
 23 22  1  0
 25 23  1  0
 26 35  2  0
 26 31  1  0
 27 23  1  0
 27 31  1  0
 28 27  1  0
 29 30  1  0
 29 28  1  0
 30 26  1  0
 31 32  2  0
 32 33  1  0
 34 33  2  0
 35 34  1  0
 36 10  1  0
 36 37  1  0
 36 46  1  0
 37 40  1  0
 38 42  1  0
 38 37  1  0
 39 38  2  0
 42 41  1  0
 44 42  1  0
 44 45  1  0
 44 43  1  0
 46 49  1  1
 46 47  1  0
 48 46  1  0
 51 50  1  0
 52 51  1  0
 52 62  1  0
 53 62  1  0
 54 59  1  0
 55 56  1  0
 55 54  1  0
 57 56  1  0
 57 66  1  0
 57 58  1  0
 59 53  1  0
 59 58  1  0
 60 53  2  0
 62 61  1  0
 63 64  2  0
 64 83  1  0
 65 64  1  0
 65 68  1  0
 66 63  1  0
 66 67  1  0
 67 65  2  0
 68 69  1  0
 69 70  2  0
 71 74  1  0
 71 70  1  0
 72 71  2  0
 73 72  1  0
 73 68  2  0
 74 75  1  0
 75 76  1  0
 76 77  2  0
 78 77  1  0
 78 82  1  0
 79 78  2  0
 80 75  2  0
 80 79  1  0
 81 80  1  0
 83 84  1  0
 84 87  1  0
 84 86  1  0
 85 83  2  0
 88 89  1  0
 88 63  1  0
 90 88  1  0
M  ISO  4   8 101   9 101  53 100  62 100
M  END
>  <TORSDO>  (7) 
F 22

>  <SCORE>  (7) 
-12.323

>  <name>  (7) 
6

>  <ligand_id>  (7) 
6

>  <original_smiles>  (7) 
[H]c1nn(C([H])([H])C([H])([H])C([H])([H])N(C(=O)N2C([H])([H])C([H])([H])C([H])([H])C([H])(n3nc(-c4c([H])c([H])c(Oc5c([H])c([H])c(F)c([H])c5F)c([H])c4[H])c(C(=O)N([H])[H])c3N([H])[H])C2([H])[H])C([H])([H])[H])c(C([H])([H])C([H])([H])C([H])([H])Oc2c([H])c([H])c3c(c2[H])C([H])([H])N(C(=O)C([H])(N([H])C(=O)C([H])(N([H])C([H])([H])[H])C([H])([H])[H])C(C([H])([H])[H])(C([H])([H])[H])C([H])([H])[H])C([H])(C(=O)N([H])C2([H])c4c([H])c([H])c([H])c([H])c4C([H])([H])C([H])([H])C2([H])[H])C3([H])[H])c1[H]

>  <smiles>  (7) 
[H]c1nn(C([H])([H])C([H])([H])C([H])([H])N(C(=O)N2C([H])([H])C([H])([H])C([H])([H])C([H])(n3nc(-c4c([H])c([H])c(Oc5c([H])c([H])c(F)c([H])c5F)c([H])c4[H])c(C(=O)N([H])[H])c3N([H])[H])C2([H])[H])C([H])([H])[H])c(C([H])([H])C([H])([H])C([H])([H])Oc2c([H])c([H])c3c(c2[H])C([H])([H])N(C(=O)C([H])(N([H])C(=O)C([H])(N([H])C([H])([H])[H])C([H])([H])[H])C(C([H])([H])[H])(C([H])([H])[H])C([H])([H])[H])C([H])(C(=O)N([H])C2([H])c4c([H])c([H])c([H])c([H])c4C([H])([H])C([H])([H])C2([H])[H])C3([H])[H])c1[H]

$$$$
7:0:0
     RDKit          3D

 96104  0  0  1  0  0  0  0  0999 V2000
  -28.7990  -22.3330   19.3200 C   0  0  0  0  0  3  0  0  0  0  0  0
  -28.8590  -23.6310   19.9780 C   0  0  0  0  0  0  0  0  0  0  0  0
  -29.3710  -21.3050   20.0600 C   0  0  0  0  0  0  0  0  0  0  0  0
  -29.3970  -23.3170   21.2030 C   0  0  0  0  0  0  0  0  0  0  0  0
  -29.6460  -24.2580   22.3430 C   0  0  0  0  0  1  0  0  0  0  0  0
  -29.7340  -21.9410   21.2530 N   0  0  0  0  0  0  0  0  0  0  0  0
  -29.7870  -19.8300   19.6490 C   0  0  0  0  0  2  0  0  0  0  0  0
  -27.8070  -18.2030   20.0070 C   0  0  0  0  0  1  0  0  0  0  0  0
  -29.2920  -18.4380   20.3100 C   0  0  0  0  0  3  0  0  0  0  0  0
  -30.1750  -17.1400   19.9050 C   0  0  0  0  0  2  0  0  0  0  0  0
  -30.5140  -14.5770   20.0490 C   0  0  0  0  0  0  0  0  0  0  0  0
  -30.2400  -12.3010   19.0750 C   0  0  0  0  0  2  0  0  0  0  0  0
  -29.2270  -12.3770   17.9120 C   0  0  0  0  0  2  0  0  0  0  0  0
  -27.7890  -12.2000   18.4350 C   0  0  0  0  0  2  0  0  0  0  0  0
  -27.4920  -13.0850   19.6750 C   0  0  0  0  0  3  0  0  0  0  0  0
  -28.6220  -13.0150   20.7260 C   0  0  0  0  0  2  0  0  0  0  0  0
  -29.8770  -13.3570   20.0470 N   0  0  0  0  0  0  0  0  0  0  0  0
  -31.6640  -14.6740   19.6170 O   0  0  0  0  0  0  0  0  0  0  0  0
  -29.7790  -15.7210   20.3000 N   0  0  0  0  0  0  0  0  0  0  0  0
  -28.8340  -15.5850   20.6290 H   0  0  0  0  0  0  0  0  0  0  0  0
  -25.1620  -13.6510   20.5860 C   0  0  0  0  0  0  0  0  0  0  0  0
  -24.1240  -12.8660   21.0090 C   0  0  0  0  0  0  0  0  0  0  0  0
  -24.5840  -11.5170   20.9100 C   0  0  0  0  0  0  0  0  0  0  0  0
  -26.1860  -12.7810   20.2540 N   0  0  0  0  0  0  0  0  0  0  0  0
  -25.8500  -11.4900   20.5090 N   0  0  0  0  0  0  0  0  0  0  0  0
  -23.8710  -10.2490   21.1170 C   0  0  0  0  0  0  0  0  0  0  0  0
  -24.3430   -9.2750   22.0260 C   0  0  0  0  0  3  0  0  0  0  0  0
  -23.6290   -8.0740   22.2220 C   0  0  0  0  0  3  0  0  0  0  0  0
  -22.4300   -7.8360   21.5090 C   0  0  0  0  0  0  0  0  0  0  0  0
  -21.9770   -8.7980   20.5890 C   0  0  0  0  0  3  0  0  0  0  0  0
  -22.6910   -9.9910   20.3910 C   0  0  0  0  0  3  0  0  0  0  0  0
  -21.6820   -6.6880   21.6180 O   0  0  0  0  0  0  0  0  0  0  0  0
  -21.6640   -5.9480   22.7720 C   0  0  0  0  0  0  0  0  0  0  0  0
  -21.2300   -6.4930   24.0000 C   0  0  0  0  0  3  0  0  0  0  0  0
  -21.1610   -5.6780   25.1470 C   0  0  0  0  0  3  0  0  0  0  0  0
  -21.5140   -4.3180   25.0680 C   0  0  0  0  0  0  0  0  0  0  0  0
  -21.9420   -3.7710   23.8450 C   0  0  0  0  0  3  0  0  0  0  0  0
  -22.0130   -4.5840   22.7010 C   0  0  0  0  0  0  0  0  0  0  0  0
  -22.4050   -4.0470   21.5200 F   0  0  0  0  0  0  0  0  0  0  0  0
  -21.4410   -3.5340   26.1700 F   0  0  0  0  0  0  0  0  0  0  0  0
  -22.7490  -13.3330   21.3910 C   0  0  0  0  0  0  0  0  0  0  0  0
  -22.0830  -12.6100   22.2850 N   0  0  0  0  0  0  0  0  0  0  0  0
  -22.2790  -14.3740   20.9340 O   0  0  0  0  0  0  0  0  0  0  0  0
  -22.4810  -11.7670   22.6730 H   0  0  0  0  0  0  0  0  0  0  0  0
  -21.1650  -12.9010   22.5860 H   0  0  0  0  0  0  0  0  0  0  0  0
  -25.3110  -15.0260   20.4290 N   0  0  0  0  0  0  0  0  0  0  0  0
  -24.5490  -15.6720   20.6030 H   0  0  0  0  0  0  0  0  0  0  0  0
  -26.1180  -15.4730   20.0140 H   0  0  0  0  0  0  0  0  0  0  0  0
  -30.3880  -21.2590   22.3720 C   0  0  0  0  0  2  0  0  0  0  0  0
  -32.3030  -19.7910   23.1760 C   0  0  0  0  0  1  0  0  0  0  0  0
  -32.7740  -21.5470   21.4200 C   0  0  0  0  0  1  0  0  0  0  0  0
  -31.7260  -20.5760   21.9900 C   0  0  0  0  0  3  0  0  0  0  0  0
  -28.4200  -25.0490   19.3760 C   0  0  0  0  0  3  0  0  0  0  0  0
  -29.6400  -24.6830   17.0900 C   0  0  0  0  0  1  0  0  0  0  0  0
  -29.4330  -25.5660   18.3310 C   0  0  0  0  0  2  0  0  0  0  0  0
  -28.2220  -26.2530   20.2470 O   0  0  0  0  0  0  0  0  0  0  0  0
  -24.4570  -31.6960   23.2070 C   0  0  0  0  0  0  0  0  0  0  0  0
  -27.1110  -27.1270   20.1380 C   0  0  0  0  0  0  0  0  0  0  0  0
  -23.2770  -30.3070   21.5460 C   0  0  0  0  0  3  0  0  0  0  0  0
  -24.7460  -28.7730   20.1200 C   0  0  0  0  0  0  0  0  0  0  0  0
  -25.8220  -30.6180   21.4010 C   0  0  0  0  0  2  0  0  0  0  0  0
  -25.9100  -29.2430   20.7400 C   0  0  0  0  0  0  0  0  0  0  0  0
  -27.0890  -28.4300   20.7450 C   0  0  0  0  0  3  0  0  0  0  0  0
  -25.9140  -26.7270   19.4950 C   0  0  0  0  0  3  0  0  0  0  0  0
  -24.7540  -27.5230   19.4920 C   0  0  0  0  0  3  0  0  0  0  0  0
  -23.5100  -29.6470   20.1630 C   0  0  0  0  0  2  0  0  0  0  0  0
  -24.5370  -30.8920   22.1070 N   0  0  0  0  0  0  0  0  0  0  0  0
  -23.3660  -31.9690   23.7280 O   0  0  0  0  0  0  0  0  0  0  0  0
  -22.6040  -29.2800   22.4890 C   0  0  0  0  0  0  0  0  0  0  0  0
  -21.2810  -29.0910   22.3380 N   0  0  0  0  0  0  0  0  0  0  0  0
  -23.2710  -28.6610   23.3220 O   0  0  0  0  0  0  0  0  0  0  0  0
  -20.8020  -29.6440   21.6400 H   0  0  0  0  0  0  0  0  0  0  0  0
  -17.9090  -27.8530   22.7620 C   0  0  0  0  0  0  0  0  0  0  0  0
  -20.4570  -28.1450   23.0920 C   0  0  0  0  0  3  0  0  0  0  0  0
  -20.5910  -26.7130   22.5240 C   0  0  0  0  0  2  0  0  0  0  0  0
  -19.5180  -26.3740   21.4850 C   0  0  0  0  0  2  0  0  0  0  0  0
  -18.1180  -26.5030   22.0950 C   0  0  0  0  0  2  0  0  0  0  0  0
  -19.0070  -28.6300   23.2160 C   0  0  0  0  0  0  0  0  0  0  0  0
  -18.7580  -29.8920   23.7990 C   0  0  0  0  0  3  0  0  0  0  0  0
  -17.4420  -30.3760   23.9330 C   0  0  0  0  0  3  0  0  0  0  0  0
  -16.3590  -29.5960   23.4950 C   0  0  0  0  0  3  0  0  0  0  0  0
  -16.5930  -28.3350   22.9160 C   0  0  0  0  0  3  0  0  0  0  0  0
  -25.7300  -32.3300   23.8470 C   0  0  0  0  0  3  0  0  0  0  0  0
  -25.4180  -33.7320   24.1620 N   0  0  0  0  0  0  0  0  0  0  0  0
  -25.7410  -34.7770   23.3900 C   0  0  0  0  0  0  0  0  0  0  0  0
  -26.4020  -34.6630   22.3540 O   0  0  0  0  0  0  0  0  0  0  0  0
  -24.8290  -33.8930   24.9670 H   0  0  0  0  0  0  0  0  0  0  0  0
  -23.9950  -36.5550   23.0430 C   0  0  0  0  0  1  0  0  0  0  0  0
  -25.2550  -36.1690   23.8350 C   0  0  0  0  0  3  0  0  0  0  0  0
  -27.3950  -37.0840   24.6160 C   0  0  0  0  0  1  0  0  0  0  0  0
  -26.2790  -37.2270   23.6860 N   0  0  0  0  0  0  0  0  0  0  0  0
  -25.8690  -38.1480   23.8220 H   0  0  0  0  0  0  0  0  0  0  0  0
  -26.2180  -31.5660   25.1390 C   0  0  1  0  0  0  0  0  0  0  0  0
  -25.1020  -31.3390   26.1860 C   0  0  0  0  0  1  0  0  0  0  0  0
  -26.8070  -30.1850   24.7730 C   0  0  0  0  0  1  0  0  0  0  0  0
  -27.3560  -32.3640   25.8200 C   0  0  0  0  0  1  0  0  0  0  0  0
  1  2  1  0
  1  3  2  0
  2  4  2  0
  3  6  1  0
  4  6  1  0
  4  5  1  0
  6 49  1  0
  7  3  1  0
  7  9  1  0
  9  8  1  0
 10 19  1  0
 10  9  1  0
 11 19  1  0
 12 17  1  0
 13 14  1  0
 13 12  1  0
 15 14  1  0
 15 24  1  0
 15 16  1  0
 17 11  1  0
 17 16  1  0
 18 11  2  0
 19 20  1  0
 21 22  2  0
 22 41  1  0
 23 22  1  0
 23 26  1  0
 24 25  1  0
 24 21  1  0
 25 23  2  0
 26 27  1  0
 27 28  2  0
 29 32  1  0
 29 28  1  0
 30 29  2  0
 31 30  1  0
 31 26  2  0
 32 33  1  0
 33 34  1  0
 34 35  2  0
 36 35  1  0
 36 40  1  0
 37 36  2  0
 38 33  2  0
 38 37  1  0
 39 38  1  0
 41 42  1  0
 42 45  1  0
 42 44  1  0
 43 41  2  0
 46 21  1  0
 46 47  1  0
 48 46  1  0
 51 52  1  0
 52 49  1  0
 52 50  1  0
 53 55  1  0
 53  2  1  0
 53 56  1  0
 54 55  1  0
 57 68  2  0
 58 56  1  0
 58 63  1  0
 59 67  1  0
 59 69  1  0
 60 66  1  0
 60 62  1  0
 61 67  1  0
 62 63  2  0
 62 61  1  0
 64 58  2  0
 65 64  1  0
 65 60  2  0
 66 59  1  0
 67 57  1  0
 69 71  2  0
 70 69  1  0
 72 70  1  0
 73 82  2  0
 73 78  1  0
 74 70  1  0
 74 78  1  0
 75 74  1  0
 76 77  1  0
 76 75  1  0
 77 73  1  0
 78 79  2  0
 79 80  1  0
 81 80  2  0
 82 81  1  0
 83 57  1  0
 83 84  1  0
 83 93  1  0
 84 87  1  0
 85 89  1  0
 85 84  1  0
 86 85  2  0
 89 88  1  0
 91 92  1  0
 91 89  1  0
 91 90  1  0
 93 96  1  1
 93 94  1  0
 95 93  1  0
M  ISO  4  11 100  19 100  53 101  56 101
M  END
>  <TORSDO>  (8) 
F 23

>  <SCORE>  (8) 
-12.668

>  <name>  (8) 
7

>  <ligand_id>  (8) 
7

>  <original_smiles>  (8) 
[H]c1c([H])c([H])c2c(c1[H])C([H])([H])C([H])([H])C([H])([H])C2([H])N([H])C(=O)C1([H])N(C(=O)C([H])(N([H])C(=O)C([H])(N([H])C([H])([H])[H])C([H])([H])[H])C(C([H])([H])[H])(C([H])([H])[H])C([H])([H])[H])C([H])([H])c2c([H])c(OC([H])(c3c([H])c(C([H])([H])C([H])(C([H])([H])[H])C([H])([H])N([H])C(=O)N4C([H])([H])C([H])([H])C([H])([H])C([H])(n5nc(-c6c([H])c([H])c(Oc7c([H])c([H])c(F)c([H])c7F)c([H])c6[H])c(C(=O)N([H])[H])c5N([H])[H])C4([H])[H])n(C([H])([H])C([H])(C([H])([H])[H])C([H])([H])[H])c3C([H])([H])[H])C([H])([H])C([H])([H])[H])c([H])c([H])c2C1([H])[H]

>  <smiles>  (8) 
[H]c1c([H])c([H])c2c(c1[H])C([H])([H])C([H])([H])C([H])([H])C2([H])N([H])C(=O)C1([H])N(C(=O)C([H])(N([H])C(=O)C([H])(N([H])C([H])([H])[H])C([H])([H])[H])C(C([H])([H])[H])(C([H])([H])[H])C([H])([H])[H])C([H])([H])c2c([H])c(OC([H])(c3c([H])c(C([H])([H])C([H])(C([H])([H])[H])C([H])([H])N([H])C(=O)N4C([H])([H])C([H])([H])C([H])([H])C([H])(n5nc(-c6c([H])c([H])c(Oc7c([H])c([H])c(F)c([H])c7F)c([H])c6[H])c(C(=O)N([H])[H])c5N([H])[H])C4([H])[H])n(C([H])([H])C([H])(C([H])([H])[H])C([H])([H])[H])c3C([H])([H])[H])C([H])([H])C([H])([H])[H])c([H])c([H])c2C1([H])[H]

$$$$
8:0:0
     RDKit          3D

 92100  0  0  1  0  0  0  0  0999 V2000
  -30.2340  -19.3280   17.5110 C   0  0  0  0  0  3  0  0  0  0  0  0
  -30.2240  -20.6120   18.1140 C   0  0  0  0  0  0  0  0  0  0  0  0
  -29.8200  -20.3870   19.4090 C   0  0  0  0  0  0  0  0  0  0  0  0
  -30.6000  -21.9090   17.4440 C   0  0  0  0  0  1  0  0  0  0  0  0
  -29.9020  -18.3750   18.3570 N   0  0  0  0  0  0  0  0  0  0  0  0
  -29.6940  -18.9900   19.5460 N   0  0  0  0  0  0  0  0  0  0  0  0
  -29.6410  -21.4390   20.4950 C   0  0  0  0  0  2  0  0  0  0  0  0
  -28.6990  -22.6400   20.1330 C   0  0  0  0  0  2  0  0  0  0  0  0
  -29.2960  -24.2440   22.0420 C   0  0  0  0  0  1  0  0  0  0  0  0
  -29.1450  -24.0970   20.5210 C   0  0  0  0  0  3  0  0  0  0  0  0
  -28.1170  -25.1400   19.9790 C   0  0  0  0  0  2  0  0  0  0  0  0
  -28.3380  -26.5600   20.2280 O   0  0  0  0  0  0  0  0  0  0  0  0
  -24.5970  -31.8770   23.2430 C   0  0  0  0  0  0  0  0  0  0  0  0
  -27.2080  -27.3750   20.1660 C   0  0  0  0  0  0  0  0  0  0  0  0
  -23.3900  -30.4830   21.6010 C   0  0  0  0  0  3  0  0  0  0  0  0
  -24.8370  -28.9480   20.1730 C   0  0  0  0  0  0  0  0  0  0  0  0
  -25.9280  -30.8130   21.4190 C   0  0  0  0  0  2  0  0  0  0  0  0
  -26.0050  -29.4450   20.7640 C   0  0  0  0  0  0  0  0  0  0  0  0
  -27.1950  -28.6690   20.7530 C   0  0  0  0  0  3  0  0  0  0  0  0
  -26.0160  -26.9260   19.5450 C   0  0  0  0  0  3  0  0  0  0  0  0
  -24.8390  -27.6880   19.5610 C   0  0  0  0  0  3  0  0  0  0  0  0
  -23.6010  -29.8170   20.2190 C   0  0  0  0  0  2  0  0  0  0  0  0
  -24.6560  -31.0750   22.1440 N   0  0  0  0  0  0  0  0  0  0  0  0
  -23.5150  -32.1540   23.7790 O   0  0  0  0  0  0  0  0  0  0  0  0
  -22.7320  -29.4580   22.5560 C   0  0  0  0  0  0  0  0  0  0  0  0
  -21.4050  -29.2810   22.4280 N   0  0  0  0  0  0  0  0  0  0  0  0
  -23.4110  -28.8300   23.3720 O   0  0  0  0  0  0  0  0  0  0  0  0
  -20.9160  -29.8430   21.7450 H   0  0  0  0  0  0  0  0  0  0  0  0
  -18.0280  -28.0930   22.9240 C   0  0  0  0  0  0  0  0  0  0  0  0
  -20.5850  -28.3460   23.1990 C   0  0  0  0  0  3  0  0  0  0  0  0
  -20.6850  -26.9120   22.6280 C   0  0  0  0  0  2  0  0  0  0  0  0
  -19.5850  -26.5890   21.6130 C   0  0  0  0  0  2  0  0  0  0  0  0
  -18.2020  -26.7410   22.2520 C   0  0  0  0  0  2  0  0  0  0  0  0
  -19.1470  -28.8530   23.3550 C   0  0  0  0  0  0  0  0  0  0  0  0
  -18.9310  -30.1180   23.9420 C   0  0  0  0  0  3  0  0  0  0  0  0
  -17.6270  -30.6250   24.1020 C   0  0  0  0  0  3  0  0  0  0  0  0
  -16.5210  -29.8610   23.6870 C   0  0  0  0  0  3  0  0  0  0  0  0
  -16.7230  -28.5970   23.1060 C   0  0  0  0  0  3  0  0  0  0  0  0
  -25.8830  -32.5060   23.8620 C   0  0  0  0  0  3  0  0  0  0  0  0
  -25.5780  -33.9060   24.1870 N   0  0  0  0  0  0  0  0  0  0  0  0
  -25.9090  -34.9560   23.4220 C   0  0  0  0  0  0  0  0  0  0  0  0
  -26.5750  -34.8470   22.3890 O   0  0  0  0  0  0  0  0  0  0  0  0
  -24.9910  -34.0650   24.9920 H   0  0  0  0  0  0  0  0  0  0  0  0
  -24.1830  -36.7500   23.0630 C   0  0  0  0  0  1  0  0  0  0  0  0
  -25.4230  -36.3460   23.8760 C   0  0  0  0  0  3  0  0  0  0  0  0
  -27.5590  -37.2290   24.7070 C   0  0  0  0  0  1  0  0  0  0  0  0
  -26.4580  -37.3970   23.7620 N   0  0  0  0  0  0  0  0  0  0  0  0
  -26.0520  -38.3170   23.9080 H   0  0  0  0  0  0  0  0  0  0  0  0
  -26.3990  -31.7370   25.1400 C   0  0  1  0  0  0  0  0  0  0  0  0
  -25.3080  -31.5030   26.2090 C   0  0  0  0  0  1  0  0  0  0  0  0
  -26.9800  -30.3570   24.7520 C   0  0  0  0  0  1  0  0  0  0  0  0
  -27.5500  -32.5330   25.8000 C   0  0  0  0  0  1  0  0  0  0  0  0
  -29.3510  -18.1050   20.6780 C   0  0  0  0  0  2  0  0  0  0  0  0
  -30.4130  -16.9780   20.9480 C   0  0  0  0  0  2  0  0  0  0  0  0
  -30.6590  -14.5140   20.4770 C   0  0  0  0  0  0  0  0  0  0  0  0
  -30.3820  -12.3540   19.3140 C   0  0  0  0  0  2  0  0  0  0  0  0
  -29.4420  -12.5750   18.1100 C   0  0  0  0  0  2  0  0  0  0  0  0
  -27.9690  -12.4200   18.5320 C   0  0  0  0  0  2  0  0  0  0  0  0
  -27.6270  -13.2430   19.8030 C   0  0  0  0  0  3  0  0  0  0  0  0
  -28.6760  -13.0140   20.9140 C   0  0  0  0  0  2  0  0  0  0  0  0
  -29.9970  -13.3310   20.3490 N   0  0  0  0  0  0  0  0  0  0  0  0
  -31.8160  -14.6670   20.0790 O   0  0  0  0  0  0  0  0  0  0  0  0
  -29.9270  -15.5720   20.9000 N   0  0  0  0  0  0  0  0  0  0  0  0
  -28.9730  -15.3930   21.1710 H   0  0  0  0  0  0  0  0  0  0  0  0
  -25.2240  -13.8490   20.4820 C   0  0  0  0  0  0  0  0  0  0  0  0
  -24.1550  -13.0760   20.8450 C   0  0  0  0  0  0  0  0  0  0  0  0
  -24.6190  -11.7250   20.8310 C   0  0  0  0  0  0  0  0  0  0  0  0
  -26.2740  -12.9680   20.2720 N   0  0  0  0  0  0  0  0  0  0  0  0
  -25.9120  -11.6860   20.5390 N   0  0  0  0  0  0  0  0  0  0  0  0
  -23.8950  -10.4620   21.0230 C   0  0  0  0  0  0  0  0  0  0  0  0
  -24.3250   -9.5040   21.9670 C   0  0  0  0  0  3  0  0  0  0  0  0
  -23.6030   -8.3040   22.1450 C   0  0  0  0  0  3  0  0  0  0  0  0
  -22.4400   -8.0550   21.3800 C   0  0  0  0  0  0  0  0  0  0  0  0
  -22.0320   -9.0020   20.4250 C   0  0  0  0  0  3  0  0  0  0  0  0
  -22.7520  -10.1940   20.2450 C   0  0  0  0  0  3  0  0  0  0  0  0
  -21.6880   -6.9070   21.4680 O   0  0  0  0  0  0  0  0  0  0  0  0
  -21.6310   -6.1720   22.6230 C   0  0  0  0  0  0  0  0  0  0  0  0
  -21.1930   -6.7310   23.8430 C   0  0  0  0  0  3  0  0  0  0  0  0
  -21.0860   -5.9210   24.9910 C   0  0  0  0  0  3  0  0  0  0  0  0
  -21.4050   -4.5510   24.9190 C   0  0  0  0  0  0  0  0  0  0  0  0
  -21.8370   -3.9920   23.7030 C   0  0  0  0  0  3  0  0  0  0  0  0
  -21.9480   -4.8000   22.5590 C   0  0  0  0  0  0  0  0  0  0  0  0
  -22.3430   -4.2510   21.3850 F   0  0  0  0  0  0  0  0  0  0  0  0
  -21.2970   -3.7710   26.0200 F   0  0  0  0  0  0  0  0  0  0  0  0
  -22.7530  -13.5500   21.1000 C   0  0  0  0  0  0  0  0  0  0  0  0
  -22.0180  -12.8560   21.9620 N   0  0  0  0  0  0  0  0  0  0  0  0
  -22.3160  -14.5710   20.5680 O   0  0  0  0  0  0  0  0  0  0  0  0
  -22.3840  -12.0340   22.4160 H   0  0  0  0  0  0  0  0  0  0  0  0
  -21.0760  -13.1540   22.1730 H   0  0  0  0  0  0  0  0  0  0  0  0
  -25.3910  -15.2170   20.2940 N   0  0  0  0  0  0  0  0  0  0  0  0
  -24.6200  -15.8720   20.3620 H   0  0  0  0  0  0  0  0  0  0  0  0
  -26.2470  -15.6480   19.9680 H   0  0  0  0  0  0  0  0  0  0  0  0
  1  2  1  0
  1  5  2  0
  2  3  2  0
  3  6  1  0
  3  7  1  0
  4  2  1  0
  5  6  1  0
  6 53  1  0
  8  7  1  0
  8 10  1  0
 10  9  1  0
 11 12  1  0
 11 10  1  0
 13 24  2  0
 14 12  1  0
 14 19  1  0
 15 23  1  0
 15 25  1  0
 16 22  1  0
 16 18  1  0
 17 23  1  0
 18 17  1  0
 19 18  2  0
 20 21  1  0
 20 14  2  0
 21 16  2  0
 22 15  1  0
 23 13  1  0
 25 27  2  0
 26 25  1  0
 28 26  1  0
 29 38  2  0
 29 34  1  0
 30 26  1  0
 30 34  1  0
 31 30  1  0
 32 33  1  0
 32 31  1  0
 33 29  1  0
 34 35  2  0
 35 36  1  0
 37 36  2  0
 38 37  1  0
 39 13  1  0
 39 40  1  0
 39 49  1  0
 40 43  1  0
 41 45  1  0
 41 40  1  0
 42 41  2  0
 45 44  1  0
 47 45  1  0
 47 48  1  0
 47 46  1  0
 49 52  1  1
 49 50  1  0
 51 49  1  0
 53 54  1  0
 55 63  1  0
 56 61  1  0
 57 58  1  0
 57 56  1  0
 59 58  1  0
 59 68  1  0
 59 60  1  0
 61 55  1  0
 61 60  1  0
 62 55  2  0
 63 54  1  0
 63 64  1  0
 65 66  2  0
 66 85  1  0
 67 66  1  0
 67 70  1  0
 68 65  1  0
 68 69  1  0
 69 67  2  0
 70 71  1  0
 71 72  2  0
 73 76  1  0
 73 72  1  0
 74 73  2  0
 75 74  1  0
 75 70  2  0
 76 77  1  0
 77 78  1  0
 78 79  2  0
 80 79  1  0
 80 84  1  0
 81 80  2  0
 82 77  2  0
 82 81  1  0
 83 82  1  0
 85 86  1  0
 86 89  1  0
 86 88  1  0
 87 85  2  0
 90 91  1  0
 90 65  1  0
 92 90  1  0
M  ISO  4  11 101  12 101  55 100  63 100
M  END
>  <TORSDO>  (9) 
F 22

>  <SCORE>  (9) 
-13.228

>  <name>  (9) 
8

>  <ligand_id>  (9) 
8

>  <original_smiles>  (9) 
[H]c1nn(C([H])([H])C([H])([H])N([H])C(=O)N2C([H])([H])C([H])([H])C([H])([H])C([H])(n3nc(-c4c([H])c([H])c(Oc5c([H])c([H])c(F)c([H])c5F)c([H])c4[H])c(C(=O)N([H])[H])c3N([H])[H])C2([H])[H])c(C([H])([H])C([H])([H])C([H])(C([H])([H])[H])C([H])([H])Oc2c([H])c([H])c3c(c2[H])C([H])([H])N(C(=O)C([H])(N([H])C(=O)C([H])(N([H])C([H])([H])[H])C([H])([H])[H])C(C([H])([H])[H])(C([H])([H])[H])C([H])([H])[H])C([H])(C(=O)N([H])C2([H])c4c([H])c([H])c([H])c([H])c4C([H])([H])C([H])([H])C2([H])[H])C3([H])[H])c1C([H])([H])[H]

>  <smiles>  (9) 
[H]c1nn(C([H])([H])C([H])([H])N([H])C(=O)N2C([H])([H])C([H])([H])C([H])([H])C([H])(n3nc(-c4c([H])c([H])c(Oc5c([H])c([H])c(F)c([H])c5F)c([H])c4[H])c(C(=O)N([H])[H])c3N([H])[H])C2([H])[H])c(C([H])([H])C([H])([H])C([H])(C([H])([H])[H])C([H])([H])Oc2c([H])c([H])c3c(c2[H])C([H])([H])N(C(=O)C([H])(N([H])C(=O)C([H])(N([H])C([H])([H])[H])C([H])([H])[H])C(C([H])([H])[H])(C([H])([H])[H])C([H])([H])[H])C([H])(C(=O)N([H])C2([H])c4c([H])c([H])c([H])c([H])c4C([H])([H])C([H])([H])C2([H])[H])C3([H])[H])c1C([H])([H])[H]

$$$$
9:0:0
     RDKit          3D

 93101  0  0  1  0  0  0  0  0999 V2000
  -29.5350  -20.2240   19.7350 C   0  0  0  0  0  3  0  0  0  0  0  0
  -31.4860  -19.1680   18.8240 C   0  0  0  0  0  3  0  0  0  0  0  0
  -30.3060  -19.0460   19.5790 C   0  0  0  0  0  0  0  0  0  0  0  0
  -29.9400  -21.4340   19.1240 C   0  0  0  0  0  0  0  0  0  0  0  0
  -31.1860  -21.4430   18.4490 C   0  0  0  0  0  0  0  0  0  0  0  0
  -31.7890  -22.6690   17.7810 C   0  0  0  0  0  1  0  0  0  0  0  0
  -31.9360  -20.3310   18.3140 N   0  0  0  0  0  0  0  0  0  0  0  0
  -28.5850  -17.7300   20.9910 C   0  0  0  0  0  1  0  0  0  0  0  0
  -29.8170  -17.6600   20.0630 C   0  0  0  0  0  3  0  0  0  0  0  0
  -30.8950  -16.7700   20.7540 C   0  0  0  0  0  2  0  0  0  0  0  0
  -31.1060  -14.3260   20.2210 C   0  0  0  0  0  0  0  0  0  0  0  0
  -30.7890  -12.0860   19.2290 C   0  0  0  0  0  2  0  0  0  0  0  0
  -29.8720  -12.2330   17.9990 C   0  0  0  0  0  2  0  0  0  0  0  0
  -28.3870  -12.1460   18.4170 C   0  0  0  0  0  2  0  0  0  0  0  0
  -28.0410  -13.0620   19.6240 C   0  0  0  0  0  3  0  0  0  0  0  0
  -29.0840  -12.8980   20.7520 C   0  0  0  0  0  2  0  0  0  0  0  0
  -30.4190  -13.1480   20.1800 N   0  0  0  0  0  0  0  0  0  0  0  0
  -32.1940  -14.4860   19.6660 O   0  0  0  0  0  0  0  0  0  0  0  0
  -30.4740  -15.3570   20.8130 N   0  0  0  0  0  0  0  0  0  0  0  0
  -29.5800  -15.1630   21.2350 H   0  0  0  0  0  0  0  0  0  0  0  0
  -25.6710  -13.7400   20.3580 C   0  0  0  0  0  0  0  0  0  0  0  0
  -24.5770  -13.0020   20.7330 C   0  0  0  0  0  0  0  0  0  0  0  0
  -24.9890  -11.6360   20.6810 C   0  0  0  0  0  0  0  0  0  0  0  0
  -26.6810  -12.8230   20.1080 N   0  0  0  0  0  0  0  0  0  0  0  0
  -26.2730  -11.5510   20.3530 N   0  0  0  0  0  0  0  0  0  0  0  0
  -24.2180  -10.3990   20.8760 C   0  0  0  0  0  0  0  0  0  0  0  0
  -24.5500   -9.4740   21.8920 C   0  0  0  0  0  3  0  0  0  0  0  0
  -23.7890   -8.2990   22.0680 C   0  0  0  0  0  3  0  0  0  0  0  0
  -22.6790   -8.0400   21.2280 C   0  0  0  0  0  0  0  0  0  0  0  0
  -22.3640   -8.9530   20.2060 C   0  0  0  0  0  3  0  0  0  0  0  0
  -23.1270  -10.1200   20.0290 C   0  0  0  0  0  3  0  0  0  0  0  0
  -21.8980   -6.9100   21.3060 O   0  0  0  0  0  0  0  0  0  0  0  0
  -21.6520   -6.2870   22.5030 C   0  0  0  0  0  0  0  0  0  0  0  0
  -20.9630   -6.9320   23.5520 C   0  0  0  0  0  3  0  0  0  0  0  0
  -20.6760   -6.2340   24.7410 C   0  0  0  0  0  3  0  0  0  0  0  0
  -21.0570   -4.8860   24.8780 C   0  0  0  0  0  0  0  0  0  0  0  0
  -21.7310   -4.2360   23.8290 C   0  0  0  0  0  3  0  0  0  0  0  0
  -22.0260   -4.9350   22.6430 C   0  0  0  0  0  0  0  0  0  0  0  0
  -22.6610   -4.2980   21.6310 F   0  0  0  0  0  0  0  0  0  0  0  0
  -20.7750   -4.2110   26.0160 F   0  0  0  0  0  0  0  0  0  0  0  0
  -23.2020  -13.5290   21.0290 C   0  0  0  0  0  0  0  0  0  0  0  0
  -22.4550  -12.8490   21.8950 N   0  0  0  0  0  0  0  0  0  0  0  0
  -22.7960  -14.5760   20.5310 O   0  0  0  0  0  0  0  0  0  0  0  0
  -22.7890  -12.0080   22.3380 H   0  0  0  0  0  0  0  0  0  0  0  0
  -21.5320  -13.1890   22.1280 H   0  0  0  0  0  0  0  0  0  0  0  0
  -25.8880  -15.1040   20.1900 N   0  0  0  0  0  0  0  0  0  0  0  0
  -25.1590  -15.8020   20.3050 H   0  0  0  0  0  0  0  0  0  0  0  0
  -26.7650  -15.4990   19.8690 H   0  0  0  0  0  0  0  0  0  0  0  0
  -28.9220  -22.5810   19.0550 C   0  0  0  0  0  2  0  0  0  0  0  0
  -29.3830  -24.0220   19.3750 C   0  0  0  0  0  2  0  0  0  0  0  0
  -28.6830  -25.0170   18.4280 C   0  0  0  0  0  2  0  0  0  0  0  0
  -28.9660  -26.4930   18.7660 C   0  0  0  0  0  2  0  0  0  0  0  0
  -28.5580  -26.8270   20.1030 O   0  0  0  0  0  0  0  0  0  0  0  0
  -24.7010  -31.9490   23.2630 C   0  0  0  0  0  0  0  0  0  0  0  0
  -27.3600  -27.4900   20.2040 C   0  0  0  0  0  0  0  0  0  0  0  0
  -23.4960  -30.5130   21.6510 C   0  0  0  0  0  3  0  0  0  0  0  0
  -24.9500  -28.9590   20.2580 C   0  0  0  0  0  0  0  0  0  0  0  0
  -26.0180  -30.8780   21.4410 C   0  0  0  0  0  2  0  0  0  0  0  0
  -26.1070  -29.4950   20.8360 C   0  0  0  0  0  0  0  0  0  0  0  0
  -27.3130  -28.7590   20.8230 C   0  0  0  0  0  3  0  0  0  0  0  0
  -26.1740  -26.9520   19.6610 C   0  0  0  0  0  3  0  0  0  0  0  0
  -24.9740  -27.6810   19.6790 C   0  0  0  0  0  3  0  0  0  0  0  0
  -23.7030  -29.8090   20.2860 C   0  0  0  0  0  2  0  0  0  0  0  0
  -24.7580  -31.1280   22.1760 N   0  0  0  0  0  0  0  0  0  0  0  0
  -23.6220  -32.2270   23.8000 O   0  0  0  0  0  0  0  0  0  0  0  0
  -22.8500  -29.5060   22.6290 C   0  0  0  0  0  0  0  0  0  0  0  0
  -21.5330  -29.2910   22.4820 N   0  0  0  0  0  0  0  0  0  0  0  0
  -23.5300  -28.9230   23.4780 O   0  0  0  0  0  0  0  0  0  0  0  0
  -21.0470  -29.8120   21.7640 H   0  0  0  0  0  0  0  0  0  0  0  0
  -18.1690  -28.0650   22.9590 C   0  0  0  0  0  0  0  0  0  0  0  0
  -20.7180  -28.3620   23.2640 C   0  0  0  0  0  3  0  0  0  0  0  0
  -20.8490  -26.9210   22.7210 C   0  0  0  0  0  2  0  0  0  0  0  0
  -19.7650  -26.5610   21.7000 C   0  0  0  0  0  2  0  0  0  0  0  0
  -18.3720  -26.7030   22.3200 C   0  0  0  0  0  2  0  0  0  0  0  0
  -19.2720  -28.8510   23.3880 C   0  0  0  0  0  0  0  0  0  0  0  0
  -19.0290  -30.1270   23.9430 C   0  0  0  0  0  3  0  0  0  0  0  0
  -17.7170  -30.6150   24.0780 C   0  0  0  0  0  3  0  0  0  0  0  0
  -16.6270  -29.8260   23.6680 C   0  0  0  0  0  3  0  0  0  0  0  0
  -16.8550  -28.5540   23.1130 C   0  0  0  0  0  3  0  0  0  0  0  0
  -25.9870  -32.5920   23.8690 C   0  0  0  0  0  3  0  0  0  0  0  0
  -25.6670  -33.9860   24.1980 N   0  0  0  0  0  0  0  0  0  0  0  0
  -26.0000  -35.0400   23.4410 C   0  0  0  0  0  0  0  0  0  0  0  0
  -26.6770  -34.9400   22.4140 O   0  0  0  0  0  0  0  0  0  0  0  0
  -25.0610  -34.1350   24.9900 H   0  0  0  0  0  0  0  0  0  0  0  0
  -24.2790  -36.8330   23.0570 C   0  0  0  0  0  1  0  0  0  0  0  0
  -25.5010  -36.4250   23.8940 C   0  0  0  0  0  3  0  0  0  0  0  0
  -27.6080  -37.3180   24.7860 C   0  0  0  0  0  1  0  0  0  0  0  0
  -26.5370  -37.4790   23.8070 N   0  0  0  0  0  0  0  0  0  0  0  0
  -26.1260  -38.4000   23.9330 H   0  0  0  0  0  0  0  0  0  0  0  0
  -26.5260  -31.8250   25.1380 C   0  0  1  0  0  0  0  0  0  0  0  0
  -25.4360  -31.5280   26.1950 C   0  0  0  0  0  1  0  0  0  0  0  0
  -27.1670  -30.4790   24.7280 C   0  0  0  0  0  1  0  0  0  0  0  0
  -27.6380  -32.6580   25.8200 C   0  0  0  0  0  1  0  0  0  0  0  0
  2  3  2  0
  3  1  1  0
  3  9  1  0
  4  1  2  0
  5  4  1  0
  6  5  1  0
  7  5  2  0
  7  2  1  0
  9 10  1  0
  9  8  1  0
 10 19  1  0
 11 19  1  0
 12 17  1  0
 13 14  1  0
 13 12  1  0
 15 14  1  0
 15 24  1  0
 15 16  1  0
 17 11  1  0
 17 16  1  0
 18 11  2  0
 19 20  1  0
 21 22  2  0
 22 41  1  0
 23 22  1  0
 23 26  1  0
 24 25  1  0
 24 21  1  0
 25 23  2  0
 26 27  1  0
 27 28  2  0
 29 32  1  0
 29 28  1  0
 30 29  2  0
 31 30  1  0
 31 26  2  0
 32 33  1  0
 33 38  2  0
 33 34  1  0
 34 35  2  0
 35 36  1  0
 36 40  1  0
 37 36  2  0
 38 37  1  0
 39 38  1  0
 41 42  1  0
 42 45  1  0
 42 44  1  0
 43 41  2  0
 46 47  1  0
 46 21  1  0
 48 46  1  0
 49  4  1  0
 49 50  1  0
 51 52  1  0
 51 50  1  0
 52 53  1  0
 53 55  1  0
 54 65  2  0
 55 60  1  0
 56 64  1  0
 56 66  1  0
 57 63  1  0
 57 59  1  0
 58 64  1  0
 59 58  1  0
 60 59  2  0
 61 62  1  0
 61 55  2  0
 62 57  2  0
 63 56  1  0
 64 54  1  0
 66 68  2  0
 67 66  1  0
 69 67  1  0
 70 79  2  0
 70 75  1  0
 71 67  1  0
 71 75  1  0
 72 71  1  0
 73 74  1  0
 73 72  1  0
 74 70  1  0
 75 76  2  0
 76 77  1  0
 78 77  2  0
 79 78  1  0
 80 54  1  0
 80 81  1  0
 80 90  1  0
 81 84  1  0
 82 86  1  0
 82 81  1  0
 83 82  2  0
 86 85  1  0
 88 86  1  0
 88 89  1  0
 88 87  1  0
 90 93  1  1
 90 91  1  0
 92 90  1  0
M  ISO  4  11 100  19 100  52 101  53 101
M  END
>  <TORSDO>  (10) 
F 22

>  <SCORE>  (10) 
-12.310

>  <name>  (10) 
9

>  <ligand_id>  (10) 
9

>  <original_smiles>  (10) 
[H]c1nc(C([H])([H])[H])c(C([H])([H])C([H])([H])C([H])([H])C([H])([H])Oc2c([H])c([H])c3c(c2[H])C([H])([H])N(C(=O)C([H])(N([H])C(=O)C([H])(N([H])C([H])([H])[H])C([H])([H])[H])C(C([H])([H])[H])(C([H])([H])[H])C([H])([H])[H])C([H])(C(=O)N([H])C2([H])c4c([H])c([H])c([H])c([H])c4C([H])([H])C([H])([H])C2([H])[H])C3([H])[H])c([H])c1C([H])(C([H])([H])[H])C([H])([H])N([H])C(=O)N1C([H])([H])C([H])([H])C([H])([H])C([H])(n2nc(-c3c([H])c([H])c(Oc4c([H])c([H])c(F)c([H])c4F)c([H])c3[H])c(C(=O)N([H])[H])c2N([H])[H])C1([H])[H]

>  <smiles>  (10) 
[H]c1nc(C([H])([H])[H])c(C([H])([H])C([H])([H])C([H])([H])C([H])([H])Oc2c([H])c([H])c3c(c2[H])C([H])([H])N(C(=O)C([H])(N([H])C(=O)C([H])(N([H])C([H])([H])[H])C([H])([H])[H])C(C([H])([H])[H])(C([H])([H])[H])C([H])([H])[H])C([H])(C(=O)N([H])C2([H])c4c([H])c([H])c([H])c([H])c4C([H])([H])C([H])([H])C2([H])[H])C3([H])[H])c([H])c1C([H])(C([H])([H])[H])C([H])([H])N([H])C(=O)N1C([H])([H])C([H])([H])C([H])([H])C([H])(n2nc(-c3c([H])c([H])c(Oc4c([H])c([H])c(F)c([H])c4F)c([H])c3[H])c(C(=O)N([H])[H])c2N([H])[H])C1([H])[H]

$$$$
10:0:0
     RDKit          3D

 93101  0  0  1  0  0  0  0  0999 V2000
  -29.9510  -21.3450   20.5470 C   0  0  0  0  0  3  0  0  0  0  0  0
  -29.2080  -22.3850   19.9830 C   0  0  0  0  0  0  0  0  0  0  0  0
  -28.2530  -21.6030   19.2410 C   0  0  0  0  0  0  0  0  0  0  0  0
  -28.4200  -20.2700   19.3690 N   0  0  0  0  0  0  0  0  0  0  0  0
  -29.4930  -20.0640   20.1720 N   0  0  0  0  0  0  0  0  0  0  0  0
  -30.5730  -24.3490   19.1830 C   0  0  0  0  0  1  0  0  0  0  0  0
  -29.9090  -24.2360   21.5820 C   0  0  0  0  0  1  0  0  0  0  0  0
  -29.4300  -23.9730   20.1430 C   0  0  2  0  0  0  0  0  0  0  0  0
  -28.2280  -25.0220   19.8520 C   0  0  0  0  0  2  0  0  0  0  0  0
  -28.4150  -26.5010   20.0530 O   0  0  0  0  0  0  0  0  0  0  0  0
  -24.5710  -31.8400   23.1360 C   0  0  0  0  0  0  0  0  0  0  0  0
  -27.2880  -27.3540   20.0180 C   0  0  0  0  0  0  0  0  0  0  0  0
  -23.4080  -30.4480   21.4650 C   0  0  0  0  0  3  0  0  0  0  0  0
  -24.8990  -28.9520   20.0210 C   0  0  0  0  0  0  0  0  0  0  0  0
  -25.9470  -30.8100   21.3100 C   0  0  0  0  0  2  0  0  0  0  0  0
  -26.0580  -29.4440   20.6330 C   0  0  0  0  0  0  0  0  0  0  0  0
  -27.2560  -28.6600   20.6170 C   0  0  0  0  0  3  0  0  0  0  0  0
  -26.0970  -26.9260   19.3860 C   0  0  0  0  0  3  0  0  0  0  0  0
  -24.9230  -27.7030   19.3860 C   0  0  0  0  0  3  0  0  0  0  0  0
  -23.6460  -29.8030   20.0740 C   0  0  0  0  0  2  0  0  0  0  0  0
  -24.6600  -31.0500   22.0260 N   0  0  0  0  0  0  0  0  0  0  0  0
  -23.4780  -32.0890   23.6660 O   0  0  0  0  0  0  0  0  0  0  0  0
  -22.7550  -29.4030   22.4010 C   0  0  0  0  0  0  0  0  0  0  0  0
  -21.4320  -29.2080   22.2640 N   0  0  0  0  0  0  0  0  0  0  0  0
  -23.4380  -28.7720   23.2110 O   0  0  0  0  0  0  0  0  0  0  0  0
  -20.9410  -29.7680   21.5820 H   0  0  0  0  0  0  0  0  0  0  0  0
  -18.0670  -27.9730   22.7520 C   0  0  0  0  0  0  0  0  0  0  0  0
  -20.6250  -28.2440   23.0140 C   0  0  0  0  0  3  0  0  0  0  0  0
  -20.7350  -26.8300   22.3980 C   0  0  0  0  0  2  0  0  0  0  0  0
  -19.6280  -26.5280   21.3820 C   0  0  0  0  0  2  0  0  0  0  0  0
  -18.2490  -26.6450   22.0370 C   0  0  0  0  0  2  0  0  0  0  0  0
  -19.1810  -28.7310   23.1970 C   0  0  0  0  0  0  0  0  0  0  0  0
  -18.9570  -29.9750   23.8260 C   0  0  0  0  0  3  0  0  0  0  0  0
  -17.6480  -30.4610   24.0140 C   0  0  0  0  0  3  0  0  0  0  0  0
  -16.5470  -29.6980   23.5850 C   0  0  0  0  0  3  0  0  0  0  0  0
  -16.7580  -28.4560   22.9610 C   0  0  0  0  0  3  0  0  0  0  0  0
  -25.8360  -32.4870   23.7800 C   0  0  0  0  0  3  0  0  0  0  0  0
  -25.5010  -33.8790   24.1200 N   0  0  0  0  0  0  0  0  0  0  0  0
  -25.8220  -34.9430   23.3720 C   0  0  0  0  0  0  0  0  0  0  0  0
  -26.5020  -34.8580   22.3450 O   0  0  0  0  0  0  0  0  0  0  0  0
  -24.8980  -34.0170   24.9170 H   0  0  0  0  0  0  0  0  0  0  0  0
  -24.0720  -36.7130   23.0200 C   0  0  0  0  0  1  0  0  0  0  0  0
  -25.3120  -36.3200   23.8380 C   0  0  0  0  0  3  0  0  0  0  0  0
  -27.4210  -37.2310   24.6990 C   0  0  0  0  0  1  0  0  0  0  0  0
  -26.3300  -37.3890   23.7430 N   0  0  0  0  0  0  0  0  0  0  0  0
  -25.9070  -38.3020   23.8940 H   0  0  0  0  0  0  0  0  0  0  0  0
  -26.3460  -31.7160   25.0600 C   0  0  1  0  0  0  0  0  0  0  0  0
  -25.2390  -31.4490   26.1060 C   0  0  0  0  0  1  0  0  0  0  0  0
  -26.9630  -30.3540   24.6700 C   0  0  0  0  0  1  0  0  0  0  0  0
  -27.4690  -32.5260   25.7480 C   0  0  0  0  0  1  0  0  0  0  0  0
  -27.0920  -22.0850   18.4110 C   0  0  0  0  0  2  0  0  0  0  0  0
  -24.7200  -23.0500   18.4850 C   0  0  0  0  0  1  0  0  0  0  0  0
  -25.8860  -22.4590   19.2890 C   0  0  0  0  0  2  0  0  0  0  0  0
  -29.8390  -18.6850   20.7400 C   0  0  0  0  0  3  0  0  0  0  0  0
  -29.9640  -17.3240   19.8560 C   0  0  0  0  0  3  0  0  0  0  0  0
  -30.8240  -14.8410   20.0260 C   0  0  0  0  0  0  0  0  0  0  0  0
  -30.5420  -12.5950   18.9450 C   0  0  0  0  0  2  0  0  0  0  0  0
  -29.5490  -12.7110   17.7670 C   0  0  0  0  0  2  0  0  0  0  0  0
  -28.0970  -12.5420   18.2570 C   0  0  0  0  0  2  0  0  0  0  0  0
  -27.7940  -13.3930   19.5200 C   0  0  0  0  0  3  0  0  0  0  0  0
  -28.9010  -13.2470   20.5840 C   0  0  0  0  0  2  0  0  0  0  0  0
  -30.1760  -13.6220   19.9530 N   0  0  0  0  0  0  0  0  0  0  0  0
  -31.9220  -14.9770   19.4740 O   0  0  0  0  0  0  0  0  0  0  0  0
  -30.0800  -16.0300   22.0060 C   0  0  0  0  0  1  0  0  0  0  0  0
  -30.1510  -15.9510   20.5410 N   0  0  0  0  0  0  0  0  0  0  0  0
  -25.4460  -13.9800   20.3750 C   0  0  0  0  0  0  0  0  0  0  0  0
  -24.3970  -13.2020   20.7850 C   0  0  0  0  0  0  0  0  0  0  0  0
  -24.8520  -11.8510   20.7100 C   0  0  0  0  0  0  0  0  0  0  0  0
  -26.4730  -13.1000   20.0700 N   0  0  0  0  0  0  0  0  0  0  0  0
  -26.1250  -11.8130   20.3340 N   0  0  0  0  0  0  0  0  0  0  0  0
  -24.1300  -10.5880   20.9180 C   0  0  0  0  0  0  0  0  0  0  0  0
  -24.5650   -9.6350   21.8650 C   0  0  0  0  0  3  0  0  0  0  0  0
  -23.8410   -8.4390   22.0590 C   0  0  0  0  0  3  0  0  0  0  0  0
  -22.6690   -8.1880   21.3050 C   0  0  0  0  0  0  0  0  0  0  0  0
  -22.2540   -9.1300   20.3480 C   0  0  0  0  0  3  0  0  0  0  0  0
  -22.9770  -10.3170   20.1520 C   0  0  0  0  0  3  0  0  0  0  0  0
  -21.9140   -7.0440   21.4090 O   0  0  0  0  0  0  0  0  0  0  0  0
  -21.8180   -6.3510   22.5900 C   0  0  0  0  0  0  0  0  0  0  0  0
  -21.3240   -6.9510   23.7690 C   0  0  0  0  0  3  0  0  0  0  0  0
  -21.1770   -6.1830   24.9410 C   0  0  0  0  0  3  0  0  0  0  0  0
  -21.5130   -4.8150   24.9350 C   0  0  0  0  0  0  0  0  0  0  0  0
  -21.9990   -4.2160   23.7610 C   0  0  0  0  0  3  0  0  0  0  0  0
  -22.1480   -4.9810   22.5900 C   0  0  0  0  0  0  0  0  0  0  0  0
  -22.5970   -4.3930   21.4560 F   0  0  0  0  0  0  0  0  0  0  0  0
  -21.3630   -4.0760   26.0590 F   0  0  0  0  0  0  0  0  0  0  0  0
  -23.0180  -13.6810   21.1380 C   0  0  0  0  0  0  0  0  0  0  0  0
  -22.3370  -12.9780   22.0360 N   0  0  0  0  0  0  0  0  0  0  0  0
  -22.5560  -14.7100   20.6490 O   0  0  0  0  0  0  0  0  0  0  0  0
  -22.7300  -12.1490   22.4580 H   0  0  0  0  0  0  0  0  0  0  0  0
  -21.4120  -13.2780   22.3110 H   0  0  0  0  0  0  0  0  0  0  0  0
  -25.6080  -15.3530   20.2150 N   0  0  0  0  0  0  0  0  0  0  0  0
  -24.8560  -16.0090   20.3900 H   0  0  0  0  0  0  0  0  0  0  0  0
  -26.4530  -15.7980   19.8810 H   0  0  0  0  0  0  0  0  0  0  0  0
  2  8  1  0
  2  1  2  0
  3  4  2  0
  3  2  1  0
  4  5  1  0
  5  1  1  0
  5 54  1  0
  8  6  1  6
  8  7  1  0
  9 10  1  0
  9  8  1  0
 11 22  2  0
 12 10  1  0
 12 17  1  0
 13 21  1  0
 13 23  1  0
 14 20  1  0
 14 16  1  0
 15 21  1  0
 16 15  1  0
 17 16  2  0
 18 19  1  0
 18 12  2  0
 19 14  2  0
 20 13  1  0
 21 11  1  0
 23 25  2  0
 24 23  1  0
 26 24  1  0
 27 36  2  0
 27 32  1  0
 28 24  1  0
 28 32  1  0
 29 28  1  0
 30 31  1  0
 30 29  1  0
 31 27  1  0
 32 33  2  0
 33 34  1  0
 35 34  2  0
 36 35  1  0
 37 11  1  0
 37 38  1  0
 37 47  1  0
 38 41  1  0
 39 43  1  0
 39 38  1  0
 40 39  2  0
 43 42  1  0
 45 43  1  0
 45 46  1  0
 45 44  1  0
 47 50  1  1
 47 48  1  0
 49 47  1  0
 51  3  1  0
 51 53  1  0
 52 53  1  0
 55 65  1  0
 55 54  2  0
 56 65  1  0
 57 62  1  0
 58 59  1  0
 58 57  1  0
 60 59  1  0
 60 69  1  0
 60 61  1  0
 62 56  1  0
 62 61  1  0
 63 56  2  0
 65 64  1  0
 66 67  2  0
 67 86  1  0
 68 67  1  0
 68 71  1  0
 69 70  1  0
 69 66  1  0
 70 68  2  0
 71 72  1  0
 72 73  2  0
 74 77  1  0
 74 73  1  0
 75 74  2  0
 76 75  1  0
 76 71  2  0
 77 78  1  0
 78 79  1  0
 79 80  2  0
 81 80  1  0
 81 85  1  0
 82 81  2  0
 83 78  2  0
 83 82  1  0
 84 83  1  0
 86 87  1  0
 87 90  1  0
 87 89  1  0
 88 86  2  0
 91 66  1  0
 91 92  1  0
 93 91  1  0
M  ISO  4   9 101  10 101  56 100  65 100
M  END
>  <TORSDO>  (11) 
F 22

>  <SCORE>  (11) 
-12.975

>  <name>  (11) 
10

>  <ligand_id>  (11) 
10

>  <original_smiles>  (11) 
[H]c1c([H])c([H])c2c(c1[H])C([H])([H])C([H])([H])C([H])([H])C2([H])N([H])C(=O)C1([H])N(C(=O)C([H])(N([H])C(=O)C([H])(N([H])C([H])([H])[H])C([H])([H])[H])C(C([H])([H])[H])(C([H])([H])[H])C([H])([H])[H])C([H])([H])c2c([H])c(OC([H])([H])C(c3c(C([H])([H])C([H])([H])C([H])([H])[H])nn(C([H])([H])C([H])([H])N(C(=O)N4C([H])([H])C([H])([H])C([H])([H])C([H])(n5nc(-c6c([H])c([H])c(Oc7c([H])c([H])c(F)c([H])c7F)c([H])c6[H])c(C(=O)N([H])[H])c5N([H])[H])C4([H])[H])C([H])([H])[H])c3[H])(C([H])([H])[H])C([H])([H])[H])c([H])c([H])c2C1([H])[H]

>  <smiles>  (11) 
[H]c1c([H])c([H])c2c(c1[H])C([H])([H])C([H])([H])C([H])([H])C2([H])N([H])C(=O)C1([H])N(C(=O)C([H])(N([H])C(=O)C([H])(N([H])C([H])([H])[H])C([H])([H])[H])C(C([H])([H])[H])(C([H])([H])[H])C([H])([H])[H])C([H])([H])c2c([H])c(OC([H])([H])C(c3c(C([H])([H])C([H])([H])C([H])([H])[H])nn(C([H])([H])C([H])([H])N(C(=O)N4C([H])([H])C([H])([H])C([H])([H])C([H])(n5nc(-c6c([H])c([H])c(Oc7c([H])c([H])c(F)c([H])c7F)c([H])c6[H])c(C(=O)N([H])[H])c5N([H])[H])C4([H])[H])C([H])([H])[H])c3[H])(C([H])([H])[H])C([H])([H])[H])c([H])c([H])c2C1([H])[H]

$$$$
11:0:0
     RDKit          3D

 88 96  0  0  1  0  0  0  0  0999 V2000
  -28.4580  -21.7110   20.1020 C   0  0  0  0  0  2  0  0  0  0  0  0
  -28.7450  -19.0170   20.6090 C   0  0  0  0  0  3  0  0  0  0  0  0
  -29.6940  -17.9610   20.4690 C   0  0  0  0  0  0  0  0  0  0  0  0
  -30.5200  -20.0390   19.8670 C   0  0  0  0  0  3  0  0  0  0  0  0
  -31.4890  -21.0450   19.3420 C   0  0  0  0  0  1  0  0  0  0  0  0
  -29.2490  -20.3040   20.2460 N   0  0  0  0  0  0  0  0  0  0  0  0
  -30.7760  -18.6970   20.0100 N   0  0  0  0  0  0  0  0  0  0  0  0
  -31.6780  -18.2870   19.7930 H   0  0  0  0  0  0  0  0  0  0  0  0
  -29.6040  -16.3470   20.8270 C   0  0  0  0  0  2  0  0  0  0  0  0
  -30.4680  -15.0020   20.3440 C   0  0  0  0  0  0  0  0  0  0  0  0
  -30.3770  -12.6580   19.3440 C   0  0  0  0  0  2  0  0  0  0  0  0
  -29.4260  -12.6530   18.1220 C   0  0  0  0  0  2  0  0  0  0  0  0
  -27.9630  -12.4390   18.5580 C   0  0  0  0  0  2  0  0  0  0  0  0
  -27.5740  -13.3390   19.7580 C   0  0  0  0  0  3  0  0  0  0  0  0
  -28.6380  -13.2970   20.8760 C   0  0  0  0  0  2  0  0  0  0  0  0
  -29.9170  -13.7190   20.2850 N   0  0  0  0  0  0  0  0  0  0  0  0
  -31.6410  -15.1140   19.9620 O   0  0  0  0  0  0  0  0  0  0  0  0
  -25.1970  -13.9320   20.5060 C   0  0  0  0  0  0  0  0  0  0  0  0
  -24.1300  -13.1630   20.8800 C   0  0  0  0  0  0  0  0  0  0  0  0
  -24.5880  -11.8090   20.8450 C   0  0  0  0  0  0  0  0  0  0  0  0
  -26.2350  -13.0490   20.2580 N   0  0  0  0  0  0  0  0  0  0  0  0
  -25.8770  -11.7660   20.5270 N   0  0  0  0  0  0  0  0  0  0  0  0
  -23.8550  -10.5510   21.0350 C   0  0  0  0  0  0  0  0  0  0  0  0
  -24.2850   -9.5790   21.9660 C   0  0  0  0  0  3  0  0  0  0  0  0
  -23.5520   -8.3860   22.1440 C   0  0  0  0  0  3  0  0  0  0  0  0
  -22.3750   -8.1560   21.3920 C   0  0  0  0  0  0  0  0  0  0  0  0
  -21.9650   -9.1170   20.4510 C   0  0  0  0  0  3  0  0  0  0  0  0
  -22.6990  -10.3020   20.2710 C   0  0  0  0  0  3  0  0  0  0  0  0
  -21.6150   -7.0150   21.4800 O   0  0  0  0  0  0  0  0  0  0  0  0
  -21.5630   -6.2710   22.6320 C   0  0  0  0  0  0  0  0  0  0  0  0
  -21.1320   -6.8260   23.8570 C   0  0  0  0  0  3  0  0  0  0  0  0
  -21.0270   -6.0090   25.0010 C   0  0  0  0  0  3  0  0  0  0  0  0
  -21.3410   -4.6390   24.9200 C   0  0  0  0  0  0  0  0  0  0  0  0
  -21.7640   -4.0850   23.6990 C   0  0  0  0  0  3  0  0  0  0  0  0
  -21.8710   -4.8980   22.5570 C   0  0  0  0  0  0  0  0  0  0  0  0
  -22.2590   -4.3540   21.3790 F   0  0  0  0  0  0  0  0  0  0  0  0
  -21.2330   -3.8530   26.0160 F   0  0  0  0  0  0  0  0  0  0  0  0
  -22.7370  -13.6460   21.1570 C   0  0  0  0  0  0  0  0  0  0  0  0
  -22.0080  -12.9540   22.0250 N   0  0  0  0  0  0  0  0  0  0  0  0
  -22.3020  -14.6740   20.6370 O   0  0  0  0  0  0  0  0  0  0  0  0
  -22.3730  -12.1240   22.4680 H   0  0  0  0  0  0  0  0  0  0  0  0
  -21.0730  -13.2610   22.2530 H   0  0  0  0  0  0  0  0  0  0  0  0
  -25.3660  -15.3030   20.3290 N   0  0  0  0  0  0  0  0  0  0  0  0
  -24.5960  -15.9560   20.4350 H   0  0  0  0  0  0  0  0  0  0  0  0
  -26.1980  -15.7350   19.9490 H   0  0  0  0  0  0  0  0  0  0  0  0
  -28.9660  -23.3100   20.3310 C   0  0  0  0  0  3  0  0  0  0  0  0
  -27.9720  -24.6580   20.0540 C   0  0  0  0  0  3  0  0  0  0  0  0
  -28.2450  -26.1840   20.2540 O   0  0  0  0  0  0  0  0  0  0  0  0
  -24.6290  -31.8940   23.2310 C   0  0  0  0  0  0  0  0  0  0  0  0
  -27.1900  -27.1710   20.1900 C   0  0  0  0  0  0  0  0  0  0  0  0
  -23.4200  -30.5010   21.5960 C   0  0  0  0  0  3  0  0  0  0  0  0
  -24.8610  -28.9220   20.1680 C   0  0  0  0  0  0  0  0  0  0  0  0
  -25.9750  -30.7590   21.4250 C   0  0  0  0  0  2  0  0  0  0  0  0
  -26.0440  -29.3670   20.7720 C   0  0  0  0  0  0  0  0  0  0  0  0
  -27.2080  -28.5070   20.7650 C   0  0  0  0  0  3  0  0  0  0  0  0
  -25.9770  -26.8310   19.5470 C   0  0  0  0  0  3  0  0  0  0  0  0
  -24.8410  -27.6690   19.5400 C   0  0  0  0  0  3  0  0  0  0  0  0
  -23.6350  -29.8220   20.2190 C   0  0  0  0  0  2  0  0  0  0  0  0
  -24.6950  -31.0730   22.1390 N   0  0  0  0  0  0  0  0  0  0  0  0
  -23.5440  -32.1820   23.7630 O   0  0  0  0  0  0  0  0  0  0  0  0
  -22.7410  -29.4970   22.5600 C   0  0  0  0  0  0  0  0  0  0  0  0
  -21.4110  -29.3300   22.4370 N   0  0  0  0  0  0  0  0  0  0  0  0
  -23.4130  -28.8680   23.3830 O   0  0  0  0  0  0  0  0  0  0  0  0
  -20.9260  -29.8870   21.7470 H   0  0  0  0  0  0  0  0  0  0  0  0
  -18.0290  -28.1410   22.9510 C   0  0  0  0  0  0  0  0  0  0  0  0
  -20.5890  -28.3970   23.2130 C   0  0  0  0  0  3  0  0  0  0  0  0
  -20.6860  -26.9640   22.6400 C   0  0  0  0  0  2  0  0  0  0  0  0
  -19.5810  -26.6420   21.6290 C   0  0  0  0  0  2  0  0  0  0  0  0
  -18.2000  -26.7910   22.2760 C   0  0  0  0  0  2  0  0  0  0  0  0
  -19.1510  -28.9020   23.3770 C   0  0  0  0  0  0  0  0  0  0  0  0
  -18.9340  -30.1650   23.9710 C   0  0  0  0  0  3  0  0  0  0  0  0
  -17.6310  -30.6660   24.1420 C   0  0  0  0  0  3  0  0  0  0  0  0
  -16.5240  -29.9030   23.7320 C   0  0  0  0  0  3  0  0  0  0  0  0
  -16.7230  -28.6420   23.1430 C   0  0  0  0  0  3  0  0  0  0  0  0
  -25.9090  -32.5270   23.8550 C   0  0  0  0  0  3  0  0  0  0  0  0
  -26.4270  -31.7520   25.1290 C   0  0  1  0  0  0  0  0  0  0  0  0
  -25.3340  -31.5140   26.1990 C   0  0  0  0  0  1  0  0  0  0  0  0
  -27.0070  -30.3740   24.7380 C   0  0  0  0  0  1  0  0  0  0  0  0
  -27.5800  -32.5430   25.7910 C   0  0  0  0  0  1  0  0  0  0  0  0
  -25.5990  -33.9250   24.1970 N   0  0  0  0  0  0  0  0  0  0  0  0
  -25.9130  -34.9840   23.4400 C   0  0  0  0  0  0  0  0  0  0  0  0
  -26.5610  -34.8890   22.3950 O   0  0  0  0  0  0  0  0  0  0  0  0
  -25.0200  -34.0730   25.0100 H   0  0  0  0  0  0  0  0  0  0  0  0
  -24.1670  -36.7730   23.1460 C   0  0  0  0  0  1  0  0  0  0  0  0
  -25.4340  -36.3700   23.9170 C   0  0  0  0  0  3  0  0  0  0  0  0
  -27.5870  -37.2650   24.6890 C   0  0  0  0  0  1  0  0  0  0  0  0
  -26.4580  -37.4280   23.7780 N   0  0  0  0  0  0  0  0  0  0  0  0
  -26.0520  -38.3470   23.9380 H   0  0  0  0  0  0  0  0  0  0  0  0
  1  6  1  0
  1 46  1  0
  3  2  2  0
  3  9  1  0
  4  5  1  0
  4  7  1  0
  4  6  1  0
  6  2  1  0
  7  3  1  0
  8  7  1  0
 10  9  1  0
 11 16  1  0
 12 13  1  0
 12 11  1  0
 14 13  1  0
 14 21  1  0
 14 15  1  0
 16 10  1  0
 16 15  1  0
 17 10  2  0
 18 19  2  0
 19 38  1  0
 20 19  1  0
 20 23  1  0
 21 18  1  0
 21 22  1  0
 22 20  2  0
 23 24  1  0
 24 25  2  0
 26 29  1  0
 26 25  1  0
 27 26  2  0
 28 27  1  0
 28 23  2  0
 29 30  1  0
 30 31  1  0
 31 32  2  0
 33 32  1  0
 33 37  1  0
 34 33  2  0
 35 30  2  0
 35 34  1  0
 36 35  1  0
 38 39  1  0
 39 42  1  0
 39 41  1  0
 40 38  2  0
 43 44  1  0
 43 18  1  0
 45 43  1  0
 47 48  1  0
 47 46  2  0
 49 60  2  0
 50 48  1  0
 50 55  1  0
 51 59  1  0
 51 61  1  0
 52 58  1  0
 52 54  1  0
 53 59  1  0
 54 53  1  0
 55 54  2  0
 56 50  2  0
 57 56  1  0
 57 52  2  0
 58 51  1  0
 59 49  1  0
 61 63  2  0
 62 61  1  0
 64 62  1  0
 65 74  2  0
 65 70  1  0
 66 62  1  0
 66 70  1  0
 67 66  1  0
 68 69  1  0
 68 67  1  0
 69 65  1  0
 70 71  2  0
 71 72  1  0
 73 72  2  0
 74 73  1  0
 75 49  1  0
 75 80  1  0
 75 76  1  0
 76 79  1  1
 76 77  1  0
 78 76  1  0
 80 83  1  0
 81 85  1  0
 81 80  1  0
 82 81  2  0
 85 84  1  0
 87 85  1  0
 87 88  1  0
 87 86  1  0
M  ISO  4   9 100  10 100  47 101  48 101
M  END
>  <TORSDO>  (12) 
F 20

>  <SCORE>  (12) 
-14.547

>  <name>  (12) 
11

>  <ligand_id>  (12) 
11

>  <original_smiles>  (12) 
[H]c1c([H])c([H])c2c(c1[H])C([H])([H])C([H])([H])C([H])([H])C2([H])N([H])C(=O)C1([H])N(C(=O)C([H])(N([H])C(=O)C([H])(N([H])C([H])([H])[H])C([H])([H])[H])C(C([H])([H])[H])(C([H])([H])[H])C([H])([H])[H])C([H])([H])c2c([H])c(OC([H])([H])C([H])([H])C([H])([H])n3c([H])c(C([H])([H])C(=O)N4C([H])([H])C([H])([H])C([H])([H])C([H])(n5nc(-c6c([H])c([H])c(Oc7c([H])c([H])c(F)c([H])c7F)c([H])c6[H])c(C(=O)N([H])[H])c5N([H])[H])C4([H])[H])[n+]([H])c3C([H])([H])[H])c([H])c([H])c2C1([H])[H]

>  <smiles>  (12) 
[H]c1c([H])c([H])c2c(c1[H])C([H])([H])C([H])([H])C([H])([H])C2([H])N([H])C(=O)C1([H])N(C(=O)C([H])(N([H])C(=O)C([H])(N([H])C([H])([H])[H])C([H])([H])[H])C(C([H])([H])[H])(C([H])([H])[H])C([H])([H])[H])C([H])([H])c2c([H])c(OC([H])([H])C([H])([H])C([H])([H])n3c([H])c(C([H])([H])C(=O)N4C([H])([H])C([H])([H])C([H])([H])C([H])(n5nc(-c6c([H])c([H])c(Oc7c([H])c([H])c(F)c([H])c7F)c([H])c6[H])c(C(=O)N([H])[H])c5N([H])[H])C4([H])[H])[n+]([H])c3C([H])([H])[H])c([H])c([H])c2C1([H])[H]

$$$$
12:0:0
     RDKit          3D

 91 99  0  0  1  0  0  0  0  0999 V2000
  -26.8980  -23.0570   19.1890 C   0  0  0  0  0  3  0  0  0  0  0  0
  -26.1210  -22.0990   18.5380 C   0  0  0  0  0  3  0  0  0  0  0  0
  -28.0730  -22.7780   19.9180 C   0  0  0  0  0  0  0  0  0  0  0  0
  -26.5010  -20.7680   18.6130 C   0  0  0  0  0  0  0  0  0  0  0  0
  -28.4490  -21.2150   19.9030 C   0  0  0  0  0  0  0  0  0  0  0  0
  -25.6830  -19.6890   17.9370 C   0  0  0  0  0  1  0  0  0  0  0  0
  -27.6030  -20.3740   19.2590 N   0  0  0  0  0  0  0  0  0  0  0  0
  -30.6100  -20.7950   21.2030 C   0  0  0  0  0  1  0  0  0  0  0  0
  -30.5150  -19.9880   18.8530 C   0  0  0  0  0  1  0  0  0  0  0  0
  -29.7280  -20.0650   20.1740 C   0  0  2  0  0  0  0  0  0  0  0  0
  -29.7070  -18.3200   20.7490 C   0  0  0  0  0  2  0  0  0  0  0  0
  -30.4920  -15.4610   20.1790 C   0  0  0  0  0  0  0  0  0  0  0  0
  -30.4830  -13.0180   19.2560 C   0  0  0  0  0  2  0  0  0  0  0  0
  -29.5360  -12.7730   18.0520 C   0  0  0  0  0  2  0  0  0  0  0  0
  -28.1000  -12.4870   18.5300 C   0  0  0  0  0  2  0  0  0  0  0  0
  -27.6580  -13.4530   19.6560 C   0  0  0  0  0  3  0  0  0  0  0  0
  -28.7310  -13.6210   20.7500 C   0  0  0  0  0  2  0  0  0  0  0  0
  -29.9270  -14.1550   20.0750 N   0  0  0  0  0  0  0  0  0  0  0  0
  -31.7260  -15.4520   20.0690 O   0  0  0  0  0  0  0  0  0  0  0  0
  -29.7070  -16.7310   20.1760 N   0  0  0  0  0  0  0  0  0  0  0  0
  -28.7540  -16.4830   19.9560 H   0  0  0  0  0  0  0  0  0  0  0  0
  -25.3050  -14.0010   20.4670 C   0  0  0  0  0  0  0  0  0  0  0  0
  -24.2520  -13.2190   20.8450 C   0  0  0  0  0  0  0  0  0  0  0  0
  -24.7200  -11.8700   20.7940 C   0  0  0  0  0  0  0  0  0  0  0  0
  -26.3450  -13.1300   20.1940 N   0  0  0  0  0  0  0  0  0  0  0  0
  -26.0070  -11.8400   20.4620 N   0  0  0  0  0  0  0  0  0  0  0  0
  -23.9980  -10.6050   20.9830 C   0  0  0  0  0  0  0  0  0  0  0  0
  -24.4190   -9.6450   21.9300 C   0  0  0  0  0  3  0  0  0  0  0  0
  -23.6930   -8.4480   22.1080 C   0  0  0  0  0  3  0  0  0  0  0  0
  -22.5310   -8.2000   21.3380 C   0  0  0  0  0  0  0  0  0  0  0  0
  -22.1300   -9.1490   20.3810 C   0  0  0  0  0  3  0  0  0  0  0  0
  -22.8560  -10.3370   20.2010 C   0  0  0  0  0  3  0  0  0  0  0  0
  -21.7780   -7.0540   21.4240 O   0  0  0  0  0  0  0  0  0  0  0  0
  -21.6880   -6.3390   22.5910 C   0  0  0  0  0  0  0  0  0  0  0  0
  -21.1870   -6.9120   23.7790 C   0  0  0  0  0  3  0  0  0  0  0  0
  -21.0450   -6.1210   24.9370 C   0  0  0  0  0  3  0  0  0  0  0  0
  -21.3960   -4.7580   24.9070 C   0  0  0  0  0  0  0  0  0  0  0  0
  -21.8910   -4.1850   23.7230 C   0  0  0  0  0  3  0  0  0  0  0  0
  -22.0330   -4.9720   22.5680 C   0  0  0  0  0  0  0  0  0  0  0  0
  -22.4910   -4.4090   21.4240 F   0  0  0  0  0  0  0  0  0  0  0  0
  -21.2540   -3.9970   26.0170 F   0  0  0  0  0  0  0  0  0  0  0  0
  -22.8570  -13.6910   21.1360 C   0  0  0  0  0  0  0  0  0  0  0  0
  -22.1400  -12.9860   22.0030 N   0  0  0  0  0  0  0  0  0  0  0  0
  -22.4140  -14.7220   20.6300 O   0  0  0  0  0  0  0  0  0  0  0  0
  -22.5120  -12.1530   22.4340 H   0  0  0  0  0  0  0  0  0  0  0  0
  -21.2050  -13.2860   22.2410 H   0  0  0  0  0  0  0  0  0  0  0  0
  -25.4600  -15.3740   20.3020 N   0  0  0  0  0  0  0  0  0  0  0  0
  -24.6920  -16.0210   20.4430 H   0  0  0  0  0  0  0  0  0  0  0  0
  -26.2980  -15.8250   19.9600 H   0  0  0  0  0  0  0  0  0  0  0  0
  -28.4620  -24.3290   20.6230 C   0  0  0  0  0  2  0  0  0  0  0  0
  -28.2520  -25.9390   20.1770 O   0  0  0  0  0  0  0  0  0  0  0  0
  -24.5840  -31.9310   23.1920 C   0  0  0  0  0  0  0  0  0  0  0  0
  -27.1840  -26.9940   20.2590 C   0  0  0  0  0  0  0  0  0  0  0  0
  -23.4160  -30.5160   21.5560 C   0  0  0  0  0  3  0  0  0  0  0  0
  -24.8830  -28.8990   20.1750 C   0  0  0  0  0  0  0  0  0  0  0  0
  -25.9870  -30.7230   21.4400 C   0  0  0  0  0  2  0  0  0  0  0  0
  -26.0660  -29.2990   20.8080 C   0  0  0  0  0  0  0  0  0  0  0  0
  -27.2110  -28.3730   20.8190 C   0  0  0  0  0  3  0  0  0  0  0  0
  -25.9700  -26.7690   19.5680 C   0  0  0  0  0  3  0  0  0  0  0  0
  -24.8610  -27.6520   19.5370 C   0  0  0  0  0  3  0  0  0  0  0  0
  -23.6660  -29.8230   20.1900 C   0  0  0  0  0  2  0  0  0  0  0  0
  -24.6840  -31.0850   22.1160 N   0  0  0  0  0  0  0  0  0  0  0  0
  -23.4860  -32.2220   23.6950 O   0  0  0  0  0  0  0  0  0  0  0  0
  -22.7130  -29.5260   22.5190 C   0  0  0  0  0  0  0  0  0  0  0  0
  -21.3810  -29.3720   22.3960 N   0  0  0  0  0  0  0  0  0  0  0  0
  -23.3730  -28.8940   23.3480 O   0  0  0  0  0  0  0  0  0  0  0  0
  -20.9010  -29.9320   21.7050 H   0  0  0  0  0  0  0  0  0  0  0  0
  -17.9850  -28.2060   22.9280 C   0  0  0  0  0  0  0  0  0  0  0  0
  -20.5510  -28.4400   23.1670 C   0  0  0  0  0  3  0  0  0  0  0  0
  -20.6290  -27.0100   22.5830 C   0  0  0  0  0  2  0  0  0  0  0  0
  -19.5120  -26.7080   21.5780 C   0  0  0  0  0  2  0  0  0  0  0  0
  -18.1390  -26.8620   22.2370 C   0  0  0  0  0  2  0  0  0  0  0  0
  -19.1170  -28.9540   23.3510 C   0  0  0  0  0  0  0  0  0  0  0  0
  -18.9170  -30.2110   23.9620 C   0  0  0  0  0  3  0  0  0  0  0  0
  -17.6180  -30.7200   24.1530 C   0  0  0  0  0  3  0  0  0  0  0  0
  -16.5010  -29.9710   23.7430 C   0  0  0  0  0  3  0  0  0  0  0  0
  -16.6850  -28.7150   23.1370 C   0  0  0  0  0  3  0  0  0  0  0  0
  -25.8430  -32.5870   23.8340 C   0  0  0  0  0  3  0  0  0  0  0  0
  -26.3350  -31.8360   25.1330 C   0  0  1  0  0  0  0  0  0  0  0  0
  -25.2210  -31.6070   26.1820 C   0  0  0  0  0  1  0  0  0  0  0  0
  -26.9350  -30.4550   24.7810 C   0  0  0  0  0  1  0  0  0  0  0  0
  -27.4670  -32.6460   25.8080 C   0  0  0  0  0  1  0  0  0  0  0  0
  -25.5130  -33.9860   24.1550 N   0  0  0  0  0  0  0  0  0  0  0  0
  -25.8590  -35.0470   23.4130 C   0  0  0  0  0  0  0  0  0  0  0  0
  -26.5510  -34.9510   22.3980 O   0  0  0  0  0  0  0  0  0  0  0  0
  -24.8960  -34.1340   24.9410 H   0  0  0  0  0  0  0  0  0  0  0  0
  -24.1470  -36.8550   23.0220 C   0  0  0  0  0  1  0  0  0  0  0  0
  -25.3600  -36.4350   23.8680 C   0  0  0  0  0  3  0  0  0  0  0  0
  -27.4640  -37.3140   24.7820 C   0  0  0  0  0  1  0  0  0  0  0  0
  -26.3980  -37.4880   23.7990 N   0  0  0  0  0  0  0  0  0  0  0  0
  -25.9880  -38.4070   23.9370 H   0  0  0  0  0  0  0  0  0  0  0  0
  1  3  1  0
  2  4  1  0
  2  1  2  0
  3 50  1  0
  4  7  2  0
  5  3  2  0
  5 10  1  0
  6  4  1  0
  7  5  1  0
 10  9  1  6
 10 11  1  0
 10  8  1  0
 13 18  1  0
 14 15  1  0
 14 13  1  0
 16 15  1  0
 16 25  1  0
 16 17  1  0
 18 12  1  0
 18 17  1  0
 19 12  2  0
 20 12  1  0
 20 11  1  0
 21 20  1  0
 22 23  2  0
 23 42  1  0
 24 23  1  0
 24 27  1  0
 25 26  1  0
 25 22  1  0
 26 24  2  0
 27 28  1  0
 28 29  2  0
 30 33  1  0
 30 29  1  0
 31 30  2  0
 32 31  1  0
 32 27  2  0
 33 34  1  0
 34 35  1  0
 35 36  2  0
 37 36  1  0
 37 41  1  0
 38 37  2  0
 39 34  2  0
 39 38  1  0
 40 39  1  0
 42 43  1  0
 43 46  1  0
 43 45  1  0
 44 42  2  0
 47 48  1  0
 47 22  1  0
 49 47  1  0
 51 53  1  0
 51 50  1  0
 52 63  2  0
 53 58  1  0
 54 62  1  0
 54 64  1  0
 55 61  1  0
 55 57  1  0
 56 62  1  0
 57 58  2  0
 57 56  1  0
 59 53  2  0
 60 59  1  0
 60 55  2  0
 61 54  1  0
 62 52  1  0
 64 66  2  0
 65 64  1  0
 67 65  1  0
 68 77  2  0
 68 73  1  0
 69 65  1  0
 69 73  1  0
 70 69  1  0
 71 72  1  0
 71 70  1  0
 72 68  1  0
 73 74  2  0
 74 75  1  0
 76 75  2  0
 77 76  1  0
 78 52  1  0
 78 83  1  0
 78 79  1  0
 79 82  1  1
 79 80  1  0
 81 79  1  0
 83 86  1  0
 84 88  1  0
 84 83  1  0
 85 84  2  0
 88 87  1  0
 90 88  1  0
 90 91  1  0
 90 89  1  0
M  ISO  4  12 100  20 100  50 101  51 101
M  END
>  <TORSDO>  (13) 
F 19

>  <SCORE>  (13) 
-16.490

>  <name>  (13) 
12

>  <ligand_id>  (13) 
12

>  <original_smiles>  (13) 
[H]c1c(C([H])([H])[H])nc(C(C([H])([H])[H])(C([H])([H])[H])C([H])([H])N([H])C(=O)N2C([H])([H])C([H])([H])C([H])([H])C([H])(n3nc(-c4c([H])c([H])c(Oc5c([H])c([H])c(F)c([H])c5F)c([H])c4[H])c(C(=O)N([H])[H])c3N([H])[H])C2([H])[H])c(C([H])([H])Oc2c([H])c([H])c3c(c2[H])C([H])([H])N(C(=O)C([H])(N([H])C(=O)C([H])(N([H])C([H])([H])[H])C([H])([H])[H])C(C([H])([H])[H])(C([H])([H])[H])C([H])([H])[H])C([H])(C(=O)N([H])C2([H])c4c([H])c([H])c([H])c([H])c4C([H])([H])C([H])([H])C2([H])[H])C3([H])[H])c1[H]

>  <smiles>  (13) 
[H]c1c(C([H])([H])[H])nc(C(C([H])([H])[H])(C([H])([H])[H])C([H])([H])N([H])C(=O)N2C([H])([H])C([H])([H])C([H])([H])C([H])(n3nc(-c4c([H])c([H])c(Oc5c([H])c([H])c(F)c([H])c5F)c([H])c4[H])c(C(=O)N([H])[H])c3N([H])[H])C2([H])[H])c(C([H])([H])Oc2c([H])c([H])c3c(c2[H])C([H])([H])N(C(=O)C([H])(N([H])C(=O)C([H])(N([H])C([H])([H])[H])C([H])([H])[H])C(C([H])([H])[H])(C([H])([H])[H])C([H])([H])[H])C([H])(C(=O)N([H])C2([H])c4c([H])c([H])c([H])c([H])c4C([H])([H])C([H])([H])C2([H])[H])C3([H])[H])c1[H]

$$$$
13:0:0
     RDKit          3D

 93101  0  0  1  0  0  0  0  0999 V2000
  -29.4470  -20.5690   22.0480 C   0  0  0  0  0  3  0  0  0  0  0  0
  -29.8990  -19.4060   22.7080 C   0  0  0  0  0  3  0  0  0  0  0  0
  -30.2640  -19.6740   19.9420 C   0  0  0  0  0  3  0  0  0  0  0  0
  -29.6000  -20.7030   20.6490 C   0  0  0  0  0  0  0  0  0  0  0  0
  -30.5160  -18.3610   21.9880 C   0  0  0  0  0  0  0  0  0  0  0  0
  -30.7190  -18.5020   20.5930 C   0  0  0  0  0  0  0  0  0  0  0  0
  -30.9450  -17.1000   22.7220 C   0  0  0  0  0  1  0  0  0  0  0  0
  -29.0410  -21.8980   19.8640 C   0  0  0  0  0  2  0  0  0  0  0  0
  -28.6470  -23.1540   20.6830 C   0  0  0  0  0  2  0  0  0  0  0  0
  -28.3560  -24.4080   19.8210 C   0  0  0  0  0  2  0  0  0  0  0  0
  -28.2440  -25.7040   20.6580 C   0  0  0  0  0  2  0  0  0  0  0  0
  -28.2070  -26.8960   19.8580 O   0  0  0  0  0  0  0  0  0  0  0  0
  -24.5130  -31.9740   23.2270 C   0  0  0  0  0  0  0  0  0  0  0  0
  -27.0420  -27.6220   19.9340 C   0  0  0  0  0  0  0  0  0  0  0  0
  -23.2480  -30.6150   21.5890 C   0  0  0  0  0  3  0  0  0  0  0  0
  -24.6470  -29.1140   20.0750 C   0  0  0  0  0  0  0  0  0  0  0  0
  -25.7610  -30.9890   21.3040 C   0  0  0  0  0  2  0  0  0  0  0  0
  -25.8250  -29.6310   20.6320 C   0  0  0  0  0  0  0  0  0  0  0  0
  -27.0260  -28.8920   20.5530 C   0  0  0  0  0  3  0  0  0  0  0  0
  -25.8480  -27.1110   19.3800 C   0  0  0  0  0  3  0  0  0  0  0  0
  -24.6540  -27.8540   19.4470 C   0  0  0  0  0  3  0  0  0  0  0  0
  -23.4080  -29.9720   20.1840 C   0  0  0  0  0  2  0  0  0  0  0  0
  -24.5280  -31.2090   22.0980 N   0  0  0  0  0  0  0  0  0  0  0  0
  -23.4520  -32.2320   23.8130 O   0  0  0  0  0  0  0  0  0  0  0  0
  -22.6270  -29.5710   22.5450 C   0  0  0  0  0  0  0  0  0  0  0  0
  -21.3130  -29.3310   22.4010 N   0  0  0  0  0  0  0  0  0  0  0  0
  -23.3230  -28.9780   23.3730 O   0  0  0  0  0  0  0  0  0  0  0  0
  -20.8120  -29.8710   21.7110 H   0  0  0  0  0  0  0  0  0  0  0  0
  -18.0100  -27.9060   22.7690 C   0  0  0  0  0  0  0  0  0  0  0  0
  -20.5270  -28.3560   23.1590 C   0  0  0  0  0  3  0  0  0  0  0  0
  -20.7580  -26.9200   22.6320 C   0  0  0  0  0  2  0  0  0  0  0  0
  -19.7340  -26.4900   21.5750 C   0  0  0  0  0  2  0  0  0  0  0  0
  -18.3160  -26.5510   22.1470 C   0  0  0  0  0  2  0  0  0  0  0  0
  -19.0500  -28.7590   23.2280 C   0  0  0  0  0  0  0  0  0  0  0  0
  -18.7130  -30.0200   23.7660 C   0  0  0  0  0  3  0  0  0  0  0  0
  -17.3690  -30.4300   23.8540 C   0  0  0  0  0  3  0  0  0  0  0  0
  -16.3440  -29.5760   23.4110 C   0  0  0  0  0  3  0  0  0  0  0  0
  -16.6660  -28.3160   22.8750 C   0  0  0  0  0  3  0  0  0  0  0  0
  -25.8220  -32.5830   23.8190 C   0  0  0  0  0  3  0  0  0  0  0  0
  -25.5470  -33.9860   24.1500 N   0  0  0  0  0  0  0  0  0  0  0  0
  -25.8860  -35.0310   23.3830 C   0  0  0  0  0  0  0  0  0  0  0  0
  -26.5370  -34.9110   22.3400 O   0  0  0  0  0  0  0  0  0  0  0  0
  -24.9700  -34.1510   24.9620 H   0  0  0  0  0  0  0  0  0  0  0  0
  -24.1840  -36.8540   23.0520 C   0  0  0  0  0  1  0  0  0  0  0  0
  -25.4320  -36.4280   23.8430 C   0  0  0  0  0  3  0  0  0  0  0  0
  -27.5940  -37.2830   24.6340 C   0  0  0  0  0  1  0  0  0  0  0  0
  -26.4800  -37.4640   23.7070 N   0  0  0  0  0  0  0  0  0  0  0  0
  -26.0870  -38.3900   23.8590 H   0  0  0  0  0  0  0  0  0  0  0  0
  -26.3570  -31.8070   25.0840 C   0  0  1  0  0  0  0  0  0  0  0  0
  -25.2770  -31.5770   26.1680 C   0  0  0  0  0  1  0  0  0  0  0  0
  -26.9260  -30.4290   24.6760 C   0  0  0  0  0  1  0  0  0  0  0  0
  -27.5250  -32.5940   25.7230 C   0  0  0  0  0  1  0  0  0  0  0  0
  -31.4520  -17.4250   19.7860 C   0  0  0  0  0  2  0  0  0  0  0  0
  -31.3280  -15.0100   19.6210 C   0  0  0  0  0  0  0  0  0  0  0  0
  -30.9550  -12.6830   18.9630 C   0  0  0  0  0  2  0  0  0  0  0  0
  -29.9670  -12.6360   17.7850 C   0  0  0  0  0  2  0  0  0  0  0  0
  -28.5130  -12.5820   18.2990 C   0  0  0  0  0  2  0  0  0  0  0  0
  -28.2000  -13.5880   19.4430 C   0  0  0  0  0  3  0  0  0  0  0  0
  -29.3350  -13.6750   20.4870 C   0  0  0  0  0  2  0  0  0  0  0  0
  -30.6030  -13.8630   19.7660 N   0  0  0  0  0  0  0  0  0  0  0  0
  -32.5430  -14.9750   19.4250 O   0  0  0  0  0  0  0  0  0  0  0  0
  -30.6820  -16.2020   19.4230 N   0  0  0  0  0  0  0  0  0  0  0  0
  -25.9240  -14.2720   20.4070 C   0  0  0  0  0  0  0  0  0  0  0  0
  -24.8390  -13.5380   20.7950 C   0  0  0  0  0  0  0  0  0  0  0  0
  -25.2130  -12.1710   20.6340 C   0  0  0  0  0  0  0  0  0  0  0  0
  -26.8900  -13.3500   20.0340 N   0  0  0  0  0  0  0  0  0  0  0  0
  -26.4740  -12.0760   20.2340 N   0  0  0  0  0  0  0  0  0  0  0  0
  -24.4240  -10.9440   20.7870 C   0  0  0  0  0  0  0  0  0  0  0  0
  -24.8190   -9.9290   21.6820 C   0  0  0  0  0  3  0  0  0  0  0  0
  -24.0350   -8.7650   21.8320 C   0  0  0  0  0  3  0  0  0  0  0  0
  -22.8420   -8.6130   21.0850 C   0  0  0  0  0  0  0  0  0  0  0  0
  -22.4650   -9.6210   20.1790 C   0  0  0  0  0  3  0  0  0  0  0  0
  -23.2490  -10.7750   20.0280 C   0  0  0  0  0  3  0  0  0  0  0  0
  -22.0280   -7.5100   21.1460 O   0  0  0  0  0  0  0  0  0  0  0  0
  -21.8650   -6.8030   22.3090 C   0  0  0  0  0  0  0  0  0  0  0  0
  -21.3810   -7.4070   23.4900 C   0  0  0  0  0  3  0  0  0  0  0  0
  -21.1620   -6.6250   24.6410 C   0  0  0  0  0  3  0  0  0  0  0  0
  -21.4170   -5.2410   24.6110 C   0  0  0  0  0  0  0  0  0  0  0  0
  -21.8970   -4.6370   23.4340 C   0  0  0  0  0  3  0  0  0  0  0  0
  -22.1170   -5.4170   22.2860 C   0  0  0  0  0  0  0  0  0  0  0  0
  -22.5560   -4.8280   21.1470 F   0  0  0  0  0  0  0  0  0  0  0  0
  -21.1990   -4.4860   25.7150 F   0  0  0  0  0  0  0  0  0  0  0  0
  -23.5000  -14.0800   21.1980 C   0  0  0  0  0  0  0  0  0  0  0  0
  -22.7980  -13.3730   22.0780 N   0  0  0  0  0  0  0  0  0  0  0  0
  -23.0890  -15.1590   20.7740 O   0  0  0  0  0  0  0  0  0  0  0  0
  -23.1490  -12.5000   22.4430 H   0  0  0  0  0  0  0  0  0  0  0  0
  -21.9020  -13.7140   22.3930 H   0  0  0  0  0  0  0  0  0  0  0  0
  -26.1450  -15.6400   20.3250 N   0  0  0  0  0  0  0  0  0  0  0  0
  -25.4260  -16.3060   20.5920 H   0  0  0  0  0  0  0  0  0  0  0  0
  -27.0020  -16.0790   20.0150 H   0  0  0  0  0  0  0  0  0  0  0  0
  -28.4910  -17.0270   18.4940 C   0  0  0  0  0  1  0  0  0  0  0  0
  -30.5790  -17.0480   16.9950 C   0  0  0  0  0  1  0  0  0  0  0  0
  -29.8580  -16.3890   18.1950 C   0  0  0  0  0  3  0  0  0  0  0  0
  1  2  1  0
  3  6  2  0
  3  4  1  0
  4  1  2  0
  5  2  2  0
  5  7  1  0
  6  5  1  0
  8  4  1  0
  8  9  1  0
 10 11  1  0
 10  9  1  0
 12 14  1  0
 12 11  1  0
 13 24  2  0
 14 19  1  0
 15 23  1  0
 15 25  1  0
 16 22  1  0
 16 18  1  0
 17 23  1  0
 18 17  1  0
 19 18  2  0
 20 21  1  0
 20 14  2  0
 21 16  2  0
 22 15  1  0
 23 13  1  0
 25 27  2  0
 26 25  1  0
 28 26  1  0
 29 38  2  0
 29 34  1  0
 30 26  1  0
 30 34  1  0
 31 30  1  0
 32 33  1  0
 32 31  1  0
 33 29  1  0
 34 35  2  0
 35 36  1  0
 37 36  2  0
 38 37  1  0
 39 13  1  0
 39 40  1  0
 39 49  1  0
 40 43  1  0
 41 45  1  0
 41 40  1  0
 42 41  2  0
 45 44  1  0
 47 45  1  0
 47 48  1  0
 47 46  1  0
 49 52  1  1
 49 50  1  0
 51 49  1  0
 53  6  1  0
 54 60  1  0
 55 60  1  0
 56 57  1  0
 56 55  1  0
 58 57  1  0
 58 66  1  0
 58 59  1  0
 60 59  1  0
 61 54  2  0
 62 54  1  0
 62 53  1  0
 63 64  2  0
 64 83  1  0
 65 68  1  0
 65 64  1  0
 66 67  1  0
 66 63  1  0
 67 65  2  0
 68 69  1  0
 69 70  2  0
 71 74  1  0
 71 70  1  0
 72 71  2  0
 73 72  1  0
 73 68  2  0
 74 75  1  0
 75 76  1  0
 76 77  2  0
 78 77  1  0
 78 82  1  0
 79 78  2  0
 80 75  2  0
 80 79  1  0
 81 80  1  0
 83 84  1  0
 84 87  1  0
 84 86  1  0
 85 83  2  0
 88 63  1  0
 88 89  1  0
 90 88  1  0
 92 93  1  0
 93 91  1  0
 93 62  1  0
M  ISO  4  11 101  12 101  54 100  62 100
M  END
>  <TORSDO>  (14) 
F 22

>  <SCORE>  (14) 
-9.561

>  <name>  (14) 
13

>  <ligand_id>  (14) 
13

>  <original_smiles>  (14) 
[H]c1c([H])c([H])c2c(c1[H])C([H])([H])C([H])([H])C([H])([H])C2([H])N([H])C(=O)C1([H])N(C(=O)C([H])(N([H])C(=O)C([H])(N([H])C([H])([H])[H])C([H])([H])[H])C(C([H])([H])[H])(C([H])([H])[H])C([H])([H])[H])C([H])([H])c2c([H])c(OC([H])([H])C([H])([H])C([H])([H])C([H])([H])c3c([H])c([H])c(C([H])([H])[H])c(C([H])([H])N(C(=O)N4C([H])([H])C([H])([H])C([H])([H])C([H])(n5nc(-c6c([H])c([H])c(Oc7c([H])c([H])c(F)c([H])c7F)c([H])c6[H])c(C(=O)N([H])[H])c5N([H])[H])C4([H])[H])C([H])(C([H])([H])[H])C([H])([H])[H])c3[H])c([H])c([H])c2C1([H])[H]

>  <smiles>  (14) 
[H]c1c([H])c([H])c2c(c1[H])C([H])([H])C([H])([H])C([H])([H])C2([H])N([H])C(=O)C1([H])N(C(=O)C([H])(N([H])C(=O)C([H])(N([H])C([H])([H])[H])C([H])([H])[H])C(C([H])([H])[H])(C([H])([H])[H])C([H])([H])[H])C([H])([H])c2c([H])c(OC([H])([H])C([H])([H])C([H])([H])C([H])([H])c3c([H])c([H])c(C([H])([H])[H])c(C([H])([H])N(C(=O)N4C([H])([H])C([H])([H])C([H])([H])C([H])(n5nc(-c6c([H])c([H])c(Oc7c([H])c([H])c(F)c([H])c7F)c([H])c6[H])c(C(=O)N([H])[H])c5N([H])[H])C4([H])[H])C([H])(C([H])([H])[H])C([H])([H])[H])c3[H])c([H])c([H])c2C1([H])[H]

$$$$
14:0:0
     RDKit          3D

 93101  0  0  1  0  0  0  0  0999 V2000
  -29.0070  -20.8600   20.0320 C   0  0  0  0  0  2  0  0  0  0  0  0
  -31.3400  -18.0580   18.9450 C   0  0  0  0  0  3  0  0  0  0  0  0
  -31.5880  -19.0780   18.0090 C   0  0  0  0  0  0  0  0  0  0  0  0
  -30.3470  -18.4280   19.8030 C   0  0  0  0  0  0  0  0  0  0  0  0
  -30.7130  -20.0880   18.2880 C   0  0  0  0  0  0  0  0  0  0  0  0
  -32.6070  -19.0190   16.8980 C   0  0  0  0  0  1  0  0  0  0  0  0
  -30.5040  -21.3000   17.4410 C   0  0  0  0  0  1  0  0  0  0  0  0
  -30.0040  -19.8210   19.4730 N   0  0  0  0  0  0  0  0  0  0  0  0
  -29.8790  -17.4060   20.8920 C   0  0  0  0  0  2  0  0  0  0  0  0
  -30.5490  -14.7920   20.4100 C   0  0  0  0  0  0  0  0  0  0  0  0
  -30.3740  -12.5130   19.3750 C   0  0  0  0  0  2  0  0  0  0  0  0
  -29.4310  -12.5700   18.1530 C   0  0  0  0  0  2  0  0  0  0  0  0
  -27.9590  -12.3960   18.5780 C   0  0  0  0  0  2  0  0  0  0  0  0
  -27.5810  -13.2870   19.7890 C   0  0  0  0  0  3  0  0  0  0  0  0
  -28.6380  -13.1980   20.9110 C   0  0  0  0  0  2  0  0  0  0  0  0
  -29.9320  -13.5620   20.3210 N   0  0  0  0  0  0  0  0  0  0  0  0
  -31.7500  -14.8940   20.1550 O   0  0  0  0  0  0  0  0  0  0  0  0
  -29.7250  -15.8980   20.5950 N   0  0  0  0  0  0  0  0  0  0  0  0
  -28.7630  -15.6080   20.6740 H   0  0  0  0  0  0  0  0  0  0  0  0
  -25.1960  -13.9000   20.5120 C   0  0  0  0  0  0  0  0  0  0  0  0
  -24.1250  -13.1340   20.8830 C   0  0  0  0  0  0  0  0  0  0  0  0
  -24.5800  -11.7790   20.8620 C   0  0  0  0  0  0  0  0  0  0  0  0
  -26.2340  -13.0110   20.2790 N   0  0  0  0  0  0  0  0  0  0  0  0
  -25.8720  -11.7330   20.5560 N   0  0  0  0  0  0  0  0  0  0  0  0
  -23.8460  -10.5220   21.0560 C   0  0  0  0  0  0  0  0  0  0  0  0
  -24.2790   -9.5510   21.9830 C   0  0  0  0  0  3  0  0  0  0  0  0
  -23.5470   -8.3590   22.1650 C   0  0  0  0  0  3  0  0  0  0  0  0
  -22.3650   -8.1300   21.4210 C   0  0  0  0  0  0  0  0  0  0  0  0
  -21.9510   -9.0910   20.4800 C   0  0  0  0  0  3  0  0  0  0  0  0
  -22.6850  -10.2750   20.2970 C   0  0  0  0  0  3  0  0  0  0  0  0
  -21.6020   -6.9910   21.5120 O   0  0  0  0  0  0  0  0  0  0  0  0
  -21.5680   -6.2390   22.6580 C   0  0  0  0  0  0  0  0  0  0  0  0
  -21.1790   -6.7870   23.9000 C   0  0  0  0  0  3  0  0  0  0  0  0
  -21.0910   -5.9610   25.0380 C   0  0  0  0  0  3  0  0  0  0  0  0
  -21.3820   -4.5870   24.9360 C   0  0  0  0  0  0  0  0  0  0  0  0
  -21.7630   -4.0380   23.6990 C   0  0  0  0  0  3  0  0  0  0  0  0
  -21.8540   -4.8610   22.5630 C   0  0  0  0  0  0  0  0  0  0  0  0
  -22.2000   -4.3220   21.3690 F   0  0  0  0  0  0  0  0  0  0  0  0
  -21.2890   -3.7930   26.0280 F   0  0  0  0  0  0  0  0  0  0  0  0
  -22.7290  -13.6200   21.1460 C   0  0  0  0  0  0  0  0  0  0  0  0
  -21.9920  -12.9340   22.0130 N   0  0  0  0  0  0  0  0  0  0  0  0
  -22.3000  -14.6440   20.6160 O   0  0  0  0  0  0  0  0  0  0  0  0
  -22.3510  -12.1080   22.4660 H   0  0  0  0  0  0  0  0  0  0  0  0
  -21.0540  -13.2440   22.2290 H   0  0  0  0  0  0  0  0  0  0  0  0
  -25.3660  -15.2690   20.3260 N   0  0  0  0  0  0  0  0  0  0  0  0
  -24.5930  -15.9190   20.4150 H   0  0  0  0  0  0  0  0  0  0  0  0
  -26.2000  -15.7030   19.9530 H   0  0  0  0  0  0  0  0  0  0  0  0
  -29.4690  -22.2600   20.7660 C   0  0  0  0  0  2  0  0  0  0  0  0
  -30.2670  -24.5190   21.5350 C   0  0  0  0  0  1  0  0  0  0  0  0
  -30.3010  -24.1510   19.1050 C   0  0  0  0  0  1  0  0  0  0  0  0
  -29.4700  -23.8880   20.3670 C   0  0  1  0  0  0  0  0  0  0  0  0
  -28.1490  -24.8490   20.2660 C   0  0  0  0  0  2  0  0  0  0  0  0
  -28.3160  -26.3620   20.2570 O   0  0  0  0  0  0  0  0  0  0  0  0
  -24.5950  -31.8790   23.2370 C   0  0  0  0  0  0  0  0  0  0  0  0
  -27.1990  -27.2380   20.2190 C   0  0  0  0  0  0  0  0  0  0  0  0
  -23.3900  -30.4710   21.6060 C   0  0  0  0  0  3  0  0  0  0  0  0
  -24.8400  -28.8980   20.1930 C   0  0  0  0  0  0  0  0  0  0  0  0
  -25.9350  -30.7690   21.4230 C   0  0  0  0  0  2  0  0  0  0  0  0
  -26.0130  -29.3800   20.7840 C   0  0  0  0  0  0  0  0  0  0  0  0
  -27.1940  -28.5650   20.7810 C   0  0  0  0  0  3  0  0  0  0  0  0
  -25.9950  -26.8230   19.6090 C   0  0  0  0  0  3  0  0  0  0  0  0
  -24.8370  -27.6280   19.5930 C   0  0  0  0  0  3  0  0  0  0  0  0
  -23.6060  -29.7820   20.2320 C   0  0  0  0  0  2  0  0  0  0  0  0
  -24.6590  -31.0590   22.1450 N   0  0  0  0  0  0  0  0  0  0  0  0
  -23.5110  -32.1640   23.7680 O   0  0  0  0  0  0  0  0  0  0  0  0
  -22.7220  -29.4660   22.5760 C   0  0  0  0  0  0  0  0  0  0  0  0
  -21.3940  -29.2930   22.4510 N   0  0  0  0  0  0  0  0  0  0  0  0
  -23.3970  -28.8440   23.4000 O   0  0  0  0  0  0  0  0  0  0  0  0
  -20.9070  -29.8440   21.7600 H   0  0  0  0  0  0  0  0  0  0  0  0
  -18.0160  -28.0980   22.9590 C   0  0  0  0  0  0  0  0  0  0  0  0
  -20.5740  -28.3630   23.2300 C   0  0  0  0  0  3  0  0  0  0  0  0
  -20.6770  -26.9260   22.6670 C   0  0  0  0  0  2  0  0  0  0  0  0
  -19.5760  -26.5930   21.6550 C   0  0  0  0  0  2  0  0  0  0  0  0
  -18.1940  -26.7430   22.2960 C   0  0  0  0  0  2  0  0  0  0  0  0
  -19.1330  -28.8650   23.3850 C   0  0  0  0  0  0  0  0  0  0  0  0
  -18.9110  -30.1320   23.9670 C   0  0  0  0  0  3  0  0  0  0  0  0
  -17.6050  -30.6310   24.1270 C   0  0  0  0  0  3  0  0  0  0  0  0
  -16.5030  -29.8620   23.7190 C   0  0  0  0  0  3  0  0  0  0  0  0
  -16.7080  -28.5970   23.1400 C   0  0  0  0  0  3  0  0  0  0  0  0
  -25.8760  -32.5160   23.8570 C   0  0  0  0  0  3  0  0  0  0  0  0
  -25.5660  -33.9150   24.1840 N   0  0  0  0  0  0  0  0  0  0  0  0
  -25.8960  -34.9680   23.4230 C   0  0  0  0  0  0  0  0  0  0  0  0
  -26.5630  -34.8630   22.3900 O   0  0  0  0  0  0  0  0  0  0  0  0
  -24.9710  -34.0720   24.9840 H   0  0  0  0  0  0  0  0  0  0  0  0
  -24.1680  -36.7630   23.0740 C   0  0  0  0  0  1  0  0  0  0  0  0
  -25.4110  -36.3570   23.8800 C   0  0  0  0  0  3  0  0  0  0  0  0
  -27.5530  -37.2410   24.7000 C   0  0  0  0  0  1  0  0  0  0  0  0
  -26.4450  -37.4090   23.7630 N   0  0  0  0  0  0  0  0  0  0  0  0
  -26.0400  -38.3300   23.9150 H   0  0  0  0  0  0  0  0  0  0  0  0
  -26.3940  -31.7510   25.1370 C   0  0  1  0  0  0  0  0  0  0  0  0
  -25.3000  -31.5250   26.2080 C   0  0  0  0  0  1  0  0  0  0  0  0
  -26.9730  -30.3700   24.7560 C   0  0  0  0  0  1  0  0  0  0  0  0
  -27.5500  -32.5460   25.7920 C   0  0  0  0  0  1  0  0  0  0  0  0
  1 48  1  0
  2  4  2  0
  3  5  2  0
  3  2  1  0
  4  9  1  0
  5  8  1  0
  6  3  1  0
  7  5  1  0
  8  4  1  0
  8  1  1  0
 10 18  1  0
 11 16  1  0
 12 13  1  0
 12 11  1  0
 14 13  1  0
 14 23  1  0
 14 15  1  0
 16 10  1  0
 16 15  1  0
 17 10  2  0
 18 19  1  0
 18  9  1  0
 20 21  2  0
 21 40  1  0
 22 21  1  0
 22 25  1  0
 23 20  1  0
 23 24  1  0
 24 22  2  0
 25 26  1  0
 26 27  2  0
 28 31  1  0
 28 27  1  0
 29 28  2  0
 30 29  1  0
 30 25  2  0
 31 32  1  0
 32 33  1  0
 33 34  2  0
 35 34  1  0
 35 39  1  0
 36 35  2  0
 37 32  2  0
 37 36  1  0
 38 37  1  0
 40 41  1  0
 41 44  1  0
 41 43  1  0
 42 40  2  0
 45 46  1  0
 45 20  1  0
 47 45  1  0
 51 50  1  6
 51 48  1  0
 51 49  1  0
 52 51  1  0
 53 52  1  0
 54 65  2  0
 55 53  1  0
 55 60  1  0
 56 64  1  0
 56 66  1  0
 57 63  1  0
 57 59  1  0
 58 64  1  0
 59 58  1  0
 60 59  2  0
 61 55  2  0
 62 61  1  0
 62 57  2  0
 63 56  1  0
 64 54  1  0
 66 68  2  0
 67 66  1  0
 69 67  1  0
 70 79  2  0
 70 75  1  0
 71 67  1  0
 71 75  1  0
 72 71  1  0
 73 74  1  0
 73 72  1  0
 74 70  1  0
 75 76  2  0
 76 77  1  0
 78 77  2  0
 79 78  1  0
 80 54  1  0
 80 81  1  0
 80 90  1  0
 81 84  1  0
 82 86  1  0
 82 81  1  0
 83 82  2  0
 86 85  1  0
 88 86  1  0
 88 89  1  0
 88 87  1  0
 90 93  1  1
 90 91  1  0
 92 90  1  0
M  ISO  4  10 100  18 100  52 101  53 101
M  END
>  <TORSDO>  (15) 
F 21

>  <SCORE>  (15) 
-13.556

>  <name>  (15) 
14

>  <ligand_id>  (15) 
14

>  <original_smiles>  (15) 
[H]c1c([H])c([H])c2c(c1[H])C([H])([H])C([H])([H])C([H])([H])C2([H])N([H])C(=O)C1([H])N(C(=O)C([H])(N([H])C(=O)C([H])(N([H])C([H])([H])[H])C([H])([H])[H])C(C([H])([H])[H])(C([H])([H])[H])C([H])([H])[H])C([H])([H])c2c([H])c(OC([H])([H])C(C([H])([H])[H])(C([H])([H])[H])C([H])([H])C([H])([H])n3c(C([H])([H])[H])c(C([H])([H])[H])c([H])c3C([H])([H])N([H])C(=O)N3C([H])([H])C([H])([H])C([H])([H])C([H])(n4nc(-c5c([H])c([H])c(Oc6c([H])c([H])c(F)c([H])c6F)c([H])c5[H])c(C(=O)N([H])[H])c4N([H])[H])C3([H])[H])c([H])c([H])c2C1([H])[H]

>  <smiles>  (15) 
[H]c1c([H])c([H])c2c(c1[H])C([H])([H])C([H])([H])C([H])([H])C2([H])N([H])C(=O)C1([H])N(C(=O)C([H])(N([H])C(=O)C([H])(N([H])C([H])([H])[H])C([H])([H])[H])C(C([H])([H])[H])(C([H])([H])[H])C([H])([H])[H])C([H])([H])c2c([H])c(OC([H])([H])C(C([H])([H])[H])(C([H])([H])[H])C([H])([H])C([H])([H])n3c(C([H])([H])[H])c(C([H])([H])[H])c([H])c3C([H])([H])N([H])C(=O)N3C([H])([H])C([H])([H])C([H])([H])C([H])(n4nc(-c5c([H])c([H])c(Oc6c([H])c([H])c(F)c([H])c6F)c([H])c5[H])c(C(=O)N([H])[H])c4N([H])[H])C3([H])[H])c([H])c([H])c2C1([H])[H]

$$$$
15:0:0
     RDKit          3D

 97105  0  0  1  0  0  0  0  0999 V2000
  -29.9620  -19.6830   22.6750 C   0  0  0  0  0  2  0  0  0  0  0  0
  -30.1890  -18.3440   22.2770 C   0  0  0  0  0  0  0  0  0  0  0  0
  -30.0650  -20.5470   21.6170 C   0  0  0  0  0  3  0  0  0  0  0  0
  -30.3990  -18.3700   20.9200 C   0  0  0  0  0  0  0  0  0  0  0  0
  -30.1850  -17.1760   23.2280 C   0  0  0  0  0  1  0  0  0  0  0  0
  -30.1320  -19.7030   20.4830 N   0  0  0  0  0  0  0  0  0  0  0  0
  -30.7030  -22.4800   23.0760 C   0  0  0  0  0  1  0  0  0  0  0  0
  -29.9400  -22.0910   21.7880 C   0  0  0  0  0  3  0  0  0  0  0  0
  -30.3860  -23.1650   20.7120 C   0  0  0  0  0  2  0  0  0  0  0  0
  -29.8780  -24.6250   21.0600 C   0  0  0  0  0  2  0  0  0  0  0  0
  -29.2460  -25.4800   19.9180 C   0  0  0  0  0  2  0  0  0  0  0  0
  -29.0350  -26.8640   20.3160 O   0  0  0  0  0  0  0  0  0  0  0  0
  -24.7270  -31.8190   23.1660 C   0  0  0  0  0  0  0  0  0  0  0  0
  -27.7970  -27.5000   20.2240 C   0  0  0  0  0  0  0  0  0  0  0  0
  -23.6950  -30.3320   21.4780 C   0  0  0  0  0  3  0  0  0  0  0  0
  -25.3030  -28.8810   20.1270 C   0  0  0  0  0  0  0  0  0  0  0  0
  -26.2030  -30.8300   21.3950 C   0  0  0  0  0  2  0  0  0  0  0  0
  -26.3980  -29.4620   20.7710 C   0  0  0  0  0  0  0  0  0  0  0  0
  -27.6410  -28.7810   20.8170 C   0  0  0  0  0  3  0  0  0  0  0  0
  -26.6720  -26.9440   19.5690 C   0  0  0  0  0  3  0  0  0  0  0  0
  -25.4390  -27.6220   19.5200 C   0  0  0  0  0  3  0  0  0  0  0  0
  -24.0100  -29.6570   20.1170 C   0  0  0  0  0  2  0  0  0  0  0  0
  -24.8880  -31.0210   22.0680 N   0  0  0  0  0  0  0  0  0  0  0  0
  -23.6090  -32.0200   23.6620 O   0  0  0  0  0  0  0  0  0  0  0  0
  -23.0670  -29.2810   22.4250 C   0  0  0  0  0  0  0  0  0  0  0  0
  -21.7540  -29.0320   22.2630 N   0  0  0  0  0  0  0  0  0  0  0  0
  -23.7640  -28.6820   23.2500 O   0  0  0  0  0  0  0  0  0  0  0  0
  -21.2460  -29.5800   21.5830 H   0  0  0  0  0  0  0  0  0  0  0  0
  -18.4530  -27.6260   22.6630 C   0  0  0  0  0  0  0  0  0  0  0  0
  -20.9840  -28.0340   23.0050 C   0  0  0  0  0  3  0  0  0  0  0  0
  -21.1870  -26.6160   22.4050 C   0  0  0  0  0  2  0  0  0  0  0  0
  -20.1300  -26.2510   21.3630 C   0  0  0  0  0  2  0  0  0  0  0  0
  -18.7320  -26.3020   21.9750 C   0  0  0  0  0  2  0  0  0  0  0  0
  -19.5130  -28.4440   23.1340 C   0  0  0  0  0  0  0  0  0  0  0  0
  -19.2040  -29.6870   23.7320 C   0  0  0  0  0  3  0  0  0  0  0  0
  -17.8670  -30.1050   23.8670 C   0  0  0  0  0  3  0  0  0  0  0  0
  -16.8240  -29.2860   23.4180 C   0  0  0  0  0  3  0  0  0  0  0  0
  -17.1160  -28.0490   22.8170 C   0  0  0  0  0  3  0  0  0  0  0  0
  -25.9400  -32.5360   23.8300 C   0  0  0  0  0  3  0  0  0  0  0  0
  -25.5410  -33.9270   24.0880 N   0  0  0  0  0  0  0  0  0  0  0  0
  -25.8670  -34.9720   23.3150 C   0  0  0  0  0  0  0  0  0  0  0  0
  -26.6010  -34.8720   22.3260 O   0  0  0  0  0  0  0  0  0  0  0  0
  -24.8890  -34.0720   24.8440 H   0  0  0  0  0  0  0  0  0  0  0  0
  -24.0680  -36.6550   22.8050 C   0  0  0  0  0  1  0  0  0  0  0  0
  -25.2840  -36.3490   23.6950 C   0  0  0  0  0  3  0  0  0  0  0  0
  -27.3230  -37.3770   24.5950 C   0  0  0  0  0  1  0  0  0  0  0  0
  -26.2650  -37.4520   23.5920 N   0  0  0  0  0  0  0  0  0  0  0  0
  -25.8040  -38.3550   23.6840 H   0  0  0  0  0  0  0  0  0  0  0  0
  -26.4260  -31.8410   25.1610 C   0  0  1  0  0  0  0  0  0  0  0  0
  -25.2920  -31.5900   26.1810 C   0  0  0  0  0  1  0  0  0  0  0  0
  -27.0920  -30.4810   24.8540 C   0  0  0  0  0  1  0  0  0  0  0  0
  -27.5010  -32.7190   25.8420 C   0  0  0  0  0  1  0  0  0  0  0  0
  -30.7680  -17.2230   19.9660 C   0  0  0  0  0  2  0  0  0  0  0  0
  -31.7530  -14.8530   20.0060 C   0  0  0  0  0  0  0  0  0  0  0  0
  -31.3840  -12.6960   18.8470 C   0  0  0  0  0  2  0  0  0  0  0  0
  -30.3840  -12.9430   17.6900 C   0  0  0  0  0  2  0  0  0  0  0  0
  -28.9230  -12.8790   18.1740 C   0  0  0  0  0  2  0  0  0  0  0  0
  -28.6950  -13.7050   19.4710 C   0  0  0  0  0  3  0  0  0  0  0  0
  -29.7820  -13.3710   20.5280 C   0  0  0  0  0  2  0  0  0  0  0  0
  -31.0920  -13.6590   19.9210 N   0  0  0  0  0  0  0  0  0  0  0  0
  -32.8600  -15.0380   19.4810 O   0  0  0  0  0  0  0  0  0  0  0  0
  -30.9940  -15.8610   20.5120 N   0  0  0  0  0  0  0  0  0  0  0  0
  -30.1910  -15.5250   21.0250 H   0  0  0  0  0  0  0  0  0  0  0  0
  -26.3980  -14.4900   20.3210 C   0  0  0  0  0  0  0  0  0  0  0  0
  -25.2730  -13.8150   20.6870 C   0  0  0  0  0  0  0  0  0  0  0  0
  -25.5910  -12.4240   20.5530 C   0  0  0  0  0  0  0  0  0  0  0  0
  -27.3410  -13.5310   19.9920 N   0  0  0  0  0  0  0  0  0  0  0  0
  -26.8590  -12.2760   20.1870 N   0  0  0  0  0  0  0  0  0  0  0  0
  -24.7550  -11.2320   20.6950 C   0  0  0  0  0  0  0  0  0  0  0  0
  -25.1260  -10.1710   21.5530 C   0  0  0  0  0  3  0  0  0  0  0  0
  -24.2920   -9.0420   21.6930 C   0  0  0  0  0  3  0  0  0  0  0  0
  -23.0770   -8.9600   20.9770 C   0  0  0  0  0  0  0  0  0  0  0  0
  -22.7230  -10.0070   20.1110 C   0  0  0  0  0  3  0  0  0  0  0  0
  -23.5540  -11.1300   19.9660 C   0  0  0  0  0  3  0  0  0  0  0  0
  -22.2270   -7.8810   21.0330 O   0  0  0  0  0  0  0  0  0  0  0  0
  -22.1000   -7.1170   22.1690 C   0  0  0  0  0  0  0  0  0  0  0  0
  -21.7520   -7.6810   23.4180 C   0  0  0  0  0  3  0  0  0  0  0  0
  -21.5730   -6.8500   24.5430 C   0  0  0  0  0  3  0  0  0  0  0  0
  -21.7340   -5.4570   24.4230 C   0  0  0  0  0  0  0  0  0  0  0  0
  -22.0730   -4.8920   23.1820 C   0  0  0  0  0  3  0  0  0  0  0  0
  -22.2550   -5.7200   22.0590 C   0  0  0  0  0  0  0  0  0  0  0  0
  -22.5670   -5.1690   20.8610 F   0  0  0  0  0  0  0  0  0  0  0  0
  -21.5520   -4.6570   25.4990 F   0  0  0  0  0  0  0  0  0  0  0  0
  -23.9380  -14.4100   21.0410 C   0  0  0  0  0  0  0  0  0  0  0  0
  -23.1740  -13.7520   21.9060 N   0  0  0  0  0  0  0  0  0  0  0  0
  -23.5840  -15.4970   20.5780 O   0  0  0  0  0  0  0  0  0  0  0  0
  -23.4660  -12.8780   22.3230 H   0  0  0  0  0  0  0  0  0  0  0  0
  -22.2780  -14.1320   22.1750 H   0  0  0  0  0  0  0  0  0  0  0  0
  -26.7000  -15.8490   20.2220 N   0  0  0  0  0  0  0  0  0  0  0  0
  -26.0300  -16.5570   20.4930 H   0  0  0  0  0  0  0  0  0  0  0  0
  -27.6220  -16.2190   20.0250 H   0  0  0  0  0  0  0  0  0  0  0  0
  -30.0550  -20.0960   19.0660 C   0  0  0  0  0  2  0  0  0  0  0  0
  -28.9810  -21.1310   18.5940 C   0  0  0  0  0  2  0  0  0  0  0  0
  -26.7340  -22.1120   18.0860 C   0  0  0  0  0  1  0  0  0  0  0  0
  -27.1600  -21.3670   20.3740 C   0  0  0  0  0  1  0  0  0  0  0  0
  -26.8850  -19.6670   18.5450 C   0  0  0  0  0  1  0  0  0  0  0  0
  -27.4660  -21.0360   18.9160 C   0  0  2  0  0  0  0  0  0  0  0  0
  2  1  1  0
  2  5  1  0
  3  8  1  0
  3  1  1  0
  4  2  2  0
  6  4  1  0
  6  3  1  0
  8  7  1  0
  9 10  1  0
  9  8  1  0
 11 12  1  0
 11 10  1  0
 13 24  2  0
 14 12  1  0
 14 19  1  0
 15 23  1  0
 15 25  1  0
 16 18  1  0
 17 23  1  0
 18 19  2  0
 18 17  1  0
 20 14  2  0
 21 20  1  0
 21 16  2  0
 22 16  1  0
 22 15  1  0
 23 13  1  0
 25 27  2  0
 26 25  1  0
 28 26  1  0
 29 38  2  0
 29 34  1  0
 30 26  1  0
 30 34  1  0
 31 30  1  0
 32 33  1  0
 32 31  1  0
 33 29  1  0
 34 35  2  0
 35 36  1  0
 37 36  2  0
 38 37  1  0
 39 13  1  0
 39 40  1  0
 39 49  1  0
 40 43  1  0
 41 45  1  0
 41 40  1  0
 42 41  2  0
 45 44  1  0
 47 48  1  0
 47 45  1  0
 47 46  1  0
 49 52  1  1
 49 50  1  0
 51 49  1  0
 53 62  1  0
 53  4  1  0
 54 62  1  0
 55 60  1  0
 56 57  1  0
 56 55  1  0
 58 57  1  0
 58 67  1  0
 58 59  1  0
 60 54  1  0
 60 59  1  0
 61 54  2  0
 62 63  1  0
 64 65  2  0
 65 84  1  0
 66 65  1  0
 66 69  1  0
 67 68  1  0
 67 64  1  0
 68 66  2  0
 69 70  1  0
 70 71  2  0
 72 75  1  0
 72 71  1  0
 73 72  2  0
 74 73  1  0
 74 69  2  0
 75 76  1  0
 76 77  1  0
 77 78  2  0
 79 78  1  0
 79 83  1  0
 80 79  2  0
 81 76  2  0
 81 80  1  0
 82 81  1  0
 84 85  1  0
 85 88  1  0
 85 87  1  0
 86 84  2  0
 89 64  1  0
 89 90  1  0
 91 89  1  0
 92  6  1  0
 93 97  1  0
 93 92  1  0
 97 94  1  6
 96 97  1  0
 97 95  1  0
M  ISO  4  11 101  12 101  54 100  62 100
M  END
>  <TORSDO>  (16) 
F 24

>  <SCORE>  (16) 
-8.621

>  <name>  (16) 
15

>  <ligand_id>  (16) 
15

>  <original_smiles>  (16) 
[H]c1c([H])c([H])c2c(c1[H])C([H])([H])C([H])([H])C([H])([H])C2([H])N([H])C(=O)C1([H])N(C(=O)C([H])(N([H])C(=O)C([H])(N([H])C([H])([H])[H])C([H])([H])[H])C(C([H])([H])[H])(C([H])([H])[H])C([H])([H])[H])C([H])([H])c2c([H])c(OC([H])([H])C([H])([H])C([H])([H])C([H])(c3c([H])c(C([H])([H])[H])c(C([H])([H])N([H])C(=O)N4C([H])([H])C([H])([H])C([H])([H])C([H])(n5nc(-c6c([H])c([H])c(Oc7c([H])c([H])c(F)c([H])c7F)c([H])c6[H])c(C(=O)N([H])[H])c5N([H])[H])C4([H])[H])n3C([H])([H])C([H])([H])C(C([H])([H])[H])(C([H])([H])[H])C([H])([H])[H])C([H])([H])[H])c([H])c([H])c2C1([H])[H]

>  <smiles>  (16) 
[H]c1c([H])c([H])c2c(c1[H])C([H])([H])C([H])([H])C([H])([H])C2([H])N([H])C(=O)C1([H])N(C(=O)C([H])(N([H])C(=O)C([H])(N([H])C([H])([H])[H])C([H])([H])[H])C(C([H])([H])[H])(C([H])([H])[H])C([H])([H])[H])C([H])([H])c2c([H])c(OC([H])([H])C([H])([H])C([H])([H])C([H])(c3c([H])c(C([H])([H])[H])c(C([H])([H])N([H])C(=O)N4C([H])([H])C([H])([H])C([H])([H])C([H])(n5nc(-c6c([H])c([H])c(Oc7c([H])c([H])c(F)c([H])c7F)c([H])c6[H])c(C(=O)N([H])[H])c5N([H])[H])C4([H])[H])n3C([H])([H])C([H])([H])C(C([H])([H])[H])(C([H])([H])[H])C([H])([H])[H])C([H])([H])[H])c([H])c([H])c2C1([H])[H]

$$$$
16:0:0
     RDKit          3D

 93101  0  0  1  0  0  0  0  0999 V2000
  -29.7340  -21.4820   20.0670 C   0  0  0  0  0  3  0  0  0  0  0  0
  -29.5640  -20.2040   20.5650 C   0  0  0  0  0  0  0  0  0  0  0  0
  -29.5790  -21.6480   22.2710 C   0  0  0  0  0  3  0  0  0  0  0  0
  -29.5560  -22.1590   23.6780 C   0  0  0  0  0  1  0  0  0  0  0  0
  -29.7300  -22.3550   21.1350 N   0  0  0  0  0  0  0  0  0  0  0  0
  -29.4700  -20.3610   21.9230 N   0  0  0  0  0  0  0  0  0  0  0  0
  -29.3300  -19.6070   22.5870 H   0  0  0  0  0  0  0  0  0  0  0  0
  -29.4560  -18.8510   19.9020 C   0  0  0  0  0  2  0  0  0  0  0  0
  -30.7420  -17.9880   19.9800 C   0  0  0  0  0  2  0  0  0  0  0  0
  -30.8520  -16.9560   21.1360 C   0  0  0  0  0  2  0  0  0  0  0  0
  -31.0130  -14.5950   20.2590 C   0  0  0  0  0  0  0  0  0  0  0  0
  -30.7070  -12.3990   19.1730 C   0  0  0  0  0  2  0  0  0  0  0  0
  -29.7480  -12.5440   17.9730 C   0  0  0  0  0  2  0  0  0  0  0  0
  -28.2780  -12.4270   18.4240 C   0  0  0  0  0  2  0  0  0  0  0  0
  -27.9550  -13.3190   19.6520 C   0  0  0  0  0  3  0  0  0  0  0  0
  -29.0180  -13.1330   20.7570 C   0  0  0  0  0  2  0  0  0  0  0  0
  -30.3360  -13.4190   20.1650 N   0  0  0  0  0  0  0  0  0  0  0  0
  -32.1290  -14.7700   19.7630 O   0  0  0  0  0  0  0  0  0  0  0  0
  -30.3390  -15.6070   20.8380 N   0  0  0  0  0  0  0  0  0  0  0  0
  -29.4180  -15.3800   21.1830 H   0  0  0  0  0  0  0  0  0  0  0  0
  -25.5830  -13.9730   20.4070 C   0  0  0  0  0  0  0  0  0  0  0  0
  -24.5050  -13.2220   20.7910 C   0  0  0  0  0  0  0  0  0  0  0  0
  -24.9370  -11.8610   20.7430 C   0  0  0  0  0  0  0  0  0  0  0  0
  -26.6040  -13.0720   20.1530 N   0  0  0  0  0  0  0  0  0  0  0  0
  -26.2200  -11.7960   20.4110 N   0  0  0  0  0  0  0  0  0  0  0  0
  -24.1870  -10.6130   20.9360 C   0  0  0  0  0  0  0  0  0  0  0  0
  -24.5780   -9.6610   21.9040 C   0  0  0  0  0  3  0  0  0  0  0  0
  -23.8310   -8.4760   22.0840 C   0  0  0  0  0  3  0  0  0  0  0  0
  -22.6800   -8.2370   21.2970 C   0  0  0  0  0  0  0  0  0  0  0  0
  -22.3090   -9.1770   20.3190 C   0  0  0  0  0  3  0  0  0  0  0  0
  -23.0570  -10.3520   20.1370 C   0  0  0  0  0  3  0  0  0  0  0  0
  -21.9080   -7.1030   21.3850 O   0  0  0  0  0  0  0  0  0  0  0  0
  -21.7690   -6.4160   22.5640 C   0  0  0  0  0  0  0  0  0  0  0  0
  -21.2430   -7.0260   23.7240 C   0  0  0  0  0  3  0  0  0  0  0  0
  -21.0530   -6.2650   24.8940 C   0  0  0  0  0  3  0  0  0  0  0  0
  -21.3780   -4.8950   24.9050 C   0  0  0  0  0  0  0  0  0  0  0  0
  -21.8980   -4.2860   23.7490 C   0  0  0  0  0  3  0  0  0  0  0  0
  -22.0890   -5.0440   22.5810 C   0  0  0  0  0  0  0  0  0  0  0  0
  -22.5700   -4.4470   21.4640 F   0  0  0  0  0  0  0  0  0  0  0  0
  -21.1890   -4.1620   26.0270 F   0  0  0  0  0  0  0  0  0  0  0  0
  -23.1230  -13.7270   21.0910 C   0  0  0  0  0  0  0  0  0  0  0  0
  -22.3960  -13.0390   21.9650 N   0  0  0  0  0  0  0  0  0  0  0  0
  -22.6980  -14.7640   20.5850 O   0  0  0  0  0  0  0  0  0  0  0  0
  -22.7540  -12.2000   22.3960 H   0  0  0  0  0  0  0  0  0  0  0  0
  -21.4690  -13.3590   22.2070 H   0  0  0  0  0  0  0  0  0  0  0  0
  -25.7750  -15.3410   20.2340 N   0  0  0  0  0  0  0  0  0  0  0  0
  -25.0210  -16.0090   20.3460 H   0  0  0  0  0  0  0  0  0  0  0  0
  -26.6200  -15.7560   19.8640 H   0  0  0  0  0  0  0  0  0  0  0  0
  -29.9710  -23.8240   21.1450 C   0  0  0  0  0  2  0  0  0  0  0  0
  -29.3730  -24.6640   19.9810 C   0  0  0  0  0  2  0  0  0  0  0  0
  -30.6620  -26.7870   20.7080 C   0  0  0  0  0  1  0  0  0  0  0  0
  -29.3050  -26.1880   20.3110 C   0  0  0  0  0  3  0  0  0  0  0  0
  -28.8530  -26.9680   19.1940 O   0  0  0  0  0  0  0  0  0  0  0  0
  -24.7170  -31.3270   23.0730 C   0  0  0  0  0  0  0  0  0  0  0  0
  -27.6360  -27.5860   19.3720 C   0  0  0  0  0  0  0  0  0  0  0  0
  -23.5750  -29.9910   21.3300 C   0  0  0  0  0  3  0  0  0  0  0  0
  -25.1020  -28.7960   19.6710 C   0  0  0  0  0  0  0  0  0  0  0  0
  -26.0320  -30.6530   21.0640 C   0  0  0  0  0  2  0  0  0  0  0  0
  -26.2290  -29.3800   20.2650 C   0  0  0  0  0  0  0  0  0  0  0  0
  -27.5030  -28.7820   20.1160 C   0  0  0  0  0  3  0  0  0  0  0  0
  -26.4960  -27.0130   18.7780 C   0  0  0  0  0  3  0  0  0  0  0  0
  -25.2290  -27.6100   18.9260 C   0  0  0  0  0  3  0  0  0  0  0  0
  -23.7770  -29.4980   19.8720 C   0  0  0  0  0  2  0  0  0  0  0  0
  -24.7940  -30.6680   21.8820 N   0  0  0  0  0  0  0  0  0  0  0  0
  -23.6470  -31.4120   23.6900 O   0  0  0  0  0  0  0  0  0  0  0  0
  -23.0930  -28.8020   22.1920 C   0  0  0  0  0  0  0  0  0  0  0  0
  -21.8210  -28.4090   22.0120 N   0  0  0  0  0  0  0  0  0  0  0  0
  -23.8610  -28.2380   22.9760 O   0  0  0  0  0  0  0  0  0  0  0  0
  -21.2560  -28.9260   21.3550 H   0  0  0  0  0  0  0  0  0  0  0  0
  -18.7370  -26.5360   22.2110 C   0  0  0  0  0  0  0  0  0  0  0  0
  -21.1640  -27.2890   22.6850 C   0  0  0  0  0  3  0  0  0  0  0  0
  -21.5960  -25.9390   22.0670 C   0  0  0  0  0  2  0  0  0  0  0  0
  -20.6540  -25.4540   20.9610 C   0  0  0  0  0  2  0  0  0  0  0  0
  -19.2310  -25.2850   21.5030 C   0  0  0  0  0  2  0  0  0  0  0  0
  -19.6450  -27.4840   22.7530 C   0  0  0  0  0  0  0  0  0  0  0  0
  -19.1360  -28.6470   23.3700 C   0  0  0  0  0  3  0  0  0  0  0  0
  -17.7490  -28.8680   23.4540 C   0  0  0  0  0  3  0  0  0  0  0  0
  -16.8530  -27.9180   22.9310 C   0  0  0  0  0  3  0  0  0  0  0  0
  -17.3480  -26.7550   22.3150 C   0  0  0  0  0  3  0  0  0  0  0  0
  -25.9630  -32.0250   23.7030 C   0  0  0  0  0  3  0  0  0  0  0  0
  -25.5400  -33.3520   24.1670 N   0  0  0  0  0  0  0  0  0  0  0  0
  -25.7730  -34.4970   23.5120 C   0  0  0  0  0  0  0  0  0  0  0  0
  -26.4420  -34.5510   22.4750 O   0  0  0  0  0  0  0  0  0  0  0  0
  -24.9450  -33.3780   24.9830 H   0  0  0  0  0  0  0  0  0  0  0  0
  -23.8950  -36.1560   23.3280 C   0  0  0  0  0  1  0  0  0  0  0  0
  -25.1710  -35.7880   24.0990 C   0  0  0  0  0  3  0  0  0  0  0  0
  -27.2240  -36.7730   25.0170 C   0  0  0  0  0  1  0  0  0  0  0  0
  -26.1080  -36.9310   24.0890 N   0  0  0  0  0  0  0  0  0  0  0  0
  -25.6240  -37.7940   24.3210 H   0  0  0  0  0  0  0  0  0  0  0  0
  -26.6050  -31.2010   24.8860 C   0  0  1  0  0  0  0  0  0  0  0  0
  -25.5880  -30.7730   25.9690 C   0  0  0  0  0  1  0  0  0  0  0  0
  -27.2930  -29.9240   24.3480 C   0  0  0  0  0  1  0  0  0  0  0  0
  -27.7070  -32.0420   25.5730 C   0  0  0  0  0  1  0  0  0  0  0  0
  1  2  2  0
  1  5  1  0
  2  6  1  0
  3  4  1  0
  5 49  1  0
  5  3  1  0
  6  3  1  0
  6  7  1  0
  8  9  1  0
  8  2  1  0
  9 10  1  0
 11 19  1  0
 12 17  1  0
 13 14  1  0
 13 12  1  0
 15 14  1  0
 15 24  1  0
 15 16  1  0
 17 11  1  0
 17 16  1  0
 18 11  2  0
 19 10  1  0
 19 20  1  0
 21 22  2  0
 22 41  1  0
 23 22  1  0
 23 26  1  0
 24 21  1  0
 24 25  1  0
 25 23  2  0
 26 27  1  0
 27 28  2  0
 29 32  1  0
 29 28  1  0
 30 29  2  0
 31 30  1  0
 31 26  2  0
 32 33  1  0
 33 38  2  0
 33 34  1  0
 34 35  2  0
 35 36  1  0
 36 40  1  0
 37 36  2  0
 38 37  1  0
 39 38  1  0
 41 42  1  0
 42 45  1  0
 42 44  1  0
 43 41  2  0
 46 47  1  0
 46 21  1  0
 48 46  1  0
 50 52  1  0
 50 49  1  0
 52 51  1  0
 53 55  1  0
 53 52  1  0
 54 65  2  0
 55 60  1  0
 56 64  1  0
 56 66  1  0
 57 63  1  0
 57 59  1  0
 58 64  1  0
 59 58  1  0
 60 59  2  0
 61 62  1  0
 61 55  2  0
 62 57  2  0
 63 56  1  0
 64 54  1  0
 66 68  2  0
 67 66  1  0
 69 67  1  0
 70 79  2  0
 70 75  1  0
 71 67  1  0
 71 75  1  0
 72 71  1  0
 73 74  1  0
 73 72  1  0
 74 70  1  0
 75 76  2  0
 76 77  1  0
 78 77  2  0
 79 78  1  0
 80 54  1  0
 80 81  1  0
 80 90  1  0
 81 84  1  0
 82 86  1  0
 82 81  1  0
 83 82  2  0
 86 85  1  0
 88 86  1  0
 88 89  1  0
 88 87  1  0
 90 93  1  1
 90 91  1  0
 92 90  1  0
M  ISO  4  11 100  19 100  52 101  53 101
M  END
>  <TORSDO>  (17) 
F 22

>  <SCORE>  (17) 
-11.281

>  <name>  (17) 
16

>  <ligand_id>  (17) 
16

>  <original_smiles>  (17) 
[H]c1c([H])c([H])c2c(c1[H])C([H])([H])C([H])([H])C([H])([H])C2([H])N([H])C(=O)C1([H])N(C(=O)C([H])(N([H])C(=O)C([H])(N([H])C([H])([H])[H])C([H])([H])[H])C(C([H])([H])[H])(C([H])([H])[H])C([H])([H])[H])C([H])([H])c2c([H])c(OC([H])(C([H])([H])[H])C([H])([H])C([H])([H])n3c([H])c(C([H])([H])C([H])([H])C([H])([H])N([H])C(=O)N4C([H])([H])C([H])([H])C([H])([H])C([H])(n5nc(-c6c([H])c([H])c(Oc7c([H])c([H])c(F)c([H])c7F)c([H])c6[H])c(C(=O)N([H])[H])c5N([H])[H])C4([H])[H])[n+]([H])c3C([H])([H])[H])c([H])c([H])c2C1([H])[H]

>  <smiles>  (17) 
[H]c1c([H])c([H])c2c(c1[H])C([H])([H])C([H])([H])C([H])([H])C2([H])N([H])C(=O)C1([H])N(C(=O)C([H])(N([H])C(=O)C([H])(N([H])C([H])([H])[H])C([H])([H])[H])C(C([H])([H])[H])(C([H])([H])[H])C([H])([H])[H])C([H])([H])c2c([H])c(OC([H])(C([H])([H])[H])C([H])([H])C([H])([H])n3c([H])c(C([H])([H])C([H])([H])C([H])([H])N([H])C(=O)N4C([H])([H])C([H])([H])C([H])([H])C([H])(n5nc(-c6c([H])c([H])c(Oc7c([H])c([H])c(F)c([H])c7F)c([H])c6[H])c(C(=O)N([H])[H])c5N([H])[H])C4([H])[H])[n+]([H])c3C([H])([H])[H])c([H])c([H])c2C1([H])[H]

$$$$
17:0:0
     RDKit          3D

 92100  0  0  1  0  0  0  0  0999 V2000
  -28.2900  -22.4370   20.0880 C   0  0  0  0  0  3  0  0  0  0  0  0
  -29.6230  -22.0330   19.8400 C   0  0  0  0  0  0  0  0  0  0  0  0
  -27.2670  -21.4830   20.1470 C   0  0  0  0  0  0  0  0  0  0  0  0
  -29.8140  -20.5720   19.6470 C   0  0  0  0  0  0  0  0  0  0  0  0
  -25.8360  -21.8970   20.4160 C   0  0  0  0  0  1  0  0  0  0  0  0
  -27.4970  -20.1690   19.9710 N   0  0  0  0  0  0  0  0  0  0  0  0
  -28.7340  -19.7460   19.7130 N   0  0  0  0  0  0  0  0  0  0  0  0
  -32.1810  -20.5440   18.6120 C   0  0  0  0  0  1  0  0  0  0  0  0
  -31.0460  -19.6760   19.1750 C   0  0  0  0  0  3  0  0  0  0  0  0
  -31.6540  -18.5540   20.2050 C   0  0  0  0  0  2  0  0  0  0  0  0
  -32.0340  -15.9210   20.2260 C   0  0  0  0  0  0  0  0  0  0  0  0
  -31.9080  -13.5160   19.5490 C   0  0  0  0  0  2  0  0  0  0  0  0
  -31.0570  -13.3830   18.2670 C   0  0  0  0  0  2  0  0  0  0  0  0
  -29.5630  -13.2590   18.6170 C   0  0  0  0  0  2  0  0  0  0  0  0
  -29.1000  -14.3180   19.6530 C   0  0  0  0  0  3  0  0  0  0  0  0
  -30.0770  -14.4210   20.8440 C   0  0  0  0  0  2  0  0  0  0  0  0
  -31.4080  -14.6970   20.2890 N   0  0  0  0  0  0  0  0  0  0  0  0
  -33.2510  -15.9780   20.0290 O   0  0  0  0  0  0  0  0  0  0  0  0
  -31.2520  -17.0690   20.1830 N   0  0  0  0  0  0  0  0  0  0  0  0
  -30.2600  -16.9010   20.2550 H   0  0  0  0  0  0  0  0  0  0  0  0
  -26.7120  -15.0160   20.2750 C   0  0  0  0  0  0  0  0  0  0  0  0
  -25.5970  -14.2900   20.5930 C   0  0  0  0  0  0  0  0  0  0  0  0
  -26.0010  -12.9210   20.5830 C   0  0  0  0  0  0  0  0  0  0  0  0
  -27.7250  -14.0920   20.0880 N   0  0  0  0  0  0  0  0  0  0  0  0
  -27.3020  -12.8250   20.3380 N   0  0  0  0  0  0  0  0  0  0  0  0
  -25.2100  -11.6920   20.7340 C   0  0  0  0  0  0  0  0  0  0  0  0
  -25.4690  -10.7690   21.7710 C   0  0  0  0  0  3  0  0  0  0  0  0
  -24.6820   -9.6050   21.9060 C   0  0  0  0  0  3  0  0  0  0  0  0
  -23.6210   -9.3570   21.0030 C   0  0  0  0  0  0  0  0  0  0  0  0
  -23.3820  -10.2670   19.9600 C   0  0  0  0  0  3  0  0  0  0  0  0
  -24.1710  -11.4220   19.8220 C   0  0  0  0  0  3  0  0  0  0  0  0
  -22.8190   -8.2420   21.0440 O   0  0  0  0  0  0  0  0  0  0  0  0
  -22.4520   -7.6620   22.2310 C   0  0  0  0  0  0  0  0  0  0  0  0
  -21.7240   -8.3690   23.2140 C   0  0  0  0  0  3  0  0  0  0  0  0
  -21.3070   -7.7140   24.3890 C   0  0  0  0  0  3  0  0  0  0  0  0
  -21.6080   -6.3520   24.5820 C   0  0  0  0  0  0  0  0  0  0  0  0
  -22.3280   -5.6450   23.6030 C   0  0  0  0  0  3  0  0  0  0  0  0
  -22.7450   -6.2970   22.4300 C   0  0  0  0  0  0  0  0  0  0  0  0
  -23.4200   -5.6060   21.4800 F   0  0  0  0  0  0  0  0  0  0  0  0
  -21.2010   -5.7200   25.7070 F   0  0  0  0  0  0  0  0  0  0  0  0
  -24.2100  -14.8300   20.7980 C   0  0  0  0  0  0  0  0  0  0  0  0
  -23.4180  -14.1770   21.6400 N   0  0  0  0  0  0  0  0  0  0  0  0
  -23.8410  -15.8650   20.2450 O   0  0  0  0  0  0  0  0  0  0  0  0
  -23.7310  -13.3400   22.1070 H   0  0  0  0  0  0  0  0  0  0  0  0
  -22.4850  -14.5200   21.8210 H   0  0  0  0  0  0  0  0  0  0  0  0
  -26.9430  -16.3780   20.1060 N   0  0  0  0  0  0  0  0  0  0  0  0
  -26.2020  -17.0650   20.1940 H   0  0  0  0  0  0  0  0  0  0  0  0
  -27.8230  -16.7890   19.8240 H   0  0  0  0  0  0  0  0  0  0  0  0
  -30.6270  -23.2550   19.7650 C   0  0  0  0  0  2  0  0  0  0  0  0
  -30.2920  -24.6760   20.5000 C   0  0  0  0  0  3  0  0  0  0  0  0
  -29.4250  -25.8570   19.8320 C   0  0  0  0  0  3  0  0  0  0  0  0
  -29.3990  -27.2340   20.4370 O   0  0  0  0  0  0  0  0  0  0  0  0
  -24.9890  -31.9720   23.7390 C   0  0  0  0  0  0  0  0  0  0  0  0
  -28.2160  -28.0090   20.3910 C   0  0  0  0  0  0  0  0  0  0  0  0
  -24.0300  -30.6480   21.8930 C   0  0  0  0  0  3  0  0  0  0  0  0
  -25.7050  -29.4090   20.4070 C   0  0  0  0  0  0  0  0  0  0  0  0
  -26.5320  -31.2140   21.9120 C   0  0  0  0  0  2  0  0  0  0  0  0
  -26.7870  -29.9260   21.1300 C   0  0  0  0  0  0  0  0  0  0  0  0
  -28.0420  -29.2360   21.1180 C   0  0  0  0  0  3  0  0  0  0  0  0
  -27.1070  -27.5710   19.6330 C   0  0  0  0  0  3  0  0  0  0  0  0
  -25.8680  -28.2400   19.6500 C   0  0  0  0  0  3  0  0  0  0  0  0
  -24.3870  -30.1560   20.4670 C   0  0  0  0  0  2  0  0  0  0  0  0
  -25.1980  -31.2920   22.5740 N   0  0  0  0  0  0  0  0  0  0  0  0
  -23.8550  -32.0860   24.2270 O   0  0  0  0  0  0  0  0  0  0  0  0
  -23.4240  -29.4730   22.6970 C   0  0  0  0  0  0  0  0  0  0  0  0
  -22.1510  -29.1410   22.4180 N   0  0  0  0  0  0  0  0  0  0  0  0
  -24.0990  -28.8680   23.5340 O   0  0  0  0  0  0  0  0  0  0  0  0
  -21.6570  -29.6940   21.7300 H   0  0  0  0  0  0  0  0  0  0  0  0
  -18.9390  -27.4730   22.4580 C   0  0  0  0  0  0  0  0  0  0  0  0
  -21.3970  -28.0430   23.0260 C   0  0  0  0  0  3  0  0  0  0  0  0
  -21.7530  -26.6900   22.3690 C   0  0  0  0  0  2  0  0  0  0  0  0
  -20.8150  -26.3120   21.2190 C   0  0  0  0  0  2  0  0  0  0  0  0
  -19.3680  -26.2200   21.7140 C   0  0  0  0  0  2  0  0  0  0  0  0
  -19.8920  -28.3370   23.0600 C   0  0  0  0  0  0  0  0  0  0  0  0
  -19.4420  -29.5060   23.7110 C   0  0  0  0  0  3  0  0  0  0  0  0
  -18.0700  -29.8160   23.7670 C   0  0  0  0  0  3  0  0  0  0  0  0
  -17.1300  -28.9500   23.1830 C   0  0  0  0  0  3  0  0  0  0  0  0
  -17.5640  -27.7800   22.5340 C   0  0  0  0  0  3  0  0  0  0  0  0
  -26.1630  -32.6590   24.5030 C   0  0  0  0  0  3  0  0  0  0  0  0
  -25.7740  -34.0530   24.7560 N   0  0  0  0  0  0  0  0  0  0  0  0
  -26.1680  -35.0990   24.0170 C   0  0  0  0  0  0  0  0  0  0  0  0
  -26.9660  -34.9940   23.0820 O   0  0  0  0  0  0  0  0  0  0  0  0
  -25.0760  -34.2030   25.4680 H   0  0  0  0  0  0  0  0  0  0  0  0
  -24.4490  -36.8340   23.4020 C   0  0  0  0  0  1  0  0  0  0  0  0
  -25.5870  -36.4820   24.3740 C   0  0  0  0  0  3  0  0  0  0  0  0
  -27.5740  -37.4510   25.4500 C   0  0  0  0  0  1  0  0  0  0  0  0
  -26.5980  -37.5640   24.3690 N   0  0  0  0  0  0  0  0  0  0  0  0
  -26.1490  -38.4740   24.4400 H   0  0  0  0  0  0  0  0  0  0  0  0
  -26.5320  -31.9300   25.8550 C   0  0  1  0  0  0  0  0  0  0  0  0
  -25.3100  -31.6530   26.7640 C   0  0  0  0  0  1  0  0  0  0  0  0
  -27.2290  -30.5770   25.5810 C   0  0  0  0  0  1  0  0  0  0  0  0
  -27.5380  -32.7920   26.6530 C   0  0  0  0  0  1  0  0  0  0  0  0
  1  3  1  0
  2  1  2  0
  3  5  1  0
  4  7  2  0
  4  2  1  0
  6  3  2  0
  7  6  1  0
  9  8  1  0
  9  4  1  0
  9 10  1  0
 11 17  1  0
 12 17  1  0
 13 14  1  0
 13 12  1  0
 15 14  1  0
 15 24  1  0
 15 16  1  0
 17 16  1  0
 18 11  2  0
 19 10  1  0
 19 11  1  0
 19 20  1  0
 21 22  2  0
 22 41  1  0
 23 22  1  0
 23 26  1  0
 24 21  1  0
 24 25  1  0
 25 23  2  0
 26 27  1  0
 27 28  2  0
 29 32  1  0
 29 28  1  0
 30 29  2  0
 31 30  1  0
 31 26  2  0
 32 33  1  0
 33 38  2  0
 33 34  1  0
 34 35  2  0
 35 36  1  0
 36 40  1  0
 37 36  2  0
 38 37  1  0
 39 38  1  0
 41 42  1  0
 42 45  1  0
 42 44  1  0
 43 41  2  0
 46 47  1  0
 46 21  1  0
 48 46  1  0
 49  2  1  0
 49 50  1  0
 51 52  1  0
 51 50  2  0
 53 64  2  0
 54 52  1  0
 54 59  1  0
 55 63  1  0
 55 65  1  0
 56 62  1  0
 56 58  1  0
 57 63  1  0
 58 57  1  0
 59 58  2  0
 60 61  1  0
 60 54  2  0
 61 56  2  0
 62 55  1  0
 63 53  1  0
 65 67  2  0
 66 65  1  0
 68 66  1  0
 69 78  2  0
 69 74  1  0
 70 66  1  0
 70 74  1  0
 71 70  1  0
 72 73  1  0
 72 71  1  0
 73 69  1  0
 74 75  2  0
 75 76  1  0
 77 76  2  0
 78 77  1  0
 79 53  1  0
 79 80  1  0
 79 89  1  0
 80 83  1  0
 81 85  1  0
 81 80  1  0
 82 81  2  0
 85 84  1  0
 87 85  1  0
 87 88  1  0
 87 86  1  0
 89 92  1  1
 89 90  1  0
 91 89  1  0
M  ISO  4  11 100  19 100  51 101  52 101
M  END
>  <TORSDO>  (18) 
F 21

>  <SCORE>  (18) 
-7.799

>  <name>  (18) 
17

>  <ligand_id>  (18) 
17

>  <original_smiles>  (18) 
[H]c1c([H])c([H])c2c(c1[H])C([H])([H])C([H])([H])C([H])([H])C2([H])N([H])C(=O)C1([H])N(C(=O)C([H])(N([H])C(=O)C([H])(N([H])C([H])([H])[H])C([H])([H])[H])C(C([H])([H])[H])(C([H])([H])[H])C([H])([H])[H])C([H])([H])c2c([H])c(OC([H])([H])C([H])([H])C([H])([H])c3c(C([H])(C([H])([H])[H])C([H])([H])N([H])C(=O)N4C([H])([H])C([H])([H])C([H])([H])C([H])(n5nc(-c6c([H])c([H])c(Oc7c([H])c([H])c(F)c([H])c7F)c([H])c6[H])c(C(=O)N([H])[H])c5N([H])[H])C4([H])[H])nnc(C([H])([H])[H])c3[H])c([H])c([H])c2C1([H])[H]

>  <smiles>  (18) 
[H]c1c([H])c([H])c2c(c1[H])C([H])([H])C([H])([H])C([H])([H])C2([H])N([H])C(=O)C1([H])N(C(=O)C([H])(N([H])C(=O)C([H])(N([H])C([H])([H])[H])C([H])([H])[H])C(C([H])([H])[H])(C([H])([H])[H])C([H])([H])[H])C([H])([H])c2c([H])c(OC([H])([H])C([H])([H])C([H])([H])c3c(C([H])(C([H])([H])[H])C([H])([H])N([H])C(=O)N4C([H])([H])C([H])([H])C([H])([H])C([H])(n5nc(-c6c([H])c([H])c(Oc7c([H])c([H])c(F)c([H])c7F)c([H])c6[H])c(C(=O)N([H])[H])c5N([H])[H])C4([H])[H])nnc(C([H])([H])[H])c3[H])c([H])c([H])c2C1([H])[H]

$$$$
18:0:0
     RDKit          3D

 94102  0  0  1  0  0  0  0  0999 V2000
  -27.2150  -20.0830   19.7520 C   0  0  0  0  0  3  0  0  0  0  0  0
  -28.4840  -19.7870   20.2990 C   0  0  0  0  0  0  0  0  0  0  0  0
  -28.8620  -18.3960   20.3120 C   0  0  0  0  0  0  0  0  0  0  0  0
  -27.8200  -17.4370   20.1040 C   0  0  0  0  0  0  0  0  0  0  0  0
  -26.5510  -17.8870   19.6460 C   0  0  0  0  0  0  0  0  0  0  0  0
  -27.9950  -15.9630   20.4600 C   0  0  0  0  0  1  0  0  0  0  0  0
  -26.3020  -19.1770   19.3990 N   0  0  0  0  0  0  0  0  0  0  0  0
  -24.1020  -17.3660   20.1840 C   0  0  0  0  0  1  0  0  0  0  0  0
  -25.3390  -17.0000   19.3510 C   0  0  0  0  0  2  0  0  0  0  0  0
  -29.3100  -20.9770   20.8920 C   0  0  0  0  0  2  0  0  0  0  0  0
  -28.6710  -22.3930   20.6020 C   0  0  0  0  0  2  0  0  0  0  0  0
  -29.2450  -23.7490   21.1300 C   0  0  0  0  0  2  0  0  0  0  0  0
  -28.4920  -24.9440   20.4220 C   0  0  0  0  0  2  0  0  0  0  0  0
  -28.5360  -26.3190   20.9300 O   0  0  0  0  0  0  0  0  0  0  0  0
  -24.7250  -31.9010   23.3880 C   0  0  0  0  0  0  0  0  0  0  0  0
  -27.4020  -27.1290   20.7650 C   0  0  0  0  0  0  0  0  0  0  0  0
  -23.5820  -30.4070   21.8040 C   0  0  0  0  0  3  0  0  0  0  0  0
  -25.0470  -28.7250   20.5600 C   0  0  0  0  0  0  0  0  0  0  0  0
  -26.1140  -30.6750   21.7070 C   0  0  0  0  0  2  0  0  0  0  0  0
  -26.1920  -29.2520   21.1720 C   0  0  0  0  0  0  0  0  0  0  0  0
  -27.3640  -28.4550   21.2800 C   0  0  0  0  0  3  0  0  0  0  0  0
  -26.2390  -26.6640   20.1000 C   0  0  0  0  0  3  0  0  0  0  0  0
  -25.0670  -27.4310   20.0210 C   0  0  0  0  0  3  0  0  0  0  0  0
  -23.8290  -29.6170   20.4900 C   0  0  0  0  0  2  0  0  0  0  0  0
  -24.8250  -31.0170   22.3570 N   0  0  0  0  0  0  0  0  0  0  0  0
  -23.6220  -32.2340   23.8480 O   0  0  0  0  0  0  0  0  0  0  0  0
  -22.8560  -29.4920   22.8130 C   0  0  0  0  0  0  0  0  0  0  0  0
  -21.5440  -29.4330   22.6050 N   0  0  0  0  0  0  0  0  0  0  0  0
  -23.4510  -28.8570   23.6830 O   0  0  0  0  0  0  0  0  0  0  0  0
  -21.2090  -30.0940   21.9150 H   0  0  0  0  0  0  0  0  0  0  0  0
  -18.0620  -28.1210   23.0300 C   0  0  0  0  0  0  0  0  0  0  0  0
  -20.5480  -28.4740   23.0130 C   0  0  0  0  0  3  0  0  0  0  0  0
  -20.7770  -26.9610   22.9050 C   0  0  0  0  0  2  0  0  0  0  0  0
  -19.6780  -26.3680   21.9980 C   0  0  0  0  0  2  0  0  0  0  0  0
  -18.2590  -26.7000   22.4970 C   0  0  0  0  0  2  0  0  0  0  0  0
  -19.1620  -28.9390   23.3850 C   0  0  0  0  0  0  0  0  0  0  0  0
  -18.9420  -30.2380   23.8920 C   0  0  0  0  0  3  0  0  0  0  0  0
  -17.6310  -30.7380   23.9940 C   0  0  0  0  0  3  0  0  0  0  0  0
  -16.5420  -29.9380   23.6060 C   0  0  0  0  0  3  0  0  0  0  0  0
  -16.7560  -28.6270   23.1420 C   0  0  0  0  0  3  0  0  0  0  0  0
  -25.9900  -32.5490   24.0250 C   0  0  0  0  0  3  0  0  0  0  0  0
  -25.6760  -33.9560   24.2990 N   0  0  0  0  0  0  0  0  0  0  0  0
  -26.0110  -34.9790   23.4990 C   0  0  0  0  0  0  0  0  0  0  0  0
  -26.6860  -34.8360   22.4770 O   0  0  0  0  0  0  0  0  0  0  0  0
  -25.0810  -34.1400   25.0920 H   0  0  0  0  0  0  0  0  0  0  0  0
  -24.2800  -36.7550   23.0790 C   0  0  0  0  0  1  0  0  0  0  0  0
  -25.5210  -36.3830   23.9050 C   0  0  0  0  0  3  0  0  0  0  0  0
  -27.6560  -37.3010   24.6940 C   0  0  0  0  0  1  0  0  0  0  0  0
  -26.5500  -37.4320   23.7480 N   0  0  0  0  0  0  0  0  0  0  0  0
  -26.1410  -38.3540   23.8640 H   0  0  0  0  0  0  0  0  0  0  0  0
  -26.4680  -31.8160   25.3350 C   0  0  1  0  0  0  0  0  0  0  0  0
  -25.3410  -31.5880   26.3680 C   0  0  0  0  0  1  0  0  0  0  0  0
  -27.0830  -30.4380   24.9980 C   0  0  0  0  0  1  0  0  0  0  0  0
  -27.5830  -32.6420   26.0220 C   0  0  0  0  0  1  0  0  0  0  0  0
  -30.3200  -17.9240   20.5500 C   0  0  0  0  0  2  0  0  0  0  0  0
  -30.7680  -16.5830   19.8550 C   0  0  0  0  0  2  0  0  0  0  0  0
  -31.2860  -14.2340   20.6700 C   0  0  0  0  0  0  0  0  0  0  0  0
  -31.2400  -11.8200   20.1840 C   0  0  0  0  0  2  0  0  0  0  0  0
  -30.4720  -11.6150   18.8590 C   0  0  0  0  0  2  0  0  0  0  0  0
  -28.9460  -11.5410   19.0870 C   0  0  0  0  0  2  0  0  0  0  0  0
  -28.4050  -12.6530   20.0230 C   0  0  0  0  0  3  0  0  0  0  0  0
  -29.2970  -12.7960   21.2780 C   0  0  0  0  0  2  0  0  0  0  0  0
  -30.6800  -13.0210   20.8270 N   0  0  0  0  0  0  0  0  0  0  0  0
  -32.4890  -14.3390   20.4270 O   0  0  0  0  0  0  0  0  0  0  0  0
  -30.4500  -15.2980   20.5410 N   0  0  0  0  0  0  0  0  0  0  0  0
  -29.4730  -15.1250   20.7260 H   0  0  0  0  0  0  0  0  0  0  0  0
  -25.9450  -13.3090   20.3830 C   0  0  0  0  0  0  0  0  0  0  0  0
  -24.8390  -12.5850   20.7430 C   0  0  0  0  0  0  0  0  0  0  0  0
  -25.2870  -11.2390   20.8920 C   0  0  0  0  0  0  0  0  0  0  0  0
  -27.0060  -12.4180   20.3820 N   0  0  0  0  0  0  0  0  0  0  0  0
  -26.6050  -11.1700   20.7350 N   0  0  0  0  0  0  0  0  0  0  0  0
  -24.5280  -10.0020   21.1160 C   0  0  0  0  0  0  0  0  0  0  0  0
  -24.8320   -9.1360   22.1890 C   0  0  0  0  0  3  0  0  0  0  0  0
  -24.0830   -7.9570   22.3920 C   0  0  0  0  0  3  0  0  0  0  0  0
  -23.0130   -7.6370   21.5210 C   0  0  0  0  0  0  0  0  0  0  0  0
  -22.7260   -8.4930   20.4420 C   0  0  0  0  0  3  0  0  0  0  0  0
  -23.4770   -9.6630   20.2400 C   0  0  0  0  0  3  0  0  0  0  0  0
  -22.2410   -6.5060   21.6330 O   0  0  0  0  0  0  0  0  0  0  0  0
  -22.0170   -5.9050   22.8460 C   0  0  0  0  0  0  0  0  0  0  0  0
  -21.4410   -6.6030   23.9300 C   0  0  0  0  0  3  0  0  0  0  0  0
  -21.1680   -5.9250   25.1350 C   0  0  0  0  0  3  0  0  0  0  0  0
  -21.4560   -4.5530   25.2560 C   0  0  0  0  0  0  0  0  0  0  0  0
  -22.0170   -3.8540   24.1750 C   0  0  0  0  0  3  0  0  0  0  0  0
  -22.2980   -4.5290   22.9720 C   0  0  0  0  0  0  0  0  0  0  0  0
  -22.8220   -3.8460   21.9270 F   0  0  0  0  0  0  0  0  0  0  0  0
  -21.1850   -3.9030   26.4120 F   0  0  0  0  0  0  0  0  0  0  0  0
  -23.4260  -13.0950   20.8300 C   0  0  0  0  0  0  0  0  0  0  0  0
  -22.6120  -12.5060   21.7050 N   0  0  0  0  0  0  0  0  0  0  0  0
  -23.0500  -14.0490   20.1530 O   0  0  0  0  0  0  0  0  0  0  0  0
  -22.9130  -11.7260   22.2690 H   0  0  0  0  0  0  0  0  0  0  0  0
  -21.6620  -12.8360   21.8120 H   0  0  0  0  0  0  0  0  0  0  0  0
  -26.1350  -14.6300   20.0200 N   0  0  0  0  0  0  0  0  0  0  0  0
  -25.3360  -15.1650   19.7000 H   0  0  0  0  0  0  0  0  0  0  0  0
  -27.0000  -14.9480   19.6090 H   0  0  0  0  0  0  0  0  0  0  0  0
  1  2  1  0
  2  3  2  0
  2 10  1  0
  3 55  1  0
  4  3  1  0
  4  6  1  0
  5  4  2  0
  7  5  1  0
  7  1  2  0
  9  5  1  0
  9  8  1  0
 11 10  1  0
 11 12  1  0
 13 14  1  0
 13 12  1  0
 15 26  2  0
 16 14  1  0
 16 21  1  0
 17 25  1  0
 17 27  1  0
 18 20  1  0
 19 25  1  0
 20 21  2  0
 20 19  1  0
 22 16  2  0
 23 22  1  0
 23 18  2  0
 24 18  1  0
 24 17  1  0
 25 15  1  0
 27 29  2  0
 28 27  1  0
 30 28  1  0
 31 40  2  0
 31 36  1  0
 32 28  1  0
 32 36  1  0
 33 32  1  0
 34 35  1  0
 34 33  1  0
 35 31  1  0
 36 37  2  0
 37 38  1  0
 39 38  2  0
 40 39  1  0
 41 15  1  0
 41 42  1  0
 41 51  1  0
 42 45  1  0
 43 47  1  0
 43 42  1  0
 44 43  2  0
 47 46  1  0
 49 50  1  0
 49 47  1  0
 49 48  1  0
 51 54  1  1
 51 52  1  0
 53 51  1  0
 56 65  1  0
 56 55  1  0
 57 63  1  0
 58 63  1  0
 59 60  1  0
 59 58  1  0
 61 60  1  0
 61 70  1  0
 61 62  1  0
 63 62  1  0
 64 57  2  0
 65 57  1  0
 65 66  1  0
 67 68  2  0
 68 87  1  0
 68 69  1  0
 69 72  1  0
 70 67  1  0
 70 71  1  0
 71 69  2  0
 72 73  1  0
 73 74  2  0
 75 78  1  0
 75 74  1  0
 76 75  2  0
 77 76  1  0
 77 72  2  0
 78 79  1  0
 79 84  2  0
 79 80  1  0
 80 81  2  0
 81 82  1  0
 82 86  1  0
 83 82  2  0
 84 83  1  0
 85 84  1  0
 87 88  1  0
 88 91  1  0
 88 90  1  0
 89 87  2  0
 92 67  1  0
 93 92  1  0
 94 92  1  0
M  ISO  4  13 101  14 101  57 100  65 100
M  END
>  <TORSDO>  (19) 
F 23

>  <SCORE>  (19) 
-9.773

>  <name>  (19) 
18

>  <ligand_id>  (19) 
18

>  <original_smiles>  (19) 
[H]c1nc(C([H])([H])C([H])([H])[H])c(C([H])([H])[H])c(C([H])([H])C([H])([H])N([H])C(=O)N2C([H])([H])C([H])([H])C([H])([H])C([H])(n3nc(-c4c([H])c([H])c(Oc5c([H])c([H])c(F)c([H])c5F)c([H])c4[H])c(C(=O)N([H])[H])c3N([H])[H])C2([H])[H])c1C([H])([H])C([H])([H])C([H])([H])C([H])([H])Oc1c([H])c([H])c2c(c1[H])C([H])([H])N(C(=O)C([H])(N([H])C(=O)C([H])(N([H])C([H])([H])[H])C([H])([H])[H])C(C([H])([H])[H])(C([H])([H])[H])C([H])([H])[H])C([H])(C(=O)N([H])C1([H])c3c([H])c([H])c([H])c([H])c3C([H])([H])C([H])([H])C1([H])[H])C2([H])[H]

>  <smiles>  (19) 
[H]c1nc(C([H])([H])C([H])([H])[H])c(C([H])([H])[H])c(C([H])([H])C([H])([H])N([H])C(=O)N2C([H])([H])C([H])([H])C([H])([H])C([H])(n3nc(-c4c([H])c([H])c(Oc5c([H])c([H])c(F)c([H])c5F)c([H])c4[H])c(C(=O)N([H])[H])c3N([H])[H])C2([H])[H])c1C([H])([H])C([H])([H])C([H])([H])C([H])([H])Oc1c([H])c([H])c2c(c1[H])C([H])([H])N(C(=O)C([H])(N([H])C(=O)C([H])(N([H])C([H])([H])[H])C([H])([H])[H])C(C([H])([H])[H])(C([H])([H])[H])C([H])([H])[H])C([H])(C(=O)N([H])C1([H])c3c([H])c([H])c([H])c([H])c3C([H])([H])C([H])([H])C1([H])[H])C2([H])[H]

$$$$
19:0:0
     RDKit          3D

102110  0  0  1  0  0  0  0  0999 V2000
  -29.4870  -21.0580   20.8820 C   0  0  0  0  0  0  0  0  0  0  0  0
  -28.8130  -20.6130   19.6930 C   0  0  0  0  0  0  0  0  0  0  0  0
  -29.8990  -19.9450   21.5550 C   0  0  0  0  0  0  0  0  0  0  0  0
  -28.8110  -19.2430   19.7060 C   0  0  0  0  0  0  0  0  0  0  0  0
  -30.6070  -19.9140   22.8860 C   0  0  0  0  0  1  0  0  0  0  0  0
  -29.5550  -18.8140   20.8200 N   0  0  0  0  0  0  0  0  0  0  0  0
  -27.2250  -17.2600   19.1740 C   0  0  0  0  0  1  0  0  0  0  0  0
  -28.9890  -18.0120   17.4710 C   0  0  0  0  0  1  0  0  0  0  0  0
  -28.1060  -18.3950   18.6620 C   0  0  0  0  0  3  0  0  0  0  0  0
  -29.7440  -22.4460   21.4310 C   0  0  0  0  0  2  0  0  0  0  0  0
  -29.6890  -23.5770   20.4150 C   0  0  0  0  0  2  0  0  0  0  0  0
  -29.4330  -24.9410   21.0250 C   0  0  0  0  0  2  0  0  0  0  0  0
  -29.4310  -25.9900   19.9190 C   0  0  0  0  0  2  0  0  0  0  0  0
  -29.0950  -27.2120   20.5210 O   0  0  0  0  0  0  0  0  0  0  0  0
  -24.7070  -31.8710   23.4750 C   0  0  0  0  0  0  0  0  0  0  0  0
  -27.8070  -27.6860   20.5060 C   0  0  0  0  0  0  0  0  0  0  0  0
  -23.6750  -30.3930   21.7740 C   0  0  0  0  0  3  0  0  0  0  0  0
  -25.2930  -28.9600   20.4290 C   0  0  0  0  0  0  0  0  0  0  0  0
  -26.1680  -30.9380   21.6920 C   0  0  0  0  0  2  0  0  0  0  0  0
  -26.3740  -29.5780   21.0650 C   0  0  0  0  0  0  0  0  0  0  0  0
  -27.6260  -28.9420   21.1080 C   0  0  0  0  0  3  0  0  0  0  0  0
  -26.7020  -27.0460   19.8940 C   0  0  0  0  0  3  0  0  0  0  0  0
  -25.4460  -27.6860   19.8500 C   0  0  0  0  0  3  0  0  0  0  0  0
  -23.9930  -29.7280   20.4080 C   0  0  0  0  0  2  0  0  0  0  0  0
  -24.8630  -31.0830   22.3730 N   0  0  0  0  0  0  0  0  0  0  0  0
  -23.5870  -32.0680   23.9640 O   0  0  0  0  0  0  0  0  0  0  0  0
  -23.0570  -29.3270   22.7060 C   0  0  0  0  0  0  0  0  0  0  0  0
  -21.8060  -28.9380   22.4100 N   0  0  0  0  0  0  0  0  0  0  0  0
  -23.7010  -28.8520   23.6440 O   0  0  0  0  0  0  0  0  0  0  0  0
  -21.3490  -29.3810   21.6280 H   0  0  0  0  0  0  0  0  0  0  0  0
  -18.6380  -27.2090   22.4510 C   0  0  0  0  0  0  0  0  0  0  0  0
  -21.0300  -27.9220   23.1200 C   0  0  0  0  0  3  0  0  0  0  0  0
  -21.4630  -26.5000   22.7000 C   0  0  0  0  0  2  0  0  0  0  0  0
  -20.6260  -25.9290   21.5530 C   0  0  0  0  0  2  0  0  0  0  0  0
  -19.1460  -25.8710   21.9420 C   0  0  0  0  0  2  0  0  0  0  0  0
  -19.5240  -28.1790   22.9880 C   0  0  0  0  0  0  0  0  0  0  0  0
  -19.0050  -29.4200   23.4160 C   0  0  0  0  0  3  0  0  0  0  0  0
  -17.6290  -29.6960   23.3200 C   0  0  0  0  0  3  0  0  0  0  0  0
  -16.7520  -28.7240   22.8040 C   0  0  0  0  0  3  0  0  0  0  0  0
  -17.2570  -27.4840   22.3740 C   0  0  0  0  0  3  0  0  0  0  0  0
  -25.9210  -32.5810   24.1520 C   0  0  0  0  0  3  0  0  0  0  0  0
  -25.5360  -33.9780   24.3860 N   0  0  0  0  0  0  0  0  0  0  0  0
  -25.8700  -35.0030   23.5890 C   0  0  0  0  0  0  0  0  0  0  0  0
  -26.6010  -34.8740   22.6020 O   0  0  0  0  0  0  0  0  0  0  0  0
  -24.8910  -34.1500   25.1430 H   0  0  0  0  0  0  0  0  0  0  0  0
  -24.0780  -36.6830   23.0510 C   0  0  0  0  0  1  0  0  0  0  0  0
  -25.2980  -36.3880   23.9400 C   0  0  0  0  0  3  0  0  0  0  0  0
  -27.3500  -37.4170   24.8080 C   0  0  0  0  0  1  0  0  0  0  0  0
  -26.2840  -37.4820   23.8120 N   0  0  0  0  0  0  0  0  0  0  0  0
  -25.8300  -38.3880   23.8930 H   0  0  0  0  0  0  0  0  0  0  0  0
  -26.3760  -31.8920   25.4960 C   0  0  1  0  0  0  0  0  0  0  0  0
  -25.2080  -31.5760   26.4570 C   0  0  0  0  0  1  0  0  0  0  0  0
  -27.1210  -30.5680   25.2020 C   0  0  0  0  0  1  0  0  0  0  0  0
  -27.3770  -32.8060   26.2420 C   0  0  0  0  0  1  0  0  0  0  0  0
  -28.1660  -21.4340   18.5870 C   0  0  0  0  0  2  0  0  0  0  0  0
  -26.8720  -22.1440   19.0420 C   0  0  0  0  0  2  0  0  0  0  0  0
  -25.1600  -23.9630   18.6670 C   0  0  0  0  0  1  0  0  0  0  0  0
  -27.5600  -24.3900   18.0330 C   0  0  0  0  0  1  0  0  0  0  0  0
  -26.4570  -23.3260   18.1430 C   0  0  0  0  0  3  0  0  0  0  0  0
  -29.8750  -17.4500   21.2620 C   0  0  0  0  0  2  0  0  0  0  0  0
  -31.5830  -16.4420   22.8270 C   0  0  0  0  0  1  0  0  0  0  0  0
  -32.3620  -18.2790   21.3160 C   0  0  0  0  0  1  0  0  0  0  0  0
  -31.3980  -17.0750   21.4330 C   0  0  2  0  0  0  0  0  0  0  0  0
  -31.8940  -16.0520   20.3830 C   0  0  0  0  0  2  0  0  0  0  0  0
  -31.2190  -13.9090   19.3560 C   0  0  0  0  0  0  0  0  0  0  0  0
  -30.6930  -11.5890   18.7390 C   0  0  0  0  0  2  0  0  0  0  0  0
  -29.6170  -11.4720   17.6460 C   0  0  0  0  0  2  0  0  0  0  0  0
  -28.2190  -11.4400   18.2820 C   0  0  0  0  0  2  0  0  0  0  0  0
  -27.9980  -12.6060   19.2740 C   0  0  0  0  0  3  0  0  0  0  0  0
  -29.1750  -12.7420   20.2690 C   0  0  0  0  0  2  0  0  0  0  0  0
  -30.4450  -12.8090   19.5210 N   0  0  0  0  0  0  0  0  0  0  0  0
  -32.0690  -14.0130   18.4700 O   0  0  0  0  0  0  0  0  0  0  0  0
  -31.0930  -14.8330   20.3140 N   0  0  0  0  0  0  0  0  0  0  0  0
  -30.4320  -14.6490   21.0520 H   0  0  0  0  0  0  0  0  0  0  0  0
  -25.8870  -13.4940   20.4550 C   0  0  0  0  0  0  0  0  0  0  0  0
  -24.7760  -12.8570   20.9340 C   0  0  0  0  0  0  0  0  0  0  0  0
  -24.9890  -11.4640   20.6930 C   0  0  0  0  0  0  0  0  0  0  0  0
  -26.7160  -12.4960   19.9600 N   0  0  0  0  0  0  0  0  0  0  0  0
  -26.1850  -11.2650   20.1580 N   0  0  0  0  0  0  0  0  0  0  0  0
  -24.1000  -10.3140   20.8890 C   0  0  0  0  0  0  0  0  0  0  0  0
  -24.4440   -9.2600   21.7630 C   0  0  0  0  0  3  0  0  0  0  0  0
  -23.5670   -8.1700   21.9470 C   0  0  0  0  0  3  0  0  0  0  0  0
  -22.3320   -8.1300   21.2580 C   0  0  0  0  0  0  0  0  0  0  0  0
  -22.0070   -9.1710   20.3700 C   0  0  0  0  0  3  0  0  0  0  0  0
  -22.8830  -10.2520   20.1840 C   0  0  0  0  0  3  0  0  0  0  0  0
  -21.4300   -7.0980   21.3540 O   0  0  0  0  0  0  0  0  0  0  0  0
  -21.2350   -6.4210   22.5310 C   0  0  0  0  0  0  0  0  0  0  0  0
  -20.8110   -7.0760   23.7070 C   0  0  0  0  0  3  0  0  0  0  0  0
  -20.5560   -6.3310   24.8760 C   0  0  0  0  0  3  0  0  0  0  0  0
  -20.7170   -4.9330   24.8680 C   0  0  0  0  0  0  0  0  0  0  0  0
  -21.1350   -4.2780   23.6970 C   0  0  0  0  0  3  0  0  0  0  0  0
  -21.3910   -5.0210   22.5310 C   0  0  0  0  0  0  0  0  0  0  0  0
  -21.7730   -4.3820   21.3990 F   0  0  0  0  0  0  0  0  0  0  0  0
  -20.4660   -4.2160   25.9870 F   0  0  0  0  0  0  0  0  0  0  0  0
  -23.5430  -13.5040   21.4960 C   0  0  0  0  0  0  0  0  0  0  0  0
  -22.8780  -12.8420   22.4350 N   0  0  0  0  0  0  0  0  0  0  0  0
  -23.1880  -14.6260   21.1350 O   0  0  0  0  0  0  0  0  0  0  0  0
  -23.1810  -11.9300   22.7440 H   0  0  0  0  0  0  0  0  0  0  0  0
  -22.0560  -13.2540   22.8520 H   0  0  0  0  0  0  0  0  0  0  0  0
  -26.2500  -14.8350   20.3850 N   0  0  0  0  0  0  0  0  0  0  0  0
  -25.6310  -15.5750   20.6940 H   0  0  0  0  0  0  0  0  0  0  0  0
  -27.1020  -15.1790   19.9620 H   0  0  0  0  0  0  0  0  0  0  0  0
  1 10  1  0
  1  3  2  0
  2  4  2  0
  2  1  1  0
  3  5  1  0
  4  6  1  0
  6 60  1  0
  6  3  1  0
  8  9  1  0
  9  7  1  0
  9  4  1  0
 11 12  1  0
 11 10  1  0
 13 14  1  0
 13 12  1  0
 15 26  2  0
 16 14  1  0
 16 21  1  0
 17 25  1  0
 17 27  1  0
 18 20  1  0
 19 25  1  0
 20 21  2  0
 20 19  1  0
 22 16  2  0
 23 22  1  0
 23 18  2  0
 24 18  1  0
 24 17  1  0
 25 15  1  0
 27 29  2  0
 28 27  1  0
 30 28  1  0
 31 36  1  0
 32 28  1  0
 33 32  1  0
 34 35  1  0
 34 33  1  0
 35 31  1  0
 36 32  1  0
 36 37  2  0
 38 37  1  0
 39 38  2  0
 40 31  2  0
 40 39  1  0
 41 15  1  0
 41 42  1  0
 41 51  1  0
 42 45  1  0
 43 47  1  0
 43 42  1  0
 44 43  2  0
 47 46  1  0
 49 50  1  0
 49 47  1  0
 49 48  1  0
 51 54  1  1
 51 52  1  0
 53 51  1  0
 55 56  1  0
 55  2  1  0
 58 59  1  0
 59 57  1  0
 59 56  1  0
 60 63  1  0
 63 62  1  1
 63 61  1  0
 64 63  1  0
 65 71  1  0
 65 73  1  0
 66 71  1  0
 67 68  1  0
 67 66  1  0
 69 68  1  0
 69 78  1  0
 69 70  1  0
 71 70  1  0
 72 65  2  0
 73 64  1  0
 73 74  1  0
 75 76  2  0
 76 95  1  0
 77 80  1  0
 77 76  1  0
 78 79  1  0
 78 75  1  0
 79 77  2  0
 80 81  1  0
 81 82  2  0
 83 86  1  0
 83 82  1  0
 84 83  2  0
 85 84  1  0
 85 80  2  0
 86 87  1  0
 87 92  2  0
 87 88  1  0
 88 89  2  0
 90 89  1  0
 90 94  1  0
 91 90  2  0
 92 91  1  0
 93 92  1  0
 95 96  1  0
 96 98  1  0
 96 99  1  0
 97 95  2  0
100 75  1  0
100101  1  0
102100  1  0
M  ISO  4  13 101  14 101  65 100  73 100
M  END
>  <TORSDO>  (20) 
F 27

>  <SCORE>  (20) 
-9.022

>  <name>  (20) 
19

>  <ligand_id>  (20) 
19

>  <original_smiles>  (20) 
[H]c1c([H])c([H])c2c(c1[H])C([H])([H])C([H])([H])C([H])([H])C2([H])N([H])C(=O)C1([H])N(C(=O)C([H])(N([H])C(=O)C([H])(N([H])C([H])([H])[H])C([H])([H])[H])C(C([H])([H])[H])(C([H])([H])[H])C([H])([H])[H])C([H])([H])c2c([H])c(OC([H])([H])C([H])([H])C([H])([H])C([H])([H])c3c(C([H])([H])C([H])([H])C([H])(C([H])([H])[H])C([H])([H])[H])c(C([H])(C([H])([H])[H])C([H])([H])[H])n(C([H])([H])C(C([H])([H])[H])(C([H])([H])[H])C([H])([H])N([H])C(=O)N4C([H])([H])C([H])([H])C([H])([H])C([H])(n5nc(-c6c([H])c([H])c(Oc7c([H])c([H])c(F)c([H])c7F)c([H])c6[H])c(C(=O)N([H])[H])c5N([H])[H])C4([H])[H])c3C([H])([H])[H])c([H])c([H])c2C1([H])[H]

>  <smiles>  (20) 
[H]c1c([H])c([H])c2c(c1[H])C([H])([H])C([H])([H])C([H])([H])C2([H])N([H])C(=O)C1([H])N(C(=O)C([H])(N([H])C(=O)C([H])(N([H])C([H])([H])[H])C([H])([H])[H])C(C([H])([H])[H])(C([H])([H])[H])C([H])([H])[H])C([H])([H])c2c([H])c(OC([H])([H])C([H])([H])C([H])([H])C([H])([H])c3c(C([H])([H])C([H])([H])C([H])(C([H])([H])[H])C([H])([H])[H])c(C([H])(C([H])([H])[H])C([H])([H])[H])n(C([H])([H])C(C([H])([H])[H])(C([H])([H])[H])C([H])([H])N([H])C(=O)N4C([H])([H])C([H])([H])C([H])([H])C([H])(n5nc(-c6c([H])c([H])c(Oc7c([H])c([H])c(F)c([H])c7F)c([H])c6[H])c(C(=O)N([H])[H])c5N([H])[H])C4([H])[H])c3C([H])([H])[H])c([H])c([H])c2C1([H])[H]

$$$$
20:0:0
     RDKit          3D

 92100  0  0  1  0  0  0  0  0999 V2000
  -27.1350  -22.1170   20.4320 C   0  0  0  0  0  3  0  0  0  0  0  0
  -29.2060  -23.3370   20.5260 C   0  0  0  0  0  3  0  0  0  0  0  0
  -28.5380  -22.0970   20.3450 C   0  0  0  0  0  0  0  0  0  0  0  0
  -26.4720  -23.3340   20.6760 C   0  0  0  0  0  0  0  0  0  0  0  0
  -28.4640  -24.5340   20.7490 C   0  0  0  0  0  0  0  0  0  0  0  0
  -27.1140  -24.5140   20.8120 N   0  0  0  0  0  0  0  0  0  0  0  0
  -24.2340  -23.3080   19.4640 C   0  0  0  0  0  1  0  0  0  0  0  0
  -24.9620  -23.3650   20.8130 C   0  0  0  0  0  2  0  0  0  0  0  0
  -29.2690  -20.7880   19.9780 C   0  0  0  0  0  2  0  0  0  0  0  0
  -29.3120  -19.6490   21.0470 C   0  0  0  0  0  2  0  0  0  0  0  0
  -29.5650  -18.2170   20.4650 C   0  0  0  0  0  2  0  0  0  0  0  0
  -30.1990  -17.1670   21.4370 C   0  0  0  0  0  2  0  0  0  0  0  0
  -30.6250  -14.7870   20.5560 C   0  0  0  0  0  0  0  0  0  0  0  0
  -30.4150  -12.6350   19.3500 C   0  0  0  0  0  2  0  0  0  0  0  0
  -29.4690  -12.8320   18.1460 C   0  0  0  0  0  2  0  0  0  0  0  0
  -28.0000  -12.6380   18.5660 C   0  0  0  0  0  2  0  0  0  0  0  0
  -27.6340  -13.4410   19.8420 C   0  0  0  0  0  3  0  0  0  0  0  0
  -28.6880  -13.2170   20.9480 C   0  0  0  0  0  2  0  0  0  0  0  0
  -30.0040  -13.5840   20.3970 N   0  0  0  0  0  0  0  0  0  0  0  0
  -31.7480  -15.0210   20.1020 O   0  0  0  0  0  0  0  0  0  0  0  0
  -29.8700  -15.7530   21.1290 N   0  0  0  0  0  0  0  0  0  0  0  0
  -28.9580  -15.4490   21.4300 H   0  0  0  0  0  0  0  0  0  0  0  0
  -25.2210  -13.9730   20.5550 C   0  0  0  0  0  0  0  0  0  0  0  0
  -24.1740  -13.1700   20.9120 C   0  0  0  0  0  0  0  0  0  0  0  0
  -24.6720  -11.8300   20.8720 C   0  0  0  0  0  0  0  0  0  0  0  0
  -26.2900  -13.1230   20.3140 N   0  0  0  0  0  0  0  0  0  0  0  0
  -25.9630  -11.8290   20.5610 N   0  0  0  0  0  0  0  0  0  0  0  0
  -23.9810  -10.5490   21.0510 C   0  0  0  0  0  0  0  0  0  0  0  0
  -24.4170   -9.6010   22.0040 C   0  0  0  0  0  3  0  0  0  0  0  0
  -23.7250   -8.3820   22.1680 C   0  0  0  0  0  3  0  0  0  0  0  0
  -22.5840   -8.1040   21.3790 C   0  0  0  0  0  0  0  0  0  0  0  0
  -22.1660   -9.0400   20.4190 C   0  0  0  0  0  3  0  0  0  0  0  0
  -22.8590  -10.2500   20.2520 C   0  0  0  0  0  3  0  0  0  0  0  0
  -21.8630   -6.9360   21.4530 O   0  0  0  0  0  0  0  0  0  0  0  0
  -21.7890   -6.2060   22.6130 C   0  0  0  0  0  0  0  0  0  0  0  0
  -21.2710   -6.7550   23.8060 C   0  0  0  0  0  3  0  0  0  0  0  0
  -21.1500   -5.9500   24.9560 C   0  0  0  0  0  3  0  0  0  0  0  0
  -21.5350   -4.5960   24.9130 C   0  0  0  0  0  0  0  0  0  0  0  0
  -22.0470   -4.0470   23.7230 C   0  0  0  0  0  3  0  0  0  0  0  0
  -22.1700   -4.8500   22.5760 C   0  0  0  0  0  0  0  0  0  0  0  0
  -22.6450   -4.3100   21.4270 F   0  0  0  0  0  0  0  0  0  0  0  0
  -21.4110   -3.8200   26.0150 F   0  0  0  0  0  0  0  0  0  0  0  0
  -22.7620  -13.6060   21.1830 C   0  0  0  0  0  0  0  0  0  0  0  0
  -22.0530  -12.8830   22.0400 N   0  0  0  0  0  0  0  0  0  0  0  0
  -22.2980  -14.6260   20.6720 O   0  0  0  0  0  0  0  0  0  0  0  0
  -22.4450  -12.0590   22.4710 H   0  0  0  0  0  0  0  0  0  0  0  0
  -21.1080  -13.1560   22.2730 H   0  0  0  0  0  0  0  0  0  0  0  0
  -25.3520  -15.3490   20.3950 N   0  0  0  0  0  0  0  0  0  0  0  0
  -24.5590  -15.9760   20.4850 H   0  0  0  0  0  0  0  0  0  0  0  0
  -26.1890  -15.8110   20.0670 H   0  0  0  0  0  0  0  0  0  0  0  0
  -29.1510  -25.8800   21.0980 C   0  0  0  0  0  2  0  0  0  0  0  0
  -28.9350  -27.0180   20.2350 O   0  0  0  0  0  0  0  0  0  0  0  0
  -24.7510  -31.9820   23.3430 C   0  0  0  0  0  0  0  0  0  0  0  0
  -27.7350  -27.7000   20.3140 C   0  0  0  0  0  0  0  0  0  0  0  0
  -23.6980  -30.5770   21.6050 C   0  0  0  0  0  3  0  0  0  0  0  0
  -25.2920  -29.1280   20.2370 C   0  0  0  0  0  0  0  0  0  0  0  0
  -26.2190  -31.0330   21.5590 C   0  0  0  0  0  2  0  0  0  0  0  0
  -26.3960  -29.6750   20.9020 C   0  0  0  0  0  0  0  0  0  0  0  0
  -27.6250  -28.9700   20.9360 C   0  0  0  0  0  3  0  0  0  0  0  0
  -26.6150  -27.1720   19.6450 C   0  0  0  0  0  3  0  0  0  0  0  0
  -25.3960  -27.8750   19.6080 C   0  0  0  0  0  3  0  0  0  0  0  0
  -24.0130  -29.9390   20.2260 C   0  0  0  0  0  2  0  0  0  0  0  0
  -24.9050  -31.2130   22.2280 N   0  0  0  0  0  0  0  0  0  0  0  0
  -23.6310  -32.1960   23.8270 O   0  0  0  0  0  0  0  0  0  0  0  0
  -23.0380  -29.5040   22.5010 C   0  0  0  0  0  0  0  0  0  0  0  0
  -21.7210  -29.3060   22.3310 N   0  0  0  0  0  0  0  0  0  0  0  0
  -23.7110  -28.8550   23.3070 O   0  0  0  0  0  0  0  0  0  0  0  0
  -21.2380  -29.8810   21.6550 H   0  0  0  0  0  0  0  0  0  0  0  0
  -18.3370  -28.1190   22.7690 C   0  0  0  0  0  0  0  0  0  0  0  0
  -20.9010  -28.3220   23.0350 C   0  0  0  0  0  3  0  0  0  0  0  0
  -20.9880  -26.9410   22.3460 C   0  0  0  0  0  2  0  0  0  0  0  0
  -19.8660  -26.7020   21.3290 C   0  0  0  0  0  2  0  0  0  0  0  0
  -18.4910  -26.8230   21.9920 C   0  0  0  0  0  2  0  0  0  0  0  0
  -19.4690  -28.8320   23.2460 C   0  0  0  0  0  0  0  0  0  0  0  0
  -19.2720  -30.0470   23.9370 C   0  0  0  0  0  3  0  0  0  0  0  0
  -17.9760  -30.5530   24.1470 C   0  0  0  0  0  3  0  0  0  0  0  0
  -16.8590  -29.8370   23.6860 C   0  0  0  0  0  3  0  0  0  0  0  0
  -17.0400  -28.6200   23.0050 C   0  0  0  0  0  3  0  0  0  0  0  0
  -25.9710  -32.6520   24.0480 C   0  0  0  0  0  3  0  0  0  0  0  0
  -25.6130  -34.0500   24.3200 N   0  0  0  0  0  0  0  0  0  0  0  0
  -25.9500  -35.0860   23.5400 C   0  0  0  0  0  0  0  0  0  0  0  0
  -26.6670  -34.9680   22.5420 O   0  0  0  0  0  0  0  0  0  0  0  0
  -24.9800  -34.2160   25.0890 H   0  0  0  0  0  0  0  0  0  0  0  0
  -24.1750  -36.8080   23.0750 C   0  0  0  0  0  1  0  0  0  0  0  0
  -25.4080  -36.4750   23.9320 C   0  0  0  0  0  3  0  0  0  0  0  0
  -27.4870  -37.4670   24.7850 C   0  0  0  0  0  1  0  0  0  0  0  0
  -26.4080  -37.5570   23.8000 N   0  0  0  0  0  0  0  0  0  0  0  0
  -25.9670  -38.4690   23.8950 H   0  0  0  0  0  0  0  0  0  0  0  0
  -26.4000  -31.9170   25.3770 C   0  0  1  0  0  0  0  0  0  0  0  0
  -25.2300  -31.6700   26.3580 C   0  0  0  0  0  1  0  0  0  0  0  0
  -27.0440  -30.5480   25.0580 C   0  0  0  0  0  1  0  0  0  0  0  0
  -27.4720  -32.7530   26.1150 C   0  0  0  0  0  1  0  0  0  0  0  0
  1  4  1  0
  2  5  2  0
  3  1  2  0
  3  2  1  0
  4  6  2  0
  4  8  1  0
  5  6  1  0
  5 51  1  0
  7  8  1  0
  9  3  1  0
  9 10  1  0
 11 10  1  0
 11 12  1  0
 13 21  1  0
 14 19  1  0
 15 16  1  0
 15 14  1  0
 17 16  1  0
 17 26  1  0
 17 18  1  0
 19 13  1  0
 19 18  1  0
 20 13  2  0
 21 22  1  0
 21 12  1  0
 23 24  2  0
 24 43  1  0
 25 24  1  0
 25 28  1  0
 26 23  1  0
 26 27  1  0
 27 25  2  0
 28 29  1  0
 29 30  2  0
 31 34  1  0
 31 30  1  0
 32 31  2  0
 33 32  1  0
 33 28  2  0
 34 35  1  0
 35 36  1  0
 36 37  2  0
 38 37  1  0
 38 42  1  0
 39 38  2  0
 40 35  2  0
 40 39  1  0
 41 40  1  0
 43 44  1  0
 44 47  1  0
 44 46  1  0
 45 43  2  0
 48 49  1  0
 48 23  1  0
 50 48  1  0
 52 54  1  0
 52 51  1  0
 53 64  2  0
 54 59  1  0
 55 63  1  0
 55 65  1  0
 56 58  1  0
 57 63  1  0
 58 59  2  0
 58 57  1  0
 60 54  2  0
 61 60  1  0
 61 56  2  0
 62 56  1  0
 62 55  1  0
 63 53  1  0
 65 67  2  0
 66 65  1  0
 68 66  1  0
 69 78  2  0
 69 74  1  0
 70 66  1  0
 70 74  1  0
 71 70  1  0
 72 73  1  0
 72 71  1  0
 73 69  1  0
 74 75  2  0
 75 76  1  0
 77 76  2  0
 78 77  1  0
 79 53  1  0
 79 80  1  0
 79 89  1  0
 80 83  1  0
 81 85  1  0
 81 80  1  0
 82 81  2  0
 85 84  1  0
 87 88  1  0
 87 85  1  0
 87 86  1  0
 89 92  1  1
 89 90  1  0
 91 89  1  0
M  ISO  4  13 100  21 100  51 101  52 101
M  END
>  <TORSDO>  (21) 
F 22

>  <SCORE>  (21) 
-12.985

>  <name>  (21) 
20

>  <ligand_id>  (21) 
20

>  <original_smiles>  (21) 
[H]c1c([H])c([H])c2c(c1[H])C([H])([H])C([H])([H])C([H])([H])C2([H])N([H])C(=O)C1([H])N(C(=O)C([H])(N([H])C(=O)C([H])(N([H])C([H])([H])[H])C([H])([H])[H])C(C([H])([H])[H])(C([H])([H])[H])C([H])([H])[H])C([H])([H])c2c([H])c(OC([H])([H])c3nc(C([H])([H])C([H])([H])[H])c([H])c(C([H])([H])C([H])([H])C([H])([H])C([H])([H])N([H])C(=O)N4C([H])([H])C([H])([H])C([H])([H])C([H])(n5nc(-c6c([H])c([H])c(Oc7c([H])c([H])c(F)c([H])c7F)c([H])c6[H])c(C(=O)N([H])[H])c5N([H])[H])C4([H])[H])c3[H])c([H])c([H])c2C1([H])[H]

>  <smiles>  (21) 
[H]c1c([H])c([H])c2c(c1[H])C([H])([H])C([H])([H])C([H])([H])C2([H])N([H])C(=O)C1([H])N(C(=O)C([H])(N([H])C(=O)C([H])(N([H])C([H])([H])[H])C([H])([H])[H])C(C([H])([H])[H])(C([H])([H])[H])C([H])([H])[H])C([H])([H])c2c([H])c(OC([H])([H])c3nc(C([H])([H])C([H])([H])[H])c([H])c(C([H])([H])C([H])([H])C([H])([H])C([H])([H])N([H])C(=O)N4C([H])([H])C([H])([H])C([H])([H])C([H])(n5nc(-c6c([H])c([H])c(Oc7c([H])c([H])c(F)c([H])c7F)c([H])c6[H])c(C(=O)N([H])[H])c5N([H])[H])C4([H])[H])c3[H])c([H])c([H])c2C1([H])[H]

$$$$
21:0:0
     RDKit          3D

 93101  0  0  1  0  0  0  0  0999 V2000
  -27.3140  -21.8880   19.5570 C   0  0  0  0  0  2  0  0  0  0  0  0
  -26.8280  -20.6910   19.1330 C   0  0  0  0  0  0  0  0  0  0  0  0
  -27.7100  -19.6990   19.6760 C   0  0  0  0  0  0  0  0  0  0  0  0
  -28.7900  -20.3100   20.2880 C   0  0  0  0  0  3  0  0  0  0  0  0
  -27.5240  -18.1970   19.6150 C   0  0  0  0  0  1  0  0  0  0  0  0
  -28.4310  -21.7800   20.3640 N   0  0  0  0  0  0  0  0  0  0  0  0
  -25.8450  -21.3030   16.9140 C   0  0  0  0  0  1  0  0  0  0  0  0
  -24.4010  -21.3370   18.9720 C   0  0  0  0  0  1  0  0  0  0  0  0
  -25.0820  -19.1760   17.9440 C   0  0  0  0  0  1  0  0  0  0  0  0
  -25.5620  -20.6050   18.2610 C   0  0  2  0  0  0  0  0  0  0  0  0
  -29.9760  -19.3170   20.8220 C   0  0  0  0  0  2  0  0  0  0  0  0
  -30.3670  -17.7340   20.2690 C   0  0  0  0  0  2  0  0  0  0  0  0
  -30.8990  -15.0520   20.6960 C   0  0  0  0  0  0  0  0  0  0  0  0
  -30.7840  -12.6930   19.7650 C   0  0  0  0  0  2  0  0  0  0  0  0
  -29.9350  -12.6580   18.4720 C   0  0  0  0  0  2  0  0  0  0  0  0
  -28.4430  -12.4750   18.8070 C   0  0  0  0  0  2  0  0  0  0  0  0
  -27.9780  -13.4080   19.9540 C   0  0  0  0  0  3  0  0  0  0  0  0
  -28.9570  -13.4170   21.1500 C   0  0  0  0  0  2  0  0  0  0  0  0
  -30.2770  -13.8020   20.6320 N   0  0  0  0  0  0  0  0  0  0  0  0
  -32.0990  -15.0850   20.4070 O   0  0  0  0  0  0  0  0  0  0  0  0
  -30.1630  -16.2670   20.8680 N   0  0  0  0  0  0  0  0  0  0  0  0
  -29.2230  -16.0990   21.1930 H   0  0  0  0  0  0  0  0  0  0  0  0
  -25.5700  -14.0280   20.5530 C   0  0  0  0  0  0  0  0  0  0  0  0
  -24.4680  -13.2750   20.8440 C   0  0  0  0  0  0  0  0  0  0  0  0
  -24.9000  -11.9140   20.8150 C   0  0  0  0  0  0  0  0  0  0  0  0
  -26.6060  -13.1300   20.3610 N   0  0  0  0  0  0  0  0  0  0  0  0
  -26.2060  -11.8510   20.5830 N   0  0  0  0  0  0  0  0  0  0  0  0
  -24.1300  -10.6690   20.9340 C   0  0  0  0  0  0  0  0  0  0  0  0
  -24.4690   -9.6770   21.8810 C   0  0  0  0  0  3  0  0  0  0  0  0
  -23.7000   -8.4990   21.9900 C   0  0  0  0  0  3  0  0  0  0  0  0
  -22.5770   -8.3030   21.1500 C   0  0  0  0  0  0  0  0  0  0  0  0
  -22.2610   -9.2820   20.1920 C   0  0  0  0  0  3  0  0  0  0  0  0
  -23.0300  -10.4510   20.0800 C   0  0  0  0  0  3  0  0  0  0  0  0
  -21.7880   -7.1780   21.1680 O   0  0  0  0  0  0  0  0  0  0  0  0
  -21.6170   -6.4350   22.3090 C   0  0  0  0  0  0  0  0  0  0  0  0
  -21.0940   -6.9980   23.4930 C   0  0  0  0  0  3  0  0  0  0  0  0
  -20.8720   -6.1830   24.6210 C   0  0  0  0  0  3  0  0  0  0  0  0
  -21.1640   -4.8070   24.5650 C   0  0  0  0  0  0  0  0  0  0  0  0
  -21.6790   -4.2450   23.3850 C   0  0  0  0  0  3  0  0  0  0  0  0
  -21.9040   -5.0560   22.2590 C   0  0  0  0  0  0  0  0  0  0  0  0
  -22.3810   -4.5050   21.1170 F   0  0  0  0  0  0  0  0  0  0  0  0
  -20.9440   -4.0230   25.6450 F   0  0  0  0  0  0  0  0  0  0  0  0
  -23.0690  -13.7840   21.0370 C   0  0  0  0  0  0  0  0  0  0  0  0
  -22.2780  -13.1010   21.8570 N   0  0  0  0  0  0  0  0  0  0  0  0
  -22.6870  -14.8220   20.4980 O   0  0  0  0  0  0  0  0  0  0  0  0
  -22.6030  -12.2630   22.3150 H   0  0  0  0  0  0  0  0  0  0  0  0
  -21.3350  -13.4200   22.0290 H   0  0  0  0  0  0  0  0  0  0  0  0
  -25.7730  -15.3960   20.4060 N   0  0  0  0  0  0  0  0  0  0  0  0
  -25.0070  -16.0560   20.4650 H   0  0  0  0  0  0  0  0  0  0  0  0
  -26.6330  -15.8110   20.0760 H   0  0  0  0  0  0  0  0  0  0  0  0
  -28.8710  -23.1630   21.0260 C   0  0  0  0  0  3  0  0  0  0  0  0
  -28.0260  -24.6280   20.7070 C   0  0  0  0  0  3  0  0  0  0  0  0
  -28.3460  -26.1520   20.9300 O   0  0  0  0  0  0  0  0  0  0  0  0
  -24.8300  -32.1340   23.5100 C   0  0  0  0  0  0  0  0  0  0  0  0
  -27.3200  -27.1710   20.7990 C   0  0  0  0  0  0  0  0  0  0  0  0
  -23.6110  -30.6630   21.9560 C   0  0  0  0  0  3  0  0  0  0  0  0
  -25.0330  -28.9760   20.6410 C   0  0  0  0  0  0  0  0  0  0  0  0
  -26.1730  -30.8630   21.7910 C   0  0  0  0  0  2  0  0  0  0  0  0
  -26.2210  -29.4300   21.2270 C   0  0  0  0  0  0  0  0  0  0  0  0
  -27.3660  -28.5430   21.2860 C   0  0  0  0  0  3  0  0  0  0  0  0
  -26.1050  -26.8270   20.1640 C   0  0  0  0  0  3  0  0  0  0  0  0
  -24.9890  -27.6870   20.0920 C   0  0  0  0  0  3  0  0  0  0  0  0
  -23.8240  -29.8960   20.6250 C   0  0  0  0  0  2  0  0  0  0  0  0
  -24.8920  -31.2440   22.4730 N   0  0  0  0  0  0  0  0  0  0  0  0
  -23.7460  -32.4730   24.0110 O   0  0  0  0  0  0  0  0  0  0  0  0
  -22.9070  -29.7310   22.9750 C   0  0  0  0  0  0  0  0  0  0  0  0
  -21.6200  -29.4180   22.7340 N   0  0  0  0  0  0  0  0  0  0  0  0
  -23.5230  -29.2880   23.9470 O   0  0  0  0  0  0  0  0  0  0  0  0
  -21.1780  -29.8240   21.9220 H   0  0  0  0  0  0  0  0  0  0  0  0
  -18.3330  -27.9190   23.0040 C   0  0  0  0  0  0  0  0  0  0  0  0
  -20.7910  -28.5180   23.5400 C   0  0  0  0  0  3  0  0  0  0  0  0
  -21.1110  -27.0380   23.2270 C   0  0  0  0  0  2  0  0  0  0  0  0
  -20.2000  -26.4400   22.1500 C   0  0  0  0  0  2  0  0  0  0  0  0
  -18.7330  -26.5150   22.5830 C   0  0  0  0  0  2  0  0  0  0  0  0
  -19.3000  -28.8650   23.4370 C   0  0  0  0  0  0  0  0  0  0  0  0
  -18.8760  -30.1660   23.7850 C   0  0  0  0  0  3  0  0  0  0  0  0
  -17.5170  -30.5260   23.7060 C   0  0  0  0  0  3  0  0  0  0  0  0
  -16.5620  -29.5810   23.2900 C   0  0  0  0  0  3  0  0  0  0  0  0
  -16.9700  -28.2810   22.9450 C   0  0  0  0  0  3  0  0  0  0  0  0
  -26.1160  -32.7830   24.1060 C   0  0  0  0  0  3  0  0  0  0  0  0
  -25.8090  -34.1910   24.4060 N   0  0  0  0  0  0  0  0  0  0  0  0
  -26.0990  -35.2250   23.6030 C   0  0  0  0  0  0  0  0  0  0  0  0
  -26.7150  -35.0930   22.5430 O   0  0  0  0  0  0  0  0  0  0  0  0
  -25.2530  -34.3680   25.2300 H   0  0  0  0  0  0  0  0  0  0  0  0
  -24.3290  -36.9880   23.3150 C   0  0  0  0  0  1  0  0  0  0  0  0
  -25.6310  -36.6250   24.0460 C   0  0  0  0  0  3  0  0  0  0  0  0
  -27.8100  -37.5570   24.6840 C   0  0  0  0  0  1  0  0  0  0  0  0
  -26.6400  -37.6830   23.8200 N   0  0  0  0  0  0  0  0  0  0  0  0
  -26.2350  -38.6040   23.9680 H   0  0  0  0  0  0  0  0  0  0  0  0
  -26.6390  -32.0480   25.4010 C   0  0  1  0  0  0  0  0  0  0  0  0
  -25.5350  -31.7770   26.4520 C   0  0  0  0  0  1  0  0  0  0  0  0
  -27.2840  -30.6910   25.0400 C   0  0  0  0  0  1  0  0  0  0  0  0
  -27.7460  -32.8950   26.0730 C   0  0  0  0  0  1  0  0  0  0  0  0
  1  6  1  0
  2  1  1  0
  2  3  2  0
  3  4  1  0
  4  6  1  0
  4 11  1  0
  5  3  1  0
  6 51  1  0
 10  7  1  6
  9 10  1  0
 10  8  1  0
 10  2  1  0
 12 11  1  0
 12 21  1  0
 13 21  1  0
 14 19  1  0
 15 16  1  0
 15 14  1  0
 17 16  1  0
 17 26  1  0
 17 18  1  0
 19 13  1  0
 19 18  1  0
 20 13  2  0
 21 22  1  0
 23 24  2  0
 24 43  1  0
 25 24  1  0
 25 28  1  0
 26 23  1  0
 26 27  1  0
 27 25  2  0
 28 29  1  0
 29 30  2  0
 31 34  1  0
 31 30  1  0
 32 31  2  0
 33 32  1  0
 33 28  2  0
 34 35  1  0
 35 36  1  0
 36 37  2  0
 38 37  1  0
 38 42  1  0
 39 38  2  0
 40 35  2  0
 40 39  1  0
 41 40  1  0
 43 44  1  0
 44 47  1  0
 44 46  1  0
 45 43  2  0
 48 49  1  0
 48 23  1  0
 50 48  1  0
 52 53  1  0
 52 51  2  0
 54 65  2  0
 55 53  1  0
 55 60  1  0
 56 64  1  0
 56 66  1  0
 57 59  1  0
 58 64  1  0
 59 60  2  0
 59 58  1  0
 61 55  2  0
 62 61  1  0
 62 57  2  0
 63 57  1  0
 63 56  1  0
 64 54  1  0
 66 68  2  0
 67 66  1  0
 69 67  1  0
 70 75  1  0
 71 67  1  0
 72 71  1  0
 73 74  1  0
 73 72  1  0
 74 70  1  0
 75 71  1  0
 75 76  2  0
 77 76  1  0
 78 77  2  0
 79 70  2  0
 79 78  1  0
 80 54  1  0
 80 81  1  0
 80 90  1  0
 81 84  1  0
 82 86  1  0
 82 81  1  0
 83 82  2  0
 86 85  1  0
 88 89  1  0
 88 86  1  0
 88 87  1  0
 90 93  1  1
 90 91  1  0
 92 90  1  0
M  ISO  4  13 100  21 100  52 101  53 101
M  END
>  <TORSDO>  (22) 
F 21

>  <SCORE>  (22) 
-11.913

>  <name>  (22) 
21

>  <ligand_id>  (22) 
21

>  <original_smiles>  (22) 
[H]c1c([H])c([H])c2c(c1[H])C([H])([H])C([H])([H])C([H])([H])C2([H])N([H])C(=O)C1([H])N(C(=O)C([H])(N([H])C(=O)C([H])(N([H])C([H])([H])[H])C([H])([H])[H])C(C([H])([H])[H])(C([H])([H])[H])C([H])([H])[H])C([H])([H])c2c([H])c(OC([H])([H])C([H])([H])n3c([H])c(C(C([H])([H])[H])(C([H])([H])[H])C([H])([H])[H])c(C([H])([H])[H])c3C([H])([H])C([H])([H])N([H])C(=O)N3C([H])([H])C([H])([H])C([H])([H])C([H])(n4nc(-c5c([H])c([H])c(Oc6c([H])c([H])c(F)c([H])c6F)c([H])c5[H])c(C(=O)N([H])[H])c4N([H])[H])C3([H])[H])c([H])c([H])c2C1([H])[H]

>  <smiles>  (22) 
[H]c1c([H])c([H])c2c(c1[H])C([H])([H])C([H])([H])C([H])([H])C2([H])N([H])C(=O)C1([H])N(C(=O)C([H])(N([H])C(=O)C([H])(N([H])C([H])([H])[H])C([H])([H])[H])C(C([H])([H])[H])(C([H])([H])[H])C([H])([H])[H])C([H])([H])c2c([H])c(OC([H])([H])C([H])([H])n3c([H])c(C(C([H])([H])[H])(C([H])([H])[H])C([H])([H])[H])c(C([H])([H])[H])c3C([H])([H])C([H])([H])N([H])C(=O)N3C([H])([H])C([H])([H])C([H])([H])C([H])(n4nc(-c5c([H])c([H])c(Oc6c([H])c([H])c(F)c([H])c6F)c([H])c5[H])c(C(=O)N([H])[H])c4N([H])[H])C3([H])[H])c([H])c([H])c2C1([H])[H]

$$$$
22:0:0
     RDKit          3D

 93101  0  0  1  0  0  0  0  0999 V2000
  -29.8230  -21.5260   17.8340 C   0  0  0  0  0  3  0  0  0  0  0  0
  -30.3170  -20.7600   16.7670 C   0  0  0  0  0  0  0  0  0  0  0  0
  -29.8320  -21.0650   19.1800 C   0  0  0  0  0  0  0  0  0  0  0  0
  -30.8300  -19.4910   17.0530 C   0  0  0  0  0  0  0  0  0  0  0  0
  -30.3160  -19.6730   19.3530 C   0  0  0  0  0  0  0  0  0  0  0  0
  -30.3290  -21.3320   15.3570 C   0  0  0  0  0  1  0  0  0  0  0  0
  -31.4470  -18.5880   15.9990 C   0  0  0  0  0  1  0  0  0  0  0  0
  -30.8270  -19.0020   18.2990 N   0  0  0  0  0  0  0  0  0  0  0  0
  -29.3460  -22.1740   20.2380 C   0  0  0  0  0  2  0  0  0  0  0  0
  -29.1700  -23.7450   19.7550 C   0  0  0  0  0  3  0  0  0  0  0  0
  -28.4790  -24.9180   20.6420 C   0  0  0  0  0  3  0  0  0  0  0  0
  -28.5920  -26.3830   20.2810 O   0  0  0  0  0  0  0  0  0  0  0  0
  -24.6700  -31.7880   23.2110 C   0  0  0  0  0  0  0  0  0  0  0  0
  -27.4520  -27.2220   20.2580 C   0  0  0  0  0  0  0  0  0  0  0  0
  -23.5400  -30.3630   21.5400 C   0  0  0  0  0  3  0  0  0  0  0  0
  -25.0600  -28.8180   20.1680 C   0  0  0  0  0  0  0  0  0  0  0  0
  -26.0800  -30.7120   21.4340 C   0  0  0  0  0  2  0  0  0  0  0  0
  -26.2050  -29.3270   20.7950 C   0  0  0  0  0  0  0  0  0  0  0  0
  -27.4060  -28.5460   20.8190 C   0  0  0  0  0  3  0  0  0  0  0  0
  -26.2810  -26.7740   19.6110 C   0  0  0  0  0  3  0  0  0  0  0  0
  -25.1030  -27.5510   19.5660 C   0  0  0  0  0  3  0  0  0  0  0  0
  -23.8060  -29.6760   20.1740 C   0  0  0  0  0  2  0  0  0  0  0  0
  -24.7810  -30.9730   22.1170 N   0  0  0  0  0  0  0  0  0  0  0  0
  -23.5660  -32.0520   23.7100 O   0  0  0  0  0  0  0  0  0  0  0  0
  -22.8580  -29.3460   22.4870 C   0  0  0  0  0  0  0  0  0  0  0  0
  -21.5370  -29.1610   22.3270 N   0  0  0  0  0  0  0  0  0  0  0  0
  -23.5200  -28.7260   23.3240 O   0  0  0  0  0  0  0  0  0  0  0  0
  -21.0640  -29.7070   21.6210 H   0  0  0  0  0  0  0  0  0  0  0  0
  -18.1570  -27.9350   22.7430 C   0  0  0  0  0  0  0  0  0  0  0  0
  -20.7060  -28.2160   23.0760 C   0  0  0  0  0  3  0  0  0  0  0  0
  -20.8350  -26.7870   22.5020 C   0  0  0  0  0  2  0  0  0  0  0  0
  -19.7610  -26.4560   21.4600 C   0  0  0  0  0  2  0  0  0  0  0  0
  -18.3620  -26.5900   22.0670 C   0  0  0  0  0  2  0  0  0  0  0  0
  -19.2580  -28.7060   23.2010 C   0  0  0  0  0  0  0  0  0  0  0  0
  -19.0130  -29.9650   23.7900 C   0  0  0  0  0  3  0  0  0  0  0  0
  -17.7000  -30.4530   23.9270 C   0  0  0  0  0  3  0  0  0  0  0  0
  -16.6130  -29.6800   23.4850 C   0  0  0  0  0  3  0  0  0  0  0  0
  -16.8420  -28.4210   22.8990 C   0  0  0  0  0  3  0  0  0  0  0  0
  -25.9220  -32.4410   23.8730 C   0  0  0  0  0  3  0  0  0  0  0  0
  -25.5820  -33.8350   24.1930 N   0  0  0  0  0  0  0  0  0  0  0  0
  -25.9160  -34.8930   23.4430 C   0  0  0  0  0  0  0  0  0  0  0  0
  -26.6140  -34.7990   22.4290 O   0  0  0  0  0  0  0  0  0  0  0  0
  -24.9670  -33.9810   24.9800 H   0  0  0  0  0  0  0  0  0  0  0  0
  -24.1620  -36.6530   23.0540 C   0  0  0  0  0  1  0  0  0  0  0  0
  -25.3970  -36.2740   23.8880 C   0  0  0  0  0  3  0  0  0  0  0  0
  -27.5000  -37.2000   24.7500 C   0  0  0  0  0  1  0  0  0  0  0  0
  -26.4110  -37.3460   23.7880 N   0  0  0  0  0  0  0  0  0  0  0  0
  -25.9870  -38.2590   23.9270 H   0  0  0  0  0  0  0  0  0  0  0  0
  -26.4090  -31.6800   25.1680 C   0  0  1  0  0  0  0  0  0  0  0  0
  -25.2860  -31.4300   26.2010 C   0  0  0  0  0  1  0  0  0  0  0  0
  -27.0250  -30.3100   24.8030 C   0  0  0  0  0  1  0  0  0  0  0  0
  -27.5290  -32.4930   25.8610 C   0  0  0  0  0  1  0  0  0  0  0  0
  -30.5910  -18.7610   20.6270 C   0  0  0  0  0  2  0  0  0  0  0  0
  -30.1460  -16.8480   22.3400 C   0  0  0  0  0  1  0  0  0  0  0  0
  -30.0380  -17.2140   20.8420 C   0  0  0  0  0  3  0  0  0  0  0  0
  -31.1310  -14.8000   20.2260 C   0  0  0  0  0  0  0  0  0  0  0  0
  -30.8430  -12.5130   19.2290 C   0  0  0  0  0  2  0  0  0  0  0  0
  -29.9040  -12.6010   18.0070 C   0  0  0  0  0  2  0  0  0  0  0  0
  -28.4230  -12.5320   18.4400 C   0  0  0  0  0  2  0  0  0  0  0  0
  -28.0950  -13.4140   19.6780 C   0  0  0  0  0  3  0  0  0  0  0  0
  -29.1650  -13.2680   20.7770 C   0  0  0  0  0  2  0  0  0  0  0  0
  -30.4520  -13.5980   20.1580 N   0  0  0  0  0  0  0  0  0  0  0  0
  -32.3540  -14.8020   20.0450 O   0  0  0  0  0  0  0  0  0  0  0  0
  -30.0980  -16.2430   18.5650 C   0  0  0  0  0  1  0  0  0  0  0  0
  -30.4070  -15.9830   19.9790 N   0  0  0  0  0  0  0  0  0  0  0  0
  -25.7310  -14.1050   20.3900 C   0  0  0  0  0  0  0  0  0  0  0  0
  -24.6340  -13.3710   20.7550 C   0  0  0  0  0  0  0  0  0  0  0  0
  -25.0520  -12.0050   20.7410 C   0  0  0  0  0  0  0  0  0  0  0  0
  -26.7440  -13.1830   20.1740 N   0  0  0  0  0  0  0  0  0  0  0  0
  -26.3430  -11.9180   20.4500 N   0  0  0  0  0  0  0  0  0  0  0  0
  -24.2840  -10.7680   20.9380 C   0  0  0  0  0  0  0  0  0  0  0  0
  -24.6650   -9.8070   21.9000 C   0  0  0  0  0  3  0  0  0  0  0  0
  -23.8990   -8.6370   22.0830 C   0  0  0  0  0  3  0  0  0  0  0  0
  -22.7380   -8.4170   21.3010 C   0  0  0  0  0  0  0  0  0  0  0  0
  -22.3810   -9.3650   20.3240 C   0  0  0  0  0  3  0  0  0  0  0  0
  -23.1480  -10.5270   20.1400 C   0  0  0  0  0  3  0  0  0  0  0  0
  -21.9470   -7.2970   21.3900 O   0  0  0  0  0  0  0  0  0  0  0  0
  -21.8130   -6.6040   22.5670 C   0  0  0  0  0  0  0  0  0  0  0  0
  -21.3400   -7.2200   23.7460 C   0  0  0  0  0  3  0  0  0  0  0  0
  -21.1540   -6.4550   24.9150 C   0  0  0  0  0  3  0  0  0  0  0  0
  -21.4280   -5.0740   24.9050 C   0  0  0  0  0  0  0  0  0  0  0  0
  -21.8930   -4.4570   23.7290 C   0  0  0  0  0  3  0  0  0  0  0  0
  -22.0810   -5.2210   22.5630 C   0  0  0  0  0  0  0  0  0  0  0  0
  -22.5070   -4.6170   21.4270 F   0  0  0  0  0  0  0  0  0  0  0  0
  -21.2440   -4.3360   26.0240 F   0  0  0  0  0  0  0  0  0  0  0  0
  -23.2530  -13.8970   21.0110 C   0  0  0  0  0  0  0  0  0  0  0  0
  -22.5040  -13.2380   21.8900 N   0  0  0  0  0  0  0  0  0  0  0  0
  -22.8490  -14.9250   20.4700 O   0  0  0  0  0  0  0  0  0  0  0  0
  -22.8460  -12.4040   22.3440 H   0  0  0  0  0  0  0  0  0  0  0  0
  -21.5770  -13.5720   22.1140 H   0  0  0  0  0  0  0  0  0  0  0  0
  -25.9520  -15.4650   20.2030 N   0  0  0  0  0  0  0  0  0  0  0  0
  -25.2320  -16.1700   20.3270 H   0  0  0  0  0  0  0  0  0  0  0  0
  -26.8500  -15.8580   19.9510 H   0  0  0  0  0  0  0  0  0  0  0  0
  1  3  1  0
  2  4  1  0
  2  1  2  0
  3  5  2  0
  3  9  1  0
  4  8  2  0
  5 53  1  0
  6  2  1  0
  7  4  1  0
  8  5  1  0
 10  9  1  0
 10 11  2  0
 12 11  1  0
 13 24  2  0
 14 12  1  0
 14 19  1  0
 15 23  1  0
 15 25  1  0
 16 22  1  0
 16 18  1  0
 17 23  1  0
 18 19  2  0
 18 17  1  0
 20 14  2  0
 21 20  1  0
 21 16  2  0
 22 15  1  0
 23 13  1  0
 25 27  2  0
 26 25  1  0
 28 26  1  0
 29 38  2  0
 29 34  1  0
 30 26  1  0
 30 34  1  0
 31 30  1  0
 32 33  1  0
 32 31  1  0
 33 29  1  0
 34 35  2  0
 35 36  1  0
 37 36  2  0
 38 37  1  0
 39 13  1  0
 39 40  1  0
 39 49  1  0
 40 43  1  0
 41 45  1  0
 41 40  1  0
 42 41  2  0
 45 44  1  0
 47 45  1  0
 47 48  1  0
 47 46  1  0
 49 52  1  1
 49 50  1  0
 51 49  1  0
 53 55  1  0
 55 54  1  0
 57 62  1  0
 58 59  1  0
 58 57  1  0
 60 59  1  0
 60 69  1  0
 60 61  1  0
 62 56  1  0
 62 61  1  0
 63 56  2  0
 64 65  1  0
 65 56  1  0
 65 55  1  0
 66 67  2  0
 67 86  1  0
 68 67  1  0
 68 71  1  0
 69 66  1  0
 69 70  1  0
 70 68  2  0
 71 72  1  0
 72 73  2  0
 74 77  1  0
 74 73  1  0
 75 74  2  0
 76 75  1  0
 76 71  2  0
 77 78  1  0
 78 79  1  0
 79 80  2  0
 81 80  1  0
 81 85  1  0
 82 81  2  0
 83 78  2  0
 83 82  1  0
 84 83  1  0
 86 87  1  0
 87 90  1  0
 87 89  1  0
 88 86  2  0
 91 92  1  0
 91 66  1  0
 93 91  1  0
M  ISO  4  11 101  12 101  56 100  65 100
M  END
>  <TORSDO>  (23) 
F 21

>  <SCORE>  (23) 
-12.904

>  <name>  (23) 
22

>  <ligand_id>  (23) 
22

>  <original_smiles>  (23) 
[H]c1c([H])c([H])c2c(c1[H])C([H])([H])C([H])([H])C([H])([H])C2([H])N([H])C(=O)C1([H])N(C(=O)C([H])(N([H])C(=O)C([H])(N([H])C([H])([H])[H])C([H])([H])[H])C(C([H])([H])[H])(C([H])([H])[H])C([H])([H])[H])C([H])([H])c2c([H])c(OC([H])([H])C([H])([H])C([H])([H])c3c(C([H])([H])C([H])(N(C(=O)N4C([H])([H])C([H])([H])C([H])([H])C([H])(n5nc(-c6c([H])c([H])c(Oc7c([H])c([H])c(F)c([H])c7F)c([H])c6[H])c(C(=O)N([H])[H])c5N([H])[H])C4([H])[H])C([H])([H])[H])C([H])([H])[H])nc(C([H])([H])[H])c(C([H])([H])[H])c3[H])c([H])c([H])c2C1([H])[H]

>  <smiles>  (23) 
[H]c1c([H])c([H])c2c(c1[H])C([H])([H])C([H])([H])C([H])([H])C2([H])N([H])C(=O)C1([H])N(C(=O)C([H])(N([H])C(=O)C([H])(N([H])C([H])([H])[H])C([H])([H])[H])C(C([H])([H])[H])(C([H])([H])[H])C([H])([H])[H])C([H])([H])c2c([H])c(OC([H])([H])C([H])([H])C([H])([H])c3c(C([H])([H])C([H])(N(C(=O)N4C([H])([H])C([H])([H])C([H])([H])C([H])(n5nc(-c6c([H])c([H])c(Oc7c([H])c([H])c(F)c([H])c7F)c([H])c6[H])c(C(=O)N([H])[H])c5N([H])[H])C4([H])[H])C([H])([H])[H])C([H])([H])[H])nc(C([H])([H])[H])c(C([H])([H])[H])c3[H])c([H])c([H])c2C1([H])[H]

$$$$
23:0:0
     RDKit          3D

 94102  0  0  1  0  0  0  0  0999 V2000
  -31.7140  -22.2600   20.2370 C   0  0  0  0  0  3  0  0  0  0  0  0
  -29.5580  -21.2460   20.6080 C   0  0  0  0  0  3  0  0  0  0  0  0
  -30.4180  -22.3460   20.7770 C   0  0  0  0  0  0  0  0  0  0  0  0
  -32.0850  -21.0920   19.5410 C   0  0  0  0  0  0  0  0  0  0  0  0
  -30.0010  -20.1200   19.8820 C   0  0  0  0  0  0  0  0  0  0  0  0
  -33.4590  -20.9600   18.9200 C   0  0  0  0  0  1  0  0  0  0  0  0
  -31.2440  -20.0520   19.3510 N   0  0  0  0  0  0  0  0  0  0  0  0
  -28.4770  -19.5230   18.0220 C   0  0  0  0  0  1  0  0  0  0  0  0
  -28.9810  -19.0810   19.4160 C   0  0  0  0  0  3  0  0  0  0  0  0
  -28.3890  -16.6730   18.7970 C   0  0  0  0  0  1  0  0  0  0  0  0
  -29.4290  -17.5770   19.4970 C   0  0  0  0  0  3  0  0  0  0  0  0
  -29.7760  -17.1000   20.9490 C   0  0  0  0  0  2  0  0  0  0  0  0
  -30.5100  -14.6630   20.8970 C   0  0  0  0  0  0  0  0  0  0  0  0
  -30.4180  -12.4530   19.8120 C   0  0  0  0  0  2  0  0  0  0  0  0
  -29.5420  -12.5770   18.5470 C   0  0  0  0  0  2  0  0  0  0  0  0
  -28.0440  -12.4180   18.8820 C   0  0  0  0  0  2  0  0  0  0  0  0
  -27.5950  -13.2390   20.1210 C   0  0  0  0  0  3  0  0  0  0  0  0
  -28.5940  -13.0740   21.2900 C   0  0  0  0  0  2  0  0  0  0  0  0
  -29.9330  -13.4340   20.7920 N   0  0  0  0  0  0  0  0  0  0  0  0
  -31.6650  -14.9050   20.5430 O   0  0  0  0  0  0  0  0  0  0  0  0
  -29.6420  -15.6490   21.1900 N   0  0  0  0  0  0  0  0  0  0  0  0
  -28.7260  -15.3340   21.4700 H   0  0  0  0  0  0  0  0  0  0  0  0
  -25.1300  -13.7560   20.6540 C   0  0  0  0  0  0  0  0  0  0  0  0
  -24.0740  -12.9410   20.9650 C   0  0  0  0  0  0  0  0  0  0  0  0
  -24.5970  -11.6130   20.9930 C   0  0  0  0  0  0  0  0  0  0  0  0
  -26.2250  -12.9180   20.5140 N   0  0  0  0  0  0  0  0  0  0  0  0
  -25.9050  -11.6270   20.7730 N   0  0  0  0  0  0  0  0  0  0  0  0
  -23.9190  -10.3210   21.1600 C   0  0  0  0  0  0  0  0  0  0  0  0
  -24.3440   -9.3840   22.1250 C   0  0  0  0  0  3  0  0  0  0  0  0
  -23.6630   -8.1580   22.2810 C   0  0  0  0  0  3  0  0  0  0  0  0
  -22.5440   -7.8600   21.4660 C   0  0  0  0  0  0  0  0  0  0  0  0
  -22.1390   -8.7890   20.4910 C   0  0  0  0  0  3  0  0  0  0  0  0
  -22.8200  -10.0070   20.3360 C   0  0  0  0  0  3  0  0  0  0  0  0
  -21.8380   -6.6820   21.5260 O   0  0  0  0  0  0  0  0  0  0  0  0
  -21.7770   -5.9390   22.6790 C   0  0  0  0  0  0  0  0  0  0  0  0
  -21.2650   -6.4720   23.8820 C   0  0  0  0  0  3  0  0  0  0  0  0
  -21.1520   -5.6540   25.0230 C   0  0  0  0  0  3  0  0  0  0  0  0
  -21.5430   -4.3020   24.9620 C   0  0  0  0  0  0  0  0  0  0  0  0
  -22.0490   -3.7680   23.7640 C   0  0  0  0  0  3  0  0  0  0  0  0
  -22.1620   -4.5830   22.6250 C   0  0  0  0  0  0  0  0  0  0  0  0
  -22.6300   -4.0590   21.4650 F   0  0  0  0  0  0  0  0  0  0  0  0
  -21.4300   -3.5150   26.0540 F   0  0  0  0  0  0  0  0  0  0  0  0
  -22.6410  -13.3560   21.1370 C   0  0  0  0  0  0  0  0  0  0  0  0
  -21.8960  -12.6380   21.9700 N   0  0  0  0  0  0  0  0  0  0  0  0
  -22.1890  -14.3500   20.5710 O   0  0  0  0  0  0  0  0  0  0  0  0
  -22.2750  -11.8300   22.4410 H   0  0  0  0  0  0  0  0  0  0  0  0
  -20.9350  -12.9000   22.1400 H   0  0  0  0  0  0  0  0  0  0  0  0
  -25.2450  -15.1300   20.4610 N   0  0  0  0  0  0  0  0  0  0  0  0
  -24.4440  -15.7500   20.4970 H   0  0  0  0  0  0  0  0  0  0  0  0
  -26.0910  -15.5950   20.1580 H   0  0  0  0  0  0  0  0  0  0  0  0
  -29.9320  -23.6090   21.4750 C   0  0  0  0  0  2  0  0  0  0  0  0
  -29.6130  -24.7570   20.4940 C   0  0  0  0  0  2  0  0  0  0  0  0
  -28.7150  -25.8440   21.1120 C   0  0  0  0  0  2  0  0  0  0  0  0
  -28.6090  -26.9510   20.2190 O   0  0  0  0  0  0  0  0  0  0  0  0
  -24.6210  -31.9970   23.2930 C   0  0  0  0  0  0  0  0  0  0  0  0
  -27.4150  -27.6250   20.2610 C   0  0  0  0  0  0  0  0  0  0  0  0
  -23.4720  -30.5680   21.6320 C   0  0  0  0  0  3  0  0  0  0  0  0
  -24.9810  -29.0520   20.2420 C   0  0  0  0  0  0  0  0  0  0  0  0
  -25.9900  -30.9830   21.4730 C   0  0  0  0  0  2  0  0  0  0  0  0
  -26.1160  -29.6120   20.8440 C   0  0  0  0  0  0  0  0  0  0  0  0
  -27.3380  -28.9040   20.8500 C   0  0  0  0  0  3  0  0  0  0  0  0
  -26.2660  -27.0670   19.6630 C   0  0  0  0  0  3  0  0  0  0  0  0
  -25.0490  -27.7770   19.6500 C   0  0  0  0  0  3  0  0  0  0  0  0
  -23.7180  -29.8840   20.2600 C   0  0  0  0  0  2  0  0  0  0  0  0
  -24.7110  -31.1970   22.1930 N   0  0  0  0  0  0  0  0  0  0  0  0
  -23.5260  -32.2480   23.8140 O   0  0  0  0  0  0  0  0  0  0  0  0
  -22.8210  -29.5390   22.5830 C   0  0  0  0  0  0  0  0  0  0  0  0
  -21.5060  -29.3210   22.4210 N   0  0  0  0  0  0  0  0  0  0  0  0
  -23.4980  -28.9370   23.4220 O   0  0  0  0  0  0  0  0  0  0  0  0
  -21.0220  -29.8610   21.7180 H   0  0  0  0  0  0  0  0  0  0  0  0
  -18.1520  -28.0360   22.8210 C   0  0  0  0  0  0  0  0  0  0  0  0
  -20.6910  -28.3680   23.1730 C   0  0  0  0  0  3  0  0  0  0  0  0
  -20.8530  -26.9350   22.6130 C   0  0  0  0  0  2  0  0  0  0  0  0
  -19.7930  -26.5740   21.5680 C   0  0  0  0  0  2  0  0  0  0  0  0
  -18.3870  -26.6860   22.1650 C   0  0  0  0  0  2  0  0  0  0  0  0
  -19.2350  -28.8330   23.2800 C   0  0  0  0  0  0  0  0  0  0  0  0
  -18.9610  -30.0960   23.8490 C   0  0  0  0  0  3  0  0  0  0  0  0
  -17.6380  -30.5620   23.9660 C   0  0  0  0  0  3  0  0  0  0  0  0
  -16.5700  -29.7620   23.5240 C   0  0  0  0  0  3  0  0  0  0  0  0
  -16.8280  -28.5020   22.9580 C   0  0  0  0  0  3  0  0  0  0  0  0
  -25.8840  -32.6500   23.9370 C   0  0  0  0  0  3  0  0  0  0  0  0
  -25.5580  -34.0510   24.2320 N   0  0  0  0  0  0  0  0  0  0  0  0
  -25.9060  -35.0910   23.4620 C   0  0  0  0  0  0  0  0  0  0  0  0
  -26.6080  -34.9720   22.4530 O   0  0  0  0  0  0  0  0  0  0  0  0
  -24.9380  -34.2170   25.0120 H   0  0  0  0  0  0  0  0  0  0  0  0
  -24.1820  -36.8650   23.0130 C   0  0  0  0  0  1  0  0  0  0  0  0
  -25.3960  -36.4840   23.8750 C   0  0  0  0  0  3  0  0  0  0  0  0
  -27.4940  -37.3950   24.7670 C   0  0  0  0  0  1  0  0  0  0  0  0
  -26.4260  -37.5410   23.7820 N   0  0  0  0  0  0  0  0  0  0  0  0
  -26.0100  -38.4600   23.9000 H   0  0  0  0  0  0  0  0  0  0  0  0
  -26.3760  -31.9050   25.2380 C   0  0  1  0  0  0  0  0  0  0  0  0
  -25.2590  -31.6690   26.2820 C   0  0  0  0  0  1  0  0  0  0  0  0
  -26.9820  -30.5290   24.8780 C   0  0  0  0  0  1  0  0  0  0  0  0
  -27.5020  -32.7210   25.9160 C   0  0  0  0  0  1  0  0  0  0  0  0
  1  3  1  0
  2  3  2  0
  3 51  1  0
  4  1  2  0
  5  2  1  0
  6  4  1  0
  7  4  1  0
  7  5  2  0
  9  8  1  0
  9 11  1  0
  9  5  1  0
 11 10  1  0
 11 12  1  0
 12 21  1  0
 13 21  1  0
 14 19  1  0
 15 16  1  0
 15 14  1  0
 17 16  1  0
 17 26  1  0
 17 18  1  0
 19 13  1  0
 19 18  1  0
 20 13  2  0
 21 22  1  0
 23 24  2  0
 24 25  1  0
 24 43  1  0
 25 28  1  0
 26 23  1  0
 26 27  1  0
 27 25  2  0
 28 29  1  0
 29 30  2  0
 31 34  1  0
 31 30  1  0
 32 31  2  0
 33 32  1  0
 33 28  2  0
 34 35  1  0
 35 36  1  0
 36 37  2  0
 38 37  1  0
 38 42  1  0
 39 38  2  0
 40 35  2  0
 40 39  1  0
 41 40  1  0
 43 44  1  0
 44 47  1  0
 44 46  1  0
 45 43  2  0
 48 49  1  0
 48 23  1  0
 50 48  1  0
 52 53  1  0
 52 51  1  0
 54 56  1  0
 54 53  1  0
 55 66  2  0
 56 61  1  0
 57 65  1  0
 57 67  1  0
 58 64  1  0
 58 60  1  0
 59 65  1  0
 60 61  2  0
 60 59  1  0
 62 56  2  0
 63 62  1  0
 63 58  2  0
 64 57  1  0
 65 55  1  0
 67 69  2  0
 68 67  1  0
 70 68  1  0
 71 80  2  0
 71 76  1  0
 72 68  1  0
 72 76  1  0
 73 72  1  0
 74 75  1  0
 74 73  1  0
 75 71  1  0
 76 77  2  0
 77 78  1  0
 79 78  2  0
 80 79  1  0
 81 55  1  0
 81 82  1  0
 81 91  1  0
 82 85  1  0
 83 87  1  0
 83 82  1  0
 84 83  2  0
 87 86  1  0
 89 87  1  0
 89 90  1  0
 89 88  1  0
 91 94  1  1
 91 92  1  0
 93 91  1  0
M  ISO  4  13 100  21 100  53 101  54 101
M  END
>  <TORSDO>  (24) 
F 22

>  <SCORE>  (24) 
-13.161

>  <name>  (24) 
23

>  <ligand_id>  (24) 
23

>  <original_smiles>  (24) 
[H]c1c([H])c([H])c2c(c1[H])C([H])([H])C([H])([H])C([H])([H])C2([H])N([H])C(=O)C1([H])N(C(=O)C([H])(N([H])C(=O)C([H])(N([H])C([H])([H])[H])C([H])([H])[H])C(C([H])([H])[H])(C([H])([H])[H])C([H])([H])[H])C([H])([H])c2c([H])c(OC([H])([H])C([H])([H])C([H])([H])c3c([H])c(C([H])([H])[H])nc(C([H])(C([H])([H])[H])C([H])(C([H])([H])[H])C([H])([H])N([H])C(=O)N4C([H])([H])C([H])([H])C([H])([H])C([H])(n5nc(-c6c([H])c([H])c(Oc7c([H])c([H])c(F)c([H])c7F)c([H])c6[H])c(C(=O)N([H])[H])c5N([H])[H])C4([H])[H])c3[H])c([H])c([H])c2C1([H])[H]

>  <smiles>  (24) 
[H]c1c([H])c([H])c2c(c1[H])C([H])([H])C([H])([H])C([H])([H])C2([H])N([H])C(=O)C1([H])N(C(=O)C([H])(N([H])C(=O)C([H])(N([H])C([H])([H])[H])C([H])([H])[H])C(C([H])([H])[H])(C([H])([H])[H])C([H])([H])[H])C([H])([H])c2c([H])c(OC([H])([H])C([H])([H])C([H])([H])c3c([H])c(C([H])([H])[H])nc(C([H])(C([H])([H])[H])C([H])(C([H])([H])[H])C([H])([H])N([H])C(=O)N4C([H])([H])C([H])([H])C([H])([H])C([H])(n5nc(-c6c([H])c([H])c(Oc7c([H])c([H])c(F)c([H])c7F)c([H])c6[H])c(C(=O)N([H])[H])c5N([H])[H])C4([H])[H])c3[H])c([H])c([H])c2C1([H])[H]

$$$$
24:0:0
     RDKit          3D

 95103  0  0  1  0  0  0  0  0999 V2000
  -29.2560  -21.5430   21.3980 C   0  0  0  0  0  3  0  0  0  0  0  0
  -29.5830  -20.1690   21.3950 C   0  0  0  0  0  0  0  0  0  0  0  0
  -30.2870  -22.4770   21.1850 C   0  0  0  0  0  0  0  0  0  0  0  0
  -30.9380  -19.8100   21.1480 C   0  0  0  0  0  0  0  0  0  0  0  0
  -28.4970  -19.1560   21.7160 C   0  0  0  0  0  1  0  0  0  0  0  0
  -31.5600  -22.0770   20.9310 N   0  0  0  0  0  0  0  0  0  0  0  0
  -31.8770  -20.7720   20.9280 N   0  0  0  0  0  0  0  0  0  0  0  0
  -32.7280  -18.2920   22.0990 C   0  0  0  0  0  1  0  0  0  0  0  0
  -31.4390  -18.3440   21.2620 C   0  0  0  0  0  3  0  0  0  0  0  0
  -31.5860  -17.5160   19.9360 C   0  0  0  0  0  3  0  0  0  0  0  0
  -32.0080  -15.0030   19.7450 C   0  0  0  0  0  0  0  0  0  0  0  0
  -31.6240  -12.7830   18.7350 C   0  0  0  0  0  2  0  0  0  0  0  0
  -30.6200  -12.9330   17.5710 C   0  0  0  0  0  2  0  0  0  0  0  0
  -29.1700  -12.8410   18.0840 C   0  0  0  0  0  2  0  0  0  0  0  0
  -28.9130  -13.7570   19.3080 C   0  0  0  0  0  3  0  0  0  0  0  0
  -30.0190  -13.5830   20.3750 C   0  0  0  0  0  2  0  0  0  0  0  0
  -31.3180  -13.8270   19.7260 N   0  0  0  0  0  0  0  0  0  0  0  0
  -33.1270  -15.1260   19.2420 O   0  0  0  0  0  0  0  0  0  0  0  0
  -31.3000  -16.0750   20.1640 N   0  0  0  0  0  0  0  0  0  0  0  0
  -30.3960  -15.8560   20.5520 H   0  0  0  0  0  0  0  0  0  0  0  0
  -26.6080  -14.5000   20.1880 C   0  0  0  0  0  0  0  0  0  0  0  0
  -25.5150  -13.7860   20.5970 C   0  0  0  0  0  0  0  0  0  0  0  0
  -25.8830  -12.4110   20.4920 C   0  0  0  0  0  0  0  0  0  0  0  0
  -27.5760  -13.5620   19.8620 N   0  0  0  0  0  0  0  0  0  0  0  0
  -27.1480  -12.2980   20.1050 N   0  0  0  0  0  0  0  0  0  0  0  0
  -25.0910  -11.1910   20.6840 C   0  0  0  0  0  0  0  0  0  0  0  0
  -25.4000  -10.2630   21.7030 C   0  0  0  0  0  3  0  0  0  0  0  0
  -24.6120   -9.1050   21.8780 C   0  0  0  0  0  3  0  0  0  0  0  0
  -23.5000   -8.8700   21.0350 C   0  0  0  0  0  0  0  0  0  0  0  0
  -23.2120   -9.7850   20.0070 C   0  0  0  0  0  3  0  0  0  0  0  0
  -24.0000  -10.9340   19.8300 C   0  0  0  0  0  3  0  0  0  0  0  0
  -22.6930   -7.7610   21.1150 O   0  0  0  0  0  0  0  0  0  0  0  0
  -22.3370   -7.2170   22.3230 C   0  0  0  0  0  0  0  0  0  0  0  0
  -21.6570   -7.9680   23.3060 C   0  0  0  0  0  3  0  0  0  0  0  0
  -21.2490   -7.3520   24.5060 C   0  0  0  0  0  3  0  0  0  0  0  0
  -21.5110   -5.9850   24.7200 C   0  0  0  0  0  0  0  0  0  0  0  0
  -22.1830   -5.2340   23.7400 C   0  0  0  0  0  3  0  0  0  0  0  0
  -22.5930   -5.8490   22.5430 C   0  0  0  0  0  0  0  0  0  0  0  0
  -23.2220   -5.1170   21.5930 F   0  0  0  0  0  0  0  0  0  0  0  0
  -21.1120   -5.3890   25.8680 F   0  0  0  0  0  0  0  0  0  0  0  0
  -24.1710  -14.3420   20.9680 C   0  0  0  0  0  0  0  0  0  0  0  0
  -23.4720  -13.6910   21.8920 N   0  0  0  0  0  0  0  0  0  0  0  0
  -23.7500  -15.3870   20.4730 O   0  0  0  0  0  0  0  0  0  0  0  0
  -23.8230  -12.8450   22.3130 H   0  0  0  0  0  0  0  0  0  0  0  0
  -22.5730  -14.0470   22.1840 H   0  0  0  0  0  0  0  0  0  0  0  0
  -26.8440  -15.8640   20.0450 N   0  0  0  0  0  0  0  0  0  0  0  0
  -26.1170  -16.5490   20.2180 H   0  0  0  0  0  0  0  0  0  0  0  0
  -27.6760  -16.2640   19.6380 H   0  0  0  0  0  0  0  0  0  0  0  0
  -30.7620  -18.0590   18.7350 C   0  0  0  0  0  2  0  0  0  0  0  0
  -28.4520  -18.6880   17.7930 C   0  0  0  0  0  1  0  0  0  0  0  0
  -29.2360  -17.9480   18.8850 C   0  0  0  0  0  2  0  0  0  0  0  0
  -30.0260  -23.9770   21.3660 C   0  0  0  0  0  2  0  0  0  0  0  0
  -29.4840  -24.7440   20.1340 C   0  0  0  0  0  2  0  0  0  0  0  0
  -29.1550  -26.2240   20.4650 C   0  0  0  0  0  2  0  0  0  0  0  0
  -28.7300  -26.9660   19.3150 O   0  0  0  0  0  0  0  0  0  0  0  0
  -24.6740  -31.5810   22.9620 C   0  0  0  0  0  0  0  0  0  0  0  0
  -27.5320  -27.6290   19.4500 C   0  0  0  0  0  0  0  0  0  0  0  0
  -23.5280  -30.2710   21.2040 C   0  0  0  0  0  3  0  0  0  0  0  0
  -25.0490  -28.9650   19.6290 C   0  0  0  0  0  0  0  0  0  0  0  0
  -26.0230  -30.8040   21.0150 C   0  0  0  0  0  2  0  0  0  0  0  0
  -26.1830  -29.5040   20.2540 C   0  0  0  0  0  0  0  0  0  0  0  0
  -27.4290  -28.8450   20.1640 C   0  0  0  0  0  3  0  0  0  0  0  0
  -26.3880  -27.1000   18.8210 C   0  0  0  0  0  3  0  0  0  0  0  0
  -25.1460  -27.7610   18.9090 C   0  0  0  0  0  3  0  0  0  0  0  0
  -23.7560  -29.7380   19.7660 C   0  0  0  0  0  2  0  0  0  0  0  0
  -24.7590  -30.8970   21.7870 N   0  0  0  0  0  0  0  0  0  0  0  0
  -23.5850  -31.7330   23.5390 O   0  0  0  0  0  0  0  0  0  0  0  0
  -22.9550  -29.1270   22.0680 C   0  0  0  0  0  0  0  0  0  0  0  0
  -21.6440  -28.8660   21.9260 N   0  0  0  0  0  0  0  0  0  0  0  0
  -23.6830  -28.4790   22.8240 O   0  0  0  0  0  0  0  0  0  0  0  0
  -21.1120  -29.4430   21.2900 H   0  0  0  0  0  0  0  0  0  0  0  0
  -18.3600  -27.4200   22.3300 C   0  0  0  0  0  0  0  0  0  0  0  0
  -20.9000  -27.8080   22.6100 C   0  0  0  0  0  3  0  0  0  0  0  0
  -21.0850  -26.4500   21.8950 C   0  0  0  0  0  2  0  0  0  0  0  0
  -19.9920  -26.1600   20.8620 C   0  0  0  0  0  2  0  0  0  0  0  0
  -18.6110  -26.1560   21.5250 C   0  0  0  0  0  2  0  0  0  0  0  0
  -19.4340  -28.2050   22.8250 C   0  0  0  0  0  0  0  0  0  0  0  0
  -19.1450  -29.3920   23.5330 C   0  0  0  0  0  3  0  0  0  0  0  0
  -17.8130  -29.7910   23.7560 C   0  0  0  0  0  3  0  0  0  0  0  0
  -16.7540  -29.0040   23.2730 C   0  0  0  0  0  3  0  0  0  0  0  0
  -17.0270  -27.8190   22.5670 C   0  0  0  0  0  3  0  0  0  0  0  0
  -25.9270  -32.2250   23.6290 C   0  0  0  0  0  3  0  0  0  0  0  0
  -25.5650  -33.5950   24.0200 N   0  0  0  0  0  0  0  0  0  0  0  0
  -25.9010  -34.6950   23.3350 C   0  0  0  0  0  0  0  0  0  0  0  0
  -26.6180  -34.6670   22.3300 O   0  0  0  0  0  0  0  0  0  0  0  0
  -24.9290  -33.6910   24.7990 H   0  0  0  0  0  0  0  0  0  0  0  0
  -24.1400  -36.4580   22.9950 C   0  0  0  0  0  1  0  0  0  0  0  0
  -25.3540  -36.0430   23.8420 C   0  0  0  0  0  3  0  0  0  0  0  0
  -27.4200  -36.9370   24.8240 C   0  0  0  0  0  1  0  0  0  0  0  0
  -26.3610  -37.1270   23.8360 N   0  0  0  0  0  0  0  0  0  0  0  0
  -25.9230  -38.0270   24.0110 H   0  0  0  0  0  0  0  0  0  0  0  0
  -26.4600  -31.4130   24.8710 C   0  0  1  0  0  0  0  0  0  0  0  0
  -25.3560  -31.0480   25.8920 C   0  0  0  0  0  1  0  0  0  0  0  0
  -27.1350  -30.0990   24.4130 C   0  0  0  0  0  1  0  0  0  0  0  0
  -27.5410  -32.2350   25.6120 C   0  0  0  0  0  1  0  0  0  0  0  0
  2  1  1  0
  2  5  1  0
  3 52  1  0
  3  1  2  0
  4  9  1  0
  4  2  2  0
  6  3  1  0
  7  6  2  0
  7  4  1  0
  9  8  1  0
 10 49  1  0
 10 19  1  0
 10  9  1  0
 11 19  1  0
 12 17  1  0
 13 14  1  0
 13 12  1  0
 15 14  1  0
 15 24  1  0
 15 16  1  0
 17 11  1  0
 17 16  1  0
 18 11  2  0
 19 20  1  0
 21 22  2  0
 22 41  1  0
 23 22  1  0
 23 26  1  0
 24 25  1  0
 24 21  1  0
 25 23  2  0
 26 27  1  0
 27 28  2  0
 29 32  1  0
 29 28  1  0
 30 29  2  0
 31 30  1  0
 31 26  2  0
 32 33  1  0
 33 38  2  0
 33 34  1  0
 34 35  2  0
 35 36  1  0
 36 40  1  0
 37 36  2  0
 38 37  1  0
 39 38  1  0
 41 42  1  0
 42 45  1  0
 42 44  1  0
 43 41  2  0
 46 21  1  0
 46 47  1  0
 48 46  1  0
 49 51  1  0
 50 51  1  0
 53 54  1  0
 53 52  1  0
 55 57  1  0
 55 54  1  0
 56 67  2  0
 57 62  1  0
 58 66  1  0
 58 68  1  0
 59 65  1  0
 59 61  1  0
 60 66  1  0
 61 60  1  0
 62 61  2  0
 63 64  1  0
 63 57  2  0
 64 59  2  0
 65 58  1  0
 66 56  1  0
 68 70  2  0
 69 68  1  0
 71 69  1  0
 72 81  2  0
 72 77  1  0
 73 69  1  0
 73 77  1  0
 74 73  1  0
 75 76  1  0
 75 74  1  0
 76 72  1  0
 77 78  2  0
 78 79  1  0
 80 79  2  0
 81 80  1  0
 82 56  1  0
 82 83  1  0
 82 92  1  0
 83 86  1  0
 84 88  1  0
 84 83  1  0
 85 84  2  0
 88 87  1  0
 90 88  1  0
 90 91  1  0
 90 89  1  0
 92 95  1  1
 92 93  1  0
 94 92  1  0
M  ISO  4  11 100  19 100  54 101  55 101
M  END
>  <TORSDO>  (25) 
F 23

>  <SCORE>  (25) 
-7.616

>  <name>  (25) 
24

>  <ligand_id>  (25) 
24

>  <original_smiles>  (25) 
[H]c1c([H])c([H])c2c(c1[H])C([H])([H])C([H])([H])C([H])([H])C2([H])N([H])C(=O)C1([H])N(C(=O)C([H])(N([H])C(=O)C([H])(N([H])C([H])([H])[H])C([H])([H])[H])C(C([H])([H])[H])(C([H])([H])[H])C([H])([H])[H])C([H])([H])c2c([H])c(OC([H])([H])C([H])([H])C([H])([H])c3nnc(C([H])(C([H])([H])[H])C([H])(N([H])C(=O)N4C([H])([H])C([H])([H])C([H])([H])C([H])(n5nc(-c6c([H])c([H])c(Oc7c([H])c([H])c(F)c([H])c7F)c([H])c6[H])c(C(=O)N([H])[H])c5N([H])[H])C4([H])[H])C([H])([H])C([H])([H])C([H])([H])[H])c(C([H])([H])[H])c3[H])c([H])c([H])c2C1([H])[H]

>  <smiles>  (25) 
[H]c1c([H])c([H])c2c(c1[H])C([H])([H])C([H])([H])C([H])([H])C2([H])N([H])C(=O)C1([H])N(C(=O)C([H])(N([H])C(=O)C([H])(N([H])C([H])([H])[H])C([H])([H])[H])C(C([H])([H])[H])(C([H])([H])[H])C([H])([H])[H])C([H])([H])c2c([H])c(OC([H])([H])C([H])([H])C([H])([H])c3nnc(C([H])(C([H])([H])[H])C([H])(N([H])C(=O)N4C([H])([H])C([H])([H])C([H])([H])C([H])(n5nc(-c6c([H])c([H])c(Oc7c([H])c([H])c(F)c([H])c7F)c([H])c6[H])c(C(=O)N([H])[H])c5N([H])[H])C4([H])[H])C([H])([H])C([H])([H])C([H])([H])[H])c(C([H])([H])[H])c3[H])c([H])c([H])c2C1([H])[H]

$$$$
25:0:0
     RDKit          3D

 93101  0  0  1  0  0  0  0  0999 V2000
  -30.0930  -20.0250   19.6120 C   0  0  0  0  0  2  0  0  0  0  0  0
  -29.8250  -21.2800   20.2860 C   0  0  0  0  0  0  0  0  0  0  0  0
  -30.7400  -19.1020   20.4180 C   0  0  0  0  0  3  0  0  0  0  0  0
  -30.2420  -21.0540   21.5890 C   0  0  0  0  0  0  0  0  0  0  0  0
  -31.8330  -19.3580   22.6530 C   0  0  0  0  0  1  0  0  0  0  0  0
  -30.9670  -19.8300   21.5910 N   0  0  0  0  0  0  0  0  0  0  0  0
  -28.7060  -22.6970   22.8390 C   0  0  0  0  0  1  0  0  0  0  0  0
  -31.1780  -22.9440   23.0240 C   0  0  0  0  0  1  0  0  0  0  0  0
  -29.9200  -21.0690   24.1560 C   0  0  0  0  0  1  0  0  0  0  0  0
  -30.0400  -21.9120   22.8590 C   0  0  2  0  0  0  0  0  0  0  0  0
  -29.0640  -22.5220   19.6640 C   0  0  0  0  0  2  0  0  0  0  0  0
  -29.5250  -24.0530   19.8500 C   0  0  0  0  0  3  0  0  0  0  0  0
  -28.3930  -25.1500   19.5630 C   0  0  0  0  0  3  0  0  0  0  0  0
  -28.5470  -26.6020   19.8710 O   0  0  0  0  0  0  0  0  0  0  0  0
  -24.6780  -31.7590   23.1730 C   0  0  0  0  0  0  0  0  0  0  0  0
  -27.4020  -27.4290   19.8590 C   0  0  0  0  0  0  0  0  0  0  0  0
  -23.4970  -30.3880   21.4940 C   0  0  0  0  0  3  0  0  0  0  0  0
  -24.9790  -28.9650   19.9690 C   0  0  0  0  0  0  0  0  0  0  0  0
  -26.0210  -30.8030   21.2860 C   0  0  0  0  0  2  0  0  0  0  0  0
  -26.1390  -29.4580   20.5770 C   0  0  0  0  0  0  0  0  0  0  0  0
  -27.3500  -28.6980   20.5220 C   0  0  0  0  0  3  0  0  0  0  0  0
  -26.2140  -27.0120   19.2090 C   0  0  0  0  0  3  0  0  0  0  0  0
  -25.0180  -27.7480   19.2770 C   0  0  0  0  0  3  0  0  0  0  0  0
  -23.7110  -29.7880   20.0800 C   0  0  0  0  0  2  0  0  0  0  0  0
  -24.7520  -30.9990   22.0410 N   0  0  0  0  0  0  0  0  0  0  0  0
  -23.5950  -31.9720   23.7370 O   0  0  0  0  0  0  0  0  0  0  0  0
  -22.8920  -29.3030   22.4170 C   0  0  0  0  0  0  0  0  0  0  0  0
  -21.5750  -29.0660   22.2900 N   0  0  0  0  0  0  0  0  0  0  0  0
  -23.6060  -28.6810   23.2100 O   0  0  0  0  0  0  0  0  0  0  0  0
  -21.0580  -29.6280   21.6290 H   0  0  0  0  0  0  0  0  0  0  0  0
  -18.2760  -27.6390   22.7050 C   0  0  0  0  0  0  0  0  0  0  0  0
  -20.8060  -28.0620   23.0280 C   0  0  0  0  0  3  0  0  0  0  0  0
  -21.0130  -26.6510   22.4310 C   0  0  0  0  0  2  0  0  0  0  0  0
  -19.9520  -26.2750   21.3900 C   0  0  0  0  0  2  0  0  0  0  0  0
  -18.5530  -26.3170   22.0110 C   0  0  0  0  0  2  0  0  0  0  0  0
  -19.3340  -28.4660   23.1690 C   0  0  0  0  0  0  0  0  0  0  0  0
  -19.0220  -29.7010   23.7760 C   0  0  0  0  0  3  0  0  0  0  0  0
  -17.6840  -30.1100   23.9290 C   0  0  0  0  0  3  0  0  0  0  0  0
  -16.6390  -29.2810   23.4840 C   0  0  0  0  0  3  0  0  0  0  0  0
  -16.9370  -28.0480   22.8760 C   0  0  0  0  0  3  0  0  0  0  0  0
  -25.9470  -32.4130   23.8000 C   0  0  0  0  0  3  0  0  0  0  0  0
  -25.6100  -33.8030   24.1370 N   0  0  0  0  0  0  0  0  0  0  0  0
  -25.9340  -34.8670   23.3910 C   0  0  0  0  0  0  0  0  0  0  0  0
  -26.6190  -34.7830   22.3680 O   0  0  0  0  0  0  0  0  0  0  0  0
  -25.0020  -33.9390   24.9310 H   0  0  0  0  0  0  0  0  0  0  0  0
  -24.1730  -36.6320   23.0380 C   0  0  0  0  0  1  0  0  0  0  0  0
  -25.4190  -36.2450   23.8520 C   0  0  0  0  0  3  0  0  0  0  0  0
  -27.5320  -37.1660   24.6980 C   0  0  0  0  0  1  0  0  0  0  0  0
  -26.4310  -37.3190   23.7500 N   0  0  0  0  0  0  0  0  0  0  0  0
  -26.0060  -38.2310   23.9020 H   0  0  0  0  0  0  0  0  0  0  0  0
  -26.4760  -31.6450   25.0750 C   0  0  1  0  0  0  0  0  0  0  0  0
  -25.3870  -31.3930   26.1460 C   0  0  0  0  0  1  0  0  0  0  0  0
  -27.0730  -30.2750   24.6810 C   0  0  0  0  0  1  0  0  0  0  0  0
  -27.6220  -32.4500   25.7310 C   0  0  0  0  0  1  0  0  0  0  0  0
  -31.2950  -17.6570   20.0660 C   0  0  0  0  0  2  0  0  0  0  0  0
  -31.0060  -16.0820   22.1680 C   0  0  0  0  0  1  0  0  0  0  0  0
  -30.7570  -16.2350   20.6460 C   0  0  0  0  0  3  0  0  0  0  0  0
  -31.3530  -14.9060   19.9840 C   0  0  0  0  0  0  0  0  0  0  0  0
  -30.9960  -12.6230   19.0070 C   0  0  0  0  0  2  0  0  0  0  0  0
  -30.0140  -12.6880   17.8180 C   0  0  0  0  0  2  0  0  0  0  0  0
  -28.5550  -12.6040   18.3060 C   0  0  0  0  0  2  0  0  0  0  0  0
  -28.2670  -13.5650   19.4890 C   0  0  0  0  0  3  0  0  0  0  0  0
  -29.3560  -13.4570   20.5770 C   0  0  0  0  0  2  0  0  0  0  0  0
  -30.6560  -13.7190   19.9430 N   0  0  0  0  0  0  0  0  0  0  0  0
  -32.4670  -14.9730   19.4550 O   0  0  0  0  0  0  0  0  0  0  0  0
  -25.9830  -14.3100   20.3950 C   0  0  0  0  0  0  0  0  0  0  0  0
  -24.8700  -13.6080   20.7690 C   0  0  0  0  0  0  0  0  0  0  0  0
  -25.2040  -12.2270   20.6150 C   0  0  0  0  0  0  0  0  0  0  0  0
  -26.9280  -13.3640   20.0340 N   0  0  0  0  0  0  0  0  0  0  0  0
  -26.4680  -12.1000   20.2280 N   0  0  0  0  0  0  0  0  0  0  0  0
  -24.3760  -11.0220   20.7570 C   0  0  0  0  0  0  0  0  0  0  0  0
  -24.7860   -9.9330   21.5580 C   0  0  0  0  0  3  0  0  0  0  0  0
  -23.9620   -8.7950   21.6950 C   0  0  0  0  0  3  0  0  0  0  0  0
  -22.7140   -8.7370   21.0300 C   0  0  0  0  0  0  0  0  0  0  0  0
  -22.3210   -9.8150   20.2170 C   0  0  0  0  0  3  0  0  0  0  0  0
  -23.1440  -10.9450   20.0780 C   0  0  0  0  0  3  0  0  0  0  0  0
  -21.8610   -7.6610   21.0820 O   0  0  0  0  0  0  0  0  0  0  0  0
  -21.8230   -6.8240   22.1690 C   0  0  0  0  0  0  0  0  0  0  0  0
  -21.5720   -7.3070   23.4720 C   0  0  0  0  0  3  0  0  0  0  0  0
  -21.4730   -6.4050   24.5490 C   0  0  0  0  0  3  0  0  0  0  0  0
  -21.6160   -5.0220   24.3270 C   0  0  0  0  0  0  0  0  0  0  0  0
  -21.8600   -4.5400   23.0300 C   0  0  0  0  0  3  0  0  0  0  0  0
  -21.9600   -5.4380   21.9530 C   0  0  0  0  0  0  0  0  0  0  0  0
  -22.1750   -4.9660   20.7010 F   0  0  0  0  0  0  0  0  0  0  0  0
  -21.5140   -4.1550   25.3610 F   0  0  0  0  0  0  0  0  0  0  0  0
  -23.5390  -14.1830   21.1590 C   0  0  0  0  0  0  0  0  0  0  0  0
  -22.8070  -13.5000   22.0310 N   0  0  0  0  0  0  0  0  0  0  0  0
  -23.1620  -15.2710   20.7250 O   0  0  0  0  0  0  0  0  0  0  0  0
  -23.1250  -12.6150   22.4000 H   0  0  0  0  0  0  0  0  0  0  0  0
  -21.9170  -13.8660   22.3360 H   0  0  0  0  0  0  0  0  0  0  0  0
  -26.2630  -15.6710   20.3090 N   0  0  0  0  0  0  0  0  0  0  0  0
  -25.5700  -16.3800   20.5250 H   0  0  0  0  0  0  0  0  0  0  0  0
  -27.1380  -16.0590   19.9810 H   0  0  0  0  0  0  0  0  0  0  0  0
  1  2  1  0
  1  3  1  0
  2  4  2  0
  3 55  1  0
  3  6  1  0
  4  6  1  0
  4 10  1  0
  6  5  1  0
 10  7  1  6
 10  8  1  0
 10  9  1  0
 11 12  1  0
 11  2  1  0
 13 12  2  0
 13 14  1  0
 15 26  2  0
 16 14  1  0
 16 21  1  0
 17 25  1  0
 17 27  1  0
 18 24  1  0
 18 20  1  0
 19 25  1  0
 20 19  1  0
 21 20  2  0
 22 23  1  0
 22 16  2  0
 23 18  2  0
 24 17  1  0
 25 15  1  0
 27 29  2  0
 28 27  1  0
 30 28  1  0
 31 40  2  0
 31 36  1  0
 32 28  1  0
 32 36  1  0
 33 32  1  0
 34 35  1  0
 34 33  1  0
 35 31  1  0
 36 37  2  0
 37 38  1  0
 39 38  2  0
 40 39  1  0
 41 15  1  0
 41 42  1  0
 41 51  1  0
 42 45  1  0
 43 47  1  0
 43 42  1  0
 44 43  2  0
 47 46  1  0
 49 47  1  0
 49 50  1  0
 49 48  1  0
 51 54  1  1
 51 52  1  0
 53 51  1  0
 55 57  1  0
 57 56  1  0
 58 57  1  0
 59 64  1  0
 60 61  1  0
 60 59  1  0
 62 61  1  0
 62 69  1  0
 62 63  1  0
 64 58  1  0
 64 63  1  0
 65 58  2  0
 66 67  2  0
 67 86  1  0
 68 71  1  0
 68 67  1  0
 69 70  1  0
 69 66  1  0
 70 68  2  0
 71 72  1  0
 72 73  2  0
 74 77  1  0
 74 73  1  0
 75 74  2  0
 76 75  1  0
 76 71  2  0
 77 78  1  0
 78 79  1  0
 79 80  2  0
 81 80  1  0
 81 85  1  0
 82 81  2  0
 83 78  2  0
 83 82  1  0
 84 83  1  0
 86 87  1  0
 87 90  1  0
 87 89  1  0
 88 86  2  0
 91 66  1  0
 91 92  1  0
 93 91  1  0
M  ISO  4  13 101  14 101  57 100  58 100
M  END
>  <TORSDO>  (26) 
F 22

>  <SCORE>  (26) 
-10.950

>  <name>  (26) 
25

>  <ligand_id>  (26) 
25

>  <original_smiles>  (26) 
[H]c1c([H])c([H])c2c(c1[H])C([H])([H])C([H])([H])C([H])([H])C2([H])N([H])C(=O)C1([H])N(C(=O)C([H])(N([H])C(=O)C([H])(N([H])C([H])([H])[H])C([H])([H])[H])C(C([H])([H])[H])(C([H])([H])[H])C([H])([H])[H])C([H])([H])c2c([H])c(OC([H])([H])C([H])([H])C([H])([H])c3c([H])c(C([H])([H])C([H])(C(=O)N4C([H])([H])C([H])([H])C([H])([H])C([H])(n5nc(-c6c([H])c([H])c(Oc7c([H])c([H])c(F)c([H])c7F)c([H])c6[H])c(C(=O)N([H])[H])c5N([H])[H])C4([H])[H])C([H])([H])[H])n(C([H])([H])[H])c3C(C([H])([H])[H])(C([H])([H])[H])C([H])([H])[H])c([H])c([H])c2C1([H])[H]

>  <smiles>  (26) 
[H]c1c([H])c([H])c2c(c1[H])C([H])([H])C([H])([H])C([H])([H])C2([H])N([H])C(=O)C1([H])N(C(=O)C([H])(N([H])C(=O)C([H])(N([H])C([H])([H])[H])C([H])([H])[H])C(C([H])([H])[H])(C([H])([H])[H])C([H])([H])[H])C([H])([H])c2c([H])c(OC([H])([H])C([H])([H])C([H])([H])c3c([H])c(C([H])([H])C([H])(C(=O)N4C([H])([H])C([H])([H])C([H])([H])C([H])(n5nc(-c6c([H])c([H])c(Oc7c([H])c([H])c(F)c([H])c7F)c([H])c6[H])c(C(=O)N([H])[H])c5N([H])[H])C4([H])[H])C([H])([H])[H])n(C([H])([H])[H])c3C(C([H])([H])[H])(C([H])([H])[H])C([H])([H])[H])c([H])c([H])c2C1([H])[H]

$$$$
26:0:0
     RDKit          3D

 98106  0  0  1  0  0  0  0  0999 V2000
  -29.0660  -22.2860   20.6330 C   0  0  0  0  0  3  0  0  0  0  0  0
  -29.3360  -21.1160   21.3590 C   0  0  0  0  0  0  0  0  0  0  0  0
  -29.6480  -19.9200   20.6540 C   0  0  0  0  0  0  0  0  0  0  0  0
  -29.1250  -22.2940   19.2400 C   0  0  0  0  0  0  0  0  0  0  0  0
  -29.8800  -19.9970   19.2470 C   0  0  0  0  0  0  0  0  0  0  0  0
  -29.1780  -21.1890   22.8720 C   0  0  0  0  0  1  0  0  0  0  0  0
  -29.6150  -21.1830   18.5710 N   0  0  0  0  0  0  0  0  0  0  0  0
  -27.4350  -22.8790   17.4650 C   0  0  0  0  0  1  0  0  0  0  0  0
  -28.3900  -23.5030   18.5190 C   0  0  0  0  0  3  0  0  0  0  0  0
  -28.6170  -25.3800   16.6680 C   0  0  0  0  0  1  0  0  0  0  0  0
  -30.6350  -24.4040   17.7150 C   0  0  0  0  0  1  0  0  0  0  0  0
  -29.1790  -24.8220   18.0120 C   0  0  2  0  0  0  0  0  0  0  0  0
  -29.2450  -26.1570   18.9240 C   0  0  0  0  0  2  0  0  0  0  0  0
  -28.3440  -26.5870   19.9840 O   0  0  0  0  0  0  0  0  0  0  0  0
  -24.8980  -31.8420   23.4720 C   0  0  0  0  0  0  0  0  0  0  0  0
  -27.3580  -27.5700   19.8790 C   0  0  0  0  0  0  0  0  0  0  0  0
  -23.6700  -30.7330   21.6360 C   0  0  0  0  0  3  0  0  0  0  0  0
  -25.0800  -29.2880   20.0500 C   0  0  0  0  0  0  0  0  0  0  0  0
  -26.2310  -30.8990   21.5760 C   0  0  0  0  0  2  0  0  0  0  0  0
  -26.2480  -29.6170   20.7490 C   0  0  0  0  0  0  0  0  0  0  0  0
  -27.3820  -28.7570   20.6770 C   0  0  0  0  0  3  0  0  0  0  0  0
  -26.1810  -27.2830   19.1710 C   0  0  0  0  0  3  0  0  0  0  0  0
  -25.0480  -28.1260   19.2550 C   0  0  0  0  0  3  0  0  0  0  0  0
  -23.8870  -30.2180   20.1890 C   0  0  0  0  0  2  0  0  0  0  0  0
  -24.9500  -31.1660   22.2850 N   0  0  0  0  0  0  0  0  0  0  0  0
  -23.8170  -32.1260   24.0030 O   0  0  0  0  0  0  0  0  0  0  0  0
  -22.9100  -29.6570   22.4420 C   0  0  0  0  0  0  0  0  0  0  0  0
  -21.5750  -29.6180   22.2890 N   0  0  0  0  0  0  0  0  0  0  0  0
  -23.5200  -28.8680   23.1690 O   0  0  0  0  0  0  0  0  0  0  0  0
  -21.1430  -30.3010   21.6790 H   0  0  0  0  0  0  0  0  0  0  0  0
  -18.0910  -28.7120   22.6280 C   0  0  0  0  0  0  0  0  0  0  0  0
  -20.6580  -28.6590   22.9140 C   0  0  0  0  0  3  0  0  0  0  0  0
  -20.6170  -27.3310   22.1180 C   0  0  0  0  0  2  0  0  0  0  0  0
  -19.4960  -27.2920   21.0750 C   0  0  0  0  0  2  0  0  0  0  0  0
  -18.1310  -27.4740   21.7470 C   0  0  0  0  0  2  0  0  0  0  0  0
  -19.2760  -29.2770   23.1610 C   0  0  0  0  0  0  0  0  0  0  0  0
  -19.1840  -30.4530   23.9410 C   0  0  0  0  0  3  0  0  0  0  0  0
  -17.9340  -31.0500   24.1930 C   0  0  0  0  0  3  0  0  0  0  0  0
  -16.7610  -30.4720   23.6810 C   0  0  0  0  0  3  0  0  0  0  0  0
  -16.8400  -29.3050   22.9010 C   0  0  0  0  0  3  0  0  0  0  0  0
  -26.1920  -32.2970   24.2090 C   0  0  0  0  0  3  0  0  0  0  0  0
  -25.9540  -33.6510   24.7280 N   0  0  0  0  0  0  0  0  0  0  0  0
  -26.3780  -34.7790   24.1400 C   0  0  0  0  0  0  0  0  0  0  0  0
  -27.0790  -34.7850   23.1240 O   0  0  0  0  0  0  0  0  0  0  0  0
  -25.3240  -33.7300   25.5140 H   0  0  0  0  0  0  0  0  0  0  0  0
  -24.7690  -36.7080   24.0050 C   0  0  0  0  0  1  0  0  0  0  0  0
  -25.9600  -36.1160   24.7780 C   0  0  0  0  0  3  0  0  0  0  0  0
  -28.1210  -36.7390   25.7660 C   0  0  0  0  0  1  0  0  0  0  0  0
  -27.0550  -37.1080   24.8370 N   0  0  0  0  0  0  0  0  0  0  0  0
  -26.7010  -38.0230   25.1030 H   0  0  0  0  0  0  0  0  0  0  0  0
  -26.6240  -31.3200   25.3730 C   0  0  1  0  0  0  0  0  0  0  0  0
  -25.4720  -30.9700   26.3480 C   0  0  0  0  0  1  0  0  0  0  0  0
  -27.1710  -29.9910   24.8000 C   0  0  0  0  0  1  0  0  0  0  0  0
  -27.7820  -31.9500   26.1870 C   0  0  0  0  0  1  0  0  0  0  0  0
  -29.5800  -18.5770   21.4050 C   0  0  0  0  0  2  0  0  0  0  0  0
  -27.8270  -17.8980   19.6590 C   0  0  0  0  0  1  0  0  0  0  0  0
  -28.4230  -16.2970   21.5050 C   0  0  0  0  0  1  0  0  0  0  0  0
  -28.2800  -17.7820   21.1280 C   0  0  0  0  0  3  0  0  0  0  0  0
  -30.1930  -18.6980   18.3890 C   0  0  0  0  0  2  0  0  0  0  0  0
  -31.2640  -17.5770   18.8230 C   0  0  0  0  0  2  0  0  0  0  0  0
  -31.4490  -15.0370   19.3940 C   0  0  0  0  0  0  0  0  0  0  0  0
  -31.1340  -12.6420   18.8700 C   0  0  0  0  0  2  0  0  0  0  0  0
  -30.2060  -12.5530   17.6390 C   0  0  0  0  0  2  0  0  0  0  0  0
  -28.7390  -12.4870   18.1060 C   0  0  0  0  0  2  0  0  0  0  0  0
  -28.3830  -13.5950   19.1400 C   0  0  0  0  0  3  0  0  0  0  0  0
  -29.4510  -13.6980   20.2480 C   0  0  0  0  0  2  0  0  0  0  0  0
  -30.7550  -13.8700   19.5920 N   0  0  0  0  0  0  0  0  0  0  0  0
  -32.6530  -15.0150   19.1350 O   0  0  0  0  0  0  0  0  0  0  0  0
  -30.7400  -16.2020   19.2190 N   0  0  0  0  0  0  0  0  0  0  0  0
  -29.7420  -16.1270   19.3250 H   0  0  0  0  0  0  0  0  0  0  0  0
  -26.0540  -14.3770   19.8840 C   0  0  0  0  0  0  0  0  0  0  0  0
  -24.9520  -13.6950   20.3260 C   0  0  0  0  0  0  0  0  0  0  0  0
  -25.3340  -12.3160   20.3690 C   0  0  0  0  0  0  0  0  0  0  0  0
  -27.0360  -13.4210   19.6780 N   0  0  0  0  0  0  0  0  0  0  0  0
  -26.6090  -12.1790   20.0330 N   0  0  0  0  0  0  0  0  0  0  0  0
  -24.5350  -11.1150   20.6480 C   0  0  0  0  0  0  0  0  0  0  0  0
  -24.8970  -10.2120   21.6700 C   0  0  0  0  0  3  0  0  0  0  0  0
  -24.1030   -9.0750   21.9350 C   0  0  0  0  0  3  0  0  0  0  0  0
  -22.9320   -8.8370   21.1760 C   0  0  0  0  0  0  0  0  0  0  0  0
  -22.5890   -9.7280   20.1430 C   0  0  0  0  0  3  0  0  0  0  0  0
  -23.3860  -10.8560   19.8800 C   0  0  0  0  0  3  0  0  0  0  0  0
  -22.1160   -7.7400   21.3410 O   0  0  0  0  0  0  0  0  0  0  0  0
  -21.8760   -7.2040   22.5780 C   0  0  0  0  0  0  0  0  0  0  0  0
  -21.3480   -7.9770   23.6380 C   0  0  0  0  0  3  0  0  0  0  0  0
  -21.0480   -7.3720   24.8720 C   0  0  0  0  0  3  0  0  0  0  0  0
  -21.2660   -5.9930   25.0550 C   0  0  0  0  0  0  0  0  0  0  0  0
  -21.7850   -5.2190   24.0010 C   0  0  0  0  0  3  0  0  0  0  0  0
  -22.0860   -5.8210   22.7690 C   0  0  0  0  0  0  0  0  0  0  0  0
  -22.5670   -5.0680   21.7520 F   0  0  0  0  0  0  0  0  0  0  0  0
  -20.9710   -5.4110   26.2390 F   0  0  0  0  0  0  0  0  0  0  0  0
  -23.5940  -14.2770   20.5990 C   0  0  0  0  0  0  0  0  0  0  0  0
  -22.8630  -13.7090   21.5520 N   0  0  0  0  0  0  0  0  0  0  0  0
  -23.1930  -15.2740   20.0000 O   0  0  0  0  0  0  0  0  0  0  0  0
  -23.2080  -12.9110   22.0630 H   0  0  0  0  0  0  0  0  0  0  0  0
  -21.9540  -14.0800   21.7810 H   0  0  0  0  0  0  0  0  0  0  0  0
  -26.2980  -15.7210   19.6230 N   0  0  0  0  0  0  0  0  0  0  0  0
  -25.5830  -16.4320   19.7180 H   0  0  0  0  0  0  0  0  0  0  0  0
  -27.1630  -16.0710   19.2440 H   0  0  0  0  0  0  0  0  0  0  0  0
  1  2  1  0
  2  6  1  0
  3  2  2  0
  3 55  1  0
  4  1  2  0
  5  3  1  0
  7  4  1  0
  7  5  2  0
  9  8  1  0
  9  4  1  0
 12 10  1  6
 11 12  1  0
 12  9  1  0
 12 13  1  0
 13 14  1  0
 15 26  2  0
 16 14  1  0
 16 21  1  0
 17 25  1  0
 17 27  1  0
 18 24  1  0
 18 20  1  0
 19 25  1  0
 20 19  1  0
 21 20  2  0
 22 23  1  0
 22 16  2  0
 23 18  2  0
 24 17  1  0
 25 15  1  0
 27 29  2  0
 28 27  1  0
 30 28  1  0
 31 40  2  0
 31 36  1  0
 32 28  1  0
 32 36  1  0
 33 32  1  0
 34 35  1  0
 34 33  1  0
 35 31  1  0
 36 37  2  0
 37 38  1  0
 39 38  2  0
 40 39  1  0
 41 15  1  0
 41 42  1  0
 41 51  1  0
 42 45  1  0
 43 42  1  0
 43 47  1  0
 44 43  2  0
 47 46  1  0
 47 49  1  0
 49 50  1  0
 49 48  1  0
 51 54  1  1
 51 52  1  0
 53 51  1  0
 56 58  1  0
 58 55  1  0
 58 57  1  0
 59 60  1  0
 59  5  1  0
 60 69  1  0
 61 67  1  0
 62 67  1  0
 63 64  1  0
 63 62  1  0
 65 64  1  0
 65 74  1  0
 65 66  1  0
 67 66  1  0
 68 61  2  0
 69 70  1  0
 69 61  1  0
 71 72  2  0
 72 73  1  0
 72 91  1  0
 73 76  1  0
 74 71  1  0
 74 75  1  0
 75 73  2  0
 76 77  1  0
 77 78  2  0
 79 82  1  0
 79 78  1  0
 80 79  2  0
 81 80  1  0
 81 76  2  0
 82 83  1  0
 83 88  2  0
 83 84  1  0
 84 85  2  0
 85 86  1  0
 86 90  1  0
 87 86  2  0
 88 87  1  0
 89 88  1  0
 91 92  1  0
 92 95  1  0
 92 94  1  0
 93 91  2  0
 96 97  1  0
 96 71  1  0
 98 96  1  0
M  ISO  4  13 101  14 101  61 100  69 100
M  END
>  <TORSDO>  (27) 
F 23

>  <SCORE>  (27) 
-7.734

>  <name>  (27) 
26

>  <ligand_id>  (27) 
26

>  <original_smiles>  (27) 
[H]c1c([H])c([H])c2c(c1[H])C([H])([H])C([H])([H])C([H])([H])C2([H])N([H])C(=O)C1([H])N(C(=O)C([H])(N([H])C(=O)C([H])(N([H])C([H])([H])[H])C([H])([H])[H])C(C([H])([H])[H])(C([H])([H])[H])C([H])([H])[H])C([H])([H])c2c([H])c(OC([H])([H])C(C([H])([H])[H])(C([H])([H])[H])C([H])(c3nc(C([H])([H])C([H])([H])N([H])C(=O)N4C([H])([H])C([H])([H])C([H])([H])C([H])(n5nc(-c6c([H])c([H])c(Oc7c([H])c([H])c(F)c([H])c7F)c([H])c6[H])c(C(=O)N([H])[H])c5N([H])[H])C4([H])[H])c(C([H])([H])C([H])(C([H])([H])[H])C([H])([H])[H])c(C([H])([H])[H])c3[H])C([H])([H])[H])c([H])c([H])c2C1([H])[H]

>  <smiles>  (27) 
[H]c1c([H])c([H])c2c(c1[H])C([H])([H])C([H])([H])C([H])([H])C2([H])N([H])C(=O)C1([H])N(C(=O)C([H])(N([H])C(=O)C([H])(N([H])C([H])([H])[H])C([H])([H])[H])C(C([H])([H])[H])(C([H])([H])[H])C([H])([H])[H])C([H])([H])c2c([H])c(OC([H])([H])C(C([H])([H])[H])(C([H])([H])[H])C([H])(c3nc(C([H])([H])C([H])([H])N([H])C(=O)N4C([H])([H])C([H])([H])C([H])([H])C([H])(n5nc(-c6c([H])c([H])c(Oc7c([H])c([H])c(F)c([H])c7F)c([H])c6[H])c(C(=O)N([H])[H])c5N([H])[H])C4([H])[H])c(C([H])([H])C([H])(C([H])([H])[H])C([H])([H])[H])c(C([H])([H])[H])c3[H])C([H])([H])[H])c([H])c([H])c2C1([H])[H]

$$$$
27:0:0
     RDKit          3D

 94 99  0  0  1  0  0  0  0  0999 V2000
  -28.0990  -18.6990   18.2260 C   0  0  0  0  0  3  0  0  0  0  0  0
  -25.5320  -18.7800   18.9600 C   0  0  0  0  0  3  0  0  0  0  0  0
  -27.5740  -20.0940   18.5470 C   0  0  0  0  0  0  0  0  0  0  0  0
  -26.1980  -20.0440   18.8840 C   0  0  0  0  0  0  0  0  0  0  0  0
  -27.3340  -17.3880   18.2770 C   0  0  0  0  0  0  0  0  0  0  0  0
  -26.0440  -17.5460   18.6590 N   0  0  0  0  0  0  0  0  0  0  0  0
  -24.6820  -21.3170   20.3030 C   0  0  0  0  0  1  0  0  0  0  0  0
  -24.8750  -21.8220   17.9040 C   0  0  0  0  0  1  0  0  0  0  0  0
  -25.4900  -21.2480   19.0980 N   0  0  0  0  0  0  0  0  0  0  0  0
  -28.3170  -21.6350   18.4470 C   0  0  0  0  0  2  0  0  0  0  0  0
  -28.2570  -23.0870   19.4460 C   0  0  0  0  0  2  0  0  0  0  0  0
  -27.9870  -24.7860   19.1060 C   0  0  0  0  0  2  0  0  0  0  0  0
  -28.4210  -26.2310   19.7440 O   0  0  0  0  0  0  0  0  0  0  0  0
  -24.9450  -31.9580   23.3650 C   0  0  0  0  0  0  0  0  0  0  0  0
  -27.4990  -27.3720   19.8840 C   0  0  0  0  0  0  0  0  0  0  0  0
  -23.7830  -30.6390   21.6650 C   0  0  0  0  0  3  0  0  0  0  0  0
  -25.2340  -29.2090   20.1130 C   0  0  0  0  0  0  0  0  0  0  0  0
  -26.3540  -30.8900   21.5360 C   0  0  0  0  0  2  0  0  0  0  0  0
  -26.4270  -29.5470   20.7660 C   0  0  0  0  0  0  0  0  0  0  0  0
  -27.5650  -28.6310   20.6570 C   0  0  0  0  0  3  0  0  0  0  0  0
  -26.2920  -27.2280   19.1830 C   0  0  0  0  0  3  0  0  0  0  0  0
  -25.1890  -28.0700   19.3160 C   0  0  0  0  0  3  0  0  0  0  0  0
  -24.0100  -30.0930   20.2410 C   0  0  0  0  0  2  0  0  0  0  0  0
  -25.0520  -31.1880   22.2380 N   0  0  0  0  0  0  0  0  0  0  0  0
  -23.8470  -32.1930   23.8960 O   0  0  0  0  0  0  0  0  0  0  0  0
  -23.1330  -29.5440   22.5480 C   0  0  0  0  0  0  0  0  0  0  0  0
  -21.8090  -29.3470   22.4120 N   0  0  0  0  0  0  0  0  0  0  0  0
  -23.8220  -28.8860   23.3300 O   0  0  0  0  0  0  0  0  0  0  0  0
  -21.3080  -29.9330   21.7570 H   0  0  0  0  0  0  0  0  0  0  0  0
  -18.4590  -28.0350   22.8510 C   0  0  0  0  0  0  0  0  0  0  0  0
  -21.0120  -28.3490   23.1290 C   0  0  0  0  0  3  0  0  0  0  0  0
  -21.1500  -26.9570   22.4730 C   0  0  0  0  0  2  0  0  0  0  0  0
  -20.0580  -26.6630   21.4410 C   0  0  0  0  0  2  0  0  0  0  0  0
  -18.6730  -26.7330   22.0910 C   0  0  0  0  0  2  0  0  0  0  0  0
  -19.5590  -28.8020   23.3220 C   0  0  0  0  0  0  0  0  0  0  0  0
  -19.3100  -30.0180   23.9930 C   0  0  0  0  0  3  0  0  0  0  0  0
  -17.9940  -30.4740   24.1940 C   0  0  0  0  0  3  0  0  0  0  0  0
  -16.9070  -29.7090   23.7380 C   0  0  0  0  0  3  0  0  0  0  0  0
  -17.1400  -28.4900   23.0750 C   0  0  0  0  0  3  0  0  0  0  0  0
  -26.1960  -32.6010   24.0290 C   0  0  0  0  0  3  0  0  0  0  0  0
  -25.8530  -33.9900   24.3780 N   0  0  0  0  0  0  0  0  0  0  0  0
  -26.2140  -35.0720   23.6740 C   0  0  0  0  0  0  0  0  0  0  0  0
  -26.9440  -35.0070   22.6800 O   0  0  0  0  0  0  0  0  0  0  0  0
  -25.2070  -34.1120   25.1440 H   0  0  0  0  0  0  0  0  0  0  0  0
  -24.5040  -36.8800   23.2780 C   0  0  0  0  0  1  0  0  0  0  0  0
  -25.6900  -36.4430   24.1530 C   0  0  0  0  0  3  0  0  0  0  0  0
  -27.7600  -37.3050   25.1510 C   0  0  0  0  0  1  0  0  0  0  0  0
  -26.7200  -37.5040   24.1440 N   0  0  0  0  0  0  0  0  0  0  0  0
  -26.2990  -38.4150   24.2980 H   0  0  0  0  0  0  0  0  0  0  0  0
  -26.6800  -31.8210   25.3140 C   0  0  1  0  0  0  0  0  0  0  0  0
  -25.5590  -31.5720   26.3500 C   0  0  0  0  0  1  0  0  0  0  0  0
  -27.2800  -30.4460   24.9390 C   0  0  0  0  0  1  0  0  0  0  0  0
  -27.8030  -32.6210   26.0170 C   0  0  0  0  0  1  0  0  0  0  0  0
  -27.7100  -15.7650   17.7630 C   0  0  0  0  0  2  0  0  0  0  0  0
  -27.6870  -14.0400   18.4570 C   0  0  0  0  0  2  0  0  0  0  0  0
  -28.8360  -13.0580   19.6130 C   0  0  0  0  0  1  0  0  0  0  0  0
  -31.0180  -13.7380   21.9680 C   0  0  0  0  0  3  0  0  0  0  0  0
  -31.2450  -13.1520   19.6980 C   0  0  0  0  0  1  0  0  0  0  0  0
  -30.3080  -14.7930   19.1170 C   0  0  0  0  0 15  0  0  0  0  0  0
  -28.5220  -15.3110   20.2540 C   0  0  0  0  0 15  0  0  0  0  0  0
  -27.7190  -14.0050   21.5020 C   0  0  0  0  0  2  0  0  0  0  0  0
  -28.7630  -12.5320   22.0480 C   0  0  0  0  0  2  0  0  0  0  0  0
  -30.4720  -12.7540   21.3070 N   0  0  1  0  0  4  0  0  0  0  0  0
  -31.9180  -14.5970   21.8150 O   0  0  0  0  0  1  0  0  0  0  0  0
  -30.0620  -14.0210   21.2560 N   0  0  0  0  0  0  0  0  0  0  0  0
  -30.0640  -15.0210   21.1450 H   0  0  0  0  0  0  0  0  0  0  0  0
  -25.2990  -14.2470   21.0090 C   0  0  0  0  0  0  0  0  0  0  0  0
  -24.2520  -13.3860   21.1200 C   0  0  0  0  0  0  0  0  0  0  0  0
  -24.7930  -12.0680   21.1680 C   0  0  0  0  0  0  0  0  0  0  0  0
  -26.4090  -13.4780   21.1500 N   0  0  0  0  0  0  0  0  0  0  0  0
  -26.1110  -12.1390   21.1970 N   0  0  0  0  0  0  0  0  0  0  0  0
  -24.1170  -10.7600   21.2010 C   0  0  0  0  0  0  0  0  0  0  0  0
  -24.4060   -9.7960   22.1900 C   0  0  0  0  0  3  0  0  0  0  0  0
  -23.6970   -8.5790   22.2260 C   0  0  0  0  0  3  0  0  0  0  0  0
  -22.6740   -8.3160   21.2830 C   0  0  0  0  0  0  0  0  0  0  0  0
  -22.4050   -9.2700   20.2910 C   0  0  0  0  0  3  0  0  0  0  0  0
  -23.1190  -10.4800   20.2460 C   0  0  0  0  0  3  0  0  0  0  0  0
  -21.9380   -7.1610   21.2300 O   0  0  0  0  0  0  0  0  0  0  0  0
  -21.6820   -6.4090   22.3540 C   0  0  0  0  0  0  0  0  0  0  0  0
  -21.0060   -6.9380   23.4740 C   0  0  0  0  0  3  0  0  0  0  0  0
  -20.6930   -6.1070   24.5670 C   0  0  0  0  0  3  0  0  0  0  0  0
  -21.0490   -4.7460   24.5430 C   0  0  0  0  0  0  0  0  0  0  0  0
  -21.7230   -4.2170   23.4320 C   0  0  0  0  0  3  0  0  0  0  0  0
  -22.0360   -5.0440   22.3390 C   0  0  0  0  0  0  0  0  0  0  0  0
  -22.6670   -4.5190   21.2570 F   0  0  0  0  0  0  0  0  0  0  0  0
  -20.7520   -3.9470   25.5930 F   0  0  0  0  0  0  0  0  0  0  0  0
  -22.8220  -13.7960   21.1850 C   0  0  0  0  0  0  0  0  0  0  0  0
  -22.0100  -13.0640   21.9440 N   0  0  0  0  0  0  0  0  0  0  0  0
  -22.4420  -14.8260   20.6360 O   0  0  0  0  0  0  0  0  0  0  0  0
  -22.3330  -12.2250   22.4020 H   0  0  0  0  0  0  0  0  0  0  0  0
  -21.0510  -13.3410   22.0670 H   0  0  0  0  0  0  0  0  0  0  0  0
  -25.4180  -15.6190   20.8760 N   0  0  0  0  0  0  0  0  0  0  0  0
  -24.6510  -16.1230   20.4550 H   0  0  0  0  0  0  0  0  0  0  0  0
  -26.3010  -15.9900   20.5510 H   0  0  0  0  0  0  0  0  0  0  0  0
  1  5  2  0
  1  3  1  0
  3  4  2  0
  4  2  1  0
  4  9  1  0
  5  6  1  0
  6  2  2  0
  8  9  1  0
  9  7  1  0
 10  3  1  0
 10 11  1  0
 12 11  1  0
 12 13  1  0
 13 15  1  0
 14 25  2  0
 15 20  1  0
 16 24  1  0
 16 26  1  0
 17 23  1  0
 17 19  1  0
 18 24  1  0
 19 18  1  0
 20 19  2  0
 21 22  1  0
 21 15  2  0
 22 17  2  0
 23 16  1  0
 24 14  1  0
 26 28  2  0
 27 26  1  0
 29 27  1  0
 30 39  2  0
 30 35  1  0
 31 27  1  0
 31 35  1  0
 32 31  1  0
 33 34  1  0
 33 32  1  0
 34 30  1  0
 35 36  2  0
 36 37  1  0
 38 37  2  0
 39 38  1  0
 40 14  1  0
 40 41  1  0
 40 50  1  0
 41 44  1  0
 42 46  1  0
 42 41  1  0
 43 42  2  0
 46 45  1  0
 48 46  1  0
 48 49  1  0
 48 47  1  0
 50 53  1  1
 50 51  1  0
 52 50  1  0
 54  5  1  0
 54 55  1  0
 55 56  1  0
 57 64  1  0
 63 58  1  1
 61 62  1  0
 63 57  1  0
 63 62  1  0
 65 63  1  0
 65 57  1  0
 66 65  1  0
 67 68  2  0
 67 70  1  0
 68 69  1  0
 68 87  1  0
 69 71  2  0
 69 72  1  0
 70 71  1  0
 70 61  1  0
 72 73  1  0
 73 74  2  0
 75 74  1  0
 76 75  2  0
 77 76  1  0
 77 72  2  0
 78 75  1  0
 78 79  1  0
 79 80  1  0
 80 81  2  0
 82 81  1  0
 82 86  1  0
 83 82  2  0
 84 79  2  0
 84 83  1  0
 85 84  1  0
 87 88  1  0
 88 91  1  0
 88 90  1  0
 89 87  2  0
 92 67  1  0
 93 92  1  0
 94 92  1  0
M  ISO  4  12 101  13 101  57 100  65 100
M  END
>  <TORSDO>  (28) 
F 23

>  <SCORE>  (28) 
-3.788

>  <name>  (28) 
27

>  <ligand_id>  (28) 
27

>  <original_smiles>  (28) 
[H]c1nc(C([H])([H])C([H])([H])C([H])([H])N([H])C(=O)N2C([H])([H])C([H])([H])C([H])([H])C([H])(n3nc(-c4c([H])c([H])c(Oc5c([H])c([H])c(F)c([H])c5F)c([H])c4[H])c(C(=O)N([H])[H])c3N([H])[H])C2([H])[H])c([H])c(C([H])([H])C([H])([H])C([H])([H])Oc2c([H])c([H])c3c(c2[H])C([H])([H])N(C(=O)C([H])(N([H])C(=O)C([H])(N([H])C([H])([H])[H])C([H])([H])[H])C(C([H])([H])[H])(C([H])([H])[H])C([H])([H])[H])C([H])(C(=O)N([H])C2([H])c4c([H])c([H])c([H])c([H])c4C([H])([H])C([H])([H])C2([H])[H])C3([H])[H])c1N(C([H])([H])[H])C([H])([H])[H]

>  <smiles>  (28) 
[H]c1nc(C([H])([H])C([H])([H])C([H])([H])N([H])C(=O)N2C([H])([H])C([H])([H])C([H])([H])C([H])(n3nc(-c4c([H])c([H])c(Oc5c([H])c([H])c(F)c([H])c5F)c([H])c4[H])c(C(=O)N([H])[H])c3N([H])[H])C2([H])[H])c([H])c(C([H])([H])C([H])([H])C([H])([H])Oc2c([H])c([H])c3c(c2[H])C([H])([H])N(C(=O)C([H])(N([H])C(=O)C([H])(N([H])C([H])([H])[H])C([H])([H])[H])C(C([H])([H])[H])(C([H])([H])[H])C([H])([H])[H])C([H])(C(=O)N([H])C2([H])c4c([H])c([H])c([H])c([H])c4C([H])([H])C([H])([H])C2([H])[H])C3([H])[H])c1N(C([H])([H])[H])C([H])([H])[H]

$$$$
28:0:0
     RDKit          3D

 89 97  0  0  1  0  0  0  0  0999 V2000
  -28.2700  -20.2450   20.9320 C   0  0  0  0  0  3  0  0  0  0  0  0
  -28.8960  -19.3230   20.1370 C   0  0  0  0  0  0  0  0  0  0  0  0
  -29.5620  -20.0370   19.1330 N   0  0  0  0  0  0  0  0  0  0  0  0
  -29.3650  -21.3220   19.2910 N   0  0  0  0  0  0  0  0  0  0  0  0
  -28.5650  -21.4850   20.3770 N   0  0  0  0  0  0  0  0  0  0  0  0
  -28.8190  -17.7970   20.2000 C   0  0  0  0  0  2  0  0  0  0  0  0
  -30.1050  -17.0320   20.6410 C   0  0  0  0  0  2  0  0  0  0  0  0
  -30.6800  -14.5650   20.3710 C   0  0  0  0  0  0  0  0  0  0  0  0
  -30.4420  -12.3870   19.2380 C   0  0  0  0  0  2  0  0  0  0  0  0
  -29.4960  -12.6100   18.0390 C   0  0  0  0  0  2  0  0  0  0  0  0
  -28.0210  -12.4510   18.4720 C   0  0  0  0  0  2  0  0  0  0  0  0
  -27.6820  -13.2730   19.7440 C   0  0  0  0  0  3  0  0  0  0  0  0
  -28.7400  -13.0360   20.8430 C   0  0  0  0  0  2  0  0  0  0  0  0
  -30.0570  -13.3580   20.2740 N   0  0  0  0  0  0  0  0  0  0  0  0
  -31.8220  -14.7700   19.9540 O   0  0  0  0  0  0  0  0  0  0  0  0
  -29.8740  -15.5740   20.7670 N   0  0  0  0  0  0  0  0  0  0  0  0
  -28.9640  -15.2840   21.0910 H   0  0  0  0  0  0  0  0  0  0  0  0
  -25.2820  -13.8780   20.4480 C   0  0  0  0  0  0  0  0  0  0  0  0
  -24.2190  -13.1030   20.8220 C   0  0  0  0  0  0  0  0  0  0  0  0
  -24.6870  -11.7550   20.7960 C   0  0  0  0  0  0  0  0  0  0  0  0
  -26.3300  -13.0000   20.2210 N   0  0  0  0  0  0  0  0  0  0  0  0
  -25.9760  -11.7180   20.4860 N   0  0  0  0  0  0  0  0  0  0  0  0
  -23.9660  -10.4910   20.9960 C   0  0  0  0  0  0  0  0  0  0  0  0
  -24.3960   -9.5370   21.9450 C   0  0  0  0  0  3  0  0  0  0  0  0
  -23.6760   -8.3360   22.1260 C   0  0  0  0  0  3  0  0  0  0  0  0
  -22.5130   -8.0800   21.3610 C   0  0  0  0  0  0  0  0  0  0  0  0
  -22.1030   -9.0210   20.4010 C   0  0  0  0  0  3  0  0  0  0  0  0
  -22.8230  -10.2150   20.2170 C   0  0  0  0  0  3  0  0  0  0  0  0
  -21.7680   -6.9300   21.4540 O   0  0  0  0  0  0  0  0  0  0  0  0
  -21.7040   -6.2040   22.6170 C   0  0  0  0  0  0  0  0  0  0  0  0
  -21.2340   -6.7670   23.8210 C   0  0  0  0  0  3  0  0  0  0  0  0
  -21.1220   -5.9670   24.9760 C   0  0  0  0  0  3  0  0  0  0  0  0
  -21.4660   -4.6030   24.9250 C   0  0  0  0  0  0  0  0  0  0  0  0
  -21.9260   -4.0390   23.7230 C   0  0  0  0  0  3  0  0  0  0  0  0
  -22.0420   -4.8370   22.5720 C   0  0  0  0  0  0  0  0  0  0  0  0
  -22.4700   -4.2810   21.4100 F   0  0  0  0  0  0  0  0  0  0  0  0
  -21.3500   -3.8330   26.0310 F   0  0  0  0  0  0  0  0  0  0  0  0
  -22.8200  -13.5740   21.0940 C   0  0  0  0  0  0  0  0  0  0  0  0
  -22.0960  -12.8750   21.9620 N   0  0  0  0  0  0  0  0  0  0  0  0
  -22.3780  -14.5990   20.5740 O   0  0  0  0  0  0  0  0  0  0  0  0
  -22.4650  -12.0430   22.4010 H   0  0  0  0  0  0  0  0  0  0  0  0
  -21.1570  -13.1740   22.1900 H   0  0  0  0  0  0  0  0  0  0  0  0
  -25.4450  -15.2490   20.2630 N   0  0  0  0  0  0  0  0  0  0  0  0
  -24.6720  -15.8970   20.3440 H   0  0  0  0  0  0  0  0  0  0  0  0
  -26.2830  -15.6760   19.8930 H   0  0  0  0  0  0  0  0  0  0  0  0
  -28.1380  -22.8070   20.8800 C   0  0  0  0  0  2  0  0  0  0  0  0
  -28.4390  -24.0930   20.0400 C   0  0  0  0  0  2  0  0  0  0  0  0
  -28.1940  -25.3860   20.8770 C   0  0  0  0  0  2  0  0  0  0  0  0
  -28.3850  -26.6590   20.2100 O   0  0  0  0  0  0  0  0  0  0  0  0
  -24.6020  -31.9140   23.2290 C   0  0  0  0  0  0  0  0  0  0  0  0
  -27.2560  -27.4530   20.1670 C   0  0  0  0  0  0  0  0  0  0  0  0
  -23.4080  -30.5060   21.5850 C   0  0  0  0  0  3  0  0  0  0  0  0
  -24.8720  -28.9800   20.1550 C   0  0  0  0  0  0  0  0  0  0  0  0
  -25.9350  -30.8670   21.4000 C   0  0  0  0  0  2  0  0  0  0  0  0
  -26.0290  -29.4970   20.7550 C   0  0  0  0  0  0  0  0  0  0  0  0
  -27.2280  -28.7450   20.7520 C   0  0  0  0  0  3  0  0  0  0  0  0
  -26.0880  -26.9620   19.5500 C   0  0  0  0  0  3  0  0  0  0  0  0
  -24.9000  -27.7150   19.5440 C   0  0  0  0  0  3  0  0  0  0  0  0
  -23.6260  -29.8350   20.2020 C   0  0  0  0  0  2  0  0  0  0  0  0
  -24.6670  -31.1110   22.1300 N   0  0  0  0  0  0  0  0  0  0  0  0
  -23.5170  -32.1820   23.7640 O   0  0  0  0  0  0  0  0  0  0  0  0
  -22.7590  -29.4790   22.5410 C   0  0  0  0  0  0  0  0  0  0  0  0
  -21.4350  -29.2970   22.4150 N   0  0  0  0  0  0  0  0  0  0  0  0
  -23.4430  -28.8520   23.3520 O   0  0  0  0  0  0  0  0  0  0  0  0
  -20.9420  -29.8580   21.7350 H   0  0  0  0  0  0  0  0  0  0  0  0
  -18.0560  -28.1190   22.9320 C   0  0  0  0  0  0  0  0  0  0  0  0
  -20.6190  -28.3570   23.1850 C   0  0  0  0  0  3  0  0  0  0  0  0
  -20.7070  -26.9310   22.5920 C   0  0  0  0  0  2  0  0  0  0  0  0
  -19.5940  -26.6240   21.5850 C   0  0  0  0  0  2  0  0  0  0  0  0
  -18.2190  -26.7750   22.2430 C   0  0  0  0  0  2  0  0  0  0  0  0
  -19.1840  -28.8690   23.3610 C   0  0  0  0  0  0  0  0  0  0  0  0
  -18.9800  -30.1280   23.9650 C   0  0  0  0  0  3  0  0  0  0  0  0
  -17.6800  -30.6380   24.1430 C   0  0  0  0  0  3  0  0  0  0  0  0
  -16.5670  -29.8850   23.7310 C   0  0  0  0  0  3  0  0  0  0  0  0
  -16.7560  -28.6270   23.1310 C   0  0  0  0  0  3  0  0  0  0  0  0
  -25.8820  -32.5520   23.8500 C   0  0  0  0  0  3  0  0  0  0  0  0
  -25.5690  -33.9500   24.1720 N   0  0  0  0  0  0  0  0  0  0  0  0
  -25.9060  -34.9990   23.4100 C   0  0  0  0  0  0  0  0  0  0  0  0
  -26.5860  -34.8910   22.3850 O   0  0  0  0  0  0  0  0  0  0  0  0
  -24.9720  -34.1090   24.9710 H   0  0  0  0  0  0  0  0  0  0  0  0
  -24.1890  -36.7920   23.0140 C   0  0  0  0  0  1  0  0  0  0  0  0
  -25.4110  -36.3890   23.8540 C   0  0  0  0  0  3  0  0  0  0  0  0
  -27.5280  -37.2750   24.7310 C   0  0  0  0  0  1  0  0  0  0  0  0
  -26.4480  -37.4410   23.7610 N   0  0  0  0  0  0  0  0  0  0  0  0
  -26.0410  -38.3630   23.8920 H   0  0  0  0  0  0  0  0  0  0  0  0
  -26.3960  -31.7870   25.1310 C   0  0  1  0  0  0  0  0  0  0  0  0
  -25.2980  -31.5460   26.1930 C   0  0  0  0  0  1  0  0  0  0  0  0
  -26.9880  -30.4120   24.7450 C   0  0  0  0  0  1  0  0  0  0  0  0
  -27.5420  -32.5870   25.7950 C   0  0  0  0  0  1  0  0  0  0  0  0
  2  6  1  0
  2  1  2  0
  3  4  2  0
  3  2  1  0
  4  5  1  0
  5 46  1  0
  5  1  1  0
  6  7  1  0
  7 16  1  0
  8 16  1  0
  9 14  1  0
 10 11  1  0
 10  9  1  0
 12 11  1  0
 12 21  1  0
 12 13  1  0
 14  8  1  0
 14 13  1  0
 15  8  2  0
 16 17  1  0
 18 19  2  0
 19 38  1  0
 20 19  1  0
 20 23  1  0
 21 18  1  0
 21 22  1  0
 22 20  2  0
 23 24  1  0
 24 25  2  0
 26 29  1  0
 26 25  1  0
 27 26  2  0
 28 27  1  0
 28 23  2  0
 29 30  1  0
 30 31  1  0
 31 32  2  0
 33 32  1  0
 33 37  1  0
 34 33  2  0
 35 30  2  0
 35 34  1  0
 36 35  1  0
 38 39  1  0
 39 42  1  0
 39 41  1  0
 40 38  2  0
 43 44  1  0
 43 18  1  0
 45 43  1  0
 47 48  1  0
 47 46  1  0
 49 48  1  0
 50 61  2  0
 51 49  1  0
 51 56  1  0
 52 60  1  0
 52 62  1  0
 53 59  1  0
 53 55  1  0
 54 60  1  0
 55 54  1  0
 56 55  2  0
 57 51  2  0
 58 57  1  0
 58 53  2  0
 59 52  1  0
 60 50  1  0
 62 64  2  0
 63 62  1  0
 65 63  1  0
 66 75  2  0
 66 71  1  0
 67 63  1  0
 67 71  1  0
 68 67  1  0
 69 70  1  0
 69 68  1  0
 70 66  1  0
 71 72  2  0
 72 73  1  0
 74 73  2  0
 75 74  1  0
 76 50  1  0
 76 77  1  0
 76 86  1  0
 77 80  1  0
 78 82  1  0
 78 77  1  0
 79 78  2  0
 82 81  1  0
 84 82  1  0
 84 85  1  0
 84 83  1  0
 86 89  1  1
 86 87  1  0
 88 86  1  0
M  ISO  4   8 100  16 100  48 101  49 101
M  END
>  <TORSDO>  (29) 
F 21

>  <SCORE>  (29) 
-13.357

>  <name>  (29) 
28

>  <ligand_id>  (29) 
28

>  <original_smiles>  (29) 
[H]c1c([H])c([H])c2c(c1[H])C([H])([H])C([H])([H])C([H])([H])C2([H])N([H])C(=O)C1([H])N(C(=O)C([H])(N([H])C(=O)C([H])(N([H])C([H])([H])[H])C([H])([H])[H])C(C([H])([H])[H])(C([H])([H])[H])C([H])([H])[H])C([H])([H])c2c([H])c(OC([H])([H])C([H])([H])C([H])([H])n3nnc(C([H])([H])C([H])([H])N([H])C(=O)N4C([H])([H])C([H])([H])C([H])([H])C([H])(n5nc(-c6c([H])c([H])c(Oc7c([H])c([H])c(F)c([H])c7F)c([H])c6[H])c(C(=O)N([H])[H])c5N([H])[H])C4([H])[H])c3[H])c([H])c([H])c2C1([H])[H]

>  <smiles>  (29) 
[H]c1c([H])c([H])c2c(c1[H])C([H])([H])C([H])([H])C([H])([H])C2([H])N([H])C(=O)C1([H])N(C(=O)C([H])(N([H])C(=O)C([H])(N([H])C([H])([H])[H])C([H])([H])[H])C(C([H])([H])[H])(C([H])([H])[H])C([H])([H])[H])C([H])([H])c2c([H])c(OC([H])([H])C([H])([H])C([H])([H])n3nnc(C([H])([H])C([H])([H])N([H])C(=O)N4C([H])([H])C([H])([H])C([H])([H])C([H])(n5nc(-c6c([H])c([H])c(Oc7c([H])c([H])c(F)c([H])c7F)c([H])c6[H])c(C(=O)N([H])[H])c5N([H])[H])C4([H])[H])c3[H])c([H])c([H])c2C1([H])[H]

$$$$
29:0:0
     RDKit          3D

 94102  0  0  1  0  0  0  0  0999 V2000
  -30.6710  -20.9680   19.5820 C   0  0  0  0  0  3  0  0  0  0  0  0
  -30.9260  -22.3600   19.4560 C   0  0  0  0  0  3  0  0  0  0  0  0
  -29.4020  -20.8080   20.0490 C   0  0  0  0  0  0  0  0  0  0  0  0
  -29.8290  -23.0820   19.8630 C   0  0  0  0  0  0  0  0  0  0  0  0
  -28.8550  -22.1050   20.1740 N   0  0  0  0  0  0  0  0  0  0  0  0
  -30.9380  -25.2910   19.3290 C   0  0  0  0  0  1  0  0  0  0  0  0
  -29.9280  -24.9400   21.5660 C   0  0  0  0  0  1  0  0  0  0  0  0
  -29.7490  -24.6280   20.0650 C   0  0  2  0  0  0  0  0  0  0  0  0
  -28.4660  -25.3830   19.5460 C   0  0  0  0  0  2  0  0  0  0  0  0
  -28.5030  -26.8130   19.8350 O   0  0  0  0  0  0  0  0  0  0  0  0
  -24.6640  -31.8560   23.1510 C   0  0  0  0  0  0  0  0  0  0  0  0
  -27.3200  -27.5410   19.8560 C   0  0  0  0  0  0  0  0  0  0  0  0
  -23.4550  -30.5030   21.4720 C   0  0  0  0  0  3  0  0  0  0  0  0
  -24.9080  -29.0430   19.9640 C   0  0  0  0  0  0  0  0  0  0  0  0
  -25.9750  -30.8950   21.2560 C   0  0  0  0  0  2  0  0  0  0  0  0
  -26.0700  -29.5510   20.5560 C   0  0  0  0  0  0  0  0  0  0  0  0
  -27.2780  -28.8090   20.4950 C   0  0  0  0  0  3  0  0  0  0  0  0
  -26.1320  -27.0580   19.2590 C   0  0  0  0  0  3  0  0  0  0  0  0
  -24.9360  -27.7980   19.3120 C   0  0  0  0  0  3  0  0  0  0  0  0
  -23.6550  -29.8850   20.0620 C   0  0  0  0  0  2  0  0  0  0  0  0
  -24.7170  -31.0980   22.0180 N   0  0  0  0  0  0  0  0  0  0  0  0
  -23.5860  -32.0900   23.7160 O   0  0  0  0  0  0  0  0  0  0  0  0
  -22.8320  -29.4350   22.4000 C   0  0  0  0  0  0  0  0  0  0  0  0
  -21.5060  -29.2460   22.2910 N   0  0  0  0  0  0  0  0  0  0  0  0
  -23.5370  -28.7820   23.1730 O   0  0  0  0  0  0  0  0  0  0  0  0
  -20.9960  -29.8260   21.6400 H   0  0  0  0  0  0  0  0  0  0  0  0
  -18.1530  -28.0060   22.8180 C   0  0  0  0  0  0  0  0  0  0  0  0
  -20.7150  -28.2660   23.0360 C   0  0  0  0  0  3  0  0  0  0  0  0
  -20.8100  -26.8660   22.3860 C   0  0  0  0  0  2  0  0  0  0  0  0
  -19.6840  -26.5870   21.3870 C   0  0  0  0  0  2  0  0  0  0  0  0
  -18.3190  -26.6910   22.0730 C   0  0  0  0  0  2  0  0  0  0  0  0
  -19.2790  -28.7520   23.2560 C   0  0  0  0  0  0  0  0  0  0  0  0
  -19.0720  -29.9840   23.9150 C   0  0  0  0  0  3  0  0  0  0  0  0
  -17.7700  -30.4690   24.1400 C   0  0  0  0  0  3  0  0  0  0  0  0
  -16.6580  -29.7190   23.7180 C   0  0  0  0  0  3  0  0  0  0  0  0
  -16.8500  -28.4900   23.0630 C   0  0  0  0  0  3  0  0  0  0  0  0
  -25.9480  -32.4830   23.7770 C   0  0  0  0  0  3  0  0  0  0  0  0
  -25.6300  -33.8700   24.1420 N   0  0  0  0  0  0  0  0  0  0  0  0
  -25.9240  -34.9410   23.3930 C   0  0  0  0  0  0  0  0  0  0  0  0
  -26.5620  -34.8660   22.3390 O   0  0  0  0  0  0  0  0  0  0  0  0
  -25.0600  -34.0000   24.9640 H   0  0  0  0  0  0  0  0  0  0  0  0
  -24.1450  -36.7030   23.1440 C   0  0  0  0  0  1  0  0  0  0  0  0
  -25.4310  -36.3130   23.8910 C   0  0  0  0  0  3  0  0  0  0  0  0
  -27.5820  -37.2340   24.6360 C   0  0  0  0  0  1  0  0  0  0  0  0
  -26.4350  -37.3880   23.7450 N   0  0  0  0  0  0  0  0  0  0  0  0
  -26.0170  -38.2980   23.9210 H   0  0  0  0  0  0  0  0  0  0  0  0
  -26.4820  -31.6850   25.0310 C   0  0  1  0  0  0  0  0  0  0  0  0
  -25.4010  -31.4140   26.1010 C   0  0  0  0  0  1  0  0  0  0  0  0
  -27.0730  -30.3210   24.5990 C   0  0  0  0  0  1  0  0  0  0  0  0
  -27.6310  -32.4730   25.7040 C   0  0  0  0  0  1  0  0  0  0  0  0
  -28.6480  -19.5310   20.4240 C   0  0  0  0  0  2  0  0  0  0  0  0
  -29.1820  -18.1290   19.9470 C   0  0  0  0  0  2  0  0  0  0  0  0
  -29.9330  -17.2380   20.9960 C   0  0  0  0  0  2  0  0  0  0  0  0
  -30.4890  -14.7820   20.4410 C   0  0  0  0  0  0  0  0  0  0  0  0
  -30.3100  -12.5680   19.3530 C   0  0  0  0  0  2  0  0  0  0  0  0
  -29.3500  -12.6870   18.1500 C   0  0  0  0  0  2  0  0  0  0  0  0
  -27.8830  -12.5060   18.5920 C   0  0  0  0  0  2  0  0  0  0  0  0
  -27.5190  -13.3690   19.8300 C   0  0  0  0  0  3  0  0  0  0  0  0
  -28.5870  -13.2090   20.9370 C   0  0  0  0  0  2  0  0  0  0  0  0
  -29.8910  -13.5620   20.3540 N   0  0  0  0  0  0  0  0  0  0  0  0
  -31.6270  -15.0020   20.0160 O   0  0  0  0  0  0  0  0  0  0  0  0
  -29.6790  -15.7790   20.8660 N   0  0  0  0  0  0  0  0  0  0  0  0
  -28.7610  -15.4710   21.1520 H   0  0  0  0  0  0  0  0  0  0  0  0
  -25.1230  -13.9330   20.5720 C   0  0  0  0  0  0  0  0  0  0  0  0
  -24.0710  -13.1420   20.9460 C   0  0  0  0  0  0  0  0  0  0  0  0
  -24.5530  -11.7970   20.8990 C   0  0  0  0  0  0  0  0  0  0  0  0
  -26.1780  -13.0700   20.3210 N   0  0  0  0  0  0  0  0  0  0  0  0
  -25.8400  -11.7800   20.5770 N   0  0  0  0  0  0  0  0  0  0  0  0
  -23.8490  -10.5220   21.0860 C   0  0  0  0  0  0  0  0  0  0  0  0
  -24.3110   -9.5520   22.0030 C   0  0  0  0  0  3  0  0  0  0  0  0
  -23.6100   -8.3390   22.1770 C   0  0  0  0  0  3  0  0  0  0  0  0
  -22.4310   -8.0900   21.4360 C   0  0  0  0  0  0  0  0  0  0  0  0
  -21.9880   -9.0500   20.5080 C   0  0  0  0  0  3  0  0  0  0  0  0
  -22.6910  -10.2540   20.3320 C   0  0  0  0  0  3  0  0  0  0  0  0
  -21.6960   -6.9330   21.5230 O   0  0  0  0  0  0  0  0  0  0  0  0
  -21.6850   -6.1710   22.6640 C   0  0  0  0  0  0  0  0  0  0  0  0
  -21.2760   -6.6980   23.9080 C   0  0  0  0  0  3  0  0  0  0  0  0
  -21.2120   -5.8610   25.0390 C   0  0  0  0  0  3  0  0  0  0  0  0
  -21.5490   -4.4980   24.9290 C   0  0  0  0  0  0  0  0  0  0  0  0
  -21.9520   -3.9710   23.6890 C   0  0  0  0  0  3  0  0  0  0  0  0
  -22.0180   -4.8050   22.5590 C   0  0  0  0  0  0  0  0  0  0  0  0
  -22.3860   -4.2870   21.3630 F   0  0  0  0  0  0  0  0  0  0  0  0
  -21.4810   -3.6920   26.0140 F   0  0  0  0  0  0  0  0  0  0  0  0
  -22.6680  -13.5930   21.2350 C   0  0  0  0  0  0  0  0  0  0  0  0
  -21.9580  -12.8770   22.1000 N   0  0  0  0  0  0  0  0  0  0  0  0
  -22.2090  -14.6160   20.7290 O   0  0  0  0  0  0  0  0  0  0  0  0
  -22.3420  -12.0490   22.5330 H   0  0  0  0  0  0  0  0  0  0  0  0
  -21.0160  -13.1610   22.3320 H   0  0  0  0  0  0  0  0  0  0  0  0
  -25.2640  -15.3060   20.4020 N   0  0  0  0  0  0  0  0  0  0  0  0
  -24.4850  -15.9450   20.5190 H   0  0  0  0  0  0  0  0  0  0  0  0
  -26.0960  -15.7590   20.0480 H   0  0  0  0  0  0  0  0  0  0  0  0
  -27.4700  -22.3600   20.5550 C   0  0  0  0  0  2  0  0  0  0  0  0
  -25.2030  -23.1240   19.6330 C   0  0  0  0  0  1  0  0  0  0  0  0
  -26.6070  -22.6070   19.3050 C   0  0  0  0  0  2  0  0  0  0  0  0
  1  3  2  0
  2  1  1  0
  2  4  2  0
  3  5  1  0
  3 51  1  0
  4  8  1  0
  4  5  1  0
  5 92  1  0
  8  6  1  6
  8  7  1  0
  9 10  1  0
  9  8  1  0
 10 12  1  0
 11 22  2  0
 12 17  1  0
 13 21  1  0
 13 23  1  0
 14 20  1  0
 14 16  1  0
 15 21  1  0
 16 15  1  0
 17 16  2  0
 18 19  1  0
 18 12  2  0
 19 14  2  0
 20 13  1  0
 21 11  1  0
 23 25  2  0
 24 23  1  0
 26 24  1  0
 27 36  2  0
 27 32  1  0
 28 24  1  0
 28 32  1  0
 29 28  1  0
 30 31  1  0
 30 29  1  0
 31 27  1  0
 32 33  2  0
 33 34  1  0
 35 34  2  0
 36 35  1  0
 37 11  1  0
 37 38  1  0
 37 47  1  0
 38 41  1  0
 39 43  1  0
 39 38  1  0
 40 39  2  0
 43 42  1  0
 45 43  1  0
 45 46  1  0
 45 44  1  0
 47 50  1  1
 47 48  1  0
 49 47  1  0
 52 51  1  0
 52 53  1  0
 54 62  1  0
 55 60  1  0
 56 57  1  0
 56 55  1  0
 58 57  1  0
 58 67  1  0
 58 59  1  0
 60 54  1  0
 60 59  1  0
 61 54  2  0
 62 53  1  0
 62 63  1  0
 64 65  2  0
 65 84  1  0
 66 65  1  0
 66 69  1  0
 67 64  1  0
 67 68  1  0
 68 66  2  0
 69 70  1  0
 70 71  2  0
 72 75  1  0
 72 71  1  0
 73 72  2  0
 74 73  1  0
 74 69  2  0
 75 76  1  0
 76 77  1  0
 77 78  2  0
 79 78  1  0
 79 83  1  0
 80 79  2  0
 81 76  2  0
 81 80  1  0
 82 81  1  0
 84 85  1  0
 85 88  1  0
 85 87  1  0
 86 84  2  0
 89 90  1  0
 89 64  1  0
 91 89  1  0
 94 93  1  0
 94 92  1  0
M  ISO  4   9 101  10 101  54 100  62 100
M  END
>  <TORSDO>  (30) 
F 23

>  <SCORE>  (30) 
-12.879

>  <name>  (30) 
29

>  <ligand_id>  (30) 
29

>  <original_smiles>  (30) 
[H]c1c([H])c([H])c2c(c1[H])C([H])([H])C([H])([H])C([H])([H])C2([H])N([H])C(=O)C1([H])N(C(=O)C([H])(N([H])C(=O)C([H])(N([H])C([H])([H])[H])C([H])([H])[H])C(C([H])([H])[H])(C([H])([H])[H])C([H])([H])[H])C([H])([H])c2c([H])c(OC([H])([H])C(c3c([H])c([H])c(C([H])([H])C([H])([H])C([H])([H])N([H])C(=O)N4C([H])([H])C([H])([H])C([H])([H])C([H])(n5nc(-c6c([H])c([H])c(Oc7c([H])c([H])c(F)c([H])c7F)c([H])c6[H])c(C(=O)N([H])[H])c5N([H])[H])C4([H])[H])n3C([H])([H])C([H])([H])C([H])([H])[H])(C([H])([H])[H])C([H])([H])[H])c([H])c([H])c2C1([H])[H]

>  <smiles>  (30) 
[H]c1c([H])c([H])c2c(c1[H])C([H])([H])C([H])([H])C([H])([H])C2([H])N([H])C(=O)C1([H])N(C(=O)C([H])(N([H])C(=O)C([H])(N([H])C([H])([H])[H])C([H])([H])[H])C(C([H])([H])[H])(C([H])([H])[H])C([H])([H])[H])C([H])([H])c2c([H])c(OC([H])([H])C(c3c([H])c([H])c(C([H])([H])C([H])([H])C([H])([H])N([H])C(=O)N4C([H])([H])C([H])([H])C([H])([H])C([H])(n5nc(-c6c([H])c([H])c(Oc7c([H])c([H])c(F)c([H])c7F)c([H])c6[H])c(C(=O)N([H])[H])c5N([H])[H])C4([H])[H])n3C([H])([H])C([H])([H])C([H])([H])[H])(C([H])([H])[H])C([H])([H])[H])c([H])c([H])c2C1([H])[H]

$$$$
30:0:0
     RDKit          3D

 94102  0  0  1  0  0  0  0  0999 V2000
  -29.5410  -21.8240   19.9720 C   0  0  0  0  0  3  0  0  0  0  0  0
  -27.3370  -21.6980   20.1270 C   0  0  0  0  0  3  0  0  0  0  0  0
  -28.3630  -22.5850   20.2970 C   0  0  0  0  0  0  0  0  0  0  0  0
  -29.2180  -20.5070   19.6800 C   0  0  0  0  0  0  0  0  0  0  0  0
  -26.9740  -19.2880   19.5770 C   0  0  0  0  0  1  0  0  0  0  0  0
  -27.8290  -20.4490   19.7850 N   0  0  0  0  0  0  0  0  0  0  0  0
  -28.8570  -24.1930   22.1850 C   0  0  0  0  0  1  0  0  0  0  0  0
  -28.1840  -24.0330   20.8130 C   0  0  0  0  0  3  0  0  0  0  0  0
  -28.6270  -25.1900   19.8630 C   0  0  0  0  0  2  0  0  0  0  0  0
  -28.5200  -26.5140   20.4640 O   0  0  0  0  0  0  0  0  0  0  0  0
  -24.5660  -31.7550   23.3210 C   0  0  0  0  0  0  0  0  0  0  0  0
  -27.3450  -27.2510   20.3940 C   0  0  0  0  0  0  0  0  0  0  0  0
  -23.4520  -30.3570   21.6200 C   0  0  0  0  0  3  0  0  0  0  0  0
  -24.9760  -28.8160   20.2760 C   0  0  0  0  0  0  0  0  0  0  0  0
  -25.9930  -30.6890   21.5720 C   0  0  0  0  0  2  0  0  0  0  0  0
  -26.1070  -29.3190   20.9250 C   0  0  0  0  0  0  0  0  0  0  0  0
  -27.2960  -28.5470   20.9770 C   0  0  0  0  0  3  0  0  0  0  0  0
  -26.1840  -26.7770   19.7390 C   0  0  0  0  0  3  0  0  0  0  0  0
  -25.0120  -27.5500   19.6740 C   0  0  0  0  0  3  0  0  0  0  0  0
  -23.7400  -29.6850   20.2530 C   0  0  0  0  0  2  0  0  0  0  0  0
  -24.6860  -30.9500   22.2270 N   0  0  0  0  0  0  0  0  0  0  0  0
  -23.4560  -32.0370   23.7920 O   0  0  0  0  0  0  0  0  0  0  0  0
  -22.7450  -29.3300   22.5330 C   0  0  0  0  0  0  0  0  0  0  0  0
  -21.4200  -29.1870   22.3580 N   0  0  0  0  0  0  0  0  0  0  0  0
  -23.3850  -28.6700   23.3560 O   0  0  0  0  0  0  0  0  0  0  0  0
  -20.9670  -29.7750   21.6730 H   0  0  0  0  0  0  0  0  0  0  0  0
  -17.9900  -28.1110   22.7620 C   0  0  0  0  0  0  0  0  0  0  0  0
  -20.5520  -28.2560   23.0800 C   0  0  0  0  0  3  0  0  0  0  0  0
  -20.6050  -26.8400   22.4550 C   0  0  0  0  0  2  0  0  0  0  0  0
  -19.5090  -26.6000   21.4110 C   0  0  0  0  0  2  0  0  0  0  0  0
  -18.1240  -26.7790   22.0420 C   0  0  0  0  0  2  0  0  0  0  0  0
  -19.1320  -28.8120   23.2350 C   0  0  0  0  0  0  0  0  0  0  0  0
  -18.9560  -30.0640   23.8640 C   0  0  0  0  0  3  0  0  0  0  0  0
  -17.6730  -30.6190   24.0220 C   0  0  0  0  0  3  0  0  0  0  0  0
  -16.5450  -29.9120   23.5670 C   0  0  0  0  0  3  0  0  0  0  0  0
  -16.7030  -28.6590   22.9470 C   0  0  0  0  0  3  0  0  0  0  0  0
  -25.8170  -32.3810   24.0160 C   0  0  0  0  0  3  0  0  0  0  0  0
  -25.5180  -33.7970   24.2680 N   0  0  0  0  0  0  0  0  0  0  0  0
  -25.9290  -34.8090   23.4920 C   0  0  0  0  0  0  0  0  0  0  0  0
  -26.6690  -34.6470   22.5170 O   0  0  0  0  0  0  0  0  0  0  0  0
  -24.8680  -33.9980   25.0150 H   0  0  0  0  0  0  0  0  0  0  0  0
  -24.2650  -36.6110   22.9540 C   0  0  0  0  0  1  0  0  0  0  0  0
  -25.4470  -36.2240   23.8570 C   0  0  0  0  0  3  0  0  0  0  0  0
  -27.5470  -37.0990   24.7810 C   0  0  0  0  0  1  0  0  0  0  0  0
  -26.5090  -37.2500   23.7620 N   0  0  0  0  0  0  0  0  0  0  0  0
  -26.1170  -38.1830   23.8490 H   0  0  0  0  0  0  0  0  0  0  0  0
  -26.2180  -31.6490   25.3550 C   0  0  1  0  0  0  0  0  0  0  0  0
  -25.0310  -31.4510   26.3310 C   0  0  0  0  0  1  0  0  0  0  0  0
  -26.8240  -30.2560   25.0550 C   0  0  0  0  0  1  0  0  0  0  0  0
  -27.3140  -32.4580   26.0880 C   0  0  0  0  0  1  0  0  0  0  0  0
  -30.7630  -19.6610   17.9050 C   0  0  0  0  0  1  0  0  0  0  0  0
  -30.0730  -19.2870   19.2290 C   0  0  0  0  0  3  0  0  0  0  0  0
  -32.2350  -19.6510   20.5330 C   0  0  0  0  0  1  0  0  0  0  0  0
  -30.3660  -18.4120   21.6280 C   0  0  0  0  0  1  0  0  0  0  0  0
  -31.0890  -18.6370   20.2870 C   0  0  1  0  0  0  0  0  0  0  0  0
  -31.8100  -17.2700   19.8900 C   0  0  0  0  0  2  0  0  0  0  0  0
  -31.7820  -14.7690   19.9210 C   0  0  0  0  0  0  0  0  0  0  0  0
  -31.3880  -12.4490   19.1720 C   0  0  0  0  0  2  0  0  0  0  0  0
  -30.4400  -12.4650   17.9560 C   0  0  0  0  0  2  0  0  0  0  0  0
  -28.9730  -12.4420   18.4210 C   0  0  0  0  0  2  0  0  0  0  0  0
  -28.6740  -13.4940   19.5230 C   0  0  0  0  0  3  0  0  0  0  0  0
  -29.7400  -13.4610   20.6420 C   0  0  0  0  0  2  0  0  0  0  0  0
  -31.0540  -13.6200   20.0060 N   0  0  0  0  0  0  0  0  0  0  0  0
  -32.9490  -14.7630   19.5190 O   0  0  0  0  0  0  0  0  0  0  0  0
  -31.1350  -15.9550   20.0970 N   0  0  0  0  0  0  0  0  0  0  0  0
  -30.1620  -15.9420   20.3570 H   0  0  0  0  0  0  0  0  0  0  0  0
  -26.3990  -14.3170   20.3890 C   0  0  0  0  0  0  0  0  0  0  0  0
  -25.2670  -13.6480   20.7630 C   0  0  0  0  0  0  0  0  0  0  0  0
  -25.5680  -12.2560   20.6370 C   0  0  0  0  0  0  0  0  0  0  0  0
  -27.3250  -13.3400   20.0550 N   0  0  0  0  0  0  0  0  0  0  0  0
  -26.8310  -12.0920   20.2660 N   0  0  0  0  0  0  0  0  0  0  0  0
  -24.7100  -11.0740   20.7870 C   0  0  0  0  0  0  0  0  0  0  0  0
  -25.0350  -10.0360   21.6880 C   0  0  0  0  0  3  0  0  0  0  0  0
  -24.1840   -8.9190   21.8290 C   0  0  0  0  0  3  0  0  0  0  0  0
  -22.9930   -8.8350   21.0700 C   0  0  0  0  0  0  0  0  0  0  0  0
  -22.6860   -9.8600   20.1590 C   0  0  0  0  0  3  0  0  0  0  0  0
  -23.5360  -10.9690   20.0150 C   0  0  0  0  0  3  0  0  0  0  0  0
  -22.1180   -7.7750   21.1220 O   0  0  0  0  0  0  0  0  0  0  0  0
  -21.9320   -7.0530   22.2760 C   0  0  0  0  0  0  0  0  0  0  0  0
  -21.4870   -7.6570   23.4720 C   0  0  0  0  0  3  0  0  0  0  0  0
  -21.2430   -6.8670   24.6110 C   0  0  0  0  0  3  0  0  0  0  0  0
  -21.4310   -5.4730   24.5580 C   0  0  0  0  0  0  0  0  0  0  0  0
  -21.8680   -4.8680   23.3660 C   0  0  0  0  0  3  0  0  0  0  0  0
  -22.1150   -5.6550   22.2270 C   0  0  0  0  0  0  0  0  0  0  0  0
  -22.5150   -5.0630   21.0750 F   0  0  0  0  0  0  0  0  0  0  0  0
  -21.1890   -4.7130   25.6500 F   0  0  0  0  0  0  0  0  0  0  0  0
  -23.9450  -14.2610   21.1260 C   0  0  0  0  0  0  0  0  0  0  0  0
  -23.1830  -13.6070   21.9940 N   0  0  0  0  0  0  0  0  0  0  0  0
  -23.6020  -15.3520   20.6710 O   0  0  0  0  0  0  0  0  0  0  0  0
  -23.4730  -12.7200   22.3790 H   0  0  0  0  0  0  0  0  0  0  0  0
  -22.2970  -13.9980   22.2810 H   0  0  0  0  0  0  0  0  0  0  0  0
  -26.7150  -15.6690   20.2820 N   0  0  0  0  0  0  0  0  0  0  0  0
  -26.0420  -16.3960   20.4930 H   0  0  0  0  0  0  0  0  0  0  0  0
  -27.5870  -16.0280   19.9150 H   0  0  0  0  0  0  0  0  0  0  0  0
  1  3  1  0
  2  3  2  0
  3  8  1  0
  4  6  1  0
  4  1  2  0
  5  6  1  0
  6  2  1  0
  8  7  1  0
  9 10  1  0
  9  8  1  0
 11 22  2  0
 12 10  1  0
 12 17  1  0
 13 21  1  0
 13 23  1  0
 14 16  1  0
 15 21  1  0
 16 17  2  0
 16 15  1  0
 18 12  2  0
 19 18  1  0
 19 14  2  0
 20 14  1  0
 20 13  1  0
 21 11  1  0
 23 25  2  0
 24 23  1  0
 26 24  1  0
 27 36  2  0
 27 32  1  0
 28 24  1  0
 28 32  1  0
 29 28  1  0
 30 31  1  0
 30 29  1  0
 31 27  1  0
 32 33  2  0
 33 34  1  0
 35 34  2  0
 36 35  1  0
 37 11  1  0
 37 38  1  0
 37 47  1  0
 38 41  1  0
 39 43  1  0
 39 38  1  0
 40 39  2  0
 43 42  1  0
 45 46  1  0
 45 43  1  0
 45 44  1  0
 47 50  1  1
 47 48  1  0
 49 47  1  0
 52 51  1  0
 52  4  1  0
 52 55  1  0
 55 53  1  1
 55 54  1  0
 56 65  1  0
 56 55  1  0
 57 63  1  0
 57 65  1  0
 58 63  1  0
 59 60  1  0
 59 58  1  0
 61 60  1  0
 61 70  1  0
 61 62  1  0
 63 62  1  0
 64 57  2  0
 65 66  1  0
 67 68  2  0
 68 87  1  0
 69 68  1  0
 69 72  1  0
 70 71  1  0
 70 67  1  0
 71 69  2  0
 72 73  1  0
 73 74  2  0
 75 78  1  0
 75 74  1  0
 76 75  2  0
 77 76  1  0
 77 72  2  0
 78 79  1  0
 79 80  1  0
 80 81  2  0
 82 81  1  0
 82 86  1  0
 83 82  2  0
 84 79  2  0
 84 83  1  0
 85 84  1  0
 87 88  1  0
 88 91  1  0
 88 90  1  0
 89 87  2  0
 92 67  1  0
 92 93  1  0
 94 92  1  0
M  ISO  4   9 101  10 101  57 100  65 100
M  END
>  <TORSDO>  (31) 
F 21

>  <SCORE>  (31) 
-11.886

>  <name>  (31) 
30

>  <ligand_id>  (31) 
30

>  <original_smiles>  (31) 
[H]c1c([H])c([H])c2c(c1[H])C([H])([H])C([H])([H])C([H])([H])C2([H])N([H])C(=O)C1([H])N(C(=O)C([H])(N([H])C(=O)C([H])(N([H])C([H])([H])[H])C([H])([H])[H])C(C([H])([H])[H])(C([H])([H])[H])C([H])([H])[H])C([H])([H])c2c([H])c(OC([H])([H])C([H])(c3c([H])c(C([H])(C([H])([H])[H])C(C([H])([H])[H])(C([H])([H])[H])C([H])([H])N([H])C(=O)N4C([H])([H])C([H])([H])C([H])([H])C([H])(n5nc(-c6c([H])c([H])c(Oc7c([H])c([H])c(F)c([H])c7F)c([H])c6[H])c(C(=O)N([H])[H])c5N([H])[H])C4([H])[H])n(C([H])([H])[H])c3[H])C([H])([H])[H])c([H])c([H])c2C1([H])[H]

>  <smiles>  (31) 
[H]c1c([H])c([H])c2c(c1[H])C([H])([H])C([H])([H])C([H])([H])C2([H])N([H])C(=O)C1([H])N(C(=O)C([H])(N([H])C(=O)C([H])(N([H])C([H])([H])[H])C([H])([H])[H])C(C([H])([H])[H])(C([H])([H])[H])C([H])([H])[H])C([H])([H])c2c([H])c(OC([H])([H])C([H])(c3c([H])c(C([H])(C([H])([H])[H])C(C([H])([H])[H])(C([H])([H])[H])C([H])([H])N([H])C(=O)N4C([H])([H])C([H])([H])C([H])([H])C([H])(n5nc(-c6c([H])c([H])c(Oc7c([H])c([H])c(F)c([H])c7F)c([H])c6[H])c(C(=O)N([H])[H])c5N([H])[H])C4([H])[H])n(C([H])([H])[H])c3[H])C([H])([H])[H])c([H])c([H])c2C1([H])[H]

$$$$
31:0:0
     RDKit          3D

 93 90  0  0  1  0  0  0  0  0999 V2000
  -25.0460  -15.6230   21.5130 C   0  0  0  0  0 15  0  0  0  0  0  0
  -26.5020  -13.7910   18.4710 C   0  0  0  0  0 15  0  0  0  0  0  0
  -25.7030  -15.7880   19.4050 C   0  0  0  0  0 15  0  0  0  0  0  0
  -25.5010  -13.8220   22.6910 C   0  0  0  0  0  1  0  0  0  0  0  0
  -26.8760  -11.8170   19.8280 C   0  0  0  0  0  2  0  0  0  0  0  0
  -25.1740  -13.7830   24.1640 C   0  0  0  0  0  1  0  0  0  0  0  0
  -26.3920  -12.0810   21.9330 N   0  0  0  0  0 15  0  0  0  0  0  0
  -26.9670   -9.3120   20.2140 C   0  0  0  0  0  1  0  0  0  0  0  0
  -27.8260  -10.5430   19.8870 C   0  0  0  0  0  3  0  0  0  0  0  0
  -29.2270  -10.4680   20.8340 C   0  0  0  0  0  2  0  0  0  0  0  0
  -29.9300  -11.3540   22.0590 C   0  0  0  0  0  2  0  0  0  0  0  0
  -31.5070  -13.2890   21.1170 C   0  0  0  0  0  0  0  0  0  0  0  0
  -31.1700  -12.1480   19.2030 C   0  0  0  0  0  2  0  0  0  0  0  0
  -30.1340  -11.7440   18.2160 C   0  0  0  0  0  3  0  0  0  0  0  0
  -28.7950  -12.4650   18.3360 C   0  0  0  0  0  3  0  0  0  0  0  0
  -28.4530  -13.4670   19.5590 C   0  0  0  0  0  0  0  0  0  0  0  0
  -29.4920  -13.7070   20.5250 C   0  0  0  0  0  3  0  0  0  0  0  0
  -30.7000  -13.0840   20.1980 N   0  0  0  0  0  0  0  0  0  0  0  0
  -32.4030  -14.1340   20.9380 O   0  0  0  0  0  0  0  0  0  0  0  0
  -31.2350  -12.2430   21.9870 N   0  0  0  0  0  0  0  0  0  0  0  0
  -31.9000  -12.1170   22.7380 H   0  0  0  0  0  0  0  0  0  0  0  0
  -26.3510  -13.9730   20.6730 C   0  0  0  0  0  0  0  0  0  0  0  0
  -24.5870  -13.4290   20.4550 C   0  0  0  0  0  0  0  0  0  0  0  0
  -24.3910  -12.1340   20.2680 C   0  0  0  0  0  2  0  0  0  0  0  0
  -27.2500  -13.5480   20.5610 N   0  0  0  0  0  0  0  0  0  0  0  0
  -25.3670  -13.3050   20.4640 N   0  0  0  0  0  2  0  0  0  0  0  0
  -23.9110  -10.6910   20.8000 C   0  0  0  0  0  3  0  0  0  0  0  0
  -24.2710   -9.7610   21.8620 C   0  0  0  0  0  3  0  0  0  0  0  0
  -23.5940   -8.5120   22.0920 C   0  0  0  0  0  3  0  0  0  0  0  0
  -22.4820   -8.1390   21.2990 C   0  0  0  0  0  0  0  0  0  0  0  0
  -22.1520   -8.9980   20.2410 C   0  0  0  0  0  3  0  0  0  0  0  0
  -22.8540  -10.2000   20.0000 C   0  0  0  0  0  3  0  0  0  0  0  0
  -21.7160   -6.9880   21.4160 O   0  0  0  0  0  0  0  0  0  0  0  0
  -21.5480   -6.2830   22.5890 C   0  0  0  0  0  0  0  0  0  0  0  0
  -21.0670   -6.8840   23.7740 C   0  0  0  0  0  3  0  0  0  0  0  0
  -20.8590   -6.1040   24.9320 C   0  0  0  0  0  3  0  0  0  0  0  0
  -21.1190   -4.7200   24.9090 C   0  0  0  0  0  0  0  0  0  0  0  0
  -21.5700   -4.1120   23.7250 C   0  0  0  0  0  3  0  0  0  0  0  0
  -21.7730   -4.8890   22.5690 C   0  0  0  0  0  0  0  0  0  0  0  0
  -22.1790   -4.2830   21.4280 F   0  0  0  0  0  0  0  0  0  0  0  0
  -20.9330   -3.9720   26.0240 F   0  0  0  0  0  0  0  0  0  0  0  0
  -23.0280  -13.8890   20.6330 C   0  0  0  0  0  0  0  0  0  0  0  0
  -22.2850  -13.2530   21.5600 N   0  0  0  0  0  0  0  0  0  0  0  0
  -22.5450  -14.7260   19.8930 O   0  0  0  0  0  0  0  0  0  0  0  0
  -22.6990  -12.5520   22.1560 H   0  0  0  0  0  0  0  0  0  0  0  0
  -21.3120  -13.4960   21.6860 H   0  0  0  0  0  0  0  0  0  0  0  0
  -27.2890  -15.0650   21.0750 N   0  0  0  0  0  4  0  0  0  0  0  0
  -26.5270  -15.6210   21.4670 H   0  0  0  0  0  0  0  0  0  0  0  0
  -27.6200  -15.5290   20.2440 H   0  0  0  0  0  0  0  0  0  0  0  0
  -26.1150  -17.8410   18.8490 C   0  0  0  0  0 15  0  0  0  0  0  0
  -27.1470  -19.8890   19.0190 C   0  0  0  0  0 15  0  0  0  0  0  0
  -27.2740  -22.1770   18.7810 C   0  0  0  0  0 15  0  0  0  0  0  0
  -28.1320  -24.0460   18.9580 O   0  0  0  0  0  1  0  0  0  0  0  0
  -25.8360  -30.8010   22.9420 C   0  0  0  0  0  0  0  0  0  0  0  0
  -27.7660  -25.6790   19.1490 C   0  0  0  0  0  0  0  0  0  0  0  0
  -24.6870  -29.7360   21.0760 C   0  0  0  0  0  3  0  0  0  0  0  0
  -26.0620  -28.2760   19.3920 C   0  0  0  0  0  0  0  0  0  0  0  0
  -27.2670  -29.5880   21.0940 C   0  0  0  0  0  2  0  0  0  0  0  0
  -27.2150  -28.2500   20.1720 C   0  0  0  0  0  0  0  0  0  0  0  0
  -28.0740  -26.9750   20.0240 C   0  0  0  0  0  3  0  0  0  0  0  0
  -26.7730  -26.1430   18.2780 C   0  0  0  0  0  3  0  0  0  0  0  0
  -25.9370  -27.2850   18.4130 C   0  0  0  0  0  3  0  0  0  0  0  0
  -24.9610  -29.3290   19.6010 C   0  0  0  0  0  2  0  0  0  0  0  0
  -25.9680  -30.0890   21.7590 N   0  0  0  0  0  0  0  0  0  0  0  0
  -24.7210  -31.0540   23.4410 O   0  0  0  0  0  0  0  0  0  0  0  0
  -23.9240  -28.6120   21.8330 C   0  0  0  0  0  0  0  0  0  0  0  0
  -22.5870  -28.5330   21.6860 N   0  0  0  0  0  0  0  0  0  0  0  0
  -24.5500  -27.8210   22.5420 O   0  0  0  0  0  0  0  0  0  0  0  0
  -22.1270  -29.2240   21.1090 H   0  0  0  0  0  0  0  0  0  0  0  0
  -19.1620  -27.3590   22.0050 C   0  0  0  0  0  0  0  0  0  0  0  0
  -21.7330  -27.4910   22.2720 C   0  0  0  0  0  3  0  0  0  0  0  0
  -21.7780  -26.1970   21.4260 C   0  0  0  0  0  2  0  0  0  0  0  0
  -20.6590  -26.1210   20.3840 C   0  0  0  0  0  2  0  0  0  0  0  0
  -19.2890  -26.1730   21.0630 C   0  0  0  0  0  2  0  0  0  0  0  0
  -20.3090  -27.9880   22.5610 C   0  0  0  0  0  0  0  0  0  0  0  0
  -20.1320  -29.1020   23.4090 C   0  0  0  0  0  3  0  0  0  0  0  0
  -18.8440  -29.5870   23.7020 C   0  0  0  0  0  3  0  0  0  0  0  0
  -17.7120  -28.9550   23.1570 C   0  0  0  0  0  3  0  0  0  0  0  0
  -17.8730  -27.8410   22.3150 C   0  0  0  0  0  3  0  0  0  0  0  0
  -27.0590  -31.3510   23.7350 C   0  0  0  0  0  3  0  0  0  0  0  0
  -26.6260  -32.5390   24.5080 N   0  0  0  0  0  0  0  0  0  0  0  0
  -26.9210  -33.8160   24.2250 C   0  0  0  0  0  0  0  0  0  0  0  0
  -27.6420  -34.1270   23.2730 O   0  0  0  0  0  0  0  0  0  0  0  0
  -25.9820  -32.3630   25.2660 H   0  0  0  0  0  0  0  0  0  0  0  0
  -25.1160  -35.5660   24.4550 C   0  0  0  0  0  1  0  0  0  0  0  0
  -26.3370  -34.9230   25.1330 C   0  0  0  0  0  3  0  0  0  0  0  0
  -28.3640  -35.5230   26.3880 C   0  0  0  0  0  1  0  0  0  0  0  0
  -27.3110  -35.9800   25.4860 N   0  0  0  0  0  0  0  0  0  0  0  0
  -26.8430  -36.7710   25.9190 H   0  0  0  0  0  0  0  0  0  0  0  0
  -27.6730  -30.2890   24.7310 C   0  0  1  0  0  0  0  0  0  0  0  0
  -26.6370  -29.6580   25.6940 C   0  0  0  0  0  1  0  0  0  0  0  0
  -28.3520  -29.1310   23.9720 C   0  0  0  0  0  1  0  0  0  0  0  0
  -28.7820  -30.9510   25.5850 C   0  0  0  0  0  1  0  0  0  0  0  0
  4  6  1  0
  5  9  1  0
  5 25  1  0
  9  8  1  0
  9 10  1  0
 10 11  1  0
 12 20  1  0
 13 18  1  0
 14 15  2  0
 14 13  1  0
 15 16  1  0
 16 17  2  0
 16 25  1  0
 18 17  1  0
 18 12  1  0
 19 12  2  0
 20 11  1  0
 20 21  1  0
 22 47  2  0
 23 26  1  0
 23 42  1  0
 24 23  2  0
 25 22  1  0
 26 22  1  0
 27 28  1  0
 28 29  2  0
 30 33  1  0
 30 29  1  0
 31 30  2  0
 32 31  1  0
 32 27  2  0
 33 34  1  0
 34 35  1  0
 35 36  2  0
 37 36  1  0
 37 41  1  0
 38 37  2  0
 39 34  2  0
 39 38  1  0
 40 39  1  0
 42 43  1  0
 43 46  1  0
 43 45  1  0
 44 42  2  0
 47 48  1  0
 49 47  1  0
 53 55  1  0
 54 65  2  0
 55 60  1  0
 56 64  1  0
 56 66  1  0
 57 63  1  0
 57 59  1  0
 58 64  1  0
 59 58  1  0
 60 59  2  0
 61 62  1  0
 61 55  2  0
 62 57  2  0
 63 56  1  0
 64 54  1  0
 66 68  2  0
 67 66  1  0
 69 67  1  0
 70 79  2  0
 70 75  1  0
 71 67  1  0
 71 75  1  0
 72 71  1  0
 73 74  1  0
 73 72  1  0
 74 70  1  0
 75 76  2  0
 76 77  1  0
 78 77  2  0
 79 78  1  0
 80 54  1  0
 80 81  1  0
 80 90  1  0
 81 84  1  0
 82 81  1  0
 82 86  1  0
 83 82  2  0
 86 85  1  0
 86 88  1  0
 88 89  1  0
 88 87  1  0
 90 93  1  1
 90 91  1  0
 92 90  1  0
M  ISO  4  12 100  20 100  52 101  53 101
M  END
>  <TORSDO>  (32) 
F 22

>  <SCORE>  (32) 
-2.142

>  <name>  (32) 
31

>  <ligand_id>  (32) 
31

>  <original_smiles>  (32) 
[H]c1c([H])c([H])c2c(c1[H])C([H])([H])C([H])([H])C([H])([H])C2([H])N([H])C(=O)C1([H])N(C(=O)C([H])(N([H])C(=O)C([H])(N([H])C([H])([H])[H])C([H])([H])[H])C(C([H])([H])[H])(C([H])([H])[H])C([H])([H])[H])C([H])([H])c2c([H])c(OC([H])([H])C([H])([H])C([H])([H])c3c([H])c(C([H])([H])[H])nc(C([H])(C([H])([H])[H])C([H])([H])C([H])([H])N([H])C(=O)N4C([H])([H])C([H])([H])C([H])([H])C([H])(n5nc(-c6c([H])c([H])c(Oc7c([H])c([H])c(F)c([H])c7F)c([H])c6[H])c(C(=O)N([H])[H])c5N([H])[H])C4([H])[H])c3[H])c([H])c([H])c2C1([H])[H]

>  <smiles>  (32) 
[H]c1c([H])c([H])c2c(c1[H])C([H])([H])C([H])([H])C([H])([H])C2([H])N([H])C(=O)C1([H])N(C(=O)C([H])(N([H])C(=O)C([H])(N([H])C([H])([H])[H])C([H])([H])[H])C(C([H])([H])[H])(C([H])([H])[H])C([H])([H])[H])C([H])([H])c2c([H])c(OC([H])([H])C([H])([H])C([H])([H])c3c([H])c(C([H])([H])[H])nc(C([H])(C([H])([H])[H])C([H])([H])C([H])([H])N([H])C(=O)N4C([H])([H])C([H])([H])C([H])([H])C([H])(n5nc(-c6c([H])c([H])c(Oc7c([H])c([H])c(F)c([H])c7F)c([H])c6[H])c(C(=O)N([H])[H])c5N([H])[H])C4([H])[H])c3[H])c([H])c([H])c2C1([H])[H]

$$$$
32:0:0
     RDKit          3D

 97105  0  0  1  0  0  0  0  0999 V2000
  -31.8610  -21.5330   18.5800 C   0  0  0  0  0  3  0  0  0  0  0  0
  -30.4050  -23.3650   19.1480 C   0  0  0  0  0  3  0  0  0  0  0  0
  -31.5330  -22.8970   18.4490 C   0  0  0  0  0  0  0  0  0  0  0  0
  -31.0970  -20.7270   19.4520 C   0  0  0  0  0  0  0  0  0  0  0  0
  -29.6810  -22.4910   19.9820 C   0  0  0  0  0  0  0  0  0  0  0  0
  -30.0370  -21.1990   20.1410 N   0  0  0  0  0  0  0  0  0  0  0  0
  -32.3490  -23.8650   17.5980 C   0  0  0  0  0  2  0  0  0  0  0  0
  -33.0320  -24.9880   18.4290 C   0  0  0  0  0  2  0  0  0  0  0  0
  -33.8470  -27.3780   18.7250 C   0  0  0  0  0  1  0  0  0  0  0  0
  -31.7110  -26.9650   17.5190 C   0  0  0  0  0  1  0  0  0  0  0  0
  -33.9450  -26.3480   16.4720 C   0  0  0  0  0  1  0  0  0  0  0  0
  -33.1250  -26.3980   17.7750 C   0  0  2  0  0  0  0  0  0  0  0  0
  -31.5410  -19.3170   19.8090 C   0  0  0  0  0  2  0  0  0  0  0  0
  -30.5220  -18.1810   19.5500 C   0  0  0  0  0  2  0  0  0  0  0  0
  -31.1660  -16.8510   20.0080 C   0  0  0  0  0  2  0  0  0  0  0  0
  -30.8530  -14.4380   20.1020 C   0  0  0  0  0  0  0  0  0  0  0  0
  -30.3690  -12.3250   18.9460 C   0  0  0  0  0  2  0  0  0  0  0  0
  -29.3930  -12.5740   17.7810 C   0  0  0  0  0  2  0  0  0  0  0  0
  -27.9320  -12.4480   18.2670 C   0  0  0  0  0  2  0  0  0  0  0  0
  -27.6650  -13.2530   19.5670 C   0  0  0  0  0  3  0  0  0  0  0  0
  -28.7740  -13.0230   20.6130 C   0  0  0  0  0  2  0  0  0  0  0  0
  -30.0580  -13.3350   19.9730 N   0  0  0  0  0  0  0  0  0  0  0  0
  -32.0240  -14.3860   19.7190 O   0  0  0  0  0  0  0  0  0  0  0  0
  -29.3160  -15.9510   21.3600 C   0  0  0  0  0  1  0  0  0  0  0  0
  -30.2960  -15.6750   20.3010 N   0  0  0  0  0  0  0  0  0  0  0  0
  -25.3220  -13.8650   20.4270 C   0  0  0  0  0  0  0  0  0  0  0  0
  -24.2690  -13.0950   20.8390 C   0  0  0  0  0  0  0  0  0  0  0  0
  -24.7150  -11.7400   20.7610 C   0  0  0  0  0  0  0  0  0  0  0  0
  -26.3390  -12.9770   20.1180 N   0  0  0  0  0  0  0  0  0  0  0  0
  -25.9850  -11.6950   20.3800 N   0  0  0  0  0  0  0  0  0  0  0  0
  -23.9870  -10.4800   20.9620 C   0  0  0  0  0  0  0  0  0  0  0  0
  -24.4270   -9.5130   21.8910 C   0  0  0  0  0  3  0  0  0  0  0  0
  -23.6960   -8.3220   22.0880 C   0  0  0  0  0  3  0  0  0  0  0  0
  -22.5100   -8.0890   21.3500 C   0  0  0  0  0  0  0  0  0  0  0  0
  -22.0860   -9.0490   20.4120 C   0  0  0  0  0  3  0  0  0  0  0  0
  -22.8190  -10.2310   20.2150 C   0  0  0  0  0  3  0  0  0  0  0  0
  -21.7490   -6.9490   21.4530 O   0  0  0  0  0  0  0  0  0  0  0  0
  -21.6890   -6.2210   22.6150 C   0  0  0  0  0  0  0  0  0  0  0  0
  -21.2130   -6.7850   23.8200 C   0  0  0  0  0  3  0  0  0  0  0  0
  -21.0970   -5.9840   24.9740 C   0  0  0  0  0  3  0  0  0  0  0  0
  -21.4500   -4.6210   24.9220 C   0  0  0  0  0  0  0  0  0  0  0  0
  -21.9220   -4.0570   23.7230 C   0  0  0  0  0  3  0  0  0  0  0  0
  -22.0370   -4.8550   22.5700 C   0  0  0  0  0  0  0  0  0  0  0  0
  -22.4680   -4.3020   21.4100 F   0  0  0  0  0  0  0  0  0  0  0  0
  -21.3330   -3.8510   26.0260 F   0  0  0  0  0  0  0  0  0  0  0  0
  -22.8900  -13.5840   21.1800 C   0  0  0  0  0  0  0  0  0  0  0  0
  -22.1900  -12.8850   22.0670 N   0  0  0  0  0  0  0  0  0  0  0  0
  -22.4420  -14.6240   20.7000 O   0  0  0  0  0  0  0  0  0  0  0  0
  -22.5630  -12.0520   22.4890 H   0  0  0  0  0  0  0  0  0  0  0  0
  -21.2640  -13.1980   22.3290 H   0  0  0  0  0  0  0  0  0  0  0  0
  -25.4860  -15.2390   20.2680 N   0  0  0  0  0  0  0  0  0  0  0  0
  -24.7280  -15.8940   20.4320 H   0  0  0  0  0  0  0  0  0  0  0  0
  -26.3180  -15.6860   19.9070 H   0  0  0  0  0  0  0  0  0  0  0  0
  -28.4680  -22.9320   20.7950 C   0  0  0  0  0  2  0  0  0  0  0  0
  -27.8620  -24.2810   20.3610 C   0  0  0  0  0  2  0  0  0  0  0  0
  -28.5560  -25.4960   21.0170 C   0  0  0  0  0  2  0  0  0  0  0  0
  -28.4820  -26.7060   20.2580 O   0  0  0  0  0  0  0  0  0  0  0  0
  -24.5340  -31.8680   23.1820 C   0  0  0  0  0  0  0  0  0  0  0  0
  -27.2910  -27.3870   20.2780 C   0  0  0  0  0  0  0  0  0  0  0  0
  -23.3830  -30.4260   21.5280 C   0  0  0  0  0  3  0  0  0  0  0  0
  -24.8860  -28.8570   20.1950 C   0  0  0  0  0  0  0  0  0  0  0  0
  -25.9070  -30.7930   21.4040 C   0  0  0  0  0  2  0  0  0  0  0  0
  -26.0190  -29.4030   20.8160 C   0  0  0  0  0  0  0  0  0  0  0  0
  -27.2210  -28.6670   20.8690 C   0  0  0  0  0  3  0  0  0  0  0  0
  -26.1540  -26.8610   19.6320 C   0  0  0  0  0  3  0  0  0  0  0  0
  -24.9450  -27.5820   19.6060 C   0  0  0  0  0  3  0  0  0  0  0  0
  -23.6380  -29.7060   20.1760 C   0  0  0  0  0  2  0  0  0  0  0  0
  -24.6240  -31.0460   22.0990 N   0  0  0  0  0  0  0  0  0  0  0  0
  -23.4370  -32.1510   23.6840 O   0  0  0  0  0  0  0  0  0  0  0  0
  -22.7040  -29.4270   22.4920 C   0  0  0  0  0  0  0  0  0  0  0  0
  -21.3770  -29.2670   22.3450 N   0  0  0  0  0  0  0  0  0  0  0  0
  -23.3650  -28.7980   23.3220 O   0  0  0  0  0  0  0  0  0  0  0  0
  -20.9100  -29.8290   21.6480 H   0  0  0  0  0  0  0  0  0  0  0  0
  -17.9700  -28.1790   22.8390 C   0  0  0  0  0  0  0  0  0  0  0  0
  -20.5340  -28.3460   23.1040 C   0  0  0  0  0  3  0  0  0  0  0  0
  -20.5860  -26.9210   22.5020 C   0  0  0  0  0  2  0  0  0  0  0  0
  -19.4700  -26.6500   21.4900 C   0  0  0  0  0  2  0  0  0  0  0  0
  -18.0970  -26.8320   22.1430 C   0  0  0  0  0  2  0  0  0  0  0  0
  -19.1140  -28.8960   23.2740 C   0  0  0  0  0  0  0  0  0  0  0  0
  -18.9410  -30.1590   23.8830 C   0  0  0  0  0  3  0  0  0  0  0  0
  -17.6550  -30.7030   24.0560 C   0  0  0  0  0  3  0  0  0  0  0  0
  -16.5250  -29.9810   23.6380 C   0  0  0  0  0  3  0  0  0  0  0  0
  -16.6820  -28.7190   23.0360 C   0  0  0  0  0  3  0  0  0  0  0  0
  -25.8020  -32.5070   23.8340 C   0  0  0  0  0  3  0  0  0  0  0  0
  -26.3070  -31.7280   25.1110 C   0  0  1  0  0  0  0  0  0  0  0  0
  -25.1940  -31.4620   26.1520 C   0  0  0  0  0  1  0  0  0  0  0  0
  -26.9120  -30.3610   24.7100 C   0  0  0  0  0  1  0  0  0  0  0  0
  -27.4350  -32.5300   25.8030 C   0  0  0  0  0  1  0  0  0  0  0  0
  -25.4790  -33.8990   24.1670 N   0  0  0  0  0  0  0  0  0  0  0  0
  -25.8120  -34.9580   23.4110 C   0  0  0  0  0  0  0  0  0  0  0  0
  -26.4970  -34.8600   22.3900 O   0  0  0  0  0  0  0  0  0  0  0  0
  -24.8780  -34.0510   24.9630 H   0  0  0  0  0  0  0  0  0  0  0  0
  -24.0780  -36.7310   23.0160 C   0  0  0  0  0  1  0  0  0  0  0  0
  -25.3030  -36.3380   23.8590 C   0  0  0  0  0  3  0  0  0  0  0  0
  -27.4040  -37.2390   24.7510 C   0  0  0  0  0  1  0  0  0  0  0  0
  -26.3280  -37.3990   23.7730 N   0  0  0  0  0  0  0  0  0  0  0  0
  -25.9110  -38.3150   23.9090 H   0  0  0  0  0  0  0  0  0  0  0  0
  1  4  1  0
  2  5  2  0
  3  1  2  0
  3  2  1  0
  4 13  1  0
  4  6  2  0
  5  6  1  0
  5 54  1  0
  7  8  1  0
  7  3  1  0
 12 10  1  6
 11 12  1  0
 12  8  1  0
 12  9  1  0
 14 13  1  0
 14 15  1  0
 15 25  1  0
 16 25  1  0
 17 22  1  0
 18 19  1  0
 18 17  1  0
 20 19  1  0
 20 29  1  0
 20 21  1  0
 22 16  1  0
 22 21  1  0
 23 16  2  0
 25 24  1  0
 26 27  2  0
 27 46  1  0
 28 27  1  0
 28 31  1  0
 29 30  1  0
 29 26  1  0
 30 28  2  0
 31 32  1  0
 32 33  2  0
 34 37  1  0
 34 33  1  0
 35 34  2  0
 36 35  1  0
 36 31  2  0
 37 38  1  0
 38 39  1  0
 39 40  2  0
 41 40  1  0
 41 45  1  0
 42 41  2  0
 43 38  2  0
 43 42  1  0
 44 43  1  0
 46 47  1  0
 47 50  1  0
 47 49  1  0
 48 46  2  0
 51 26  1  0
 51 52  1  0
 53 51  1  0
 55 54  1  0
 55 56  1  0
 57 59  1  0
 57 56  1  0
 58 69  2  0
 59 64  1  0
 60 68  1  0
 60 70  1  0
 61 63  1  0
 62 68  1  0
 63 64  2  0
 63 62  1  0
 65 59  2  0
 66 65  1  0
 66 61  2  0
 67 61  1  0
 67 60  1  0
 68 58  1  0
 70 72  2  0
 71 70  1  0
 73 71  1  0
 74 83  2  0
 74 79  1  0
 75 71  1  0
 75 79  1  0
 76 75  1  0
 77 78  1  0
 77 76  1  0
 78 74  1  0
 79 80  2  0
 80 81  1  0
 82 81  2  0
 83 82  1  0
 84 58  1  0
 84 89  1  0
 84 85  1  0
 85 88  1  1
 85 86  1  0
 87 85  1  0
 89 92  1  0
 90 94  1  0
 90 89  1  0
 91 90  2  0
 94 93  1  0
 96 94  1  0
 96 97  1  0
 96 95  1  0
M  ISO  4  16 100  25 100  56 101  57 101
M  END
>  <TORSDO>  (33) 
F 25

>  <SCORE>  (33) 
-12.054

>  <name>  (33) 
32

>  <ligand_id>  (33) 
32

>  <original_smiles>  (33) 
[H]c1c([H])c([H])c2c(c1[H])C([H])([H])C([H])([H])C([H])([H])C2([H])N([H])C(=O)C1([H])N(C(=O)C([H])(N([H])C(=O)C([H])(N([H])C([H])([H])[H])C([H])([H])[H])C(C([H])([H])[H])(C([H])([H])[H])C([H])([H])[H])C([H])([H])c2c([H])c(OC([H])([H])C([H])([H])C([H])([H])c3nc(C([H])([H])C([H])([H])C([H])([H])N(C(=O)N4C([H])([H])C([H])([H])C([H])([H])C([H])(n5nc(-c6c([H])c([H])c(Oc7c([H])c([H])c(F)c([H])c7F)c([H])c6[H])c(C(=O)N([H])[H])c5N([H])[H])C4([H])[H])C([H])([H])[H])c([H])c(C([H])([H])C([H])([H])C(C([H])([H])[H])(C([H])([H])[H])C([H])([H])[H])c3[H])c([H])c([H])c2C1([H])[H]

>  <smiles>  (33) 
[H]c1c([H])c([H])c2c(c1[H])C([H])([H])C([H])([H])C([H])([H])C2([H])N([H])C(=O)C1([H])N(C(=O)C([H])(N([H])C(=O)C([H])(N([H])C([H])([H])[H])C([H])([H])[H])C(C([H])([H])[H])(C([H])([H])[H])C([H])([H])[H])C([H])([H])c2c([H])c(OC([H])([H])C([H])([H])C([H])([H])c3nc(C([H])([H])C([H])([H])C([H])([H])N(C(=O)N4C([H])([H])C([H])([H])C([H])([H])C([H])(n5nc(-c6c([H])c([H])c(Oc7c([H])c([H])c(F)c([H])c7F)c([H])c6[H])c(C(=O)N([H])[H])c5N([H])[H])C4([H])[H])C([H])([H])[H])c([H])c(C([H])([H])C([H])([H])C(C([H])([H])[H])(C([H])([H])[H])C([H])([H])[H])c3[H])c([H])c([H])c2C1([H])[H]

$$$$
33:0:0
     RDKit          3D

 97105  0  0  1  0  0  0  0  0999 V2000
  -29.2020  -20.9840   20.7300 C   0  0  0  0  0  3  0  0  0  0  0  0
  -29.8630  -22.4060   19.1920 C   0  0  0  0  0  3  0  0  0  0  0  0
  -29.1800  -22.4140   20.3710 C   0  0  0  0  0  0  0  0  0  0  0  0
  -29.8470  -20.1480   19.8070 C   0  0  0  0  0  0  0  0  0  0  0  0
  -30.3180  -21.1140   18.8430 N   0  0  0  0  0  0  0  0  0  0  0  0
  -31.3260  -18.0790   19.1510 C   0  0  0  0  0  1  0  0  0  0  0  0
  -28.7660  -18.0850   18.7700 C   0  0  0  0  0  1  0  0  0  0  0  0
  -29.9440  -18.5140   19.6730 C   0  0  2  0  0  0  0  0  0  0  0  0
  -29.8640  -17.4390   20.9090 C   0  0  0  0  0  2  0  0  0  0  0  0
  -30.5480  -14.8090   20.4070 C   0  0  0  0  0  0  0  0  0  0  0  0
  -30.4110  -12.5330   19.3480 C   0  0  0  0  0  2  0  0  0  0  0  0
  -29.4690  -12.5710   18.1200 C   0  0  0  0  0  2  0  0  0  0  0  0
  -27.9960  -12.3720   18.5460 C   0  0  0  0  0  2  0  0  0  0  0  0
  -27.6030  -13.2730   19.7540 C   0  0  0  0  0  3  0  0  0  0  0  0
  -28.6550  -13.1990   20.8800 C   0  0  0  0  0  2  0  0  0  0  0  0
  -29.9460  -13.5740   20.2950 N   0  0  0  0  0  0  0  0  0  0  0  0
  -31.7540  -14.9140   20.1450 O   0  0  0  0  0  0  0  0  0  0  0  0
  -29.7160  -15.9090   20.6370 N   0  0  0  0  0  0  0  0  0  0  0  0
  -28.7510  -15.6180   20.6970 H   0  0  0  0  0  0  0  0  0  0  0  0
  -25.2130  -13.8570   20.4870 C   0  0  0  0  0  0  0  0  0  0  0  0
  -24.1480  -13.0760   20.8670 C   0  0  0  0  0  0  0  0  0  0  0  0
  -24.6180  -11.7310   20.8420 C   0  0  0  0  0  0  0  0  0  0  0  0
  -26.2600  -12.9800   20.2520 N   0  0  0  0  0  0  0  0  0  0  0  0
  -25.9080  -11.6960   20.5250 N   0  0  0  0  0  0  0  0  0  0  0  0
  -23.9000  -10.4630   21.0330 C   0  0  0  0  0  0  0  0  0  0  0  0
  -24.3430   -9.5000   21.9630 C   0  0  0  0  0  3  0  0  0  0  0  0
  -23.6260   -8.2980   22.1460 C   0  0  0  0  0  3  0  0  0  0  0  0
  -22.4480   -8.0540   21.3990 C   0  0  0  0  0  0  0  0  0  0  0  0
  -22.0220   -9.0070   20.4580 C   0  0  0  0  0  3  0  0  0  0  0  0
  -22.7450  -10.1990   20.2740 C   0  0  0  0  0  3  0  0  0  0  0  0
  -21.6950   -6.9090   21.4960 O   0  0  0  0  0  0  0  0  0  0  0  0
  -21.6600   -6.1610   22.6450 C   0  0  0  0  0  0  0  0  0  0  0  0
  -21.2520   -6.7100   23.8810 C   0  0  0  0  0  3  0  0  0  0  0  0
  -21.1650   -5.8850   25.0210 C   0  0  0  0  0  3  0  0  0  0  0  0
  -21.4800   -4.5170   24.9290 C   0  0  0  0  0  0  0  0  0  0  0  0
  -21.8800   -3.9690   23.6980 C   0  0  0  0  0  3  0  0  0  0  0  0
  -21.9680   -4.7880   22.5600 C   0  0  0  0  0  0  0  0  0  0  0  0
  -22.3370   -4.2490   21.3730 F   0  0  0  0  0  0  0  0  0  0  0  0
  -21.3890   -3.7240   26.0240 F   0  0  0  0  0  0  0  0  0  0  0  0
  -22.7540  -13.5530   21.1380 C   0  0  0  0  0  0  0  0  0  0  0  0
  -22.0250  -12.8500   22.0010 N   0  0  0  0  0  0  0  0  0  0  0  0
  -22.3130  -14.5720   20.6120 O   0  0  0  0  0  0  0  0  0  0  0  0
  -22.3950  -12.0310   22.4580 H   0  0  0  0  0  0  0  0  0  0  0  0
  -21.0840  -13.1440   22.2190 H   0  0  0  0  0  0  0  0  0  0  0  0
  -25.3670  -15.2260   20.3130 N   0  0  0  0  0  0  0  0  0  0  0  0
  -24.5810  -15.8610   20.4130 H   0  0  0  0  0  0  0  0  0  0  0  0
  -26.1860  -15.6760   19.9220 H   0  0  0  0  0  0  0  0  0  0  0  0
  -28.7930  -23.3720   22.6130 C   0  0  0  0  0  1  0  0  0  0  0  0
  -26.9590  -23.4230   20.8210 C   0  0  0  0  0  1  0  0  0  0  0  0
  -28.4500  -23.6440   21.1220 C   0  0  2  0  0  0  0  0  0  0  0  0
  -28.8020  -25.2770   20.9960 C   0  0  0  0  0  2  0  0  0  0  0  0
  -28.3730  -26.3640   20.0400 O   0  0  0  0  0  0  0  0  0  0  0  0
  -24.6320  -31.8670   23.2080 C   0  0  0  0  0  0  0  0  0  0  0  0
  -27.2520  -27.2270   20.2020 C   0  0  0  0  0  0  0  0  0  0  0  0
  -23.4260  -30.4520   21.5820 C   0  0  0  0  0  3  0  0  0  0  0  0
  -24.8840  -28.8720   20.1820 C   0  0  0  0  0  0  0  0  0  0  0  0
  -25.9660  -30.7570   21.3970 C   0  0  0  0  0  2  0  0  0  0  0  0
  -26.0540  -29.3600   20.7790 C   0  0  0  0  0  0  0  0  0  0  0  0
  -27.2450  -28.5530   20.7730 C   0  0  0  0  0  3  0  0  0  0  0  0
  -26.0440  -26.7990   19.6110 C   0  0  0  0  0  3  0  0  0  0  0  0
  -24.8860  -27.6010   19.5850 C   0  0  0  0  0  3  0  0  0  0  0  0
  -23.6470  -29.7540   20.2100 C   0  0  0  0  0  2  0  0  0  0  0  0
  -24.6930  -31.0480   22.1170 N   0  0  0  0  0  0  0  0  0  0  0  0
  -23.5490  -32.1500   23.7420 O   0  0  0  0  0  0  0  0  0  0  0  0
  -22.7630  -29.4510   22.5610 C   0  0  0  0  0  0  0  0  0  0  0  0
  -21.4350  -29.2740   22.4380 N   0  0  0  0  0  0  0  0  0  0  0  0
  -23.4440  -28.8310   23.3810 O   0  0  0  0  0  0  0  0  0  0  0  0
  -20.9530  -29.8260   21.7450 H   0  0  0  0  0  0  0  0  0  0  0  0
  -18.0600  -28.0600   22.9490 C   0  0  0  0  0  0  0  0  0  0  0  0
  -20.6160  -28.3390   23.2170 C   0  0  0  0  0  3  0  0  0  0  0  0
  -20.7300  -26.9040   22.6520 C   0  0  0  0  0  2  0  0  0  0  0  0
  -19.6320  -26.5650   21.6410 C   0  0  0  0  0  2  0  0  0  0  0  0
  -18.2480  -26.7050   22.2850 C   0  0  0  0  0  2  0  0  0  0  0  0
  -19.1730  -28.8330   23.3730 C   0  0  0  0  0  0  0  0  0  0  0  0
  -18.9470  -30.0990   23.9560 C   0  0  0  0  0  3  0  0  0  0  0  0
  -17.6400  -30.5890   24.1220 C   0  0  0  0  0  3  0  0  0  0  0  0
  -16.5420  -29.8120   23.7170 C   0  0  0  0  0  3  0  0  0  0  0  0
  -16.7540  -28.5470   23.1380 C   0  0  0  0  0  3  0  0  0  0  0  0
  -25.9150  -32.5100   23.8240 C   0  0  0  0  0  3  0  0  0  0  0  0
  -25.5990  -33.9090   24.1590 N   0  0  0  0  0  0  0  0  0  0  0  0
  -25.9170  -34.9670   23.4030 C   0  0  0  0  0  0  0  0  0  0  0  0
  -26.5790  -34.8700   22.3670 O   0  0  0  0  0  0  0  0  0  0  0  0
  -25.0080  -34.0550   24.9660 H   0  0  0  0  0  0  0  0  0  0  0  0
  -24.1800  -36.7590   23.0640 C   0  0  0  0  0  1  0  0  0  0  0  0
  -25.4250  -36.3530   23.8670 C   0  0  0  0  0  3  0  0  0  0  0  0
  -27.5600  -37.2430   24.6900 C   0  0  0  0  0  1  0  0  0  0  0  0
  -26.4530  -37.4110   23.7550 N   0  0  0  0  0  0  0  0  0  0  0  0
  -26.0430  -38.3310   23.9060 H   0  0  0  0  0  0  0  0  0  0  0  0
  -26.4440  -31.7440   25.1000 C   0  0  1  0  0  0  0  0  0  0  0  0
  -25.3620  -31.5100   26.1800 C   0  0  0  0  0  1  0  0  0  0  0  0
  -27.0250  -30.3610   24.7160 C   0  0  0  0  0  1  0  0  0  0  0  0
  -27.5940  -32.5470   25.7550 C   0  0  0  0  0  1  0  0  0  0  0  0
  -31.7880  -22.2530   17.0600 C   0  0  0  0  0  1  0  0  0  0  0  0
  -31.2250  -20.9350   17.6580 C   0  0  0  0  0  3  0  0  0  0  0  0
  -30.6940  -20.0900   16.4590 C   0  0  0  0  0  2  0  0  0  0  0  0
  -31.5210  -19.3060   14.1340 C   0  0  0  0  0  1  0  0  0  0  0  0
  -31.8290  -19.4090   15.6350 C   0  0  0  0  0  2  0  0  0  0  0  0
  2  3  2  0
  3  1  1  0
  3 50  1  0
  4  1  2  0
  5  2  1  0
  5  4  1  0
  8  6  1  6
  7  8  1  0
  8  4  1  0
  8  9  1  0
 10 18  1  0
 11 16  1  0
 12 13  1  0
 12 11  1  0
 14 13  1  0
 14 23  1  0
 14 15  1  0
 16 10  1  0
 16 15  1  0
 17 10  2  0
 18 19  1  0
 18  9  1  0
 20 21  2  0
 21 40  1  0
 22 21  1  0
 22 25  1  0
 23 20  1  0
 23 24  1  0
 24 22  2  0
 25 26  1  0
 26 27  2  0
 28 31  1  0
 28 27  1  0
 29 28  2  0
 30 29  1  0
 30 25  2  0
 31 32  1  0
 32 33  1  0
 33 34  2  0
 35 34  1  0
 35 39  1  0
 36 35  2  0
 37 32  2  0
 37 36  1  0
 38 37  1  0
 40 41  1  0
 41 44  1  0
 41 43  1  0
 42 40  2  0
 45 46  1  0
 45 20  1  0
 47 45  1  0
 50 49  1  1
 50 48  1  0
 51 50  1  0
 52 54  1  0
 52 51  1  0
 53 64  2  0
 54 59  1  0
 55 63  1  0
 55 65  1  0
 56 62  1  0
 56 58  1  0
 57 63  1  0
 58 57  1  0
 59 58  2  0
 60 54  2  0
 61 60  1  0
 61 56  2  0
 62 55  1  0
 63 53  1  0
 65 67  2  0
 66 65  1  0
 68 66  1  0
 69 78  2  0
 69 74  1  0
 70 66  1  0
 70 74  1  0
 71 70  1  0
 72 73  1  0
 72 71  1  0
 73 69  1  0
 74 75  2  0
 75 76  1  0
 77 76  2  0
 78 77  1  0
 79 53  1  0
 79 80  1  0
 79 89  1  0
 80 83  1  0
 81 85  1  0
 81 80  1  0
 82 81  2  0
 85 84  1  0
 87 85  1  0
 87 88  1  0
 87 86  1  0
 89 92  1  1
 89 90  1  0
 91 89  1  0
 94 93  1  0
 94  5  1  0
 95 94  1  0
 96 97  1  0
 97 95  1  0
M  ISO  4  10 100  18 100  51 101  52 101
M  END
>  <TORSDO>  (34) 
F 23

>  <SCORE>  (34) 
-12.961

>  <name>  (34) 
33

>  <ligand_id>  (34) 
33

>  <original_smiles>  (34) 
[H]c1c([H])c([H])c2c(c1[H])C([H])([H])C([H])([H])C([H])([H])C2([H])N([H])C(=O)C1([H])N(C(=O)C([H])(N([H])C(=O)C([H])(N([H])C([H])([H])[H])C([H])([H])[H])C(C([H])([H])[H])(C([H])([H])[H])C([H])([H])[H])C([H])([H])c2c([H])c(OC([H])([H])C(c3c([H])c(C(C([H])([H])[H])(C([H])([H])[H])C([H])([H])N([H])C(=O)N4C([H])([H])C([H])([H])C([H])([H])C([H])(n5nc(-c6c([H])c([H])c(Oc7c([H])c([H])c(F)c([H])c7F)c([H])c6[H])c(C(=O)N([H])[H])c5N([H])[H])C4([H])[H])n(C([H])(C([H])([H])[H])C([H])([H])C([H])([H])C([H])([H])[H])c3[H])(C([H])([H])[H])C([H])([H])[H])c([H])c([H])c2C1([H])[H]

>  <smiles>  (34) 
[H]c1c([H])c([H])c2c(c1[H])C([H])([H])C([H])([H])C([H])([H])C2([H])N([H])C(=O)C1([H])N(C(=O)C([H])(N([H])C(=O)C([H])(N([H])C([H])([H])[H])C([H])([H])[H])C(C([H])([H])[H])(C([H])([H])[H])C([H])([H])[H])C([H])([H])c2c([H])c(OC([H])([H])C(c3c([H])c(C(C([H])([H])[H])(C([H])([H])[H])C([H])([H])N([H])C(=O)N4C([H])([H])C([H])([H])C([H])([H])C([H])(n5nc(-c6c([H])c([H])c(Oc7c([H])c([H])c(F)c([H])c7F)c([H])c6[H])c(C(=O)N([H])[H])c5N([H])[H])C4([H])[H])n(C([H])(C([H])([H])[H])C([H])([H])C([H])([H])C([H])([H])[H])c3[H])(C([H])([H])[H])C([H])([H])[H])c([H])c([H])c2C1([H])[H]

$$$$
34:0:0
     RDKit          3D

 93101  0  0  1  0  0  0  0  0999 V2000
  -26.6260  -22.2830   19.3350 C   0  0  0  0  0  3  0  0  0  0  0  0
  -27.8220  -21.8040   19.9140 C   0  0  0  0  0  0  0  0  0  0  0  0
  -28.2740  -20.4880   19.5300 C   0  0  0  0  0  0  0  0  0  0  0  0
  -27.6230  -19.9030   18.4020 C   0  0  0  0  0  0  0  0  0  0  0  0
  -26.4730  -20.5190   17.8650 C   0  0  0  0  0  0  0  0  0  0  0  0
  -28.1660  -18.6670   17.6790 C   0  0  0  0  0  1  0  0  0  0  0  0
  -25.7510  -19.9630   16.6460 C   0  0  0  0  0  1  0  0  0  0  0  0
  -25.9530  -21.6520   18.3630 N   0  0  0  0  0  0  0  0  0  0  0  0
  -28.5820  -22.7550   20.8720 C   0  0  0  0  0  2  0  0  0  0  0  0
  -28.1500  -24.2760   20.9970 C   0  0  0  0  0  3  0  0  0  0  0  0
  -28.4720  -25.2810   19.8370 C   0  0  0  0  0  3  0  0  0  0  0  0
  -28.4240  -26.6920   20.2080 O   0  0  0  0  0  0  0  0  0  0  0  0
  -24.6070  -31.9290   23.2570 C   0  0  0  0  0  0  0  0  0  0  0  0
  -27.2440  -27.4290   20.1880 C   0  0  0  0  0  0  0  0  0  0  0  0
  -23.4060  -30.5210   21.6210 C   0  0  0  0  0  3  0  0  0  0  0  0
  -24.8550  -28.9770   20.2010 C   0  0  0  0  0  0  0  0  0  0  0  0
  -25.9370  -30.8660   21.4270 C   0  0  0  0  0  2  0  0  0  0  0  0
  -26.0190  -29.4920   20.7810 C   0  0  0  0  0  0  0  0  0  0  0  0
  -27.2140  -28.7280   20.7630 C   0  0  0  0  0  3  0  0  0  0  0  0
  -26.0530  -26.9380   19.6070 C   0  0  0  0  0  3  0  0  0  0  0  0
  -24.8700  -27.7010   19.6120 C   0  0  0  0  0  3  0  0  0  0  0  0
  -23.6210  -29.8490   20.2400 C   0  0  0  0  0  2  0  0  0  0  0  0
  -24.6680  -31.1240   22.1580 N   0  0  0  0  0  0  0  0  0  0  0  0
  -23.5230  -32.2000   23.7940 O   0  0  0  0  0  0  0  0  0  0  0  0
  -22.7550  -29.4990   22.5830 C   0  0  0  0  0  0  0  0  0  0  0  0
  -21.4300  -29.3120   22.4590 N   0  0  0  0  0  0  0  0  0  0  0  0
  -23.4390  -28.8800   23.4030 O   0  0  0  0  0  0  0  0  0  0  0  0
  -20.9380  -29.8670   21.7740 H   0  0  0  0  0  0  0  0  0  0  0  0
  -18.0590  -28.1030   22.9710 C   0  0  0  0  0  0  0  0  0  0  0  0
  -20.6180  -28.3720   23.2320 C   0  0  0  0  0  3  0  0  0  0  0  0
  -20.7230  -26.9400   22.6570 C   0  0  0  0  0  2  0  0  0  0  0  0
  -19.6180  -26.6110   21.6480 C   0  0  0  0  0  2  0  0  0  0  0  0
  -18.2390  -26.7540   22.2960 C   0  0  0  0  0  2  0  0  0  0  0  0
  -19.1780  -28.8690   23.3970 C   0  0  0  0  0  0  0  0  0  0  0  0
  -18.9580  -30.1320   23.9890 C   0  0  0  0  0  3  0  0  0  0  0  0
  -17.6520  -30.6290   24.1580 C   0  0  0  0  0  3  0  0  0  0  0  0
  -16.5480  -29.8600   23.7470 C   0  0  0  0  0  3  0  0  0  0  0  0
  -16.7530  -28.5990   23.1610 C   0  0  0  0  0  3  0  0  0  0  0  0
  -25.8890  -32.5680   23.8750 C   0  0  0  0  0  3  0  0  0  0  0  0
  -25.5770  -33.9690   24.1930 N   0  0  0  0  0  0  0  0  0  0  0  0
  -25.9100  -35.0160   23.4280 C   0  0  0  0  0  0  0  0  0  0  0  0
  -26.5850  -34.9060   22.4000 O   0  0  0  0  0  0  0  0  0  0  0  0
  -24.9830  -34.1280   24.9940 H   0  0  0  0  0  0  0  0  0  0  0  0
  -24.1910  -36.8120   23.0380 C   0  0  0  0  0  1  0  0  0  0  0  0
  -25.4170  -36.4070   23.8720 C   0  0  0  0  0  3  0  0  0  0  0  0
  -27.5390  -37.2920   24.7360 C   0  0  0  0  0  1  0  0  0  0  0  0
  -26.4530  -37.4590   23.7730 N   0  0  0  0  0  0  0  0  0  0  0  0
  -26.0460  -38.3800   23.9110 H   0  0  0  0  0  0  0  0  0  0  0  0
  -26.4070  -31.8090   25.1590 C   0  0  1  0  0  0  0  0  0  0  0  0
  -25.3170  -31.5790   26.2310 C   0  0  0  0  0  1  0  0  0  0  0  0
  -26.9960  -30.4310   24.7790 C   0  0  0  0  0  1  0  0  0  0  0  0
  -27.5560  -32.6150   25.8130 C   0  0  0  0  0  1  0  0  0  0  0  0
  -29.4540  -19.7230   20.2010 C   0  0  0  0  0  2  0  0  0  0  0  0
  -29.1590  -18.2470   20.7120 C   0  0  0  0  0  3  0  0  0  0  0  0
  -30.3170  -17.1910   20.5220 C   0  0  0  0  0  3  0  0  0  0  0  0
  -30.7290  -14.6780   20.4550 C   0  0  0  0  0  0  0  0  0  0  0  0
  -30.4910  -12.4660   19.3770 C   0  0  0  0  0  2  0  0  0  0  0  0
  -29.5820  -12.6430   18.1420 C   0  0  0  0  0  2  0  0  0  0  0  0
  -28.0960  -12.5130   18.5320 C   0  0  0  0  0  2  0  0  0  0  0  0
  -27.7270  -13.3360   19.7960 C   0  0  0  0  0  3  0  0  0  0  0  0
  -28.7670  -13.1650   20.9270 C   0  0  0  0  0  2  0  0  0  0  0  0
  -30.0880  -13.4790   20.3680 N   0  0  0  0  0  0  0  0  0  0  0  0
  -31.8940  -14.8220   20.0720 O   0  0  0  0  0  0  0  0  0  0  0  0
  -29.9600  -15.7590   20.7650 N   0  0  0  0  0  0  0  0  0  0  0  0
  -29.0250  -15.5600   21.0880 H   0  0  0  0  0  0  0  0  0  0  0  0
  -25.3190  -13.9200   20.4610 C   0  0  0  0  0  0  0  0  0  0  0  0
  -24.2500  -13.1460   20.8210 C   0  0  0  0  0  0  0  0  0  0  0  0
  -24.7230  -11.7970   20.8130 C   0  0  0  0  0  0  0  0  0  0  0  0
  -26.3730  -13.0450   20.2570 N   0  0  0  0  0  0  0  0  0  0  0  0
  -26.0190  -11.7640   20.5280 N   0  0  0  0  0  0  0  0  0  0  0  0
  -23.9990  -10.5320   21.0050 C   0  0  0  0  0  0  0  0  0  0  0  0
  -24.4210   -9.5760   21.9570 C   0  0  0  0  0  3  0  0  0  0  0  0
  -23.7000   -8.3760   22.1330 C   0  0  0  0  0  3  0  0  0  0  0  0
  -22.5430   -8.1210   21.3600 C   0  0  0  0  0  0  0  0  0  0  0  0
  -22.1420   -9.0650   20.3990 C   0  0  0  0  0  3  0  0  0  0  0  0
  -22.8630  -10.2570   20.2200 C   0  0  0  0  0  3  0  0  0  0  0  0
  -21.7950   -6.9720   21.4450 O   0  0  0  0  0  0  0  0  0  0  0  0
  -21.7260   -6.2420   22.6050 C   0  0  0  0  0  0  0  0  0  0  0  0
  -21.2630   -6.8030   23.8150 C   0  0  0  0  0  3  0  0  0  0  0  0
  -21.1430   -5.9960   24.9640 C   0  0  0  0  0  3  0  0  0  0  0  0
  -21.4790   -4.6300   24.9050 C   0  0  0  0  0  0  0  0  0  0  0  0
  -21.9350   -4.0680   23.7000 C   0  0  0  0  0  3  0  0  0  0  0  0
  -22.0560   -4.8710   22.5520 C   0  0  0  0  0  0  0  0  0  0  0  0
  -22.4750   -4.3200   21.3870 F   0  0  0  0  0  0  0  0  0  0  0  0
  -21.3580   -3.8530   26.0060 F   0  0  0  0  0  0  0  0  0  0  0  0
  -22.8460  -13.6170   21.0630 C   0  0  0  0  0  0  0  0  0  0  0  0
  -22.1050  -12.9240   21.9210 N   0  0  0  0  0  0  0  0  0  0  0  0
  -22.4130  -14.6370   20.5290 O   0  0  0  0  0  0  0  0  0  0  0  0
  -22.4670  -12.1000   22.3760 H   0  0  0  0  0  0  0  0  0  0  0  0
  -21.1630  -13.2260   22.1270 H   0  0  0  0  0  0  0  0  0  0  0  0
  -25.4790  -15.2890   20.2710 N   0  0  0  0  0  0  0  0  0  0  0  0
  -24.7080  -15.9410   20.3560 H   0  0  0  0  0  0  0  0  0  0  0  0
  -26.3320  -15.7250   19.9440 H   0  0  0  0  0  0  0  0  0  0  0  0
  1  2  1  0
  2  9  1  0
  3  2  2  0
  3 53  1  0
  4  3  1  0
  5  8  1  0
  5  4  2  0
  6  4  1  0
  7  5  1  0
  8  1  2  0
  9 10  1  0
 11 12  1  0
 11 10  2  0
 13 24  2  0
 14 12  1  0
 14 19  1  0
 15 23  1  0
 15 25  1  0
 16 22  1  0
 16 18  1  0
 17 23  1  0
 18 17  1  0
 19 18  2  0
 20 21  1  0
 20 14  2  0
 21 16  2  0
 22 15  1  0
 23 13  1  0
 25 27  2  0
 26 25  1  0
 28 26  1  0
 29 38  2  0
 29 34  1  0
 30 26  1  0
 30 34  1  0
 31 30  1  0
 32 33  1  0
 32 31  1  0
 33 29  1  0
 34 35  2  0
 35 36  1  0
 37 36  2  0
 38 37  1  0
 39 13  1  0
 39 40  1  0
 39 49  1  0
 40 43  1  0
 41 45  1  0
 41 40  1  0
 42 41  2  0
 45 44  1  0
 47 45  1  0
 47 48  1  0
 47 46  1  0
 49 52  1  1
 49 50  1  0
 51 49  1  0
 53 54  1  0
 55 54  2  0
 55 64  1  0
 56 64  1  0
 57 62  1  0
 58 59  1  0
 58 57  1  0
 60 59  1  0
 60 69  1  0
 60 61  1  0
 62 56  1  0
 62 61  1  0
 63 56  2  0
 64 65  1  0
 66 67  2  0
 67 86  1  0
 68 67  1  0
 68 71  1  0
 69 66  1  0
 69 70  1  0
 70 68  2  0
 71 72  1  0
 72 73  2  0
 74 77  1  0
 74 73  1  0
 75 74  2  0
 76 75  1  0
 76 71  2  0
 77 78  1  0
 78 79  1  0
 79 80  2  0
 81 80  1  0
 81 85  1  0
 82 81  2  0
 83 78  2  0
 83 82  1  0
 84 83  1  0
 86 87  1  0
 87 90  1  0
 87 89  1  0
 88 86  2  0
 91 92  1  0
 91 66  1  0
 93 91  1  0
M  ISO  4  11 101  12 101  56 100  64 100
M  END
>  <TORSDO>  (35) 
F 22

>  <SCORE>  (35) 
-12.969

>  <name>  (35) 
34

>  <ligand_id>  (35) 
34

>  <original_smiles>  (35) 
[H]c1nc(C([H])([H])[H])c(C([H])([H])[H])c(C([H])([H])C([H])([H])C([H])([H])N([H])C(=O)N2C([H])([H])C([H])([H])C([H])([H])C([H])(n3nc(-c4c([H])c([H])c(Oc5c([H])c([H])c(F)c([H])c5F)c([H])c4[H])c(C(=O)N([H])[H])c3N([H])[H])C2([H])[H])c1C([H])([H])C([H])([H])C([H])([H])Oc1c([H])c([H])c2c(c1[H])C([H])([H])N(C(=O)C([H])(N([H])C(=O)C([H])(N([H])C([H])([H])[H])C([H])([H])[H])C(C([H])([H])[H])(C([H])([H])[H])C([H])([H])[H])C([H])(C(=O)N([H])C1([H])c3c([H])c([H])c([H])c([H])c3C([H])([H])C([H])([H])C1([H])[H])C2([H])[H]

>  <smiles>  (35) 
[H]c1nc(C([H])([H])[H])c(C([H])([H])[H])c(C([H])([H])C([H])([H])C([H])([H])N([H])C(=O)N2C([H])([H])C([H])([H])C([H])([H])C([H])(n3nc(-c4c([H])c([H])c(Oc5c([H])c([H])c(F)c([H])c5F)c([H])c4[H])c(C(=O)N([H])[H])c3N([H])[H])C2([H])[H])c1C([H])([H])C([H])([H])C([H])([H])Oc1c([H])c([H])c2c(c1[H])C([H])([H])N(C(=O)C([H])(N([H])C(=O)C([H])(N([H])C([H])([H])[H])C([H])([H])[H])C(C([H])([H])[H])(C([H])([H])[H])C([H])([H])[H])C([H])(C(=O)N([H])C1([H])c3c([H])c([H])c([H])c([H])c3C([H])([H])C([H])([H])C1([H])[H])C2([H])[H]

$$$$
35:0:0
     RDKit          3D

 92100  0  0  1  0  0  0  0  0999 V2000
  -28.6850  -20.4430   20.0440 C   0  0  0  0  0  3  0  0  0  0  0  0
  -29.2780  -21.6570   20.3100 C   0  0  0  0  0  0  0  0  0  0  0  0
  -30.5470  -21.2510   20.8260 C   0  0  0  0  0  0  0  0  0  0  0  0
  -31.6830  -22.1210   21.2780 C   0  0  0  0  0  1  0  0  0  0  0  0
  -30.6970  -19.9250   20.8620 N   0  0  0  0  0  0  0  0  0  0  0  0
  -29.5380  -19.3990   20.4020 N   0  0  0  0  0  0  0  0  0  0  0  0
  -27.8880  -17.5670   20.3710 C   0  0  0  0  0  1  0  0  0  0  0  0
  -29.7660  -17.6310   18.7140 C   0  0  0  0  0  1  0  0  0  0  0  0
  -29.3750  -17.9280   20.1720 C   0  0  1  0  0  0  0  0  0  0  0  0
  -30.2450  -17.0010   21.1130 C   0  0  0  0  0  2  0  0  0  0  0  0
  -30.6400  -14.5340   20.4950 C   0  0  0  0  0  0  0  0  0  0  0  0
  -30.3660  -12.3600   19.3370 C   0  0  0  0  0  2  0  0  0  0  0  0
  -29.4340  -12.5660   18.1260 C   0  0  0  0  0  2  0  0  0  0  0  0
  -27.9540  -12.4180   18.5390 C   0  0  0  0  0  2  0  0  0  0  0  0
  -27.6050  -13.2470   19.8060 C   0  0  0  0  0  3  0  0  0  0  0  0
  -28.6550  -13.0270   20.9200 C   0  0  0  0  0  2  0  0  0  0  0  0
  -29.9820  -13.3460   20.3630 N   0  0  0  0  0  0  0  0  0  0  0  0
  -31.7670  -14.7220   20.0290 O   0  0  0  0  0  0  0  0  0  0  0  0
  -29.9210  -15.5440   21.0340 N   0  0  0  0  0  0  0  0  0  0  0  0
  -29.0140  -15.2760   21.3840 H   0  0  0  0  0  0  0  0  0  0  0  0
  -25.1980  -13.8570   20.4870 C   0  0  0  0  0  0  0  0  0  0  0  0
  -24.1300  -13.0900   20.8630 C   0  0  0  0  0  0  0  0  0  0  0  0
  -24.5910  -11.7390   20.8460 C   0  0  0  0  0  0  0  0  0  0  0  0
  -26.2480  -12.9750   20.2740 N   0  0  0  0  0  0  0  0  0  0  0  0
  -25.8840  -11.6960   20.5450 N   0  0  0  0  0  0  0  0  0  0  0  0
  -23.8620  -10.4810   21.0420 C   0  0  0  0  0  0  0  0  0  0  0  0
  -24.2940   -9.5140   21.9740 C   0  0  0  0  0  3  0  0  0  0  0  0
  -23.5660   -8.3190   22.1560 C   0  0  0  0  0  3  0  0  0  0  0  0
  -22.3900   -8.0830   21.4050 C   0  0  0  0  0  0  0  0  0  0  0  0
  -21.9770   -9.0390   20.4600 C   0  0  0  0  0  3  0  0  0  0  0  0
  -22.7060  -10.2260   20.2770 C   0  0  0  0  0  3  0  0  0  0  0  0
  -21.6320   -6.9410   21.4960 O   0  0  0  0  0  0  0  0  0  0  0  0
  -21.5920   -6.1950   22.6460 C   0  0  0  0  0  0  0  0  0  0  0  0
  -21.1880   -6.7480   23.8800 C   0  0  0  0  0  3  0  0  0  0  0  0
  -21.0930   -5.9280   25.0220 C   0  0  0  0  0  3  0  0  0  0  0  0
  -21.3930   -4.5550   24.9300 C   0  0  0  0  0  0  0  0  0  0  0  0
  -21.7910   -4.0020   23.7000 C   0  0  0  0  0  3  0  0  0  0  0  0
  -21.8860   -4.8200   22.5610 C   0  0  0  0  0  0  0  0  0  0  0  0
  -22.2480   -4.2780   21.3730 F   0  0  0  0  0  0  0  0  0  0  0  0
  -21.2960   -3.7640   26.0250 F   0  0  0  0  0  0  0  0  0  0  0  0
  -22.7330  -13.5730   21.1240 C   0  0  0  0  0  0  0  0  0  0  0  0
  -21.9940  -12.8880   21.9890 N   0  0  0  0  0  0  0  0  0  0  0  0
  -22.3030  -14.5960   20.5930 O   0  0  0  0  0  0  0  0  0  0  0  0
  -22.3520  -12.0630   22.4480 H   0  0  0  0  0  0  0  0  0  0  0  0
  -21.0570  -13.1970   22.2000 H   0  0  0  0  0  0  0  0  0  0  0  0
  -25.3530  -15.2230   20.2920 N   0  0  0  0  0  0  0  0  0  0  0  0
  -24.5750  -15.8670   20.3800 H   0  0  0  0  0  0  0  0  0  0  0  0
  -26.1910  -15.6660   19.9390 H   0  0  0  0  0  0  0  0  0  0  0  0
  -28.6950  -23.0620   20.0350 C   0  0  0  0  0  2  0  0  0  0  0  0
  -29.1350  -24.2250   20.9850 C   0  0  0  0  0  2  0  0  0  0  0  0
  -28.1640  -25.4480   21.1290 C   0  0  0  0  0  2  0  0  0  0  0  0
  -28.3230  -26.5800   20.2340 O   0  0  0  0  0  0  0  0  0  0  0  0
  -24.5840  -31.8940   23.2310 C   0  0  0  0  0  0  0  0  0  0  0  0
  -27.2040  -27.3960   20.1930 C   0  0  0  0  0  0  0  0  0  0  0  0
  -23.3730  -30.4890   21.5950 C   0  0  0  0  0  3  0  0  0  0  0  0
  -24.8250  -28.9380   20.1760 C   0  0  0  0  0  0  0  0  0  0  0  0
  -25.9040  -30.8330   21.3990 C   0  0  0  0  0  2  0  0  0  0  0  0
  -25.9870  -29.4550   20.7650 C   0  0  0  0  0  0  0  0  0  0  0  0
  -27.1840  -28.6920   20.7680 C   0  0  0  0  0  3  0  0  0  0  0  0
  -26.0290  -26.9080   19.5860 C   0  0  0  0  0  3  0  0  0  0  0  0
  -24.8420  -27.6670   19.5800 C   0  0  0  0  0  3  0  0  0  0  0  0
  -23.5820  -29.8020   20.2190 C   0  0  0  0  0  2  0  0  0  0  0  0
  -24.6380  -31.0880   22.1330 N   0  0  0  0  0  0  0  0  0  0  0  0
  -23.5030  -32.1730   23.7700 O   0  0  0  0  0  0  0  0  0  0  0  0
  -22.7170  -29.4760   22.5630 C   0  0  0  0  0  0  0  0  0  0  0  0
  -21.3890  -29.3040   22.4420 N   0  0  0  0  0  0  0  0  0  0  0  0
  -23.3980  -28.8480   23.3760 O   0  0  0  0  0  0  0  0  0  0  0  0
  -20.9000  -29.8620   21.7560 H   0  0  0  0  0  0  0  0  0  0  0  0
  -18.0070  -28.1390   22.9640 C   0  0  0  0  0  0  0  0  0  0  0  0
  -20.5700  -28.3740   23.2190 C   0  0  0  0  0  3  0  0  0  0  0  0
  -20.6550  -26.9420   22.6440 C   0  0  0  0  0  2  0  0  0  0  0  0
  -19.5450  -26.6280   21.6370 C   0  0  0  0  0  2  0  0  0  0  0  0
  -18.1680  -26.7870   22.2880 C   0  0  0  0  0  2  0  0  0  0  0  0
  -19.1350  -28.8900   23.3870 C   0  0  0  0  0  0  0  0  0  0  0  0
  -18.9320  -30.1570   23.9770 C   0  0  0  0  0  3  0  0  0  0  0  0
  -17.6320  -30.6700   24.1500 C   0  0  0  0  0  3  0  0  0  0  0  0
  -16.5190  -29.9140   23.7430 C   0  0  0  0  0  3  0  0  0  0  0  0
  -16.7070  -28.6510   23.1550 C   0  0  0  0  0  3  0  0  0  0  0  0
  -25.8720  -32.5250   23.8480 C   0  0  0  0  0  3  0  0  0  0  0  0
  -25.5650  -33.9220   24.1790 N   0  0  0  0  0  0  0  0  0  0  0  0
  -25.9010  -34.9750   23.4210 C   0  0  0  0  0  0  0  0  0  0  0  0
  -26.5720  -34.8710   22.3900 O   0  0  0  0  0  0  0  0  0  0  0  0
  -24.9700  -34.0770   24.9790 H   0  0  0  0  0  0  0  0  0  0  0  0
  -24.1790  -36.7730   23.0630 C   0  0  0  0  0  1  0  0  0  0  0  0
  -25.4150  -36.3640   23.8790 C   0  0  0  0  0  3  0  0  0  0  0  0
  -27.5490  -37.2400   24.7200 C   0  0  0  0  0  1  0  0  0  0  0  0
  -26.4510  -37.4140   23.7730 N   0  0  0  0  0  0  0  0  0  0  0  0
  -26.0480  -38.3340   23.9220 H   0  0  0  0  0  0  0  0  0  0  0  0
  -26.3940  -31.7520   25.1210 C   0  0  1  0  0  0  0  0  0  0  0  0
  -25.3060  -31.5150   26.1940 C   0  0  0  0  0  1  0  0  0  0  0  0
  -26.9730  -30.3740   24.7240 C   0  0  0  0  0  1  0  0  0  0  0  0
  -27.5480  -32.5450   25.7780 C   0  0  0  0  0  1  0  0  0  0  0  0
  1  2  2  0
  1  6  1  0
  2  3  1  0
  3  5  2  0
  3  4  1  0
  6  5  1  0
  9  8  1  6
  9  7  1  0
  9  6  1  0
  9 10  1  0
 11 19  1  0
 12 17  1  0
 13 14  1  0
 13 12  1  0
 15 14  1  0
 15 24  1  0
 15 16  1  0
 17 11  1  0
 17 16  1  0
 18 11  2  0
 19 10  1  0
 19 20  1  0
 21 22  2  0
 22 41  1  0
 23 22  1  0
 23 26  1  0
 24 21  1  0
 24 25  1  0
 25 23  2  0
 26 27  1  0
 27 28  2  0
 29 32  1  0
 29 28  1  0
 30 29  2  0
 31 30  1  0
 31 26  2  0
 32 33  1  0
 33 34  1  0
 34 35  2  0
 36 35  1  0
 36 40  1  0
 37 36  2  0
 38 33  2  0
 38 37  1  0
 39 38  1  0
 41 42  1  0
 42 45  1  0
 42 44  1  0
 43 41  2  0
 46 47  1  0
 46 21  1  0
 48 46  1  0
 49  2  1  0
 49 50  1  0
 50 51  1  0
 52 51  1  0
 53 64  2  0
 54 52  1  0
 54 59  1  0
 55 63  1  0
 55 65  1  0
 56 62  1  0
 56 58  1  0
 57 63  1  0
 58 59  2  0
 58 57  1  0
 60 54  2  0
 61 60  1  0
 61 56  2  0
 62 55  1  0
 63 53  1  0
 65 67  2  0
 66 65  1  0
 68 66  1  0
 69 78  2  0
 69 74  1  0
 70 66  1  0
 70 74  1  0
 71 70  1  0
 72 73  1  0
 72 71  1  0
 73 69  1  0
 74 75  2  0
 75 76  1  0
 77 76  2  0
 78 77  1  0
 79 53  1  0
 79 80  1  0
 79 89  1  0
 80 83  1  0
 81 85  1  0
 81 80  1  0
 82 81  2  0
 85 84  1  0
 87 85  1  0
 87 88  1  0
 87 86  1  0
 89 92  1  1
 89 90  1  0
 91 89  1  0
M  ISO  4  11 100  19 100  51 101  52 101
M  END
>  <TORSDO>  (36) 
F 21

>  <SCORE>  (36) 
-13.740

>  <name>  (36) 
35

>  <ligand_id>  (36) 
35

>  <original_smiles>  (36) 
[H]c1c([H])c([H])c2c(c1[H])C([H])([H])C([H])([H])C([H])([H])C2([H])N([H])C(=O)C1([H])N(C(=O)C([H])(N([H])C(=O)C([H])(N([H])C([H])([H])[H])C([H])([H])[H])C(C([H])([H])[H])(C([H])([H])[H])C([H])([H])[H])C([H])([H])c2c([H])c(OC([H])([H])C([H])([H])C([H])([H])c3c(C([H])([H])[H])nn(C(C([H])([H])[H])(C([H])([H])[H])C([H])([H])N([H])C(=O)N4C([H])([H])C([H])([H])C([H])([H])C([H])(n5nc(-c6c([H])c([H])c(Oc7c([H])c([H])c(F)c([H])c7F)c([H])c6[H])c(C(=O)N([H])[H])c5N([H])[H])C4([H])[H])c3[H])c([H])c([H])c2C1([H])[H]

>  <smiles>  (36) 
[H]c1c([H])c([H])c2c(c1[H])C([H])([H])C([H])([H])C([H])([H])C2([H])N([H])C(=O)C1([H])N(C(=O)C([H])(N([H])C(=O)C([H])(N([H])C([H])([H])[H])C([H])([H])[H])C(C([H])([H])[H])(C([H])([H])[H])C([H])([H])[H])C([H])([H])c2c([H])c(OC([H])([H])C([H])([H])C([H])([H])c3c(C([H])([H])[H])nn(C(C([H])([H])[H])(C([H])([H])[H])C([H])([H])N([H])C(=O)N4C([H])([H])C([H])([H])C([H])([H])C([H])(n5nc(-c6c([H])c([H])c(Oc7c([H])c([H])c(F)c([H])c7F)c([H])c6[H])c(C(=O)N([H])[H])c5N([H])[H])C4([H])[H])c3[H])c([H])c([H])c2C1([H])[H]

$$$$
36:0:0
     RDKit          3D

 96104  0  0  1  0  0  0  0  0999 V2000
  -30.4910  -20.8070   20.2860 C   0  0  0  0  0  3  0  0  0  0  0  0
  -29.9400  -22.1190   20.4610 C   0  0  0  0  0  0  0  0  0  0  0  0
  -30.0440  -19.7170   21.0770 C   0  0  0  0  0  0  0  0  0  0  0  0
  -28.9280  -22.1890   21.4680 C   0  0  0  0  0  0  0  0  0  0  0  0
  -28.2150  -23.4450   21.9220 C   0  0  0  0  0  1  0  0  0  0  0  0
  -29.0470  -19.8910   21.9750 N   0  0  0  0  0  0  0  0  0  0  0  0
  -28.5110  -21.0970   22.1630 N   0  0  0  0  0  0  0  0  0  0  0  0
  -32.0520  -23.2940   19.8060 C   0  0  0  0  0  1  0  0  0  0  0  0
  -30.2690  -22.9510   18.0970 C   0  0  0  0  0  1  0  0  0  0  0  0
  -30.5140  -23.2940   19.5810 C   0  0  1  0  0  0  0  0  0  0  0  0
  -30.0800  -24.8070   19.8470 C   0  0  0  0  0  2  0  0  0  0  0  0
  -28.8210  -25.4610   19.1770 C   0  0  0  0  0  2  0  0  0  0  0  0
  -28.7470  -26.8670   19.5200 O   0  0  0  0  0  0  0  0  0  0  0  0
  -24.7000  -31.5720   23.0310 C   0  0  0  0  0  0  0  0  0  0  0  0
  -27.5220  -27.5180   19.5610 C   0  0  0  0  0  0  0  0  0  0  0  0
  -23.5360  -30.2280   21.3130 C   0  0  0  0  0  3  0  0  0  0  0  0
  -25.0410  -28.8910   19.7400 C   0  0  0  0  0  0  0  0  0  0  0  0
  -26.0340  -30.7440   21.0920 C   0  0  0  0  0  2  0  0  0  0  0  0
  -26.1810  -29.4320   20.3420 C   0  0  0  0  0  0  0  0  0  0  0  0
  -27.4220  -28.7560   20.2450 C   0  0  0  0  0  3  0  0  0  0  0  0
  -26.3560  -27.0000   18.9480 C   0  0  0  0  0  3  0  0  0  0  0  0
  -25.1240  -27.6770   19.0370 C   0  0  0  0  0  3  0  0  0  0  0  0
  -23.7500  -29.6690   19.8810 C   0  0  0  0  0  2  0  0  0  0  0  0
  -24.7760  -30.8610   21.8700 N   0  0  0  0  0  0  0  0  0  0  0  0
  -23.6190  -31.7380   23.6130 O   0  0  0  0  0  0  0  0  0  0  0  0
  -22.9690  -29.1010   22.2080 C   0  0  0  0  0  0  0  0  0  0  0  0
  -21.6520  -28.8560   22.1040 N   0  0  0  0  0  0  0  0  0  0  0  0
  -23.7100  -28.4530   22.9530 O   0  0  0  0  0  0  0  0  0  0  0  0
  -21.1110  -29.4390   21.4790 H   0  0  0  0  0  0  0  0  0  0  0  0
  -18.3590  -27.4510   22.6080 C   0  0  0  0  0  0  0  0  0  0  0  0
  -20.9100  -27.8180   22.8190 C   0  0  0  0  0  3  0  0  0  0  0  0
  -21.0610  -26.4460   22.1210 C   0  0  0  0  0  2  0  0  0  0  0  0
  -19.9400  -26.1530   21.1200 C   0  0  0  0  0  2  0  0  0  0  0  0
  -18.5770  -26.1730   21.8170 C   0  0  0  0  0  2  0  0  0  0  0  0
  -19.4540  -28.2330   23.0640 C   0  0  0  0  0  0  0  0  0  0  0  0
  -19.1950  -29.4300   23.7660 C   0  0  0  0  0  3  0  0  0  0  0  0
  -17.8740  -29.8480   24.0140 C   0  0  0  0  0  3  0  0  0  0  0  0
  -16.7950  -29.0630   23.5730 C   0  0  0  0  0  3  0  0  0  0  0  0
  -17.0380  -27.8660   22.8760 C   0  0  0  0  0  3  0  0  0  0  0  0
  -25.9620  -32.2310   23.6720 C   0  0  0  0  0  3  0  0  0  0  0  0
  -25.5930  -33.5940   24.0750 N   0  0  0  0  0  0  0  0  0  0  0  0
  -25.8660  -34.6970   23.3650 C   0  0  0  0  0  0  0  0  0  0  0  0
  -26.5270  -34.6760   22.3220 O   0  0  0  0  0  0  0  0  0  0  0  0
  -25.0040  -33.6810   24.8910 H   0  0  0  0  0  0  0  0  0  0  0  0
  -24.0490  -36.4190   23.1240 C   0  0  0  0  0  1  0  0  0  0  0  0
  -25.3220  -36.0370   23.8960 C   0  0  0  0  0  3  0  0  0  0  0  0
  -27.4240  -36.9860   24.7390 C   0  0  0  0  0  1  0  0  0  0  0  0
  -26.3010  -37.1430   23.8170 N   0  0  0  0  0  0  0  0  0  0  0  0
  -25.8540  -38.0340   24.0120 H   0  0  0  0  0  0  0  0  0  0  0  0
  -26.5320  -31.4210   24.9000 C   0  0  1  0  0  0  0  0  0  0  0  0
  -25.4660  -31.0840   25.9690 C   0  0  0  0  0  1  0  0  0  0  0  0
  -27.1670  -30.0900   24.4310 C   0  0  0  0  0  1  0  0  0  0  0  0
  -27.6590  -32.2300   25.5850 C   0  0  0  0  0  1  0  0  0  0  0  0
  -30.9680  -17.7530   22.4030 C   0  0  0  0  0  1  0  0  0  0  0  0
  -30.6670  -18.2910   20.9890 C   0  0  0  0  0  3  0  0  0  0  0  0
  -30.5200  -17.3660   18.6170 C   0  0  0  0  0  1  0  0  0  0  0  0
  -28.4300  -17.5730   19.8990 C   0  0  0  0  0  1  0  0  0  0  0  0
  -29.9310  -17.2450   20.0450 C   0  0  2  0  0  0  0  0  0  0  0  0
  -30.8160  -14.7950   20.2320 C   0  0  0  0  0  0  0  0  0  0  0  0
  -30.5810  -12.5800   19.1750 C   0  0  0  0  0  2  0  0  0  0  0  0
  -29.6280  -12.7560   17.9710 C   0  0  0  0  0  2  0  0  0  0  0  0
  -28.1540  -12.6140   18.4050 C   0  0  0  0  0  2  0  0  0  0  0  0
  -27.8170  -13.4550   19.6680 C   0  0  0  0  0  3  0  0  0  0  0  0
  -28.8860  -13.2640   20.7700 C   0  0  0  0  0  2  0  0  0  0  0  0
  -30.2010  -13.5790   20.1860 N   0  0  0  0  0  0  0  0  0  0  0  0
  -31.9670  -14.9740   19.8230 O   0  0  0  0  0  0  0  0  0  0  0  0
  -29.9760  -15.8210   20.5100 N   0  0  0  0  0  0  0  0  0  0  0  0
  -29.1010  -15.4980   20.8940 H   0  0  0  0  0  0  0  0  0  0  0  0
  -25.4250  -14.0520   20.4050 C   0  0  0  0  0  0  0  0  0  0  0  0
  -24.3650  -13.2760   20.7840 C   0  0  0  0  0  0  0  0  0  0  0  0
  -24.8300  -11.9260   20.7450 C   0  0  0  0  0  0  0  0  0  0  0  0
  -26.4710  -13.1760   20.1620 N   0  0  0  0  0  0  0  0  0  0  0  0
  -26.1160  -11.8920   20.4230 N   0  0  0  0  0  0  0  0  0  0  0  0
  -24.1110  -10.6630   20.9420 C   0  0  0  0  0  0  0  0  0  0  0  0
  -24.5390   -9.7090   21.8920 C   0  0  0  0  0  3  0  0  0  0  0  0
  -23.8200   -8.5080   22.0730 C   0  0  0  0  0  3  0  0  0  0  0  0
  -22.6590   -8.2530   21.3070 C   0  0  0  0  0  0  0  0  0  0  0  0
  -22.2500   -9.1950   20.3460 C   0  0  0  0  0  3  0  0  0  0  0  0
  -22.9690  -10.3870   20.1630 C   0  0  0  0  0  3  0  0  0  0  0  0
  -21.9110   -7.1040   21.3990 O   0  0  0  0  0  0  0  0  0  0  0  0
  -21.8290   -6.3880   22.5670 C   0  0  0  0  0  0  0  0  0  0  0  0
  -21.3410   -6.9630   23.7610 C   0  0  0  0  0  3  0  0  0  0  0  0
  -21.2110   -6.1720   24.9200 C   0  0  0  0  0  3  0  0  0  0  0  0
  -21.5580   -4.8090   24.8840 C   0  0  0  0  0  0  0  0  0  0  0  0
  -22.0390   -4.2340   23.6960 C   0  0  0  0  0  3  0  0  0  0  0  0
  -22.1710   -5.0210   22.5380 C   0  0  0  0  0  0  0  0  0  0  0  0
  -22.6150   -4.4590   21.3890 F   0  0  0  0  0  0  0  0  0  0  0  0
  -21.4250   -4.0460   25.9950 F   0  0  0  0  0  0  0  0  0  0  0  0
  -22.9680  -13.7490   21.0730 C   0  0  0  0  0  0  0  0  0  0  0  0
  -22.2540  -13.0490   21.9470 N   0  0  0  0  0  0  0  0  0  0  0  0
  -22.5220  -14.7740   20.5600 O   0  0  0  0  0  0  0  0  0  0  0  0
  -22.6320  -12.2220   22.3860 H   0  0  0  0  0  0  0  0  0  0  0  0
  -21.3160  -13.3440   22.1790 H   0  0  0  0  0  0  0  0  0  0  0  0
  -25.5790  -15.4230   20.2260 N   0  0  0  0  0  0  0  0  0  0  0  0
  -24.8060  -16.0680   20.3460 H   0  0  0  0  0  0  0  0  0  0  0  0
  -26.4150  -15.8700   19.8750 H   0  0  0  0  0  0  0  0  0  0  0  0
  1  2  2  0
  1  3  1  0
  2  4  1  0
  3  6  2  0
  4  5  1  0
  4  7  2  0
  6  7  1  0
 10  9  1  6
 10  8  1  0
 10 11  1  0
 10  2  1  0
 12 13  1  0
 12 11  1  0
 13 15  1  0
 14 25  2  0
 15 20  1  0
 16 24  1  0
 16 26  1  0
 17 23  1  0
 17 19  1  0
 18 24  1  0
 19 18  1  0
 20 19  2  0
 21 22  1  0
 21 15  2  0
 22 17  2  0
 23 16  1  0
 24 14  1  0
 26 28  2  0
 27 26  1  0
 29 27  1  0
 30 39  2  0
 30 35  1  0
 31 27  1  0
 31 35  1  0
 32 31  1  0
 33 34  1  0
 33 32  1  0
 34 30  1  0
 35 36  2  0
 36 37  1  0
 38 37  2  0
 39 38  1  0
 40 14  1  0
 40 41  1  0
 40 50  1  0
 41 44  1  0
 42 46  1  0
 42 41  1  0
 43 42  2  0
 46 45  1  0
 48 46  1  0
 48 49  1  0
 48 47  1  0
 50 53  1  1
 50 51  1  0
 52 50  1  0
 55  3  1  0
 55 54  1  0
 58 56  1  6
 57 58  1  0
 58 67  1  0
 58 55  1  0
 59 67  1  0
 60 65  1  0
 61 62  1  0
 61 60  1  0
 63 62  1  0
 63 72  1  0
 63 64  1  0
 65 59  1  0
 65 64  1  0
 66 59  2  0
 67 68  1  0
 69 70  2  0
 70 89  1  0
 71 70  1  0
 71 74  1  0
 72 69  1  0
 72 73  1  0
 73 71  2  0
 74 75  1  0
 75 76  2  0
 77 80  1  0
 77 76  1  0
 78 77  2  0
 79 78  1  0
 79 74  2  0
 80 81  1  0
 81 82  1  0
 82 83  2  0
 84 83  1  0
 84 88  1  0
 85 84  2  0
 86 81  2  0
 86 85  1  0
 87 86  1  0
 89 90  1  0
 90 93  1  0
 90 92  1  0
 91 89  2  0
 94 95  1  0
 94 69  1  0
 96 94  1  0
M  ISO  4  12 101  13 101  59 100  67 100
M  END
>  <TORSDO>  (37) 
F 21

>  <SCORE>  (37) 
-11.200

>  <name>  (37) 
36

>  <ligand_id>  (37) 
36

>  <original_smiles>  (37) 
[H]c1c([H])c([H])c2c(c1[H])C([H])([H])C([H])([H])C([H])([H])C2([H])N([H])C(=O)C1([H])N(C(=O)C([H])(N([H])C(=O)C([H])(N([H])C([H])([H])[H])C([H])([H])[H])C(C([H])([H])[H])(C([H])([H])[H])C([H])([H])[H])C([H])([H])c2c([H])c(OC([H])([H])C([H])([H])C(c3c(C([H])([H])[H])nnc(C([H])(C([H])([H])[H])C(N([H])C(=O)N4C([H])([H])C([H])([H])C([H])([H])C([H])(n5nc(-c6c([H])c([H])c(Oc7c([H])c([H])c(F)c([H])c7F)c([H])c6[H])c(C(=O)N([H])[H])c5N([H])[H])C4([H])[H])(C([H])([H])[H])C([H])([H])[H])c3[H])(C([H])([H])[H])C([H])([H])[H])c([H])c([H])c2C1([H])[H]

>  <smiles>  (37) 
[H]c1c([H])c([H])c2c(c1[H])C([H])([H])C([H])([H])C([H])([H])C2([H])N([H])C(=O)C1([H])N(C(=O)C([H])(N([H])C(=O)C([H])(N([H])C([H])([H])[H])C([H])([H])[H])C(C([H])([H])[H])(C([H])([H])[H])C([H])([H])[H])C([H])([H])c2c([H])c(OC([H])([H])C([H])([H])C(c3c(C([H])([H])[H])nnc(C([H])(C([H])([H])[H])C(N([H])C(=O)N4C([H])([H])C([H])([H])C([H])([H])C([H])(n5nc(-c6c([H])c([H])c(Oc7c([H])c([H])c(F)c([H])c7F)c([H])c6[H])c(C(=O)N([H])[H])c5N([H])[H])C4([H])[H])(C([H])([H])[H])C([H])([H])[H])c3[H])(C([H])([H])[H])C([H])([H])[H])c([H])c([H])c2C1([H])[H]

$$$$
37:0:0
     RDKit          3D

 95104  0  0  1  0  0  0  0  0999 V2000
  -29.5220  -24.3040   20.9900 C   0  0  2  0  0  0  0  0  0  0  0  0
  -27.0440  -25.8020   22.1590 C   0  0  0  0  0  2  0  0  0  0  0  0
  -28.8320  -25.5560   22.1110 C   0  0  0  0  0  3  0  0  0  0  0  0
  -28.4990  -23.1540   20.1760 C   0  0  1  0  0  0  0  0  0  0  0  0
  -26.1330  -24.7080   21.1140 C   0  0  0  0  0  0  0  0  0  0  0  0
  -26.9040  -23.5440   20.1990 N   0  0  0  0  0  0  0  0  0  0  0  0
  -24.0810  -24.4200   22.6020 C   0  0  0  0  0  1  0  0  0  0  0  0
  -24.0310  -23.5050   20.2220 C   0  0  0  0  0  1  0  0  0  0  0  0
  -24.5990  -24.6020   21.1610 C   0  0  0  0  0  3  0  0  0  0  0  0
  -30.8160  -25.8270   23.6890 C   0  0  0  0  0  1  0  0  0  0  0  0
  -28.4610  -26.0370   24.5820 C   0  0  0  0  0  1  0  0  0  0  0  0
  -29.3490  -25.3830   23.4970 C   0  0  1  0  0  0  0  0  0  0  0  0
  -29.1530  -23.8560   23.4250 C   0  0  0  0  0  2  0  0  0  0  0  0
  -28.4750  -23.4590   22.0210 C   0  0  0  0  0  3  0  0  0  0  0  0
  -28.6120  -25.4980   19.9670 O   0  0  0  0  0  0  0  0  0  0  0  0
  -24.8470  -31.7710   22.8610 C   0  0  0  0  0  0  0  0  0  0  0  0
  -27.8360  -26.9360   19.7670 C   0  0  0  0  0  0  0  0  0  0  0  0
  -23.8110  -30.3190   21.1720 C   0  0  0  0  0  3  0  0  0  0  0  0
  -25.4330  -28.8630   19.7080 C   0  0  0  0  0  0  0  0  0  0  0  0
  -26.3800  -30.6530   21.1250 C   0  0  0  0  0  2  0  0  0  0  0  0
  -26.5740  -29.2490   20.4180 C   0  0  0  0  0  0  0  0  0  0  0  0
  -27.7450  -28.3070   20.4500 C   0  0  0  0  0  3  0  0  0  0  0  0
  -26.7010  -26.8680   18.9100 C   0  0  0  0  0  3  0  0  0  0  0  0
  -25.5450  -27.7050   18.9270 C   0  0  0  0  0  3  0  0  0  0  0  0
  -24.1330  -29.6940   19.7830 C   0  0  0  0  0  2  0  0  0  0  0  0
  -25.0320  -30.9550   21.7670 N   0  0  0  0  0  0  0  0  0  0  0  0
  -23.7230  -31.9660   23.3590 O   0  0  0  0  0  0  0  0  0  0  0  0
  -23.1700  -29.2580   22.1090 C   0  0  0  0  0  0  0  0  0  0  0  0
  -21.8460  -29.0290   22.0000 N   0  0  0  0  0  0  0  0  0  0  0  0
  -23.8780  -28.6370   22.9060 O   0  0  0  0  0  0  0  0  0  0  0  0
  -21.3140  -29.5830   21.3400 H   0  0  0  0  0  0  0  0  0  0  0  0
  -18.5310  -27.6620   22.6160 C   0  0  0  0  0  0  0  0  0  0  0  0
  -21.0910  -28.0100   22.7460 C   0  0  0  0  0  3  0  0  0  0  0  0
  -21.2000  -26.6210   22.0710 C   0  0  0  0  0  2  0  0  0  0  0  0
  -20.0540  -26.3340   21.0950 C   0  0  0  0  0  2  0  0  0  0  0  0
  -18.7100  -26.3780   21.8240 C   0  0  0  0  0  2  0  0  0  0  0  0
  -19.6430  -28.4390   23.0330 C   0  0  0  0  0  0  0  0  0  0  0  0
  -19.4180  -29.6400   23.7350 C   0  0  0  0  0  3  0  0  0  0  0  0
  -18.1070  -30.0670   24.0270 C   0  0  0  0  0  3  0  0  0  0  0  0
  -17.0090  -29.2890   23.6190 C   0  0  0  0  0  3  0  0  0  0  0  0
  -17.2200  -28.0900   22.9190 C   0  0  0  0  0  3  0  0  0  0  0  0
  -26.0380  -32.5170   23.5340 C   0  0  0  0  0  3  0  0  0  0  0  0
  -25.5720  -33.8590   23.9330 N   0  0  0  0  0  0  0  0  0  0  0  0
  -25.8380  -35.0000   23.2810 C   0  0  0  0  0  0  0  0  0  0  0  0
  -26.5540  -35.0390   22.2790 O   0  0  0  0  0  0  0  0  0  0  0  0
  -24.9340  -33.8990   24.7130 H   0  0  0  0  0  0  0  0  0  0  0  0
  -23.9660  -36.6660   22.9940 C   0  0  0  0  0  1  0  0  0  0  0  0
  -25.2090  -36.3030   23.8220 C   0  0  0  0  0  3  0  0  0  0  0  0
  -27.2110  -37.3120   24.8220 C   0  0  0  0  0  1  0  0  0  0  0  0
  -26.1430  -37.4490   23.8360 N   0  0  0  0  0  0  0  0  0  0  0  0
  -25.6470  -38.3150   24.0250 H   0  0  0  0  0  0  0  0  0  0  0  0
  -26.6140  -31.7590   24.7970 C   0  0  1  0  0  0  0  0  0  0  0  0
  -25.5370  -31.3850   25.8460 C   0  0  0  0  0  1  0  0  0  0  0  0
  -27.3400  -30.4580   24.3890 C   0  0  0  0  0  1  0  0  0  0  0  0
  -27.6670  -32.6460   25.5070 C   0  0  0  0  0  1  0  0  0  0  0  0
  -28.7550  -21.2600   19.8540 C   0  0  0  0  0  1  0  0  0  0  0  0
  -29.5720  -19.5010   20.4070 C   0  0  0  0  0  1  0  0  0  0  0  0
  -30.2710  -16.2620   20.0490 C   0  0  0  0  0  0  0  0  0  0  0  0
  -30.4380  -13.7010   19.1790 C   0  0  0  0  0  2  0  0  0  0  0  0
  -29.5280  -13.1480   18.0390 C   0  0  0  0  0  2  0  0  0  0  0  0
  -28.1340  -12.7400   18.5450 C   0  0  0  0  0  2  0  0  0  0  0  0
  -27.6250  -13.7230   19.6200 C   0  0  0  0  0  3  0  0  0  0  0  0
  -28.6880  -14.1350   20.6670 C   0  0  0  0  0  2  0  0  0  0  0  0
  -29.7690  -14.8680   19.9410 N   0  0  0  0  0  0  0  0  0  0  0  0
  -31.5070  -16.1750   19.9080 O   0  0  0  0  0  0  0  0  0  0  0  0
  -29.5140  -17.6750   20.1190 N   0  0  0  0  0  0  0  0  0  0  0  0
  -28.5380  -17.4340   20.0440 H   0  0  0  0  0  0  0  0  0  0  0  0
  -25.3070  -14.1800   20.5430 C   0  0  0  0  0  0  0  0  0  0  0  0
  -24.2730  -13.3700   20.9160 C   0  0  0  0  0  0  0  0  0  0  0  0
  -24.7490  -12.0300   20.7800 C   0  0  0  0  0  0  0  0  0  0  0  0
  -26.3430  -13.3360   20.1970 N   0  0  0  0  0  0  0  0  0  0  0  0
  -26.0220  -12.0290   20.3990 N   0  0  0  0  0  0  0  0  0  0  0  0
  -24.0330  -10.7550   20.9350 C   0  0  0  0  0  0  0  0  0  0  0  0
  -24.4600   -9.7700   21.8520 C   0  0  0  0  0  3  0  0  0  0  0  0
  -23.7380   -8.5670   21.9980 C   0  0  0  0  0  3  0  0  0  0  0  0
  -22.5750   -8.3390   21.2270 C   0  0  0  0  0  0  0  0  0  0  0  0
  -22.1640   -9.3130   20.3010 C   0  0  0  0  0  3  0  0  0  0  0  0
  -22.8850  -10.5100   20.1540 C   0  0  0  0  0  3  0  0  0  0  0  0
  -21.8260   -7.1880   21.2830 O   0  0  0  0  0  0  0  0  0  0  0  0
  -21.7200   -6.4510   22.4360 C   0  0  0  0  0  0  0  0  0  0  0  0
  -21.1750   -6.9930   23.6190 C   0  0  0  0  0  3  0  0  0  0  0  0
  -21.0190   -6.1820   24.7600 C   0  0  0  0  0  3  0  0  0  0  0  0
  -21.4010   -4.8280   24.7180 C   0  0  0  0  0  0  0  0  0  0  0  0
  -21.9410   -4.2830   23.5400 C   0  0  0  0  0  3  0  0  0  0  0  0
  -22.0970   -5.0920   22.4010 C   0  0  0  0  0  0  0  0  0  0  0  0
  -22.5960   -4.5580   21.2600 F   0  0  0  0  0  0  0  0  0  0  0  0
  -21.2490   -4.0480   25.8140 F   0  0  0  0  0  0  0  0  0  0  0  0
  -22.8900  -13.8220   21.2790 C   0  0  0  0  0  0  0  0  0  0  0  0
  -22.2080  -13.0820   22.1440 N   0  0  0  0  0  0  0  0  0  0  0  0
  -22.4300  -14.8780   20.8470 O   0  0  0  0  0  0  0  0  0  0  0  0
  -22.6000  -12.2320   22.5240 H   0  0  0  0  0  0  0  0  0  0  0  0
  -21.2800  -13.3650   22.4210 H   0  0  0  0  0  0  0  0  0  0  0  0
  -25.4370  -15.5600   20.4370 N   0  0  0  0  0  0  0  0  0  0  0  0
  -24.6440  -16.1630   20.6300 H   0  0  0  0  0  0  0  0  0  0  0  0
  -26.2330  -16.0600   20.0610 H   0  0  0  0  0  0  0  0  0  0  0  0
  1 15  1  6
  1 14  1  0
  1  3  1  0
  3  2  1  0
  3 12  1  0
  4 56  1  6
  4  6  1  0
  4  1  1  0
  4 14  1  0
  5  9  1  0
  5  2  1  0
  6  5  2  0
  8  9  1  0
  9  7  1  0
 12 10  1  6
 12 11  1  0
 13 12  1  0
 14 13  1  0
 16 27  2  0
 17 15  1  0
 17 22  1  0
 18 26  1  0
 18 28  1  0
 19 25  1  0
 19 21  1  0
 20 26  1  0
 21 22  2  0
 21 20  1  0
 23 24  1  0
 23 17  2  0
 24 19  2  0
 25 18  1  0
 26 16  1  0
 28 30  2  0
 29 28  1  0
 31 29  1  0
 32 41  2  0
 32 37  1  0
 33 29  1  0
 33 37  1  0
 34 33  1  0
 35 36  1  0
 35 34  1  0
 36 32  1  0
 37 38  2  0
 38 39  1  0
 40 39  2  0
 41 40  1  0
 42 16  1  0
 42 43  1  0
 42 52  1  0
 43 46  1  0
 44 48  1  0
 44 43  1  0
 45 44  2  0
 48 47  1  0
 48 50  1  0
 50 51  1  0
 50 49  1  0
 52 55  1  1
 52 53  1  0
 54 52  1  0
 58 66  1  0
 59 64  1  0
 60 61  1  0
 60 59  1  0
 62 61  1  0
 62 71  1  0
 62 63  1  0
 64 58  1  0
 64 63  1  0
 65 58  2  0
 66 57  1  0
 67 66  1  0
 68 69  2  0
 69 88  1  0
 70 69  1  0
 70 73  1  0
 71 72  1  0
 71 68  1  0
 72 70  2  0
 73 74  1  0
 74 75  2  0
 76 79  1  0
 76 75  1  0
 77 76  2  0
 78 77  1  0
 78 73  2  0
 79 80  1  0
 80 81  1  0
 81 82  2  0
 83 82  1  0
 83 87  1  0
 84 83  2  0
 85 80  2  0
 85 84  1  0
 86 85  1  0
 88 89  1  0
 89 92  1  0
 89 91  1  0
 90 88  2  0
 93 68  1  0
 93 94  1  0
 95 93  1  0
M  ISO  4  14 101  15 101  58 100  66 100
M  END
>  <TORSDO>  (38) 
F 22

>  <SCORE>  (38) 
-12.633

>  <name>  (38) 
37

>  <ligand_id>  (38) 
37

>  <original_smiles>  (38) 
[H]c1c([H])c([H])c2c(c1[H])C([H])([H])C([H])([H])C([H])([H])C2([H])N([H])C(=O)C1([H])N(C(=O)C([H])(N([H])C(=O)C([H])(N([H])C([H])([H])[H])C([H])([H])[H])C(C([H])([H])[H])(C([H])([H])[H])C([H])([H])[H])C([H])([H])c2c([H])c(OC([H])([H])C([H])([H])C(c3c([H])c(C([H])([H])C([H])([H])N([H])C(=O)N4C([H])([H])C([H])([H])C([H])([H])C([H])(n5nc(-c6c([H])c([H])c(Oc7c([H])c([H])c(F)c([H])c7F)c([H])c6[H])c(C(=O)N([H])[H])c5N([H])[H])C4([H])[H])nc(C([H])(C([H])([H])[H])C([H])([H])[H])c3[H])(C([H])([H])[H])C([H])([H])[H])c([H])c([H])c2C1([H])[H]

>  <smiles>  (38) 
[H]c1c([H])c([H])c2c(c1[H])C([H])([H])C([H])([H])C([H])([H])C2([H])N([H])C(=O)C1([H])N(C(=O)C([H])(N([H])C(=O)C([H])(N([H])C([H])([H])[H])C([H])([H])[H])C(C([H])([H])[H])(C([H])([H])[H])C([H])([H])[H])C([H])([H])c2c([H])c(OC([H])([H])C([H])([H])C(c3c([H])c(C([H])([H])C([H])([H])N([H])C(=O)N4C([H])([H])C([H])([H])C([H])([H])C([H])(n5nc(-c6c([H])c([H])c(Oc7c([H])c([H])c(F)c([H])c7F)c([H])c6[H])c(C(=O)N([H])[H])c5N([H])[H])C4([H])[H])nc(C([H])(C([H])([H])[H])C([H])([H])[H])c3[H])(C([H])([H])[H])C([H])([H])[H])c([H])c([H])c2C1([H])[H]

$$$$
38:0:0
     RDKit          3D

 93101  0  0  1  0  0  0  0  0999 V2000
  -30.6610  -23.3800   19.2170 C   0  0  0  0  0  3  0  0  0  0  0  0
  -29.7080  -22.6300   19.9400 C   0  0  0  0  0  0  0  0  0  0  0  0
  -31.6920  -22.7200   18.5230 C   0  0  0  0  0  0  0  0  0  0  0  0
  -29.9010  -21.1630   19.9100 C   0  0  0  0  0  0  0  0  0  0  0  0
  -31.7910  -21.3740   18.5120 N   0  0  0  0  0  0  0  0  0  0  0  0
  -30.9120  -20.6270   19.1800 N   0  0  0  0  0  0  0  0  0  0  0  0
  -33.1100  -24.8490   18.2870 C   0  0  0  0  0  1  0  0  0  0  0  0
  -32.3190  -23.5790   16.2310 C   0  0  0  0  0  1  0  0  0  0  0  0
  -32.7400  -23.4720   17.7050 C   0  0  0  0  0  3  0  0  0  0  0  0
  -28.6380  -23.5230   20.6820 C   0  0  0  0  0  2  0  0  0  0  0  0
  -27.9740  -24.8390   19.9810 C   0  0  0  0  0  2  0  0  0  0  0  0
  -28.2670  -26.3040   20.2330 O   0  0  0  0  0  0  0  0  0  0  0  0
  -24.6320  -31.8550   23.2210 C   0  0  0  0  0  0  0  0  0  0  0  0
  -27.1960  -27.2370   20.1470 C   0  0  0  0  0  0  0  0  0  0  0  0
  -23.4170  -30.4620   21.5890 C   0  0  0  0  0  3  0  0  0  0  0  0
  -24.8540  -28.9120   20.1440 C   0  0  0  0  0  0  0  0  0  0  0  0
  -25.9620  -30.7550   21.3990 C   0  0  0  0  0  2  0  0  0  0  0  0
  -26.0310  -29.3730   20.7460 C   0  0  0  0  0  0  0  0  0  0  0  0
  -27.2040  -28.5470   20.7430 C   0  0  0  0  0  3  0  0  0  0  0  0
  -26.0020  -26.8710   19.4810 C   0  0  0  0  0  3  0  0  0  0  0  0
  -24.8450  -27.6700   19.5000 C   0  0  0  0  0  3  0  0  0  0  0  0
  -23.6220  -29.7950   20.2050 C   0  0  0  0  0  2  0  0  0  0  0  0
  -24.6900  -31.0420   22.1250 N   0  0  0  0  0  0  0  0  0  0  0  0
  -23.5520  -32.1370   23.7600 O   0  0  0  0  0  0  0  0  0  0  0  0
  -22.7540  -29.4460   22.5520 C   0  0  0  0  0  0  0  0  0  0  0  0
  -21.4270  -29.2740   22.4350 N   0  0  0  0  0  0  0  0  0  0  0  0
  -23.4360  -28.8150   23.3640 O   0  0  0  0  0  0  0  0  0  0  0  0
  -20.9340  -29.8340   21.7530 H   0  0  0  0  0  0  0  0  0  0  0  0
  -18.0480  -28.0820   22.9570 C   0  0  0  0  0  0  0  0  0  0  0  0
  -20.6090  -28.3390   23.2110 C   0  0  0  0  0  3  0  0  0  0  0  0
  -20.7040  -26.9060   22.6380 C   0  0  0  0  0  2  0  0  0  0  0  0
  -19.5970  -26.5840   21.6300 C   0  0  0  0  0  2  0  0  0  0  0  0
  -18.2190  -26.7310   22.2810 C   0  0  0  0  0  2  0  0  0  0  0  0
  -19.1700  -28.8440   23.3780 C   0  0  0  0  0  0  0  0  0  0  0  0
  -18.9560  -30.1060   23.9710 C   0  0  0  0  0  3  0  0  0  0  0  0
  -17.6530  -30.6090   24.1450 C   0  0  0  0  0  3  0  0  0  0  0  0
  -16.5450  -29.8460   23.7380 C   0  0  0  0  0  3  0  0  0  0  0  0
  -16.7440  -28.5840   23.1500 C   0  0  0  0  0  3  0  0  0  0  0  0
  -25.9180  -32.4860   23.8350 C   0  0  0  0  0  3  0  0  0  0  0  0
  -25.6100  -33.8830   24.1740 N   0  0  0  0  0  0  0  0  0  0  0  0
  -25.9370  -34.9410   23.4200 C   0  0  0  0  0  0  0  0  0  0  0  0
  -26.5980  -34.8430   22.3830 O   0  0  0  0  0  0  0  0  0  0  0  0
  -25.0220  -34.0320   24.9810 H   0  0  0  0  0  0  0  0  0  0  0  0
  -24.2070  -36.7380   23.0920 C   0  0  0  0  0  1  0  0  0  0  0  0
  -25.4550  -36.3270   23.8900 C   0  0  0  0  0  3  0  0  0  0  0  0
  -27.5980  -37.2050   24.7070 C   0  0  0  0  0  1  0  0  0  0  0  0
  -26.4870  -37.3800   23.7750 N   0  0  0  0  0  0  0  0  0  0  0  0
  -26.0830  -38.3000   23.9310 H   0  0  0  0  0  0  0  0  0  0  0  0
  -26.4440  -31.7100   25.1060 C   0  0  1  0  0  0  0  0  0  0  0  0
  -25.3590  -31.4740   26.1820 C   0  0  0  0  0  1  0  0  0  0  0  0
  -27.0210  -30.3310   24.7090 C   0  0  0  0  0  1  0  0  0  0  0  0
  -27.6020  -32.5000   25.7580 C   0  0  0  0  0  1  0  0  0  0  0  0
  -29.0070  -19.9940   20.4760 C   0  0  0  0  0  2  0  0  0  0  0  0
  -29.6220  -18.5730   21.0140 C   0  0  0  0  0  2  0  0  0  0  0  0
  -29.9650  -17.2950   20.0770 C   0  0  0  0  0  2  0  0  0  0  0  0
  -30.6100  -14.7400   20.3540 C   0  0  0  0  0  0  0  0  0  0  0  0
  -30.4200  -12.4560   19.3610 C   0  0  0  0  0  2  0  0  0  0  0  0
  -29.4800  -12.5290   18.1370 C   0  0  0  0  0  2  0  0  0  0  0  0
  -28.0110  -12.3530   18.5660 C   0  0  0  0  0  2  0  0  0  0  0  0
  -27.6370  -13.2390   19.7840 C   0  0  0  0  0  3  0  0  0  0  0  0
  -28.6980  -13.1520   20.9070 C   0  0  0  0  0  2  0  0  0  0  0  0
  -29.9960  -13.5070   20.3170 N   0  0  0  0  0  0  0  0  0  0  0  0
  -31.7740  -14.8590   19.9620 O   0  0  0  0  0  0  0  0  0  0  0  0
  -29.8290  -15.8590   20.6070 N   0  0  0  0  0  0  0  0  0  0  0  0
  -28.9160  -15.6320   20.9720 H   0  0  0  0  0  0  0  0  0  0  0  0
  -25.2460  -13.8230   20.5080 C   0  0  0  0  0  0  0  0  0  0  0  0
  -24.1830  -13.0470   20.8810 C   0  0  0  0  0  0  0  0  0  0  0  0
  -24.6510  -11.6960   20.8550 C   0  0  0  0  0  0  0  0  0  0  0  0
  -26.2940  -12.9470   20.2750 N   0  0  0  0  0  0  0  0  0  0  0  0
  -25.9420  -11.6630   20.5460 N   0  0  0  0  0  0  0  0  0  0  0  0
  -23.9290  -10.4320   21.0500 C   0  0  0  0  0  0  0  0  0  0  0  0
  -24.3750   -9.4600   21.9730 C   0  0  0  0  0  3  0  0  0  0  0  0
  -23.6530   -8.2620   22.1560 C   0  0  0  0  0  3  0  0  0  0  0  0
  -22.4700   -8.0270   21.4170 C   0  0  0  0  0  0  0  0  0  0  0  0
  -22.0420   -8.9870   20.4820 C   0  0  0  0  0  3  0  0  0  0  0  0
  -22.7650  -10.1770   20.2970 C   0  0  0  0  0  3  0  0  0  0  0  0
  -21.7170   -6.8810   21.5100 O   0  0  0  0  0  0  0  0  0  0  0  0
  -21.6990   -6.1240   22.6540 C   0  0  0  0  0  0  0  0  0  0  0  0
  -21.3170   -6.6650   23.9000 C   0  0  0  0  0  3  0  0  0  0  0  0
  -21.2450   -5.8340   25.0360 C   0  0  0  0  0  3  0  0  0  0  0  0
  -21.5450   -4.4630   24.9280 C   0  0  0  0  0  0  0  0  0  0  0  0
  -21.9190   -3.9210   23.6850 C   0  0  0  0  0  3  0  0  0  0  0  0
  -21.9930   -4.7490   22.5510 C   0  0  0  0  0  0  0  0  0  0  0  0
  -22.3340   -4.2170   21.3530 F   0  0  0  0  0  0  0  0  0  0  0  0
  -21.4680   -3.6630   26.0170 F   0  0  0  0  0  0  0  0  0  0  0  0
  -22.7850  -13.5190   21.1530 C   0  0  0  0  0  0  0  0  0  0  0  0
  -22.0610  -12.8240   22.0230 N   0  0  0  0  0  0  0  0  0  0  0  0
  -22.3430  -14.5410   20.6290 O   0  0  0  0  0  0  0  0  0  0  0  0
  -22.4330  -11.9990   22.4700 H   0  0  0  0  0  0  0  0  0  0  0  0
  -21.1220  -13.1210   22.2470 H   0  0  0  0  0  0  0  0  0  0  0  0
  -25.4040  -15.1930   20.3230 N   0  0  0  0  0  0  0  0  0  0  0  0
  -24.6300  -15.8410   20.4260 H   0  0  0  0  0  0  0  0  0  0  0  0
  -26.2420  -15.6340   19.9680 H   0  0  0  0  0  0  0  0  0  0  0  0
  1  2  1  0
  2 10  1  0
  3  1  2  0
  4  2  2  0
  4 53  1  0
  5  3  1  0
  5  6  2  0
  6  4  1  0
  8  9  1  0
  9  7  1  0
  9  3  1  0
 11 12  1  0
 11 10  1  0
 13 24  2  0
 14 12  1  0
 14 19  1  0
 15 23  1  0
 15 25  1  0
 16 22  1  0
 16 18  1  0
 17 23  1  0
 18 17  1  0
 19 18  2  0
 20 21  1  0
 20 14  2  0
 21 16  2  0
 22 15  1  0
 23 13  1  0
 25 27  2  0
 26 25  1  0
 28 26  1  0
 29 38  2  0
 29 34  1  0
 30 26  1  0
 30 34  1  0
 31 30  1  0
 32 33  1  0
 32 31  1  0
 33 29  1  0
 34 35  2  0
 35 36  1  0
 37 36  2  0
 38 37  1  0
 39 13  1  0
 39 40  1  0
 39 49  1  0
 40 43  1  0
 41 45  1  0
 41 40  1  0
 42 41  2  0
 45 44  1  0
 47 45  1  0
 47 48  1  0
 47 46  1  0
 49 52  1  1
 49 50  1  0
 51 49  1  0
 53 54  1  0
 55 64  1  0
 55 54  1  0
 56 64  1  0
 57 62  1  0
 58 59  1  0
 58 57  1  0
 60 59  1  0
 60 69  1  0
 60 61  1  0
 62 56  1  0
 62 61  1  0
 63 56  2  0
 64 65  1  0
 66 67  2  0
 67 86  1  0
 68 67  1  0
 68 71  1  0
 69 66  1  0
 69 70  1  0
 70 68  2  0
 71 72  1  0
 72 73  2  0
 74 77  1  0
 74 73  1  0
 75 74  2  0
 76 75  1  0
 76 71  2  0
 77 78  1  0
 78 79  1  0
 79 80  2  0
 81 80  1  0
 81 85  1  0
 82 81  2  0
 83 78  2  0
 83 82  1  0
 84 83  1  0
 86 87  1  0
 87 90  1  0
 87 89  1  0
 88 86  2  0
 91 92  1  0
 91 66  1  0
 93 91  1  0
M  ISO  4  11 101  12 101  56 100  64 100
M  END
>  <TORSDO>  (39) 
F 22

>  <SCORE>  (39) 
-12.906

>  <name>  (39) 
38

>  <ligand_id>  (39) 
38

>  <original_smiles>  (39) 
[H]c1c([H])c([H])c2c(c1[H])C([H])([H])C([H])([H])C([H])([H])C2([H])N([H])C(=O)C1([H])N(C(=O)C([H])(N([H])C(=O)C([H])(N([H])C([H])([H])[H])C([H])([H])[H])C(C([H])([H])[H])(C([H])([H])[H])C([H])([H])[H])C([H])([H])c2c([H])c(OC([H])([H])C([H])([H])c3c(C([H])([H])C([H])([H])C([H])([H])N([H])C(=O)N4C([H])([H])C([H])([H])C([H])([H])C([H])(n5nc(-c6c([H])c([H])c(Oc7c([H])c([H])c(F)c([H])c7F)c([H])c6[H])c(C(=O)N([H])[H])c5N([H])[H])C4([H])[H])nnc(C([H])(C([H])([H])[H])C([H])([H])[H])c3[H])c([H])c([H])c2C1([H])[H]

>  <smiles>  (39) 
[H]c1c([H])c([H])c2c(c1[H])C([H])([H])C([H])([H])C([H])([H])C2([H])N([H])C(=O)C1([H])N(C(=O)C([H])(N([H])C(=O)C([H])(N([H])C([H])([H])[H])C([H])([H])[H])C(C([H])([H])[H])(C([H])([H])[H])C([H])([H])[H])C([H])([H])c2c([H])c(OC([H])([H])C([H])([H])c3c(C([H])([H])C([H])([H])C([H])([H])N([H])C(=O)N4C([H])([H])C([H])([H])C([H])([H])C([H])(n5nc(-c6c([H])c([H])c(Oc7c([H])c([H])c(F)c([H])c7F)c([H])c6[H])c(C(=O)N([H])[H])c5N([H])[H])C4([H])[H])nnc(C([H])(C([H])([H])[H])C([H])([H])[H])c3[H])c([H])c([H])c2C1([H])[H]

$$$$
39:0:0
     RDKit          3D

100108  0  0  1  0  0  0  0  0999 V2000
  -29.2060  -22.0340   19.0310 C   0  0  0  0  0  3  0  0  0  0  0  0
  -29.7150  -21.0300   19.8840 C   0  0  0  0  0  0  0  0  0  0  0  0
  -30.5380  -20.0000   19.3440 C   0  0  0  0  0  0  0  0  0  0  0  0
  -29.4740  -21.9840   17.6550 C   0  0  0  0  0  0  0  0  0  0  0  0
  -30.6410  -19.9220   17.9230 C   0  0  0  0  0  0  0  0  0  0  0  0
  -30.1270  -20.9070   17.1190 N   0  0  0  0  0  0  0  0  0  0  0  0
  -29.3520  -21.1130   21.3620 C   0  0  0  0  0  2  0  0  0  0  0  0
  -28.2930  -22.6190   23.1040 C   0  0  0  0  0  1  0  0  0  0  0  0
  -29.2610  -22.5420   21.9160 C   0  0  0  0  0  2  0  0  0  0  0  0
  -31.4530  -19.1650   20.2770 C   0  0  0  0  0  2  0  0  0  0  0  0
  -32.5010  -18.1690   19.6820 C   0  0  0  0  0  3  0  0  0  0  0  0
  -34.3940  -18.8870   21.3310 C   0  0  0  0  0  1  0  0  0  0  0  0
  -34.3330  -19.9150   19.0290 C   0  0  0  0  0  1  0  0  0  0  0  0
  -33.9760  -18.6740   19.8640 C   0  0  0  0  0  3  0  0  0  0  0  0
  -33.5370  -15.8240   20.2790 C   0  0  0  0  0  1  0  0  0  0  0  0
  -32.3050  -16.7470   20.2780 C   0  0  0  0  0  2  0  0  0  0  0  0
  -29.0950  -23.1570   16.7000 C   0  0  0  0  0  2  0  0  0  0  0  0
  -27.9990  -24.2390   17.0780 C   0  0  0  0  0  2  0  0  0  0  0  0
  -28.2690  -25.2750   18.2330 C   0  0  0  0  0  2  0  0  0  0  0  0
  -28.2340  -26.6960   17.8670 O   0  0  0  0  0  0  0  0  0  0  0  0
  -25.8720  -29.5220   23.9990 C   0  0  0  0  0  0  0  0  0  0  0  0
  -27.2890  -27.4910   18.5020 C   0  0  0  0  0  0  0  0  0  0  0  0
  -24.2840  -29.5390   22.1040 C   0  0  0  0  0  3  0  0  0  0  0  0
  -25.2810  -29.0130   19.8110 C   0  0  0  0  0  0  0  0  0  0  0  0
  -26.8100  -29.6450   21.6850 C   0  0  0  0  0  2  0  0  0  0  0  0
  -26.5670  -28.9340   20.3660 C   0  0  0  0  0  0  0  0  0  0  0  0
  -27.5800  -28.1910   19.7050 C   0  0  0  0  0  3  0  0  0  0  0  0
  -25.9970  -27.6090   17.9540 C   0  0  0  0  0  3  0  0  0  0  0  0
  -24.9970  -28.3620   18.5970 C   0  0  0  0  0  3  0  0  0  0  0  0
  -24.2440  -29.8070   20.5730 C   0  0  0  0  0  2  0  0  0  0  0  0
  -25.6820  -29.5450   22.6480 N   0  0  0  0  0  0  0  0  0  0  0  0
  -24.9130  -29.5290   24.7830 O   0  0  0  0  0  0  0  0  0  0  0  0
  -23.5180  -28.2290   22.4000 C   0  0  0  0  0  0  0  0  0  0  0  0
  -22.2270  -28.1890   22.0370 N   0  0  0  0  0  0  0  0  0  0  0  0
  -24.0910  -27.2670   22.9210 O   0  0  0  0  0  0  0  0  0  0  0  0
  -21.8270  -29.0190   21.6170 H   0  0  0  0  0  0  0  0  0  0  0  0
  -18.9570  -26.9260   21.1500 C   0  0  0  0  0  0  0  0  0  0  0  0
  -21.3250  -27.0450   22.1800 C   0  0  0  0  0  3  0  0  0  0  0  0
  -21.7010  -25.9150   21.1950 C   0  0  0  0  0  2  0  0  0  0  0  0
  -20.9330  -25.9870   19.8730 C   0  0  0  0  0  2  0  0  0  0  0  0
  -19.4230  -25.9090   20.1210 C   0  0  0  0  0  2  0  0  0  0  0  0
  -19.8550  -27.4730   22.1050 C   0  0  0  0  0  0  0  0  0  0  0  0
  -19.3790  -28.4430   23.0130 C   0  0  0  0  0  3  0  0  0  0  0  0
  -18.0360  -28.8640   22.9810 C   0  0  0  0  0  3  0  0  0  0  0  0
  -17.1470  -28.3080   22.0420 C   0  0  0  0  0  3  0  0  0  0  0  0
  -17.6070  -27.3400   21.1330 C   0  0  0  0  0  3  0  0  0  0  0  0
  -27.3020  -29.5060   24.6220 C   0  0  0  0  0  3  0  0  0  0  0  0
  -27.3300  -30.5060   25.6980 N   0  0  0  0  0  0  0  0  0  0  0  0
  -27.8690  -31.7280   25.5920 C   0  0  0  0  0  0  0  0  0  0  0  0
  -28.4660  -32.1110   24.5800 O   0  0  0  0  0  0  0  0  0  0  0  0
  -26.8290  -30.2770   26.5440 H   0  0  0  0  0  0  0  0  0  0  0  0
  -26.5990  -33.6860   26.5230 C   0  0  0  0  0  1  0  0  0  0  0  0
  -27.7250  -32.6760   26.7980 C   0  0  0  0  0  3  0  0  0  0  0  0
  -30.0230  -32.5330   27.6470 C   0  0  0  0  0  1  0  0  0  0  0  0
  -28.9710  -33.4040   27.1290 N   0  0  0  0  0  0  0  0  0  0  0  0
  -28.7930  -34.1330   27.8120 H   0  0  0  0  0  0  0  0  0  0  0  0
  -27.7230  -28.0890   25.1760 C   0  0  1  0  0  0  0  0  0  0  0  0
  -26.6280  -27.3990   26.0210 C   0  0  0  0  0  1  0  0  0  0  0  0
  -28.0900  -27.1410   24.0120 C   0  0  0  0  0  1  0  0  0  0  0  0
  -28.9870  -28.2240   26.0550 C   0  0  0  0  0  1  0  0  0  0  0  0
  -31.4280  -18.7710   17.2270 C   0  0  0  0  0  2  0  0  0  0  0  0
  -30.6710  -17.4170   16.9790 C   0  0  0  0  0  2  0  0  0  0  0  0
  -31.9100  -15.2960   17.7630 C   0  0  0  0  0  0  0  0  0  0  0  0
  -31.9960  -12.8230   17.7780 C   0  0  0  0  0  2  0  0  0  0  0  0
  -30.8230  -12.3050   16.9170 C   0  0  0  0  0  2  0  0  0  0  0  0
  -29.5410  -12.1780   17.7640 C   0  0  0  0  0  2  0  0  0  0  0  0
  -29.2480  -13.4500   18.6010 C   0  0  0  0  0  3  0  0  0  0  0  0
  -30.5130  -13.9210   19.3560 C   0  0  0  0  0  2  0  0  0  0  0  0
  -31.5850  -14.1140   18.3640 N   0  0  0  0  0  0  0  0  0  0  0  0
  -32.8600  -15.4030   16.9840 O   0  0  0  0  0  0  0  0  0  0  0  0
  -30.9870  -16.2830   17.8980 N   0  0  0  0  0  0  0  0  0  0  0  0
  -30.2720  -16.0800   18.5780 H   0  0  0  0  0  0  0  0  0  0  0  0
  -27.6320  -14.0840   20.4950 C   0  0  0  0  0  0  0  0  0  0  0  0
  -26.5290  -13.4560   21.0080 C   0  0  0  0  0  0  0  0  0  0  0  0
  -26.3790  -12.2490   20.2580 C   0  0  0  0  0  0  0  0  0  0  0  0
  -28.1180  -13.2470   19.5030 N   0  0  0  0  0  0  0  0  0  0  0  0
  -27.3800  -12.1140   19.3970 N   0  0  0  0  0  0  0  0  0  0  0  0
  -25.3050  -11.2490   20.2640 C   0  0  0  0  0  0  0  0  0  0  0  0
  -25.5410   -9.9110   20.6520 C   0  0  0  0  0  3  0  0  0  0  0  0
  -24.4860   -8.9720   20.6650 C   0  0  0  0  0  3  0  0  0  0  0  0
  -23.1800   -9.3670   20.2910 C   0  0  0  0  0  0  0  0  0  0  0  0
  -22.9540  -10.6930   19.8830 C   0  0  0  0  0  3  0  0  0  0  0  0
  -24.0060  -11.6250   19.8650 C   0  0  0  0  0  3  0  0  0  0  0  0
  -22.1000   -8.5180   20.2490 O   0  0  0  0  0  0  0  0  0  0  0  0
  -21.8030   -7.6810   21.2930 C   0  0  0  0  0  0  0  0  0  0  0  0
  -21.5720   -8.1680   22.5980 C   0  0  0  0  0  3  0  0  0  0  0  0
  -21.2020   -7.2800   23.6270 C   0  0  0  0  0  3  0  0  0  0  0  0
  -21.0520   -5.9070   23.3520 C   0  0  0  0  0  0  0  0  0  0  0  0
  -21.2760   -5.4190   22.0520 C   0  0  0  0  0  3  0  0  0  0  0  0
  -21.6470   -6.3050   21.0250 C   0  0  0  0  0  0  0  0  0  0  0  0
  -21.8410   -5.8360   19.7690 F   0  0  0  0  0  0  0  0  0  0  0  0
  -20.6890   -5.0520   24.3370 F   0  0  0  0  0  0  0  0  0  0  0  0
  -25.6070  -13.9900   22.0640 C   0  0  0  0  0  0  0  0  0  0  0  0
  -25.0140  -13.1100   22.8660 N   0  0  0  0  0  0  0  0  0  0  0  0
  -25.4420  -15.1990   22.2190 O   0  0  0  0  0  0  0  0  0  0  0  0
  -25.1660  -12.1190   22.7560 H   0  0  0  0  0  0  0  0  0  0  0  0
  -24.4030  -13.4350   23.6010 H   0  0  0  0  0  0  0  0  0  0  0  0
  -28.2540  -15.2960   20.7770 N   0  0  0  0  0  0  0  0  0  0  0  0
  -27.9010  -15.9270   21.4870 H   0  0  0  0  0  0  0  0  0  0  0  0
  -29.0630  -15.6600   20.2920 H   0  0  0  0  0  0  0  0  0  0  0  0
  1  2  1  0
  2  7  1  0
  3  2  2  0
  3 10  1  0
  4  1  2  0
  5  3  1  0
  6  4  1  0
  6  5  2  0
  7  9  1  0
  9  8  1  0
 11 14  1  0
 11 10  1  0
 11 16  1  0
 13 14  1  0
 14 12  1  0
 16 15  1  0
 17 18  1  0
 17  4  1  0
 18 19  1  0
 20 19  1  0
 20 22  1  0
 21 32  2  0
 22 27  1  0
 23 33  1  0
 23 31  1  0
 24 26  1  0
 24 30  1  0
 25 31  1  0
 26 25  1  0
 27 26  2  0
 28 22  2  0
 28 29  1  0
 29 24  2  0
 30 23  1  0
 31 21  1  0
 33 35  2  0
 34 33  1  0
 36 34  1  0
 37 42  1  0
 38 34  1  0
 39 38  1  0
 40 41  1  0
 40 39  1  0
 41 37  1  0
 42 38  1  0
 42 43  2  0
 44 43  1  0
 45 44  2  0
 46 37  2  0
 46 45  1  0
 47 21  1  0
 47 57  1  0
 47 48  1  0
 48 51  1  0
 49 48  1  0
 49 53  1  0
 50 49  2  0
 53 52  1  0
 53 55  1  0
 55 54  1  0
 55 56  1  0
 57 58  1  1
 57 60  1  0
 59 57  1  0
 61  5  1  0
 62 61  1  0
 62 71  1  0
 63 71  1  0
 63 69  1  0
 64 69  1  0
 65 66  1  0
 65 64  1  0
 67 66  1  0
 67 68  1  0
 67 76  1  0
 69 68  1  0
 70 63  2  0
 71 72  1  0
 73 98  1  0
 73 74  2  0
 74 93  1  0
 75 78  1  0
 75 74  1  0
 76 73  1  0
 77 76  1  0
 77 75  2  0
 78 79  1  0
 79 80  2  0
 81 80  1  0
 82 81  2  0
 83 82  1  0
 83 78  2  0
 84 81  1  0
 84 85  1  0
 85 86  1  0
 86 87  2  0
 88 87  1  0
 88 92  1  0
 89 88  2  0
 90 85  2  0
 90 89  1  0
 91 90  1  0
 93 95  2  0
 93 94  1  0
 94 97  1  0
 96 94  1  0
 98 99  1  0
100 98  1  0
M  ISO  4  19 101  20 101  63 100  71 100
M  END
>  <TORSDO>  (40) 
F 27

>  <SCORE>  (40) 
-1.557

>  <name>  (40) 
39

>  <ligand_id>  (40) 
39

>  <original_smiles>  (40) 
[H]c1c([H])c([H])c2c(c1[H])C([H])([H])C([H])([H])C([H])([H])C2([H])N([H])C(=O)C1([H])N(C(=O)C([H])(N([H])C(=O)C([H])(N([H])C([H])([H])[H])C([H])([H])[H])C(C([H])([H])[H])(C([H])([H])[H])C([H])([H])[H])C([H])([H])c2c([H])c(OC([H])([H])C([H])([H])C([H])([H])c3nc(C([H])([H])C([H])([H])N([H])C(=O)N4C([H])([H])C([H])([H])C([H])([H])C([H])(n5nc(-c6c([H])c([H])c(Oc7c([H])c([H])c(F)c([H])c7F)c([H])c6[H])c(C(=O)N([H])[H])c5N([H])[H])C4([H])[H])c(C([H])([H])C([H])(C([H])([H])C([H])([H])[H])C([H])(C([H])([H])[H])C([H])([H])[H])c(C([H])([H])C([H])([H])C([H])([H])[H])c3[H])c([H])c([H])c2C1([H])[H]

>  <smiles>  (40) 
[H]c1c([H])c([H])c2c(c1[H])C([H])([H])C([H])([H])C([H])([H])C2([H])N([H])C(=O)C1([H])N(C(=O)C([H])(N([H])C(=O)C([H])(N([H])C([H])([H])[H])C([H])([H])[H])C(C([H])([H])[H])(C([H])([H])[H])C([H])([H])[H])C([H])([H])c2c([H])c(OC([H])([H])C([H])([H])C([H])([H])c3nc(C([H])([H])C([H])([H])N([H])C(=O)N4C([H])([H])C([H])([H])C([H])([H])C([H])(n5nc(-c6c([H])c([H])c(Oc7c([H])c([H])c(F)c([H])c7F)c([H])c6[H])c(C(=O)N([H])[H])c5N([H])[H])C4([H])[H])c(C([H])([H])C([H])(C([H])([H])C([H])([H])[H])C([H])(C([H])([H])[H])C([H])([H])[H])c(C([H])([H])C([H])([H])C([H])([H])[H])c3[H])c([H])c([H])c2C1([H])[H]

$$$$
40:0:0
     RDKit          3D

 91 99  0  0  1  0  0  0  0  0999 V2000
  -29.0830  -19.9640   18.6370 C   0  0  0  0  0  3  0  0  0  0  0  0
  -28.1570  -20.9120   18.2430 C   0  0  0  0  0  0  0  0  0  0  0  0
  -26.9070  -20.2670   18.5130 C   0  0  0  0  0  0  0  0  0  0  0  0
  -25.4920  -20.7410   18.3510 C   0  0  0  0  0  1  0  0  0  0  0  0
  -27.0660  -19.0540   19.0050 N   0  0  0  0  0  0  0  0  0  0  0  0
  -28.3950  -18.8480   19.0960 N   0  0  0  0  0  0  0  0  0  0  0  0
  -28.3790  -22.2940   17.6450 C   0  0  0  0  0  2  0  0  0  0  0  0
  -27.8850  -23.4970   18.5020 C   0  0  0  0  0  2  0  0  0  0  0  0
  -29.0110  -24.2670   19.2490 C   0  0  0  0  0  2  0  0  0  0  0  0
  -28.5510  -25.2720   20.3410 C   0  0  0  0  0  2  0  0  0  0  0  0
  -28.7230  -26.6660   20.0250 O   0  0  0  0  0  0  0  0  0  0  0  0
  -24.7280  -31.5820   23.3330 C   0  0  0  0  0  0  0  0  0  0  0  0
  -27.5630  -27.4060   20.0370 C   0  0  0  0  0  0  0  0  0  0  0  0
  -23.6300  -30.2580   21.5850 C   0  0  0  0  0  3  0  0  0  0  0  0
  -25.1420  -28.8660   20.0820 C   0  0  0  0  0  0  0  0  0  0  0  0
  -26.1340  -30.6940   21.4720 C   0  0  0  0  0  2  0  0  0  0  0  0
  -26.2720  -29.3700   20.7410 C   0  0  0  0  0  0  0  0  0  0  0  0
  -27.4890  -28.6480   20.7130 C   0  0  0  0  0  3  0  0  0  0  0  0
  -26.4190  -26.9310   19.3640 C   0  0  0  0  0  3  0  0  0  0  0  0
  -25.2110  -27.6500   19.3840 C   0  0  0  0  0  3  0  0  0  0  0  0
  -23.8800  -29.6930   20.1610 C   0  0  0  0  0  2  0  0  0  0  0  0
  -24.8500  -30.8540   22.1910 N   0  0  0  0  0  0  0  0  0  0  0  0
  -23.6170  -31.7880   23.8500 O   0  0  0  0  0  0  0  0  0  0  0  0
  -22.9790  -29.1640   22.4530 C   0  0  0  0  0  0  0  0  0  0  0  0
  -21.6660  -29.0700   22.2730 N   0  0  0  0  0  0  0  0  0  0  0  0
  -23.6300  -28.4400   23.2060 O   0  0  0  0  0  0  0  0  0  0  0  0
  -21.2690  -29.8140   21.7110 H   0  0  0  0  0  0  0  0  0  0  0  0
  -18.2550  -27.5550   22.5550 C   0  0  0  0  0  0  0  0  0  0  0  0
  -20.7270  -28.0120   22.5520 C   0  0  0  0  0  3  0  0  0  0  0  0
  -21.0120  -26.5430   22.1920 C   0  0  0  0  0  2  0  0  0  0  0  0
  -19.9090  -26.0750   21.2190 C   0  0  0  0  0  2  0  0  0  0  0  0
  -18.5080  -26.2240   21.8490 C   0  0  0  0  0  2  0  0  0  0  0  0
  -19.3260  -28.3700   22.9940 C   0  0  0  0  0  0  0  0  0  0  0  0
  -19.0690  -29.5850   23.6620 C   0  0  0  0  0  3  0  0  0  0  0  0
  -17.7470  -30.0190   23.8490 C   0  0  0  0  0  3  0  0  0  0  0  0
  -16.6750  -29.2270   23.3970 C   0  0  0  0  0  3  0  0  0  0  0  0
  -16.9270  -27.9950   22.7620 C   0  0  0  0  0  3  0  0  0  0  0  0
  -25.9750  -32.1960   24.0380 C   0  0  0  0  0  3  0  0  0  0  0  0
  -25.6610  -33.6020   24.3240 N   0  0  0  0  0  0  0  0  0  0  0  0
  -26.0750  -34.6390   23.5810 C   0  0  0  0  0  0  0  0  0  0  0  0
  -26.8250  -34.5090   22.6100 O   0  0  0  0  0  0  0  0  0  0  0  0
  -24.9980  -33.7760   25.0660 H   0  0  0  0  0  0  0  0  0  0  0  0
  -24.4180  -36.4600   23.0510 C   0  0  0  0  0  1  0  0  0  0  0  0
  -25.5710  -36.0410   23.9770 C   0  0  0  0  0  3  0  0  0  0  0  0
  -27.6340  -36.8950   24.9980 C   0  0  0  0  0  1  0  0  0  0  0  0
  -26.6310  -37.0720   23.9510 N   0  0  0  0  0  0  0  0  0  0  0  0
  -26.2290  -37.9990   24.0490 H   0  0  0  0  0  0  0  0  0  0  0  0
  -26.3790  -31.4310   25.3540 C   0  0  1  0  0  0  0  0  0  0  0  0
  -25.2050  -31.2190   26.3370 C   0  0  0  0  0  1  0  0  0  0  0  0
  -26.9680  -30.0420   25.0160 C   0  0  0  0  0  1  0  0  0  0  0  0
  -27.4840  -32.2160   26.0960 C   0  0  0  0  0  1  0  0  0  0  0  0
  -28.8040  -17.6160   19.7920 C   0  0  0  0  0  2  0  0  0  0  0  0
  -30.0920  -16.8680   19.3370 C   0  0  0  0  0  2  0  0  0  0  0  0
  -31.1650  -14.6820   19.8580 C   0  0  0  0  0  0  0  0  0  0  0  0
  -30.8930  -12.3330   19.1460 C   0  0  0  0  0  2  0  0  0  0  0  0
  -29.9520  -12.3130   17.9220 C   0  0  0  0  0  2  0  0  0  0  0  0
  -28.4720  -12.2700   18.3480 C   0  0  0  0  0  2  0  0  0  0  0  0
  -28.1340  -13.2960   19.4640 C   0  0  0  0  0  3  0  0  0  0  0  0
  -29.1940  -13.2820   20.5890 C   0  0  0  0  0  2  0  0  0  0  0  0
  -30.5120  -13.4910   19.9690 N   0  0  0  0  0  0  0  0  0  0  0  0
  -32.2550  -14.7870   19.2860 O   0  0  0  0  0  0  0  0  0  0  0  0
  -30.8600  -16.2750   21.6120 C   0  0  0  0  0  1  0  0  0  0  0  0
  -30.4890  -15.7830   20.2850 N   0  0  0  0  0  0  0  0  0  0  0  0
  -25.8110  -14.0440   20.2800 C   0  0  0  0  0  0  0  0  0  0  0  0
  -24.7110  -13.3440   20.6800 C   0  0  0  0  0  0  0  0  0  0  0  0
  -25.0720  -11.9640   20.5990 C   0  0  0  0  0  0  0  0  0  0  0  0
  -26.7840  -13.1020   19.9860 N   0  0  0  0  0  0  0  0  0  0  0  0
  -26.3470  -11.8410   20.2410 N   0  0  0  0  0  0  0  0  0  0  0  0
  -24.2610  -10.7530   20.7890 C   0  0  0  0  0  0  0  0  0  0  0  0
  -24.6370   -9.7480   21.7080 C   0  0  0  0  0  3  0  0  0  0  0  0
  -23.8300   -8.6020   21.8940 C   0  0  0  0  0  3  0  0  0  0  0  0
  -22.6290   -8.4570   21.1630 C   0  0  0  0  0  0  0  0  0  0  0  0
  -22.2690   -9.4440   20.2300 C   0  0  0  0  0  3  0  0  0  0  0  0
  -23.0760  -10.5810   20.0420 C   0  0  0  0  0  3  0  0  0  0  0  0
  -21.8010   -7.3650   21.2540 O   0  0  0  0  0  0  0  0  0  0  0  0
  -21.7070   -6.6270   22.4050 C   0  0  0  0  0  0  0  0  0  0  0  0
  -21.3010   -7.2050   23.6280 C   0  0  0  0  0  3  0  0  0  0  0  0
  -21.1490   -6.3970   24.7720 C   0  0  0  0  0  3  0  0  0  0  0  0
  -21.3960   -5.0130   24.6960 C   0  0  0  0  0  0  0  0  0  0  0  0
  -21.7960   -4.4360   23.4770 C   0  0  0  0  0  3  0  0  0  0  0  0
  -21.9480   -5.2400   22.3350 C   0  0  0  0  0  0  0  0  0  0  0  0
  -22.3130   -4.6770   21.1580 F   0  0  0  0  0  0  0  0  0  0  0  0
  -21.2440   -4.2330   25.7910 F   0  0  0  0  0  0  0  0  0  0  0  0
  -23.3580  -13.9090   21.0140 C   0  0  0  0  0  0  0  0  0  0  0  0
  -22.6250  -13.2560   21.9050 N   0  0  0  0  0  0  0  0  0  0  0  0
  -22.9670  -14.9670   20.5220 O   0  0  0  0  0  0  0  0  0  0  0  0
  -22.9510  -12.3960   22.3240 H   0  0  0  0  0  0  0  0  0  0  0  0
  -21.7210  -13.6200   22.1730 H   0  0  0  0  0  0  0  0  0  0  0  0
  -26.0620  -15.4070   20.1310 N   0  0  0  0  0  0  0  0  0  0  0  0
  -25.3480  -16.1060   20.3180 H   0  0  0  0  0  0  0  0  0  0  0  0
  -26.9350  -15.8110   19.8180 H   0  0  0  0  0  0  0  0  0  0  0  0
  1  6  1  0
  2  3  1  0
  2  1  2  0
  3  5  2  0
  4  3  1  0
  5  6  1  0
  6 52  1  0
  7  2  1  0
  7  8  1  0
  8  9  1  0
  9 10  1  0
 11 13  1  0
 11 10  1  0
 12 23  2  0
 13 18  1  0
 14 22  1  0
 14 24  1  0
 15 21  1  0
 15 17  1  0
 16 22  1  0
 17 16  1  0
 18 17  2  0
 19 20  1  0
 19 13  2  0
 20 15  2  0
 21 14  1  0
 22 12  1  0
 24 26  2  0
 25 24  1  0
 27 25  1  0
 28 37  2  0
 28 33  1  0
 29 25  1  0
 29 33  1  0
 30 29  1  0
 31 32  1  0
 31 30  1  0
 32 28  1  0
 33 34  2  0
 34 35  1  0
 36 35  2  0
 37 36  1  0
 38 12  1  0
 38 39  1  0
 38 48  1  0
 39 42  1  0
 40 44  1  0
 40 39  1  0
 41 40  2  0
 44 43  1  0
 46 44  1  0
 46 47  1  0
 46 45  1  0
 48 51  1  1
 48 49  1  0
 50 48  1  0
 53 52  1  0
 53 63  1  0
 54 60  1  0
 54 63  1  0
 55 60  1  0
 56 57  1  0
 56 55  1  0
 58 57  1  0
 58 67  1  0
 58 59  1  0
 60 59  1  0
 61 54  2  0
 63 62  1  0
 64 65  2  0
 65 84  1  0
 66 65  1  0
 66 69  1  0
 67 68  1  0
 67 64  1  0
 68 66  2  0
 69 70  1  0
 70 71  2  0
 72 75  1  0
 72 71  1  0
 73 72  2  0
 74 73  1  0
 74 69  2  0
 75 76  1  0
 76 77  1  0
 77 78  2  0
 79 78  1  0
 79 83  1  0
 80 79  2  0
 81 76  2  0
 81 80  1  0
 82 81  1  0
 84 85  1  0
 85 88  1  0
 85 87  1  0
 86 84  2  0
 89 64  1  0
 89 90  1  0
 91 89  1  0
M  ISO  4  10 101  11 101  54 100  63 100
M  END
>  <TORSDO>  (41) 
F 22

>  <SCORE>  (41) 
-12.468

>  <name>  (41) 
40

>  <ligand_id>  (41) 
40

>  <original_smiles>  (41) 
[H]c1c([H])c([H])c2c(c1[H])C([H])([H])C([H])([H])C([H])([H])C2([H])N([H])C(=O)C1([H])N(C(=O)C([H])(N([H])C(=O)C([H])(N([H])C([H])([H])[H])C([H])([H])[H])C(C([H])([H])[H])(C([H])([H])[H])C([H])([H])[H])C([H])([H])c2c([H])c(OC([H])([H])C([H])([H])C([H])([H])C([H])([H])c3c(C([H])([H])[H])nn(C([H])([H])C([H])([H])N(C(=O)N4C([H])([H])C([H])([H])C([H])([H])C([H])(n5nc(-c6c([H])c([H])c(Oc7c([H])c([H])c(F)c([H])c7F)c([H])c6[H])c(C(=O)N([H])[H])c5N([H])[H])C4([H])[H])C([H])([H])[H])c3[H])c([H])c([H])c2C1([H])[H]

>  <smiles>  (41) 
[H]c1c([H])c([H])c2c(c1[H])C([H])([H])C([H])([H])C([H])([H])C2([H])N([H])C(=O)C1([H])N(C(=O)C([H])(N([H])C(=O)C([H])(N([H])C([H])([H])[H])C([H])([H])[H])C(C([H])([H])[H])(C([H])([H])[H])C([H])([H])[H])C([H])([H])c2c([H])c(OC([H])([H])C([H])([H])C([H])([H])C([H])([H])c3c(C([H])([H])[H])nn(C([H])([H])C([H])([H])N(C(=O)N4C([H])([H])C([H])([H])C([H])([H])C([H])(n5nc(-c6c([H])c([H])c(Oc7c([H])c([H])c(F)c([H])c7F)c([H])c6[H])c(C(=O)N([H])[H])c5N([H])[H])C4([H])[H])C([H])([H])[H])c3[H])c([H])c([H])c2C1([H])[H]

$$$$
41:0:0
     RDKit          3D

 95103  0  0  1  0  0  0  0  0999 V2000
  -30.9140  -20.0250   19.2960 C   0  0  0  0  0  3  0  0  0  0  0  0
  -30.0110  -20.9370   19.9070 C   0  0  0  0  0  0  0  0  0  0  0  0
  -31.4690  -19.1930   20.2400 C   0  0  0  0  0  0  0  0  0  0  0  0
  -29.9670  -20.5950   21.2300 C   0  0  0  0  0  0  0  0  0  0  0  0
  -29.1600  -21.2070   22.3340 C   0  0  0  0  0  1  0  0  0  0  0  0
  -31.1690  -18.9880   22.7650 C   0  0  0  0  0  1  0  0  0  0  0  0
  -30.8800  -19.5580   21.4540 N   0  0  0  0  0  0  0  0  0  0  0  0
  -33.9210  -18.9470   20.5100 C   0  0  0  0  0  1  0  0  0  0  0  0
  -32.8350  -17.9360   18.5420 C   0  0  0  0  0  1  0  0  0  0  0  0
  -32.6380  -18.2210   20.0470 C   0  0  2  0  0  0  0  0  0  0  0  0
  -32.6030  -16.8410   20.8010 C   0  0  0  0  0  2  0  0  0  0  0  0
  -32.1780  -14.6680   19.6490 C   0  0  0  0  0  0  0  0  0  0  0  0
  -31.7250  -12.3310   18.9810 C   0  0  0  0  0  2  0  0  0  0  0  0
  -30.7310  -12.2550   17.8080 C   0  0  0  0  0  2  0  0  0  0  0  0
  -29.2810  -12.2550   18.3280 C   0  0  0  0  0  2  0  0  0  0  0  0
  -29.0150  -13.3870   19.3560 C   0  0  0  0  0  3  0  0  0  0  0  0
  -30.1170  -13.4280   20.4360 C   0  0  0  0  0  2  0  0  0  0  0  0
  -31.4180  -13.5450   19.7560 N   0  0  0  0  0  0  0  0  0  0  0  0
  -33.2370  -14.6860   19.0170 O   0  0  0  0  0  0  0  0  0  0  0  0
  -31.7390  -15.7600   20.3000 N   0  0  0  0  0  0  0  0  0  0  0  0
  -30.8250  -15.6860   20.7190 H   0  0  0  0  0  0  0  0  0  0  0  0
  -26.7970  -14.2650   20.3220 C   0  0  0  0  0  0  0  0  0  0  0  0
  -25.6680  -13.6220   20.7510 C   0  0  0  0  0  0  0  0  0  0  0  0
  -25.9300  -12.2250   20.6090 C   0  0  0  0  0  0  0  0  0  0  0  0
  -27.6840  -13.2670   19.9480 N   0  0  0  0  0  0  0  0  0  0  0  0
  -27.1690  -12.0310   20.1770 N   0  0  0  0  0  0  0  0  0  0  0  0
  -25.0520  -11.0630   20.8030 C   0  0  0  0  0  0  0  0  0  0  0  0
  -25.3550  -10.0580   21.7480 C   0  0  0  0  0  3  0  0  0  0  0  0
  -24.4850   -8.9610   21.9300 C   0  0  0  0  0  3  0  0  0  0  0  0
  -23.2970   -8.8630   21.1670 C   0  0  0  0  0  0  0  0  0  0  0  0
  -23.0120   -9.8550   20.2120 C   0  0  0  0  0  3  0  0  0  0  0  0
  -23.8810  -10.9430   20.0280 C   0  0  0  0  0  3  0  0  0  0  0  0
  -22.4070   -7.8200   21.2570 O   0  0  0  0  0  0  0  0  0  0  0  0
  -22.1400   -7.2030   22.4520 C   0  0  0  0  0  0  0  0  0  0  0  0
  -21.6040   -7.9080   23.5530 C   0  0  0  0  0  3  0  0  0  0  0  0
  -21.2780   -7.2210   24.7390 C   0  0  0  0  0  3  0  0  0  0  0  0
  -21.4790   -5.8310   24.8250 C   0  0  0  0  0  0  0  0  0  0  0  0
  -22.0080   -5.1260   23.7300 C   0  0  0  0  0  3  0  0  0  0  0  0
  -22.3340   -5.8100   22.5450 C   0  0  0  0  0  0  0  0  0  0  0  0
  -22.8230   -5.1220   21.4850 F   0  0  0  0  0  0  0  0  0  0  0  0
  -21.1600   -5.1690   25.9620 F   0  0  0  0  0  0  0  0  0  0  0  0
  -24.3800  -14.2670   21.1790 C   0  0  0  0  0  0  0  0  0  0  0  0
  -23.6550  -13.6380   22.0970 N   0  0  0  0  0  0  0  0  0  0  0  0
  -24.0350  -15.3600   20.7340 O   0  0  0  0  0  0  0  0  0  0  0  0
  -23.9480  -12.7510   22.4780 H   0  0  0  0  0  0  0  0  0  0  0  0
  -22.7920  -14.0510   22.4220 H   0  0  0  0  0  0  0  0  0  0  0  0
  -27.1410  -15.6080   20.2000 N   0  0  0  0  0  0  0  0  0  0  0  0
  -26.4930  -16.3570   20.4210 H   0  0  0  0  0  0  0  0  0  0  0  0
  -28.0230  -15.9450   19.8340 H   0  0  0  0  0  0  0  0  0  0  0  0
  -29.2780  -22.0690   19.2040 C   0  0  0  0  0  2  0  0  0  0  0  0
  -29.5770  -23.4610   19.8190 C   0  0  0  0  0  2  0  0  0  0  0  0
  -29.9240  -24.9700   17.7900 C   0  0  0  0  0  1  0  0  0  0  0  0
  -29.0470  -24.6890   19.0250 C   0  0  0  0  0  3  0  0  0  0  0  0
  -28.9680  -25.9440   19.9380 C   0  0  0  0  0  2  0  0  0  0  0  0
  -28.7530  -27.1760   19.2310 O   0  0  0  0  0  0  0  0  0  0  0  0
  -24.6300  -31.5190   23.0810 C   0  0  0  0  0  0  0  0  0  0  0  0
  -27.5150  -27.7550   19.3910 C   0  0  0  0  0  0  0  0  0  0  0  0
  -23.4700  -30.1750   21.3570 C   0  0  0  0  0  3  0  0  0  0  0  0
  -24.9800  -28.9640   19.6950 C   0  0  0  0  0  0  0  0  0  0  0  0
  -25.9240  -30.8350   21.0640 C   0  0  0  0  0  2  0  0  0  0  0  0
  -26.1110  -29.5570   20.2720 C   0  0  0  0  0  0  0  0  0  0  0  0
  -27.3830  -28.9630   20.1110 C   0  0  0  0  0  3  0  0  0  0  0  0
  -26.3690  -27.1700   18.8130 C   0  0  0  0  0  3  0  0  0  0  0  0
  -25.1050  -27.7700   18.9620 C   0  0  0  0  0  3  0  0  0  0  0  0
  -23.6590  -29.6690   19.9030 C   0  0  0  0  0  2  0  0  0  0  0  0
  -24.6950  -30.8540   21.8930 N   0  0  0  0  0  0  0  0  0  0  0  0
  -23.5640  -31.6090   23.7060 O   0  0  0  0  0  0  0  0  0  0  0  0
  -22.9930  -28.9930   22.2320 C   0  0  0  0  0  0  0  0  0  0  0  0
  -21.7170  -28.6070   22.0710 N   0  0  0  0  0  0  0  0  0  0  0  0
  -23.7670  -28.4270   23.0090 O   0  0  0  0  0  0  0  0  0  0  0  0
  -21.1440  -29.1280   21.4200 H   0  0  0  0  0  0  0  0  0  0  0  0
  -18.6190  -26.7680   22.3310 C   0  0  0  0  0  0  0  0  0  0  0  0
  -21.0620  -27.4930   22.7570 C   0  0  0  0  0  3  0  0  0  0  0  0
  -21.4660  -26.1390   22.1300 C   0  0  0  0  0  2  0  0  0  0  0  0
  -20.4960  -25.6640   21.0440 C   0  0  0  0  0  2  0  0  0  0  0  0
  -19.0820  -25.5120   21.6140 C   0  0  0  0  0  2  0  0  0  0  0  0
  -19.5470  -27.7060   22.8540 C   0  0  0  0  0  0  0  0  0  0  0  0
  -19.0630  -28.8750   23.4810 C   0  0  0  0  0  3  0  0  0  0  0  0
  -17.6800  -29.1110   23.5920 C   0  0  0  0  0  3  0  0  0  0  0  0
  -16.7640  -28.1720   23.0870 C   0  0  0  0  0  3  0  0  0  0  0  0
  -17.2340  -27.0020   22.4630 C   0  0  0  0  0  3  0  0  0  0  0  0
  -25.8810  -32.2190   23.6990 C   0  0  0  0  0  3  0  0  0  0  0  0
  -25.4890  -33.5850   24.0640 N   0  0  0  0  0  0  0  0  0  0  0  0
  -25.7830  -34.6780   23.3460 C   0  0  0  0  0  0  0  0  0  0  0  0
  -26.4860  -34.6440   22.3320 O   0  0  0  0  0  0  0  0  0  0  0  0
  -24.8660  -33.6840   24.8520 H   0  0  0  0  0  0  0  0  0  0  0  0
  -23.9780  -36.3910   22.9880 C   0  0  0  0  0  1  0  0  0  0  0  0
  -25.2090  -36.0230   23.8320 C   0  0  0  0  0  3  0  0  0  0  0  0
  -27.2570  -36.9900   24.7780 C   0  0  0  0  0  1  0  0  0  0  0  0
  -26.1880  -37.1310   23.7920 N   0  0  0  0  0  0  0  0  0  0  0  0
  -25.7290  -38.0240   23.9480 H   0  0  0  0  0  0  0  0  0  0  0  0
  -26.4670  -31.4530   24.9490 C   0  0  1  0  0  0  0  0  0  0  0  0
  -25.4110  -31.1300   26.0310 C   0  0  0  0  0  1  0  0  0  0  0  0
  -27.1220  -30.1210   24.5130 C   0  0  0  0  0  1  0  0  0  0  0  0
  -27.5840  -32.3010   25.6040 C   0  0  0  0  0  1  0  0  0  0  0  0
  1  2  1  0
  1  3  2  0
  2  4  2  0
  3  7  1  0
  4  7  1  0
  4  5  1  0
  7  6  1  0
 10  9  1  6
 10  3  1  0
 10  8  1  0
 10 11  1  0
 12 18  1  0
 12 20  1  0
 13 18  1  0
 14 15  1  0
 14 13  1  0
 16 15  1  0
 16 25  1  0
 16 17  1  0
 18 17  1  0
 19 12  2  0
 20 21  1  0
 20 11  1  0
 22 23  2  0
 23 42  1  0
 24 23  1  0
 24 27  1  0
 25 26  1  0
 25 22  1  0
 26 24  2  0
 27 28  1  0
 28 29  2  0
 30 33  1  0
 30 29  1  0
 31 30  2  0
 32 31  1  0
 32 27  2  0
 33 34  1  0
 34 39  2  0
 34 35  1  0
 35 36  2  0
 36 37  1  0
 37 41  1  0
 38 37  2  0
 39 38  1  0
 40 39  1  0
 42 43  1  0
 43 46  1  0
 43 45  1  0
 44 42  2  0
 47 22  1  0
 47 48  1  0
 49 47  1  0
 50 51  1  0
 50  2  1  0
 53 52  1  0
 53 51  1  0
 53 54  1  0
 55 57  1  0
 55 54  1  0
 56 67  2  0
 57 62  1  0
 58 66  1  0
 58 68  1  0
 59 65  1  0
 59 61  1  0
 60 66  1  0
 61 60  1  0
 62 61  2  0
 63 64  1  0
 63 57  2  0
 64 59  2  0
 65 58  1  0
 66 56  1  0
 68 70  2  0
 69 68  1  0
 71 69  1  0
 72 81  2  0
 72 77  1  0
 73 69  1  0
 73 77  1  0
 74 73  1  0
 75 76  1  0
 75 74  1  0
 76 72  1  0
 77 78  2  0
 78 79  1  0
 80 79  2  0
 81 80  1  0
 82 56  1  0
 82 83  1  0
 82 92  1  0
 83 86  1  0
 84 88  1  0
 84 83  1  0
 85 84  2  0
 88 87  1  0
 90 88  1  0
 90 91  1  0
 90 89  1  0
 92 95  1  1
 92 93  1  0
 94 92  1  0
M  ISO  4  12 100  20 100  54 101  55 101
M  END
>  <TORSDO>  (42) 
F 22

>  <SCORE>  (42) 
-9.492

>  <name>  (42) 
41

>  <ligand_id>  (42) 
41

>  <original_smiles>  (42) 
[H]c1c([H])c([H])c2c(c1[H])C([H])([H])C([H])([H])C([H])([H])C2([H])N([H])C(=O)C1([H])N(C(=O)C([H])(N([H])C(=O)C([H])(N([H])C([H])([H])[H])C([H])([H])[H])C(C([H])([H])[H])(C([H])([H])[H])C([H])([H])[H])C([H])([H])c2c([H])c(OC([H])([H])C([H])(C([H])([H])[H])C([H])([H])C([H])([H])c3c([H])c(C(C([H])([H])[H])(C([H])([H])[H])C([H])([H])N([H])C(=O)N4C([H])([H])C([H])([H])C([H])([H])C([H])(n5nc(-c6c([H])c([H])c(Oc7c([H])c([H])c(F)c([H])c7F)c([H])c6[H])c(C(=O)N([H])[H])c5N([H])[H])C4([H])[H])n(C([H])([H])[H])c3C([H])([H])[H])c([H])c([H])c2C1([H])[H]

>  <smiles>  (42) 
[H]c1c([H])c([H])c2c(c1[H])C([H])([H])C([H])([H])C([H])([H])C2([H])N([H])C(=O)C1([H])N(C(=O)C([H])(N([H])C(=O)C([H])(N([H])C([H])([H])[H])C([H])([H])[H])C(C([H])([H])[H])(C([H])([H])[H])C([H])([H])[H])C([H])([H])c2c([H])c(OC([H])([H])C([H])(C([H])([H])[H])C([H])([H])C([H])([H])c3c([H])c(C(C([H])([H])[H])(C([H])([H])[H])C([H])([H])N([H])C(=O)N4C([H])([H])C([H])([H])C([H])([H])C([H])(n5nc(-c6c([H])c([H])c(Oc7c([H])c([H])c(F)c([H])c7F)c([H])c6[H])c(C(=O)N([H])[H])c5N([H])[H])C4([H])[H])n(C([H])([H])[H])c3C([H])([H])[H])c([H])c([H])c2C1([H])[H]

$$$$
42:0:0
     RDKit          3D

 92100  0  0  1  0  0  0  0  0999 V2000
  -28.5280  -23.6330   21.0830 C   0  0  0  0  0  3  0  0  0  0  0  0
  -29.1560  -23.8430   19.8100 C   0  0  0  0  0  3  0  0  0  0  0  0
  -27.4060  -22.7450   21.0800 C   0  0  0  0  0  3  0  0  0  0  0  0
  -29.2320  -22.4690   19.2200 C   0  0  0  0  0  3  0  0  0  0  0  0
  -26.4880  -22.4600   22.2640 C   0  0  0  0  0  1  0  0  0  0  0  0
  -27.1130  -22.0090   19.9790 N   0  0  0  0  0  0  0  0  0  0  0  0
  -28.0360  -21.8650   19.0230 N   0  0  0  0  0  0  0  0  0  0  0  0
  -29.7710  -23.1340   23.3680 C   0  0  0  0  0  1  0  0  0  0  0  0
  -29.1670  -24.1720   22.3710 C   0  0  0  0  0  2  0  0  0  0  0  0
  -28.4820  -25.1370   18.9640 C   0  0  0  0  0  2  0  0  0  0  0  0
  -28.5550  -26.7040   19.2350 O   0  0  0  0  0  0  0  0  0  0  0  0
  -24.5630  -31.6200   23.0120 C   0  0  0  0  0  0  0  0  0  0  0  0
  -27.4140  -27.6190   19.2530 C   0  0  0  0  0  0  0  0  0  0  0  0
  -23.4160  -30.3090   21.2680 C   0  0  0  0  0  3  0  0  0  0  0  0
  -24.9240  -29.1430   19.5370 C   0  0  0  0  0  0  0  0  0  0  0  0
  -25.9020  -30.8990   20.9940 C   0  0  0  0  0  2  0  0  0  0  0  0
  -26.0880  -29.6120   20.1600 C   0  0  0  0  0  0  0  0  0  0  0  0
  -27.3260  -28.8710   19.9980 C   0  0  0  0  0  3  0  0  0  0  0  0
  -26.2130  -27.2860   18.5790 C   0  0  0  0  0  3  0  0  0  0  0  0
  -25.0040  -28.0000   18.7290 C   0  0  0  0  0  3  0  0  0  0  0  0
  -23.6060  -29.8650   19.7910 C   0  0  0  0  0  2  0  0  0  0  0  0
  -24.6500  -30.9620   21.8150 N   0  0  0  0  0  0  0  0  0  0  0  0
  -23.4930  -31.6970   23.6380 O   0  0  0  0  0  0  0  0  0  0  0  0
  -22.9330  -29.1060   22.1190 C   0  0  0  0  0  0  0  0  0  0  0  0
  -21.6570  -28.7070   21.9650 N   0  0  0  0  0  0  0  0  0  0  0  0
  -23.7110  -28.5380   22.8890 O   0  0  0  0  0  0  0  0  0  0  0  0
  -21.0710  -29.2270   21.3260 H   0  0  0  0  0  0  0  0  0  0  0  0
  -18.5990  -26.7820   22.2140 C   0  0  0  0  0  0  0  0  0  0  0  0
  -21.0280  -27.5670   22.6360 C   0  0  0  0  0  3  0  0  0  0  0  0
  -21.4600  -26.2300   21.9890 C   0  0  0  0  0  2  0  0  0  0  0  0
  -20.4970  -25.7490   20.9000 C   0  0  0  0  0  2  0  0  0  0  0  0
  -19.0900  -25.5510   21.4710 C   0  0  0  0  0  2  0  0  0  0  0  0
  -19.5070  -27.7350   22.7480 C   0  0  0  0  0  0  0  0  0  0  0  0
  -18.9910  -28.8750   23.4020 C   0  0  0  0  0  3  0  0  0  0  0  0
  -17.6030  -29.0690   23.5280 C   0  0  0  0  0  3  0  0  0  0  0  0
  -16.7100  -28.1160   23.0080 C   0  0  0  0  0  3  0  0  0  0  0  0
  -17.2090  -26.9740   22.3560 C   0  0  0  0  0  3  0  0  0  0  0  0
  -25.7980  -32.3310   23.6450 C   0  0  0  0  0  3  0  0  0  0  0  0
  -25.3850  -33.6880   24.0390 N   0  0  0  0  0  0  0  0  0  0  0  0
  -25.6500  -34.7980   23.3380 C   0  0  0  0  0  0  0  0  0  0  0  0
  -26.3320  -34.7940   22.3100 O   0  0  0  0  0  0  0  0  0  0  0  0
  -24.7810  -33.7600   24.8430 H   0  0  0  0  0  0  0  0  0  0  0  0
  -23.8070  -36.4880   23.0640 C   0  0  0  0  0  1  0  0  0  0  0  0
  -25.0710  -36.1260   23.8610 C   0  0  0  0  0  3  0  0  0  0  0  0
  -27.1360  -37.1240   24.7430 C   0  0  0  0  0  1  0  0  0  0  0  0
  -26.0300  -37.2510   23.7970 N   0  0  0  0  0  0  0  0  0  0  0  0
  -25.5640  -38.1380   23.9720 H   0  0  0  0  0  0  0  0  0  0  0  0
  -26.3890  -31.5550   24.8870 C   0  0  1  0  0  0  0  0  0  0  0  0
  -25.3300  -31.2040   25.9570 C   0  0  0  0  0  1  0  0  0  0  0  0
  -27.0650  -30.2360   24.4450 C   0  0  0  0  0  1  0  0  0  0  0  0
  -27.4910  -32.4070   25.5600 C   0  0  0  0  0  1  0  0  0  0  0  0
  -30.3250  -21.2570   19.4850 C   0  0  0  0  0  2  0  0  0  0  0  0
  -29.9250  -19.6330   19.6970 C   0  0  0  0  0  3  0  0  0  0  0  0
  -30.9980  -18.3630   19.8520 C   0  0  0  0  0  3  0  0  0  0  0  0
  -31.3000  -15.6590   19.8620 C   0  0  0  0  0  0  0  0  0  0  0  0
  -31.1640  -13.2450   19.1570 C   0  0  0  0  0  2  0  0  0  0  0  0
  -30.2100  -12.9910   17.9660 C   0  0  0  0  0  2  0  0  0  0  0  0
  -28.7490  -12.8600   18.4200 C   0  0  0  0  0  2  0  0  0  0  0  0
  -28.3540  -13.8920   19.5040 C   0  0  0  0  0  3  0  0  0  0  0  0
  -29.4200  -14.0700   20.6010 C   0  0  0  0  0  2  0  0  0  0  0  0
  -30.6840  -14.4170   19.9350 N   0  0  0  0  0  0  0  0  0  0  0  0
  -32.4840  -15.7000   19.4990 O   0  0  0  0  0  0  0  0  0  0  0  0
  -30.5670  -16.8590   19.9900 N   0  0  0  0  0  0  0  0  0  0  0  0
  -29.6050  -16.7320   20.2600 H   0  0  0  0  0  0  0  0  0  0  0  0
  -26.0380  -14.5450   20.3810 C   0  0  0  0  0  0  0  0  0  0  0  0
  -24.9510  -13.8170   20.7590 C   0  0  0  0  0  0  0  0  0  0  0  0
  -25.3380  -12.4450   20.6340 C   0  0  0  0  0  0  0  0  0  0  0  0
  -27.0250  -13.6290   20.0520 N   0  0  0  0  0  0  0  0  0  0  0  0
  -26.6170  -12.3550   20.2770 N   0  0  0  0  0  0  0  0  0  0  0  0
  -24.5390  -11.2200   20.7680 C   0  0  0  0  0  0  0  0  0  0  0  0
  -24.9040  -10.2170   21.6880 C   0  0  0  0  0  3  0  0  0  0  0  0
  -24.1110   -9.0610   21.8330 C   0  0  0  0  0  3  0  0  0  0  0  0
  -22.9430   -8.8990   21.0530 C   0  0  0  0  0  0  0  0  0  0  0  0
  -22.5980   -9.8910   20.1200 C   0  0  0  0  0  3  0  0  0  0  0  0
  -23.3890  -11.0430   19.9700 C   0  0  0  0  0  3  0  0  0  0  0  0
  -22.1350   -7.7910   21.1010 O   0  0  0  0  0  0  0  0  0  0  0  0
  -21.9430   -7.0840   22.2640 C   0  0  0  0  0  0  0  0  0  0  0  0
  -21.4030   -7.6910   23.4200 C   0  0  0  0  0  3  0  0  0  0  0  0
  -21.1650   -6.9160   24.5730 C   0  0  0  0  0  3  0  0  0  0  0  0
  -21.4490   -5.5360   24.5660 C   0  0  0  0  0  0  0  0  0  0  0  0
  -21.9750   -4.9340   23.4150 C   0  0  0  0  0  3  0  0  0  0  0  0
  -22.2210   -5.7020   22.2640 C   0  0  0  0  0  0  0  0  0  0  0  0
  -22.7080   -5.1080   21.1460 F   0  0  0  0  0  0  0  0  0  0  0  0
  -21.2130   -4.7950   25.6710 F   0  0  0  0  0  0  0  0  0  0  0  0
  -23.5940  -14.3570   21.1060 C   0  0  0  0  0  0  0  0  0  0  0  0
  -22.8670  -13.6590   21.9730 N   0  0  0  0  0  0  0  0  0  0  0  0
  -23.1970  -15.4400   20.6630 O   0  0  0  0  0  0  0  0  0  0  0  0
  -23.2100  -12.7890   22.3530 H   0  0  0  0  0  0  0  0  0  0  0  0
  -21.9540  -13.9890   22.2390 H   0  0  0  0  0  0  0  0  0  0  0  0
  -26.2710  -15.9120   20.2430 N   0  0  0  0  0  0  0  0  0  0  0  0
  -25.5600  -16.6210   20.3870 H   0  0  0  0  0  0  0  0  0  0  0  0
  -27.1280  -16.3010   19.8790 H   0  0  0  0  0  0  0  0  0  0  0  0
  1  9  1  0
  2 10  1  0
  2  1  1  0
  3  1  1  0
  3  5  1  0
  4 52  1  0
  4  2  1  0
  6  3  1  0
  7  4  1  0
  7  6  2  0
  9  8  1  0
 10 11  1  0
 11 13  1  0
 12 23  2  0
 13 18  1  0
 14 22  1  0
 14 24  1  0
 15 21  1  0
 15 17  1  0
 16 22  1  0
 17 16  1  0
 18 17  2  0
 19 20  1  0
 19 13  2  0
 20 15  2  0
 21 14  1  0
 22 12  1  0
 24 26  2  0
 25 24  1  0
 27 25  1  0
 28 37  2  0
 28 33  1  0
 29 25  1  0
 29 33  1  0
 30 29  1  0
 31 32  1  0
 31 30  1  0
 32 28  1  0
 33 34  2  0
 34 35  1  0
 36 35  2  0
 37 36  1  0
 38 12  1  0
 38 39  1  0
 38 48  1  0
 39 42  1  0
 40 44  1  0
 40 39  1  0
 41 40  2  0
 44 43  1  0
 46 44  1  0
 46 47  1  0
 46 45  1  0
 48 51  1  1
 48 49  1  0
 50 48  1  0
 52 53  1  0
 53 54  2  0
 54 63  1  0
 55 61  1  0
 55 63  1  0
 56 61  1  0
 57 58  1  0
 57 56  1  0
 59 58  1  0
 59 68  1  0
 59 60  1  0
 61 60  1  0
 62 55  2  0
 63 64  1  0
 65 66  2  0
 66 85  1  0
 67 66  1  0
 67 70  1  0
 68 69  1  0
 68 65  1  0
 69 67  2  0
 70 71  1  0
 71 72  2  0
 73 76  1  0
 73 72  1  0
 74 73  2  0
 75 74  1  0
 75 70  2  0
 76 77  1  0
 77 82  2  0
 77 78  1  0
 78 79  2  0
 80 79  1  0
 80 84  1  0
 81 80  2  0
 82 81  1  0
 83 82  1  0
 85 86  1  0
 86 89  1  0
 86 88  1  0
 87 85  2  0
 90 65  1  0
 90 91  1  0
 92 90  1  0
M  ISO  4  10 101  11 101  55 100  63 100
M  END
>  <TORSDO>  (43) 
F 21

>  <SCORE>  (43) 
-9.442

>  <name>  (43) 
42

>  <ligand_id>  (43) 
42

>  <original_smiles>  (43) 
[H]c1c([H])c([H])c2c(c1[H])C([H])([H])C([H])([H])C([H])([H])C2([H])N([H])C(=O)C1([H])N(C(=O)C([H])(N([H])C(=O)C([H])(N([H])C([H])([H])[H])C([H])([H])[H])C(C([H])([H])[H])(C([H])([H])[H])C([H])([H])[H])C([H])([H])c2c([H])c(OC([H])([H])c3c(C([H])([H])C([H])([H])C([H])([H])N([H])C(=O)N4C([H])([H])C([H])([H])C([H])([H])C([H])(n5nc(-c6c([H])c([H])c(Oc7c([H])c([H])c(F)c([H])c7F)c([H])c6[H])c(C(=O)N([H])[H])c5N([H])[H])C4([H])[H])nnc(C([H])([H])[H])c3C([H])([H])C([H])([H])[H])c([H])c([H])c2C1([H])[H]

>  <smiles>  (43) 
[H]c1c([H])c([H])c2c(c1[H])C([H])([H])C([H])([H])C([H])([H])C2([H])N([H])C(=O)C1([H])N(C(=O)C([H])(N([H])C(=O)C([H])(N([H])C([H])([H])[H])C([H])([H])[H])C(C([H])([H])[H])(C([H])([H])[H])C([H])([H])[H])C([H])([H])c2c([H])c(OC([H])([H])c3c(C([H])([H])C([H])([H])C([H])([H])N([H])C(=O)N4C([H])([H])C([H])([H])C([H])([H])C([H])(n5nc(-c6c([H])c([H])c(Oc7c([H])c([H])c(F)c([H])c7F)c([H])c6[H])c(C(=O)N([H])[H])c5N([H])[H])C4([H])[H])nnc(C([H])([H])[H])c3C([H])([H])C([H])([H])[H])c([H])c([H])c2C1([H])[H]

$$$$
43:0:0
     RDKit          3D

 95103  0  0  1  0  0  0  0  0999 V2000
  -30.0760  -20.7950   19.3930 C   0  0  0  0  0  3  0  0  0  0  0  0
  -30.3680  -22.4940   21.0790 C   0  0  0  0  0  3  0  0  0  0  0  0
  -30.2610  -22.1590   19.7160 C   0  0  0  0  0  0  0  0  0  0  0  0
  -29.9900  -19.8170   20.4180 C   0  0  0  0  0  0  0  0  0  0  0  0
  -30.3040  -21.4700   22.0550 C   0  0  0  0  0  0  0  0  0  0  0  0
  -30.1290  -20.1700   21.7130 N   0  0  0  0  0  0  0  0  0  0  0  0
  -29.5590  -20.8650   24.4050 C   0  0  0  0  0  1  0  0  0  0  0  0
  -30.2170  -23.2160   23.9280 C   0  0  0  0  0  1  0  0  0  0  0  0
  -31.9740  -21.4210   23.9310 C   0  0  0  0  0  1  0  0  0  0  0  0
  -30.5110  -21.7420   23.5580 C   0  0  2  0  0  0  0  0  0  0  0  0
  -29.3530  -18.0280   18.6860 C   0  0  0  0  0  1  0  0  0  0  0  0
  -29.6030  -18.3310   20.1770 C   0  0  0  0  0  3  0  0  0  0  0  0
  -30.5790  -17.2820   20.8210 C   0  0  0  0  0  2  0  0  0  0  0  0
  -30.9170  -14.7840   20.3270 C   0  0  0  0  0  0  0  0  0  0  0  0
  -30.5790  -12.6120   19.2050 C   0  0  0  0  0  2  0  0  0  0  0  0
  -29.6410  -12.8350   17.9990 C   0  0  0  0  0  2  0  0  0  0  0  0
  -28.1610  -12.7720   18.4250 C   0  0  0  0  0  2  0  0  0  0  0  0
  -27.8570  -13.6240   19.6840 C   0  0  0  0  0  3  0  0  0  0  0  0
  -28.8970  -13.3550   20.7940 C   0  0  0  0  0  2  0  0  0  0  0  0
  -30.2280  -13.6150   20.2230 N   0  0  0  0  0  0  0  0  0  0  0  0
  -32.0900  -14.9010   19.9650 O   0  0  0  0  0  0  0  0  0  0  0  0
  -30.1710  -15.8610   20.6690 N   0  0  0  0  0  0  0  0  0  0  0  0
  -29.2060  -15.6600   20.8850 H   0  0  0  0  0  0  0  0  0  0  0  0
  -25.5000  -14.3610   20.4050 C   0  0  0  0  0  0  0  0  0  0  0  0
  -24.3830  -13.6440   20.7460 C   0  0  0  0  0  0  0  0  0  0  0  0
  -24.7610  -12.2690   20.6770 C   0  0  0  0  0  0  0  0  0  0  0  0
  -26.4890  -13.4210   20.1540 N   0  0  0  0  0  0  0  0  0  0  0  0
  -26.0480  -12.1580   20.3750 N   0  0  0  0  0  0  0  0  0  0  0  0
  -23.9560  -11.0490   20.8230 C   0  0  0  0  0  0  0  0  0  0  0  0
  -24.3310  -10.0200   21.7150 C   0  0  0  0  0  3  0  0  0  0  0  0
  -23.5310   -8.8650   21.8530 C   0  0  0  0  0  3  0  0  0  0  0  0
  -22.3420   -8.7320   21.0970 C   0  0  0  0  0  0  0  0  0  0  0  0
  -21.9860   -9.7470   20.1940 C   0  0  0  0  0  3  0  0  0  0  0  0
  -22.7850  -10.8940   20.0540 C   0  0  0  0  0  3  0  0  0  0  0  0
  -21.5160   -7.6330   21.1470 O   0  0  0  0  0  0  0  0  0  0  0  0
  -21.4170   -6.8580   22.2740 C   0  0  0  0  0  0  0  0  0  0  0  0
  -21.0460   -7.4040   23.5230 C   0  0  0  0  0  3  0  0  0  0  0  0
  -20.8880   -6.5610   24.6410 C   0  0  0  0  0  3  0  0  0  0  0  0
  -21.0890   -5.1730   24.5120 C   0  0  0  0  0  0  0  0  0  0  0  0
  -21.4540   -4.6280   23.2680 C   0  0  0  0  0  3  0  0  0  0  0  0
  -21.6130   -5.4680   22.1520 C   0  0  0  0  0  0  0  0  0  0  0  0
  -21.9430   -4.9330   20.9510 F   0  0  0  0  0  0  0  0  0  0  0  0
  -20.9300   -4.3620   25.5830 F   0  0  0  0  0  0  0  0  0  0  0  0
  -23.0180  -14.1990   21.0240 C   0  0  0  0  0  0  0  0  0  0  0  0
  -22.2510  -13.5310   21.8810 N   0  0  0  0  0  0  0  0  0  0  0  0
  -22.6400  -15.2550   20.5200 O   0  0  0  0  0  0  0  0  0  0  0  0
  -22.5710  -12.6730   22.3060 H   0  0  0  0  0  0  0  0  0  0  0  0
  -21.3340  -13.8830   22.1150 H   0  0  0  0  0  0  0  0  0  0  0  0
  -25.7510  -15.7220   20.2660 N   0  0  0  0  0  0  0  0  0  0  0  0
  -25.0230  -16.4180   20.3790 H   0  0  0  0  0  0  0  0  0  0  0  0
  -26.6170  -16.1110   19.9150 H   0  0  0  0  0  0  0  0  0  0  0  0
  -30.3120  -23.2080   18.5910 C   0  0  0  0  0  2  0  0  0  0  0  0
  -30.3420  -24.7240   18.9540 C   0  0  0  0  0  2  0  0  0  0  0  0
  -28.9640  -25.4280   18.8700 C   0  0  0  0  0  2  0  0  0  0  0  0
  -29.0040  -26.7780   19.3740 O   0  0  0  0  0  0  0  0  0  0  0  0
  -25.1230  -31.0730   23.5330 C   0  0  0  0  0  0  0  0  0  0  0  0
  -27.8160  -27.4830   19.4970 C   0  0  0  0  0  0  0  0  0  0  0  0
  -23.9320  -30.1000   21.5950 C   0  0  0  0  0  3  0  0  0  0  0  0
  -25.4050  -28.9470   19.8540 C   0  0  0  0  0  0  0  0  0  0  0  0
  -26.4620  -30.4840   21.5180 C   0  0  0  0  0  2  0  0  0  0  0  0
  -26.5560  -29.3070   20.5660 C   0  0  0  0  0  0  0  0  0  0  0  0
  -27.7550  -28.5770   20.3960 C   0  0  0  0  0  3  0  0  0  0  0  0
  -26.6470  -27.1550   18.7710 C   0  0  0  0  0  3  0  0  0  0  0  0
  -25.4480  -27.8690   18.9520 C   0  0  0  0  0  3  0  0  0  0  0  0
  -24.1560  -29.7620   20.0950 C   0  0  0  0  0  2  0  0  0  0  0  0
  -25.1890  -30.5540   22.2740 N   0  0  0  0  0  0  0  0  0  0  0  0
  -24.0380  -31.2140   24.1140 O   0  0  0  0  0  0  0  0  0  0  0  0
  -23.2750  -28.8820   22.2790 C   0  0  0  0  0  0  0  0  0  0  0  0
  -21.9730  -28.6810   22.0190 N   0  0  0  0  0  0  0  0  0  0  0  0
  -23.9360  -28.1290   22.9990 O   0  0  0  0  0  0  0  0  0  0  0  0
  -21.5000  -29.3460   21.4230 H   0  0  0  0  0  0  0  0  0  0  0  0
  -18.6780  -27.1990   21.9000 C   0  0  0  0  0  0  0  0  0  0  0  0
  -21.1590  -27.5740   22.5210 C   0  0  0  0  0  3  0  0  0  0  0  0
  -21.4460  -26.2720   21.7400 C   0  0  0  0  0  2  0  0  0  0  0  0
  -20.4950  -26.0550   20.5580 C   0  0  0  0  0  2  0  0  0  0  0  0
  -19.0430  -25.9970   21.0440 C   0  0  0  0  0  2  0  0  0  0  0  0
  -19.6760  -27.9470   22.5810 C   0  0  0  0  0  0  0  0  0  0  0  0
  -19.2870  -29.0750   23.3380 C   0  0  0  0  0  3  0  0  0  0  0  0
  -17.9360  -29.4580   23.4210 C   0  0  0  0  0  3  0  0  0  0  0  0
  -16.9510  -28.7010   22.7620 C   0  0  0  0  0  3  0  0  0  0  0  0
  -17.3230  -27.5740   22.0070 C   0  0  0  0  0  3  0  0  0  0  0  0
  -26.4050  -31.5360   24.2940 C   0  0  0  0  0  3  0  0  0  0  0  0
  -26.1220  -32.8530   24.8790 N   0  0  0  0  0  0  0  0  0  0  0  0
  -26.5460  -34.0160   24.3670 C   0  0  0  0  0  0  0  0  0  0  0  0
  -27.2900  -34.0860   23.3840 O   0  0  0  0  0  0  0  0  0  0  0  0
  -25.4750  -32.8770   25.6540 H   0  0  0  0  0  0  0  0  0  0  0  0
  -24.9510  -35.9540   24.2310 C   0  0  0  0  0  1  0  0  0  0  0  0
  -26.0740  -35.3080   25.0580 C   0  0  0  0  0  3  0  0  0  0  0  0
  -28.1390  -35.8570   26.2670 C   0  0  0  0  0  1  0  0  0  0  0  0
  -27.1570  -36.2900   25.2750 N   0  0  0  0  0  0  0  0  0  0  0  0
  -26.7780  -37.1850   25.5730 H   0  0  0  0  0  0  0  0  0  0  0  0
  -26.8720  -30.5180   25.4080 C   0  0  1  0  0  0  0  0  0  0  0  0
  -25.7450  -30.1070   26.3850 C   0  0  0  0  0  1  0  0  0  0  0  0
  -27.4350  -29.2230   24.7750 C   0  0  0  0  0  1  0  0  0  0  0  0
  -28.0270  -31.1390   26.2300 C   0  0  0  0  0  1  0  0  0  0  0  0
  1  3  2  0
  1  4  1  0
  2  5  2  0
  3  2  1  0
  4  6  2  0
  5 10  1  0
  6  5  1  0
 10  8  1  6
 10  9  1  0
 10  7  1  0
 12 11  1  0
 12  4  1  0
 12 13  1  0
 14 22  1  0
 15 20  1  0
 16 17  1  0
 16 15  1  0
 18 17  1  0
 18 27  1  0
 18 19  1  0
 20 14  1  0
 20 19  1  0
 21 14  2  0
 22 13  1  0
 22 23  1  0
 24 25  2  0
 25 44  1  0
 26 25  1  0
 26 29  1  0
 27 28  1  0
 27 24  1  0
 28 26  2  0
 29 30  1  0
 30 31  2  0
 32 35  1  0
 32 31  1  0
 33 32  2  0
 34 33  1  0
 34 29  2  0
 35 36  1  0
 36 37  1  0
 37 38  2  0
 39 38  1  0
 39 43  1  0
 40 39  2  0
 41 36  2  0
 41 40  1  0
 42 41  1  0
 44 45  1  0
 45 48  1  0
 45 47  1  0
 46 44  2  0
 49 50  1  0
 49 24  1  0
 51 49  1  0
 52 53  1  0
 52  3  1  0
 54 53  1  0
 54 55  1  0
 55 57  1  0
 56 67  2  0
 57 62  1  0
 58 66  1  0
 58 68  1  0
 59 65  1  0
 59 61  1  0
 60 66  1  0
 61 60  1  0
 62 61  2  0
 63 64  1  0
 63 57  2  0
 64 59  2  0
 65 58  1  0
 66 56  1  0
 68 70  2  0
 69 68  1  0
 71 69  1  0
 72 81  2  0
 72 77  1  0
 73 69  1  0
 73 77  1  0
 74 73  1  0
 75 76  1  0
 75 74  1  0
 76 72  1  0
 77 78  2  0
 78 79  1  0
 80 79  2  0
 81 80  1  0
 82 56  1  0
 82 83  1  0
 82 92  1  0
 83 86  1  0
 84 83  1  0
 84 88  1  0
 85 84  2  0
 88 87  1  0
 88 90  1  0
 90 91  1  0
 90 89  1  0
 92 95  1  1
 92 93  1  0
 94 92  1  0
M  ISO  4  14 100  22 100  54 101  55 101
M  END
>  <TORSDO>  (44) 
F 22

>  <SCORE>  (44) 
-9.943

>  <name>  (44) 
43

>  <ligand_id>  (44) 
43

>  <original_smiles>  (44) 
[H]c1c([H])c([H])c2c(c1[H])C([H])([H])C([H])([H])C([H])([H])C2([H])N([H])C(=O)C1([H])N(C(=O)C([H])(N([H])C(=O)C([H])(N([H])C([H])([H])[H])C([H])([H])[H])C(C([H])([H])[H])(C([H])([H])[H])C([H])([H])[H])C([H])([H])c2c([H])c(OC([H])([H])C([H])([H])C([H])([H])c3c([H])c(C([H])(C([H])([H])[H])C([H])([H])N([H])C(=O)N4C([H])([H])C([H])([H])C([H])([H])C([H])(n5nc(-c6c([H])c([H])c(Oc7c([H])c([H])c(F)c([H])c7F)c([H])c6[H])c(C(=O)N([H])[H])c5N([H])[H])C4([H])[H])nc(C(C([H])([H])[H])(C([H])([H])[H])C([H])([H])[H])c3[H])c([H])c([H])c2C1([H])[H]

>  <smiles>  (44) 
[H]c1c([H])c([H])c2c(c1[H])C([H])([H])C([H])([H])C([H])([H])C2([H])N([H])C(=O)C1([H])N(C(=O)C([H])(N([H])C(=O)C([H])(N([H])C([H])([H])[H])C([H])([H])[H])C(C([H])([H])[H])(C([H])([H])[H])C([H])([H])[H])C([H])([H])c2c([H])c(OC([H])([H])C([H])([H])C([H])([H])c3c([H])c(C([H])(C([H])([H])[H])C([H])([H])N([H])C(=O)N4C([H])([H])C([H])([H])C([H])([H])C([H])(n5nc(-c6c([H])c([H])c(Oc7c([H])c([H])c(F)c([H])c7F)c([H])c6[H])c(C(=O)N([H])[H])c5N([H])[H])C4([H])[H])nc(C(C([H])([H])[H])(C([H])([H])[H])C([H])([H])[H])c3[H])c([H])c([H])c2C1([H])[H]

$$$$
44:0:0
     RDKit          3D

 90 98  0  0  1  0  0  0  0  0999 V2000
  -31.0970  -21.3690   21.4570 C   0  0  0  0  0  3  0  0  0  0  0  0
  -29.8270  -21.8090   21.1550 C   0  0  0  0  0  0  0  0  0  0  0  0
  -30.2900  -19.4280   20.5270 C   0  0  0  0  0  0  0  0  0  0  0  0
  -31.3470  -20.0340   21.0850 N   0  0  0  0  0  0  0  0  0  0  0  0
  -28.9400  -20.5550   20.3100 S   0  0  0  0  0  0  0  0  0  0  0  0
  -31.0700  -17.7430   18.8070 C   0  0  0  0  0  1  0  0  0  0  0  0
  -30.2370  -17.9700   20.0830 C   0  0  0  0  0  3  0  0  0  0  0  0
  -30.5530  -16.9330   21.2100 C   0  0  0  0  0  2  0  0  0  0  0  0
  -30.6860  -14.5040   20.4820 C   0  0  0  0  0  0  0  0  0  0  0  0
  -30.3400  -12.3370   19.3550 C   0  0  0  0  0  2  0  0  0  0  0  0
  -29.4060  -12.5480   18.1470 C   0  0  0  0  0  2  0  0  0  0  0  0
  -27.9310  -12.4000   18.5760 C   0  0  0  0  0  2  0  0  0  0  0  0
  -27.5870  -13.2550   19.8300 C   0  0  0  0  0  3  0  0  0  0  0  0
  -28.6460  -13.0660   20.9400 C   0  0  0  0  0  2  0  0  0  0  0  0
  -29.9760  -13.3460   20.3630 N   0  0  0  0  0  0  0  0  0  0  0  0
  -31.8230  -14.6440   20.0280 O   0  0  0  0  0  0  0  0  0  0  0  0
  -30.0310  -15.5600   20.9980 N   0  0  0  0  0  0  0  0  0  0  0  0
  -29.0930  -15.3800   21.3230 H   0  0  0  0  0  0  0  0  0  0  0  0
  -25.1920  -13.8630   20.5640 C   0  0  0  0  0  0  0  0  0  0  0  0
  -24.1230  -13.0950   20.9350 C   0  0  0  0  0  0  0  0  0  0  0  0
  -24.5810  -11.7410   20.9000 C   0  0  0  0  0  0  0  0  0  0  0  0
  -26.2340  -12.9810   20.3190 N   0  0  0  0  0  0  0  0  0  0  0  0
  -25.8680  -11.7010   20.5820 N   0  0  0  0  0  0  0  0  0  0  0  0
  -23.8530  -10.4800   21.0940 C   0  0  0  0  0  0  0  0  0  0  0  0
  -24.2990   -9.4990   22.0070 C   0  0  0  0  0  3  0  0  0  0  0  0
  -23.5700   -8.3040   22.1890 C   0  0  0  0  0  3  0  0  0  0  0  0
  -22.3800   -8.0800   21.4560 C   0  0  0  0  0  0  0  0  0  0  0  0
  -21.9530   -9.0490   20.5320 C   0  0  0  0  0  3  0  0  0  0  0  0
  -22.6840  -10.2370   20.3490 C   0  0  0  0  0  3  0  0  0  0  0  0
  -21.6240   -6.9360   21.5410 O   0  0  0  0  0  0  0  0  0  0  0  0
  -21.6090   -6.1690   22.6760 C   0  0  0  0  0  0  0  0  0  0  0  0
  -21.2520   -6.7020   23.9350 C   0  0  0  0  0  3  0  0  0  0  0  0
  -21.1870   -5.8610   25.0630 C   0  0  0  0  0  3  0  0  0  0  0  0
  -21.4660   -4.4860   24.9350 C   0  0  0  0  0  0  0  0  0  0  0  0
  -21.8210   -3.9540   23.6820 C   0  0  0  0  0  3  0  0  0  0  0  0
  -21.8910   -4.7940   22.5580 C   0  0  0  0  0  0  0  0  0  0  0  0
  -22.2090   -4.2700   21.3480 F   0  0  0  0  0  0  0  0  0  0  0  0
  -21.3970   -3.6760   26.0170 F   0  0  0  0  0  0  0  0  0  0  0  0
  -22.7270  -13.5780   21.2070 C   0  0  0  0  0  0  0  0  0  0  0  0
  -21.9910  -12.8890   22.0740 N   0  0  0  0  0  0  0  0  0  0  0  0
  -22.2930  -14.6010   20.6840 O   0  0  0  0  0  0  0  0  0  0  0  0
  -22.3550  -12.0680   22.5330 H   0  0  0  0  0  0  0  0  0  0  0  0
  -21.0540  -13.2000   22.2870 H   0  0  0  0  0  0  0  0  0  0  0  0
  -25.3540  -15.2370   20.3960 N   0  0  0  0  0  0  0  0  0  0  0  0
  -24.5780  -15.8780   20.5240 H   0  0  0  0  0  0  0  0  0  0  0  0
  -26.1970  -15.6960   20.0730 H   0  0  0  0  0  0  0  0  0  0  0  0
  -29.1480  -23.1100   21.5520 C   0  0  0  0  0  2  0  0  0  0  0  0
  -29.2620  -24.3330   20.5990 C   0  0  0  0  0  2  0  0  0  0  0  0
  -28.2580  -25.4580   20.9770 C   0  0  0  0  0  2  0  0  0  0  0  0
  -28.3860  -26.6760   20.2130 O   0  0  0  0  0  0  0  0  0  0  0  0
  -24.5830  -31.8950   23.2410 C   0  0  0  0  0  0  0  0  0  0  0  0
  -27.2380  -27.4420   20.1890 C   0  0  0  0  0  0  0  0  0  0  0  0
  -23.3800  -30.4910   21.5970 C   0  0  0  0  0  3  0  0  0  0  0  0
  -24.8420  -28.9500   20.1750 C   0  0  0  0  0  0  0  0  0  0  0  0
  -25.9050  -30.8510   21.4050 C   0  0  0  0  0  2  0  0  0  0  0  0
  -25.9940  -29.4750   20.7700 C   0  0  0  0  0  0  0  0  0  0  0  0
  -27.2000  -28.7280   20.7740 C   0  0  0  0  0  3  0  0  0  0  0  0
  -26.0720  -26.9400   19.5700 C   0  0  0  0  0  3  0  0  0  0  0  0
  -24.8780  -27.6800   19.5670 C   0  0  0  0  0  3  0  0  0  0  0  0
  -23.5970  -29.8080   20.2180 C   0  0  0  0  0  2  0  0  0  0  0  0
  -24.6390  -31.0960   22.1400 N   0  0  0  0  0  0  0  0  0  0  0  0
  -23.5010  -32.1660   23.7820 O   0  0  0  0  0  0  0  0  0  0  0  0
  -22.7330  -29.4680   22.5610 C   0  0  0  0  0  0  0  0  0  0  0  0
  -21.4100  -29.2830   22.4330 N   0  0  0  0  0  0  0  0  0  0  0  0
  -23.4190  -28.8500   23.3810 O   0  0  0  0  0  0  0  0  0  0  0  0
  -20.9140  -29.8390   21.7510 H   0  0  0  0  0  0  0  0  0  0  0  0
  -18.0430  -28.0630   22.9240 C   0  0  0  0  0  0  0  0  0  0  0  0
  -20.5960  -28.3440   23.2050 C   0  0  0  0  0  3  0  0  0  0  0  0
  -20.7110  -26.9090   22.6410 C   0  0  0  0  0  2  0  0  0  0  0  0
  -19.6190  -26.5690   21.6220 C   0  0  0  0  0  2  0  0  0  0  0  0
  -18.2320  -26.7100   22.2570 C   0  0  0  0  0  2  0  0  0  0  0  0
  -19.1530  -28.8370   23.3540 C   0  0  0  0  0  0  0  0  0  0  0  0
  -18.9230  -30.1030   23.9310 C   0  0  0  0  0  3  0  0  0  0  0  0
  -17.6140  -30.5980   24.0880 C   0  0  0  0  0  3  0  0  0  0  0  0
  -16.5170  -29.8220   23.6700 C   0  0  0  0  0  3  0  0  0  0  0  0
  -16.7330  -28.5590   23.0940 C   0  0  0  0  0  3  0  0  0  0  0  0
  -25.8720  -32.5310   23.8540 C   0  0  0  0  0  3  0  0  0  0  0  0
  -25.5640  -33.9270   24.1860 N   0  0  0  0  0  0  0  0  0  0  0  0
  -25.8920  -34.9810   23.4260 C   0  0  0  0  0  0  0  0  0  0  0  0
  -26.5590  -34.8780   22.3900 O   0  0  0  0  0  0  0  0  0  0  0  0
  -24.9830  -34.0790   24.9950 H   0  0  0  0  0  0  0  0  0  0  0  0
  -24.1600  -36.7670   23.0630 C   0  0  0  0  0  1  0  0  0  0  0  0
  -25.4010  -36.3680   23.8800 C   0  0  0  0  0  3  0  0  0  0  0  0
  -27.5380  -37.2530   24.7070 C   0  0  0  0  0  1  0  0  0  0  0  0
  -26.4310  -37.4250   23.7700 N   0  0  0  0  0  0  0  0  0  0  0  0
  -26.0220  -38.3420   23.9210 H   0  0  0  0  0  0  0  0  0  0  0  0
  -26.3990  -31.7580   25.1250 C   0  0  1  0  0  0  0  0  0  0  0  0
  -25.3200  -31.5180   26.2060 C   0  0  0  0  0  1  0  0  0  0  0  0
  -26.9810  -30.3800   24.7250 C   0  0  0  0  0  1  0  0  0  0  0  0
  -27.5480  -32.5560   25.7820 C   0  0  0  0  0  1  0  0  0  0  0  0
  2  1  2  0
  2 47  1  0
  3  4  2  0
  4  1  1  0
  5  3  1  0
  5  2  1  0
  7  6  1  0
  7  3  1  0
  7  8  1  0
  9 17  1  0
 10 15  1  0
 11 12  1  0
 11 10  1  0
 13 12  1  0
 13 22  1  0
 13 14  1  0
 15  9  1  0
 15 14  1  0
 16  9  2  0
 17  8  1  0
 17 18  1  0
 19 20  2  0
 20 39  1  0
 21 20  1  0
 21 24  1  0
 22 19  1  0
 22 23  1  0
 23 21  2  0
 24 25  1  0
 25 26  2  0
 27 30  1  0
 27 26  1  0
 28 27  2  0
 29 28  1  0
 29 24  2  0
 30 31  1  0
 31 32  1  0
 32 33  2  0
 34 33  1  0
 34 38  1  0
 35 34  2  0
 36 31  2  0
 36 35  1  0
 37 36  1  0
 39 40  1  0
 40 43  1  0
 40 42  1  0
 41 39  2  0
 44 45  1  0
 44 19  1  0
 46 44  1  0
 48 49  1  0
 48 47  1  0
 50 49  1  0
 51 62  2  0
 52 50  1  0
 52 57  1  0
 53 61  1  0
 53 63  1  0
 54 60  1  0
 54 56  1  0
 55 61  1  0
 56 57  2  0
 56 55  1  0
 58 52  2  0
 59 58  1  0
 59 54  2  0
 60 53  1  0
 61 51  1  0
 63 65  2  0
 64 63  1  0
 66 64  1  0
 67 76  2  0
 67 72  1  0
 68 64  1  0
 68 72  1  0
 69 68  1  0
 70 71  1  0
 70 69  1  0
 71 67  1  0
 72 73  2  0
 73 74  1  0
 75 74  2  0
 76 75  1  0
 77 51  1  0
 77 78  1  0
 77 87  1  0
 78 81  1  0
 79 83  1  0
 79 78  1  0
 80 79  2  0
 83 82  1  0
 85 83  1  0
 85 86  1  0
 85 84  1  0
 87 90  1  1
 87 88  1  0
 89 87  1  0
M  ISO  4   9 100  17 100  49 101  50 101
M  END
>  <TORSDO>  (45) 
F 21

>  <SCORE>  (45) 
-13.627

>  <name>  (45) 
44

>  <ligand_id>  (45) 
44

>  <original_smiles>  (45) 
[H]c1nc(C([H])(C([H])([H])[H])C([H])([H])N([H])C(=O)N2C([H])([H])C([H])([H])C([H])([H])C([H])(n3nc(-c4c([H])c([H])c(Oc5c([H])c([H])c(F)c([H])c5F)c([H])c4[H])c(C(=O)N([H])[H])c3N([H])[H])C2([H])[H])sc1C([H])([H])C([H])([H])C([H])([H])Oc1c([H])c([H])c2c(c1[H])C([H])([H])N(C(=O)C([H])(N([H])C(=O)C([H])(N([H])C([H])([H])[H])C([H])([H])[H])C(C([H])([H])[H])(C([H])([H])[H])C([H])([H])[H])C([H])(C(=O)N([H])C1([H])c3c([H])c([H])c([H])c([H])c3C([H])([H])C([H])([H])C1([H])[H])C2([H])[H]

>  <smiles>  (45) 
[H]c1nc(C([H])(C([H])([H])[H])C([H])([H])N([H])C(=O)N2C([H])([H])C([H])([H])C([H])([H])C([H])(n3nc(-c4c([H])c([H])c(Oc5c([H])c([H])c(F)c([H])c5F)c([H])c4[H])c(C(=O)N([H])[H])c3N([H])[H])C2([H])[H])sc1C([H])([H])C([H])([H])C([H])([H])Oc1c([H])c([H])c2c(c1[H])C([H])([H])N(C(=O)C([H])(N([H])C(=O)C([H])(N([H])C([H])([H])[H])C([H])([H])[H])C(C([H])([H])[H])(C([H])([H])[H])C([H])([H])[H])C([H])(C(=O)N([H])C1([H])c3c([H])c([H])c([H])c([H])c3C([H])([H])C([H])([H])C1([H])[H])C2([H])[H]

$$$$
45:0:0
     RDKit          3D

 93101  0  0  1  0  0  0  0  0999 V2000
  -28.9910  -22.3000   18.2430 C   0  0  0  0  0  3  0  0  0  0  0  0
  -28.6640  -20.9580   18.0120 C   0  0  0  0  0  0  0  0  0  0  0  0
  -29.8000  -22.5760   19.3520 C   0  0  0  0  0  0  0  0  0  0  0  0
  -29.8670  -20.3250   19.8550 C   0  0  0  0  0  0  0  0  0  0  0  0
  -27.8010  -20.5390   16.8420 C   0  0  0  0  0  1  0  0  0  0  0  0
  -29.1270  -19.9770   18.8060 N   0  0  0  0  0  0  0  0  0  0  0  0
  -30.2060  -21.5770   20.1700 N   0  0  0  0  0  0  0  0  0  0  0  0
  -31.8330  -24.0130   19.7850 C   0  0  0  0  0  1  0  0  0  0  0  0
  -30.2980  -23.9990   19.6500 C   0  0  0  0  0  3  0  0  0  0  0  0
  -29.6110  -24.6430   20.8760 C   0  0  0  0  0  2  0  0  0  0  0  0
  -28.2540  -25.3140   20.5830 C   0  0  0  0  0  2  0  0  0  0  0  0
  -28.4110  -26.6880   20.1900 O   0  0  0  0  0  0  0  0  0  0  0  0
  -24.5930  -31.8680   23.2370 C   0  0  0  0  0  0  0  0  0  0  0  0
  -27.2450  -27.4250   20.1720 C   0  0  0  0  0  0  0  0  0  0  0  0
  -23.3900  -30.4660   21.5940 C   0  0  0  0  0  3  0  0  0  0  0  0
  -24.8490  -28.9260   20.1760 C   0  0  0  0  0  0  0  0  0  0  0  0
  -25.9170  -30.8280   21.3990 C   0  0  0  0  0  2  0  0  0  0  0  0
  -26.0060  -29.4570   20.7590 C   0  0  0  0  0  0  0  0  0  0  0  0
  -27.2100  -28.7160   20.7460 C   0  0  0  0  0  3  0  0  0  0  0  0
  -26.0670  -26.9080   19.5850 C   0  0  0  0  0  3  0  0  0  0  0  0
  -24.8730  -27.6520   19.5860 C   0  0  0  0  0  3  0  0  0  0  0  0
  -23.6040  -29.7820   20.2170 C   0  0  0  0  0  2  0  0  0  0  0  0
  -24.6510  -31.0680   22.1360 N   0  0  0  0  0  0  0  0  0  0  0  0
  -23.5110  -32.1410   23.7760 O   0  0  0  0  0  0  0  0  0  0  0  0
  -22.7380  -29.4460   22.5530 C   0  0  0  0  0  0  0  0  0  0  0  0
  -21.4120  -29.2660   22.4260 N   0  0  0  0  0  0  0  0  0  0  0  0
  -23.4190  -28.8180   23.3690 O   0  0  0  0  0  0  0  0  0  0  0  0
  -20.9220  -29.8250   21.7400 H   0  0  0  0  0  0  0  0  0  0  0  0
  -18.0340  -28.0810   22.9280 C   0  0  0  0  0  0  0  0  0  0  0  0
  -20.5940  -28.3290   23.1960 C   0  0  0  0  0  3  0  0  0  0  0  0
  -20.6890  -26.8980   22.6180 C   0  0  0  0  0  2  0  0  0  0  0  0
  -19.5840  -26.5800   21.6060 C   0  0  0  0  0  2  0  0  0  0  0  0
  -18.2050  -26.7320   22.2500 C   0  0  0  0  0  2  0  0  0  0  0  0
  -19.1570  -28.8370   23.3590 C   0  0  0  0  0  0  0  0  0  0  0  0
  -18.9440  -30.1010   23.9520 C   0  0  0  0  0  3  0  0  0  0  0  0
  -17.6410  -30.6090   24.1180 C   0  0  0  0  0  3  0  0  0  0  0  0
  -16.5340  -29.8500   23.7020 C   0  0  0  0  0  3  0  0  0  0  0  0
  -16.7310  -28.5870   23.1140 C   0  0  0  0  0  3  0  0  0  0  0  0
  -25.8780  -32.4990   23.8590 C   0  0  0  0  0  3  0  0  0  0  0  0
  -25.5680  -33.8980   24.1840 N   0  0  0  0  0  0  0  0  0  0  0  0
  -25.9080  -34.9470   23.4230 C   0  0  0  0  0  0  0  0  0  0  0  0
  -26.5860  -34.8390   22.3980 O   0  0  0  0  0  0  0  0  0  0  0  0
  -24.9650  -34.0550   24.9770 H   0  0  0  0  0  0  0  0  0  0  0  0
  -24.1900  -36.7420   23.0460 C   0  0  0  0  0  1  0  0  0  0  0  0
  -25.4200  -36.3370   23.8740 C   0  0  0  0  0  3  0  0  0  0  0  0
  -27.5470  -37.2150   24.7310 C   0  0  0  0  0  1  0  0  0  0  0  0
  -26.4570  -37.3870   23.7740 N   0  0  0  0  0  0  0  0  0  0  0  0
  -26.0510  -38.3080   23.9160 H   0  0  0  0  0  0  0  0  0  0  0  0
  -26.3930  -31.7310   25.1380 C   0  0  1  0  0  0  0  0  0  0  0  0
  -25.2970  -31.4950   26.2030 C   0  0  0  0  0  1  0  0  0  0  0  0
  -26.9750  -30.3520   24.7490 C   0  0  0  0  0  1  0  0  0  0  0  0
  -27.5430  -32.5250   25.8000 C   0  0  0  0  0  1  0  0  0  0  0  0
  -30.5380  -19.2010   20.6450 C   0  0  0  0  0  2  0  0  0  0  0  0
  -29.8710  -17.8030   20.5400 C   0  0  0  0  0  2  0  0  0  0  0  0
  -30.5280  -16.7510   21.4630 C   0  0  0  0  0  2  0  0  0  0  0  0
  -30.7100  -14.4180   20.5870 C   0  0  0  0  0  0  0  0  0  0  0  0
  -30.4010  -12.3020   19.3620 C   0  0  0  0  0  2  0  0  0  0  0  0
  -29.4730  -12.5630   18.1610 C   0  0  0  0  0  2  0  0  0  0  0  0
  -27.9910  -12.4240   18.5720 C   0  0  0  0  0  2  0  0  0  0  0  0
  -27.6580  -13.2030   19.8730 C   0  0  0  0  0  3  0  0  0  0  0  0
  -28.7060  -12.9320   20.9740 C   0  0  0  0  0  2  0  0  0  0  0  0
  -30.0330  -13.2520   20.4200 N   0  0  0  0  0  0  0  0  0  0  0  0
  -31.8220  -14.6290   20.0950 O   0  0  0  0  0  0  0  0  0  0  0  0
  -30.0400  -15.3860   21.2270 N   0  0  0  0  0  0  0  0  0  0  0  0
  -29.1140  -15.1550   21.5600 H   0  0  0  0  0  0  0  0  0  0  0  0
  -25.2450  -13.7900   20.5380 C   0  0  0  0  0  0  0  0  0  0  0  0
  -24.1800  -13.0080   20.8960 C   0  0  0  0  0  0  0  0  0  0  0  0
  -24.6560  -11.6610   20.8810 C   0  0  0  0  0  0  0  0  0  0  0  0
  -26.3030  -12.9180   20.3320 N   0  0  0  0  0  0  0  0  0  0  0  0
  -25.9500  -11.6330   20.5910 N   0  0  0  0  0  0  0  0  0  0  0  0
  -23.9410  -10.3930   21.0680 C   0  0  0  0  0  0  0  0  0  0  0  0
  -24.3800   -9.4350   22.0090 C   0  0  0  0  0  3  0  0  0  0  0  0
  -23.6710   -8.2280   22.1860 C   0  0  0  0  0  3  0  0  0  0  0  0
  -22.5060   -7.9730   21.4240 C   0  0  0  0  0  0  0  0  0  0  0  0
  -22.0890   -8.9180   20.4670 C   0  0  0  0  0  3  0  0  0  0  0  0
  -22.8000  -10.1160   20.2890 C   0  0  0  0  0  3  0  0  0  0  0  0
  -21.7640   -6.8210   21.5110 O   0  0  0  0  0  0  0  0  0  0  0  0
  -21.7160   -6.0790   22.6650 C   0  0  0  0  0  0  0  0  0  0  0  0
  -21.2730   -6.6290   23.8870 C   0  0  0  0  0  3  0  0  0  0  0  0
  -21.1770   -5.8130   25.0320 C   0  0  0  0  0  3  0  0  0  0  0  0
  -21.5110   -4.4460   24.9530 C   0  0  0  0  0  0  0  0  0  0  0  0
  -21.9460   -3.8970   23.7350 C   0  0  0  0  0  3  0  0  0  0  0  0
  -22.0450   -4.7110   22.5930 C   0  0  0  0  0  0  0  0  0  0  0  0
  -22.4450   -4.1720   21.4170 F   0  0  0  0  0  0  0  0  0  0  0  0
  -21.4090   -3.6590   26.0490 F   0  0  0  0  0  0  0  0  0  0  0  0
  -22.7750  -13.4670   21.1500 C   0  0  0  0  0  0  0  0  0  0  0  0
  -22.0460  -12.7670   22.0110 N   0  0  0  0  0  0  0  0  0  0  0  0
  -22.3320  -14.4860   20.6210 O   0  0  0  0  0  0  0  0  0  0  0  0
  -22.4190  -11.9470   22.4690 H   0  0  0  0  0  0  0  0  0  0  0  0
  -21.0980  -13.0550   22.2150 H   0  0  0  0  0  0  0  0  0  0  0  0
  -25.4020  -15.1610   20.3520 N   0  0  0  0  0  0  0  0  0  0  0  0
  -24.6290  -15.8110   20.4330 H   0  0  0  0  0  0  0  0  0  0  0  0
  -26.2580  -15.6010   20.0380 H   0  0  0  0  0  0  0  0  0  0  0  0
  1  3  1  0
  2  1  2  0
  2  6  1  0
  3  9  1  0
  3  7  2  0
  4  7  1  0
  4 53  1  0
  5  2  1  0
  6  4  2  0
  9  8  1  0
  9 10  1  0
 11 10  1  0
 12 11  1  0
 13 24  2  0
 14 12  1  0
 14 19  1  0
 15 23  1  0
 15 25  1  0
 16 22  1  0
 16 18  1  0
 17 23  1  0
 18 17  1  0
 19 18  2  0
 20 21  1  0
 20 14  2  0
 21 16  2  0
 22 15  1  0
 23 13  1  0
 25 27  2  0
 26 25  1  0
 28 26  1  0
 29 38  2  0
 29 34  1  0
 30 26  1  0
 30 34  1  0
 31 30  1  0
 32 33  1  0
 32 31  1  0
 33 29  1  0
 34 35  2  0
 35 36  1  0
 37 36  2  0
 38 37  1  0
 39 13  1  0
 39 40  1  0
 39 49  1  0
 40 43  1  0
 41 45  1  0
 41 40  1  0
 42 41  2  0
 45 44  1  0
 47 45  1  0
 47 48  1  0
 47 46  1  0
 49 52  1  1
 49 50  1  0
 51 49  1  0
 54 53  1  0
 54 55  1  0
 56 64  1  0
 57 62  1  0
 58 59  1  0
 58 57  1  0
 60 59  1  0
 60 69  1  0
 60 61  1  0
 62 56  1  0
 62 61  1  0
 63 56  2  0
 64 55  1  0
 64 65  1  0
 66 67  2  0
 67 86  1  0
 68 67  1  0
 68 71  1  0
 69 66  1  0
 69 70  1  0
 70 68  2  0
 71 72  1  0
 72 73  2  0
 74 77  1  0
 74 73  1  0
 75 74  2  0
 76 75  1  0
 76 71  2  0
 77 78  1  0
 78 79  1  0
 79 80  2  0
 81 80  1  0
 81 85  1  0
 82 81  2  0
 83 78  2  0
 83 82  1  0
 84 83  1  0
 86 87  1  0
 87 90  1  0
 87 89  1  0
 88 86  2  0
 91 92  1  0
 91 66  1  0
 93 91  1  0
M  ISO  4  11 101  12 101  56 100  64 100
M  END
>  <TORSDO>  (46) 
F 22

>  <SCORE>  (46) 
-13.084

>  <name>  (46) 
45

>  <ligand_id>  (46) 
45

>  <original_smiles>  (46) 
[H]c1c(C([H])([H])[H])nc(C([H])([H])C([H])([H])C([H])([H])N([H])C(=O)N2C([H])([H])C([H])([H])C([H])([H])C([H])(n3nc(-c4c([H])c([H])c(Oc5c([H])c([H])c(F)c([H])c5F)c([H])c4[H])c(C(=O)N([H])[H])c3N([H])[H])C2([H])[H])nc1C([H])(C([H])([H])[H])C([H])([H])C([H])([H])Oc1c([H])c([H])c2c(c1[H])C([H])([H])N(C(=O)C([H])(N([H])C(=O)C([H])(N([H])C([H])([H])[H])C([H])([H])[H])C(C([H])([H])[H])(C([H])([H])[H])C([H])([H])[H])C([H])(C(=O)N([H])C1([H])c3c([H])c([H])c([H])c([H])c3C([H])([H])C([H])([H])C1([H])[H])C2([H])[H]

>  <smiles>  (46) 
[H]c1c(C([H])([H])[H])nc(C([H])([H])C([H])([H])C([H])([H])N([H])C(=O)N2C([H])([H])C([H])([H])C([H])([H])C([H])(n3nc(-c4c([H])c([H])c(Oc5c([H])c([H])c(F)c([H])c5F)c([H])c4[H])c(C(=O)N([H])[H])c3N([H])[H])C2([H])[H])nc1C([H])(C([H])([H])[H])C([H])([H])C([H])([H])Oc1c([H])c([H])c2c(c1[H])C([H])([H])N(C(=O)C([H])(N([H])C(=O)C([H])(N([H])C([H])([H])[H])C([H])([H])[H])C(C([H])([H])[H])(C([H])([H])[H])C([H])([H])[H])C([H])(C(=O)N([H])C1([H])c3c([H])c([H])c([H])c([H])c3C([H])([H])C([H])([H])C1([H])[H])C2([H])[H]

$$$$
46:0:0
     RDKit          3D

 93101  0  0  1  0  0  0  0  0999 V2000
  -29.6280  -20.4330   20.5140 C   0  0  0  0  0  3  0  0  0  0  0  0
  -30.1490  -21.7220   20.2250 C   0  0  0  0  0  0  0  0  0  0  0  0
  -30.5080  -19.3950   20.9310 C   0  0  0  0  0  0  0  0  0  0  0  0
  -31.5530  -21.8650   20.3680 C   0  0  0  0  0  0  0  0  0  0  0  0
  -32.3000  -23.1330   20.0090 C   0  0  0  0  0  1  0  0  0  0  0  0
  -31.8300  -19.6510   21.0970 N   0  0  0  0  0  0  0  0  0  0  0  0
  -32.3400  -20.8530   20.8130 N   0  0  0  0  0  0  0  0  0  0  0  0
  -28.5630  -17.7260   20.9050 C   0  0  0  0  0  1  0  0  0  0  0  0
  -30.1910  -17.7220   22.7910 C   0  0  0  0  0  1  0  0  0  0  0  0
  -30.0480  -17.9460   21.2720 C   0  0  2  0  0  0  0  0  0  0  0  0
  -30.9070  -16.8900   20.4980 C   0  0  0  0  0  2  0  0  0  0  0  0
  -31.0220  -14.4720   19.9270 C   0  0  0  0  0  0  0  0  0  0  0  0
  -30.6090  -12.3360   18.7700 C   0  0  0  0  0  2  0  0  0  0  0  0
  -29.6120  -12.5720   17.6180 C   0  0  0  0  0  2  0  0  0  0  0  0
  -28.1610  -12.4600   18.1270 C   0  0  0  0  0  2  0  0  0  0  0  0
  -27.9060  -13.2870   19.4170 C   0  0  0  0  0  3  0  0  0  0  0  0
  -29.0150  -13.0370   20.4630 C   0  0  0  0  0  2  0  0  0  0  0  0
  -30.3130  -13.3160   19.8280 N   0  0  0  0  0  0  0  0  0  0  0  0
  -32.1070  -14.6410   19.3630 O   0  0  0  0  0  0  0  0  0  0  0  0
  -30.4150  -15.4960   20.5510 N   0  0  0  0  0  0  0  0  0  0  0  0
  -29.5260  -15.3180   20.9920 H   0  0  0  0  0  0  0  0  0  0  0  0
  -25.5630  -13.9230   20.2710 C   0  0  0  0  0  0  0  0  0  0  0  0
  -24.5030  -13.1630   20.6880 C   0  0  0  0  0  0  0  0  0  0  0  0
  -24.9350  -11.8040   20.6020 C   0  0  0  0  0  0  0  0  0  0  0  0
  -26.5770  -13.0280   19.9640 N   0  0  0  0  0  0  0  0  0  0  0  0
  -26.2040  -11.7470   20.2170 N   0  0  0  0  0  0  0  0  0  0  0  0
  -24.1950  -10.5520   20.8090 C   0  0  0  0  0  0  0  0  0  0  0  0
  -24.6110   -9.5960   21.7600 C   0  0  0  0  0  3  0  0  0  0  0  0
  -23.8720   -8.4080   21.9530 C   0  0  0  0  0  3  0  0  0  0  0  0
  -22.7020   -8.1700   21.1940 C   0  0  0  0  0  0  0  0  0  0  0  0
  -22.3040   -9.1160   20.2320 C   0  0  0  0  0  3  0  0  0  0  0  0
  -23.0440  -10.2940   20.0370 C   0  0  0  0  0  3  0  0  0  0  0  0
  -21.9350   -7.0340   21.2940 O   0  0  0  0  0  0  0  0  0  0  0  0
  -21.7990   -6.3630   22.4830 C   0  0  0  0  0  0  0  0  0  0  0  0
  -21.2830   -6.9900   23.6390 C   0  0  0  0  0  3  0  0  0  0  0  0
  -21.0920   -6.2430   24.8190 C   0  0  0  0  0  3  0  0  0  0  0  0
  -21.4070   -4.8710   24.8440 C   0  0  0  0  0  0  0  0  0  0  0  0
  -21.9160   -4.2440   23.6940 C   0  0  0  0  0  3  0  0  0  0  0  0
  -22.1080   -4.9870   22.5160 C   0  0  0  0  0  0  0  0  0  0  0  0
  -22.5780   -4.3730   21.4040 F   0  0  0  0  0  0  0  0  0  0  0  0
  -21.2180   -4.1530   25.9760 F   0  0  0  0  0  0  0  0  0  0  0  0
  -23.1340  -13.6620   21.0510 C   0  0  0  0  0  0  0  0  0  0  0  0
  -22.4530  -12.9760   21.9640 N   0  0  0  0  0  0  0  0  0  0  0  0
  -22.6780  -14.6930   20.5610 O   0  0  0  0  0  0  0  0  0  0  0  0
  -22.8330  -12.1420   22.3850 H   0  0  0  0  0  0  0  0  0  0  0  0
  -21.5340  -13.2910   22.2460 H   0  0  0  0  0  0  0  0  0  0  0  0
  -25.7400  -15.2930   20.1060 N   0  0  0  0  0  0  0  0  0  0  0  0
  -24.9870  -15.9540   20.2660 H   0  0  0  0  0  0  0  0  0  0  0  0
  -26.5570  -15.7180   19.6900 H   0  0  0  0  0  0  0  0  0  0  0  0
  -29.1980  -22.8190   19.6990 C   0  0  0  0  0  2  0  0  0  0  0  0
  -29.2980  -24.2710   20.2610 C   0  0  0  0  0  2  0  0  0  0  0  0
  -28.1010  -25.1510   19.8210 C   0  0  0  0  0  2  0  0  0  0  0  0
  -28.2390  -26.5610   20.1050 O   0  0  0  0  0  0  0  0  0  0  0  0
  -24.5360  -31.7950   23.2270 C   0  0  0  0  0  0  0  0  0  0  0  0
  -27.0870  -27.3350   20.0670 C   0  0  0  0  0  0  0  0  0  0  0  0
  -23.2990  -30.4300   21.5820 C   0  0  0  0  0  3  0  0  0  0  0  0
  -24.7190  -28.9010   20.1140 C   0  0  0  0  0  0  0  0  0  0  0  0
  -25.8310  -30.7520   21.3640 C   0  0  0  0  0  2  0  0  0  0  0  0
  -25.8920  -29.3900   20.7010 C   0  0  0  0  0  0  0  0  0  0  0  0
  -27.0780  -28.6160   20.6720 C   0  0  0  0  0  3  0  0  0  0  0  0
  -25.8930  -26.8810   19.4550 C   0  0  0  0  0  3  0  0  0  0  0  0
  -24.7160  -27.6480   19.4830 C   0  0  0  0  0  3  0  0  0  0  0  0
  -23.4870  -29.7740   20.1890 C   0  0  0  0  0  2  0  0  0  0  0  0
  -24.5750  -31.0050   22.1160 N   0  0  0  0  0  0  0  0  0  0  0  0
  -23.4620  -32.0740   23.7780 O   0  0  0  0  0  0  0  0  0  0  0  0
  -22.6460  -29.4000   22.5320 C   0  0  0  0  0  0  0  0  0  0  0  0
  -21.3280  -29.1930   22.3760 N   0  0  0  0  0  0  0  0  0  0  0  0
  -23.3210  -28.7920   23.3670 O   0  0  0  0  0  0  0  0  0  0  0  0
  -20.8450  -29.7350   21.6730 H   0  0  0  0  0  0  0  0  0  0  0  0
  -17.9780  -27.8900   22.7540 C   0  0  0  0  0  0  0  0  0  0  0  0
  -20.5100  -28.2480   23.1350 C   0  0  0  0  0  3  0  0  0  0  0  0
  -20.6890  -26.8070   22.6050 C   0  0  0  0  0  2  0  0  0  0  0  0
  -19.6480  -26.4170   21.5520 C   0  0  0  0  0  2  0  0  0  0  0  0
  -18.2320  -26.5300   22.1280 C   0  0  0  0  0  2  0  0  0  0  0  0
  -19.0480  -28.7040   23.2130 C   0  0  0  0  0  0  0  0  0  0  0  0
  -18.7570  -29.9750   23.7560 C   0  0  0  0  0  3  0  0  0  0  0  0
  -17.4290  -30.4330   23.8460 C   0  0  0  0  0  3  0  0  0  0  0  0
  -16.3740  -29.6170   23.4050 C   0  0  0  0  0  3  0  0  0  0  0  0
  -16.6480  -28.3490   22.8640 C   0  0  0  0  0  3  0  0  0  0  0  0
  -25.8350  -32.4020   23.8420 C   0  0  0  0  0  3  0  0  0  0  0  0
  -25.5420  -33.7950   24.2080 N   0  0  0  0  0  0  0  0  0  0  0  0
  -25.8650  -34.8610   23.4640 C   0  0  0  0  0  0  0  0  0  0  0  0
  -26.5120  -34.7730   22.4160 O   0  0  0  0  0  0  0  0  0  0  0  0
  -24.9680  -33.9370   25.0270 H   0  0  0  0  0  0  0  0  0  0  0  0
  -24.1380  -36.6650   23.1820 C   0  0  0  0  0  1  0  0  0  0  0  0
  -25.3950  -36.2410   23.9590 C   0  0  0  0  0  3  0  0  0  0  0  0
  -27.5480  -37.0990   24.7670 C   0  0  0  0  0  1  0  0  0  0  0  0
  -26.4300  -37.2900   23.8450 N   0  0  0  0  0  0  0  0  0  0  0  0
  -26.0320  -38.2090   24.0180 H   0  0  0  0  0  0  0  0  0  0  0  0
  -26.3680  -31.5970   25.0890 C   0  0  1  0  0  0  0  0  0  0  0  0
  -25.2900  -31.3330   26.1670 C   0  0  0  0  0  1  0  0  0  0  0  0
  -26.9380  -30.2280   24.6480 C   0  0  0  0  0  1  0  0  0  0  0  0
  -27.5340  -32.3680   25.7520 C   0  0  0  0  0  1  0  0  0  0  0  0
  1  3  1  0
  2  4  1  0
  2  1  2  0
  3  6  2  0
  3 10  1  0
  4  7  2  0
  5  4  1  0
  7  6  1  0
 10  8  1  6
 10  9  1  0
 11 20  1  0
 11 10  1  0
 12 20  1  0
 13 18  1  0
 14 15  1  0
 14 13  1  0
 16 15  1  0
 16 25  1  0
 16 17  1  0
 18 12  1  0
 18 17  1  0
 19 12  2  0
 20 21  1  0
 22 23  2  0
 23 42  1  0
 24 23  1  0
 24 27  1  0
 25 26  1  0
 25 22  1  0
 26 24  2  0
 27 28  1  0
 28 29  2  0
 30 33  1  0
 30 29  1  0
 31 30  2  0
 32 31  1  0
 32 27  2  0
 33 34  1  0
 34 39  2  0
 34 35  1  0
 35 36  2  0
 36 37  1  0
 37 41  1  0
 38 37  2  0
 39 38  1  0
 40 39  1  0
 42 43  1  0
 43 46  1  0
 43 45  1  0
 44 42  2  0
 47 48  1  0
 47 22  1  0
 49 47  1  0
 50  2  1  0
 50 51  1  0
 52 53  1  0
 52 51  1  0
 54 65  2  0
 55 53  1  0
 55 60  1  0
 56 64  1  0
 56 66  1  0
 57 63  1  0
 57 59  1  0
 58 64  1  0
 59 58  1  0
 60 59  2  0
 61 62  1  0
 61 55  2  0
 62 57  2  0
 63 56  1  0
 64 54  1  0
 66 68  2  0
 67 66  1  0
 69 67  1  0
 70 79  2  0
 70 75  1  0
 71 67  1  0
 71 75  1  0
 72 71  1  0
 73 74  1  0
 73 72  1  0
 74 70  1  0
 75 76  2  0
 76 77  1  0
 78 77  2  0
 79 78  1  0
 80 54  1  0
 80 81  1  0
 80 90  1  0
 81 84  1  0
 82 86  1  0
 82 81  1  0
 83 82  2  0
 86 85  1  0
 88 86  1  0
 88 89  1  0
 88 87  1  0
 90 93  1  1
 90 91  1  0
 92 90  1  0
M  ISO  4  12 100  20 100  52 101  53 101
M  END
>  <TORSDO>  (47) 
F 21

>  <SCORE>  (47) 
-12.479

>  <name>  (47) 
46

>  <ligand_id>  (47) 
46

>  <original_smiles>  (47) 
[H]c1c([H])c([H])c2c(c1[H])C([H])([H])C([H])([H])C([H])([H])C2([H])N([H])C(=O)C1([H])N(C(=O)C([H])(N([H])C(=O)C([H])(N([H])C([H])([H])[H])C([H])([H])[H])C(C([H])([H])[H])(C([H])([H])[H])C([H])([H])[H])C([H])([H])c2c([H])c(OC([H])([H])C([H])([H])C([H])([H])c3c(C([H])([H])[H])nnc(C(C([H])([H])[H])(C([H])([H])[H])C([H])([H])N([H])C(=O)N4C([H])([H])C([H])([H])C([H])([H])C([H])(n5nc(-c6c([H])c([H])c(Oc7c([H])c([H])c(F)c([H])c7F)c([H])c6[H])c(C(=O)N([H])[H])c5N([H])[H])C4([H])[H])c3[H])c([H])c([H])c2C1([H])[H]

>  <smiles>  (47) 
[H]c1c([H])c([H])c2c(c1[H])C([H])([H])C([H])([H])C([H])([H])C2([H])N([H])C(=O)C1([H])N(C(=O)C([H])(N([H])C(=O)C([H])(N([H])C([H])([H])[H])C([H])([H])[H])C(C([H])([H])[H])(C([H])([H])[H])C([H])([H])[H])C([H])([H])c2c([H])c(OC([H])([H])C([H])([H])C([H])([H])c3c(C([H])([H])[H])nnc(C(C([H])([H])[H])(C([H])([H])[H])C([H])([H])N([H])C(=O)N4C([H])([H])C([H])([H])C([H])([H])C([H])(n5nc(-c6c([H])c([H])c(Oc7c([H])c([H])c(F)c([H])c7F)c([H])c6[H])c(C(=O)N([H])[H])c5N([H])[H])C4([H])[H])c3[H])c([H])c([H])c2C1([H])[H]

$$$$
47:0:0
     RDKit          3D

 95103  0  0  1  0  0  0  0  0999 V2000
  -31.2910  -22.5650   18.7570 C   0  0  0  0  0  3  0  0  0  0  0  0
  -32.5540  -21.9750   18.9060 C   0  0  0  0  0  3  0  0  0  0  0  0
  -30.1160  -21.9300   19.2320 C   0  0  0  0  0  0  0  0  0  0  0  0
  -32.6450  -20.7220   19.5030 C   0  0  0  0  0  0  0  0  0  0  0  0
  -30.3130  -20.5920   19.7790 C   0  0  0  0  0  0  0  0  0  0  0  0
  -33.9840  -20.0190   19.6610 C   0  0  0  0  0  1  0  0  0  0  0  0
  -31.5540  -20.0620   19.9170 N   0  0  0  0  0  0  0  0  0  0  0  0
  -27.8990  -20.1240   20.6410 C   0  0  0  0  0  1  0  0  0  0  0  0
  -29.3030  -19.5600   20.3650 C   0  0  0  0  0  3  0  0  0  0  0  0
  -28.0090  -17.4930   19.3550 C   0  0  0  0  0  1  0  0  0  0  0  0
  -29.3840  -18.0830   19.7400 C   0  0  0  0  0  3  0  0  0  0  0  0
  -30.2500  -17.0710   20.6040 C   0  0  0  0  0  2  0  0  0  0  0  0
  -30.6550  -14.5800   20.0590 C   0  0  0  0  0  0  0  0  0  0  0  0
  -30.3930  -12.3220   19.0580 C   0  0  0  0  0  2  0  0  0  0  0  0
  -29.3940  -12.4070   17.8860 C   0  0  0  0  0  2  0  0  0  0  0  0
  -27.9500  -12.2500   18.3990 C   0  0  0  0  0  2  0  0  0  0  0  0
  -27.6370  -13.1820   19.5950 C   0  0  0  0  0  3  0  0  0  0  0  0
  -28.7400  -13.0690   20.6720 C   0  0  0  0  0  2  0  0  0  0  0  0
  -30.0270  -13.3690   20.0310 N   0  0  0  0  0  0  0  0  0  0  0  0
  -31.7710  -14.7490   19.5580 O   0  0  0  0  0  0  0  0  0  0  0  0
  -29.9120  -15.6190   20.5320 N   0  0  0  0  0  0  0  0  0  0  0  0
  -29.0210  -15.3600   20.9310 H   0  0  0  0  0  0  0  0  0  0  0  0
  -25.3050  -13.8240   20.4670 C   0  0  0  0  0  0  0  0  0  0  0  0
  -24.2420  -13.0630   20.8790 C   0  0  0  0  0  0  0  0  0  0  0  0
  -24.6670  -11.7060   20.7830 C   0  0  0  0  0  0  0  0  0  0  0  0
  -26.3100  -12.9250   20.1500 N   0  0  0  0  0  0  0  0  0  0  0  0
  -25.9350  -11.6430   20.4000 N   0  0  0  0  0  0  0  0  0  0  0  0
  -23.9210  -10.4550   20.9790 C   0  0  0  0  0  0  0  0  0  0  0  0
  -24.3480   -9.4770   21.9010 C   0  0  0  0  0  3  0  0  0  0  0  0
  -23.6030   -8.2930   22.0800 C   0  0  0  0  0  3  0  0  0  0  0  0
  -22.4160   -8.0810   21.3400 C   0  0  0  0  0  0  0  0  0  0  0  0
  -22.0080   -9.0480   20.4060 C   0  0  0  0  0  3  0  0  0  0  0  0
  -22.7550  -10.2230   20.2240 C   0  0  0  0  0  3  0  0  0  0  0  0
  -21.6430   -6.9490   21.4340 O   0  0  0  0  0  0  0  0  0  0  0  0
  -21.5690   -6.2200   22.5930 C   0  0  0  0  0  0  0  0  0  0  0  0
  -21.0830   -6.7790   23.7960 C   0  0  0  0  0  3  0  0  0  0  0  0
  -20.9600   -5.9760   24.9460 C   0  0  0  0  0  3  0  0  0  0  0  0
  -21.3180   -4.6150   24.8960 C   0  0  0  0  0  0  0  0  0  0  0  0
  -21.8000   -4.0560   23.6980 C   0  0  0  0  0  3  0  0  0  0  0  0
  -21.9240   -4.8570   22.5510 C   0  0  0  0  0  0  0  0  0  0  0  0
  -22.3690   -4.3100   21.3940 F   0  0  0  0  0  0  0  0  0  0  0  0
  -21.1910   -3.8380   25.9980 F   0  0  0  0  0  0  0  0  0  0  0  0
  -22.8810  -13.5730   21.2460 C   0  0  0  0  0  0  0  0  0  0  0  0
  -22.1810  -12.8610   22.1230 N   0  0  0  0  0  0  0  0  0  0  0  0
  -22.4460  -14.6270   20.7880 O   0  0  0  0  0  0  0  0  0  0  0  0
  -22.5400  -12.0050   22.5150 H   0  0  0  0  0  0  0  0  0  0  0  0
  -21.2710  -13.1890   22.4140 H   0  0  0  0  0  0  0  0  0  0  0  0
  -25.4800  -15.1940   20.3120 N   0  0  0  0  0  0  0  0  0  0  0  0
  -24.7180  -15.8490   20.4440 H   0  0  0  0  0  0  0  0  0  0  0  0
  -26.2980  -15.6170   19.8880 H   0  0  0  0  0  0  0  0  0  0  0  0
  -28.7630  -22.7100   19.0520 C   0  0  0  0  0  2  0  0  0  0  0  0
  -27.8380  -24.5990   17.5380 C   0  0  0  0  0  1  0  0  0  0  0  0
  -28.7370  -24.2900   18.7520 C   0  0  0  0  0  3  0  0  0  0  0  0
  -28.3490  -25.1770   19.9950 C   0  0  0  0  0  2  0  0  0  0  0  0
  -28.4050  -26.6370   19.8840 O   0  0  0  0  0  0  0  0  0  0  0  0
  -24.6810  -31.7650   23.2870 C   0  0  0  0  0  0  0  0  0  0  0  0
  -27.2410  -27.3960   19.9860 C   0  0  0  0  0  0  0  0  0  0  0  0
  -23.4490  -30.4580   21.5990 C   0  0  0  0  0  3  0  0  0  0  0  0
  -24.8670  -28.9670   20.0990 C   0  0  0  0  0  0  0  0  0  0  0  0
  -25.9810  -30.7930   21.3800 C   0  0  0  0  0  2  0  0  0  0  0  0
  -26.0490  -29.4510   20.6700 C   0  0  0  0  0  0  0  0  0  0  0  0
  -27.2490  -28.6880   20.5770 C   0  0  0  0  0  3  0  0  0  0  0  0
  -26.0150  -26.9180   19.4770 C   0  0  0  0  0  3  0  0  0  0  0  0
  -24.8470  -27.6990   19.5020 C   0  0  0  0  0  3  0  0  0  0  0  0
  -23.6380  -29.8500   20.1880 C   0  0  0  0  0  2  0  0  0  0  0  0
  -24.7270  -31.0150   22.1490 N   0  0  0  0  0  0  0  0  0  0  0  0
  -23.6010  -32.0190   23.8430 O   0  0  0  0  0  0  0  0  0  0  0  0
  -22.7930  -29.3910   22.5070 C   0  0  0  0  0  0  0  0  0  0  0  0
  -21.4660  -29.2240   22.3720 N   0  0  0  0  0  0  0  0  0  0  0  0
  -23.4710  -28.7290   23.2980 O   0  0  0  0  0  0  0  0  0  0  0  0
  -20.9800  -29.8190   21.7160 H   0  0  0  0  0  0  0  0  0  0  0  0
  -18.0840  -28.0310   22.8230 C   0  0  0  0  0  0  0  0  0  0  0  0
  -20.6440  -28.2570   23.1020 C   0  0  0  0  0  3  0  0  0  0  0  0
  -20.7340  -26.8550   22.4560 C   0  0  0  0  0  2  0  0  0  0  0  0
  -19.6270  -26.5850   21.4330 C   0  0  0  0  0  2  0  0  0  0  0  0
  -18.2490  -26.7090   22.0870 C   0  0  0  0  0  2  0  0  0  0  0  0
  -19.2090  -28.7630   23.2870 C   0  0  0  0  0  0  0  0  0  0  0  0
  -18.9990  -29.9970   23.9380 C   0  0  0  0  0  3  0  0  0  0  0  0
  -17.6980  -30.5000   24.1280 C   0  0  0  0  0  3  0  0  0  0  0  0
  -16.5880  -29.7630   23.6810 C   0  0  0  0  0  3  0  0  0  0  0  0
  -16.7820  -28.5280   23.0360 C   0  0  0  0  0  3  0  0  0  0  0  0
  -25.9710  -32.3570   23.9330 C   0  0  0  0  0  3  0  0  0  0  0  0
  -25.6920  -33.7590   24.2760 N   0  0  0  0  0  0  0  0  0  0  0  0
  -26.0660  -34.8120   23.5360 C   0  0  0  0  0  0  0  0  0  0  0  0
  -26.7560  -34.7060   22.5180 O   0  0  0  0  0  0  0  0  0  0  0  0
  -25.0890  -33.9220   25.0680 H   0  0  0  0  0  0  0  0  0  0  0  0
  -24.4140  -36.6670   23.1430 C   0  0  0  0  0  1  0  0  0  0  0  0
  -25.6070  -36.2080   23.9970 C   0  0  0  0  0  3  0  0  0  0  0  0
  -27.7300  -37.0120   24.9310 C   0  0  0  0  0  1  0  0  0  0  0  0
  -26.6780  -37.2270   23.9420 N   0  0  0  0  0  0  0  0  0  0  0  0
  -26.2970  -38.1580   24.0850 H   0  0  0  0  0  0  0  0  0  0  0  0
  -26.4470  -31.5550   25.2070 C   0  0  1  0  0  0  0  0  0  0  0  0
  -25.3370  -31.3370   26.2620 C   0  0  0  0  0  1  0  0  0  0  0  0
  -26.9990  -30.1670   24.8000 C   0  0  0  0  0  1  0  0  0  0  0  0
  -27.6130  -32.3110   25.8960 C   0  0  0  0  0  1  0  0  0  0  0  0
  1  2  2  0
  1  3  1  0
  2  4  1  0
  3  5  2  0
  4  6  1  0
  4  7  2  0
  5  7  1  0
  5  9  1  0
  9  8  1  0
 11 10  1  0
 11  9  1  0
 11 12  1  0
 13 21  1  0
 14 19  1  0
 15 16  1  0
 15 14  1  0
 17 16  1  0
 17 26  1  0
 17 18  1  0
 19 13  1  0
 19 18  1  0
 20 13  2  0
 21 12  1  0
 21 22  1  0
 23 24  2  0
 24 43  1  0
 25 24  1  0
 25 28  1  0
 26 27  1  0
 26 23  1  0
 27 25  2  0
 28 29  1  0
 29 30  2  0
 31 34  1  0
 31 30  1  0
 32 31  2  0
 33 32  1  0
 33 28  2  0
 34 35  1  0
 35 36  1  0
 36 37  2  0
 38 37  1  0
 38 42  1  0
 39 38  2  0
 40 35  2  0
 40 39  1  0
 41 40  1  0
 43 44  1  0
 44 47  1  0
 44 46  1  0
 45 43  2  0
 48 49  1  0
 48 23  1  0
 50 48  1  0
 51  3  1  0
 53 52  1  0
 53 51  1  0
 53 54  1  0
 55 57  1  0
 55 54  1  0
 56 67  2  0
 57 62  1  0
 58 66  1  0
 58 68  1  0
 59 65  1  0
 59 61  1  0
 60 66  1  0
 61 60  1  0
 62 61  2  0
 63 64  1  0
 63 57  2  0
 64 59  2  0
 65 58  1  0
 66 56  1  0
 68 70  2  0
 69 68  1  0
 71 69  1  0
 72 81  2  0
 72 77  1  0
 73 69  1  0
 73 77  1  0
 74 73  1  0
 75 76  1  0
 75 74  1  0
 76 72  1  0
 77 78  2  0
 78 79  1  0
 80 79  2  0
 81 80  1  0
 82 56  1  0
 82 83  1  0
 82 92  1  0
 83 86  1  0
 84 88  1  0
 84 83  1  0
 85 84  2  0
 88 87  1  0
 90 88  1  0
 90 91  1  0
 90 89  1  0
 92 95  1  1
 92 93  1  0
 94 92  1  0
M  ISO  4  13 100  21 100  54 101  55 101
M  END
>  <TORSDO>  (48) 
F 22

>  <SCORE>  (48) 
-12.853

>  <name>  (48) 
47

>  <ligand_id>  (48) 
47

>  <original_smiles>  (48) 
[H]c1c(C([H])([H])[H])nc(C([H])(C([H])([H])[H])C([H])(C([H])([H])[H])C([H])([H])N([H])C(=O)N2C([H])([H])C([H])([H])C([H])([H])C([H])(n3nc(-c4c([H])c([H])c(Oc5c([H])c([H])c(F)c([H])c5F)c([H])c4[H])c(C(=O)N([H])[H])c3N([H])[H])C2([H])[H])c(C([H])([H])C([H])(C([H])([H])[H])C([H])([H])Oc2c([H])c([H])c3c(c2[H])C([H])([H])N(C(=O)C([H])(N([H])C(=O)C([H])(N([H])C([H])([H])[H])C([H])([H])[H])C(C([H])([H])[H])(C([H])([H])[H])C([H])([H])[H])C([H])(C(=O)N([H])C2([H])c4c([H])c([H])c([H])c([H])c4C([H])([H])C([H])([H])C2([H])[H])C3([H])[H])c1[H]

>  <smiles>  (48) 
[H]c1c(C([H])([H])[H])nc(C([H])(C([H])([H])[H])C([H])(C([H])([H])[H])C([H])([H])N([H])C(=O)N2C([H])([H])C([H])([H])C([H])([H])C([H])(n3nc(-c4c([H])c([H])c(Oc5c([H])c([H])c(F)c([H])c5F)c([H])c4[H])c(C(=O)N([H])[H])c3N([H])[H])C2([H])[H])c(C([H])([H])C([H])(C([H])([H])[H])C([H])([H])Oc2c([H])c([H])c3c(c2[H])C([H])([H])N(C(=O)C([H])(N([H])C(=O)C([H])(N([H])C([H])([H])[H])C([H])([H])[H])C(C([H])([H])[H])(C([H])([H])[H])C([H])([H])[H])C([H])(C(=O)N([H])C2([H])c4c([H])c([H])c([H])c([H])c4C([H])([H])C([H])([H])C2([H])[H])C3([H])[H])c1[H]

$$$$
48:0:0
     RDKit          3D

 95103  0  0  1  0  0  0  0  0999 V2000
  -31.1460  -21.8410   21.6660 C   0  0  0  0  0  3  0  0  0  0  0  0
  -31.6070  -20.8430   22.5430 C   0  0  0  0  0  3  0  0  0  0  0  0
  -29.7570  -20.1930   20.5320 C   0  0  0  0  0  3  0  0  0  0  0  0
  -30.2220  -21.5290   20.6470 C   0  0  0  0  0  0  0  0  0  0  0  0
  -31.1410  -19.5150   22.4340 C   0  0  0  0  0  0  0  0  0  0  0  0
  -30.1900  -19.1830   21.4300 C   0  0  0  0  0  0  0  0  0  0  0  0
  -31.6870  -18.4810   23.4120 C   0  0  0  0  0  1  0  0  0  0  0  0
  -28.2530  -17.6660   20.6550 C   0  0  0  0  0  1  0  0  0  0  0  0
  -29.6480  -17.7480   21.3080 C   0  0  0  0  0  3  0  0  0  0  0  0
  -30.6730  -16.8440   20.6090 C   0  0  0  0  0  2  0  0  0  0  0  0
  -30.9880  -14.4380   20.1620 C   0  0  0  0  0  0  0  0  0  0  0  0
  -30.6220  -12.2990   19.0180 C   0  0  0  0  0  2  0  0  0  0  0  0
  -29.6720  -12.5530   17.8320 C   0  0  0  0  0  2  0  0  0  0  0  0
  -28.1950  -12.4640   18.2770 C   0  0  0  0  0  2  0  0  0  0  0  0
  -27.8970  -13.2680   19.5730 C   0  0  0  0  0  3  0  0  0  0  0  0
  -28.9730  -13.0010   20.6510 C   0  0  0  0  0  2  0  0  0  0  0  0
  -30.2950  -13.2750   20.0660 N   0  0  0  0  0  0  0  0  0  0  0  0
  -32.0760  -14.6360   19.6200 O   0  0  0  0  0  0  0  0  0  0  0  0
  -30.3230  -15.4320   20.7530 N   0  0  0  0  0  0  0  0  0  0  0  0
  -29.4350  -15.2050   21.1700 H   0  0  0  0  0  0  0  0  0  0  0  0
  -25.5080  -13.8850   20.3280 C   0  0  0  0  0  0  0  0  0  0  0  0
  -24.4440  -13.1200   20.7270 C   0  0  0  0  0  0  0  0  0  0  0  0
  -24.8970  -11.7670   20.6850 C   0  0  0  0  0  0  0  0  0  0  0  0
  -26.5460  -13.0000   20.0780 N   0  0  0  0  0  0  0  0  0  0  0  0
  -26.1790  -11.7180   20.3440 N   0  0  0  0  0  0  0  0  0  0  0  0
  -24.1660  -10.5100   20.8840 C   0  0  0  0  0  0  0  0  0  0  0  0
  -24.5630   -9.5800   21.8710 C   0  0  0  0  0  3  0  0  0  0  0  0
  -23.8360   -8.3850   22.0630 C   0  0  0  0  0  3  0  0  0  0  0  0
  -22.6980   -8.1120   21.2680 C   0  0  0  0  0  0  0  0  0  0  0  0
  -22.3220   -9.0280   20.2710 C   0  0  0  0  0  3  0  0  0  0  0  0
  -23.0500  -10.2130   20.0770 C   0  0  0  0  0  3  0  0  0  0  0  0
  -21.9400   -6.9700   21.3680 O   0  0  0  0  0  0  0  0  0  0  0  0
  -21.7710   -6.3150   22.5610 C   0  0  0  0  0  0  0  0  0  0  0  0
  -21.2130   -6.9550   23.6900 C   0  0  0  0  0  3  0  0  0  0  0  0
  -20.9990   -6.2260   24.8760 C   0  0  0  0  0  3  0  0  0  0  0  0
  -21.3280   -4.8580   24.9330 C   0  0  0  0  0  0  0  0  0  0  0  0
  -21.8790   -4.2190   23.8080 C   0  0  0  0  0  3  0  0  0  0  0  0
  -22.0970   -4.9450   22.6240 C   0  0  0  0  0  0  0  0  0  0  0  0
  -22.6070   -4.3210   21.5350 F   0  0  0  0  0  0  0  0  0  0  0  0
  -21.1160   -4.1550   26.0680 F   0  0  0  0  0  0  0  0  0  0  0  0
  -23.0540  -13.6000   21.0270 C   0  0  0  0  0  0  0  0  0  0  0  0
  -22.3430  -12.9270   21.9260 N   0  0  0  0  0  0  0  0  0  0  0  0
  -22.6010  -14.6100   20.4910 O   0  0  0  0  0  0  0  0  0  0  0  0
  -22.7180  -12.1150   22.3990 H   0  0  0  0  0  0  0  0  0  0  0  0
  -21.4050  -13.2280   22.1490 H   0  0  0  0  0  0  0  0  0  0  0  0
  -25.6670  -15.2520   20.1430 N   0  0  0  0  0  0  0  0  0  0  0  0
  -24.8970  -15.9020   20.2650 H   0  0  0  0  0  0  0  0  0  0  0  0
  -26.4960  -15.6930   19.7640 H   0  0  0  0  0  0  0  0  0  0  0  0
  -29.6180  -22.6320   19.7660 C   0  0  0  0  0  2  0  0  0  0  0  0
  -30.0790  -23.2890   17.3530 C   0  0  0  0  0  1  0  0  0  0  0  0
  -32.0300  -23.0970   18.8610 C   0  0  0  0  0  1  0  0  0  0  0  0
  -30.5360  -23.4960   18.8170 C   0  0  2  0  0  0  0  0  0  0  0  0
  -30.4100  -25.0190   19.1700 C   0  0  0  0  0  2  0  0  0  0  0  0
  -28.9860  -25.6260   19.0780 C   0  0  0  0  0  2  0  0  0  0  0  0
  -28.8870  -26.9210   19.6910 O   0  0  0  0  0  0  0  0  0  0  0  0
  -24.5730  -31.5530   23.0240 C   0  0  0  0  0  0  0  0  0  0  0  0
  -27.6370  -27.5240   19.7270 C   0  0  0  0  0  0  0  0  0  0  0  0
  -23.5220  -30.1610   21.2740 C   0  0  0  0  0  3  0  0  0  0  0  0
  -25.1200  -28.8320   19.8010 C   0  0  0  0  0  0  0  0  0  0  0  0
  -26.0200  -30.7200   21.1690 C   0  0  0  0  0  2  0  0  0  0  0  0
  -26.2240  -29.4030   20.4450 C   0  0  0  0  0  0  0  0  0  0  0  0
  -27.4820  -28.7560   20.4050 C   0  0  0  0  0  3  0  0  0  0  0  0
  -26.4990  -26.9610   19.0960 C   0  0  0  0  0  3  0  0  0  0  0  0
  -25.2520  -27.6090   19.1290 C   0  0  0  0  0  3  0  0  0  0  0  0
  -23.8100  -29.5810   19.8650 C   0  0  0  0  0  2  0  0  0  0  0  0
  -24.7210  -30.8260   21.8790 N   0  0  0  0  0  0  0  0  0  0  0  0
  -23.4610  -31.7040   23.5490 O   0  0  0  0  0  0  0  0  0  0  0  0
  -22.9350  -29.0350   22.1560 C   0  0  0  0  0  0  0  0  0  0  0  0
  -21.6300  -28.7590   21.9850 N   0  0  0  0  0  0  0  0  0  0  0  0
  -23.6500  -28.4140   22.9450 O   0  0  0  0  0  0  0  0  0  0  0  0
  -21.1150  -29.3170   21.3190 H   0  0  0  0  0  0  0  0  0  0  0  0
  -18.3430  -27.3030   22.3510 C   0  0  0  0  0  0  0  0  0  0  0  0
  -20.8750  -27.7140   22.6750 C   0  0  0  0  0  3  0  0  0  0  0  0
  -21.0810  -26.3390   22.0010 C   0  0  0  0  0  2  0  0  0  0  0  0
  -20.0140  -26.0140   20.9520 C   0  0  0  0  0  2  0  0  0  0  0  0
  -18.6200  -26.0190   21.5860 C   0  0  0  0  0  2  0  0  0  0  0  0
  -19.4020  -28.1080   22.8470 C   0  0  0  0  0  0  0  0  0  0  0  0
  -19.0900  -29.3110   23.5180 C   0  0  0  0  0  3  0  0  0  0  0  0
  -17.7510  -29.7070   23.6990 C   0  0  0  0  0  3  0  0  0  0  0  0
  -16.7070  -28.8970   23.2210 C   0  0  0  0  0  3  0  0  0  0  0  0
  -17.0040  -27.6960   22.5510 C   0  0  0  0  0  3  0  0  0  0  0  0
  -25.7900  -32.2470   23.7140 C   0  0  0  0  0  3  0  0  0  0  0  0
  -25.3870  -33.6190   24.0450 N   0  0  0  0  0  0  0  0  0  0  0  0
  -25.6960  -34.7010   23.3150 C   0  0  0  0  0  0  0  0  0  0  0  0
  -26.4200  -34.6500   22.3170 O   0  0  0  0  0  0  0  0  0  0  0  0
  -24.7490  -33.7310   24.8190 H   0  0  0  0  0  0  0  0  0  0  0  0
  -23.8890  -36.3960   22.8950 C   0  0  0  0  0  1  0  0  0  0  0  0
  -25.1070  -36.0510   23.7650 C   0  0  0  0  0  3  0  0  0  0  0  0
  -27.1390  -37.0410   24.7240 C   0  0  0  0  0  1  0  0  0  0  0  0
  -26.0830  -37.1620   23.7230 N   0  0  0  0  0  0  0  0  0  0  0  0
  -25.6180  -38.0560   23.8580 H   0  0  0  0  0  0  0  0  0  0  0  0
  -26.2890  -31.4880   25.0040 C   0  0  1  0  0  0  0  0  0  0  0  0
  -25.1630  -31.1650   26.0140 C   0  0  0  0  0  1  0  0  0  0  0  0
  -26.9710  -30.1550   24.6220 C   0  0  0  0  0  1  0  0  0  0  0  0
  -27.3630  -32.3350   25.7270 C   0  0  0  0  0  1  0  0  0  0  0  0
  1  2  1  0
  3  4  1  0
  3  6  2  0
  4  1  2  0
  5  2  2  0
  5  7  1  0
  6  5  1  0
  9  8  1  0
  9  6  1  0
 10 19  1  0
 10  9  1  0
 11 19  1  0
 12 17  1  0
 13 14  1  0
 13 12  1  0
 15 14  1  0
 15 24  1  0
 15 16  1  0
 17 11  1  0
 17 16  1  0
 18 11  2  0
 19 20  1  0
 21 22  2  0
 22 41  1  0
 23 22  1  0
 23 26  1  0
 24 21  1  0
 24 25  1  0
 25 23  2  0
 26 27  1  0
 27 28  2  0
 29 32  1  0
 29 28  1  0
 30 29  2  0
 31 30  1  0
 31 26  2  0
 32 33  1  0
 33 38  2  0
 33 34  1  0
 34 35  2  0
 35 36  1  0
 36 40  1  0
 37 36  2  0
 38 37  1  0
 39 38  1  0
 41 42  1  0
 42 45  1  0
 42 44  1  0
 43 41  2  0
 46 47  1  0
 46 21  1  0
 48 46  1  0
 49  4  1  0
 52 50  1  6
 52 51  1  0
 52 53  1  0
 52 49  1  0
 54 53  1  0
 54 55  1  0
 55 57  1  0
 56 67  2  0
 57 62  1  0
 58 66  1  0
 58 68  1  0
 59 65  1  0
 59 61  1  0
 60 66  1  0
 61 60  1  0
 62 61  2  0
 63 64  1  0
 63 57  2  0
 64 59  2  0
 65 58  1  0
 66 56  1  0
 68 70  2  0
 69 68  1  0
 71 69  1  0
 72 81  2  0
 72 77  1  0
 73 69  1  0
 73 77  1  0
 74 73  1  0
 75 76  1  0
 75 74  1  0
 76 72  1  0
 77 78  2  0
 78 79  1  0
 80 79  2  0
 81 80  1  0
 82 56  1  0
 82 83  1  0
 82 92  1  0
 83 86  1  0
 84 88  1  0
 84 83  1  0
 85 84  2  0
 88 87  1  0
 90 88  1  0
 90 91  1  0
 90 89  1  0
 92 95  1  1
 92 93  1  0
 94 92  1  0
M  ISO  4  11 100  19 100  54 101  55 101
M  END
>  <TORSDO>  (49) 
F 22

>  <SCORE>  (49) 
-11.417

>  <name>  (49) 
48

>  <ligand_id>  (49) 
48

>  <original_smiles>  (49) 
[H]c1c([H])c([H])c2c(c1[H])C([H])([H])C([H])([H])C([H])([H])C2([H])N([H])C(=O)C1([H])N(C(=O)C([H])(N([H])C(=O)C([H])(N([H])C([H])([H])[H])C([H])([H])[H])C(C([H])([H])[H])(C([H])([H])[H])C([H])([H])[H])C([H])([H])c2c([H])c(OC([H])([H])C([H])([H])C(C([H])([H])[H])(C([H])([H])[H])C([H])([H])c3c([H])c([H])c(C([H])([H])[H])c(C([H])(C([H])([H])[H])C([H])([H])N([H])C(=O)N4C([H])([H])C([H])([H])C([H])([H])C([H])(n5nc(-c6c([H])c([H])c(Oc7c([H])c([H])c(F)c([H])c7F)c([H])c6[H])c(C(=O)N([H])[H])c5N([H])[H])C4([H])[H])c3[H])c([H])c([H])c2C1([H])[H]

>  <smiles>  (49) 
[H]c1c([H])c([H])c2c(c1[H])C([H])([H])C([H])([H])C([H])([H])C2([H])N([H])C(=O)C1([H])N(C(=O)C([H])(N([H])C(=O)C([H])(N([H])C([H])([H])[H])C([H])([H])[H])C(C([H])([H])[H])(C([H])([H])[H])C([H])([H])[H])C([H])([H])c2c([H])c(OC([H])([H])C([H])([H])C(C([H])([H])[H])(C([H])([H])[H])C([H])([H])c3c([H])c([H])c(C([H])([H])[H])c(C([H])(C([H])([H])[H])C([H])([H])N([H])C(=O)N4C([H])([H])C([H])([H])C([H])([H])C([H])(n5nc(-c6c([H])c([H])c(Oc7c([H])c([H])c(F)c([H])c7F)c([H])c6[H])c(C(=O)N([H])[H])c5N([H])[H])C4([H])[H])c3[H])c([H])c([H])c2C1([H])[H]

$$$$
49:0:0
     RDKit          3D

 92100  0  0  1  0  0  0  0  0999 V2000
  -31.1680  -20.3580   18.6890 C   0  0  0  0  0  3  0  0  0  0  0  0
  -29.9300  -20.8470   19.1880 C   0  0  0  0  0  0  0  0  0  0  0  0
  -31.1370  -19.0140   18.9220 C   0  0  0  0  0  0  0  0  0  0  0  0
  -32.1500  -17.9650   18.5850 C   0  0  0  0  0  1  0  0  0  0  0  0
  -29.1970  -19.8710   19.7160 N   0  0  0  0  0  0  0  0  0  0  0  0
  -29.9370  -18.7400   19.5530 N   0  0  0  0  0  0  0  0  0  0  0  0
  -29.4290  -22.2720   19.1010 C   0  0  0  0  0  2  0  0  0  0  0  0
  -29.4350  -23.0340   20.4450 C   0  0  0  0  0  2  0  0  0  0  0  0
  -29.5660  -24.5820   20.3590 C   0  0  0  0  0  2  0  0  0  0  0  0
  -28.6010  -25.4230   18.1290 C   0  0  0  0  0  1  0  0  0  0  0  0
  -28.4210  -25.3530   19.6590 C   0  0  0  0  0  3  0  0  0  0  0  0
  -28.4120  -26.7070   20.1540 O   0  0  0  0  0  0  0  0  0  0  0  0
  -24.6110  -31.8870   23.2400 C   0  0  0  0  0  0  0  0  0  0  0  0
  -27.2300  -27.4300   20.1380 C   0  0  0  0  0  0  0  0  0  0  0  0
  -23.3980  -30.4930   21.5990 C   0  0  0  0  0  3  0  0  0  0  0  0
  -24.8430  -28.9590   20.1670 C   0  0  0  0  0  0  0  0  0  0  0  0
  -25.9280  -30.8390   21.4000 C   0  0  0  0  0  2  0  0  0  0  0  0
  -26.0060  -29.4700   20.7530 C   0  0  0  0  0  0  0  0  0  0  0  0
  -27.2020  -28.7140   20.7360 C   0  0  0  0  0  3  0  0  0  0  0  0
  -26.0350  -26.9350   19.5590 C   0  0  0  0  0  3  0  0  0  0  0  0
  -24.8530  -27.6900   19.5710 C   0  0  0  0  0  3  0  0  0  0  0  0
  -23.6030  -29.8220   20.2160 C   0  0  0  0  0  2  0  0  0  0  0  0
  -24.6640  -31.0870   22.1360 N   0  0  0  0  0  0  0  0  0  0  0  0
  -23.5300  -32.1600   23.7820 O   0  0  0  0  0  0  0  0  0  0  0  0
  -22.7470  -29.4660   22.5550 C   0  0  0  0  0  0  0  0  0  0  0  0
  -21.4240  -29.2780   22.4200 N   0  0  0  0  0  0  0  0  0  0  0  0
  -23.4300  -28.8430   23.3730 O   0  0  0  0  0  0  0  0  0  0  0  0
  -20.9350  -29.8330   21.7310 H   0  0  0  0  0  0  0  0  0  0  0  0
  -18.0550  -28.0600   22.8900 C   0  0  0  0  0  0  0  0  0  0  0  0
  -20.6060  -28.3390   23.1870 C   0  0  0  0  0  3  0  0  0  0  0  0
  -20.7270  -26.9050   22.6220 C   0  0  0  0  0  2  0  0  0  0  0  0
  -19.6400  -26.5660   21.5970 C   0  0  0  0  0  2  0  0  0  0  0  0
  -18.2500  -26.7070   22.2240 C   0  0  0  0  0  2  0  0  0  0  0  0
  -19.1620  -28.8320   23.3270 C   0  0  0  0  0  0  0  0  0  0  0  0
  -18.9310  -30.0980   23.9060 C   0  0  0  0  0  3  0  0  0  0  0  0
  -17.6210  -30.5940   24.0510 C   0  0  0  0  0  3  0  0  0  0  0  0
  -16.5260  -29.8180   23.6330 C   0  0  0  0  0  3  0  0  0  0  0  0
  -16.7440  -28.5530   23.0590 C   0  0  0  0  0  3  0  0  0  0  0  0
  -25.8980  -32.5150   23.8560 C   0  0  0  0  0  3  0  0  0  0  0  0
  -25.5930  -33.9130   24.1900 N   0  0  0  0  0  0  0  0  0  0  0  0
  -25.9190  -34.9660   23.4300 C   0  0  0  0  0  0  0  0  0  0  0  0
  -26.5840  -34.8640   22.3940 O   0  0  0  0  0  0  0  0  0  0  0  0
  -25.0070  -34.0700   24.9970 H   0  0  0  0  0  0  0  0  0  0  0  0
  -24.1860  -36.7540   23.0850 C   0  0  0  0  0  1  0  0  0  0  0  0
  -25.4310  -36.3520   23.8900 C   0  0  0  0  0  3  0  0  0  0  0  0
  -27.5690  -37.2350   24.7130 C   0  0  0  0  0  1  0  0  0  0  0  0
  -26.4620  -37.4060   23.7750 N   0  0  0  0  0  0  0  0  0  0  0  0
  -26.0570  -38.3260   23.9280 H   0  0  0  0  0  0  0  0  0  0  0  0
  -26.4210  -31.7400   25.1280 C   0  0  1  0  0  0  0  0  0  0  0  0
  -25.3320  -31.4990   26.1980 C   0  0  0  0  0  1  0  0  0  0  0  0
  -27.0020  -30.3650   24.7290 C   0  0  0  0  0  1  0  0  0  0  0  0
  -27.5730  -32.5330   25.7890 C   0  0  0  0  0  1  0  0  0  0  0  0
  -29.4100  -17.4380   19.9550 C   0  0  0  0  0  2  0  0  0  0  0  0
  -30.1680  -16.8110   21.1520 C   0  0  0  0  0  2  0  0  0  0  0  0
  -30.6340  -14.4330   20.5420 C   0  0  0  0  0  0  0  0  0  0  0  0
  -30.3350  -12.3200   19.3130 C   0  0  0  0  0  2  0  0  0  0  0  0
  -29.3840  -12.5860   18.1300 C   0  0  0  0  0  2  0  0  0  0  0  0
  -27.9120  -12.4420   18.5620 C   0  0  0  0  0  2  0  0  0  0  0  0
  -27.5920  -13.2380   19.8550 C   0  0  0  0  0  3  0  0  0  0  0  0
  -28.6490  -12.9460   20.9460 C   0  0  0  0  0  2  0  0  0  0  0  0
  -29.9770  -13.2570   20.3880 N   0  0  0  0  0  0  0  0  0  0  0  0
  -31.7110  -14.6900   19.9930 O   0  0  0  0  0  0  0  0  0  0  0  0
  -29.9460  -15.3650   21.2190 N   0  0  0  0  0  0  0  0  0  0  0  0
  -29.0970  -15.0470   21.6670 H   0  0  0  0  0  0  0  0  0  0  0  0
  -25.1970  -13.8610   20.5650 C   0  0  0  0  0  0  0  0  0  0  0  0
  -24.1260  -13.0940   20.9380 C   0  0  0  0  0  0  0  0  0  0  0  0
  -24.5800  -11.7400   20.9020 C   0  0  0  0  0  0  0  0  0  0  0  0
  -26.2370  -12.9740   20.3310 N   0  0  0  0  0  0  0  0  0  0  0  0
  -25.8680  -11.6930   20.5860 N   0  0  0  0  0  0  0  0  0  0  0  0
  -23.8500  -10.4800   21.0940 C   0  0  0  0  0  0  0  0  0  0  0  0
  -24.2980   -9.4990   22.0060 C   0  0  0  0  0  3  0  0  0  0  0  0
  -23.5690   -8.3030   22.1870 C   0  0  0  0  0  3  0  0  0  0  0  0
  -22.3790   -8.0790   21.4550 C   0  0  0  0  0  0  0  0  0  0  0  0
  -21.9500   -9.0500   20.5320 C   0  0  0  0  0  3  0  0  0  0  0  0
  -22.6780  -10.2380   20.3500 C   0  0  0  0  0  3  0  0  0  0  0  0
  -21.6210   -6.9380   21.5430 O   0  0  0  0  0  0  0  0  0  0  0  0
  -21.6090   -6.1690   22.6800 C   0  0  0  0  0  0  0  0  0  0  0  0
  -21.2450   -6.7030   23.9360 C   0  0  0  0  0  3  0  0  0  0  0  0
  -21.1800   -5.8620   25.0660 C   0  0  0  0  0  3  0  0  0  0  0  0
  -21.4660   -4.4890   24.9400 C   0  0  0  0  0  0  0  0  0  0  0  0
  -21.8210   -3.9560   23.6890 C   0  0  0  0  0  3  0  0  0  0  0  0
  -21.8890   -4.7930   22.5620 C   0  0  0  0  0  0  0  0  0  0  0  0
  -22.2110   -4.2680   21.3540 F   0  0  0  0  0  0  0  0  0  0  0  0
  -21.3940   -3.6810   26.0240 F   0  0  0  0  0  0  0  0  0  0  0  0
  -22.7320  -13.5750   21.2200 C   0  0  0  0  0  0  0  0  0  0  0  0
  -22.0070  -12.8800   22.0900 N   0  0  0  0  0  0  0  0  0  0  0  0
  -22.2940  -14.6020   20.7030 O   0  0  0  0  0  0  0  0  0  0  0  0
  -22.3720  -12.0480   22.5290 H   0  0  0  0  0  0  0  0  0  0  0  0
  -21.0730  -13.1860   22.3200 H   0  0  0  0  0  0  0  0  0  0  0  0
  -25.3690  -15.2300   20.3880 N   0  0  0  0  0  0  0  0  0  0  0  0
  -24.6040  -15.8920   20.4810 H   0  0  0  0  0  0  0  0  0  0  0  0
  -26.2200  -15.6620   20.0510 H   0  0  0  0  0  0  0  0  0  0  0  0
  1  3  2  0
  1  2  1  0
  2  5  2  0
  3  6  1  0
  4  3  1  0
  6  5  1  0
  6 53  1  0
  7  2  1  0
  7  8  1  0
  9  8  1  0
 11 10  1  0
 11 12  1  0
 11  9  1  0
 13 24  2  0
 14 12  1  0
 14 19  1  0
 15 23  1  0
 15 25  1  0
 16 22  1  0
 16 18  1  0
 17 23  1  0
 18 17  1  0
 19 18  2  0
 20 21  1  0
 20 14  2  0
 21 16  2  0
 22 15  1  0
 23 13  1  0
 25 27  2  0
 26 25  1  0
 28 26  1  0
 29 38  2  0
 29 34  1  0
 30 26  1  0
 30 34  1  0
 31 30  1  0
 32 33  1  0
 32 31  1  0
 33 29  1  0
 34 35  2  0
 35 36  1  0
 37 36  2  0
 38 37  1  0
 39 13  1  0
 39 40  1  0
 39 49  1  0
 40 43  1  0
 41 45  1  0
 41 40  1  0
 42 41  2  0
 45 44  1  0
 47 45  1  0
 47 48  1  0
 47 46  1  0
 49 52  1  1
 49 50  1  0
 51 49  1  0
 53 54  1  0
 54 63  1  0
 55 63  1  0
 56 61  1  0
 57 58  1  0
 57 56  1  0
 59 58  1  0
 59 68  1  0
 59 60  1  0
 61 55  1  0
 61 60  1  0
 62 55  2  0
 63 64  1  0
 65 66  2  0
 66 85  1  0
 67 66  1  0
 67 70  1  0
 68 65  1  0
 68 69  1  0
 69 67  2  0
 70 71  1  0
 71 72  2  0
 73 76  1  0
 73 72  1  0
 74 73  2  0
 75 74  1  0
 75 70  2  0
 76 77  1  0
 77 78  1  0
 78 79  2  0
 80 79  1  0
 80 84  1  0
 81 80  2  0
 82 77  2  0
 82 81  1  0
 83 82  1  0
 85 86  1  0
 86 89  1  0
 86 88  1  0
 87 85  2  0
 90 91  1  0
 90 65  1  0
 92 90  1  0
M  ISO  4  11 101  12 101  55 100  63 100
M  END
>  <TORSDO>  (50) 
F 22

>  <SCORE>  (50) 
-13.177

>  <name>  (50) 
49

>  <ligand_id>  (50) 
49

>  <original_smiles>  (50) 
[H]c1c([H])c([H])c2c(c1[H])C([H])([H])C([H])([H])C([H])([H])C2([H])N([H])C(=O)C1([H])N(C(=O)C([H])(N([H])C(=O)C([H])(N([H])C([H])([H])[H])C([H])([H])[H])C(C([H])([H])[H])(C([H])([H])[H])C([H])([H])[H])C([H])([H])c2c([H])c(OC([H])(C([H])([H])[H])C([H])([H])C([H])([H])C([H])([H])c3nn(C([H])([H])C([H])([H])N([H])C(=O)N4C([H])([H])C([H])([H])C([H])([H])C([H])(n5nc(-c6c([H])c([H])c(Oc7c([H])c([H])c(F)c([H])c7F)c([H])c6[H])c(C(=O)N([H])[H])c5N([H])[H])C4([H])[H])c(C([H])([H])[H])c3[H])c([H])c([H])c2C1([H])[H]

>  <smiles>  (50) 
[H]c1c([H])c([H])c2c(c1[H])C([H])([H])C([H])([H])C([H])([H])C2([H])N([H])C(=O)C1([H])N(C(=O)C([H])(N([H])C(=O)C([H])(N([H])C([H])([H])[H])C([H])([H])[H])C(C([H])([H])[H])(C([H])([H])[H])C([H])([H])[H])C([H])([H])c2c([H])c(OC([H])(C([H])([H])[H])C([H])([H])C([H])([H])C([H])([H])c3nn(C([H])([H])C([H])([H])N([H])C(=O)N4C([H])([H])C([H])([H])C([H])([H])C([H])(n5nc(-c6c([H])c([H])c(Oc7c([H])c([H])c(F)c([H])c7F)c([H])c6[H])c(C(=O)N([H])[H])c5N([H])[H])C4([H])[H])c(C([H])([H])[H])c3[H])c([H])c([H])c2C1([H])[H]

$$$$
50:0:0
     RDKit          3D

 90 98  0  0  1  0  0  0  0  0999 V2000
  -28.5160  -21.3100   20.3340 C   0  0  0  0  0  3  0  0  0  0  0  0
  -29.5710  -20.6160   20.8560 C   0  0  0  0  0  0  0  0  0  0  0  0
  -29.9170  -21.1950   22.0750 N   0  0  0  0  0  0  0  0  0  0  0  0
  -29.1310  -22.1980   22.3170 N   0  0  0  0  0  0  0  0  0  0  0  0
  -28.2710  -22.2950   21.2750 N   0  0  0  0  0  0  0  0  0  0  0  0
  -30.2940  -19.4050   20.3350 C   0  0  0  0  0  2  0  0  0  0  0  0
  -29.6880  -18.0710   20.8280 C   0  0  0  0  0  2  0  0  0  0  0  0
  -30.6360  -16.8850   20.5760 C   0  0  0  0  0  2  0  0  0  0  0  0
  -30.7160  -14.4410   20.4520 C   0  0  0  0  0  0  0  0  0  0  0  0
  -30.3470  -12.2860   19.3420 C   0  0  0  0  0  2  0  0  0  0  0  0
  -29.4280  -12.5290   18.1300 C   0  0  0  0  0  2  0  0  0  0  0  0
  -27.9490  -12.4160   18.5510 C   0  0  0  0  0  2  0  0  0  0  0  0
  -27.6140  -13.2420   19.8250 C   0  0  0  0  0  3  0  0  0  0  0  0
  -28.6700  -13.0340   20.9360 C   0  0  0  0  0  2  0  0  0  0  0  0
  -29.9940  -13.2930   20.3540 N   0  0  0  0  0  0  0  0  0  0  0  0
  -31.8700  -14.5370   20.0320 O   0  0  0  0  0  0  0  0  0  0  0  0
  -30.0540  -15.5530   20.8160 N   0  0  0  0  0  0  0  0  0  0  0  0
  -29.0940  -15.4820   21.1120 H   0  0  0  0  0  0  0  0  0  0  0  0
  -25.2100  -13.8440   20.5140 C   0  0  0  0  0  0  0  0  0  0  0  0
  -24.1400  -13.0750   20.8810 C   0  0  0  0  0  0  0  0  0  0  0  0
  -24.6020  -11.7230   20.8610 C   0  0  0  0  0  0  0  0  0  0  0  0
  -26.2580  -12.9640   20.3000 N   0  0  0  0  0  0  0  0  0  0  0  0
  -25.8940  -11.6820   20.5620 N   0  0  0  0  0  0  0  0  0  0  0  0
  -23.8730  -10.4620   21.0540 C   0  0  0  0  0  0  0  0  0  0  0  0
  -24.3110   -9.4890   21.9770 C   0  0  0  0  0  3  0  0  0  0  0  0
  -23.5820   -8.2950   22.1610 C   0  0  0  0  0  3  0  0  0  0  0  0
  -22.4000   -8.0630   21.4190 C   0  0  0  0  0  0  0  0  0  0  0  0
  -21.9780   -9.0250   20.4850 C   0  0  0  0  0  3  0  0  0  0  0  0
  -22.7080  -10.2120   20.3000 C   0  0  0  0  0  3  0  0  0  0  0  0
  -21.6410   -6.9200   21.5130 O   0  0  0  0  0  0  0  0  0  0  0  0
  -21.6220   -6.1620   22.6550 C   0  0  0  0  0  0  0  0  0  0  0  0
  -21.2490   -6.7020   23.9050 C   0  0  0  0  0  3  0  0  0  0  0  0
  -21.1780   -5.8700   25.0390 C   0  0  0  0  0  3  0  0  0  0  0  0
  -21.4660   -4.4970   24.9250 C   0  0  0  0  0  0  0  0  0  0  0  0
  -21.8320   -3.9540   23.6800 C   0  0  0  0  0  3  0  0  0  0  0  0
  -21.9060   -4.7840   22.5490 C   0  0  0  0  0  0  0  0  0  0  0  0
  -22.2390   -4.2540   21.3470 F   0  0  0  0  0  0  0  0  0  0  0  0
  -21.3900   -3.6950   26.0130 F   0  0  0  0  0  0  0  0  0  0  0  0
  -22.7420  -13.5550   21.1430 C   0  0  0  0  0  0  0  0  0  0  0  0
  -22.0120  -12.8640   22.0110 N   0  0  0  0  0  0  0  0  0  0  0  0
  -22.3080  -14.5770   20.6130 O   0  0  0  0  0  0  0  0  0  0  0  0
  -22.3790  -12.0410   22.4630 H   0  0  0  0  0  0  0  0  0  0  0  0
  -21.0720  -13.1670   22.2310 H   0  0  0  0  0  0  0  0  0  0  0  0
  -25.3770  -15.2120   20.3290 N   0  0  0  0  0  0  0  0  0  0  0  0
  -24.6130  -15.8680   20.4420 H   0  0  0  0  0  0  0  0  0  0  0  0
  -26.2350  -15.6470   20.0150 H   0  0  0  0  0  0  0  0  0  0  0  0
  -27.1980  -23.2780   21.3220 C   0  0  0  0  0  2  0  0  0  0  0  0
  -27.6760  -24.7420   21.4420 C   0  0  0  0  0  2  0  0  0  0  0  0
  -28.3480  -25.3070   20.1690 C   0  0  0  0  0  2  0  0  0  0  0  0
  -28.4120  -26.7410   20.1810 O   0  0  0  0  0  0  0  0  0  0  0  0
  -24.5920  -31.8740   23.2320 C   0  0  0  0  0  0  0  0  0  0  0  0
  -27.2260  -27.4510   20.1430 C   0  0  0  0  0  0  0  0  0  0  0  0
  -23.3790  -30.4740   21.5930 C   0  0  0  0  0  3  0  0  0  0  0  0
  -24.8260  -28.9480   20.1550 C   0  0  0  0  0  0  0  0  0  0  0  0
  -25.9000  -30.8440   21.3800 C   0  0  0  0  0  2  0  0  0  0  0  0
  -25.9860  -29.4770   20.7390 C   0  0  0  0  0  0  0  0  0  0  0  0
  -27.1850  -28.7320   20.7330 C   0  0  0  0  0  3  0  0  0  0  0  0
  -26.0480  -26.9410   19.5460 C   0  0  0  0  0  3  0  0  0  0  0  0
  -24.8520  -27.6790   19.5610 C   0  0  0  0  0  3  0  0  0  0  0  0
  -23.5810  -29.8030   20.2090 C   0  0  0  0  0  2  0  0  0  0  0  0
  -24.6430  -31.0780   22.1270 N   0  0  0  0  0  0  0  0  0  0  0  0
  -23.5140  -32.1440   23.7790 O   0  0  0  0  0  0  0  0  0  0  0  0
  -22.7360  -29.4490   22.5540 C   0  0  0  0  0  0  0  0  0  0  0  0
  -21.4110  -29.2690   22.4380 N   0  0  0  0  0  0  0  0  0  0  0  0
  -23.4260  -28.8210   23.3610 O   0  0  0  0  0  0  0  0  0  0  0  0
  -20.9110  -29.8250   21.7580 H   0  0  0  0  0  0  0  0  0  0  0  0
  -18.0410  -28.0830   22.9500 C   0  0  0  0  0  0  0  0  0  0  0  0
  -20.6000  -28.3310   23.2120 C   0  0  0  0  0  3  0  0  0  0  0  0
  -20.6980  -26.9030   22.6280 C   0  0  0  0  0  2  0  0  0  0  0  0
  -19.5900  -26.5890   21.6200 C   0  0  0  0  0  2  0  0  0  0  0  0
  -18.2100  -26.7350   22.2700 C   0  0  0  0  0  2  0  0  0  0  0  0
  -19.1640  -28.8380   23.3780 C   0  0  0  0  0  0  0  0  0  0  0  0
  -18.9540  -30.1020   23.9710 C   0  0  0  0  0  3  0  0  0  0  0  0
  -17.6520  -30.6080   24.1470 C   0  0  0  0  0  3  0  0  0  0  0  0
  -16.5420  -29.8490   23.7390 C   0  0  0  0  0  3  0  0  0  0  0  0
  -16.7380  -28.5890   23.1440 C   0  0  0  0  0  3  0  0  0  0  0  0
  -25.8820  -32.5060   23.8440 C   0  0  0  0  0  3  0  0  0  0  0  0
  -25.5730  -33.9030   24.1800 N   0  0  0  0  0  0  0  0  0  0  0  0
  -25.9030  -34.9580   23.4240 C   0  0  0  0  0  0  0  0  0  0  0  0
  -26.5710  -34.8590   22.3900 O   0  0  0  0  0  0  0  0  0  0  0  0
  -24.9820  -34.0550   24.9840 H   0  0  0  0  0  0  0  0  0  0  0  0
  -24.1680  -36.7440   23.0840 C   0  0  0  0  0  1  0  0  0  0  0  0
  -25.4150  -36.3430   23.8880 C   0  0  0  0  0  3  0  0  0  0  0  0
  -27.5550  -37.2260   24.7060 C   0  0  0  0  0  1  0  0  0  0  0  0
  -26.4450  -37.3990   23.7740 N   0  0  0  0  0  0  0  0  0  0  0  0
  -26.0390  -38.3180   23.9330 H   0  0  0  0  0  0  0  0  0  0  0  0
  -26.4130  -31.7290   25.1100 C   0  0  1  0  0  0  0  0  0  0  0  0
  -25.3330  -31.4900   26.1880 C   0  0  0  0  0  1  0  0  0  0  0  0
  -26.9940  -30.3550   24.7030 C   0  0  0  0  0  1  0  0  0  0  0  0
  -27.5680  -32.5230   25.7650 C   0  0  0  0  0  1  0  0  0  0  0  0
  1  2  2  0
  1  5  1  0
  2  3  1  0
  3  4  2  0
  5 47  1  0
  5  4  1  0
  6  7  1  0
  6  2  1  0
  8 17  1  0
  8  7  1  0
  9 17  1  0
 10 15  1  0
 11 12  1  0
 11 10  1  0
 13 12  1  0
 13 22  1  0
 13 14  1  0
 15  9  1  0
 15 14  1  0
 16  9  2  0
 17 18  1  0
 19 20  2  0
 20 39  1  0
 21 20  1  0
 21 24  1  0
 22 19  1  0
 22 23  1  0
 23 21  2  0
 24 25  1  0
 25 26  2  0
 27 30  1  0
 27 26  1  0
 28 27  2  0
 29 28  1  0
 29 24  2  0
 30 31  1  0
 31 32  1  0
 32 33  2  0
 34 33  1  0
 34 38  1  0
 35 34  2  0
 36 31  2  0
 36 35  1  0
 37 36  1  0
 39 40  1  0
 40 43  1  0
 40 42  1  0
 41 39  2  0
 44 45  1  0
 44 19  1  0
 46 44  1  0
 47 48  1  0
 49 50  1  0
 49 48  1  0
 51 62  2  0
 52 50  1  0
 52 57  1  0
 53 61  1  0
 53 63  1  0
 54 60  1  0
 54 56  1  0
 55 61  1  0
 56 55  1  0
 57 56  2  0
 58 59  1  0
 58 52  2  0
 59 54  2  0
 60 53  1  0
 61 51  1  0
 63 65  2  0
 64 63  1  0
 66 64  1  0
 67 76  2  0
 67 72  1  0
 68 64  1  0
 68 72  1  0
 69 68  1  0
 70 71  1  0
 70 69  1  0
 71 67  1  0
 72 73  2  0
 73 74  1  0
 75 74  2  0
 76 75  1  0
 77 51  1  0
 77 78  1  0
 77 87  1  0
 78 81  1  0
 79 83  1  0
 79 78  1  0
 80 79  2  0
 83 82  1  0
 85 83  1  0
 85 86  1  0
 85 84  1  0
 87 90  1  1
 87 88  1  0
 89 87  1  0
M  ISO  4   9 100  17 100  49 101  50 101
M  END
>  <TORSDO>  (51) 
F 22

>  <SCORE>  (51) 
-13.354

>  <name>  (51) 
50

>  <ligand_id>  (51) 
50

>  <original_smiles>  (51) 
[H]c1c([H])c([H])c2c(c1[H])C([H])([H])C([H])([H])C([H])([H])C2([H])N([H])C(=O)C1([H])N(C(=O)C([H])(N([H])C(=O)C([H])(N([H])C([H])([H])[H])C([H])([H])[H])C(C([H])([H])[H])(C([H])([H])[H])C([H])([H])[H])C([H])([H])c2c([H])c(OC([H])([H])C([H])([H])C([H])([H])n3nnc(C([H])([H])C([H])([H])C([H])([H])N([H])C(=O)N4C([H])([H])C([H])([H])C([H])([H])C([H])(n5nc(-c6c([H])c([H])c(Oc7c([H])c([H])c(F)c([H])c7F)c([H])c6[H])c(C(=O)N([H])[H])c5N([H])[H])C4([H])[H])c3[H])c([H])c([H])c2C1([H])[H]

>  <smiles>  (51) 
[H]c1c([H])c([H])c2c(c1[H])C([H])([H])C([H])([H])C([H])([H])C2([H])N([H])C(=O)C1([H])N(C(=O)C([H])(N([H])C(=O)C([H])(N([H])C([H])([H])[H])C([H])([H])[H])C(C([H])([H])[H])(C([H])([H])[H])C([H])([H])[H])C([H])([H])c2c([H])c(OC([H])([H])C([H])([H])C([H])([H])n3nnc(C([H])([H])C([H])([H])C([H])([H])N([H])C(=O)N4C([H])([H])C([H])([H])C([H])([H])C([H])(n5nc(-c6c([H])c([H])c(Oc7c([H])c([H])c(F)c([H])c7F)c([H])c6[H])c(C(=O)N([H])[H])c5N([H])[H])C4([H])[H])c3[H])c([H])c([H])c2C1([H])[H]

$$$$
51:0:0
     RDKit          3D

 93101  0  0  1  0  0  0  0  0999 V2000
  -31.3920  -22.4750   21.6740 C   0  0  0  0  0  3  0  0  0  0  0  0
  -30.3750  -21.8370   20.9320 C   0  0  0  0  0  0  0  0  0  0  0  0
  -30.5910  -20.4350   20.7020 C   0  0  0  0  0  0  0  0  0  0  0  0
  -32.6340  -20.5780   21.7520 C   0  0  0  0  0  0  0  0  0  0  0  0
  -33.8920  -19.8650   22.1940 C   0  0  0  0  0  1  0  0  0  0  0  0
  -32.5040  -21.8490   22.0880 N   0  0  0  0  0  0  0  0  0  0  0  0
  -31.7510  -19.8670   21.0730 N   0  0  0  0  0  0  0  0  0  0  0  0
  -29.1680  -22.6760   20.4230 C   0  0  0  0  0  3  0  0  0  0  0  0
  -29.3080  -24.2520   20.5280 C   0  0  0  0  0  3  0  0  0  0  0  0
  -28.1190  -25.1210   20.0060 C   0  0  0  0  0  2  0  0  0  0  0  0
  -28.2840  -26.5600   20.1920 O   0  0  0  0  0  0  0  0  0  0  0  0
  -24.5670  -31.8800   23.2310 C   0  0  0  0  0  0  0  0  0  0  0  0
  -27.1410  -27.3550   20.1520 C   0  0  0  0  0  0  0  0  0  0  0  0
  -23.3420  -30.4900   21.5970 C   0  0  0  0  0  3  0  0  0  0  0  0
  -24.7720  -28.9340   20.1660 C   0  0  0  0  0  0  0  0  0  0  0  0
  -25.8760  -30.8070   21.3930 C   0  0  0  0  0  2  0  0  0  0  0  0
  -25.9430  -29.4320   20.7500 C   0  0  0  0  0  0  0  0  0  0  0  0
  -27.1310  -28.6520   20.7350 C   0  0  0  0  0  3  0  0  0  0  0  0
  -25.9460  -26.8960   19.5490 C   0  0  0  0  0  3  0  0  0  0  0  0
  -24.7720  -27.6680   19.5610 C   0  0  0  0  0  3  0  0  0  0  0  0
  -23.5390  -29.8100   20.2170 C   0  0  0  0  0  2  0  0  0  0  0  0
  -24.6140  -31.0750   22.1310 N   0  0  0  0  0  0  0  0  0  0  0  0
  -23.4890  -32.1650   23.7730 O   0  0  0  0  0  0  0  0  0  0  0  0
  -22.6810  -29.4760   22.5610 C   0  0  0  0  0  0  0  0  0  0  0  0
  -21.3540  -29.3050   22.4380 N   0  0  0  0  0  0  0  0  0  0  0  0
  -23.3610  -28.8470   23.3770 O   0  0  0  0  0  0  0  0  0  0  0  0
  -20.8680  -29.8650   21.7530 H   0  0  0  0  0  0  0  0  0  0  0  0
  -17.9740  -28.1250   22.9380 C   0  0  0  0  0  0  0  0  0  0  0  0
  -20.5320  -28.3750   23.2130 C   0  0  0  0  0  3  0  0  0  0  0  0
  -20.6290  -26.9390   22.6470 C   0  0  0  0  0  2  0  0  0  0  0  0
  -19.5270  -26.6150   21.6330 C   0  0  0  0  0  2  0  0  0  0  0  0
  -18.1450  -26.7700   22.2730 C   0  0  0  0  0  2  0  0  0  0  0  0
  -19.0950  -28.8850   23.3660 C   0  0  0  0  0  0  0  0  0  0  0  0
  -18.8800  -30.1530   23.9470 C   0  0  0  0  0  3  0  0  0  0  0  0
  -17.5770  -30.6620   24.1060 C   0  0  0  0  0  3  0  0  0  0  0  0
  -16.4710  -29.9000   23.6930 C   0  0  0  0  0  3  0  0  0  0  0  0
  -16.6700  -28.6330   23.1160 C   0  0  0  0  0  3  0  0  0  0  0  0
  -25.8600  -32.5000   23.8440 C   0  0  0  0  0  3  0  0  0  0  0  0
  -25.5630  -33.8990   24.1810 N   0  0  0  0  0  0  0  0  0  0  0  0
  -25.8950  -34.9510   23.4220 C   0  0  0  0  0  0  0  0  0  0  0  0
  -26.5550  -34.8470   22.3850 O   0  0  0  0  0  0  0  0  0  0  0  0
  -24.9740  -34.0550   24.9870 H   0  0  0  0  0  0  0  0  0  0  0  0
  -24.1760  -36.7560   23.0870 C   0  0  0  0  0  1  0  0  0  0  0  0
  -25.4200  -36.3410   23.8880 C   0  0  0  0  0  3  0  0  0  0  0  0
  -27.5660  -37.2120   24.7060 C   0  0  0  0  0  1  0  0  0  0  0  0
  -26.4590  -37.3880   23.7700 N   0  0  0  0  0  0  0  0  0  0  0  0
  -26.0600  -38.3100   23.9210 H   0  0  0  0  0  0  0  0  0  0  0  0
  -26.3820  -31.7200   25.1130 C   0  0  1  0  0  0  0  0  0  0  0  0
  -25.2960  -31.4840   26.1890 C   0  0  0  0  0  1  0  0  0  0  0  0
  -26.9530  -30.3420   24.7100 C   0  0  0  0  0  1  0  0  0  0  0  0
  -27.5420  -32.5050   25.7710 C   0  0  0  0  0  1  0  0  0  0  0  0
  -29.6840  -19.4660   19.9210 C   0  0  0  0  0  2  0  0  0  0  0  0
  -29.2890  -18.0730   20.5650 C   0  0  0  0  0  2  0  0  0  0  0  0
  -30.8670  -17.0190   22.3020 C   0  0  0  0  0  1  0  0  0  0  0  0
  -30.3810  -16.9650   20.8390 C   0  0  0  0  0  3  0  0  0  0  0  0
  -30.6000  -14.5220   20.1010 C   0  0  0  0  0  0  0  0  0  0  0  0
  -30.2650  -12.3550   18.9500 C   0  0  0  0  0  2  0  0  0  0  0  0
  -29.2650  -12.5530   17.7920 C   0  0  0  0  0  2  0  0  0  0  0  0
  -27.8140  -12.4020   18.2920 C   0  0  0  0  0  2  0  0  0  0  0  0
  -27.5310  -13.2280   19.5770 C   0  0  0  0  0  3  0  0  0  0  0  0
  -28.6410  -13.0170   20.6310 C   0  0  0  0  0  2  0  0  0  0  0  0
  -29.9280  -13.3390   19.9940 N   0  0  0  0  0  0  0  0  0  0  0  0
  -31.7300  -14.6770   19.6320 O   0  0  0  0  0  0  0  0  0  0  0  0
  -29.9010  -15.5710   20.6090 N   0  0  0  0  0  0  0  0  0  0  0  0
  -28.9580  -15.3620   20.9010 H   0  0  0  0  0  0  0  0  0  0  0  0
  -25.1710  -13.8260   20.4040 C   0  0  0  0  0  0  0  0  0  0  0  0
  -24.1210  -13.0490   20.8160 C   0  0  0  0  0  0  0  0  0  0  0  0
  -24.5800  -11.6980   20.7530 C   0  0  0  0  0  0  0  0  0  0  0  0
  -26.2030  -12.9460   20.1180 N   0  0  0  0  0  0  0  0  0  0  0  0
  -25.8550  -11.6610   20.3860 N   0  0  0  0  0  0  0  0  0  0  0  0
  -23.8620  -10.4340   20.9640 C   0  0  0  0  0  0  0  0  0  0  0  0
  -24.3230   -9.4680   21.8850 C   0  0  0  0  0  3  0  0  0  0  0  0
  -23.6060   -8.2690   22.0850 C   0  0  0  0  0  3  0  0  0  0  0  0
  -22.4120   -8.0280   21.3630 C   0  0  0  0  0  0  0  0  0  0  0  0
  -21.9690   -8.9830   20.4320 C   0  0  0  0  0  3  0  0  0  0  0  0
  -22.6880  -10.1740   20.2300 C   0  0  0  0  0  3  0  0  0  0  0  0
  -21.6630   -6.8800   21.4730 O   0  0  0  0  0  0  0  0  0  0  0  0
  -21.6400   -6.1440   22.6290 C   0  0  0  0  0  0  0  0  0  0  0  0
  -21.2280   -6.7020   23.8600 C   0  0  0  0  0  3  0  0  0  0  0  0
  -21.1530   -5.8900   25.0100 C   0  0  0  0  0  3  0  0  0  0  0  0
  -21.4790   -4.5230   24.9310 C   0  0  0  0  0  0  0  0  0  0  0  0
  -21.8850   -3.9650   23.7050 C   0  0  0  0  0  3  0  0  0  0  0  0
  -21.9630   -4.7740   22.5580 C   0  0  0  0  0  0  0  0  0  0  0  0
  -22.3330   -4.2260   21.3740 F   0  0  0  0  0  0  0  0  0  0  0  0
  -21.4000   -3.7410   26.0330 F   0  0  0  0  0  0  0  0  0  0  0  0
  -22.7370  -13.5250   21.1560 C   0  0  0  0  0  0  0  0  0  0  0  0
  -22.0450  -12.8180   22.0430 N   0  0  0  0  0  0  0  0  0  0  0  0
  -22.2780  -14.5580   20.6690 O   0  0  0  0  0  0  0  0  0  0  0  0
  -22.4290  -11.9850   22.4630 H   0  0  0  0  0  0  0  0  0  0  0  0
  -21.1180  -13.1180   22.3090 H   0  0  0  0  0  0  0  0  0  0  0  0
  -25.3280  -15.1960   20.2270 N   0  0  0  0  0  0  0  0  0  0  0  0
  -24.5640  -15.8500   20.3640 H   0  0  0  0  0  0  0  0  0  0  0  0
  -26.1550  -15.6340   19.8410 H   0  0  0  0  0  0  0  0  0  0  0  0
  1  6  1  0
  2  1  2  0
  3  2  1  0
  3  7  2  0
  4  6  2  0
  4  5  1  0
  7  4  1  0
  8  9  2  0
  8  2  1  0
 10 11  1  0
 10  9  1  0
 12 23  2  0
 13 11  1  0
 13 18  1  0
 14 22  1  0
 14 24  1  0
 15 21  1  0
 15 17  1  0
 16 22  1  0
 17 16  1  0
 18 17  2  0
 19 20  1  0
 19 13  2  0
 20 15  2  0
 21 14  1  0
 22 12  1  0
 24 26  2  0
 25 24  1  0
 27 25  1  0
 28 37  2  0
 28 33  1  0
 29 25  1  0
 29 33  1  0
 30 29  1  0
 31 32  1  0
 31 30  1  0
 32 28  1  0
 33 34  2  0
 34 35  1  0
 36 35  2  0
 37 36  1  0
 38 12  1  0
 38 39  1  0
 38 48  1  0
 39 42  1  0
 40 44  1  0
 40 39  1  0
 41 40  2  0
 44 43  1  0
 46 44  1  0
 46 47  1  0
 46 45  1  0
 48 51  1  1
 48 49  1  0
 50 48  1  0
 52 53  1  0
 52  3  1  0
 53 55  1  0
 55 54  1  0
 56 64  1  0
 57 62  1  0
 58 59  1  0
 58 57  1  0
 60 59  1  0
 60 69  1  0
 60 61  1  0
 62 56  1  0
 62 61  1  0
 63 56  2  0
 64 55  1  0
 64 65  1  0
 66 67  2  0
 67 86  1  0
 68 67  1  0
 68 71  1  0
 69 70  1  0
 69 66  1  0
 70 68  2  0
 71 72  1  0
 72 73  2  0
 74 77  1  0
 74 73  1  0
 75 74  2  0
 76 75  1  0
 76 71  2  0
 77 78  1  0
 78 79  1  0
 79 80  2  0
 81 80  1  0
 81 85  1  0
 82 81  2  0
 83 78  2  0
 83 82  1  0
 84 83  1  0
 86 87  1  0
 87 90  1  0
 87 89  1  0
 88 86  2  0
 91 92  1  0
 91 66  1  0
 93 91  1  0
M  ISO  4  10 101  11 101  56 100  64 100
M  END
>  <TORSDO>  (52) 
F 22

>  <SCORE>  (52) 
-12.782

>  <name>  (52) 
51

>  <ligand_id>  (52) 
51

>  <original_smiles>  (52) 
[H]c1nc(C([H])([H])[H])nc(C([H])([H])C([H])([H])C([H])(N([H])C(=O)N2C([H])([H])C([H])([H])C([H])([H])C([H])(n3nc(-c4c([H])c([H])c(Oc5c([H])c([H])c(F)c([H])c5F)c([H])c4[H])c(C(=O)N([H])[H])c3N([H])[H])C2([H])[H])C([H])([H])[H])c1C([H])([H])C([H])([H])C([H])([H])Oc1c([H])c([H])c2c(c1[H])C([H])([H])N(C(=O)C([H])(N([H])C(=O)C([H])(N([H])C([H])([H])[H])C([H])([H])[H])C(C([H])([H])[H])(C([H])([H])[H])C([H])([H])[H])C([H])(C(=O)N([H])C1([H])c3c([H])c([H])c([H])c([H])c3C([H])([H])C([H])([H])C1([H])[H])C2([H])[H]

>  <smiles>  (52) 
[H]c1nc(C([H])([H])[H])nc(C([H])([H])C([H])([H])C([H])(N([H])C(=O)N2C([H])([H])C([H])([H])C([H])([H])C([H])(n3nc(-c4c([H])c([H])c(Oc5c([H])c([H])c(F)c([H])c5F)c([H])c4[H])c(C(=O)N([H])[H])c3N([H])[H])C2([H])[H])C([H])([H])[H])c1C([H])([H])C([H])([H])C([H])([H])Oc1c([H])c([H])c2c(c1[H])C([H])([H])N(C(=O)C([H])(N([H])C(=O)C([H])(N([H])C([H])([H])[H])C([H])([H])[H])C(C([H])([H])[H])(C([H])([H])[H])C([H])([H])[H])C([H])(C(=O)N([H])C1([H])c3c([H])c([H])c([H])c([H])c3C([H])([H])C([H])([H])C1([H])[H])C2([H])[H]

$$$$
52:0:0
     RDKit          3D

 95103  0  0  1  0  0  0  0  0999 V2000
  -29.8160  -20.6600   19.7530 C   0  0  0  0  0  3  0  0  0  0  0  0
  -28.7090  -21.2670   19.1890 C   0  0  0  0  0  0  0  0  0  0  0  0
  -27.8780  -20.1100   18.8970 C   0  0  0  0  0  0  0  0  0  0  0  0
  -28.4750  -18.9710   19.2580 N   0  0  0  0  0  0  0  0  0  0  0  0
  -29.6960  -19.2680   19.7240 N   0  0  0  0  0  0  0  0  0  0  0  0
  -25.7310  -21.1530   17.9150 C   0  0  0  0  0  1  0  0  0  0  0  0
  -25.6650  -18.8870   18.9270 C   0  0  0  0  0  1  0  0  0  0  0  0
  -26.8960  -19.3030   16.7400 C   0  0  0  0  0  1  0  0  0  0  0  0
  -26.5580  -19.8800   18.1390 C   0  0  2  0  0  0  0  0  0  0  0  0
  -30.7400  -17.3240   18.6040 C   0  0  0  0  0  1  0  0  0  0  0  0
  -32.0980  -18.8360   20.0910 C   0  0  0  0  0  1  0  0  0  0  0  0
  -30.7050  -18.1660   19.9080 C   0  0  1  0  0  0  0  0  0  0  0  0
  -30.4010  -17.2170   21.1610 C   0  0  0  0  0  2  0  0  0  0  0  0
  -30.7610  -14.7280   20.5080 C   0  0  0  0  0  0  0  0  0  0  0  0
  -30.5170  -12.5230   19.3860 C   0  0  0  0  0  2  0  0  0  0  0  0
  -29.5840  -12.6530   18.1610 C   0  0  0  0  0  2  0  0  0  0  0  0
  -28.1000  -12.5240   18.5630 C   0  0  0  0  0  2  0  0  0  0  0  0
  -27.7360  -13.3870   19.8010 C   0  0  0  0  0  3  0  0  0  0  0  0
  -28.7790  -13.2090   20.9290 C   0  0  0  0  0  2  0  0  0  0  0  0
  -30.1020  -13.5350   20.3750 N   0  0  0  0  0  0  0  0  0  0  0  0
  -31.9190  -14.8780   20.1110 O   0  0  0  0  0  0  0  0  0  0  0  0
  -30.0240  -15.7780   20.9510 N   0  0  0  0  0  0  0  0  0  0  0  0
  -29.0850  -15.5340   21.2380 H   0  0  0  0  0  0  0  0  0  0  0  0
  -25.3350  -14.0000   20.4810 C   0  0  0  0  0  0  0  0  0  0  0  0
  -24.2540  -13.2300   20.8290 C   0  0  0  0  0  0  0  0  0  0  0  0
  -24.7070  -11.8780   20.7960 C   0  0  0  0  0  0  0  0  0  0  0  0
  -26.3770  -13.1140   20.2630 N   0  0  0  0  0  0  0  0  0  0  0  0
  -26.0030  -11.8300   20.5100 N   0  0  0  0  0  0  0  0  0  0  0  0
  -23.9680  -10.6200   20.9670 C   0  0  0  0  0  0  0  0  0  0  0  0
  -24.3890   -9.6340   21.8880 C   0  0  0  0  0  3  0  0  0  0  0  0
  -23.6490   -8.4420   22.0480 C   0  0  0  0  0  3  0  0  0  0  0  0
  -22.4740   -8.2280   21.2900 C   0  0  0  0  0  0  0  0  0  0  0  0
  -22.0740   -9.2000   20.3590 C   0  0  0  0  0  3  0  0  0  0  0  0
  -22.8140  -10.3840   20.1950 C   0  0  0  0  0  3  0  0  0  0  0  0
  -21.7060   -7.0880   21.3610 O   0  0  0  0  0  0  0  0  0  0  0  0
  -21.6550   -6.3270   22.4970 C   0  0  0  0  0  0  0  0  0  0  0  0
  -21.2480   -6.8640   23.7390 C   0  0  0  0  0  3  0  0  0  0  0  0
  -21.1450   -6.0300   24.8690 C   0  0  0  0  0  3  0  0  0  0  0  0
  -21.4360   -4.6550   24.7600 C   0  0  0  0  0  0  0  0  0  0  0  0
  -21.8370   -4.1180   23.5220 C   0  0  0  0  0  3  0  0  0  0  0  0
  -21.9410   -4.9500   22.3960 C   0  0  0  0  0  0  0  0  0  0  0  0
  -22.3090   -4.4240   21.2020 F   0  0  0  0  0  0  0  0  0  0  0  0
  -21.3260   -3.8500   25.8400 F   0  0  0  0  0  0  0  0  0  0  0  0
  -22.8560  -13.7190   21.0770 C   0  0  0  0  0  0  0  0  0  0  0  0
  -22.1130  -13.0270   21.9390 N   0  0  0  0  0  0  0  0  0  0  0  0
  -22.4310  -14.7440   20.5500 O   0  0  0  0  0  0  0  0  0  0  0  0
  -22.4700  -12.1980   22.3870 H   0  0  0  0  0  0  0  0  0  0  0  0
  -21.1740  -13.3330   22.1510 H   0  0  0  0  0  0  0  0  0  0  0  0
  -25.5040  -15.3700   20.3140 N   0  0  0  0  0  0  0  0  0  0  0  0
  -24.7360  -16.0210   20.4400 H   0  0  0  0  0  0  0  0  0  0  0  0
  -26.3570  -15.8190   20.0080 H   0  0  0  0  0  0  0  0  0  0  0  0
  -28.5830  -22.7820   18.8140 C   0  0  0  0  0  2  0  0  0  0  0  0
  -28.7610  -23.9170   19.9120 C   0  0  0  0  0  2  0  0  0  0  0  0
  -28.6960  -25.3590   19.2630 C   0  0  0  0  0  2  0  0  0  0  0  0
  -28.4760  -26.5250   20.1130 O   0  0  0  0  0  0  0  0  0  0  0  0
  -24.6220  -31.7260   23.1550 C   0  0  0  0  0  0  0  0  0  0  0  0
  -27.3010  -27.2770   20.0480 C   0  0  0  0  0  0  0  0  0  0  0  0
  -23.4370  -30.3520   21.4760 C   0  0  0  0  0  3  0  0  0  0  0  0
  -24.9070  -28.8340   20.0480 C   0  0  0  0  0  0  0  0  0  0  0  0
  -25.9660  -30.7020   21.3120 C   0  0  0  0  0  2  0  0  0  0  0  0
  -26.0630  -29.3350   20.6570 C   0  0  0  0  0  0  0  0  0  0  0  0
  -27.2540  -28.5610   20.6600 C   0  0  0  0  0  3  0  0  0  0  0  0
  -26.1130  -26.8080   19.4370 C   0  0  0  0  0  3  0  0  0  0  0  0
  -24.9300  -27.5680   19.4420 C   0  0  0  0  0  3  0  0  0  0  0  0
  -23.6660  -29.6990   20.0900 C   0  0  0  0  0  2  0  0  0  0  0  0
  -24.6950  -30.9350   22.0460 N   0  0  0  0  0  0  0  0  0  0  0  0
  -23.5340  -31.9970   23.6850 O   0  0  0  0  0  0  0  0  0  0  0  0
  -22.7630  -29.3210   22.4110 C   0  0  0  0  0  0  0  0  0  0  0  0
  -21.4310  -29.1810   22.3020 N   0  0  0  0  0  0  0  0  0  0  0  0
  -23.4400  -28.6550   23.1980 O   0  0  0  0  0  0  0  0  0  0  0  0
  -20.9440  -29.7790   21.6490 H   0  0  0  0  0  0  0  0  0  0  0  0
  -18.0290  -28.1010   22.8590 C   0  0  0  0  0  0  0  0  0  0  0  0
  -20.6030  -28.2430   23.0620 C   0  0  0  0  0  3  0  0  0  0  0  0
  -20.6300  -26.8400   22.4160 C   0  0  0  0  0  2  0  0  0  0  0  0
  -19.4840  -26.6050   21.4300 C   0  0  0  0  0  2  0  0  0  0  0  0
  -18.1280  -26.7760   22.1220 C   0  0  0  0  0  2  0  0  0  0  0  0
  -19.1920  -28.7930   23.2890 C   0  0  0  0  0  0  0  0  0  0  0  0
  -19.0510  -30.0300   23.9490 C   0  0  0  0  0  3  0  0  0  0  0  0
  -17.7770  -30.5810   24.1810 C   0  0  0  0  0  3  0  0  0  0  0  0
  -16.6290  -29.8850   23.7710 C   0  0  0  0  0  3  0  0  0  0  0  0
  -16.7550  -28.6480   23.1150 C   0  0  0  0  0  3  0  0  0  0  0  0
  -25.9020  -32.3480   23.7930 C   0  0  0  0  0  3  0  0  0  0  0  0
  -25.5900  -33.7390   24.1390 N   0  0  0  0  0  0  0  0  0  0  0  0
  -25.9430  -34.8000   23.4010 C   0  0  0  0  0  0  0  0  0  0  0  0
  -26.6320  -34.7060   22.3810 O   0  0  0  0  0  0  0  0  0  0  0  0
  -24.9720  -33.8830   24.9230 H   0  0  0  0  0  0  0  0  0  0  0  0
  -24.2160  -36.6000   23.0480 C   0  0  0  0  0  1  0  0  0  0  0  0
  -25.4490  -36.1850   23.8690 C   0  0  0  0  0  3  0  0  0  0  0  0
  -27.5730  -37.0570   24.7270 C   0  0  0  0  0  1  0  0  0  0  0  0
  -26.4830  -37.2380   23.7750 N   0  0  0  0  0  0  0  0  0  0  0  0
  -26.0840  -38.1590   23.9350 H   0  0  0  0  0  0  0  0  0  0  0  0
  -26.4050  -31.5560   25.0630 C   0  0  1  0  0  0  0  0  0  0  0  0
  -25.3010  -31.3090   26.1210 C   0  0  0  0  0  1  0  0  0  0  0  0
  -26.9850  -30.1820   24.6560 C   0  0  0  0  0  1  0  0  0  0  0  0
  -27.5600  -32.3320   25.7410 C   0  0  0  0  0  1  0  0  0  0  0  0
  2  1  2  0
  3  2  1  0
  3  4  2  0
  4  5  1  0
  5  1  1  0
  5 12  1  0
  9  6  1  6
  8  9  1  0
  9  3  1  0
  9  7  1  0
 12 10  1  6
 12 11  1  0
 12 13  1  0
 14 22  1  0
 15 20  1  0
 16 17  1  0
 16 15  1  0
 18 17  1  0
 18 27  1  0
 18 19  1  0
 20 14  1  0
 20 19  1  0
 21 14  2  0
 22 13  1  0
 22 23  1  0
 24 25  2  0
 25 44  1  0
 26 25  1  0
 26 29  1  0
 27 24  1  0
 27 28  1  0
 28 26  2  0
 29 30  1  0
 30 31  2  0
 32 35  1  0
 32 31  1  0
 33 32  2  0
 34 33  1  0
 34 29  2  0
 35 36  1  0
 36 37  1  0
 37 38  2  0
 39 38  1  0
 39 43  1  0
 40 39  2  0
 41 36  2  0
 41 40  1  0
 42 41  1  0
 44 45  1  0
 45 48  1  0
 45 47  1  0
 46 44  2  0
 49 50  1  0
 49 24  1  0
 51 49  1  0
 52  2  1  0
 52 53  1  0
 54 53  1  0
 54 55  1  0
 56 67  2  0
 57 55  1  0
 57 62  1  0
 58 66  1  0
 58 68  1  0
 59 65  1  0
 59 61  1  0
 60 66  1  0
 61 62  2  0
 61 60  1  0
 63 64  1  0
 63 57  2  0
 64 59  2  0
 65 58  1  0
 66 56  1  0
 68 70  2  0
 69 68  1  0
 71 69  1  0
 72 81  2  0
 72 77  1  0
 73 69  1  0
 73 77  1  0
 74 73  1  0
 75 76  1  0
 75 74  1  0
 76 72  1  0
 77 78  2  0
 78 79  1  0
 80 79  2  0
 81 80  1  0
 82 56  1  0
 82 83  1  0
 82 92  1  0
 83 86  1  0
 84 88  1  0
 84 83  1  0
 85 84  2  0
 88 87  1  0
 90 88  1  0
 90 91  1  0
 90 89  1  0
 92 95  1  1
 92 93  1  0
 94 92  1  0
M  ISO  4  14 100  22 100  54 101  55 101
M  END
>  <TORSDO>  (53) 
F 22

>  <SCORE>  (53) 
-12.623

>  <name>  (53) 
52

>  <ligand_id>  (53) 
52

>  <original_smiles>  (53) 
[H]c1c([H])c([H])c2c(c1[H])C([H])([H])C([H])([H])C([H])([H])C2([H])N([H])C(=O)C1([H])N(C(=O)C([H])(N([H])C(=O)C([H])(N([H])C([H])([H])[H])C([H])([H])[H])C(C([H])([H])[H])(C([H])([H])[H])C([H])([H])[H])C([H])([H])c2c([H])c(OC([H])([H])C([H])([H])C([H])([H])c3c(C(C([H])([H])[H])(C([H])([H])[H])C([H])([H])[H])nn(C(C([H])([H])[H])(C([H])([H])[H])C([H])([H])N([H])C(=O)N4C([H])([H])C([H])([H])C([H])([H])C([H])(n5nc(-c6c([H])c([H])c(Oc7c([H])c([H])c(F)c([H])c7F)c([H])c6[H])c(C(=O)N([H])[H])c5N([H])[H])C4([H])[H])c3[H])c([H])c([H])c2C1([H])[H]

>  <smiles>  (53) 
[H]c1c([H])c([H])c2c(c1[H])C([H])([H])C([H])([H])C([H])([H])C2([H])N([H])C(=O)C1([H])N(C(=O)C([H])(N([H])C(=O)C([H])(N([H])C([H])([H])[H])C([H])([H])[H])C(C([H])([H])[H])(C([H])([H])[H])C([H])([H])[H])C([H])([H])c2c([H])c(OC([H])([H])C([H])([H])C([H])([H])c3c(C(C([H])([H])[H])(C([H])([H])[H])C([H])([H])[H])nn(C(C([H])([H])[H])(C([H])([H])[H])C([H])([H])N([H])C(=O)N4C([H])([H])C([H])([H])C([H])([H])C([H])(n5nc(-c6c([H])c([H])c(Oc7c([H])c([H])c(F)c([H])c7F)c([H])c6[H])c(C(=O)N([H])[H])c5N([H])[H])C4([H])[H])c3[H])c([H])c([H])c2C1([H])[H]

$$$$
53:0:0
     RDKit          3D

 94102  0  0  1  0  0  0  0  0999 V2000
  -27.8560  -22.1280   19.9420 C   0  0  0  0  0  3  0  0  0  0  0  0
  -29.0690  -21.4970   20.2790 C   0  0  0  0  0  0  0  0  0  0  0  0
  -26.8130  -21.4480   19.2930 C   0  0  0  0  0  0  0  0  0  0  0  0
  -29.1840  -20.0680   19.9230 C   0  0  0  0  0  0  0  0  0  0  0  0
  -27.0020  -20.0790   19.0260 C   0  0  0  0  0  0  0  0  0  0  0  0
  -25.9530  -19.2330   18.3270 C   0  0  0  0  0  1  0  0  0  0  0  0
  -28.1450  -19.4360   19.3300 N   0  0  0  0  0  0  0  0  0  0  0  0
  -25.8740  -22.9790   17.5290 C   0  0  0  0  0  1  0  0  0  0  0  0
  -25.0190  -23.1770   19.9170 C   0  0  0  0  0  1  0  0  0  0  0  0
  -25.5740  -22.2260   18.8360 C   0  0  0  0  0  3  0  0  0  0  0  0
  -30.1210  -22.5090   20.8930 C   0  0  0  0  0  2  0  0  0  0  0  0
  -29.6750  -24.0000   21.4200 C   0  0  0  0  0  3  0  0  0  0  0  0
  -29.1650  -25.2050   20.4650 C   0  0  0  0  0  3  0  0  0  0  0  0
  -29.1440  -26.6330   20.9470 O   0  0  0  0  0  0  0  0  0  0  0  0
  -24.8830  -31.9440   23.4750 C   0  0  0  0  0  0  0  0  0  0  0  0
  -27.9900  -27.4370   20.7690 C   0  0  0  0  0  0  0  0  0  0  0  0
  -23.8900  -30.4110   21.8160 C   0  0  0  0  0  3  0  0  0  0  0  0
  -25.5340  -28.9180   20.5420 C   0  0  0  0  0  0  0  0  0  0  0  0
  -26.4150  -30.8850   21.7940 C   0  0  0  0  0  2  0  0  0  0  0  0
  -26.6270  -29.4910   21.2020 C   0  0  0  0  0  0  0  0  0  0  0  0
  -27.8570  -28.7640   21.3060 C   0  0  0  0  0  3  0  0  0  0  0  0
  -26.8730  -26.9340   20.0640 C   0  0  0  0  0  3  0  0  0  0  0  0
  -25.6630  -27.6480   19.9610 C   0  0  0  0  0  3  0  0  0  0  0  0
  -24.2440  -29.7130   20.4770 C   0  0  0  0  0  2  0  0  0  0  0  0
  -25.0760  -31.1020   22.4170 N   0  0  0  0  0  0  0  0  0  0  0  0
  -23.7500  -32.1640   23.9270 O   0  0  0  0  0  0  0  0  0  0  0  0
  -23.2340  -29.3820   22.7700 C   0  0  0  0  0  0  0  0  0  0  0  0
  -21.9420  -29.0900   22.5510 N   0  0  0  0  0  0  0  0  0  0  0  0
  -23.8910  -28.8530   23.6710 O   0  0  0  0  0  0  0  0  0  0  0  0
  -21.4660  -29.5720   21.8000 H   0  0  0  0  0  0  0  0  0  0  0  0
  -18.6240  -27.6830   22.8930 C   0  0  0  0  0  0  0  0  0  0  0  0
  -21.1400  -28.1190   23.2990 C   0  0  0  0  0  3  0  0  0  0  0  0
  -21.3700  -26.6810   22.7760 C   0  0  0  0  0  2  0  0  0  0  0  0
  -20.3540  -26.2590   21.7110 C   0  0  0  0  0  2  0  0  0  0  0  0
  -18.9270  -26.3290   22.2680 C   0  0  0  0  0  2  0  0  0  0  0  0
  -19.6640  -28.5280   23.3630 C   0  0  0  0  0  0  0  0  0  0  0  0
  -19.3330  -29.7880   23.9060 C   0  0  0  0  0  3  0  0  0  0  0  0
  -17.9910  -30.2060   23.9890 C   0  0  0  0  0  3  0  0  0  0  0  0
  -16.9640  -29.3590   23.5370 C   0  0  0  0  0  3  0  0  0  0  0  0
  -17.2790  -28.1020   22.9920 C   0  0  0  0  0  3  0  0  0  0  0  0
  -26.0760  -32.6900   24.1490 C   0  0  0  0  0  3  0  0  0  0  0  0
  -25.6640  -34.0830   24.3730 N   0  0  0  0  0  0  0  0  0  0  0  0
  -25.9460  -35.1050   23.5540 C   0  0  0  0  0  0  0  0  0  0  0  0
  -26.6530  -34.9820   22.5500 O   0  0  0  0  0  0  0  0  0  0  0  0
  -25.0490  -34.2540   25.1570 H   0  0  0  0  0  0  0  0  0  0  0  0
  -24.0960  -36.7350   23.0570 C   0  0  0  0  0  1  0  0  0  0  0  0
  -25.3520  -36.4840   23.9050 C   0  0  0  0  0  3  0  0  0  0  0  0
  -27.4100  -37.5780   24.6760 C   0  0  0  0  0  1  0  0  0  0  0  0
  -26.3040  -37.6010   23.7250 N   0  0  0  0  0  0  0  0  0  0  0  0
  -25.8280  -38.4950   23.8180 H   0  0  0  0  0  0  0  0  0  0  0  0
  -26.5340  -32.0240   25.5050 C   0  0  1  0  0  0  0  0  0  0  0  0
  -25.3690  -31.7180   26.4750 C   0  0  0  0  0  1  0  0  0  0  0  0
  -27.2860  -30.6990   25.2390 C   0  0  0  0  0  1  0  0  0  0  0  0
  -27.5300  -32.9570   26.2350 C   0  0  0  0  0  1  0  0  0  0  0  0
  -30.4280  -19.0860   19.9180 C   0  0  0  0  0  2  0  0  0  0  0  0
  -30.5870  -17.8590   20.9920 C   0  0  0  0  0  2  0  0  0  0  0  0
  -30.8850  -15.2540   20.5890 C   0  0  0  0  0  0  0  0  0  0  0  0
  -30.7170  -12.9800   19.5550 C   0  0  0  0  0  2  0  0  0  0  0  0
  -29.8200  -13.0340   18.2990 C   0  0  0  0  0  2  0  0  0  0  0  0
  -28.3360  -12.8570   18.6800 C   0  0  0  0  0  2  0  0  0  0  0  0
  -27.9160  -13.7550   19.8750 C   0  0  0  0  0  3  0  0  0  0  0  0
  -28.9360  -13.6790   21.0320 C   0  0  0  0  0  2  0  0  0  0  0  0
  -30.2460  -14.0370   20.4770 N   0  0  0  0  0  0  0  0  0  0  0  0
  -32.0950  -15.3290   20.3600 O   0  0  0  0  0  0  0  0  0  0  0  0
  -30.1250  -16.4080   20.7610 N   0  0  0  0  0  0  0  0  0  0  0  0
  -29.1320  -16.2560   20.8440 H   0  0  0  0  0  0  0  0  0  0  0  0
  -25.5050  -14.3340   20.5240 C   0  0  0  0  0  0  0  0  0  0  0  0
  -24.4260  -13.5570   20.8440 C   0  0  0  0  0  0  0  0  0  0  0  0
  -24.8900  -12.2050   20.8190 C   0  0  0  0  0  0  0  0  0  0  0  0
  -26.5570  -13.4590   20.3200 N   0  0  0  0  0  0  0  0  0  0  0  0
  -26.1940  -12.1730   20.5650 N   0  0  0  0  0  0  0  0  0  0  0  0
  -24.1590  -10.9400   20.9660 C   0  0  0  0  0  0  0  0  0  0  0  0
  -24.5600   -9.9590   21.9000 C   0  0  0  0  0  3  0  0  0  0  0  0
  -23.8270   -8.7610   22.0370 C   0  0  0  0  0  3  0  0  0  0  0  0
  -22.6810   -8.5340   21.2400 C   0  0  0  0  0  0  0  0  0  0  0  0
  -22.3000   -9.5040   20.2960 C   0  0  0  0  0  3  0  0  0  0  0  0
  -23.0320  -10.6940   20.1570 C   0  0  0  0  0  3  0  0  0  0  0  0
  -21.9230   -7.3890   21.2850 O   0  0  0  0  0  0  0  0  0  0  0  0
  -21.8140   -6.6440   22.4320 C   0  0  0  0  0  0  0  0  0  0  0  0
  -21.3290   -7.1970   23.6360 C   0  0  0  0  0  3  0  0  0  0  0  0
  -21.1680   -6.3800   24.7720 C   0  0  0  0  0  3  0  0  0  0  0  0
  -21.4800   -5.0090   24.7040 C   0  0  0  0  0  0  0  0  0  0  0  0
  -21.9590   -4.4550   23.5030 C   0  0  0  0  0  3  0  0  0  0  0  0
  -22.1220   -5.2700   22.3690 C   0  0  0  0  0  0  0  0  0  0  0  0
  -22.5620   -4.7270   21.2100 F   0  0  0  0  0  0  0  0  0  0  0  0
  -21.3200   -4.2210   25.7920 F   0  0  0  0  0  0  0  0  0  0  0  0
  -23.0170  -14.0300   21.0600 C   0  0  0  0  0  0  0  0  0  0  0  0
  -22.2640  -13.3380   21.9080 N   0  0  0  0  0  0  0  0  0  0  0  0
  -22.5940  -15.0490   20.5160 O   0  0  0  0  0  0  0  0  0  0  0  0
  -22.6190  -12.5130   22.3670 H   0  0  0  0  0  0  0  0  0  0  0  0
  -21.3210  -13.6380   22.1030 H   0  0  0  0  0  0  0  0  0  0  0  0
  -25.6730  -15.7070   20.3690 N   0  0  0  0  0  0  0  0  0  0  0  0
  -24.8990  -16.3560   20.4550 H   0  0  0  0  0  0  0  0  0  0  0  0
  -26.5350  -16.1570   20.0860 H   0  0  0  0  0  0  0  0  0  0  0  0
  1  2  1  0
  2 11  1  0
  3  1  2  0
  4  2  2  0
  5  3  1  0
  5  7  2  0
  6  5  1  0
  7  4  1  0
  8 10  1  0
 10  3  1  0
 10  9  1  0
 11 12  1  0
 13 14  1  0
 13 12  2  0
 15 26  2  0
 16 14  1  0
 16 21  1  0
 17 25  1  0
 17 27  1  0
 18 20  1  0
 19 25  1  0
 20 21  2  0
 20 19  1  0
 22 16  2  0
 23 22  1  0
 23 18  2  0
 24 18  1  0
 24 17  1  0
 25 15  1  0
 27 29  2  0
 28 27  1  0
 30 28  1  0
 31 40  2  0
 31 36  1  0
 32 28  1  0
 32 36  1  0
 33 32  1  0
 34 35  1  0
 34 33  1  0
 35 31  1  0
 36 37  2  0
 37 38  1  0
 39 38  2  0
 40 39  1  0
 41 15  1  0
 41 42  1  0
 41 51  1  0
 42 45  1  0
 43 47  1  0
 43 42  1  0
 44 43  2  0
 47 46  1  0
 49 50  1  0
 49 47  1  0
 49 48  1  0
 51 54  1  1
 51 52  1  0
 53 51  1  0
 55  4  1  0
 55 56  1  0
 57 65  1  0
 58 63  1  0
 59 60  1  0
 59 58  1  0
 61 60  1  0
 61 70  1  0
 61 62  1  0
 63 57  1  0
 63 62  1  0
 64 57  2  0
 65 66  1  0
 65 56  1  0
 67 68  2  0
 68 87  1  0
 69 68  1  0
 69 72  1  0
 70 67  1  0
 70 71  1  0
 71 69  2  0
 72 73  1  0
 73 74  2  0
 75 78  1  0
 75 74  1  0
 76 75  2  0
 77 76  1  0
 77 72  2  0
 78 79  1  0
 79 80  1  0
 80 81  2  0
 82 81  1  0
 82 86  1  0
 83 82  2  0
 84 79  2  0
 84 83  1  0
 85 84  1  0
 87 88  1  0
 88 91  1  0
 88 90  1  0
 89 87  2  0
 92 93  1  0
 92 67  1  0
 94 92  1  0
M  ISO  4  13 101  14 101  57 100  65 100
M  END
>  <TORSDO>  (54) 
F 22

>  <SCORE>  (54) 
-11.701

>  <name>  (54) 
53

>  <ligand_id>  (54) 
53

>  <original_smiles>  (54) 
[H]c1c([H])c([H])c2c(c1[H])C([H])([H])C([H])([H])C([H])([H])C2([H])N([H])C(=O)C1([H])N(C(=O)C([H])(N([H])C(=O)C([H])(N([H])C([H])([H])[H])C([H])([H])[H])C(C([H])([H])[H])(C([H])([H])[H])C([H])([H])[H])C([H])([H])c2c([H])c(OC([H])([H])C([H])([H])C([H])([H])c3c(C([H])([H])C([H])([H])N([H])C(=O)N4C([H])([H])C([H])([H])C([H])([H])C([H])(n5nc(-c6c([H])c([H])c(Oc7c([H])c([H])c(F)c([H])c7F)c([H])c6[H])c(C(=O)N([H])[H])c5N([H])[H])C4([H])[H])nc(C([H])([H])[H])c(C([H])(C([H])([H])[H])C([H])([H])[H])c3[H])c([H])c([H])c2C1([H])[H]

>  <smiles>  (54) 
[H]c1c([H])c([H])c2c(c1[H])C([H])([H])C([H])([H])C([H])([H])C2([H])N([H])C(=O)C1([H])N(C(=O)C([H])(N([H])C(=O)C([H])(N([H])C([H])([H])[H])C([H])([H])[H])C(C([H])([H])[H])(C([H])([H])[H])C([H])([H])[H])C([H])([H])c2c([H])c(OC([H])([H])C([H])([H])C([H])([H])c3c(C([H])([H])C([H])([H])N([H])C(=O)N4C([H])([H])C([H])([H])C([H])([H])C([H])(n5nc(-c6c([H])c([H])c(Oc7c([H])c([H])c(F)c([H])c7F)c([H])c6[H])c(C(=O)N([H])[H])c5N([H])[H])C4([H])[H])nc(C([H])([H])[H])c(C([H])(C([H])([H])[H])C([H])([H])[H])c3[H])c([H])c([H])c2C1([H])[H]

$$$$
54:0:0
     RDKit          3D

 96104  0  0  1  0  0  0  0  0999 V2000
  -28.9010  -22.0450   20.6020 C   0  0  0  0  0  3  0  0  0  0  0  0
  -29.3680  -23.3880   20.7490 C   0  0  0  0  0  0  0  0  0  0  0  0
  -29.8210  -20.9920   20.3260 C   0  0  0  0  0  0  0  0  0  0  0  0
  -30.7810  -23.5380   20.6020 C   0  0  0  0  0  0  0  0  0  0  0  0
  -31.1360  -21.2500   20.1660 N   0  0  0  0  0  0  0  0  0  0  0  0
  -31.5970  -22.4920   20.3060 N   0  0  0  0  0  0  0  0  0  0  0  0
  -28.3500  -24.4900   21.1960 C   0  0  0  0  0  2  0  0  0  0  0  0
  -28.5490  -26.0470   21.0210 C   0  0  0  0  0  2  0  0  0  0  0  0
  -28.0650  -26.6550   19.8090 O   0  0  0  0  0  0  0  0  0  0  0  0
  -24.4900  -31.9040   23.1840 C   0  0  0  0  0  0  0  0  0  0  0  0
  -26.9420  -27.4560   19.9270 C   0  0  0  0  0  0  0  0  0  0  0  0
  -23.2000  -30.5470   21.5680 C   0  0  0  0  0  3  0  0  0  0  0  0
  -24.5760  -29.0120   20.0600 C   0  0  0  0  0  0  0  0  0  0  0  0
  -25.7240  -30.8660   21.2790 C   0  0  0  0  0  2  0  0  0  0  0  0
  -25.7650  -29.5010   20.6150 C   0  0  0  0  0  0  0  0  0  0  0  0
  -26.9540  -28.7290   20.5520 C   0  0  0  0  0  3  0  0  0  0  0  0
  -25.7410  -26.9910   19.3590 C   0  0  0  0  0  3  0  0  0  0  0  0
  -24.5590  -27.7530   19.4310 C   0  0  0  0  0  3  0  0  0  0  0  0
  -23.3470  -29.8870   20.1690 C   0  0  0  0  0  2  0  0  0  0  0  0
  -24.4910  -31.1210   22.0660 N   0  0  0  0  0  0  0  0  0  0  0  0
  -23.4340  -32.1830   23.7700 O   0  0  0  0  0  0  0  0  0  0  0  0
  -22.5720  -29.5200   22.5370 C   0  0  0  0  0  0  0  0  0  0  0  0
  -21.2460  -29.3330   22.4370 N   0  0  0  0  0  0  0  0  0  0  0  0
  -23.2750  -28.8950   23.3360 O   0  0  0  0  0  0  0  0  0  0  0  0
  -20.7390  -29.8880   21.7630 H   0  0  0  0  0  0  0  0  0  0  0  0
  -17.8990  -28.0690   22.9520 C   0  0  0  0  0  0  0  0  0  0  0  0
  -20.4510  -28.3870   23.2190 C   0  0  0  0  0  3  0  0  0  0  0  0
  -20.5840  -26.9510   22.6590 C   0  0  0  0  0  2  0  0  0  0  0  0
  -19.4890  -26.5930   21.6500 C   0  0  0  0  0  2  0  0  0  0  0  0
  -18.1050  -26.7170   22.2930 C   0  0  0  0  0  2  0  0  0  0  0  0
  -19.0000  -28.8600   23.3730 C   0  0  0  0  0  0  0  0  0  0  0  0
  -18.7560  -30.1260   23.9490 C   0  0  0  0  0  3  0  0  0  0  0  0
  -17.4410  -30.6010   24.1090 C   0  0  0  0  0  3  0  0  0  0  0  0
  -16.3530  -29.8080   23.7050 C   0  0  0  0  0  3  0  0  0  0  0  0
  -16.5830  -28.5440   23.1320 C   0  0  0  0  0  3  0  0  0  0  0  0
  -25.8070  -32.5060   23.7610 C   0  0  0  0  0  3  0  0  0  0  0  0
  -25.5320  -33.9020   24.1300 N   0  0  0  0  0  0  0  0  0  0  0  0
  -25.8690  -34.9660   23.3880 C   0  0  0  0  0  0  0  0  0  0  0  0
  -26.5140  -34.8730   22.3400 O   0  0  0  0  0  0  0  0  0  0  0  0
  -24.9550  -34.0490   24.9450 H   0  0  0  0  0  0  0  0  0  0  0  0
  -24.1730  -36.8000   23.1040 C   0  0  0  0  0  1  0  0  0  0  0  0
  -25.4170  -36.3510   23.8870 C   0  0  0  0  0  3  0  0  0  0  0  0
  -27.5800  -37.1730   24.7080 C   0  0  0  0  0  1  0  0  0  0  0  0
  -26.4680  -37.3850   23.7850 N   0  0  0  0  0  0  0  0  0  0  0  0
  -26.0830  -38.3090   23.9590 H   0  0  0  0  0  0  0  0  0  0  0  0
  -26.3700  -31.7030   24.9980 C   0  0  1  0  0  0  0  0  0  0  0  0
  -25.3230  -31.4640   26.1100 C   0  0  0  0  0  1  0  0  0  0  0  0
  -26.9100  -30.3240   24.5540 C   0  0  0  0  0  1  0  0  0  0  0  0
  -27.5620  -32.4660   25.6200 C   0  0  0  0  0  1  0  0  0  0  0  0
  -29.4000  -19.5430   20.0060 C   0  0  0  0  0  2  0  0  0  0  0  0
  -29.9750  -18.3780   20.8940 C   0  0  0  0  0  2  0  0  0  0  0  0
  -30.1400  -17.0440   20.0900 C   0  0  0  0  0  2  0  0  0  0  0  0
  -30.8590  -14.6890   20.5980 C   0  0  0  0  0  0  0  0  0  0  0  0
  -30.6640  -12.4310   19.6290 C   0  0  0  0  0  2  0  0  0  0  0  0
  -29.7870  -12.5450   18.3640 C   0  0  0  0  0  2  0  0  0  0  0  0
  -28.2920  -12.4200   18.7190 C   0  0  0  0  0  2  0  0  0  0  0  0
  -27.8810  -13.3260   19.9120 C   0  0  0  0  0  3  0  0  0  0  0  0
  -28.8810  -13.1990   21.0860 C   0  0  0  0  0  2  0  0  0  0  0  0
  -30.2290  -13.4800   20.5680 N   0  0  0  0  0  0  0  0  0  0  0  0
  -32.0180  -14.8390   20.1990 O   0  0  0  0  0  0  0  0  0  0  0  0
  -30.0600  -15.7580   20.8330 N   0  0  0  0  0  0  0  0  0  0  0  0
  -29.1530  -15.5260   21.2130 H   0  0  0  0  0  0  0  0  0  0  0  0
  -25.4660  -13.9680   20.5230 C   0  0  0  0  0  0  0  0  0  0  0  0
  -24.3740  -13.2130   20.8550 C   0  0  0  0  0  0  0  0  0  0  0  0
  -24.8180  -11.8540   20.8500 C   0  0  0  0  0  0  0  0  0  0  0  0
  -26.5070  -13.0710   20.3370 N   0  0  0  0  0  0  0  0  0  0  0  0
  -26.1180  -11.7960   20.5920 N   0  0  0  0  0  0  0  0  0  0  0  0
  -24.0690  -10.6030   21.0200 C   0  0  0  0  0  0  0  0  0  0  0  0
  -24.4550   -9.6370   21.9740 C   0  0  0  0  0  3  0  0  0  0  0  0
  -23.7080   -8.4490   22.1320 C   0  0  0  0  0  3  0  0  0  0  0  0
  -22.5630   -8.2180   21.3340 C   0  0  0  0  0  0  0  0  0  0  0  0
  -22.1960   -9.1740   20.3690 C   0  0  0  0  0  3  0  0  0  0  0  0
  -22.9430  -10.3530   20.2100 C   0  0  0  0  0  3  0  0  0  0  0  0
  -21.7930   -7.0820   21.3990 O   0  0  0  0  0  0  0  0  0  0  0  0
  -21.6810   -6.3520   22.5550 C   0  0  0  0  0  0  0  0  0  0  0  0
  -21.1940   -6.9220   23.7510 C   0  0  0  0  0  3  0  0  0  0  0  0
  -21.0310   -6.1200   24.8980 C   0  0  0  0  0  3  0  0  0  0  0  0
  -21.3420   -4.7490   24.8490 C   0  0  0  0  0  0  0  0  0  0  0  0
  -21.8220   -4.1770   23.6570 C   0  0  0  0  0  3  0  0  0  0  0  0
  -21.9870   -4.9770   22.5130 C   0  0  0  0  0  0  0  0  0  0  0  0
  -22.4280   -4.4160   21.3600 F   0  0  0  0  0  0  0  0  0  0  0  0
  -21.1760   -3.9760   25.9480 F   0  0  0  0  0  0  0  0  0  0  0  0
  -22.9730  -13.7100   21.0700 C   0  0  0  0  0  0  0  0  0  0  0  0
  -22.2020  -13.0340   21.9140 N   0  0  0  0  0  0  0  0  0  0  0  0
  -22.5710  -14.7360   20.5240 O   0  0  0  0  0  0  0  0  0  0  0  0
  -22.5370  -12.2040   22.3820 H   0  0  0  0  0  0  0  0  0  0  0  0
  -21.2600  -13.3520   22.0960 H   0  0  0  0  0  0  0  0  0  0  0  0
  -25.6560  -15.3350   20.3430 N   0  0  0  0  0  0  0  0  0  0  0  0
  -24.8950  -16.0000   20.4080 H   0  0  0  0  0  0  0  0  0  0  0  0
  -26.5250  -15.7580   20.0410 H   0  0  0  0  0  0  0  0  0  0  0  0
  -31.5560  -24.8400   20.7280 C   0  0  0  0  0  2  0  0  0  0  0  0
  -31.6050  -25.5890   19.3760 C   0  0  0  0  0  2  0  0  0  0  0  0
  -31.5950  -27.9870   20.2220 C   0  0  0  0  0  1  0  0  0  0  0  0
  -32.3400  -27.4660   17.8950 C   0  0  0  0  0  1  0  0  0  0  0  0
  -33.7910  -26.8280   19.8270 C   0  0  0  0  0  1  0  0  0  0  0  0
  -32.3330  -26.9580   19.3490 C   0  0  2  0  0  0  0  0  0  0  0  0
  1  2  1  0
  2  7  1  0
  3  1  2  0
  4 91  1  0
  4  2  2  0
  5  6  2  0
  5  3  1  0
  6  4  1  0
  8  7  1  0
  9 11  1  0
  9  8  1  0
 10 21  2  0
 11 16  1  0
 12 20  1  0
 12 22  1  0
 13 19  1  0
 13 15  1  0
 14 20  1  0
 15 14  1  0
 16 15  2  0
 17 18  1  0
 17 11  2  0
 18 13  2  0
 19 12  1  0
 20 10  1  0
 22 24  2  0
 23 22  1  0
 25 23  1  0
 26 35  2  0
 26 31  1  0
 27 23  1  0
 27 31  1  0
 28 27  1  0
 29 30  1  0
 29 28  1  0
 30 26  1  0
 31 32  2  0
 32 33  1  0
 34 33  2  0
 35 34  1  0
 36 10  1  0
 36 37  1  0
 36 46  1  0
 37 40  1  0
 38 42  1  0
 38 37  1  0
 39 38  2  0
 42 41  1  0
 44 42  1  0
 44 45  1  0
 44 43  1  0
 46 49  1  1
 46 47  1  0
 48 46  1  0
 50  3  1  0
 50 51  1  0
 52 61  1  0
 52 51  1  0
 53 61  1  0
 54 59  1  0
 55 56  1  0
 55 54  1  0
 57 56  1  0
 57 66  1  0
 57 58  1  0
 59 53  1  0
 59 58  1  0
 60 53  2  0
 61 62  1  0
 63 64  2  0
 64 83  1  0
 65 64  1  0
 65 68  1  0
 66 63  1  0
 66 67  1  0
 67 65  2  0
 68 69  1  0
 69 70  2  0
 71 74  1  0
 71 70  1  0
 72 71  2  0
 73 72  1  0
 73 68  2  0
 74 75  1  0
 75 76  1  0
 76 77  2  0
 78 77  1  0
 78 82  1  0
 79 78  2  0
 80 75  2  0
 80 79  1  0
 81 80  1  0
 83 84  1  0
 84 87  1  0
 84 86  1  0
 85 83  2  0
 88 89  1  0
 88 63  1  0
 90 88  1  0
 92 91  1  0
 96 94  1  6
 96 92  1  0
 96 95  1  0
 96 93  1  0
M  ISO  4   8 101   9 101  53 100  61 100
M  END
>  <TORSDO>  (55) 
F 24

>  <SCORE>  (55) 
-12.471

>  <name>  (55) 
54

>  <ligand_id>  (55) 
54

>  <original_smiles>  (55) 
[H]c1c([H])c([H])c2c(c1[H])C([H])([H])C([H])([H])C([H])([H])C2([H])N([H])C(=O)C1([H])N(C(=O)C([H])(N([H])C(=O)C([H])(N([H])C([H])([H])[H])C([H])([H])[H])C(C([H])([H])[H])(C([H])([H])[H])C([H])([H])[H])C([H])([H])c2c([H])c(OC([H])([H])C([H])([H])c3c(C([H])([H])C([H])([H])C(C([H])([H])[H])(C([H])([H])[H])C([H])([H])[H])nnc(C([H])([H])C([H])([H])C([H])([H])N([H])C(=O)N4C([H])([H])C([H])([H])C([H])([H])C([H])(n5nc(-c6c([H])c([H])c(Oc7c([H])c([H])c(F)c([H])c7F)c([H])c6[H])c(C(=O)N([H])[H])c5N([H])[H])C4([H])[H])c3[H])c([H])c([H])c2C1([H])[H]

>  <smiles>  (55) 
[H]c1c([H])c([H])c2c(c1[H])C([H])([H])C([H])([H])C([H])([H])C2([H])N([H])C(=O)C1([H])N(C(=O)C([H])(N([H])C(=O)C([H])(N([H])C([H])([H])[H])C([H])([H])[H])C(C([H])([H])[H])(C([H])([H])[H])C([H])([H])[H])C([H])([H])c2c([H])c(OC([H])([H])C([H])([H])c3c(C([H])([H])C([H])([H])C(C([H])([H])[H])(C([H])([H])[H])C([H])([H])[H])nnc(C([H])([H])C([H])([H])C([H])([H])N([H])C(=O)N4C([H])([H])C([H])([H])C([H])([H])C([H])(n5nc(-c6c([H])c([H])c(Oc7c([H])c([H])c(F)c([H])c7F)c([H])c6[H])c(C(=O)N([H])[H])c5N([H])[H])C4([H])[H])c3[H])c([H])c([H])c2C1([H])[H]

$$$$
55:0:0
     RDKit          3D

 93101  0  0  1  0  0  0  0  0999 V2000
  -29.7830  -21.1860   21.7740 C   0  0  0  0  0  3  0  0  0  0  0  0
  -29.6170  -22.1850   20.7850 C   0  0  0  0  0  0  0  0  0  0  0  0
  -30.0950  -19.8620   21.3690 C   0  0  0  0  0  0  0  0  0  0  0  0
  -29.8300  -21.7790   19.4440 C   0  0  0  0  0  0  0  0  0  0  0  0
  -29.8220  -22.7560   18.2850 C   0  0  0  0  0  1  0  0  0  0  0  0
  -30.1640  -19.5420   20.0520 N   0  0  0  0  0  0  0  0  0  0  0  0
  -30.0670  -20.4860   19.1100 N   0  0  0  0  0  0  0  0  0  0  0  0
  -30.9220  -19.1630   23.6940 C   0  0  0  0  0  1  0  0  0  0  0  0
  -30.2850  -18.6950   22.3660 C   0  0  0  0  0  3  0  0  0  0  0  0
  -31.1010  -17.4910   21.7860 C   0  0  0  0  0  2  0  0  0  0  0  0
  -30.2780  -16.2090   21.4760 C   0  0  0  0  0  2  0  0  0  0  0  0
  -31.3620  -14.4540   20.0480 C   0  0  0  0  0  0  0  0  0  0  0  0
  -30.9000  -12.3010   18.9560 C   0  0  0  0  0  2  0  0  0  0  0  0
  -29.9540  -12.5560   17.7650 C   0  0  0  0  0  2  0  0  0  0  0  0
  -28.4820  -12.4970   18.2250 C   0  0  0  0  0  2  0  0  0  0  0  0
  -28.2180  -13.3720   19.4850 C   0  0  0  0  0  3  0  0  0  0  0  0
  -29.2830  -13.1080   20.5740 C   0  0  0  0  0  2  0  0  0  0  0  0
  -30.6080  -13.3250   19.9710 N   0  0  0  0  0  0  0  0  0  0  0  0
  -32.5010  -14.5320   19.5840 O   0  0  0  0  0  0  0  0  0  0  0  0
  -30.6780  -15.5980   20.2080 N   0  0  0  0  0  0  0  0  0  0  0  0
  -31.0080  -16.3040   19.5650 H   0  0  0  0  0  0  0  0  0  0  0  0
  -25.8850  -14.1330   20.2520 C   0  0  0  0  0  0  0  0  0  0  0  0
  -24.7810  -13.4290   20.6530 C   0  0  0  0  0  0  0  0  0  0  0  0
  -25.1590  -12.0530   20.6200 C   0  0  0  0  0  0  0  0  0  0  0  0
  -26.8660  -13.1860   19.9990 N   0  0  0  0  0  0  0  0  0  0  0  0
  -26.4340  -11.9300   20.2760 N   0  0  0  0  0  0  0  0  0  0  0  0
  -24.3640  -10.8370   20.8340 C   0  0  0  0  0  0  0  0  0  0  0  0
  -24.7360   -9.8670   21.7930 C   0  0  0  0  0  3  0  0  0  0  0  0
  -23.9440   -8.7150   21.9890 C   0  0  0  0  0  3  0  0  0  0  0  0
  -22.7630   -8.5290   21.2300 C   0  0  0  0  0  0  0  0  0  0  0  0
  -22.4120   -9.4840   20.2620 C   0  0  0  0  0  3  0  0  0  0  0  0
  -23.2050  -10.6260   20.0620 C   0  0  0  0  0  3  0  0  0  0  0  0
  -21.9420   -7.4320   21.3430 O   0  0  0  0  0  0  0  0  0  0  0  0
  -21.8150   -6.7440   22.5240 C   0  0  0  0  0  0  0  0  0  0  0  0
  -21.3850   -7.3750   23.7120 C   0  0  0  0  0  3  0  0  0  0  0  0
  -21.2020   -6.6160   24.8860 C   0  0  0  0  0  3  0  0  0  0  0  0
  -21.4370   -5.2280   24.8710 C   0  0  0  0  0  0  0  0  0  0  0  0
  -21.8580   -4.5970   23.6880 C   0  0  0  0  0  3  0  0  0  0  0  0
  -22.0460   -5.3540   22.5160 C   0  0  0  0  0  0  0  0  0  0  0  0
  -22.4330   -4.7370   21.3730 F   0  0  0  0  0  0  0  0  0  0  0  0
  -21.2530   -4.4960   25.9960 F   0  0  0  0  0  0  0  0  0  0  0  0
  -23.4220  -13.9910   20.9550 C   0  0  0  0  0  0  0  0  0  0  0  0
  -22.6790  -13.3490   21.8510 N   0  0  0  0  0  0  0  0  0  0  0  0
  -23.0290  -15.0320   20.4320 O   0  0  0  0  0  0  0  0  0  0  0  0
  -23.0030  -12.5040   22.2950 H   0  0  0  0  0  0  0  0  0  0  0  0
  -21.7650  -13.7030   22.0910 H   0  0  0  0  0  0  0  0  0  0  0  0
  -26.1290  -15.4900   20.0610 N   0  0  0  0  0  0  0  0  0  0  0  0
  -25.4090  -16.1900   20.1970 H   0  0  0  0  0  0  0  0  0  0  0  0
  -26.9910  -15.8780   19.6940 H   0  0  0  0  0  0  0  0  0  0  0  0
  -29.2430  -23.6240   21.1720 C   0  0  0  0  0  2  0  0  0  0  0  0
  -27.9420  -24.1540   20.5090 C   0  0  0  0  0  2  0  0  0  0  0  0
  -28.1470  -25.2940   19.4800 C   0  0  0  0  0  2  0  0  0  0  0  0
  -28.1010  -26.6010   20.0660 O   0  0  0  0  0  0  0  0  0  0  0  0
  -24.5090  -31.8470   23.2570 C   0  0  0  0  0  0  0  0  0  0  0  0
  -26.9160  -27.3150   20.0990 C   0  0  0  0  0  0  0  0  0  0  0  0
  -23.2090  -30.4800   21.6600 C   0  0  0  0  0  3  0  0  0  0  0  0
  -24.5620  -28.8920   20.1970 C   0  0  0  0  0  0  0  0  0  0  0  0
  -25.7370  -30.7570   21.3770 C   0  0  0  0  0  2  0  0  0  0  0  0
  -25.7560  -29.3830   20.7370 C   0  0  0  0  0  0  0  0  0  0  0  0
  -26.9330  -28.6040   20.6820 C   0  0  0  0  0  3  0  0  0  0  0  0
  -25.6920  -26.8280   19.5800 C   0  0  0  0  0  3  0  0  0  0  0  0
  -24.5240  -27.6110   19.6240 C   0  0  0  0  0  3  0  0  0  0  0  0
  -23.3500  -29.7930   20.2760 C   0  0  0  0  0  2  0  0  0  0  0  0
  -24.5060  -31.0430   22.1550 N   0  0  0  0  0  0  0  0  0  0  0  0
  -23.4540  -32.1550   23.8290 O   0  0  0  0  0  0  0  0  0  0  0  0
  -22.5550  -29.4830   22.6430 C   0  0  0  0  0  0  0  0  0  0  0  0
  -21.2300  -29.2990   22.5170 N   0  0  0  0  0  0  0  0  0  0  0  0
  -23.2350  -28.8730   23.4700 O   0  0  0  0  0  0  0  0  0  0  0  0
  -20.7400  -29.8420   21.8200 H   0  0  0  0  0  0  0  0  0  0  0  0
  -17.8630  -28.0730   22.9840 C   0  0  0  0  0  0  0  0  0  0  0  0
  -20.4100  -28.3810   23.3060 C   0  0  0  0  0  3  0  0  0  0  0  0
  -20.5470  -26.9300   22.7910 C   0  0  0  0  0  2  0  0  0  0  0  0
  -19.4750  -26.5490   21.7660 C   0  0  0  0  0  2  0  0  0  0  0  0
  -18.0760  -26.7010   22.3710 C   0  0  0  0  0  2  0  0  0  0  0  0
  -18.9600  -28.8700   23.4080 C   0  0  0  0  0  0  0  0  0  0  0  0
  -18.7090  -30.1540   23.9380 C   0  0  0  0  0  3  0  0  0  0  0  0
  -17.3930  -30.6420   24.0520 C   0  0  0  0  0  3  0  0  0  0  0  0
  -16.3100  -29.8430   23.6450 C   0  0  0  0  0  3  0  0  0  0  0  0
  -16.5460  -28.5610   23.1160 C   0  0  0  0  0  3  0  0  0  0  0  0
  -25.8330  -32.4350   23.8350 C   0  0  0  0  0  3  0  0  0  0  0  0
  -25.5780  -33.8390   24.1850 N   0  0  0  0  0  0  0  0  0  0  0  0
  -25.9260  -34.8860   23.4250 C   0  0  0  0  0  0  0  0  0  0  0  0
  -26.5710  -34.7710   22.3790 O   0  0  0  0  0  0  0  0  0  0  0  0
  -25.0060  -34.0060   25.0000 H   0  0  0  0  0  0  0  0  0  0  0  0
  -24.2500  -36.7350   23.1230 C   0  0  0  0  0  1  0  0  0  0  0  0
  -25.4940  -36.2860   23.9030 C   0  0  0  0  0  3  0  0  0  0  0  0
  -27.6730  -37.0970   24.6940 C   0  0  0  0  0  1  0  0  0  0  0  0
  -26.5560  -37.3070   23.7750 N   0  0  0  0  0  0  0  0  0  0  0  0
  -26.1830  -38.2370   23.9370 H   0  0  0  0  0  0  0  0  0  0  0  0
  -26.3750  -31.6390   25.0870 C   0  0  1  0  0  0  0  0  0  0  0  0
  -25.3150  -31.4150   26.1890 C   0  0  0  0  0  1  0  0  0  0  0  0
  -26.9090  -30.2530   24.6580 C   0  0  0  0  0  1  0  0  0  0  0  0
  -27.5670  -32.3990   25.7160 C   0  0  0  0  0  1  0  0  0  0  0  0
  2 50  1  0
  2  1  2  0
  3  1  1  0
  3  9  1  0
  4  2  1  0
  5  4  1  0
  6  3  2  0
  7  4  2  0
  7  6  1  0
  9  8  1  0
 10  9  1  0
 11 10  1  0
 12 20  1  0
 13 18  1  0
 14 15  1  0
 14 13  1  0
 16 15  1  0
 16 25  1  0
 16 17  1  0
 18 12  1  0
 18 17  1  0
 19 12  2  0
 20 11  1  0
 21 20  1  0
 22 23  2  0
 23 42  1  0
 24 23  1  0
 24 27  1  0
 25 22  1  0
 25 26  1  0
 26 24  2  0
 27 28  1  0
 28 29  2  0
 30 33  1  0
 30 29  1  0
 31 30  2  0
 32 31  1  0
 32 27  2  0
 33 34  1  0
 34 35  1  0
 35 36  2  0
 37 36  1  0
 37 41  1  0
 38 37  2  0
 39 34  2  0
 39 38  1  0
 40 39  1  0
 42 43  1  0
 43 46  1  0
 43 45  1  0
 44 42  2  0
 47 48  1  0
 47 22  1  0
 49 47  1  0
 51 50  1  0
 52 53  1  0
 52 51  1  0
 53 55  1  0
 54 65  2  0
 55 60  1  0
 56 64  1  0
 56 66  1  0
 57 63  1  0
 57 59  1  0
 58 64  1  0
 59 58  1  0
 60 59  2  0
 61 62  1  0
 61 55  2  0
 62 57  2  0
 63 56  1  0
 64 54  1  0
 66 68  2  0
 67 66  1  0
 69 67  1  0
 70 79  2  0
 70 75  1  0
 71 67  1  0
 71 75  1  0
 72 71  1  0
 73 74  1  0
 73 72  1  0
 74 70  1  0
 75 76  2  0
 76 77  1  0
 78 77  2  0
 79 78  1  0
 80 54  1  0
 80 81  1  0
 80 90  1  0
 81 84  1  0
 82 86  1  0
 82 81  1  0
 83 82  2  0
 86 85  1  0
 88 86  1  0
 88 89  1  0
 88 87  1  0
 90 93  1  1
 90 91  1  0
 92 90  1  0
M  ISO  4  12 100  20 100  52 101  53 101
M  END
>  <TORSDO>  (56) 
F 22

>  <SCORE>  (56) 
-11.991

>  <name>  (56) 
55

>  <ligand_id>  (56) 
55

>  <original_smiles>  (56) 
[H]c1c([H])c([H])c2c(c1[H])C([H])([H])C([H])([H])C([H])([H])C2([H])N([H])C(=O)C1([H])N(C(=O)C([H])(N([H])C(=O)C([H])(N([H])C([H])([H])[H])C([H])([H])[H])C(C([H])([H])[H])(C([H])([H])[H])C([H])([H])[H])C([H])([H])c2c([H])c(OC([H])([H])C([H])([H])C([H])([H])c3c(C([H])([H])[H])nnc(C([H])(C([H])([H])[H])C([H])([H])C([H])([H])N([H])C(=O)N4C([H])([H])C([H])([H])C([H])([H])C([H])(n5nc(-c6c([H])c([H])c(Oc7c([H])c([H])c(F)c([H])c7F)c([H])c6[H])c(C(=O)N([H])[H])c5N([H])[H])C4([H])[H])c3[H])c([H])c([H])c2C1([H])[H]

>  <smiles>  (56) 
[H]c1c([H])c([H])c2c(c1[H])C([H])([H])C([H])([H])C([H])([H])C2([H])N([H])C(=O)C1([H])N(C(=O)C([H])(N([H])C(=O)C([H])(N([H])C([H])([H])[H])C([H])([H])[H])C(C([H])([H])[H])(C([H])([H])[H])C([H])([H])[H])C([H])([H])c2c([H])c(OC([H])([H])C([H])([H])C([H])([H])c3c(C([H])([H])[H])nnc(C([H])(C([H])([H])[H])C([H])([H])C([H])([H])N([H])C(=O)N4C([H])([H])C([H])([H])C([H])([H])C([H])(n5nc(-c6c([H])c([H])c(Oc7c([H])c([H])c(F)c([H])c7F)c([H])c6[H])c(C(=O)N([H])[H])c5N([H])[H])C4([H])[H])c3[H])c([H])c([H])c2C1([H])[H]

$$$$
56:0:0
     RDKit          3D

 91 99  0  0  1  0  0  0  0  0999 V2000
  -29.3060  -21.0980   19.3800 C   0  0  0  0  0  3  0  0  0  0  0  0
  -30.5170  -20.7120   19.9980 C   0  0  0  0  0  0  0  0  0  0  0  0
  -31.0840  -22.9410   20.2710 C   0  0  0  0  0  0  0  0  0  0  0  0
  -29.8740  -23.3310   19.6200 C   0  0  0  0  0  0  0  0  0  0  0  0
  -32.1570  -23.9240   20.7100 C   0  0  0  0  0  1  0  0  0  0  0  0
  -28.9870  -22.4010   19.1880 N   0  0  0  0  0  0  0  0  0  0  0  0
  -31.3920  -21.6330   20.4680 N   0  0  0  0  0  0  0  0  0  0  0  0
  -30.9450  -19.2520   20.0460 C   0  0  0  0  0  2  0  0  0  0  0  0
  -30.5490  -18.4830   21.3330 C   0  0  0  0  0  2  0  0  0  0  0  0
  -30.9950  -16.9920   21.3500 C   0  0  0  0  0  2  0  0  0  0  0  0
  -29.5340  -16.4760   19.2890 C   0  0  0  0  0  1  0  0  0  0  0  0
  -30.0630  -15.9550   20.6460 C   0  0  0  0  0  3  0  0  0  0  0  0
  -30.8040  -14.6160   20.3610 C   0  0  0  0  0  0  0  0  0  0  0  0
  -30.4690  -12.4640   19.2310 C   0  0  0  0  0  2  0  0  0  0  0  0
  -29.5500  -12.7570   18.0250 C   0  0  0  0  0  2  0  0  0  0  0  0
  -28.0690  -12.6420   18.4400 C   0  0  0  0  0  2  0  0  0  0  0  0
  -27.7400  -13.4040   19.7550 C   0  0  0  0  0  3  0  0  0  0  0  0
  -28.8030  -13.1510   20.8490 C   0  0  0  0  0  2  0  0  0  0  0  0
  -30.1280  -13.4370   20.2830 N   0  0  0  0  0  0  0  0  0  0  0  0
  -31.9700  -14.7150   19.9750 O   0  0  0  0  0  0  0  0  0  0  0  0
  -25.3320  -13.9780   20.4370 C   0  0  0  0  0  0  0  0  0  0  0  0
  -24.2700  -13.1890   20.7950 C   0  0  0  0  0  0  0  0  0  0  0  0
  -24.7480  -11.8440   20.7730 C   0  0  0  0  0  0  0  0  0  0  0  0
  -26.3910  -13.1060   20.2240 N   0  0  0  0  0  0  0  0  0  0  0  0
  -26.0410  -11.8180   20.4790 N   0  0  0  0  0  0  0  0  0  0  0  0
  -24.0320  -10.5740   20.9620 C   0  0  0  0  0  0  0  0  0  0  0  0
  -24.4400   -9.6360   21.9340 C   0  0  0  0  0  3  0  0  0  0  0  0
  -23.7280   -8.4290   22.1070 C   0  0  0  0  0  3  0  0  0  0  0  0
  -22.5940   -8.1530   21.3070 C   0  0  0  0  0  0  0  0  0  0  0  0
  -22.2040   -9.0830   20.3260 C   0  0  0  0  0  3  0  0  0  0  0  0
  -22.9170  -10.2820   20.1530 C   0  0  0  0  0  3  0  0  0  0  0  0
  -21.8570   -6.9990   21.3850 O   0  0  0  0  0  0  0  0  0  0  0  0
  -21.7380   -6.2980   22.5570 C   0  0  0  0  0  0  0  0  0  0  0  0
  -21.1660   -6.8710   23.7130 C   0  0  0  0  0  3  0  0  0  0  0  0
  -20.9970   -6.0930   24.8770 C   0  0  0  0  0  3  0  0  0  0  0  0
  -21.3950   -4.7420   24.8850 C   0  0  0  0  0  0  0  0  0  0  0  0
  -21.9620   -4.1670   23.7340 C   0  0  0  0  0  3  0  0  0  0  0  0
  -22.1290   -4.9430   22.5730 C   0  0  0  0  0  0  0  0  0  0  0  0
  -22.6550   -4.3780   21.4580 F   0  0  0  0  0  0  0  0  0  0  0  0
  -21.2290   -3.9950   26.0010 F   0  0  0  0  0  0  0  0  0  0  0  0
  -22.8670  -13.6520   21.0570 C   0  0  0  0  0  0  0  0  0  0  0  0
  -22.1390  -12.9440   21.9130 N   0  0  0  0  0  0  0  0  0  0  0  0
  -22.4200  -14.6750   20.5380 O   0  0  0  0  0  0  0  0  0  0  0  0
  -22.5100  -12.1130   22.3470 H   0  0  0  0  0  0  0  0  0  0  0  0
  -21.2000  -13.2430   22.1390 H   0  0  0  0  0  0  0  0  0  0  0  0
  -25.4860  -15.3490   20.2550 N   0  0  0  0  0  0  0  0  0  0  0  0
  -24.7120  -16.0020   20.3130 H   0  0  0  0  0  0  0  0  0  0  0  0
  -26.3500  -15.7940   19.9660 H   0  0  0  0  0  0  0  0  0  0  0  0
  -29.5470  -24.7740   19.2260 C   0  0  0  0  0  2  0  0  0  0  0  0
  -28.2330  -25.3340   19.8120 C   0  0  0  0  0  2  0  0  0  0  0  0
  -28.1830  -26.7360   19.5300 O   0  0  0  0  0  0  0  0  0  0  0  0
  -24.4790  -31.6510   23.0740 C   0  0  0  0  0  0  0  0  0  0  0  0
  -26.9790  -27.3940   19.6480 C   0  0  0  0  0  0  0  0  0  0  0  0
  -23.1920  -30.3280   21.4270 C   0  0  0  0  0  3  0  0  0  0  0  0
  -24.5740  -28.8680   19.8560 C   0  0  0  0  0  0  0  0  0  0  0  0
  -25.7000  -30.7170   21.1110 C   0  0  0  0  0  2  0  0  0  0  0  0
  -25.7550  -29.3760   20.4070 C   0  0  0  0  0  0  0  0  0  0  0  0
  -26.9600  -28.6490   20.2920 C   0  0  0  0  0  3  0  0  0  0  0  0
  -25.7790  -26.8960   19.0900 C   0  0  0  0  0  3  0  0  0  0  0  0
  -24.5790  -27.6270   19.1950 C   0  0  0  0  0  3  0  0  0  0  0  0
  -23.3310  -29.7180   20.0070 C   0  0  0  0  0  2  0  0  0  0  0  0
  -24.4810  -30.9080   21.9310 N   0  0  0  0  0  0  0  0  0  0  0  0
  -23.4260  -31.8910   23.6810 O   0  0  0  0  0  0  0  0  0  0  0  0
  -22.5950  -29.2570   22.3670 C   0  0  0  0  0  0  0  0  0  0  0  0
  -21.2750  -29.0330   22.2530 N   0  0  0  0  0  0  0  0  0  0  0  0
  -23.3130  -28.6290   23.1490 O   0  0  0  0  0  0  0  0  0  0  0  0
  -20.7560  -29.5930   21.5900 H   0  0  0  0  0  0  0  0  0  0  0  0
  -17.9600  -27.6750   22.7180 C   0  0  0  0  0  0  0  0  0  0  0  0
  -20.5020  -28.0450   23.0040 C   0  0  0  0  0  3  0  0  0  0  0  0
  -20.6720  -26.6310   22.4030 C   0  0  0  0  0  2  0  0  0  0  0  0
  -19.5890  -26.2740   21.3820 C   0  0  0  0  0  2  0  0  0  0  0  0
  -18.2000  -26.3470   22.0230 C   0  0  0  0  0  2  0  0  0  0  0  0
  -19.0420  -28.4800   23.1650 C   0  0  0  0  0  0  0  0  0  0  0  0
  -18.7630  -29.7250   23.7730 C   0  0  0  0  0  3  0  0  0  0  0  0
  -17.4360  -30.1630   23.9410 C   0  0  0  0  0  3  0  0  0  0  0  0
  -16.3700  -29.3550   23.5110 C   0  0  0  0  0  3  0  0  0  0  0  0
  -16.6330  -28.1130   22.9050 C   0  0  0  0  0  3  0  0  0  0  0  0
  -25.7940  -32.2550   23.6620 C   0  0  0  0  0  3  0  0  0  0  0  0
  -25.5110  -33.6470   24.0360 N   0  0  0  0  0  0  0  0  0  0  0  0
  -25.8600  -34.7150   23.3080 C   0  0  0  0  0  0  0  0  0  0  0  0
  -26.5300  -34.6320   22.2730 O   0  0  0  0  0  0  0  0  0  0  0  0
  -24.9230  -33.7860   24.8430 H   0  0  0  0  0  0  0  0  0  0  0  0
  -24.1910  -36.5690   22.9770 C   0  0  0  0  0  1  0  0  0  0  0  0
  -25.3960  -36.0970   23.8070 C   0  0  0  0  0  3  0  0  0  0  0  0
  -27.5230  -36.8940   24.7420 C   0  0  0  0  0  1  0  0  0  0  0  0
  -26.4580  -37.1250   23.7680 N   0  0  0  0  0  0  0  0  0  0  0  0
  -26.0730  -38.0510   23.9320 H   0  0  0  0  0  0  0  0  0  0  0  0
  -26.3530  -31.4460   24.8970 C   0  0  1  0  0  0  0  0  0  0  0  0
  -25.3000  -31.1880   25.9970 C   0  0  0  0  0  1  0  0  0  0  0  0
  -26.9120  -30.0770   24.4420 C   0  0  0  0  0  1  0  0  0  0  0  0
  -27.5330  -32.2130   25.5380 C   0  0  0  0  0  1  0  0  0  0  0  0
  1  2  1  0
  2  8  1  0
  2  7  2  0
  3  7  1  0
  3  5  1  0
  4  3  2  0
  6  1  2  0
  6  4  1  0
  8  9  1  0
  9 10  1  0
 12 11  1  0
 12 10  1  0
 13 12  1  0
 14 19  1  0
 15 16  1  0
 15 14  1  0
 17 16  1  0
 17 24  1  0
 17 18  1  0
 19 13  1  0
 19 18  1  0
 20 13  2  0
 21 22  2  0
 22 41  1  0
 23 22  1  0
 23 26  1  0
 24 21  1  0
 24 25  1  0
 25 23  2  0
 26 27  1  0
 27 28  2  0
 29 32  1  0
 29 28  1  0
 30 29  2  0
 31 30  1  0
 31 26  2  0
 32 33  1  0
 33 38  2  0
 33 34  1  0
 34 35  2  0
 35 36  1  0
 36 40  1  0
 37 36  2  0
 38 37  1  0
 39 38  1  0
 41 42  1  0
 42 45  1  0
 42 44  1  0
 43 41  2  0
 46 47  1  0
 46 21  1  0
 48 46  1  0
 49  4  1  0
 49 50  1  0
 51 53  1  0
 51 50  1  0
 52 63  2  0
 53 58  1  0
 54 62  1  0
 54 64  1  0
 55 61  1  0
 55 57  1  0
 56 62  1  0
 57 56  1  0
 58 57  2  0
 59 60  1  0
 59 53  2  0
 60 55  2  0
 61 54  1  0
 62 52  1  0
 64 66  2  0
 65 64  1  0
 67 65  1  0
 68 77  2  0
 68 73  1  0
 69 65  1  0
 69 73  1  0
 70 69  1  0
 71 72  1  0
 71 70  1  0
 72 68  1  0
 73 74  2  0
 74 75  1  0
 76 75  2  0
 77 76  1  0
 78 52  1  0
 78 79  1  0
 78 88  1  0
 79 82  1  0
 80 84  1  0
 80 79  1  0
 81 80  2  0
 84 83  1  0
 86 84  1  0
 86 87  1  0
 86 85  1  0
 88 91  1  1
 88 89  1  0
 90 88  1  0
M  ISO  4  12 100  13 100  50 101  51 101
M  END
>  <TORSDO>  (57) 
F 22

>  <SCORE>  (57) 
-12.489

>  <name>  (57) 
56

>  <ligand_id>  (57) 
56

>  <original_smiles>  (57) 
[H]c1nc(C([H])([H])C([H])([H])Oc2c([H])c([H])c3c(c2[H])C([H])([H])N(C(=O)C([H])(N([H])C(=O)C([H])(N([H])C([H])([H])[H])C([H])([H])[H])C(C([H])([H])[H])(C([H])([H])[H])C([H])([H])[H])C([H])(C(=O)N([H])C2([H])c4c([H])c([H])c([H])c([H])c4C([H])([H])C([H])([H])C2([H])[H])C3([H])[H])c(C([H])([H])[H])nc1C([H])([H])C([H])([H])C([H])([H])C([H])(C(=O)N1C([H])([H])C([H])([H])C([H])([H])C([H])(n2nc(-c3c([H])c([H])c(Oc4c([H])c([H])c(F)c([H])c4F)c([H])c3[H])c(C(=O)N([H])[H])c2N([H])[H])C1([H])[H])C([H])([H])[H]

>  <smiles>  (57) 
[H]c1nc(C([H])([H])C([H])([H])Oc2c([H])c([H])c3c(c2[H])C([H])([H])N(C(=O)C([H])(N([H])C(=O)C([H])(N([H])C([H])([H])[H])C([H])([H])[H])C(C([H])([H])[H])(C([H])([H])[H])C([H])([H])[H])C([H])(C(=O)N([H])C2([H])c4c([H])c([H])c([H])c([H])c4C([H])([H])C([H])([H])C2([H])[H])C3([H])[H])c(C([H])([H])[H])nc1C([H])([H])C([H])([H])C([H])([H])C([H])(C(=O)N1C([H])([H])C([H])([H])C([H])([H])C([H])(n2nc(-c3c([H])c([H])c(Oc4c([H])c([H])c(F)c([H])c4F)c([H])c3[H])c(C(=O)N([H])[H])c2N([H])[H])C1([H])[H])C([H])([H])[H]

$$$$
57:0:0
     RDKit          3D

 97105  0  0  1  0  0  0  0  0999 V2000
  -30.7070  -20.8860   17.4790 C   0  0  0  0  0  3  0  0  0  0  0  0
  -29.7260  -21.6610   18.0030 C   0  0  0  0  0  3  0  0  0  0  0  0
  -31.2230  -20.0490   18.5100 C   0  0  0  0  0  0  0  0  0  0  0  0
  -30.4580  -20.2670   19.6430 C   0  0  0  0  0  0  0  0  0  0  0  0
  -29.6060  -21.3540   19.3430 N   0  0  0  0  0  0  0  0  0  0  0  0
  -28.7200  -22.1410   20.2070 C   0  0  0  0  0  2  0  0  0  0  0  0
  -29.2690  -23.5840   20.4020 C   0  0  0  0  0  2  0  0  0  0  0  0
  -28.6440  -23.9750   22.8210 C   0  0  0  0  0  1  0  0  0  0  0  0
  -28.4780  -24.4930   21.3810 C   0  0  0  0  0  3  0  0  0  0  0  0
  -28.9040  -25.9910   21.3210 C   0  0  0  0  0  2  0  0  0  0  0  0
  -28.5710  -26.6420   20.0920 O   0  0  0  0  0  0  0  0  0  0  0  0
  -24.6730  -31.7890   23.1530 C   0  0  0  0  0  0  0  0  0  0  0  0
  -27.4130  -27.3830   20.1180 C   0  0  0  0  0  0  0  0  0  0  0  0
  -23.5060  -30.3740   21.4940 C   0  0  0  0  0  3  0  0  0  0  0  0
  -25.0000  -28.8480   20.0930 C   0  0  0  0  0  0  0  0  0  0  0  0
  -26.0280  -30.7670   21.3270 C   0  0  0  0  0  2  0  0  0  0  0  0
  -26.1410  -29.3920   20.6960 C   0  0  0  0  0  0  0  0  0  0  0  0
  -27.3530  -28.6660   20.7100 C   0  0  0  0  0  3  0  0  0  0  0  0
  -26.2600  -26.8520   19.5080 C   0  0  0  0  0  3  0  0  0  0  0  0
  -25.0540  -27.5760   19.4970 C   0  0  0  0  0  3  0  0  0  0  0  0
  -23.7440  -29.6920   20.1180 C   0  0  0  0  0  2  0  0  0  0  0  0
  -24.7540  -30.9920   22.0510 N   0  0  0  0  0  0  0  0  0  0  0  0
  -23.5830  -32.0510   23.6810 O   0  0  0  0  0  0  0  0  0  0  0  0
  -22.8520  -29.3490   22.4460 C   0  0  0  0  0  0  0  0  0  0  0  0
  -21.5280  -29.1670   22.3170 N   0  0  0  0  0  0  0  0  0  0  0  0
  -23.5350  -28.7160   23.2580 O   0  0  0  0  0  0  0  0  0  0  0  0
  -21.0380  -29.7300   21.6330 H   0  0  0  0  0  0  0  0  0  0  0  0
  -18.1510  -27.9760   22.8000 C   0  0  0  0  0  0  0  0  0  0  0  0
  -20.7100  -28.2240   23.0770 C   0  0  0  0  0  3  0  0  0  0  0  0
  -20.8100  -26.7990   22.4880 C   0  0  0  0  0  2  0  0  0  0  0  0
  -19.7080  -26.4880   21.4680 C   0  0  0  0  0  2  0  0  0  0  0  0
  -18.3260  -26.6310   22.1130 C   0  0  0  0  0  2  0  0  0  0  0  0
  -19.2730  -28.7310   23.2380 C   0  0  0  0  0  0  0  0  0  0  0  0
  -19.0570  -29.9890   23.8400 C   0  0  0  0  0  3  0  0  0  0  0  0
  -17.7550  -30.4930   24.0090 C   0  0  0  0  0  3  0  0  0  0  0  0
  -16.6470  -29.7360   23.5880 C   0  0  0  0  0  3  0  0  0  0  0  0
  -16.8480  -28.4780   22.9890 C   0  0  0  0  0  3  0  0  0  0  0  0
  -25.9440  -32.4380   23.7890 C   0  0  0  0  0  3  0  0  0  0  0  0
  -26.4760  -31.6550   25.0510 C   0  0  1  0  0  0  0  0  0  0  0  0
  -25.3880  -31.3740   26.1140 C   0  0  0  0  0  1  0  0  0  0  0  0
  -27.0870  -30.2970   24.6320 C   0  0  0  0  0  1  0  0  0  0  0  0
  -27.6050  -32.4620   25.7340 C   0  0  0  0  0  1  0  0  0  0  0  0
  -25.6100  -33.8240   24.1410 N   0  0  0  0  0  0  0  0  0  0  0  0
  -25.9220  -34.8940   23.3990 C   0  0  0  0  0  0  0  0  0  0  0  0
  -26.5940  -34.8200   22.3660 O   0  0  0  0  0  0  0  0  0  0  0  0
  -25.0190  -33.9530   24.9500 H   0  0  0  0  0  0  0  0  0  0  0  0
  -24.1580  -36.6540   23.0630 C   0  0  0  0  0  1  0  0  0  0  0  0
  -25.4040  -36.2650   23.8750 C   0  0  0  0  0  3  0  0  0  0  0  0
  -27.5200  -37.1770   24.7250 C   0  0  0  0  0  1  0  0  0  0  0  0
  -26.4140  -37.3410   23.7830 N   0  0  0  0  0  0  0  0  0  0  0  0
  -25.9890  -38.2480   23.9490 H   0  0  0  0  0  0  0  0  0  0  0  0
  -30.5130  -19.5940   21.0150 C   0  0  0  0  0  2  0  0  0  0  0  0
  -29.9030  -18.1550   21.1670 C   0  0  0  0  0  3  0  0  0  0  0  0
  -30.8350  -16.9630   20.8080 C   0  0  0  0  0  3  0  0  0  0  0  0
  -30.9000  -14.5030   20.4300 C   0  0  0  0  0  0  0  0  0  0  0  0
  -30.5590  -12.3350   19.3000 C   0  0  0  0  0  2  0  0  0  0  0  0
  -29.6510  -12.5550   18.0720 C   0  0  0  0  0  2  0  0  0  0  0  0
  -28.1650  -12.4450   18.4700 C   0  0  0  0  0  2  0  0  0  0  0  0
  -27.8240  -13.2880   19.7340 C   0  0  0  0  0  3  0  0  0  0  0  0
  -28.8600  -13.0680   20.8610 C   0  0  0  0  0  2  0  0  0  0  0  0
  -30.1910  -13.3450   20.3090 N   0  0  0  0  0  0  0  0  0  0  0  0
  -32.0430  -14.6060   19.9910 O   0  0  0  0  0  0  0  0  0  0  0  0
  -30.2520  -15.5990   20.8940 N   0  0  0  0  0  0  0  0  0  0  0  0
  -29.3120  -15.4930   21.2510 H   0  0  0  0  0  0  0  0  0  0  0  0
  -25.4320  -13.9360   20.4170 C   0  0  0  0  0  0  0  0  0  0  0  0
  -24.3470  -13.1850   20.7820 C   0  0  0  0  0  0  0  0  0  0  0  0
  -24.7910  -11.8250   20.7760 C   0  0  0  0  0  0  0  0  0  0  0  0
  -26.4650  -13.0380   20.2040 N   0  0  0  0  0  0  0  0  0  0  0  0
  -26.0830  -11.7630   20.4800 N   0  0  0  0  0  0  0  0  0  0  0  0
  -24.0430  -10.5780   20.9770 C   0  0  0  0  0  0  0  0  0  0  0  0
  -24.4560   -9.6180   21.9280 C   0  0  0  0  0  3  0  0  0  0  0  0
  -23.7140   -8.4310   22.1150 C   0  0  0  0  0  3  0  0  0  0  0  0
  -22.5440   -8.1980   21.3530 C   0  0  0  0  0  0  0  0  0  0  0  0
  -22.1520   -9.1480   20.3930 C   0  0  0  0  0  3  0  0  0  0  0  0
  -22.8930  -10.3260   20.2030 C   0  0  0  0  0  3  0  0  0  0  0  0
  -21.7710   -7.0660   21.4480 O   0  0  0  0  0  0  0  0  0  0  0  0
  -21.7020   -6.3370   22.6100 C   0  0  0  0  0  0  0  0  0  0  0  0
  -21.2760   -6.9140   23.8260 C   0  0  0  0  0  3  0  0  0  0  0  0
  -21.1510   -6.1110   24.9790 C   0  0  0  0  0  3  0  0  0  0  0  0
  -21.4410   -4.7350   24.9140 C   0  0  0  0  0  0  0  0  0  0  0  0
  -21.8590   -4.1590   23.7020 C   0  0  0  0  0  3  0  0  0  0  0  0
  -21.9870   -4.9580   22.5520 C   0  0  0  0  0  0  0  0  0  0  0  0
  -22.3660   -4.3920   21.3800 F   0  0  0  0  0  0  0  0  0  0  0  0
  -21.3180   -3.9630   26.0190 F   0  0  0  0  0  0  0  0  0  0  0  0
  -22.9560  -13.6870   21.0290 C   0  0  0  0  0  0  0  0  0  0  0  0
  -22.2060  -13.0150   21.8980 N   0  0  0  0  0  0  0  0  0  0  0  0
  -22.5370  -14.7070   20.4840 O   0  0  0  0  0  0  0  0  0  0  0  0
  -22.5620  -12.1910   22.3580 H   0  0  0  0  0  0  0  0  0  0  0  0
  -21.2700  -13.3320   22.1030 H   0  0  0  0  0  0  0  0  0  0  0  0
  -25.6220  -15.3020   20.2220 N   0  0  0  0  0  0  0  0  0  0  0  0
  -24.8670  -15.9740   20.3020 H   0  0  0  0  0  0  0  0  0  0  0  0
  -26.4870  -15.7160   19.8990 H   0  0  0  0  0  0  0  0  0  0  0  0
  -32.4000  -19.1310   18.2520 C   0  0  0  0  0  2  0  0  0  0  0  0
  -33.5360  -19.1830   19.2960 C   0  0  0  0  0  2  0  0  0  0  0  0
  -36.0190  -18.7390   19.7040 C   0  0  0  0  0  1  0  0  0  0  0  0
  -34.5360  -16.8820   18.8940 C   0  0  0  0  0  1  0  0  0  0  0  0
  -34.7870  -18.3980   18.8490 C   0  0  0  0  0  3  0  0  0  0  0  0
  1  2  2  0
  1  3  1  0
  2  5  1  0
  3  4  2  0
  4 52  1  0
  5  4  1  0
  5  6  1  0
  6  7  1  0
  7  9  1  0
  9  8  1  0
 10  9  1  0
 11 13  1  0
 11 10  1  0
 12 23  2  0
 13 18  1  0
 14 22  1  0
 14 24  1  0
 15 21  1  0
 15 17  1  0
 16 22  1  0
 17 18  2  0
 17 16  1  0
 19 13  2  0
 20 19  1  0
 20 15  2  0
 21 14  1  0
 22 12  1  0
 24 26  2  0
 25 24  1  0
 27 25  1  0
 28 37  2  0
 28 33  1  0
 29 25  1  0
 29 33  1  0
 30 29  1  0
 31 32  1  0
 31 30  1  0
 32 28  1  0
 33 34  2  0
 34 35  1  0
 36 35  2  0
 37 36  1  0
 38 12  1  0
 38 43  1  0
 38 39  1  0
 39 42  1  1
 39 40  1  0
 41 39  1  0
 43 46  1  0
 44 48  1  0
 44 43  1  0
 45 44  2  0
 48 47  1  0
 50 48  1  0
 50 51  1  0
 50 49  1  0
 52 53  1  0
 54 63  1  0
 54 53  2  0
 55 63  1  0
 56 61  1  0
 57 58  1  0
 57 56  1  0
 59 58  1  0
 59 68  1  0
 59 60  1  0
 61 55  1  0
 61 60  1  0
 62 55  2  0
 63 64  1  0
 65 66  2  0
 66 85  1  0
 67 66  1  0
 67 70  1  0
 68 65  1  0
 68 69  1  0
 69 67  2  0
 70 71  1  0
 71 72  2  0
 73 76  1  0
 73 72  1  0
 74 73  2  0
 75 74  1  0
 75 70  2  0
 76 77  1  0
 77 78  1  0
 78 79  2  0
 80 79  1  0
 80 84  1  0
 81 80  2  0
 82 77  2  0
 82 81  1  0
 83 82  1  0
 85 86  1  0
 86 89  1  0
 86 88  1  0
 87 85  2  0
 90 91  1  0
 90 65  1  0
 92 90  1  0
 93  3  1  0
 93 94  1  0
 97 96  1  0
 97 94  1  0
 97 95  1  0
M  ISO  4  10 101  11 101  55 100  63 100
M  END
>  <TORSDO>  (58) 
F 26

>  <SCORE>  (58) 
-11.715

>  <name>  (58) 
57

>  <ligand_id>  (58) 
57

>  <original_smiles>  (58) 
[H]c1c([H])c([H])c2c(c1[H])C([H])([H])C([H])([H])C([H])([H])C2([H])N([H])C(=O)C1([H])N(C(=O)C([H])(N([H])C(=O)C([H])(N([H])C([H])([H])[H])C([H])([H])[H])C(C([H])([H])[H])(C([H])([H])[H])C([H])([H])[H])C([H])([H])c2c([H])c(OC([H])([H])C([H])(C([H])([H])[H])C([H])([H])C([H])([H])n3c([H])c([H])c(C([H])([H])C([H])([H])C([H])(C([H])([H])[H])C([H])([H])[H])c3C([H])([H])C([H])([H])C([H])([H])N([H])C(=O)N3C([H])([H])C([H])([H])C([H])([H])C([H])(n4nc(-c5c([H])c([H])c(Oc6c([H])c([H])c(F)c([H])c6F)c([H])c5[H])c(C(=O)N([H])[H])c4N([H])[H])C3([H])[H])c([H])c([H])c2C1([H])[H]

>  <smiles>  (58) 
[H]c1c([H])c([H])c2c(c1[H])C([H])([H])C([H])([H])C([H])([H])C2([H])N([H])C(=O)C1([H])N(C(=O)C([H])(N([H])C(=O)C([H])(N([H])C([H])([H])[H])C([H])([H])[H])C(C([H])([H])[H])(C([H])([H])[H])C([H])([H])[H])C([H])([H])c2c([H])c(OC([H])([H])C([H])(C([H])([H])[H])C([H])([H])C([H])([H])n3c([H])c([H])c(C([H])([H])C([H])([H])C([H])(C([H])([H])[H])C([H])([H])[H])c3C([H])([H])C([H])([H])C([H])([H])N([H])C(=O)N3C([H])([H])C([H])([H])C([H])([H])C([H])(n4nc(-c5c([H])c([H])c(Oc6c([H])c([H])c(F)c([H])c6F)c([H])c5[H])c(C(=O)N([H])[H])c4N([H])[H])C3([H])[H])c([H])c([H])c2C1([H])[H]

$$$$
58:0:0
     RDKit          3D

 93101  0  0  1  0  0  0  0  0999 V2000
  -30.0630  -21.4310   21.6620 C   0  0  0  0  0  3  0  0  0  0  0  0
  -30.1200  -20.0360   21.5260 C   0  0  0  0  0  3  0  0  0  0  0  0
  -29.0360  -22.1560   21.0290 C   0  0  0  0  0  0  0  0  0  0  0  0
  -29.1380  -19.3830   20.7620 C   0  0  0  0  0  0  0  0  0  0  0  0
  -28.1030  -21.4400   20.2370 C   0  0  0  0  0  0  0  0  0  0  0  0
  -28.1620  -20.0840   20.1220 N   0  0  0  0  0  0  0  0  0  0  0  0
  -28.9370  -23.6510   21.3270 C   0  0  0  0  0  2  0  0  0  0  0  0
  -29.0200  -24.6310   20.1400 C   0  0  0  0  0  2  0  0  0  0  0  0
  -29.0030  -26.0680   20.6880 C   0  0  0  0  0  2  0  0  0  0  0  0
  -28.6890  -27.0130   19.6820 O   0  0  0  0  0  0  0  0  0  0  0  0
  -24.5370  -31.7340   23.0750 C   0  0  0  0  0  0  0  0  0  0  0  0
  -27.4650  -27.6110   19.8170 C   0  0  0  0  0  0  0  0  0  0  0  0
  -23.4260  -30.3320   21.3630 C   0  0  0  0  0  3  0  0  0  0  0  0
  -24.9770  -28.9260   19.9060 C   0  0  0  0  0  0  0  0  0  0  0  0
  -25.9280  -30.8390   21.2130 C   0  0  0  0  0  2  0  0  0  0  0  0
  -26.0950  -29.5030   20.5220 C   0  0  0  0  0  0  0  0  0  0  0  0
  -27.3430  -28.8490   20.4840 C   0  0  0  0  0  3  0  0  0  0  0  0
  -26.3320  -27.0210   19.2250 C   0  0  0  0  0  3  0  0  0  0  0  0
  -25.0850  -27.6740   19.2700 C   0  0  0  0  0  3  0  0  0  0  0  0
  -23.6860  -29.7080   19.9660 C   0  0  0  0  0  2  0  0  0  0  0  0
  -24.6450  -30.9820   21.9410 N   0  0  0  0  0  0  0  0  0  0  0  0
  -23.4360  -31.9270   23.6110 O   0  0  0  0  0  0  0  0  0  0  0  0
  -22.8240  -29.2410   22.2790 C   0  0  0  0  0  0  0  0  0  0  0  0
  -21.5070  -29.0190   22.1540 N   0  0  0  0  0  0  0  0  0  0  0  0
  -23.5380  -28.5990   23.0540 O   0  0  0  0  0  0  0  0  0  0  0  0
  -20.9910  -29.5950   21.5040 H   0  0  0  0  0  0  0  0  0  0  0  0
  -18.1770  -27.7110   22.6460 C   0  0  0  0  0  0  0  0  0  0  0  0
  -20.7320  -28.0120   22.8780 C   0  0  0  0  0  3  0  0  0  0  0  0
  -20.8510  -26.6240   22.2070 C   0  0  0  0  0  2  0  0  0  0  0  0
  -19.7370  -26.3520   21.1920 C   0  0  0  0  0  2  0  0  0  0  0  0
  -18.3680  -26.4160   21.8730 C   0  0  0  0  0  2  0  0  0  0  0  0
  -19.2870  -28.4690   23.1000 C   0  0  0  0  0  0  0  0  0  0  0  0
  -19.0540  -29.6890   23.7740 C   0  0  0  0  0  3  0  0  0  0  0  0
  -17.7430  -30.1490   23.9970 C   0  0  0  0  0  3  0  0  0  0  0  0
  -16.6460  -29.3840   23.5630 C   0  0  0  0  0  3  0  0  0  0  0  0
  -16.8630  -28.1670   22.8910 C   0  0  0  0  0  3  0  0  0  0  0  0
  -25.7810  -32.4060   23.7350 C   0  0  0  0  0  3  0  0  0  0  0  0
  -25.4020  -33.7780   24.0920 N   0  0  0  0  0  0  0  0  0  0  0  0
  -25.7080  -34.8640   23.3700 C   0  0  0  0  0  0  0  0  0  0  0  0
  -26.4100  -34.8170   22.3550 O   0  0  0  0  0  0  0  0  0  0  0  0
  -24.7730  -33.8840   24.8740 H   0  0  0  0  0  0  0  0  0  0  0  0
  -23.9090  -36.5840   23.0150 C   0  0  0  0  0  1  0  0  0  0  0  0
  -25.1470  -36.2150   23.8470 C   0  0  0  0  0  3  0  0  0  0  0  0
  -27.2190  -37.1730   24.7530 C   0  0  0  0  0  1  0  0  0  0  0  0
  -26.1340  -37.3170   23.7860 N   0  0  0  0  0  0  0  0  0  0  0  0
  -25.6830  -38.2140   23.9440 H   0  0  0  0  0  0  0  0  0  0  0  0
  -26.3150  -31.6250   24.9990 C   0  0  1  0  0  0  0  0  0  0  0  0
  -25.2170  -31.3110   26.0430 C   0  0  0  0  0  1  0  0  0  0  0  0
  -26.9640  -30.2850   24.5810 C   0  0  0  0  0  1  0  0  0  0  0  0
  -27.4170  -32.4540   25.7000 C   0  0  0  0  0  1  0  0  0  0  0  0
  -29.0980  -17.8480   20.6000 C   0  0  0  0  0  2  0  0  0  0  0  0
  -30.3250  -17.0070   21.0860 C   0  0  0  0  0  2  0  0  0  0  0  0
  -30.8330  -14.6120   20.3240 C   0  0  0  0  0  0  0  0  0  0  0  0
  -30.5600  -12.4570   19.1330 C   0  0  0  0  0  2  0  0  0  0  0  0
  -29.5970  -12.6720   17.9440 C   0  0  0  0  0  2  0  0  0  0  0  0
  -28.1230  -12.5420   18.3830 C   0  0  0  0  0  2  0  0  0  0  0  0
  -27.8110  -13.3840   19.6470 C   0  0  0  0  0  3  0  0  0  0  0  0
  -28.8660  -13.1050   20.7440 C   0  0  0  0  0  2  0  0  0  0  0  0
  -30.1920  -13.4210   20.1820 N   0  0  0  0  0  0  0  0  0  0  0  0
  -31.9340  -14.8540   19.8170 O   0  0  0  0  0  0  0  0  0  0  0  0
  -30.0980  -15.5540   20.9470 N   0  0  0  0  0  0  0  0  0  0  0  0
  -29.2200  -15.2100   21.3040 H   0  0  0  0  0  0  0  0  0  0  0  0
  -25.4410  -14.0570   20.4000 C   0  0  0  0  0  0  0  0  0  0  0  0
  -24.3540  -13.3120   20.7650 C   0  0  0  0  0  0  0  0  0  0  0  0
  -24.7710  -11.9450   20.6960 C   0  0  0  0  0  0  0  0  0  0  0  0
  -26.4530  -13.1480   20.1320 N   0  0  0  0  0  0  0  0  0  0  0  0
  -26.0520  -11.8710   20.3630 N   0  0  0  0  0  0  0  0  0  0  0  0
  -24.0070  -10.7040   20.8690 C   0  0  0  0  0  0  0  0  0  0  0  0
  -24.4210   -9.7060   21.7770 C   0  0  0  0  0  3  0  0  0  0  0  0
  -23.6620   -8.5270   21.9390 C   0  0  0  0  0  3  0  0  0  0  0  0
  -22.4760   -8.3410   21.1910 C   0  0  0  0  0  0  0  0  0  0  0  0
  -22.0810   -9.3270   20.2710 C   0  0  0  0  0  3  0  0  0  0  0  0
  -22.8390  -10.4970   20.1070 C   0  0  0  0  0  3  0  0  0  0  0  0
  -21.6870   -7.2180   21.2650 O   0  0  0  0  0  0  0  0  0  0  0  0
  -21.6250   -6.4550   22.4030 C   0  0  0  0  0  0  0  0  0  0  0  0
  -21.2420   -7.0010   23.6470 C   0  0  0  0  0  3  0  0  0  0  0  0
  -21.1270   -6.1660   24.7770 C   0  0  0  0  0  3  0  0  0  0  0  0
  -21.3830   -4.7860   24.6620 C   0  0  0  0  0  0  0  0  0  0  0  0
  -21.7580   -4.2390   23.4230 C   0  0  0  0  0  3  0  0  0  0  0  0
  -21.8780   -5.0720   22.2960 C   0  0  0  0  0  0  0  0  0  0  0  0
  -22.2200   -4.5370   21.0990 F   0  0  0  0  0  0  0  0  0  0  0  0
  -21.2640   -3.9820   25.7450 F   0  0  0  0  0  0  0  0  0  0  0  0
  -22.9780  -13.8240   21.0710 C   0  0  0  0  0  0  0  0  0  0  0  0
  -22.2510  -13.1420   21.9470 N   0  0  0  0  0  0  0  0  0  0  0  0
  -22.5540  -14.8650   20.5630 O   0  0  0  0  0  0  0  0  0  0  0  0
  -22.6070  -12.2970   22.3700 H   0  0  0  0  0  0  0  0  0  0  0  0
  -21.3230  -13.4600   22.1940 H   0  0  0  0  0  0  0  0  0  0  0  0
  -25.6380  -15.4270   20.2480 N   0  0  0  0  0  0  0  0  0  0  0  0
  -24.8770  -16.0860   20.3670 H   0  0  0  0  0  0  0  0  0  0  0  0
  -26.4790  -15.8590   19.8920 H   0  0  0  0  0  0  0  0  0  0  0  0
  -27.0240  -22.1370   19.3900 C   0  0  0  0  0  2  0  0  0  0  0  0
  -25.6880  -23.1060   21.4620 C   0  0  0  0  0  1  0  0  0  0  0  0
  -26.1790  -23.2820   20.0170 C   0  0  0  0  0  2  0  0  0  0  0  0
  2  1  1  0
  3  7  1  0
  3  1  2  0
  4  2  2  0
  5  3  1  0
  6  5  2  0
  6  4  1  0
  8  9  1  0
  8  7  1  0
 10 12  1  0
 10  9  1  0
 11 22  2  0
 12 17  1  0
 13 21  1  0
 13 23  1  0
 14 20  1  0
 14 16  1  0
 15 21  1  0
 16 15  1  0
 17 16  2  0
 18 19  1  0
 18 12  2  0
 19 14  2  0
 20 13  1  0
 21 11  1  0
 23 25  2  0
 24 23  1  0
 26 24  1  0
 27 36  2  0
 27 32  1  0
 28 24  1  0
 28 32  1  0
 29 28  1  0
 30 31  1  0
 30 29  1  0
 31 27  1  0
 32 33  2  0
 33 34  1  0
 35 34  2  0
 36 35  1  0
 37 11  1  0
 37 38  1  0
 37 47  1  0
 38 41  1  0
 39 43  1  0
 39 38  1  0
 40 39  2  0
 43 42  1  0
 45 43  1  0
 45 46  1  0
 45 44  1  0
 47 50  1  1
 47 48  1  0
 49 47  1  0
 51  4  1  0
 51 52  1  0
 53 61  1  0
 54 59  1  0
 55 56  1  0
 55 54  1  0
 57 56  1  0
 57 66  1  0
 57 58  1  0
 59 53  1  0
 59 58  1  0
 60 53  2  0
 61 52  1  0
 61 62  1  0
 63 64  2  0
 64 83  1  0
 65 64  1  0
 65 68  1  0
 66 67  1  0
 66 63  1  0
 67 65  2  0
 68 69  1  0
 69 70  2  0
 71 74  1  0
 71 70  1  0
 72 71  2  0
 73 72  1  0
 73 68  2  0
 74 75  1  0
 75 76  1  0
 76 77  2  0
 78 77  1  0
 78 82  1  0
 79 78  2  0
 80 75  2  0
 80 79  1  0
 81 80  1  0
 83 84  1  0
 84 87  1  0
 84 86  1  0
 85 83  2  0
 88 89  1  0
 88 63  1  0
 90 88  1  0
 91 93  1  0
 91  5  1  0
 93 92  1  0
M  ISO  4   9 101  10 101  53 100  61 100
M  END
>  <TORSDO>  (59) 
F 23

>  <SCORE>  (59) 
-12.431

>  <name>  (59) 
58

>  <ligand_id>  (59) 
58

>  <original_smiles>  (59) 
[H]c1c(C([H])([H])C([H])([H])N([H])C(=O)N2C([H])([H])C([H])([H])C([H])([H])C([H])(n3nc(-c4c([H])c([H])c(Oc5c([H])c([H])c(F)c([H])c5F)c([H])c4[H])c(C(=O)N([H])[H])c3N([H])[H])C2([H])[H])nc(C([H])([H])C([H])([H])C([H])([H])[H])c(C([H])([H])C([H])([H])C([H])([H])Oc2c([H])c([H])c3c(c2[H])C([H])([H])N(C(=O)C([H])(N([H])C(=O)C([H])(N([H])C([H])([H])[H])C([H])([H])[H])C(C([H])([H])[H])(C([H])([H])[H])C([H])([H])[H])C([H])(C(=O)N([H])C2([H])c4c([H])c([H])c([H])c([H])c4C([H])([H])C([H])([H])C2([H])[H])C3([H])[H])c1[H]

>  <smiles>  (59) 
[H]c1c(C([H])([H])C([H])([H])N([H])C(=O)N2C([H])([H])C([H])([H])C([H])([H])C([H])(n3nc(-c4c([H])c([H])c(Oc5c([H])c([H])c(F)c([H])c5F)c([H])c4[H])c(C(=O)N([H])[H])c3N([H])[H])C2([H])[H])nc(C([H])([H])C([H])([H])C([H])([H])[H])c(C([H])([H])C([H])([H])C([H])([H])Oc2c([H])c([H])c3c(c2[H])C([H])([H])N(C(=O)C([H])(N([H])C(=O)C([H])(N([H])C([H])([H])[H])C([H])([H])[H])C(C([H])([H])[H])(C([H])([H])[H])C([H])([H])[H])C([H])(C(=O)N([H])C2([H])c4c([H])c([H])c([H])c([H])c4C([H])([H])C([H])([H])C2([H])[H])C3([H])[H])c1[H]

$$$$
59:0:0
     RDKit          3D

 93 90  0  0  1  0  0  0  0  0999 V2000
  -25.3550  -14.5080   22.1690 C   0  0  0  0  0 15  0  0  0  0  0  0
  -25.7810  -12.3380   22.6150 C   0  0  0  0  0  1  0  0  0  0  0  0
  -25.9180  -15.3910   20.1460 C   0  0  0  0  0  1  0  0  0  0  0  0
  -26.6200  -10.9220   21.0490 C   0  0  0  0  0  1  0  0  0  0  0  0
  -26.8330  -13.9480   18.7150 C   0  0  0  0  0  1  0  0  0  0  0  0
  -25.6630  -11.9090   24.0700 C   0  0  0  0  0  1  0  0  0  0  0  0
  -27.1480   -9.5200   21.3440 C   0  0  0  0  0  1  0  0  0  0  0  0
  -27.0270  -11.8400   19.0540 N   0  0  0  0  0 15  0  0  0  0  0  0
  -26.3480  -17.2630   19.7880 C   0  0  0  0  0  1  0  0  0  0  0  0
  -27.1840  -19.0240   20.3450 C   0  0  0  0  0 15  0  0  0  0  0  0
  -27.5910  -20.9280   19.7470 C   0  0  0  0  0 15  0  0  0  0  0  0
  -27.7580  -22.8830   20.2850 C   0  0  0  0  0  1  0  0  0  0  0  0
  -28.3700  -24.5870   19.9530 O   0  0  0  0  0  0  0  0  0  0  0  0
  -24.9750  -30.9470   22.8380 C   0  0  0  0  0  0  0  0  0  0  0  0
  -27.7000  -25.9910   19.8820 C   0  0  0  0  0  0  0  0  0  0  0  0
  -24.0160  -29.5690   21.0590 C   0  0  0  0  0  3  0  0  0  0  0  0
  -25.6280  -28.1220   19.6460 C   0  0  0  0  0  0  0  0  0  0  0  0
  -26.5860  -29.8160   21.1720 C   0  0  0  0  0  2  0  0  0  0  0  0
  -26.7370  -28.4200   20.4420 C   0  0  0  0  0  0  0  0  0  0  0  0
  -27.7980  -27.3700   20.5330 C   0  0  0  0  0  3  0  0  0  0  0  0
  -26.6720  -26.0040   18.9440 C   0  0  0  0  0  3  0  0  0  0  0  0
  -25.6550  -26.9710   18.8570 C   0  0  0  0  0  3  0  0  0  0  0  0
  -24.3960  -29.0230   19.6580 C   0  0  0  0  0  2  0  0  0  0  0  0
  -25.2140  -30.1530   21.7390 N   0  0  0  0  0  0  0  0  0  0  0  0
  -23.8240  -31.1400   23.2690 O   0  0  0  0  0  0  0  0  0  0  0  0
  -23.3300  -28.4640   21.9070 C   0  0  0  0  0  0  0  0  0  0  0  0
  -22.0180  -28.2400   21.7060 N   0  0  0  0  0  0  0  0  0  0  0  0
  -23.9860  -27.8170   22.7280 O   0  0  0  0  0  0  0  0  0  0  0  0
  -21.5360  -28.8130   21.0290 H   0  0  0  0  0  0  0  0  0  0  0  0
  -18.6780  -26.8490   22.0170 C   0  0  0  0  0  0  0  0  0  0  0  0
  -21.2160  -27.2090   22.3750 C   0  0  0  0  0  3  0  0  0  0  0  0
  -21.3990  -25.8330   21.6900 C   0  0  0  0  0  2  0  0  0  0  0  0
  -20.3400  -25.5480   20.6200 C   0  0  0  0  0  2  0  0  0  0  0  0
  -18.9370  -25.5740   21.2320 C   0  0  0  0  0  2  0  0  0  0  0  0
  -19.7470  -27.6260   22.5390 C   0  0  0  0  0  0  0  0  0  0  0  0
  -19.4500  -28.8170   23.2370 C   0  0  0  0  0  3  0  0  0  0  0  0
  -18.1180  -29.2340   23.4140 C   0  0  0  0  0  3  0  0  0  0  0  0
  -17.0630  -28.4570   22.9050 C   0  0  0  0  0  3  0  0  0  0  0  0
  -17.3440  -27.2660   22.2120 C   0  0  0  0  0  3  0  0  0  0  0  0
  -26.1270  -31.6650   23.5970 C   0  0  0  0  0  3  0  0  0  0  0  0
  -25.6300  -32.9860   24.0360 N   0  0  0  0  0  0  0  0  0  0  0  0
  -25.8690  -34.1520   23.4200 C   0  0  0  0  0  0  0  0  0  0  0  0
  -26.5900  -34.2370   22.4240 O   0  0  0  0  0  0  0  0  0  0  0  0
  -24.9810  -32.9810   24.8090 H   0  0  0  0  0  0  0  0  0  0  0  0
  -23.9510  -35.7730   23.1830 C   0  0  0  0  0  1  0  0  0  0  0  0
  -25.2090  -35.4240   23.9970 C   0  0  0  0  0  3  0  0  0  0  0  0
  -27.1940  -36.4600   25.0080 C   0  0  0  0  0  1  0  0  0  0  0  0
  -26.1130  -36.5950   24.0340 N   0  0  0  0  0  0  0  0  0  0  0  0
  -25.5960  -37.4430   24.2490 H   0  0  0  0  0  0  0  0  0  0  0  0
  -26.6400  -30.8510   24.8500 C   0  0  1  0  0  0  0  0  0  0  0  0
  -25.5110  -30.4260   25.8190 C   0  0  0  0  0  1  0  0  0  0  0  0
  -27.3860  -29.5690   24.4220 C   0  0  0  0  0  1  0  0  0  0  0  0
  -27.6650  -31.6990   25.6400 C   0  0  0  0  0  1  0  0  0  0  0  0
  -28.3070  -14.5150   18.2680 C   0  0  0  0  0  3  0  0  0  0  0  0
  -29.8620  -14.6890   19.0330 C   0  0  0  0  0  3  0  0  0  0  0  0
  -31.3600  -13.2410   20.9360 C   0  0  0  0  0  0  0  0  0  0  0  0
  -31.3480  -10.8760   20.2540 C   0  0  0  0  0  2  0  0  0  0  0  0
  -30.6380  -10.9870   18.9020 C   0  0  0  0  0  2  0  0  0  0  0  0
  -29.1340  -11.0170   19.1280 C   0  0  0  0  0  2  0  0  0  0  0  0
  -28.7860  -12.0230   20.3200 C   0  0  0  0  0  3  0  0  0  0  0  0
  -29.5610  -11.7380   21.5640 C   0  0  0  0  0  2  0  0  0  0  0  0
  -30.8590  -11.9900   21.0700 N   0  0  0  0  0  0  0  0  0  0  0  0
  -32.5620  -13.3680   21.1900 O   0  0  0  0  0  0  0  0  0  0  0  0
  -30.5260  -14.2830   20.4340 N   0  0  0  0  0  0  0  0  0  0  0  0
  -30.8720  -15.1400   20.8470 H   0  0  0  0  0  0  0  0  0  0  0  0
  -26.8330  -13.3140   20.8360 C   0  0  0  0  0  0  0  0  0  0  0  0
  -24.9930  -13.0620   20.4940 C   0  0  0  0  0  0  0  0  0  0  0  0
  -24.5710  -11.8560   20.2100 C   0  0  0  0  0  2  0  0  0  0  0  0
  -27.5580  -12.6800   20.8820 N   0  0  0  0  0  2  0  0  0  0  0  0
  -25.7150  -12.8060   20.5620 N   0  0  0  0  0  2  0  0  0  0  0  0
  -23.8990  -10.4950   20.7270 C   0  0  0  0  0  3  0  0  0  0  0  0
  -24.1170   -9.5680   21.8240 C   0  0  0  0  0  3  0  0  0  0  0  0
  -23.3810   -8.3570   22.0000 C   0  0  0  0  0  3  0  0  0  0  0  0
  -22.3020   -8.0780   21.1330 C   0  0  0  0  0  0  0  0  0  0  0  0
  -22.0800   -8.9620   20.0670 C   0  0  0  0  0  3  0  0  0  0  0  0
  -22.8730  -10.1020   19.8600 C   0  0  0  0  0  3  0  0  0  0  0  0
  -21.4440   -7.0000   21.2040 O   0  0  0  0  0  0  0  0  0  0  0  0
  -21.2050   -6.2870   22.3550 C   0  0  0  0  0  0  0  0  0  0  0  0
  -20.8360   -6.9020   23.5740 C   0  0  0  0  0  3  0  0  0  0  0  0
  -20.5390   -6.1090   24.7010 C   0  0  0  0  0  3  0  0  0  0  0  0
  -20.5960   -4.7040   24.6130 C   0  0  0  0  0  0  0  0  0  0  0  0
  -20.9450   -4.0890   23.3980 C   0  0  0  0  0  3  0  0  0  0  0  0
  -21.2410   -4.8790   22.2740 C   0  0  0  0  0  0  0  0  0  0  0  0
  -21.5480   -4.2800   21.0980 F   0  0  0  0  0  0  0  0  0  0  0  0
  -20.3160   -3.9410   25.6960 F   0  0  0  0  0  0  0  0  0  0  0  0
  -23.5050  -13.7710   20.5830 C   0  0  0  0  0  0  0  0  0  0  0  0
  -22.6110  -13.2130   21.4250 N   0  0  0  0  0  0  0  0  0  0  0  0
  -23.1710  -14.6670   19.8270 O   0  0  0  0  0  0  0  0  0  0  0  0
  -22.9010  -12.4660   22.0380 H   0  0  0  0  0  0  0  0  0  0  0  0
  -21.6660  -13.5660   21.4770 H   0  0  0  0  0  0  0  0  0  0  0  0
  -27.8840  -14.2860   21.2000 N   0  0  0  0  0  4  0  0  0  0  0  0
  -27.3550  -15.0980   20.8750 H   0  0  0  0  0  0  0  0  0  0  0  0
  -28.7760  -14.1950   20.7230 H   0  0  0  0  0  0  0  0  0  0  0  0
  2  6  1  0
  4  7  1  0
  9  3  1  0
 13 12  1  0
 14 25  2  0
 15 13  1  0
 15 20  1  0
 16 24  1  0
 16 26  1  0
 17 23  1  0
 17 19  1  0
 18 24  1  0
 19 20  2  0
 19 18  1  0
 21 15  2  0
 22 21  1  0
 22 17  2  0
 23 16  1  0
 24 14  1  0
 26 28  2  0
 27 26  1  0
 29 27  1  0
 30 39  2  0
 30 35  1  0
 31 27  1  0
 31 35  1  0
 32 31  1  0
 33 34  1  0
 33 32  1  0
 34 30  1  0
 35 36  2  0
 36 37  1  0
 38 37  2  0
 39 38  1  0
 40 14  1  0
 40 41  1  0
 40 50  1  0
 41 44  1  0
 42 46  1  0
 42 41  1  0
 43 42  2  0
 46 45  1  0
 46 48  1  0
 48 49  1  0
 48 47  1  0
 50 53  1  1
 50 51  1  0
 52 50  1  0
 54  5  1  0
 54 55  2  0
 55 64  1  0
 56 62  1  0
 56 63  2  0
 57 62  1  0
 58 59  1  0
 58 57  1  0
 59 60  1  0
 60 69  1  0
 60 61  1  0
 62 61  1  0
 64 65  1  0
 64 56  1  0
 66 69  1  0
 66 91  2  0
 67 70  1  0
 67 86  1  0
 68 67  2  0
 70 66  1  0
 71 72  1  0
 72 73  2  0
 74 77  1  0
 74 73  1  0
 75 74  2  0
 76 75  1  0
 76 71  2  0
 77 78  1  0
 78 79  1  0
 79 80  2  0
 81 80  1  0
 81 85  1  0
 82 81  2  0
 83 78  2  0
 83 82  1  0
 84 83  1  0
 86 87  1  0
 87 90  1  0
 87 89  1  0
 88 86  2  0
 92 91  1  0
 93 91  1  0
M  ISO  4  12 101  13 101  56 100  64 100
M  END
>  <TORSDO>  (60) 
F 22

>  <SCORE>  (60) 
-0.103

>  <name>  (60) 
59

>  <ligand_id>  (60) 
59

>  <original_smiles>  (60) 
[H]c1c([H])c([H])c2c(c1[H])C([H])([H])C([H])([H])C([H])([H])C2([H])N([H])C(=O)C1([H])N(C(=O)C([H])(N([H])C(=O)C([H])(N([H])C([H])([H])[H])C([H])([H])[H])C(C([H])([H])[H])(C([H])([H])[H])C([H])([H])[H])C([H])([H])c2c([H])c(OC([H])([H])C([H])([H])C([H])([H])C([H])([H])c3c(C([H])([H])C([H])([H])N([H])C(=O)N4C([H])([H])C([H])([H])C([H])([H])C([H])(n5nc(-c6c([H])c([H])c(Oc7c([H])c([H])c(F)c([H])c7F)c([H])c6[H])c(C(=O)N([H])[H])c5N([H])[H])C4([H])[H])nc(C([H])([H])[H])c(C([H])([H])[H])c3[H])c([H])c([H])c2C1([H])[H]

>  <smiles>  (60) 
[H]c1c([H])c([H])c2c(c1[H])C([H])([H])C([H])([H])C([H])([H])C2([H])N([H])C(=O)C1([H])N(C(=O)C([H])(N([H])C(=O)C([H])(N([H])C([H])([H])[H])C([H])([H])[H])C(C([H])([H])[H])(C([H])([H])[H])C([H])([H])[H])C([H])([H])c2c([H])c(OC([H])([H])C([H])([H])C([H])([H])C([H])([H])c3c(C([H])([H])C([H])([H])N([H])C(=O)N4C([H])([H])C([H])([H])C([H])([H])C([H])(n5nc(-c6c([H])c([H])c(Oc7c([H])c([H])c(F)c([H])c7F)c([H])c6[H])c(C(=O)N([H])[H])c5N([H])[H])C4([H])[H])nc(C([H])([H])[H])c(C([H])([H])[H])c3[H])c([H])c([H])c2C1([H])[H]

$$$$
60:0:0
     RDKit          3D

 94102  0  0  1  0  0  0  0  0999 V2000
  -28.6800  -19.9010   18.7630 C   0  0  0  0  0  3  0  0  0  0  0  0
  -27.7470  -20.8800   18.4680 C   0  0  0  0  0  0  0  0  0  0  0  0
  -26.5040  -20.3080   18.9230 C   0  0  0  0  0  0  0  0  0  0  0  0
  -26.7220  -19.1460   19.5180 N   0  0  0  0  0  0  0  0  0  0  0  0
  -28.0320  -18.8550   19.4180 N   0  0  0  0  0  0  0  0  0  0  0  0
  -24.0480  -19.6120   18.8810 C   0  0  0  0  0  1  0  0  0  0  0  0
  -24.7080  -21.6530   17.6930 C   0  0  0  0  0  1  0  0  0  0  0  0
  -24.7560  -21.5670   20.2410 C   0  0  0  0  0  1  0  0  0  0  0  0
  -25.0390  -20.8010   18.9330 C   0  0  2  0  0  0  0  0  0  0  0  0
  -28.0300  -22.2060   17.7520 C   0  0  0  0  0  2  0  0  0  0  0  0
  -27.6490  -23.5320   18.4850 C   0  0  0  0  0  3  0  0  0  0  0  0
  -28.7370  -24.1990   19.3660 C   0  0  0  0  0  3  0  0  0  0  0  0
  -28.2410  -25.2530   20.4000 C   0  0  0  0  0  2  0  0  0  0  0  0
  -28.3680  -26.6450   20.0210 O   0  0  0  0  0  0  0  0  0  0  0  0
  -24.6170  -31.8720   23.2100 C   0  0  0  0  0  0  0  0  0  0  0  0
  -27.2200  -27.4180   20.0760 C   0  0  0  0  0  0  0  0  0  0  0  0
  -23.4080  -30.5030   21.5450 C   0  0  0  0  0  3  0  0  0  0  0  0
  -24.8490  -28.9710   20.1080 C   0  0  0  0  0  0  0  0  0  0  0  0
  -25.9370  -30.8290   21.3690 C   0  0  0  0  0  2  0  0  0  0  0  0
  -26.0110  -29.4600   20.7180 C   0  0  0  0  0  0  0  0  0  0  0  0
  -27.2050  -28.6940   20.6990 C   0  0  0  0  0  3  0  0  0  0  0  0
  -26.0490  -26.9630   19.4410 C   0  0  0  0  0  3  0  0  0  0  0  0
  -24.8710  -27.7270   19.4590 C   0  0  0  0  0  3  0  0  0  0  0  0
  -23.6200  -29.8550   20.1500 C   0  0  0  0  0  2  0  0  0  0  0  0
  -24.6710  -31.0850   22.1020 N   0  0  0  0  0  0  0  0  0  0  0  0
  -23.5380  -32.1530   23.7490 O   0  0  0  0  0  0  0  0  0  0  0  0
  -22.7440  -29.4730   22.4890 C   0  0  0  0  0  0  0  0  0  0  0  0
  -21.4180  -29.3020   22.3520 N   0  0  0  0  0  0  0  0  0  0  0  0
  -23.4190  -28.8310   23.3030 O   0  0  0  0  0  0  0  0  0  0  0  0
  -20.9400  -29.8630   21.6630 H   0  0  0  0  0  0  0  0  0  0  0  0
  -18.0270  -28.1110   22.8880 C   0  0  0  0  0  0  0  0  0  0  0  0
  -20.5920  -28.3550   23.1050 C   0  0  0  0  0  3  0  0  0  0  0  0
  -20.6850  -26.9380   22.4930 C   0  0  0  0  0  2  0  0  0  0  0  0
  -19.5390  -26.6170   21.5290 C   0  0  0  0  0  2  0  0  0  0  0  0
  -18.1970  -26.7440   22.2440 C   0  0  0  0  0  2  0  0  0  0  0  0
  -19.1570  -28.8790   23.2790 C   0  0  0  0  0  0  0  0  0  0  0  0
  -18.9470  -30.1610   23.8290 C   0  0  0  0  0  3  0  0  0  0  0  0
  -17.6480  -30.6800   23.9850 C   0  0  0  0  0  3  0  0  0  0  0  0
  -16.5340  -29.9090   23.6190 C   0  0  0  0  0  3  0  0  0  0  0  0
  -16.7250  -28.6240   23.0820 C   0  0  0  0  0  3  0  0  0  0  0  0
  -25.9090  -32.4850   23.8390 C   0  0  0  0  0  3  0  0  0  0  0  0
  -25.5990  -33.8660   24.2370 N   0  0  0  0  0  0  0  0  0  0  0  0
  -25.9040  -34.9480   23.5100 C   0  0  0  0  0  0  0  0  0  0  0  0
  -26.5540  -34.8900   22.4610 O   0  0  0  0  0  0  0  0  0  0  0  0
  -25.0360  -33.9840   25.0660 H   0  0  0  0  0  0  0  0  0  0  0  0
  -24.1500  -36.7330   23.2630 C   0  0  0  0  0  1  0  0  0  0  0  0
  -25.4110  -36.3100   24.0330 C   0  0  0  0  0  3  0  0  0  0  0  0
  -27.5570  -37.1850   24.8450 C   0  0  0  0  0  1  0  0  0  0  0  0
  -26.4290  -37.3790   23.9410 N   0  0  0  0  0  0  0  0  0  0  0  0
  -26.0130  -38.2830   24.1440 H   0  0  0  0  0  0  0  0  0  0  0  0
  -26.4510  -31.6590   25.0690 C   0  0  1  0  0  0  0  0  0  0  0  0
  -25.3780  -31.3760   26.1470 C   0  0  0  0  0  1  0  0  0  0  0  0
  -27.0360  -30.3030   24.6030 C   0  0  0  0  0  1  0  0  0  0  0  0
  -27.6090  -32.4300   25.7460 C   0  0  0  0  0  1  0  0  0  0  0  0
  -28.4340  -17.6070   20.0990 C   0  0  0  0  0  2  0  0  0  0  0  0
  -29.7900  -16.8870   19.8350 C   0  0  0  0  0  2  0  0  0  0  0  0
  -30.6270  -14.5290   20.4160 C   0  0  0  0  0  0  0  0  0  0  0  0
  -30.4370  -12.2940   19.4320 C   0  0  0  0  0  2  0  0  0  0  0  0
  -29.5080  -12.4710   18.2150 C   0  0  0  0  0  2  0  0  0  0  0  0
  -28.0180  -12.3600   18.6170 C   0  0  0  0  0  2  0  0  0  0  0  0
  -27.6570  -13.2020   19.8730 C   0  0  0  0  0  3  0  0  0  0  0  0
  -28.7060  -13.0000   20.9870 C   0  0  0  0  0  2  0  0  0  0  0  0
  -30.0330  -13.3020   20.4210 N   0  0  0  0  0  0  0  0  0  0  0  0
  -31.7980  -14.7150   20.0700 O   0  0  0  0  0  0  0  0  0  0  0  0
  -29.7480  -15.5490   20.4950 N   0  0  0  0  0  0  0  0  0  0  0  0
  -28.8380  -15.2760   20.8290 H   0  0  0  0  0  0  0  0  0  0  0  0
  -25.2550  -13.8100   20.5690 C   0  0  0  0  0  0  0  0  0  0  0  0
  -24.1830  -13.0420   20.9190 C   0  0  0  0  0  0  0  0  0  0  0  0
  -24.6390  -11.6850   20.8800 C   0  0  0  0  0  0  0  0  0  0  0  0
  -26.3000  -12.9310   20.3330 N   0  0  0  0  0  0  0  0  0  0  0  0
  -25.9300  -11.6470   20.5760 N   0  0  0  0  0  0  0  0  0  0  0  0
  -23.9050  -10.4240   21.0380 C   0  0  0  0  0  0  0  0  0  0  0  0
  -24.3600   -9.4160   21.9170 C   0  0  0  0  0  3  0  0  0  0  0  0
  -23.6270   -8.2220   22.0760 C   0  0  0  0  0  3  0  0  0  0  0  0
  -22.4250   -8.0240   21.3540 C   0  0  0  0  0  0  0  0  0  0  0  0
  -21.9870   -9.0220   20.4660 C   0  0  0  0  0  3  0  0  0  0  0  0
  -22.7210  -10.2080   20.3030 C   0  0  0  0  0  3  0  0  0  0  0  0
  -21.6620   -6.8850   21.4230 O   0  0  0  0  0  0  0  0  0  0  0  0
  -21.6840   -6.0730   22.5280 C   0  0  0  0  0  0  0  0  0  0  0  0
  -21.4040   -6.5640   23.8220 C   0  0  0  0  0  3  0  0  0  0  0  0
  -21.3650   -5.6780   24.9180 C   0  0  0  0  0  3  0  0  0  0  0  0
  -21.6070   -4.3050   24.7240 C   0  0  0  0  0  0  0  0  0  0  0  0
  -21.8790   -3.8130   23.4340 C   0  0  0  0  0  3  0  0  0  0  0  0
  -21.9190   -4.6960   22.3400 C   0  0  0  0  0  0  0  0  0  0  0  0
  -22.1640   -4.2120   21.0990 F   0  0  0  0  0  0  0  0  0  0  0  0
  -21.5610   -3.4540   25.7750 F   0  0  0  0  0  0  0  0  0  0  0  0
  -22.7840  -13.5190   21.1910 C   0  0  0  0  0  0  0  0  0  0  0  0
  -22.0490  -12.8190   22.0450 N   0  0  0  0  0  0  0  0  0  0  0  0
  -22.3510  -14.5500   20.6740 O   0  0  0  0  0  0  0  0  0  0  0  0
  -22.4070  -11.9810   22.4860 H   0  0  0  0  0  0  0  0  0  0  0  0
  -21.1110  -13.1210   22.2730 H   0  0  0  0  0  0  0  0  0  0  0  0
  -25.4190  -15.1830   20.4030 N   0  0  0  0  0  0  0  0  0  0  0  0
  -24.6410  -15.8230   20.5090 H   0  0  0  0  0  0  0  0  0  0  0  0
  -26.2340  -15.6240   20.0060 H   0  0  0  0  0  0  0  0  0  0  0  0
  1  5  1  0
  2  1  2  0
  2  3  1  0
  3  9  1  0
  3  4  2  0
  5  4  1  0
  5 55  1  0
  9  6  1  1
  7  9  1  0
  9  8  1  0
 10  2  1  0
 10 11  1  0
 11 12  2  0
 12 13  1  0
 14 16  1  0
 14 13  1  0
 15 26  2  0
 16 21  1  0
 17 25  1  0
 17 27  1  0
 18 24  1  0
 18 20  1  0
 19 25  1  0
 20 19  1  0
 21 20  2  0
 22 23  1  0
 22 16  2  0
 23 18  2  0
 24 17  1  0
 25 15  1  0
 27 29  2  0
 28 27  1  0
 30 28  1  0
 31 40  2  0
 31 36  1  0
 32 28  1  0
 32 36  1  0
 33 32  1  0
 34 35  1  0
 34 33  1  0
 35 31  1  0
 36 37  2  0
 37 38  1  0
 39 38  2  0
 40 39  1  0
 41 15  1  0
 41 42  1  0
 41 51  1  0
 42 45  1  0
 43 47  1  0
 43 42  1  0
 44 43  2  0
 47 46  1  0
 49 47  1  0
 49 50  1  0
 49 48  1  0
 51 54  1  1
 51 52  1  0
 53 51  1  0
 56 55  1  0
 56 65  1  0
 57 63  1  0
 57 65  1  0
 58 63  1  0
 59 60  1  0
 59 58  1  0
 61 60  1  0
 61 70  1  0
 61 62  1  0
 63 62  1  0
 64 57  2  0
 65 66  1  0
 67 68  2  0
 68 87  1  0
 69 68  1  0
 69 72  1  0
 70 67  1  0
 70 71  1  0
 71 69  2  0
 72 73  1  0
 73 74  2  0
 75 78  1  0
 75 74  1  0
 76 75  2  0
 77 76  1  0
 77 72  2  0
 78 79  1  0
 79 80  1  0
 80 81  2  0
 82 81  1  0
 82 86  1  0
 83 82  2  0
 84 79  2  0
 84 83  1  0
 85 84  1  0
 87 88  1  0
 88 91  1  0
 88 90  1  0
 89 87  2  0
 92 93  1  0
 92 67  1  0
 94 92  1  0
M  ISO  4  13 101  14 101  57 100  65 100
M  END
>  <TORSDO>  (61) 
F 23

>  <SCORE>  (61) 
-8.682

>  <name>  (61) 
60

>  <ligand_id>  (61) 
60

>  <original_smiles>  (61) 
[H]c1c([H])c([H])c2c(c1[H])C([H])([H])C([H])([H])C([H])([H])C2([H])N([H])C(=O)C1([H])N(C(=O)C([H])(N([H])C(=O)C([H])(N([H])C([H])([H])[H])C([H])([H])[H])C(C([H])([H])[H])(C([H])([H])[H])C([H])([H])[H])C([H])([H])c2c([H])c(OC([H])([H])C([H])([H])C([H])([H])C([H])([H])c3c(C(C([H])([H])[H])(C([H])([H])[H])C([H])([H])[H])nn(C([H])([H])C([H])([H])N([H])C(=O)N4C([H])([H])C([H])([H])C([H])([H])C([H])(n5nc(-c6c([H])c([H])c(Oc7c([H])c([H])c(F)c([H])c7F)c([H])c6[H])c(C(=O)N([H])[H])c5N([H])[H])C4([H])[H])c3[H])c([H])c([H])c2C1([H])[H]

>  <smiles>  (61) 
[H]c1c([H])c([H])c2c(c1[H])C([H])([H])C([H])([H])C([H])([H])C2([H])N([H])C(=O)C1([H])N(C(=O)C([H])(N([H])C(=O)C([H])(N([H])C([H])([H])[H])C([H])([H])[H])C(C([H])([H])[H])(C([H])([H])[H])C([H])([H])[H])C([H])([H])c2c([H])c(OC([H])([H])C([H])([H])C([H])([H])C([H])([H])c3c(C(C([H])([H])[H])(C([H])([H])[H])C([H])([H])[H])nn(C([H])([H])C([H])([H])N([H])C(=O)N4C([H])([H])C([H])([H])C([H])([H])C([H])(n5nc(-c6c([H])c([H])c(Oc7c([H])c([H])c(F)c([H])c7F)c([H])c6[H])c(C(=O)N([H])[H])c5N([H])[H])C4([H])[H])c3[H])c([H])c([H])c2C1([H])[H]

$$$$
61:0:0
     RDKit          3D

 91 99  0  0  1  0  0  0  0  0999 V2000
  -30.8060  -23.4550   20.3610 C   0  0  0  0  0  3  0  0  0  0  0  0
  -31.7980  -22.5240   20.4990 C   0  0  0  0  0  0  0  0  0  0  0  0
  -29.8320  -21.4270   20.4390 C   0  0  0  0  0  3  0  0  0  0  0  0
  -33.2810  -22.6630   20.6100 C   0  0  0  0  0  1  0  0  0  0  0  0
  -29.5950  -22.8040   20.3510 N   0  0  0  0  0  0  0  0  0  0  0  0
  -31.1650  -21.3140   20.5330 N   0  0  0  0  0  0  0  0  0  0  0  0
  -31.6430  -20.4260   20.6260 H   0  0  0  0  0  0  0  0  0  0  0  0
  -28.9610  -20.1200   20.5360 C   0  0  0  0  0  2  0  0  0  0  0  0
  -29.5620  -18.6160   20.2170 C   0  0  0  0  0  2  0  0  0  0  0  0
  -30.1220  -17.2830   20.9930 C   0  0  0  0  0  2  0  0  0  0  0  0
  -30.5330  -14.7440   20.3440 C   0  0  0  0  0  0  0  0  0  0  0  0
  -30.3410  -12.4860   19.2870 C   0  0  0  0  0  2  0  0  0  0  0  0
  -29.3830  -12.5560   18.0780 C   0  0  0  0  0  2  0  0  0  0  0  0
  -27.9200  -12.3740   18.5260 C   0  0  0  0  0  2  0  0  0  0  0  0
  -27.5540  -13.2530   19.7520 C   0  0  0  0  0  3  0  0  0  0  0  0
  -28.6260  -13.1530   20.8580 C   0  0  0  0  0  2  0  0  0  0  0  0
  -29.9100  -13.5220   20.2490 N   0  0  0  0  0  0  0  0  0  0  0  0
  -31.7260  -14.8590   20.0500 O   0  0  0  0  0  0  0  0  0  0  0  0
  -29.7440  -15.8560   20.5890 N   0  0  0  0  0  0  0  0  0  0  0  0
  -28.7640  -15.6380   20.6870 H   0  0  0  0  0  0  0  0  0  0  0  0
  -25.1690  -13.8300   20.5010 C   0  0  0  0  0  0  0  0  0  0  0  0
  -24.1110  -13.0480   20.8820 C   0  0  0  0  0  0  0  0  0  0  0  0
  -24.5860  -11.7010   20.8520 C   0  0  0  0  0  0  0  0  0  0  0  0
  -26.2170  -12.9570   20.2570 N   0  0  0  0  0  0  0  0  0  0  0  0
  -25.8740  -11.6730   20.5320 N   0  0  0  0  0  0  0  0  0  0  0  0
  -23.8720  -10.4320   21.0490 C   0  0  0  0  0  0  0  0  0  0  0  0
  -24.3250   -9.4640   21.9720 C   0  0  0  0  0  3  0  0  0  0  0  0
  -23.6090   -8.2620   22.1580 C   0  0  0  0  0  3  0  0  0  0  0  0
  -22.4270   -8.0190   21.4200 C   0  0  0  0  0  0  0  0  0  0  0  0
  -21.9930   -8.9760   20.4860 C   0  0  0  0  0  3  0  0  0  0  0  0
  -22.7100  -10.1700   20.2980 C   0  0  0  0  0  3  0  0  0  0  0  0
  -21.6800   -6.8700   21.5170 O   0  0  0  0  0  0  0  0  0  0  0  0
  -21.6650   -6.1150   22.6620 C   0  0  0  0  0  0  0  0  0  0  0  0
  -21.2750   -6.6560   23.9060 C   0  0  0  0  0  3  0  0  0  0  0  0
  -21.2060   -5.8270   25.0440 C   0  0  0  0  0  3  0  0  0  0  0  0
  -21.5200   -4.4600   24.9400 C   0  0  0  0  0  0  0  0  0  0  0  0
  -21.9050   -3.9170   23.7010 C   0  0  0  0  0  3  0  0  0  0  0  0
  -21.9740   -4.7430   22.5650 C   0  0  0  0  0  0  0  0  0  0  0  0
  -22.3250   -4.2120   21.3690 F   0  0  0  0  0  0  0  0  0  0  0  0
  -21.4470   -3.6620   26.0310 F   0  0  0  0  0  0  0  0  0  0  0  0
  -22.7130  -13.5150   21.1600 C   0  0  0  0  0  0  0  0  0  0  0  0
  -21.9940  -12.8150   22.0310 N   0  0  0  0  0  0  0  0  0  0  0  0
  -22.2630  -14.5340   20.6370 O   0  0  0  0  0  0  0  0  0  0  0  0
  -22.3700  -11.9920   22.4770 H   0  0  0  0  0  0  0  0  0  0  0  0
  -21.0540  -13.1090   22.2560 H   0  0  0  0  0  0  0  0  0  0  0  0
  -25.3190  -15.2010   20.3170 N   0  0  0  0  0  0  0  0  0  0  0  0
  -24.5410  -15.8430   20.4270 H   0  0  0  0  0  0  0  0  0  0  0  0
  -26.1470  -15.6450   19.9440 H   0  0  0  0  0  0  0  0  0  0  0  0
  -28.3150  -23.6210   20.1770 C   0  0  0  0  0  2  0  0  0  0  0  0
  -28.1840  -25.0770   20.8960 C   0  0  0  0  0  2  0  0  0  0  0  0
  -28.3510  -26.4200   20.2440 O   0  0  0  0  0  0  0  0  0  0  0  0
  -24.6310  -31.8970   23.2430 C   0  0  0  0  0  0  0  0  0  0  0  0
  -27.2490  -27.2980   20.2290 C   0  0  0  0  0  0  0  0  0  0  0  0
  -23.4340  -30.4900   21.6070 C   0  0  0  0  0  3  0  0  0  0  0  0
  -24.8890  -28.9250   20.1950 C   0  0  0  0  0  0  0  0  0  0  0  0
  -25.9740  -30.8040   21.4270 C   0  0  0  0  0  2  0  0  0  0  0  0
  -26.0580  -29.4180   20.7890 C   0  0  0  0  0  0  0  0  0  0  0  0
  -27.2450  -28.6180   20.7900 C   0  0  0  0  0  3  0  0  0  0  0  0
  -26.0590  -26.8630   19.6120 C   0  0  0  0  0  3  0  0  0  0  0  0
  -24.8930  -27.6550   19.5940 C   0  0  0  0  0  3  0  0  0  0  0  0
  -23.6530  -29.8040   20.2320 C   0  0  0  0  0  2  0  0  0  0  0  0
  -24.6980  -31.0820   22.1490 N   0  0  0  0  0  0  0  0  0  0  0  0
  -23.5460  -32.1780   23.7730 O   0  0  0  0  0  0  0  0  0  0  0  0
  -22.7660  -29.4810   22.5720 C   0  0  0  0  0  0  0  0  0  0  0  0
  -21.4410  -29.3010   22.4420 N   0  0  0  0  0  0  0  0  0  0  0  0
  -23.4410  -28.8610   23.3980 O   0  0  0  0  0  0  0  0  0  0  0  0
  -20.9550  -29.8520   21.7470 H   0  0  0  0  0  0  0  0  0  0  0  0
  -18.0640  -28.0940   22.9270 C   0  0  0  0  0  0  0  0  0  0  0  0
  -20.6200  -28.3680   23.2140 C   0  0  0  0  0  3  0  0  0  0  0  0
  -20.7320  -26.9320   22.6510 C   0  0  0  0  0  2  0  0  0  0  0  0
  -19.6390  -26.5950   21.6330 C   0  0  0  0  0  2  0  0  0  0  0  0
  -18.2510  -26.7390   22.2650 C   0  0  0  0  0  2  0  0  0  0  0  0
  -19.1770  -28.8650   23.3590 C   0  0  0  0  0  0  0  0  0  0  0  0
  -18.9470  -30.1320   23.9390 C   0  0  0  0  0  3  0  0  0  0  0  0
  -17.6390  -30.6280   24.0900 C   0  0  0  0  0  3  0  0  0  0  0  0
  -16.5400  -29.8540   23.6750 C   0  0  0  0  0  3  0  0  0  0  0  0
  -16.7550  -28.5890   23.1000 C   0  0  0  0  0  3  0  0  0  0  0  0
  -25.9110  -32.5350   23.8660 C   0  0  0  0  0  3  0  0  0  0  0  0
  -25.5970  -33.9330   24.1960 N   0  0  0  0  0  0  0  0  0  0  0  0
  -25.9260  -34.9870   23.4390 C   0  0  0  0  0  0  0  0  0  0  0  0
  -26.5940  -34.8860   22.4060 O   0  0  0  0  0  0  0  0  0  0  0  0
  -25.0030  -34.0850   24.9980 H   0  0  0  0  0  0  0  0  0  0  0  0
  -24.1920  -36.7760   23.0910 C   0  0  0  0  0  1  0  0  0  0  0  0
  -25.4370  -36.3750   23.8980 C   0  0  0  0  0  3  0  0  0  0  0  0
  -27.5740  -37.2660   24.7180 C   0  0  0  0  0  1  0  0  0  0  0  0
  -26.4670  -37.4310   23.7790 N   0  0  0  0  0  0  0  0  0  0  0  0
  -26.0590  -38.3490   23.9290 H   0  0  0  0  0  0  0  0  0  0  0  0
  -26.4270  -31.7670   25.1460 C   0  0  1  0  0  0  0  0  0  0  0  0
  -25.3330  -31.5310   26.2140 C   0  0  0  0  0  1  0  0  0  0  0  0
  -27.0110  -30.3880   24.7580 C   0  0  0  0  0  1  0  0  0  0  0  0
  -27.5770  -32.5630   25.8070 C   0  0  0  0  0  1  0  0  0  0  0  0
  1  2  2  0
  2  6  1  0
  2  4  1  0
  3  6  1  0
  3  8  1  0
  5  1  1  0
  5  3  1  0
  6  7  1  0
  9  8  1  0
  9 10  1  0
 11 19  1  0
 12 17  1  0
 13 14  1  0
 13 12  1  0
 15 14  1  0
 15 24  1  0
 15 16  1  0
 17 11  1  0
 17 16  1  0
 18 11  2  0
 19 20  1  0
 19 10  1  0
 21 22  2  0
 22 41  1  0
 23 22  1  0
 23 26  1  0
 24 21  1  0
 24 25  1  0
 25 23  2  0
 26 27  1  0
 27 28  2  0
 29 32  1  0
 29 28  1  0
 30 29  2  0
 31 30  1  0
 31 26  2  0
 32 33  1  0
 33 34  1  0
 34 35  2  0
 36 35  1  0
 36 40  1  0
 37 36  2  0
 38 33  2  0
 38 37  1  0
 39 38  1  0
 41 42  1  0
 42 45  1  0
 42 44  1  0
 43 41  2  0
 46 47  1  0
 46 21  1  0
 48 46  1  0
 49  5  1  0
 49 50  1  0
 51 50  1  0
 52 63  2  0
 53 51  1  0
 53 58  1  0
 54 62  1  0
 54 64  1  0
 55 61  1  0
 55 57  1  0
 56 62  1  0
 57 58  2  0
 57 56  1  0
 59 53  2  0
 60 59  1  0
 60 55  2  0
 61 54  1  0
 62 52  1  0
 64 66  2  0
 65 64  1  0
 67 65  1  0
 68 77  2  0
 68 73  1  0
 69 65  1  0
 69 73  1  0
 70 69  1  0
 71 72  1  0
 71 70  1  0
 72 68  1  0
 73 74  2  0
 74 75  1  0
 76 75  2  0
 77 76  1  0
 78 52  1  0
 78 79  1  0
 78 88  1  0
 79 82  1  0
 80 84  1  0
 80 79  1  0
 81 80  2  0
 84 83  1  0
 86 84  1  0
 86 87  1  0
 86 85  1  0
 88 91  1  1
 88 89  1  0
 90 88  1  0
M  ISO  4  11 100  19 100  50 101  51 101
M  END
>  <TORSDO>  (62) 
F 21

>  <SCORE>  (62) 
-13.174

>  <name>  (62) 
61

>  <ligand_id>  (62) 
61

>  <original_smiles>  (62) 
[H]c1c([H])c([H])c2c(c1[H])C([H])([H])C([H])([H])C([H])([H])C2([H])N([H])C(=O)C1([H])N(C(=O)C([H])(N([H])C(=O)C([H])(N([H])C([H])([H])[H])C([H])([H])[H])C(C([H])([H])[H])(C([H])([H])[H])C([H])([H])[H])C([H])([H])c2c([H])c(OC([H])([H])C([H])([H])n3c([H])c(C([H])([H])[H])[n+]([H])c3C([H])([H])C([H])([H])C([H])([H])N([H])C(=O)N3C([H])([H])C([H])([H])C([H])([H])C([H])(n4nc(-c5c([H])c([H])c(Oc6c([H])c([H])c(F)c([H])c6F)c([H])c5[H])c(C(=O)N([H])[H])c4N([H])[H])C3([H])[H])c([H])c([H])c2C1([H])[H]

>  <smiles>  (62) 
[H]c1c([H])c([H])c2c(c1[H])C([H])([H])C([H])([H])C([H])([H])C2([H])N([H])C(=O)C1([H])N(C(=O)C([H])(N([H])C(=O)C([H])(N([H])C([H])([H])[H])C([H])([H])[H])C(C([H])([H])[H])(C([H])([H])[H])C([H])([H])[H])C([H])([H])c2c([H])c(OC([H])([H])C([H])([H])n3c([H])c(C([H])([H])[H])[n+]([H])c3C([H])([H])C([H])([H])C([H])([H])N([H])C(=O)N3C([H])([H])C([H])([H])C([H])([H])C([H])(n4nc(-c5c([H])c([H])c(Oc6c([H])c([H])c(F)c([H])c6F)c([H])c5[H])c(C(=O)N([H])[H])c4N([H])[H])C3([H])[H])c([H])c([H])c2C1([H])[H]

$$$$
62:0:0
     RDKit          3D

 90 98  0  0  1  0  0  0  0  0999 V2000
  -29.1760  -20.7060   17.3820 C   0  0  0  0  0  3  0  0  0  0  0  0
  -29.0910  -21.7390   18.2560 C   0  0  0  0  0  3  0  0  0  0  0  0
  -29.2230  -19.4970   18.1180 C   0  0  0  0  0  0  0  0  0  0  0  0
  -29.2630  -19.7990   19.4650 C   0  0  0  0  0  0  0  0  0  0  0  0
  -29.1880  -18.1370   17.4610 C   0  0  0  0  0  1  0  0  0  0  0  0
  -29.1100  -21.2530   19.5520 N   0  0  0  0  0  0  0  0  0  0  0  0
  -29.3150  -18.6730   20.5690 C   0  0  0  0  0  2  0  0  0  0  0  0
  -30.3230  -17.3970   20.3960 C   0  0  0  0  0  2  0  0  0  0  0  0
  -30.6280  -14.8010   20.3780 C   0  0  0  0  0  0  0  0  0  0  0  0
  -30.4190  -12.5430   19.3350 C   0  0  0  0  0  2  0  0  0  0  0  0
  -29.4900  -12.6400   18.1070 C   0  0  0  0  0  2  0  0  0  0  0  0
  -28.0170  -12.4670   18.5250 C   0  0  0  0  0  2  0  0  0  0  0  0
  -27.6400  -13.3360   19.7560 C   0  0  0  0  0  3  0  0  0  0  0  0
  -28.6920  -13.2280   20.8810 C   0  0  0  0  0  2  0  0  0  0  0  0
  -29.9910  -13.5840   20.2980 N   0  0  0  0  0  0  0  0  0  0  0  0
  -31.8130  -14.8950   20.0480 O   0  0  0  0  0  0  0  0  0  0  0  0
  -29.8770  -15.9460   20.6040 N   0  0  0  0  0  0  0  0  0  0  0  0
  -28.9050  -15.7980   20.8330 H   0  0  0  0  0  0  0  0  0  0  0  0
  -25.2410  -13.9130   20.4550 C   0  0  0  0  0  0  0  0  0  0  0  0
  -24.1780  -13.1330   20.8220 C   0  0  0  0  0  0  0  0  0  0  0  0
  -24.6530  -11.7860   20.8090 C   0  0  0  0  0  0  0  0  0  0  0  0
  -26.2940  -13.0400   20.2360 N   0  0  0  0  0  0  0  0  0  0  0  0
  -25.9460  -11.7570   20.5120 N   0  0  0  0  0  0  0  0  0  0  0  0
  -23.9340  -10.5200   21.0030 C   0  0  0  0  0  0  0  0  0  0  0  0
  -24.3610   -9.5650   21.9520 C   0  0  0  0  0  3  0  0  0  0  0  0
  -23.6420   -8.3640   22.1340 C   0  0  0  0  0  3  0  0  0  0  0  0
  -22.4830   -8.1080   21.3660 C   0  0  0  0  0  0  0  0  0  0  0  0
  -22.0740   -9.0500   20.4050 C   0  0  0  0  0  3  0  0  0  0  0  0
  -22.7930  -10.2430   20.2220 C   0  0  0  0  0  3  0  0  0  0  0  0
  -21.7360   -6.9590   21.4570 O   0  0  0  0  0  0  0  0  0  0  0  0
  -21.6750   -6.2290   22.6160 C   0  0  0  0  0  0  0  0  0  0  0  0
  -21.2160   -6.7920   23.8280 C   0  0  0  0  0  3  0  0  0  0  0  0
  -21.1030   -5.9880   24.9790 C   0  0  0  0  0  3  0  0  0  0  0  0
  -21.4390   -4.6220   24.9220 C   0  0  0  0  0  0  0  0  0  0  0  0
  -21.8920   -4.0590   23.7160 C   0  0  0  0  0  3  0  0  0  0  0  0
  -22.0070   -4.8600   22.5660 C   0  0  0  0  0  0  0  0  0  0  0  0
  -22.4220   -4.3070   21.4010 F   0  0  0  0  0  0  0  0  0  0  0  0
  -21.3240   -3.8480   26.0260 F   0  0  0  0  0  0  0  0  0  0  0  0
  -22.7740  -13.6020   21.0730 C   0  0  0  0  0  0  0  0  0  0  0  0
  -22.0420  -12.9060   21.9360 N   0  0  0  0  0  0  0  0  0  0  0  0
  -22.3350  -14.6200   20.5400 O   0  0  0  0  0  0  0  0  0  0  0  0
  -22.4100  -12.0830   22.3890 H   0  0  0  0  0  0  0  0  0  0  0  0
  -21.0990  -13.2020   22.1470 H   0  0  0  0  0  0  0  0  0  0  0  0
  -25.3960  -15.2840   20.2650 N   0  0  0  0  0  0  0  0  0  0  0  0
  -24.6190  -15.9290   20.3580 H   0  0  0  0  0  0  0  0  0  0  0  0
  -26.2310  -15.7220   19.9020 H   0  0  0  0  0  0  0  0  0  0  0  0
  -28.9010  -22.2450   20.6770 C   0  0  0  0  0  2  0  0  0  0  0  0
  -29.2050  -23.8400   20.4520 C   0  0  0  0  0  3  0  0  0  0  0  0
  -28.0620  -24.9370   20.1350 C   0  0  0  0  0  3  0  0  0  0  0  0
  -28.3230  -26.4210   20.2320 O   0  0  0  0  0  0  0  0  0  0  0  0
  -24.6330  -31.9060   23.2560 C   0  0  0  0  0  0  0  0  0  0  0  0
  -27.2260  -27.3170   20.1790 C   0  0  0  0  0  0  0  0  0  0  0  0
  -23.4270  -30.5160   21.6130 C   0  0  0  0  0  3  0  0  0  0  0  0
  -24.8730  -28.9710   20.1750 C   0  0  0  0  0  0  0  0  0  0  0  0
  -25.9710  -30.8220   21.4300 C   0  0  0  0  0  2  0  0  0  0  0  0
  -26.0480  -29.4440   20.7740 C   0  0  0  0  0  0  0  0  0  0  0  0
  -27.2270  -28.6300   20.7630 C   0  0  0  0  0  3  0  0  0  0  0  0
  -26.0240  -26.9140   19.5510 C   0  0  0  0  0  3  0  0  0  0  0  0
  -24.8670  -27.7150   19.5530 C   0  0  0  0  0  3  0  0  0  0  0  0
  -23.6410  -29.8530   20.2290 C   0  0  0  0  0  2  0  0  0  0  0  0
  -24.6970  -31.1000   22.1560 N   0  0  0  0  0  0  0  0  0  0  0  0
  -23.5510  -32.1820   23.7940 O   0  0  0  0  0  0  0  0  0  0  0  0
  -22.7650  -29.4960   22.5700 C   0  0  0  0  0  0  0  0  0  0  0  0
  -21.4410  -29.3050   22.4330 N   0  0  0  0  0  0  0  0  0  0  0  0
  -23.4420  -28.8770   23.3950 O   0  0  0  0  0  0  0  0  0  0  0  0
  -20.9530  -29.8570   21.7410 H   0  0  0  0  0  0  0  0  0  0  0  0
  -18.0750  -28.0610   22.8990 C   0  0  0  0  0  0  0  0  0  0  0  0
  -20.6250  -28.3620   23.2000 C   0  0  0  0  0  3  0  0  0  0  0  0
  -20.7560  -26.9270   22.6390 C   0  0  0  0  0  2  0  0  0  0  0  0
  -19.6730  -26.5790   21.6130 C   0  0  0  0  0  2  0  0  0  0  0  0
  -18.2800  -26.7090   22.2360 C   0  0  0  0  0  2  0  0  0  0  0  0
  -19.1750  -28.8440   23.3380 C   0  0  0  0  0  0  0  0  0  0  0  0
  -18.9290  -30.1060   23.9170 C   0  0  0  0  0  3  0  0  0  0  0  0
  -17.6150  -30.5890   24.0620 C   0  0  0  0  0  3  0  0  0  0  0  0
  -16.5280  -29.8040   23.6390 C   0  0  0  0  0  3  0  0  0  0  0  0
  -16.7590  -28.5420   23.0630 C   0  0  0  0  0  3  0  0  0  0  0  0
  -25.9170  -32.5380   23.8790 C   0  0  0  0  0  3  0  0  0  0  0  0
  -25.6120  -33.9390   24.2020 N   0  0  0  0  0  0  0  0  0  0  0  0
  -25.9470  -34.9870   23.4390 C   0  0  0  0  0  0  0  0  0  0  0  0
  -26.6150  -34.8770   22.4070 O   0  0  0  0  0  0  0  0  0  0  0  0
  -25.0180  -34.0990   25.0020 H   0  0  0  0  0  0  0  0  0  0  0  0
  -24.2270  -36.7880   23.0750 C   0  0  0  0  0  1  0  0  0  0  0  0
  -25.4660  -36.3800   23.8900 C   0  0  0  0  0  3  0  0  0  0  0  0
  -27.6010  -37.2610   24.7220 C   0  0  0  0  0  1  0  0  0  0  0  0
  -26.5030  -37.4280   23.7740 N   0  0  0  0  0  0  0  0  0  0  0  0
  -26.1010  -38.3510   23.9140 H   0  0  0  0  0  0  0  0  0  0  0  0
  -26.4250  -31.7730   25.1630 C   0  0  1  0  0  0  0  0  0  0  0  0
  -25.3260  -31.5470   26.2290 C   0  0  0  0  0  1  0  0  0  0  0  0
  -27.0030  -30.3890   24.7830 C   0  0  0  0  0  1  0  0  0  0  0  0
  -27.5770  -32.5650   25.8230 C   0  0  0  0  0  1  0  0  0  0  0  0
  1  3  1  0
  1  2  2  0
  2  6  1  0
  3  4  2  0
  4  6  1  0
  4  7  1  0
  5  3  1  0
  6 47  1  0
  8  7  1  0
  8 17  1  0
  9 17  1  0
 10 15  1  0
 11 12  1  0
 11 10  1  0
 13 12  1  0
 13 22  1  0
 13 14  1  0
 15  9  1  0
 15 14  1  0
 16  9  2  0
 17 18  1  0
 19 20  2  0
 20 39  1  0
 21 20  1  0
 21 24  1  0
 22 19  1  0
 22 23  1  0
 23 21  2  0
 24 25  1  0
 25 26  2  0
 27 30  1  0
 27 26  1  0
 28 27  2  0
 29 28  1  0
 29 24  2  0
 30 31  1  0
 31 32  1  0
 32 33  2  0
 34 33  1  0
 34 38  1  0
 35 34  2  0
 36 31  2  0
 36 35  1  0
 37 36  1  0
 39 40  1  0
 40 43  1  0
 40 42  1  0
 41 39  2  0
 44 45  1  0
 44 19  1  0
 46 44  1  0
 48 47  1  0
 49 50  1  0
 49 48  2  0
 51 62  2  0
 52 50  1  0
 52 57  1  0
 53 61  1  0
 53 63  1  0
 54 60  1  0
 54 56  1  0
 55 61  1  0
 56 55  1  0
 57 56  2  0
 58 59  1  0
 58 52  2  0
 59 54  2  0
 60 53  1  0
 61 51  1  0
 63 65  2  0
 64 63  1  0
 66 64  1  0
 67 76  2  0
 67 72  1  0
 68 64  1  0
 68 72  1  0
 69 68  1  0
 70 71  1  0
 70 69  1  0
 71 67  1  0
 72 73  2  0
 73 74  1  0
 75 74  2  0
 76 75  1  0
 77 51  1  0
 77 78  1  0
 77 87  1  0
 78 81  1  0
 79 83  1  0
 79 78  1  0
 80 79  2  0
 83 82  1  0
 85 83  1  0
 85 86  1  0
 85 84  1  0
 87 90  1  1
 87 88  1  0
 89 87  1  0
M  ISO  4   9 100  17 100  49 101  50 101
M  END
>  <TORSDO>  (63) 
F 21

>  <SCORE>  (63) 
-13.359

>  <name>  (63) 
62

>  <ligand_id>  (63) 
62

>  <original_smiles>  (63) 
[H]c1c([H])c([H])c2c(c1[H])C([H])([H])C([H])([H])C([H])([H])C2([H])N([H])C(=O)C1([H])N(C(=O)C([H])(N([H])C(=O)C([H])(N([H])C([H])([H])[H])C([H])([H])[H])C(C([H])([H])[H])(C([H])([H])[H])C([H])([H])[H])C([H])([H])c2c([H])c(OC([H])([H])C([H])([H])C([H])([H])n3c([H])c([H])c(C([H])([H])[H])c3C([H])([H])C([H])([H])N([H])C(=O)N3C([H])([H])C([H])([H])C([H])([H])C([H])(n4nc(-c5c([H])c([H])c(Oc6c([H])c([H])c(F)c([H])c6F)c([H])c5[H])c(C(=O)N([H])[H])c4N([H])[H])C3([H])[H])c([H])c([H])c2C1([H])[H]

>  <smiles>  (63) 
[H]c1c([H])c([H])c2c(c1[H])C([H])([H])C([H])([H])C([H])([H])C2([H])N([H])C(=O)C1([H])N(C(=O)C([H])(N([H])C(=O)C([H])(N([H])C([H])([H])[H])C([H])([H])[H])C(C([H])([H])[H])(C([H])([H])[H])C([H])([H])[H])C([H])([H])c2c([H])c(OC([H])([H])C([H])([H])C([H])([H])n3c([H])c([H])c(C([H])([H])[H])c3C([H])([H])C([H])([H])N([H])C(=O)N3C([H])([H])C([H])([H])C([H])([H])C([H])(n4nc(-c5c([H])c([H])c(Oc6c([H])c([H])c(F)c([H])c6F)c([H])c5[H])c(C(=O)N([H])[H])c4N([H])[H])C3([H])[H])c([H])c([H])c2C1([H])[H]

$$$$
63:0:0
     RDKit          3D

 94102  0  0  1  0  0  0  0  0999 V2000
  -29.2790  -20.8720   20.9040 C   0  0  0  0  0  3  0  0  0  0  0  0
  -28.7420  -22.1280   20.5030 C   0  0  0  0  0  0  0  0  0  0  0  0
  -28.6770  -19.6710   20.4240 C   0  0  0  0  0  0  0  0  0  0  0  0
  -27.6500  -22.0740   19.5950 C   0  0  0  0  0  0  0  0  0  0  0  0
  -27.6640  -19.7280   19.5270 N   0  0  0  0  0  0  0  0  0  0  0  0
  -27.1840  -20.9000   19.1000 N   0  0  0  0  0  0  0  0  0  0  0  0
  -29.9910  -18.2550   22.1380 C   0  0  0  0  0  1  0  0  0  0  0  0
  -28.9050  -18.2610   21.0450 C   0  0  0  0  0  3  0  0  0  0  0  0
  -29.1640  -17.1010   20.0220 C   0  0  0  0  0  2  0  0  0  0  0  0
  -30.3800  -14.9040   19.9760 C   0  0  0  0  0  0  0  0  0  0  0  0
  -30.1210  -12.6860   18.9080 C   0  0  0  0  0  2  0  0  0  0  0  0
  -29.0880  -12.7900   17.7650 C   0  0  0  0  0  2  0  0  0  0  0  0
  -27.6550  -12.6060   18.3060 C   0  0  0  0  0  2  0  0  0  0  0  0
  -27.3640  -13.4850   19.5540 C   0  0  0  0  0  3  0  0  0  0  0  0
  -28.4980  -13.3430   20.5970 C   0  0  0  0  0  2  0  0  0  0  0  0
  -29.7670  -13.6870   19.9320 N   0  0  0  0  0  0  0  0  0  0  0  0
  -31.4260  -15.1560   19.3770 O   0  0  0  0  0  0  0  0  0  0  0  0
  -29.7230  -15.8740   20.6440 N   0  0  0  0  0  0  0  0  0  0  0  0
  -30.1720  -16.0590   21.5300 H   0  0  0  0  0  0  0  0  0  0  0  0
  -25.0390  -14.0380   20.5090 C   0  0  0  0  0  0  0  0  0  0  0  0
  -24.0060  -13.2370   20.9220 C   0  0  0  0  0  0  0  0  0  0  0  0
  -24.4590  -11.8920   20.7630 C   0  0  0  0  0  0  0  0  0  0  0  0
  -26.0580  -13.1770   20.1330 N   0  0  0  0  0  0  0  0  0  0  0  0
  -25.7170  -11.8800   20.3400 N   0  0  0  0  0  0  0  0  0  0  0  0
  -23.7520  -10.6190   20.9370 C   0  0  0  0  0  0  0  0  0  0  0  0
  -24.2520   -9.6050   21.7860 C   0  0  0  0  0  3  0  0  0  0  0  0
  -23.5410   -8.3970   21.9520 C   0  0  0  0  0  3  0  0  0  0  0  0
  -22.3190   -8.1920   21.2700 C   0  0  0  0  0  0  0  0  0  0  0  0
  -21.8410   -9.1920   20.4080 C   0  0  0  0  0  3  0  0  0  0  0  0
  -22.5500  -10.3940   20.2370 C   0  0  0  0  0  3  0  0  0  0  0  0
  -21.5760   -7.0380   21.3480 O   0  0  0  0  0  0  0  0  0  0  0  0
  -21.6060   -6.2370   22.4620 C   0  0  0  0  0  0  0  0  0  0  0  0
  -21.2620   -6.7310   23.7410 C   0  0  0  0  0  3  0  0  0  0  0  0
  -21.2350   -5.8580   24.8480 C   0  0  0  0  0  3  0  0  0  0  0  0
  -21.5410   -4.4940   24.6780 C   0  0  0  0  0  0  0  0  0  0  0  0
  -21.8760   -4.0010   23.4060 C   0  0  0  0  0  3  0  0  0  0  0  0
  -21.9050   -4.8690   22.3000 C   0  0  0  0  0  0  0  0  0  0  0  0
  -22.2070   -4.3860   21.0710 F   0  0  0  0  0  0  0  0  0  0  0  0
  -21.5080   -3.6540   25.7390 F   0  0  0  0  0  0  0  0  0  0  0  0
  -22.6380  -13.6890   21.3470 C   0  0  0  0  0  0  0  0  0  0  0  0
  -22.0070  -12.9570   22.2600 N   0  0  0  0  0  0  0  0  0  0  0  0
  -22.1440  -14.7300   20.9150 O   0  0  0  0  0  0  0  0  0  0  0  0
  -22.4230  -12.1170   22.6340 H   0  0  0  0  0  0  0  0  0  0  0  0
  -21.0950  -13.2420   22.5850 H   0  0  0  0  0  0  0  0  0  0  0  0
  -25.1900  -15.4160   20.4120 N   0  0  0  0  0  0  0  0  0  0  0  0
  -24.4460  -16.0630   20.6560 H   0  0  0  0  0  0  0  0  0  0  0  0
  -26.0240  -15.8890   20.0890 H   0  0  0  0  0  0  0  0  0  0  0  0
  -29.1690  -23.4410   21.2000 C   0  0  0  0  0  2  0  0  0  0  0  0
  -29.6560  -24.6460   20.3320 C   0  0  0  0  0  2  0  0  0  0  0  0
  -29.5260  -26.0040   21.0980 C   0  0  0  0  0  2  0  0  0  0  0  0
  -29.4610  -27.2290   20.3260 O   0  0  0  0  0  0  0  0  0  0  0  0
  -24.6680  -31.6130   23.3430 C   0  0  0  0  0  0  0  0  0  0  0  0
  -28.2130  -27.8230   20.2770 C   0  0  0  0  0  0  0  0  0  0  0  0
  -23.8350  -30.1560   21.5290 C   0  0  0  0  0  3  0  0  0  0  0  0
  -25.6220  -28.9620   20.1530 C   0  0  0  0  0  0  0  0  0  0  0  0
  -26.2830  -30.9090   21.5730 C   0  0  0  0  0  2  0  0  0  0  0  0
  -26.6380  -29.6160   20.8620 C   0  0  0  0  0  0  0  0  0  0  0  0
  -27.9420  -29.0600   20.9130 C   0  0  0  0  0  3  0  0  0  0  0  0
  -27.1790  -27.1850   19.5660 C   0  0  0  0  0  3  0  0  0  0  0  0
  -25.8900  -27.7520   19.4930 C   0  0  0  0  0  3  0  0  0  0  0  0
  -24.2570  -29.6140   20.1390 C   0  0  0  0  0  2  0  0  0  0  0  0
  -24.9400  -30.9080   22.2080 N   0  0  0  0  0  0  0  0  0  0  0  0
  -23.5170  -31.6760   23.8000 O   0  0  0  0  0  0  0  0  0  0  0  0
  -23.2830  -28.9820   22.3730 C   0  0  0  0  0  0  0  0  0  0  0  0
  -22.0230  -28.5980   22.1150 N   0  0  0  0  0  0  0  0  0  0  0  0
  -23.9890  -28.4190   23.2120 O   0  0  0  0  0  0  0  0  0  0  0  0
  -21.5030  -29.1200   21.4220 H   0  0  0  0  0  0  0  0  0  0  0  0
  -18.8720  -26.8330   22.2130 C   0  0  0  0  0  0  0  0  0  0  0  0
  -21.3160  -27.4840   22.7490 C   0  0  0  0  0  3  0  0  0  0  0  0
  -21.7110  -26.1290   22.1160 C   0  0  0  0  0  2  0  0  0  0  0  0
  -20.7750  -25.7020   20.9810 C   0  0  0  0  0  2  0  0  0  0  0  0
  -19.3350  -25.5760   21.4930 C   0  0  0  0  0  2  0  0  0  0  0  0
  -19.8040  -27.7370   22.7880 C   0  0  0  0  0  0  0  0  0  0  0  0
  -19.3270  -28.9110   23.4090 C   0  0  0  0  0  3  0  0  0  0  0  0
  -17.9480  -29.1870   23.4630 C   0  0  0  0  0  3  0  0  0  0  0  0
  -17.0260  -28.2780   22.9130 C   0  0  0  0  0  3  0  0  0  0  0  0
  -17.4880  -27.1020   22.2930 C   0  0  0  0  0  3  0  0  0  0  0  0
  -25.7810  -32.3930   24.1070 C   0  0  0  0  0  3  0  0  0  0  0  0
  -25.2800  -33.7530   24.3570 N   0  0  0  0  0  0  0  0  0  0  0  0
  -25.5810  -34.8240   23.6110 C   0  0  0  0  0  0  0  0  0  0  0  0
  -26.3800  -34.7840   22.6720 O   0  0  0  0  0  0  0  0  0  0  0  0
  -24.5790  -33.8510   25.0760 H   0  0  0  0  0  0  0  0  0  0  0  0
  -23.7060  -36.3880   23.0110 C   0  0  0  0  0  1  0  0  0  0  0  0
  -24.8880  -36.1540   23.9660 C   0  0  0  0  0  3  0  0  0  0  0  0
  -26.8060  -37.2980   24.9860 C   0  0  0  0  0  1  0  0  0  0  0  0
  -25.7970  -37.3200   23.9290 N   0  0  0  0  0  0  0  0  0  0  0  0
  -25.2740  -38.1870   24.0080 H   0  0  0  0  0  0  0  0  0  0  0  0
  -26.2100  -31.7010   25.4590 C   0  0  1  0  0  0  0  0  0  0  0  0
  -25.0210  -31.3570   26.3850 C   0  0  0  0  0  1  0  0  0  0  0  0
  -26.9870  -30.3920   25.1820 C   0  0  0  0  0  1  0  0  0  0  0  0
  -27.1720  -32.6290   26.2400 C   0  0  0  0  0  1  0  0  0  0  0  0
  -26.8330  -23.2930   19.1930 C   0  0  0  0  0  2  0  0  0  0  0  0
  -24.8650  -23.2430   20.8870 C   0  0  0  0  0  1  0  0  0  0  0  0
  -26.1280  -23.9670   20.3860 C   0  0  0  0  0  2  0  0  0  0  0  0
  2  1  1  0
  2 48  1  0
  3  1  2  0
  3  8  1  0
  4  2  2  0
  5  3  1  0
  6  5  2  0
  6  4  1  0
  8  7  1  0
  9 18  1  0
  9  8  1  0
 10 18  1  0
 11 16  1  0
 12 13  1  0
 12 11  1  0
 14 13  1  0
 14 23  1  0
 14 15  1  0
 16 10  1  0
 16 15  1  0
 17 10  2  0
 18 19  1  0
 20 21  2  0
 21 40  1  0
 22 21  1  0
 22 25  1  0
 23 24  1  0
 23 20  1  0
 24 22  2  0
 25 26  1  0
 26 27  2  0
 28 31  1  0
 28 27  1  0
 29 28  2  0
 30 29  1  0
 30 25  2  0
 31 32  1  0
 32 33  1  0
 33 34  2  0
 35 34  1  0
 35 39  1  0
 36 35  2  0
 37 32  2  0
 37 36  1  0
 38 37  1  0
 40 41  1  0
 41 44  1  0
 41 43  1  0
 42 40  2  0
 45 20  1  0
 45 46  1  0
 47 45  1  0
 49 50  1  0
 49 48  1  0
 51 50  1  0
 52 63  2  0
 53 51  1  0
 53 58  1  0
 54 62  1  0
 54 64  1  0
 55 57  1  0
 56 62  1  0
 57 58  2  0
 57 56  1  0
 59 53  2  0
 60 59  1  0
 60 55  2  0
 61 55  1  0
 61 54  1  0
 62 52  1  0
 64 66  2  0
 65 64  1  0
 67 65  1  0
 68 77  2  0
 68 73  1  0
 69 65  1  0
 69 73  1  0
 70 69  1  0
 71 72  1  0
 71 70  1  0
 72 68  1  0
 73 74  2  0
 74 75  1  0
 76 75  2  0
 77 76  1  0
 78 52  1  0
 78 79  1  0
 78 88  1  0
 79 82  1  0
 80 84  1  0
 80 79  1  0
 81 80  2  0
 84 83  1  0
 86 84  1  0
 86 87  1  0
 86 85  1  0
 88 91  1  1
 88 89  1  0
 90 88  1  0
 92  4  1  0
 92 94  1  0
 94 93  1  0
M  ISO  4  10 100  18 100  50 101  51 101
M  END
>  <TORSDO>  (64) 
F 23

>  <SCORE>  (64) 
-10.470

>  <name>  (64) 
63

>  <ligand_id>  (64) 
63

>  <original_smiles>  (64) 
[H]c1c([H])c([H])c2c(c1[H])C([H])([H])C([H])([H])C([H])([H])C2([H])N([H])C(=O)C1([H])N(C(=O)C([H])(N([H])C(=O)C([H])(N([H])C([H])([H])[H])C([H])([H])[H])C(C([H])([H])[H])(C([H])([H])[H])C([H])([H])[H])C([H])([H])c2c([H])c(OC([H])([H])C([H])([H])C([H])([H])c3c(C([H])([H])C([H])([H])C([H])([H])[H])nnc(C([H])(C([H])([H])[H])C([H])([H])N([H])C(=O)N4C([H])([H])C([H])([H])C([H])([H])C([H])(n5nc(-c6c([H])c([H])c(Oc7c([H])c([H])c(F)c([H])c7F)c([H])c6[H])c(C(=O)N([H])[H])c5N([H])[H])C4([H])[H])c3[H])c([H])c([H])c2C1([H])[H]

>  <smiles>  (64) 
[H]c1c([H])c([H])c2c(c1[H])C([H])([H])C([H])([H])C([H])([H])C2([H])N([H])C(=O)C1([H])N(C(=O)C([H])(N([H])C(=O)C([H])(N([H])C([H])([H])[H])C([H])([H])[H])C(C([H])([H])[H])(C([H])([H])[H])C([H])([H])[H])C([H])([H])c2c([H])c(OC([H])([H])C([H])([H])C([H])([H])c3c(C([H])([H])C([H])([H])C([H])([H])[H])nnc(C([H])(C([H])([H])[H])C([H])([H])N([H])C(=O)N4C([H])([H])C([H])([H])C([H])([H])C([H])(n5nc(-c6c([H])c([H])c(Oc7c([H])c([H])c(F)c([H])c7F)c([H])c6[H])c(C(=O)N([H])[H])c5N([H])[H])C4([H])[H])c3[H])c([H])c([H])c2C1([H])[H]

$$$$
64:0:0
     RDKit          3D

 99107  0  0  1  0  0  0  0  0999 V2000
  -28.0990  -19.2900   20.1170 C   0  0  0  0  0  3  0  0  0  0  0  0
  -27.9060  -17.9290   19.9560 C   0  0  0  0  0  0  0  0  0  0  0  0
  -26.3840  -19.0130   18.7250 C   0  0  0  0  0  3  0  0  0  0  0  0
  -27.1550  -19.9380   19.3410 N   0  0  0  0  0  0  0  0  0  0  0  0
  -26.8440  -17.8290   19.1080 N   0  0  0  0  0  0  0  0  0  0  0  0
  -26.4750  -16.9500   18.7610 H   0  0  0  0  0  0  0  0  0  0  0  0
  -28.5400  -16.6630   20.4740 C   0  0  0  0  0  2  0  0  0  0  0  0
  -30.0680  -16.5350   20.3070 C   0  0  0  0  0  2  0  0  0  0  0  0
  -31.0840  -14.2540   20.2120 C   0  0  0  0  0  0  0  0  0  0  0  0
  -30.7950  -11.9170   19.4660 C   0  0  0  0  0  2  0  0  0  0  0  0
  -29.9050  -11.9140   18.2050 C   0  0  0  0  0  2  0  0  0  0  0  0
  -28.4040  -11.9110   18.5810 C   0  0  0  0  0  2  0  0  0  0  0  0
  -28.0570  -12.9960   19.6330 C   0  0  0  0  0  3  0  0  0  0  0  0
  -29.0440  -12.9040   20.8140 C   0  0  0  0  0  2  0  0  0  0  0  0
  -30.4180  -13.0710   20.2940 N   0  0  0  0  0  0  0  0  0  0  0  0
  -32.1100  -14.4240   19.5460 O   0  0  0  0  0  0  0  0  0  0  0  0
  -30.4870  -15.2460   20.8860 N   0  0  0  0  0  0  0  0  0  0  0  0
  -29.8840  -14.9070   21.6220 H   0  0  0  0  0  0  0  0  0  0  0  0
  -25.7330  -13.8640   20.3320 C   0  0  0  0  0  0  0  0  0  0  0  0
  -24.5820  -13.2140   20.6970 C   0  0  0  0  0  0  0  0  0  0  0  0
  -24.8910  -11.8200   20.6510 C   0  0  0  0  0  0  0  0  0  0  0  0
  -26.6750  -12.8740   20.0910 N   0  0  0  0  0  0  0  0  0  0  0  0
  -26.1660  -11.6370   20.3320 N   0  0  0  0  0  0  0  0  0  0  0  0
  -24.0270  -10.6450   20.8300 C   0  0  0  0  0  0  0  0  0  0  0  0
  -24.4020   -9.5730   21.6700 C   0  0  0  0  0  3  0  0  0  0  0  0
  -23.5490   -8.4620   21.8380 C   0  0  0  0  0  3  0  0  0  0  0  0
  -22.3030   -8.4140   21.1670 C   0  0  0  0  0  0  0  0  0  0  0  0
  -21.9420   -9.4760   20.3170 C   0  0  0  0  0  3  0  0  0  0  0  0
  -22.7970  -10.5780   20.1480 C   0  0  0  0  0  3  0  0  0  0  0  0
  -21.4200   -7.3620   21.2490 O   0  0  0  0  0  0  0  0  0  0  0  0
  -21.4340   -6.4960   22.3120 C   0  0  0  0  0  0  0  0  0  0  0  0
  -21.2810   -6.9420   23.6440 C   0  0  0  0  0  3  0  0  0  0  0  0
  -21.2360   -6.0090   24.6970 C   0  0  0  0  0  3  0  0  0  0  0  0
  -21.3260   -4.6310   24.4250 C   0  0  0  0  0  0  0  0  0  0  0  0
  -21.4820   -4.1840   23.1000 C   0  0  0  0  0  3  0  0  0  0  0  0
  -21.5300   -5.1140   22.0470 C   0  0  0  0  0  0  0  0  0  0  0  0
  -21.6500   -4.6760   20.7700 F   0  0  0  0  0  0  0  0  0  0  0  0
  -21.2790   -3.7320   25.4360 F   0  0  0  0  0  0  0  0  0  0  0  0
  -23.2490  -13.8460   20.9710 C   0  0  0  0  0  0  0  0  0  0  0  0
  -22.4520  -13.2510   21.8520 N   0  0  0  0  0  0  0  0  0  0  0  0
  -22.9230  -14.9030   20.4310 O   0  0  0  0  0  0  0  0  0  0  0  0
  -22.7290  -12.3990   22.3150 H   0  0  0  0  0  0  0  0  0  0  0  0
  -21.5580  -13.6640   22.0750 H   0  0  0  0  0  0  0  0  0  0  0  0
  -26.0360  -15.2120   20.1670 N   0  0  0  0  0  0  0  0  0  0  0  0
  -25.2350  -15.8140   20.0090 H   0  0  0  0  0  0  0  0  0  0  0  0
  -26.8360  -15.4830   19.6050 H   0  0  0  0  0  0  0  0  0  0  0  0
  -25.2900  -19.0990   17.6920 C   0  0  0  0  0  2  0  0  0  0  0  0
  -24.5900  -20.4450   17.4360 C   0  0  0  0  0  2  0  0  0  0  0  0
  -22.1820  -21.1880   16.9550 C   0  0  0  0  0  1  0  0  0  0  0  0
  -23.7120  -20.4710   15.0530 C   0  0  0  0  0  1  0  0  0  0  0  0
  -23.3490  -20.2820   16.5320 C   0  0  0  0  0  3  0  0  0  0  0  0
  -26.9920  -21.3850   19.1060 C   0  0  0  0  0  2  0  0  0  0  0  0
  -28.0920  -22.3140   19.6790 C   0  0  0  0  0  2  0  0  0  0  0  0
  -27.9630  -23.7950   19.2120 C   0  0  0  0  0  3  0  0  0  0  0  0
  -27.3550  -25.2050   17.0840 C   0  0  0  0  0  1  0  0  0  0  0  0
  -27.7400  -23.8540   17.6770 C   0  0  0  0  0  2  0  0  0  0  0  0
  -29.1780  -24.6670   19.6570 C   0  0  0  0  0  2  0  0  0  0  0  0
  -28.9900  -25.4130   21.0050 C   0  0  0  0  0  2  0  0  0  0  0  0
  -29.1130  -26.8510   20.9440 O   0  0  0  0  0  0  0  0  0  0  0  0
  -24.8510  -31.9820   23.4280 C   0  0  0  0  0  0  0  0  0  0  0  0
  -27.9330  -27.5520   20.8000 C   0  0  0  0  0  0  0  0  0  0  0  0
  -23.8460  -30.4520   21.7750 C   0  0  0  0  0  3  0  0  0  0  0  0
  -25.4820  -28.9440   20.5480 C   0  0  0  0  0  0  0  0  0  0  0  0
  -26.3640  -30.9440   21.7400 C   0  0  0  0  0  2  0  0  0  0  0  0
  -26.5710  -29.5510   21.1840 C   0  0  0  0  0  0  0  0  0  0  0  0
  -27.8070  -28.8720   21.2930 C   0  0  0  0  0  3  0  0  0  0  0  0
  -26.8160  -26.9620   20.1710 C   0  0  0  0  0  3  0  0  0  0  0  0
  -25.5970  -27.6430   20.0380 C   0  0  0  0  0  3  0  0  0  0  0  0
  -24.1980  -29.7310   20.4520 C   0  0  0  0  0  2  0  0  0  0  0  0
  -25.0340  -31.1410   22.3740 N   0  0  0  0  0  0  0  0  0  0  0  0
  -23.7190  -32.2220   23.8720 O   0  0  0  0  0  0  0  0  0  0  0  0
  -23.1760  -29.4360   22.7260 C   0  0  0  0  0  0  0  0  0  0  0  0
  -21.8730  -29.1850   22.5180 N   0  0  0  0  0  0  0  0  0  0  0  0
  -23.8270  -28.8710   23.6090 O   0  0  0  0  0  0  0  0  0  0  0  0
  -21.3940  -29.7100   21.7980 H   0  0  0  0  0  0  0  0  0  0  0  0
  -18.5040  -27.9330   22.8460 C   0  0  0  0  0  0  0  0  0  0  0  0
  -21.0360  -28.2440   23.2680 C   0  0  0  0  0  3  0  0  0  0  0  0
  -21.1990  -26.8110   22.7130 C   0  0  0  0  0  2  0  0  0  0  0  0
  -20.1660  -26.4560   21.6360 C   0  0  0  0  0  2  0  0  0  0  0  0
  -18.7430  -26.5720   22.2040 C   0  0  0  0  0  2  0  0  0  0  0  0
  -19.5790  -28.7160   23.3430 C   0  0  0  0  0  0  0  0  0  0  0  0
  -19.3070  -29.9720   23.9320 C   0  0  0  0  0  3  0  0  0  0  0  0
  -17.9830  -30.4500   24.0160 C   0  0  0  0  0  3  0  0  0  0  0  0
  -16.9230  -29.6660   23.5380 C   0  0  0  0  0  3  0  0  0  0  0  0
  -17.1770  -28.4090   22.9660 C   0  0  0  0  0  3  0  0  0  0  0  0
  -26.0480  -32.7130   24.1080 C   0  0  0  0  0  3  0  0  0  0  0  0
  -25.6460  -34.1050   24.3460 N   0  0  0  0  0  0  0  0  0  0  0  0
  -25.9470  -35.1310   23.5370 C   0  0  0  0  0  0  0  0  0  0  0  0
  -26.6710  -35.0090   22.5450 O   0  0  0  0  0  0  0  0  0  0  0  0
  -25.0130  -34.2690   25.1140 H   0  0  0  0  0  0  0  0  0  0  0  0
  -24.1170  -36.7770   23.0220 C   0  0  0  0  0  1  0  0  0  0  0  0
  -25.3540  -36.5080   23.8940 C   0  0  0  0  0  3  0  0  0  0  0  0
  -27.4020  -37.5850   24.7210 C   0  0  0  0  0  1  0  0  0  0  0  0
  -26.3160  -37.6220   23.7420 N   0  0  0  0  0  0  0  0  0  0  0  0
  -25.8490  -38.5220   23.8210 H   0  0  0  0  0  0  0  0  0  0  0  0
  -26.5050  -32.0260   25.4520 C   0  0  1  0  0  0  0  0  0  0  0  0
  -25.3440  -31.7310   26.4280 C   0  0  0  0  0  1  0  0  0  0  0  0
  -27.2350  -30.6930   25.1620 C   0  0  0  0  0  1  0  0  0  0  0  0
  -27.5180  -32.9380   26.1840 C   0  0  0  0  0  1  0  0  0  0  0  0
  2  1  2  0
  2  7  1  0
  3 47  1  0
  3  5  1  0
  3  4  1  0
  4  1  1  0
  5  2  1  0
  6  5  1  0
  8  7  1  0
  8 17  1  0
  9 15  1  0
  9 17  1  0
 10 15  1  0
 11 12  1  0
 11 10  1  0
 13 12  1  0
 13 22  1  0
 13 14  1  0
 15 14  1  0
 16  9  2  0
 17 18  1  0
 19 20  2  0
 20 39  1  0
 21 20  1  0
 21 24  1  0
 22 19  1  0
 22 23  1  0
 23 21  2  0
 24 25  1  0
 25 26  2  0
 27 30  1  0
 27 26  1  0
 28 27  2  0
 29 28  1  0
 29 24  2  0
 30 31  1  0
 31 32  1  0
 32 33  2  0
 34 33  1  0
 34 38  1  0
 35 34  2  0
 36 31  2  0
 36 35  1  0
 37 36  1  0
 39 40  1  0
 40 43  1  0
 40 42  1  0
 41 39  2  0
 44 19  1  0
 45 44  1  0
 46 44  1  0
 48 47  1  0
 50 51  1  0
 51 49  1  0
 51 48  1  0
 52  4  1  0
 52 53  1  0
 54 56  1  0
 54 57  1  0
 54 53  1  0
 55 56  1  0
 57 58  1  0
 59 58  1  0
 60 71  2  0
 61 59  1  0
 61 66  1  0
 62 70  1  0
 62 72  1  0
 63 65  1  0
 64 70  1  0
 65 66  2  0
 65 64  1  0
 67 61  2  0
 68 67  1  0
 68 63  2  0
 69 63  1  0
 69 62  1  0
 70 60  1  0
 72 74  2  0
 73 72  1  0
 75 73  1  0
 76 85  2  0
 76 81  1  0
 77 73  1  0
 77 81  1  0
 78 77  1  0
 79 80  1  0
 79 78  1  0
 80 76  1  0
 81 82  2  0
 82 83  1  0
 84 83  2  0
 85 84  1  0
 86 60  1  0
 86 87  1  0
 86 96  1  0
 87 90  1  0
 88 92  1  0
 88 87  1  0
 89 88  2  0
 92 91  1  0
 94 95  1  0
 94 92  1  0
 94 93  1  0
 96 99  1  1
 96 97  1  0
 98 96  1  0
M  ISO  4   9 100  17 100  58 101  59 101
M  END
>  <TORSDO>  (65) 
F 27

>  <SCORE>  (65) 
-7.145

>  <name>  (65) 
64

>  <ligand_id>  (65) 
64

>  <original_smiles>  (65) 
[H]c1c([H])c([H])c2c(c1[H])C([H])([H])C([H])([H])C([H])([H])C2([H])N([H])C(=O)C1([H])N(C(=O)C([H])(N([H])C(=O)C([H])(N([H])C([H])([H])[H])C([H])([H])[H])C(C([H])([H])[H])(C([H])([H])[H])C([H])([H])[H])C([H])([H])c2c([H])c(OC([H])([H])C([H])([H])C([H])(C([H])([H])C([H])([H])[H])C([H])([H])C([H])([H])n3c([H])c(C([H])([H])C([H])([H])N([H])C(=O)N4C([H])([H])C([H])([H])C([H])([H])C([H])(n5nc(-c6c([H])c([H])c(Oc7c([H])c([H])c(F)c([H])c7F)c([H])c6[H])c(C(=O)N([H])[H])c5N([H])[H])C4([H])[H])[n+]([H])c3C([H])([H])C([H])([H])C([H])(C([H])([H])[H])C([H])([H])[H])c([H])c([H])c2C1([H])[H]

>  <smiles>  (65) 
[H]c1c([H])c([H])c2c(c1[H])C([H])([H])C([H])([H])C([H])([H])C2([H])N([H])C(=O)C1([H])N(C(=O)C([H])(N([H])C(=O)C([H])(N([H])C([H])([H])[H])C([H])([H])[H])C(C([H])([H])[H])(C([H])([H])[H])C([H])([H])[H])C([H])([H])c2c([H])c(OC([H])([H])C([H])([H])C([H])(C([H])([H])C([H])([H])[H])C([H])([H])C([H])([H])n3c([H])c(C([H])([H])C([H])([H])N([H])C(=O)N4C([H])([H])C([H])([H])C([H])([H])C([H])(n5nc(-c6c([H])c([H])c(Oc7c([H])c([H])c(F)c([H])c7F)c([H])c6[H])c(C(=O)N([H])[H])c5N([H])[H])C4([H])[H])[n+]([H])c3C([H])([H])C([H])([H])C([H])(C([H])([H])[H])C([H])([H])[H])c([H])c([H])c2C1([H])[H]

$$$$
65:0:0
     RDKit          3D

 91 99  0  0  1  0  0  0  0  0999 V2000
  -29.6510  -21.5270   22.0550 C   0  0  0  0  0  3  0  0  0  0  0  0
  -30.7280  -21.1180   22.8490 C   0  0  0  0  0  0  0  0  0  0  0  0
  -29.1480  -20.7650   20.9740 C   0  0  0  0  0  0  0  0  0  0  0  0
  -31.3090  -19.8800   22.5640 C   0  0  0  0  0  0  0  0  0  0  0  0
  -29.7860  -19.3940   20.8050 C   0  0  0  0  0  0  0  0  0  0  0  0
  -32.4940  -19.3400   23.3420 C   0  0  0  0  0  1  0  0  0  0  0  0
  -30.8450  -19.0870   21.5900 N   0  0  0  0  0  0  0  0  0  0  0  0
  -30.3350  -21.9530   25.2120 C   0  0  0  0  0  1  0  0  0  0  0  0
  -31.2200  -22.0320   23.9640 C   0  0  0  0  0  2  0  0  0  0  0  0
  -27.9640  -21.6390   20.2710 C   0  0  0  0  0  2  0  0  0  0  0  0
  -28.1710  -23.2420   19.7260 C   0  0  0  0  0  3  0  0  0  0  0  0
  -27.0950  -24.5300   19.8010 C   0  0  0  0  0  3  0  0  0  0  0  0
  -27.3990  -26.0200   19.4770 O   0  0  0  0  0  0  0  0  0  0  0  0
  -24.5160  -31.7720   23.0480 C   0  0  0  0  0  0  0  0  0  0  0  0
  -26.3960  -27.0500   19.5680 C   0  0  0  0  0  0  0  0  0  0  0  0
  -23.0370  -30.5220   21.5240 C   0  0  0  0  0  3  0  0  0  0  0  0
  -24.1940  -28.9240   19.8790 C   0  0  0  0  0  0  0  0  0  0  0  0
  -25.5620  -30.6410   21.0520 C   0  0  0  0  0  2  0  0  0  0  0  0
  -25.4650  -29.2770   20.3510 C   0  0  0  0  0  0  0  0  0  0  0  0
  -26.5650  -28.3570   20.1790 C   0  0  0  0  0  3  0  0  0  0  0  0
  -25.1000  -26.7960   19.0680 C   0  0  0  0  0  3  0  0  0  0  0  0
  -24.0230  -27.6960   19.2200 C   0  0  0  0  0  3  0  0  0  0  0  0
  -23.0440  -29.8920   20.1050 C   0  0  0  0  0  2  0  0  0  0  0  0
  -24.4000  -30.9950   21.9280 N   0  0  0  0  0  0  0  0  0  0  0  0
  -23.5240  -32.1000   23.7160 O   0  0  0  0  0  0  0  0  0  0  0  0
  -22.4150  -29.5180   22.5260 C   0  0  0  0  0  0  0  0  0  0  0  0
  -21.0850  -29.3260   22.4560 N   0  0  0  0  0  0  0  0  0  0  0  0
  -23.1280  -28.9160   23.3320 O   0  0  0  0  0  0  0  0  0  0  0  0
  -20.5630  -29.8680   21.7810 H   0  0  0  0  0  0  0  0  0  0  0  0
  -17.7790  -27.9420   22.9750 C   0  0  0  0  0  0  0  0  0  0  0  0
  -20.3080  -28.3900   23.2740 C   0  0  0  0  0  3  0  0  0  0  0  0
  -20.5170  -26.9330   22.8030 C   0  0  0  0  0  2  0  0  0  0  0  0
  -19.4640  -26.4700   21.7910 C   0  0  0  0  0  2  0  0  0  0  0  0
  -18.0590  -26.5650   22.3950 C   0  0  0  0  0  2  0  0  0  0  0  0
  -18.8350  -28.8040   23.3730 C   0  0  0  0  0  0  0  0  0  0  0  0
  -18.5180  -30.0860   23.8740 C   0  0  0  0  0  3  0  0  0  0  0  0
  -17.1790  -30.5070   23.9820 C   0  0  0  0  0  3  0  0  0  0  0  0
  -16.1380  -29.6430   23.6020 C   0  0  0  0  0  3  0  0  0  0  0  0
  -16.4390  -28.3640   23.1020 C   0  0  0  0  0  3  0  0  0  0  0  0
  -25.9000  -32.3010   23.5340 C   0  0  0  0  0  3  0  0  0  0  0  0
  -25.7060  -33.6710   24.0340 N   0  0  0  0  0  0  0  0  0  0  0  0
  -26.0680  -34.7820   23.3790 C   0  0  0  0  0  0  0  0  0  0  0  0
  -26.6670  -34.7550   22.3010 O   0  0  0  0  0  0  0  0  0  0  0  0
  -25.1720  -33.7690   24.8860 H   0  0  0  0  0  0  0  0  0  0  0  0
  -24.4770  -36.7320   23.3190 C   0  0  0  0  0  1  0  0  0  0  0  0
  -25.7100  -36.1370   24.0200 C   0  0  0  0  0  3  0  0  0  0  0  0
  -27.9330  -36.7570   24.8590 C   0  0  0  0  0  1  0  0  0  0  0  0
  -26.8180  -37.1170   23.9880 N   0  0  0  0  0  0  0  0  0  0  0  0
  -26.4910  -38.0410   24.2560 H   0  0  0  0  0  0  0  0  0  0  0  0
  -26.5510  -31.3960   24.6510 C   0  0  1  0  0  0  0  0  0  0  0  0
  -25.6090  -31.1000   25.8420 C   0  0  0  0  0  1  0  0  0  0  0  0
  -27.0050  -30.0400   24.0620 C   0  0  0  0  0  1  0  0  0  0  0  0
  -27.8220  -32.0800   25.2070 C   0  0  0  0  0  1  0  0  0  0  0  0
  -29.6430  -18.0720   19.8460 C   0  0  0  0  0  2  0  0  0  0  0  0
  -29.7700  -16.5090   20.5110 C   0  0  0  0  0  2  0  0  0  0  0  0
  -30.5720  -15.1710   19.9570 C   0  0  0  0  0  0  0  0  0  0  0  0
  -30.4540  -12.8410   18.9470 C   0  0  0  0  0  2  0  0  0  0  0  0
  -29.4390  -12.8290   17.7780 C   0  0  0  0  0  2  0  0  0  0  0  0
  -28.0080  -12.5870   18.2950 C   0  0  0  0  0  2  0  0  0  0  0  0
  -27.6680  -13.4740   19.5210 C   0  0  0  0  0  3  0  0  0  0  0  0
  -28.7920  -13.4480   20.5780 C   0  0  0  0  0  2  0  0  0  0  0  0
  -30.0290  -13.8870   19.9190 N   0  0  0  0  0  0  0  0  0  0  0  0
  -31.7130  -15.3030   19.5000 O   0  0  0  0  0  0  0  0  0  0  0  0
  -25.3310  -14.0010   20.4290 C   0  0  0  0  0  0  0  0  0  0  0  0
  -24.3000  -13.2030   20.8390 C   0  0  0  0  0  0  0  0  0  0  0  0
  -24.7740  -11.8590   20.7300 C   0  0  0  0  0  0  0  0  0  0  0  0
  -26.3650  -13.1450   20.0920 N   0  0  0  0  0  0  0  0  0  0  0  0
  -26.0420  -11.8480   20.3370 N   0  0  0  0  0  0  0  0  0  0  0  0
  -24.0730  -10.5820   20.9200 C   0  0  0  0  0  0  0  0  0  0  0  0
  -24.5120   -9.6310   21.8680 C   0  0  0  0  0  3  0  0  0  0  0  0
  -23.8080   -8.4200   22.0460 C   0  0  0  0  0  3  0  0  0  0  0  0
  -22.6500   -8.1520   21.2770 C   0  0  0  0  0  0  0  0  0  0  0  0
  -22.2300   -9.0920   20.3190 C   0  0  0  0  0  3  0  0  0  0  0  0
  -22.9360  -10.2950   20.1390 C   0  0  0  0  0  3  0  0  0  0  0  0
  -21.9180   -6.9930   21.3640 O   0  0  0  0  0  0  0  0  0  0  0  0
  -21.7810   -6.3150   22.5490 C   0  0  0  0  0  0  0  0  0  0  0  0
  -21.2280   -6.9250   23.6960 C   0  0  0  0  0  3  0  0  0  0  0  0
  -21.0410   -6.1720   24.8730 C   0  0  0  0  0  3  0  0  0  0  0  0
  -21.3970   -4.8110   24.9030 C   0  0  0  0  0  0  0  0  0  0  0  0
  -21.9430   -4.2010   23.7600 C   0  0  0  0  0  3  0  0  0  0  0  0
  -22.1310   -4.9510   22.5850 C   0  0  0  0  0  0  0  0  0  0  0  0
  -22.6380   -4.3520   21.4800 F   0  0  0  0  0  0  0  0  0  0  0  0
  -21.2110   -4.0850   26.0300 F   0  0  0  0  0  0  0  0  0  0  0  0
  -22.9190  -13.6530   21.2160 C   0  0  0  0  0  0  0  0  0  0  0  0
  -22.2630  -12.9320   22.1180 N   0  0  0  0  0  0  0  0  0  0  0  0
  -22.4330  -14.6820   20.7490 O   0  0  0  0  0  0  0  0  0  0  0  0
  -22.6710  -12.0970   22.5160 H   0  0  0  0  0  0  0  0  0  0  0  0
  -21.3410  -13.2160   22.4160 H   0  0  0  0  0  0  0  0  0  0  0  0
  -25.4720  -15.3800   20.2920 N   0  0  0  0  0  0  0  0  0  0  0  0
  -24.7130  -16.0250   20.4830 H   0  0  0  0  0  0  0  0  0  0  0  0
  -26.3010  -15.8400   19.9370 H   0  0  0  0  0  0  0  0  0  0  0  0
  1  2  1  0
  2  9  1  0
  3  1  2  0
  4  2  2  0
  4  6  1  0
  5  3  1  0
  5  7  2  0
  7  4  1  0
  9  8  1  0
 10  3  1  0
 11 12  2  0
 11 10  1  0
 13 15  1  0
 13 12  1  0
 14 25  2  0
 15 20  1  0
 16 24  1  0
 16 26  1  0
 17 23  1  0
 17 19  1  0
 18 24  1  0
 19 18  1  0
 20 19  2  0
 21 22  1  0
 21 15  2  0
 22 17  2  0
 23 16  1  0
 24 14  1  0
 26 28  2  0
 27 26  1  0
 29 27  1  0
 30 39  2  0
 30 35  1  0
 31 27  1  0
 31 35  1  0
 32 31  1  0
 33 34  1  0
 33 32  1  0
 34 30  1  0
 35 36  2  0
 36 37  1  0
 38 37  2  0
 39 38  1  0
 40 14  1  0
 40 41  1  0
 40 50  1  0
 41 44  1  0
 42 46  1  0
 42 41  1  0
 43 42  2  0
 46 45  1  0
 48 46  1  0
 48 49  1  0
 48 47  1  0
 50 53  1  1
 50 51  1  0
 52 50  1  0
 54 55  1  0
 54  5  1  0
 56 55  1  0
 57 62  1  0
 58 59  1  0
 58 57  1  0
 60 59  1  0
 60 67  1  0
 60 61  1  0
 62 56  1  0
 62 61  1  0
 63 56  2  0
 64 65  2  0
 65 84  1  0
 66 65  1  0
 66 69  1  0
 67 68  1  0
 67 64  1  0
 68 66  2  0
 69 70  1  0
 70 71  2  0
 72 75  1  0
 72 71  1  0
 73 72  2  0
 74 73  1  0
 74 69  2  0
 75 76  1  0
 76 81  2  0
 76 77  1  0
 77 78  2  0
 78 79  1  0
 79 83  1  0
 80 79  2  0
 81 80  1  0
 82 81  1  0
 84 85  1  0
 85 88  1  0
 85 87  1  0
 86 84  2  0
 89 64  1  0
 89 90  1  0
 91 89  1  0
M  ISO  4  12 101  13 101  55 100  56 100
M  END
>  <TORSDO>  (66) 
F 22

>  <SCORE>  (66) 
-13.147

>  <name>  (66) 
65

>  <ligand_id>  (66) 
65

>  <original_smiles>  (66) 
[H]c1c([H])c([H])c2c(c1[H])C([H])([H])C([H])([H])C([H])([H])C2([H])N([H])C(=O)C1([H])N(C(=O)C([H])(N([H])C(=O)C([H])(N([H])C([H])([H])[H])C([H])([H])[H])C(C([H])([H])[H])(C([H])([H])[H])C([H])([H])[H])C([H])([H])c2c([H])c(OC([H])([H])C([H])([H])C([H])([H])c3c(C([H])([H])C([H])([H])C(=O)N4C([H])([H])C([H])([H])C([H])([H])C([H])(n5nc(-c6c([H])c([H])c(Oc7c([H])c([H])c(F)c([H])c7F)c([H])c6[H])c(C(=O)N([H])[H])c5N([H])[H])C4([H])[H])nc(C([H])([H])[H])c(C([H])([H])C([H])([H])[H])c3[H])c([H])c([H])c2C1([H])[H]

>  <smiles>  (66) 
[H]c1c([H])c([H])c2c(c1[H])C([H])([H])C([H])([H])C([H])([H])C2([H])N([H])C(=O)C1([H])N(C(=O)C([H])(N([H])C(=O)C([H])(N([H])C([H])([H])[H])C([H])([H])[H])C(C([H])([H])[H])(C([H])([H])[H])C([H])([H])[H])C([H])([H])c2c([H])c(OC([H])([H])C([H])([H])C([H])([H])c3c(C([H])([H])C([H])([H])C(=O)N4C([H])([H])C([H])([H])C([H])([H])C([H])(n5nc(-c6c([H])c([H])c(Oc7c([H])c([H])c(F)c([H])c7F)c([H])c6[H])c(C(=O)N([H])[H])c5N([H])[H])C4([H])[H])nc(C([H])([H])[H])c(C([H])([H])C([H])([H])[H])c3[H])c([H])c([H])c2C1([H])[H]

$$$$
66:0:0
     RDKit          3D

 95103  0  0  1  0  0  0  0  0999 V2000
  -28.7050  -21.0710   20.6960 C   0  0  0  0  0  3  0  0  0  0  0  0
  -28.6580  -22.3040   19.9140 C   0  0  0  0  0  0  0  0  0  0  0  0
  -29.4820  -20.0510   20.1190 C   0  0  0  0  0  0  0  0  0  0  0  0
  -29.4730  -21.9920   18.8530 C   0  0  0  0  0  0  0  0  0  0  0  0
  -29.7730  -22.8550   17.6610 C   0  0  0  0  0  1  0  0  0  0  0  0
  -29.9620  -20.6700   18.9550 N   0  0  0  0  0  0  0  0  0  0  0  0
  -28.8560  -18.1640   21.7330 C   0  0  0  0  0  1  0  0  0  0  0  0
  -31.2430  -18.7100   21.3590 C   0  0  0  0  0  1  0  0  0  0  0  0
  -29.8810  -18.5810   20.6550 C   0  0  2  0  0  0  0  0  0  0  0  0
  -30.0320  -17.2830   19.6740 C   0  0  0  0  0  2  0  0  0  0  0  0
  -30.8210  -14.7640   19.9360 C   0  0  0  0  0  0  0  0  0  0  0  0
  -30.5790  -12.4940   18.9260 C   0  0  0  0  0  2  0  0  0  0  0  0
  -29.5760  -12.6350   17.7590 C   0  0  0  0  0  2  0  0  0  0  0  0
  -28.1250  -12.4900   18.2600 C   0  0  0  0  0  2  0  0  0  0  0  0
  -27.8430  -13.3170   19.5430 C   0  0  0  0  0  3  0  0  0  0  0  0
  -28.9660  -13.1600   20.5930 C   0  0  0  0  0  2  0  0  0  0  0  0
  -30.2270  -13.5210   19.9340 N   0  0  0  0  0  0  0  0  0  0  0  0
  -31.9550  -14.9080   19.4730 O   0  0  0  0  0  0  0  0  0  0  0  0
  -30.0200  -15.8520   20.2320 N   0  0  0  0  0  0  0  0  0  0  0  0
  -29.1440  -15.5980   20.6600 H   0  0  0  0  0  0  0  0  0  0  0  0
  -25.5120  -13.9140   20.4280 C   0  0  0  0  0  0  0  0  0  0  0  0
  -24.4610  -13.1430   20.8390 C   0  0  0  0  0  0  0  0  0  0  0  0
  -24.9010  -11.7860   20.7340 C   0  0  0  0  0  0  0  0  0  0  0  0
  -26.5270  -13.0300   20.0990 N   0  0  0  0  0  0  0  0  0  0  0  0
  -26.1700  -11.7420   20.3420 N   0  0  0  0  0  0  0  0  0  0  0  0
  -24.1680  -10.5270   20.9260 C   0  0  0  0  0  0  0  0  0  0  0  0
  -24.5830   -9.5700   21.8790 C   0  0  0  0  0  3  0  0  0  0  0  0
  -23.8510   -8.3800   22.0630 C   0  0  0  0  0  3  0  0  0  0  0  0
  -22.6900   -8.1340   21.2910 C   0  0  0  0  0  0  0  0  0  0  0  0
  -22.2950   -9.0780   20.3280 C   0  0  0  0  0  3  0  0  0  0  0  0
  -23.0280  -10.2620   20.1430 C   0  0  0  0  0  3  0  0  0  0  0  0
  -21.9330   -6.9910   21.3800 O   0  0  0  0  0  0  0  0  0  0  0  0
  -21.7800   -6.3180   22.5650 C   0  0  0  0  0  0  0  0  0  0  0  0
  -21.2300   -6.9370   23.7080 C   0  0  0  0  0  3  0  0  0  0  0  0
  -21.0270   -6.1900   24.8840 C   0  0  0  0  0  3  0  0  0  0  0  0
  -21.3670   -4.8240   24.9210 C   0  0  0  0  0  0  0  0  0  0  0  0
  -21.9080   -4.2040   23.7820 C   0  0  0  0  0  3  0  0  0  0  0  0
  -22.1130   -4.9480   22.6070 C   0  0  0  0  0  0  0  0  0  0  0  0
  -22.6160   -4.3400   21.5050 F   0  0  0  0  0  0  0  0  0  0  0  0
  -21.1650   -4.1050   26.0490 F   0  0  0  0  0  0  0  0  0  0  0  0
  -23.0910  -13.6270   21.2160 C   0  0  0  0  0  0  0  0  0  0  0  0
  -22.4160  -12.9110   22.1100 N   0  0  0  0  0  0  0  0  0  0  0  0
  -22.6310  -14.6700   20.7560 O   0  0  0  0  0  0  0  0  0  0  0  0
  -22.8140  -12.0700   22.5020 H   0  0  0  0  0  0  0  0  0  0  0  0
  -21.4960  -13.2040   22.4020 H   0  0  0  0  0  0  0  0  0  0  0  0
  -25.6870  -15.2890   20.2850 N   0  0  0  0  0  0  0  0  0  0  0  0
  -24.9470  -15.9530   20.4740 H   0  0  0  0  0  0  0  0  0  0  0  0
  -26.5100  -15.7220   19.8900 H   0  0  0  0  0  0  0  0  0  0  0  0
  -26.4810  -23.3400   20.8270 C   0  0  0  0  0  1  0  0  0  0  0  0
  -27.7800  -23.6510   20.0570 C   0  0  0  0  0  3  0  0  0  0  0  0
  -28.4100  -25.0400   20.6080 C   0  0  0  0  0  2  0  0  0  0  0  0
  -28.3060  -26.3950   19.9680 O   0  0  0  0  0  0  0  0  0  0  0  0
  -24.5540  -31.7980   23.0770 C   0  0  0  0  0  0  0  0  0  0  0  0
  -27.1710  -27.2200   20.0350 C   0  0  0  0  0  0  0  0  0  0  0  0
  -23.3650  -30.4070   21.4220 C   0  0  0  0  0  3  0  0  0  0  0  0
  -24.8210  -28.8520   20.0070 C   0  0  0  0  0  0  0  0  0  0  0  0
  -25.9070  -30.7210   21.2540 C   0  0  0  0  0  2  0  0  0  0  0  0
  -25.9870  -29.3390   20.6070 C   0  0  0  0  0  0  0  0  0  0  0  0
  -27.1730  -28.5390   20.5980 C   0  0  0  0  0  3  0  0  0  0  0  0
  -25.9840  -26.7900   19.4100 C   0  0  0  0  0  3  0  0  0  0  0  0
  -24.8180  -27.5850   19.4020 C   0  0  0  0  0  3  0  0  0  0  0  0
  -23.5840  -29.7300   20.0440 C   0  0  0  0  0  2  0  0  0  0  0  0
  -24.6280  -30.9960   21.9730 N   0  0  0  0  0  0  0  0  0  0  0  0
  -23.4670  -32.0660   23.6060 O   0  0  0  0  0  0  0  0  0  0  0  0
  -22.6960  -29.3870   22.3730 C   0  0  0  0  0  0  0  0  0  0  0  0
  -21.3690  -29.2090   22.2390 N   0  0  0  0  0  0  0  0  0  0  0  0
  -23.3700  -28.7550   23.1900 O   0  0  0  0  0  0  0  0  0  0  0  0
  -20.8880  -29.7600   21.5420 H   0  0  0  0  0  0  0  0  0  0  0  0
  -17.9850  -28.0340   22.7380 C   0  0  0  0  0  0  0  0  0  0  0  0
  -20.5470  -28.2720   23.0040 C   0  0  0  0  0  3  0  0  0  0  0  0
  -20.6380  -26.8440   22.4140 C   0  0  0  0  0  2  0  0  0  0  0  0
  -19.5290  -26.5410   21.4010 C   0  0  0  0  0  2  0  0  0  0  0  0
  -18.1490  -26.6910   22.0480 C   0  0  0  0  0  2  0  0  0  0  0  0
  -19.1090  -28.7830   23.1740 C   0  0  0  0  0  0  0  0  0  0  0  0
  -18.8970  -30.0420   23.7770 C   0  0  0  0  0  3  0  0  0  0  0  0
  -17.5950  -30.5440   23.9570 C   0  0  0  0  0  3  0  0  0  0  0  0
  -16.4860  -29.7890   23.5400 C   0  0  0  0  0  3  0  0  0  0  0  0
  -16.6830  -28.5370   22.9300 C   0  0  0  0  0  3  0  0  0  0  0  0
  -25.8290  -32.4330   23.7100 C   0  0  0  0  0  3  0  0  0  0  0  0
  -25.5000  -33.8200   24.0680 N   0  0  0  0  0  0  0  0  0  0  0  0
  -25.8350  -34.8960   23.3420 C   0  0  0  0  0  0  0  0  0  0  0  0
  -26.5180  -34.8240   22.3170 O   0  0  0  0  0  0  0  0  0  0  0  0
  -24.8930  -33.9490   24.8620 H   0  0  0  0  0  0  0  0  0  0  0  0
  -24.1180  -36.7050   22.9980 C   0  0  0  0  0  1  0  0  0  0  0  0
  -25.3320  -36.2670   23.8340 C   0  0  0  0  0  3  0  0  0  0  0  0
  -27.4310  -37.1290   24.7680 C   0  0  0  0  0  1  0  0  0  0  0  0
  -26.3650  -37.3240   23.7910 N   0  0  0  0  0  0  0  0  0  0  0  0
  -25.9510  -38.2380   23.9520 H   0  0  0  0  0  0  0  0  0  0  0  0
  -26.3510  -31.6450   24.9730 C   0  0  1  0  0  0  0  0  0  0  0  0
  -25.2610  -31.3610   26.0330 C   0  0  0  0  0  1  0  0  0  0  0  0
  -26.9540  -30.2840   24.5530 C   0  0  0  0  0  1  0  0  0  0  0  0
  -27.4900  -32.4430   25.6510 C   0  0  0  0  0  1  0  0  0  0  0  0
  -30.7970  -20.0380   17.9350 C   0  0  0  0  0  2  0  0  0  0  0  0
  -30.7150  -18.6270   15.7870 C   0  0  0  0  0  1  0  0  0  0  0  0
  -29.9210  -19.4150   16.8330 C   0  0  0  0  0  2  0  0  0  0  0  0
  2 50  1  0
  2  1  1  0
  3  9  1  0
  3  1  2  0
  4  6  1  0
  4  2  2  0
  5  4  1  0
  6  3  1  0
  9  8  1  1
  9  7  1  0
 10 19  1  0
 10  9  1  0
 11 19  1  0
 12 17  1  0
 13 14  1  0
 13 12  1  0
 15 14  1  0
 15 24  1  0
 15 16  1  0
 17 11  1  0
 17 16  1  0
 18 11  2  0
 19 20  1  0
 21 22  2  0
 22 41  1  0
 23 22  1  0
 23 26  1  0
 24 25  1  0
 24 21  1  0
 25 23  2  0
 26 27  1  0
 27 28  2  0
 29 32  1  0
 29 28  1  0
 30 29  2  0
 31 30  1  0
 31 26  2  0
 32 33  1  0
 33 38  2  0
 33 34  1  0
 34 35  2  0
 35 36  1  0
 36 40  1  0
 37 36  2  0
 38 37  1  0
 39 38  1  0
 41 42  1  0
 42 45  1  0
 42 44  1  0
 43 41  2  0
 46 21  1  0
 46 47  1  0
 48 46  1  0
 50 51  1  0
 50 49  1  0
 52 54  1  0
 52 51  1  0
 53 64  2  0
 54 59  1  0
 55 63  1  0
 55 65  1  0
 56 62  1  0
 56 58  1  0
 57 63  1  0
 58 57  1  0
 59 58  2  0
 60 54  2  0
 61 60  1  0
 61 56  2  0
 62 55  1  0
 63 53  1  0
 65 67  2  0
 66 65  1  0
 68 66  1  0
 69 78  2  0
 69 74  1  0
 70 66  1  0
 70 74  1  0
 71 70  1  0
 72 73  1  0
 72 71  1  0
 73 69  1  0
 74 75  2  0
 75 76  1  0
 77 76  2  0
 78 77  1  0
 79 53  1  0
 79 80  1  0
 79 89  1  0
 80 83  1  0
 81 85  1  0
 81 80  1  0
 82 81  2  0
 85 84  1  0
 87 85  1  0
 87 88  1  0
 87 86  1  0
 89 92  1  1
 89 90  1  0
 91 89  1  0
 93  6  1  0
 94 95  1  0
 95 93  1  0
M  ISO  4  11 100  19 100  51 101  52 101
M  END
>  <TORSDO>  (67) 
F 22

>  <SCORE>  (67) 
-11.937

>  <name>  (67) 
66

>  <ligand_id>  (67) 
66

>  <original_smiles>  (67) 
[H]c1c([H])c([H])c2c(c1[H])C([H])([H])C([H])([H])C([H])([H])C2([H])N([H])C(=O)C1([H])N(C(=O)C([H])(N([H])C(=O)C([H])(N([H])C([H])([H])[H])C([H])([H])[H])C(C([H])([H])[H])(C([H])([H])[H])C([H])([H])[H])C([H])([H])c2c([H])c(OC([H])([H])C([H])(c3c([H])c(C(C([H])([H])[H])(C([H])([H])[H])C([H])([H])N([H])C(=O)N4C([H])([H])C([H])([H])C([H])([H])C([H])(n5nc(-c6c([H])c([H])c(Oc7c([H])c([H])c(F)c([H])c7F)c([H])c6[H])c(C(=O)N([H])[H])c5N([H])[H])C4([H])[H])n(C([H])([H])C([H])([H])C([H])([H])[H])c3C([H])([H])[H])C([H])([H])[H])c([H])c([H])c2C1([H])[H]

>  <smiles>  (67) 
[H]c1c([H])c([H])c2c(c1[H])C([H])([H])C([H])([H])C([H])([H])C2([H])N([H])C(=O)C1([H])N(C(=O)C([H])(N([H])C(=O)C([H])(N([H])C([H])([H])[H])C([H])([H])[H])C(C([H])([H])[H])(C([H])([H])[H])C([H])([H])[H])C([H])([H])c2c([H])c(OC([H])([H])C([H])(c3c([H])c(C(C([H])([H])[H])(C([H])([H])[H])C([H])([H])N([H])C(=O)N4C([H])([H])C([H])([H])C([H])([H])C([H])(n5nc(-c6c([H])c([H])c(Oc7c([H])c([H])c(F)c([H])c7F)c([H])c6[H])c(C(=O)N([H])[H])c5N([H])[H])C4([H])[H])n(C([H])([H])C([H])([H])C([H])([H])[H])c3C([H])([H])[H])C([H])([H])[H])c([H])c([H])c2C1([H])[H]

$$$$
67:0:0
     RDKit          3D

 94102  0  0  1  0  0  0  0  0999 V2000
  -29.5270  -20.5790   18.1180 C   0  0  0  0  0  3  0  0  0  0  0  0
  -30.1380  -19.6970   17.2640 C   0  0  0  0  0  0  0  0  0  0  0  0
  -30.4270  -21.7700   16.4710 C   0  0  0  0  0  3  0  0  0  0  0  0
  -30.8810  -22.8950   15.5940 C   0  0  0  0  0  1  0  0  0  0  0  0
  -29.7140  -21.8360   17.6090 N   0  0  0  0  0  0  0  0  0  0  0  0
  -30.6890  -20.4730   16.2730 N   0  0  0  0  0  0  0  0  0  0  0  0
  -31.2330  -20.1240   15.4920 H   0  0  0  0  0  0  0  0  0  0  0  0
  -30.2770  -18.2050   17.2760 C   0  0  0  0  0  2  0  0  0  0  0  0
  -29.5960  -17.4760   18.4650 C   0  0  0  0  0  2  0  0  0  0  0  0
  -30.6060  -16.5900   19.2110 C   0  0  0  0  0  2  0  0  0  0  0  0
  -30.7320  -14.4990   20.4390 C   0  0  0  0  0  0  0  0  0  0  0  0
  -30.3830  -12.3310   19.4130 C   0  0  0  0  0  2  0  0  0  0  0  0
  -29.4770  -12.5870   18.1910 C   0  0  0  0  0  2  0  0  0  0  0  0
  -27.9920  -12.4780   18.5970 C   0  0  0  0  0  2  0  0  0  0  0  0
  -27.6450  -13.3120   19.8620 C   0  0  0  0  0  3  0  0  0  0  0  0
  -28.6970  -13.1210   20.9820 C   0  0  0  0  0  2  0  0  0  0  0  0
  -30.0310  -13.3450   20.4100 N   0  0  0  0  0  0  0  0  0  0  0  0
  -31.9560  -14.5590   20.3090 O   0  0  0  0  0  0  0  0  0  0  0  0
  -30.0110  -15.5730   20.0900 N   0  0  0  0  0  0  0  0  0  0  0  0
  -29.0060  -15.4890   20.1200 H   0  0  0  0  0  0  0  0  0  0  0  0
  -25.2420  -13.9140   20.5530 C   0  0  0  0  0  0  0  0  0  0  0  0
  -24.1670  -13.1420   20.9040 C   0  0  0  0  0  0  0  0  0  0  0  0
  -24.6290  -11.7920   20.8810 C   0  0  0  0  0  0  0  0  0  0  0  0
  -26.2900  -13.0360   20.3340 N   0  0  0  0  0  0  0  0  0  0  0  0
  -25.9240  -11.7530   20.5910 N   0  0  0  0  0  0  0  0  0  0  0  0
  -23.9000  -10.5290   21.0600 C   0  0  0  0  0  0  0  0  0  0  0  0
  -24.3140   -9.5620   22.0030 C   0  0  0  0  0  3  0  0  0  0  0  0
  -23.5850   -8.3650   22.1660 C   0  0  0  0  0  3  0  0  0  0  0  0
  -22.4300   -8.1240   21.3860 C   0  0  0  0  0  0  0  0  0  0  0  0
  -22.0380   -9.0780   20.4300 C   0  0  0  0  0  3  0  0  0  0  0  0
  -22.7680  -10.2650   20.2650 C   0  0  0  0  0  3  0  0  0  0  0  0
  -21.6730   -6.9770   21.4600 O   0  0  0  0  0  0  0  0  0  0  0  0
  -21.5910   -6.2420   22.6140 C   0  0  0  0  0  0  0  0  0  0  0  0
  -21.1030   -6.7970   23.8170 C   0  0  0  0  0  3  0  0  0  0  0  0
  -20.9710   -5.9870   24.9620 C   0  0  0  0  0  3  0  0  0  0  0  0
  -21.3130   -4.6230   24.9050 C   0  0  0  0  0  0  0  0  0  0  0  0
  -21.7920   -4.0670   23.7050 C   0  0  0  0  0  3  0  0  0  0  0  0
  -21.9260   -4.8740   22.5630 C   0  0  0  0  0  0  0  0  0  0  0  0
  -22.3680   -4.3300   21.4040 F   0  0  0  0  0  0  0  0  0  0  0  0
  -21.1790   -3.8420   26.0030 F   0  0  0  0  0  0  0  0  0  0  0  0
  -22.7640  -13.6200   21.1560 C   0  0  0  0  0  0  0  0  0  0  0  0
  -22.0190  -12.9180   22.0030 N   0  0  0  0  0  0  0  0  0  0  0  0
  -22.3370  -14.6490   20.6340 O   0  0  0  0  0  0  0  0  0  0  0  0
  -22.3760  -12.0850   22.4470 H   0  0  0  0  0  0  0  0  0  0  0  0
  -21.0780  -13.2190   22.2130 H   0  0  0  0  0  0  0  0  0  0  0  0
  -25.4050  -15.2850   20.3810 N   0  0  0  0  0  0  0  0  0  0  0  0
  -24.6360  -15.9360   20.4870 H   0  0  0  0  0  0  0  0  0  0  0  0
  -26.2630  -15.7350   20.0890 H   0  0  0  0  0  0  0  0  0  0  0  0
  -29.2180  -23.0770   18.2060 C   0  0  0  0  0  2  0  0  0  0  0  0
  -30.3460  -23.8840   18.8710 C   0  0  0  0  0  2  0  0  0  0  0  0
  -31.0550  -25.8800   20.2210 C   0  0  0  0  0  1  0  0  0  0  0  0
  -29.8690  -24.9740   19.8500 C   0  0  0  0  0  3  0  0  0  0  0  0
  -28.6520  -25.7690   19.3290 C   0  0  0  0  0  2  0  0  0  0  0  0
  -28.3810  -26.8310   20.2320 O   0  0  0  0  0  0  0  0  0  0  0  0
  -24.5180  -31.9020   23.2820 C   0  0  0  0  0  0  0  0  0  0  0  0
  -27.1730  -27.4890   20.1860 C   0  0  0  0  0  0  0  0  0  0  0  0
  -23.3090  -30.5030   21.6360 C   0  0  0  0  0  3  0  0  0  0  0  0
  -24.7620  -28.9690   20.2080 C   0  0  0  0  0  0  0  0  0  0  0  0
  -25.8320  -30.8640   21.4410 C   0  0  0  0  0  2  0  0  0  0  0  0
  -25.9140  -29.4940   20.8050 C   0  0  0  0  0  0  0  0  0  0  0  0
  -27.1120  -28.7530   20.8060 C   0  0  0  0  0  3  0  0  0  0  0  0
  -26.0010  -26.9680   19.5840 C   0  0  0  0  0  3  0  0  0  0  0  0
  -24.8000  -27.7020   19.6020 C   0  0  0  0  0  3  0  0  0  0  0  0
  -23.5170  -29.8240   20.2550 C   0  0  0  0  0  2  0  0  0  0  0  0
  -24.5710  -31.1050   22.1780 N   0  0  0  0  0  0  0  0  0  0  0  0
  -23.4380  -32.1750   23.8220 O   0  0  0  0  0  0  0  0  0  0  0  0
  -22.6590  -29.4820   22.5940 C   0  0  0  0  0  0  0  0  0  0  0  0
  -21.3360  -29.2960   22.4590 N   0  0  0  0  0  0  0  0  0  0  0  0
  -23.3410  -28.8570   23.4100 O   0  0  0  0  0  0  0  0  0  0  0  0
  -20.8490  -29.8480   21.7670 H   0  0  0  0  0  0  0  0  0  0  0  0
  -17.9600  -28.1130   22.9450 C   0  0  0  0  0  0  0  0  0  0  0  0
  -20.5170  -28.3580   23.2250 C   0  0  0  0  0  3  0  0  0  0  0  0
  -20.6160  -26.9290   22.6430 C   0  0  0  0  0  2  0  0  0  0  0  0
  -19.5160  -26.6150   21.6240 C   0  0  0  0  0  2  0  0  0  0  0  0
  -18.1330  -26.7640   22.2660 C   0  0  0  0  0  2  0  0  0  0  0  0
  -19.0810  -28.8690   23.3800 C   0  0  0  0  0  0  0  0  0  0  0  0
  -18.8670  -30.1320   23.9730 C   0  0  0  0  0  3  0  0  0  0  0  0
  -17.5640  -30.6390   24.1370 C   0  0  0  0  0  3  0  0  0  0  0  0
  -16.4580  -29.8790   23.7210 C   0  0  0  0  0  3  0  0  0  0  0  0
  -16.6570  -28.6200   23.1290 C   0  0  0  0  0  3  0  0  0  0  0  0
  -25.8080  -32.5270   23.9010 C   0  0  0  0  0  3  0  0  0  0  0  0
  -25.5110  -33.9330   24.2040 N   0  0  0  0  0  0  0  0  0  0  0  0
  -25.8660  -34.9690   23.4320 C   0  0  0  0  0  0  0  0  0  0  0  0
  -26.5500  -34.8420   22.4130 O   0  0  0  0  0  0  0  0  0  0  0  0
  -24.9040  -34.1070   24.9910 H   0  0  0  0  0  0  0  0  0  0  0  0
  -24.1710  -36.7780   23.0130 C   0  0  0  0  0  1  0  0  0  0  0  0
  -25.3860  -36.3680   23.8600 C   0  0  0  0  0  3  0  0  0  0  0  0
  -27.5090  -37.2370   24.7360 C   0  0  0  0  0  1  0  0  0  0  0  0
  -26.4350  -37.4070   23.7600 N   0  0  0  0  0  0  0  0  0  0  0  0
  -26.0350  -38.3330   23.8860 H   0  0  0  0  0  0  0  0  0  0  0  0
  -26.3070  -31.7700   25.1930 C   0  0  1  0  0  0  0  0  0  0  0  0
  -25.2040  -31.5560   26.2550 C   0  0  0  0  0  1  0  0  0  0  0  0
  -26.8810  -30.3840   24.8210 C   0  0  0  0  0  1  0  0  0  0  0  0
  -27.4590  -32.5640   25.8540 C   0  0  0  0  0  1  0  0  0  0  0  0
  2  8  1  0
  2  1  2  0
  3  4  1  0
  3  5  1  0
  5  1  1  0
  5 49  1  0
  6  3  1  0
  6  2  1  0
  7  6  1  0
  8  9  1  0
  9 10  1  0
 10 19  1  0
 12 17  1  0
 13 14  1  0
 13 12  1  0
 15 14  1  0
 15 24  1  0
 15 16  1  0
 17 11  1  0
 17 16  1  0
 18 11  2  0
 19 20  1  0
 19 11  1  0
 21 22  2  0
 22 41  1  0
 23 22  1  0
 23 26  1  0
 24 21  1  0
 24 25  1  0
 25 23  2  0
 26 27  1  0
 27 28  2  0
 29 32  1  0
 29 28  1  0
 30 29  2  0
 31 30  1  0
 31 26  2  0
 32 33  1  0
 33 34  1  0
 34 35  2  0
 36 35  1  0
 36 40  1  0
 37 36  2  0
 38 33  2  0
 38 37  1  0
 39 38  1  0
 41 42  1  0
 42 45  1  0
 42 44  1  0
 43 41  2  0
 46 47  1  0
 46 21  1  0
 48 46  1  0
 49 50  1  0
 50 52  1  0
 52 51  1  0
 53 52  1  0
 53 54  1  0
 55 66  2  0
 56 54  1  0
 56 61  1  0
 57 65  1  0
 57 67  1  0
 58 64  1  0
 58 60  1  0
 59 65  1  0
 60 61  2  0
 60 59  1  0
 62 63  1  0
 62 56  2  0
 63 58  2  0
 64 57  1  0
 65 55  1  0
 67 69  2  0
 68 67  1  0
 70 68  1  0
 71 80  2  0
 71 76  1  0
 72 68  1  0
 72 76  1  0
 73 72  1  0
 74 75  1  0
 74 73  1  0
 75 71  1  0
 76 77  2  0
 77 78  1  0
 79 78  2  0
 80 79  1  0
 81 55  1  0
 81 82  1  0
 81 91  1  0
 82 85  1  0
 83 87  1  0
 83 82  1  0
 84 83  2  0
 87 86  1  0
 89 87  1  0
 89 90  1  0
 89 88  1  0
 91 94  1  1
 91 92  1  0
 93 91  1  0
M  ISO  4  11 100  19 100  53 101  54 101
M  END
>  <TORSDO>  (68) 
F 23

>  <SCORE>  (68) 
-12.508

>  <name>  (68) 
67

>  <ligand_id>  (68) 
67

>  <original_smiles>  (68) 
[H]c1c([H])c([H])c2c(c1[H])C([H])([H])C([H])([H])C([H])([H])C2([H])N([H])C(=O)C1([H])N(C(=O)C([H])(N([H])C(=O)C([H])(N([H])C([H])([H])[H])C([H])([H])[H])C(C([H])([H])[H])(C([H])([H])[H])C([H])([H])[H])C([H])([H])c2c([H])c(OC([H])([H])C([H])(C([H])([H])[H])C([H])([H])C([H])([H])n3c([H])c(C([H])([H])C([H])([H])C([H])([H])N([H])C(=O)N4C([H])([H])C([H])([H])C([H])([H])C([H])(n5nc(-c6c([H])c([H])c(Oc7c([H])c([H])c(F)c([H])c7F)c([H])c6[H])c(C(=O)N([H])[H])c5N([H])[H])C4([H])[H])[n+]([H])c3C([H])([H])[H])c([H])c([H])c2C1([H])[H]

>  <smiles>  (68) 
[H]c1c([H])c([H])c2c(c1[H])C([H])([H])C([H])([H])C([H])([H])C2([H])N([H])C(=O)C1([H])N(C(=O)C([H])(N([H])C(=O)C([H])(N([H])C([H])([H])[H])C([H])([H])[H])C(C([H])([H])[H])(C([H])([H])[H])C([H])([H])[H])C([H])([H])c2c([H])c(OC([H])([H])C([H])(C([H])([H])[H])C([H])([H])C([H])([H])n3c([H])c(C([H])([H])C([H])([H])C([H])([H])N([H])C(=O)N4C([H])([H])C([H])([H])C([H])([H])C([H])(n5nc(-c6c([H])c([H])c(Oc7c([H])c([H])c(F)c([H])c7F)c([H])c6[H])c(C(=O)N([H])[H])c5N([H])[H])C4([H])[H])[n+]([H])c3C([H])([H])[H])c([H])c([H])c2C1([H])[H]

$$$$
68:0:0
     RDKit          3D

 92100  0  0  1  0  0  0  0  0999 V2000
  -30.5520  -22.5400   18.2640 C   0  0  0  0  0  3  0  0  0  0  0  0
  -30.1160  -21.8880   19.4380 C   0  0  0  0  0  0  0  0  0  0  0  0
  -31.3850  -21.8430   17.3690 C   0  0  0  0  0  0  0  0  0  0  0  0
  -30.5240  -20.5160   19.5790 C   0  0  0  0  0  0  0  0  0  0  0  0
  -31.8140  -22.4470   16.0490 C   0  0  0  0  0  1  0  0  0  0  0  0
  -31.8110  -20.5840   17.6160 N   0  0  0  0  0  0  0  0  0  0  0  0
  -31.3900  -19.9420   18.7060 N   0  0  0  0  0  0  0  0  0  0  0  0
  -29.2010  -22.6640   20.4120 C   0  0  0  0  0  2  0  0  0  0  0  0
  -29.4730  -24.2050   20.5810 C   0  0  0  0  0  2  0  0  0  0  0  0
  -28.2470  -25.0890   20.2330 C   0  0  0  0  0  2  0  0  0  0  0  0
  -28.4450  -26.5210   20.3130 O   0  0  0  0  0  0  0  0  0  0  0  0
  -24.6490  -31.8220   23.2140 C   0  0  0  0  0  0  0  0  0  0  0  0
  -27.2960  -27.2980   20.2380 C   0  0  0  0  0  0  0  0  0  0  0  0
  -23.4560  -30.4060   21.5780 C   0  0  0  0  0  3  0  0  0  0  0  0
  -24.9170  -28.8490   20.1870 C   0  0  0  0  0  0  0  0  0  0  0  0
  -25.9870  -30.7490   21.3990 C   0  0  0  0  0  2  0  0  0  0  0  0
  -26.0750  -29.3660   20.7790 C   0  0  0  0  0  0  0  0  0  0  0  0
  -27.2680  -28.6000   20.8000 C   0  0  0  0  0  3  0  0  0  0  0  0
  -26.1130  -26.8130   19.6280 C   0  0  0  0  0  3  0  0  0  0  0  0
  -24.9320  -27.5740   19.6050 C   0  0  0  0  0  3  0  0  0  0  0  0
  -23.6790  -29.7190   20.2060 C   0  0  0  0  0  2  0  0  0  0  0  0
  -24.7170  -31.0040   22.1240 N   0  0  0  0  0  0  0  0  0  0  0  0
  -23.5610  -32.1030   23.7370 O   0  0  0  0  0  0  0  0  0  0  0  0
  -22.7880  -29.3950   22.5390 C   0  0  0  0  0  0  0  0  0  0  0  0
  -21.4600  -29.2370   22.4160 N   0  0  0  0  0  0  0  0  0  0  0  0
  -23.4630  -28.7560   23.3520 O   0  0  0  0  0  0  0  0  0  0  0  0
  -20.9770  -29.8050   21.7350 H   0  0  0  0  0  0  0  0  0  0  0  0
  -18.0630  -28.1200   22.9370 C   0  0  0  0  0  0  0  0  0  0  0  0
  -20.6290  -28.3170   23.1910 C   0  0  0  0  0  3  0  0  0  0  0  0
  -20.6940  -26.8840   22.6150 C   0  0  0  0  0  2  0  0  0  0  0  0
  -19.5770  -26.5870   21.6080 C   0  0  0  0  0  2  0  0  0  0  0  0
  -18.2040  -26.7650   22.2600 C   0  0  0  0  0  2  0  0  0  0  0  0
  -19.2030  -28.8540   23.3590 C   0  0  0  0  0  0  0  0  0  0  0  0
  -19.0200  -30.1230   23.9510 C   0  0  0  0  0  3  0  0  0  0  0  0
  -17.7280  -30.6570   24.1240 C   0  0  0  0  0  3  0  0  0  0  0  0
  -16.6040  -29.9180   23.7190 C   0  0  0  0  0  3  0  0  0  0  0  0
  -16.7720  -28.6510   23.1310 C   0  0  0  0  0  3  0  0  0  0  0  0
  -25.9280  -32.4580   23.8380 C   0  0  0  0  0  3  0  0  0  0  0  0
  -25.6090  -33.8540   24.1720 N   0  0  0  0  0  0  0  0  0  0  0  0
  -25.9330  -34.9080   23.4110 C   0  0  0  0  0  0  0  0  0  0  0  0
  -26.5980  -34.8090   22.3770 O   0  0  0  0  0  0  0  0  0  0  0  0
  -25.0160  -34.0030   24.9750 H   0  0  0  0  0  0  0  0  0  0  0  0
  -24.1870  -36.6860   23.0630 C   0  0  0  0  0  1  0  0  0  0  0  0
  -25.4350  -36.2930   23.8700 C   0  0  0  0  0  3  0  0  0  0  0  0
  -27.5680  -37.1910   24.6880 C   0  0  0  0  0  1  0  0  0  0  0  0
  -26.4600  -37.3530   23.7530 N   0  0  0  0  0  0  0  0  0  0  0  0
  -26.0480  -38.2690   23.9070 H   0  0  0  0  0  0  0  0  0  0  0  0
  -26.4480  -31.6840   25.1110 C   0  0  1  0  0  0  0  0  0  0  0  0
  -25.3560  -31.4340   26.1780 C   0  0  0  0  0  1  0  0  0  0  0  0
  -27.0390  -30.3140   24.7070 C   0  0  0  0  0  1  0  0  0  0  0  0
  -27.5950  -32.4790   25.7760 C   0  0  0  0  0  1  0  0  0  0  0  0
  -30.0870  -19.5630   20.7090 C   0  0  0  0  0  2  0  0  0  0  0  0
  -29.6510  -18.0990   20.3040 C   0  0  0  0  0  2  0  0  0  0  0  0
  -30.7510  -16.9640   20.3510 C   0  0  0  0  0  2  0  0  0  0  0  0
  -30.8550  -14.4530   20.0720 C   0  0  0  0  0  0  0  0  0  0  0  0
  -30.4930  -12.2820   18.9070 C   0  0  0  0  0  2  0  0  0  0  0  0
  -29.4910  -12.4730   17.7460 C   0  0  0  0  0  2  0  0  0  0  0  0
  -28.0350  -12.3330   18.2470 C   0  0  0  0  0  2  0  0  0  0  0  0
  -27.7640  -13.1470   19.5440 C   0  0  0  0  0  3  0  0  0  0  0  0
  -28.8750  -12.8700   20.5750 C   0  0  0  0  0  2  0  0  0  0  0  0
  -30.1580  -13.2660   19.9640 N   0  0  0  0  0  0  0  0  0  0  0  0
  -31.9320  -14.5820   19.4800 O   0  0  0  0  0  0  0  0  0  0  0  0
  -29.6690  -15.5000   21.9840 C   0  0  0  0  0  1  0  0  0  0  0  0
  -30.2600  -15.5650   20.6350 N   0  0  0  0  0  0  0  0  0  0  0  0
  -25.4160  -13.7620   20.3960 C   0  0  0  0  0  0  0  0  0  0  0  0
  -24.3580  -12.9970   20.8160 C   0  0  0  0  0  0  0  0  0  0  0  0
  -24.8050  -11.6410   20.7510 C   0  0  0  0  0  0  0  0  0  0  0  0
  -26.4380  -12.8740   20.0980 N   0  0  0  0  0  0  0  0  0  0  0  0
  -26.0750  -11.5920   20.3640 N   0  0  0  0  0  0  0  0  0  0  0  0
  -24.0820  -10.3820   20.9780 C   0  0  0  0  0  0  0  0  0  0  0  0
  -24.5310   -9.4260   21.9160 C   0  0  0  0  0  3  0  0  0  0  0  0
  -23.8100   -8.2310   22.1290 C   0  0  0  0  0  3  0  0  0  0  0  0
  -22.6220   -7.9820   21.3980 C   0  0  0  0  0  0  0  0  0  0  0  0
  -22.1880   -8.9250   20.4500 C   0  0  0  0  0  3  0  0  0  0  0  0
  -22.9120  -10.1120   20.2380 C   0  0  0  0  0  3  0  0  0  0  0  0
  -21.8720   -6.8360   21.5160 O   0  0  0  0  0  0  0  0  0  0  0  0
  -21.8120   -6.1330   22.6920 C   0  0  0  0  0  0  0  0  0  0  0  0
  -21.3710   -6.7290   23.8950 C   0  0  0  0  0  3  0  0  0  0  0  0
  -21.2550   -5.9500   25.0640 C   0  0  0  0  0  3  0  0  0  0  0  0
  -21.5750   -4.5810   25.0320 C   0  0  0  0  0  0  0  0  0  0  0  0
  -22.0120   -3.9840   23.8360 C   0  0  0  0  0  3  0  0  0  0  0  0
  -22.1260   -4.7600   22.6680 C   0  0  0  0  0  0  0  0  0  0  0  0
  -22.5260   -4.1780   21.5110 F   0  0  0  0  0  0  0  0  0  0  0  0
  -21.4600   -3.8280   26.1530 F   0  0  0  0  0  0  0  0  0  0  0  0
  -22.9810  -13.4840   21.1680 C   0  0  0  0  0  0  0  0  0  0  0  0
  -22.2940  -12.7990   22.0740 N   0  0  0  0  0  0  0  0  0  0  0  0
  -22.5200  -14.5100   20.6710 O   0  0  0  0  0  0  0  0  0  0  0  0
  -22.6710  -11.9690   22.5050 H   0  0  0  0  0  0  0  0  0  0  0  0
  -21.3720  -13.1130   22.3390 H   0  0  0  0  0  0  0  0  0  0  0  0
  -25.5980  -15.1320   20.2170 N   0  0  0  0  0  0  0  0  0  0  0  0
  -24.8790  -15.8290   20.3740 H   0  0  0  0  0  0  0  0  0  0  0  0
  -26.4680  -15.5270   19.8800 H   0  0  0  0  0  0  0  0  0  0  0  0
  1  2  1  0
  2  4  2  0
  2  8  1  0
  3  6  1  0
  3  1  2  0
  4 52  1  0
  5  3  1  0
  6  7  2  0
  7  4  1  0
  8  9  1  0
 10 11  1  0
 10  9  1  0
 12 23  2  0
 13 11  1  0
 13 18  1  0
 14 22  1  0
 14 24  1  0
 15 21  1  0
 15 17  1  0
 16 22  1  0
 17 18  2  0
 17 16  1  0
 19 13  2  0
 20 19  1  0
 20 15  2  0
 21 14  1  0
 22 12  1  0
 24 26  2  0
 25 24  1  0
 27 25  1  0
 28 37  2  0
 28 33  1  0
 29 25  1  0
 29 33  1  0
 30 29  1  0
 31 32  1  0
 31 30  1  0
 32 28  1  0
 33 34  2  0
 34 35  1  0
 36 35  2  0
 37 36  1  0
 38 12  1  0
 38 39  1  0
 38 48  1  0
 39 42  1  0
 40 44  1  0
 40 39  1  0
 41 40  2  0
 44 43  1  0
 46 44  1  0
 46 47  1  0
 46 45  1  0
 48 51  1  1
 48 49  1  0
 50 48  1  0
 53 54  1  0
 53 52  1  0
 54 64  1  0
 55 64  1  0
 56 61  1  0
 57 58  1  0
 57 56  1  0
 59 58  1  0
 59 68  1  0
 59 60  1  0
 61 55  1  0
 61 60  1  0
 62 55  2  0
 64 63  1  0
 65 66  2  0
 66 85  1  0
 67 66  1  0
 67 70  1  0
 68 69  1  0
 68 65  1  0
 69 67  2  0
 70 71  1  0
 71 72  2  0
 73 76  1  0
 73 72  1  0
 74 73  2  0
 75 74  1  0
 75 70  2  0
 76 77  1  0
 77 78  1  0
 78 79  2  0
 80 79  1  0
 80 84  1  0
 81 80  2  0
 82 77  2  0
 82 81  1  0
 83 82  1  0
 85 86  1  0
 86 89  1  0
 86 88  1  0
 87 85  2  0
 90 91  1  0
 90 65  1  0
 92 90  1  0
M  ISO  4  10 101  11 101  55 100  64 100
M  END
>  <TORSDO>  (69) 
F 22

>  <SCORE>  (69) 
-12.236

>  <name>  (69) 
68

>  <ligand_id>  (69) 
68

>  <original_smiles>  (69) 
[H]c1c([H])c([H])c2c(c1[H])C([H])([H])C([H])([H])C([H])([H])C2([H])N([H])C(=O)C1([H])N(C(=O)C([H])(N([H])C(=O)C([H])(N([H])C([H])([H])[H])C([H])([H])[H])C(C([H])([H])[H])(C([H])([H])[H])C([H])([H])[H])C([H])([H])c2c([H])c(OC([H])([H])C([H])([H])C([H])([H])c3c(C([H])([H])C([H])([H])C([H])([H])N(C(=O)N4C([H])([H])C([H])([H])C([H])([H])C([H])(n5nc(-c6c([H])c([H])c(Oc7c([H])c([H])c(F)c([H])c7F)c([H])c6[H])c(C(=O)N([H])[H])c5N([H])[H])C4([H])[H])C([H])([H])[H])nnc(C([H])([H])[H])c3[H])c([H])c([H])c2C1([H])[H]

>  <smiles>  (69) 
[H]c1c([H])c([H])c2c(c1[H])C([H])([H])C([H])([H])C([H])([H])C2([H])N([H])C(=O)C1([H])N(C(=O)C([H])(N([H])C(=O)C([H])(N([H])C([H])([H])[H])C([H])([H])[H])C(C([H])([H])[H])(C([H])([H])[H])C([H])([H])[H])C([H])([H])c2c([H])c(OC([H])([H])C([H])([H])C([H])([H])c3c(C([H])([H])C([H])([H])C([H])([H])N(C(=O)N4C([H])([H])C([H])([H])C([H])([H])C([H])(n5nc(-c6c([H])c([H])c(Oc7c([H])c([H])c(F)c([H])c7F)c([H])c6[H])c(C(=O)N([H])[H])c5N([H])[H])C4([H])[H])C([H])([H])[H])nnc(C([H])([H])[H])c3[H])c([H])c([H])c2C1([H])[H]

$$$$
69:0:0
     RDKit          3D

 95103  0  0  1  0  0  0  0  0999 V2000
  -29.0670  -21.0300   21.4700 C   0  0  0  0  0  3  0  0  0  0  0  0
  -29.2540  -22.4210   21.4250 C   0  0  0  0  0  0  0  0  0  0  0  0
  -30.1020  -20.2200   20.9740 C   0  0  0  0  0  0  0  0  0  0  0  0
  -31.2960  -22.1040   20.4460 C   0  0  0  0  0  0  0  0  0  0  0  0
  -30.3760  -22.9490   20.9050 N   0  0  0  0  0  0  0  0  0  0  0  0
  -31.2220  -20.7760   20.4730 N   0  0  0  0  0  0  0  0  0  0  0  0
  -30.9070  -18.1670   22.2100 C   0  0  0  0  0  1  0  0  0  0  0  0
  -30.0430  -18.6910   21.0530 C   0  0  0  0  0  3  0  0  0  0  0  0
  -30.3980  -18.0120   19.7060 C   0  0  0  0  0  2  0  0  0  0  0  0
  -29.5270  -16.8040   19.2950 C   0  0  0  0  0  2  0  0  0  0  0  0
  -30.4650  -14.5780   19.8370 C   0  0  0  0  0  0  0  0  0  0  0  0
  -30.2480  -12.3060   18.9310 C   0  0  0  0  0  2  0  0  0  0  0  0
  -29.2220  -12.3700   17.7780 C   0  0  0  0  0  2  0  0  0  0  0  0
  -27.7860  -12.1960   18.3110 C   0  0  0  0  0  2  0  0  0  0  0  0
  -27.4820  -13.1160   19.5240 C   0  0  0  0  0  3  0  0  0  0  0  0
  -28.6150  -13.0370   20.5760 C   0  0  0  0  0  2  0  0  0  0  0  0
  -29.8870  -13.3490   19.9030 N   0  0  0  0  0  0  0  0  0  0  0  0
  -31.5560  -14.7850   19.2990 O   0  0  0  0  0  0  0  0  0  0  0  0
  -29.6340  -15.5950   20.1270 N   0  0  0  0  0  0  0  0  0  0  0  0
  -28.7940  -15.3230   20.6150 H   0  0  0  0  0  0  0  0  0  0  0  0
  -25.1390  -13.6770   20.4340 C   0  0  0  0  0  0  0  0  0  0  0  0
  -24.1200  -12.8830   20.8840 C   0  0  0  0  0  0  0  0  0  0  0  0
  -24.6000  -11.5410   20.8020 C   0  0  0  0  0  0  0  0  0  0  0  0
  -26.1770  -12.8160   20.1090 N   0  0  0  0  0  0  0  0  0  0  0  0
  -25.8590  -11.5260   20.3860 N   0  0  0  0  0  0  0  0  0  0  0  0
  -23.9140  -10.2640   21.0390 C   0  0  0  0  0  0  0  0  0  0  0  0
  -24.3730   -9.3490   22.0140 C   0  0  0  0  0  3  0  0  0  0  0  0
  -23.6870   -8.1370   22.2370 C   0  0  0  0  0  3  0  0  0  0  0  0
  -22.5290   -7.8270   21.4850 C   0  0  0  0  0  0  0  0  0  0  0  0
  -22.0900   -8.7310   20.5010 C   0  0  0  0  0  3  0  0  0  0  0  0
  -22.7760   -9.9350   20.2760 C   0  0  0  0  0  3  0  0  0  0  0  0
  -21.8130   -6.6620   21.6160 O   0  0  0  0  0  0  0  0  0  0  0  0
  -21.6990   -6.0190   22.8220 C   0  0  0  0  0  0  0  0  0  0  0  0
  -21.1200   -6.6440   23.9480 C   0  0  0  0  0  3  0  0  0  0  0  0
  -20.9600   -5.9230   25.1480 C   0  0  0  0  0  3  0  0  0  0  0  0
  -21.3660   -4.5770   25.2220 C   0  0  0  0  0  0  0  0  0  0  0  0
  -21.9380   -3.9520   24.1000 C   0  0  0  0  0  3  0  0  0  0  0  0
  -22.1010   -4.6700   22.9020 C   0  0  0  0  0  0  0  0  0  0  0  0
  -22.6320   -4.0570   21.8170 F   0  0  0  0  0  0  0  0  0  0  0  0
  -21.2050   -3.8810   26.3710 F   0  0  0  0  0  0  0  0  0  0  0  0
  -22.7420  -13.3320   21.2800 C   0  0  0  0  0  0  0  0  0  0  0  0
  -22.1010  -12.6110   22.1930 N   0  0  0  0  0  0  0  0  0  0  0  0
  -22.2450  -14.3570   20.8140 O   0  0  0  0  0  0  0  0  0  0  0  0
  -22.5170  -11.7810   22.5900 H   0  0  0  0  0  0  0  0  0  0  0  0
  -21.1800  -12.8930   22.5000 H   0  0  0  0  0  0  0  0  0  0  0  0
  -25.2650  -15.0520   20.2560 N   0  0  0  0  0  0  0  0  0  0  0  0
  -24.4950  -15.6890   20.4300 H   0  0  0  0  0  0  0  0  0  0  0  0
  -26.0700  -15.5080   19.8470 H   0  0  0  0  0  0  0  0  0  0  0  0
  -28.2420  -23.3880   22.0300 C   0  0  0  0  0  2  0  0  0  0  0  0
  -27.6600  -24.4330   21.0510 C   0  0  0  0  0  2  0  0  0  0  0  0
  -28.4250  -25.7780   21.0190 C   0  0  0  0  0  2  0  0  0  0  0  0
  -28.1190  -26.5770   19.8680 O   0  0  0  0  0  0  0  0  0  0  0  0
  -24.5070  -31.7640   23.1720 C   0  0  0  0  0  0  0  0  0  0  0  0
  -26.9690  -27.3260   19.9600 C   0  0  0  0  0  0  0  0  0  0  0  0
  -23.2160  -30.3870   21.5740 C   0  0  0  0  0  3  0  0  0  0  0  0
  -24.5920  -28.8440   20.0780 C   0  0  0  0  0  0  0  0  0  0  0  0
  -25.7330  -30.7240   21.2690 C   0  0  0  0  0  2  0  0  0  0  0  0
  -25.7790  -29.3550   20.6240 C   0  0  0  0  0  0  0  0  0  0  0  0
  -26.9710  -28.6000   20.5680 C   0  0  0  0  0  3  0  0  0  0  0  0
  -25.7740  -26.8310   19.4000 C   0  0  0  0  0  3  0  0  0  0  0  0
  -24.5830  -27.5780   19.4660 C   0  0  0  0  0  3  0  0  0  0  0  0
  -23.3590  -29.7130   20.1830 C   0  0  0  0  0  2  0  0  0  0  0  0
  -24.5060  -30.9720   22.0620 N   0  0  0  0  0  0  0  0  0  0  0  0
  -23.4530  -32.0440   23.7610 O   0  0  0  0  0  0  0  0  0  0  0  0
  -22.5970  -29.3650   22.5550 C   0  0  0  0  0  0  0  0  0  0  0  0
  -21.2770  -29.1430   22.4340 N   0  0  0  0  0  0  0  0  0  0  0  0
  -23.2990  -28.7750   23.3800 O   0  0  0  0  0  0  0  0  0  0  0  0
  -20.7720  -29.6710   21.7360 H   0  0  0  0  0  0  0  0  0  0  0  0
  -17.9600  -27.7840   22.8810 C   0  0  0  0  0  0  0  0  0  0  0  0
  -20.4890  -28.1970   23.2220 C   0  0  0  0  0  3  0  0  0  0  0  0
  -20.6890  -26.7490   22.7170 C   0  0  0  0  0  2  0  0  0  0  0  0
  -19.6410  -26.3190   21.6850 C   0  0  0  0  0  2  0  0  0  0  0  0
  -18.2330  -26.4160   22.2780 C   0  0  0  0  0  2  0  0  0  0  0  0
  -19.0200  -28.6260   23.3090 C   0  0  0  0  0  0  0  0  0  0  0  0
  -18.7140  -29.9020   23.8320 C   0  0  0  0  0  3  0  0  0  0  0  0
  -17.3790  -30.3380   23.9300 C   0  0  0  0  0  3  0  0  0  0  0  0
  -16.3320  -29.4940   23.5200 C   0  0  0  0  0  3  0  0  0  0  0  0
  -16.6240  -28.2190   23.0010 C   0  0  0  0  0  3  0  0  0  0  0  0
  -25.8270  -32.3760   23.7380 C   0  0  0  0  0  3  0  0  0  0  0  0
  -25.5490  -33.7730   24.0930 N   0  0  0  0  0  0  0  0  0  0  0  0
  -25.8760  -34.8290   23.3360 C   0  0  0  0  0  0  0  0  0  0  0  0
  -26.5160  -34.7270   22.2860 O   0  0  0  0  0  0  0  0  0  0  0  0
  -24.9770  -33.9270   24.9110 H   0  0  0  0  0  0  0  0  0  0  0  0
  -24.1700  -36.6520   23.0430 C   0  0  0  0  0  1  0  0  0  0  0  0
  -25.4220  -36.2180   23.8220 C   0  0  0  0  0  3  0  0  0  0  0  0
  -27.5850  -37.0610   24.6220 C   0  0  0  0  0  1  0  0  0  0  0  0
  -26.4690  -37.2550   23.7000 N   0  0  0  0  0  0  0  0  0  0  0  0
  -26.0790  -38.1800   23.8620 H   0  0  0  0  0  0  0  0  0  0  0  0
  -26.3960  -31.5850   24.9800 C   0  0  1  0  0  0  0  0  0  0  0  0
  -25.3500  -31.3430   26.0940 C   0  0  0  0  0  1  0  0  0  0  0  0
  -26.9480  -30.2080   24.5440 C   0  0  0  0  0  1  0  0  0  0  0  0
  -27.5820  -32.3620   25.5970 C   0  0  0  0  0  1  0  0  0  0  0  0
  -32.5110  -22.7160   19.7700 C   0  0  0  0  0  2  0  0  0  0  0  0
  -31.8760  -22.0780   17.3400 C   0  0  0  0  0  1  0  0  0  0  0  0
  -32.2390  -23.1960   18.3280 C   0  0  0  0  0  2  0  0  0  0  0  0
  2  1  2  0
  2 49  1  0
  3  8  1  0
  3  1  1  0
  4  6  1  0
  4  5  2  0
  5  2  1  0
  6  3  2  0
  8  7  1  0
  9  8  1  0
 10  9  1  0
 10 19  1  0
 11 17  1  0
 11 19  1  0
 12 17  1  0
 13 14  1  0
 13 12  1  0
 15 14  1  0
 15 24  1  0
 15 16  1  0
 17 16  1  0
 18 11  2  0
 19 20  1  0
 21 22  2  0
 22 41  1  0
 23 22  1  0
 23 26  1  0
 24 25  1  0
 24 21  1  0
 25 23  2  0
 26 27  1  0
 27 28  2  0
 29 32  1  0
 29 28  1  0
 30 29  2  0
 31 30  1  0
 31 26  2  0
 32 33  1  0
 33 38  2  0
 33 34  1  0
 34 35  2  0
 35 36  1  0
 36 40  1  0
 37 36  2  0
 38 37  1  0
 39 38  1  0
 41 42  1  0
 42 45  1  0
 42 44  1  0
 43 41  2  0
 46 47  1  0
 46 21  1  0
 48 46  1  0
 50 49  1  0
 51 50  1  0
 52 54  1  0
 52 51  1  0
 53 64  2  0
 54 59  1  0
 55 63  1  0
 55 65  1  0
 56 62  1  0
 56 58  1  0
 57 63  1  0
 58 57  1  0
 59 58  2  0
 60 61  1  0
 60 54  2  0
 61 56  2  0
 62 55  1  0
 63 53  1  0
 65 67  2  0
 66 65  1  0
 68 66  1  0
 69 78  2  0
 69 74  1  0
 70 66  1  0
 70 74  1  0
 71 70  1  0
 72 73  1  0
 72 71  1  0
 73 69  1  0
 74 75  2  0
 75 76  1  0
 77 76  2  0
 78 77  1  0
 79 53  1  0
 79 80  1  0
 79 89  1  0
 80 83  1  0
 81 85  1  0
 81 80  1  0
 82 81  2  0
 85 84  1  0
 87 85  1  0
 87 88  1  0
 87 86  1  0
 89 92  1  1
 89 90  1  0
 91 89  1  0
 93  4  1  0
 94 95  1  0
 95 93  1  0
M  ISO  4  11 100  19 100  51 101  52 101
M  END
>  <TORSDO>  (70) 
F 24

>  <SCORE>  (70) 
-11.954

>  <name>  (70) 
69

>  <ligand_id>  (70) 
69

>  <original_smiles>  (70) 
[H]c1c(C([H])([H])C([H])([H])C([H])([H])Oc2c([H])c([H])c3c(c2[H])C([H])([H])N(C(=O)C([H])(N([H])C(=O)C([H])(N([H])C([H])([H])[H])C([H])([H])[H])C(C([H])([H])[H])(C([H])([H])[H])C([H])([H])[H])C([H])(C(=O)N([H])C2([H])c4c([H])c([H])c([H])c([H])c4C([H])([H])C([H])([H])C2([H])[H])C3([H])[H])nc(C([H])([H])C([H])([H])C([H])([H])[H])nc1C([H])(C([H])([H])[H])C([H])([H])C([H])([H])N([H])C(=O)N1C([H])([H])C([H])([H])C([H])([H])C([H])(n2nc(-c3c([H])c([H])c(Oc4c([H])c([H])c(F)c([H])c4F)c([H])c3[H])c(C(=O)N([H])[H])c2N([H])[H])C1([H])[H]

>  <smiles>  (70) 
[H]c1c(C([H])([H])C([H])([H])C([H])([H])Oc2c([H])c([H])c3c(c2[H])C([H])([H])N(C(=O)C([H])(N([H])C(=O)C([H])(N([H])C([H])([H])[H])C([H])([H])[H])C(C([H])([H])[H])(C([H])([H])[H])C([H])([H])[H])C([H])(C(=O)N([H])C2([H])c4c([H])c([H])c([H])c([H])c4C([H])([H])C([H])([H])C2([H])[H])C3([H])[H])nc(C([H])([H])C([H])([H])C([H])([H])[H])nc1C([H])(C([H])([H])[H])C([H])([H])C([H])([H])N([H])C(=O)N1C([H])([H])C([H])([H])C([H])([H])C([H])(n2nc(-c3c([H])c([H])c(Oc4c([H])c([H])c(F)c([H])c4F)c([H])c3[H])c(C(=O)N([H])[H])c2N([H])[H])C1([H])[H]

$$$$
70:0:0
     RDKit          3D

 91 99  0  0  1  0  0  0  0  0999 V2000
  -31.4610  -22.3550   19.9700 C   0  0  0  0  0  1  0  0  0  0  0  0
  -30.0750  -21.8790   20.4520 C   0  0  0  0  0  3  0  0  0  0  0  0
  -30.2800  -20.6370   21.4010 C   0  0  0  0  0  2  0  0  0  0  0  0
  -29.6430  -19.2470   21.0720 C   0  0  0  0  0  2  0  0  0  0  0  0
  -30.3540  -18.9150   18.6140 C   0  0  0  0  0  3  0  0  0  0  0  0
  -30.7290  -17.7800   17.8540 C   0  0  0  0  0  0  0  0  0  0  0  0
  -30.1930  -18.4580   19.8950 C   0  0  0  0  0  0  0  0  0  0  0  0
  -30.9910  -17.6760   16.3820 C   0  0  0  0  0  1  0  0  0  0  0  0
  -30.8120  -16.7010   18.6050 N   0  0  0  0  0  0  0  0  0  0  0  0
  -30.5400  -17.0890   19.8770 N   0  0  0  0  0  0  0  0  0  0  0  0
  -30.5480  -16.0470   20.9400 C   0  0  0  0  0  2  0  0  0  0  0  0
  -31.3040  -14.7160   20.5690 C   0  0  0  0  0  0  0  0  0  0  0  0
  -31.0450  -12.5300   19.4440 C   0  0  0  0  0  2  0  0  0  0  0  0
  -30.1540  -12.7450   18.2010 C   0  0  0  0  0  2  0  0  0  0  0  0
  -28.6590  -12.6370   18.5650 C   0  0  0  0  0  2  0  0  0  0  0  0
  -28.2900  -13.4790   19.8170 C   0  0  0  0  0  3  0  0  0  0  0  0
  -29.2960  -13.2400   20.9640 C   0  0  0  0  0  2  0  0  0  0  0  0
  -30.6410  -13.5280   20.4500 N   0  0  0  0  0  0  0  0  0  0  0  0
  -32.4910  -14.8120   20.2350 O   0  0  0  0  0  0  0  0  0  0  0  0
  -25.8800  -14.1440   20.4160 C   0  0  0  0  0  0  0  0  0  0  0  0
  -24.7820  -13.3990   20.7540 C   0  0  0  0  0  0  0  0  0  0  0  0
  -25.2170  -12.0380   20.7630 C   0  0  0  0  0  0  0  0  0  0  0  0
  -26.9150  -13.2370   20.2430 N   0  0  0  0  0  0  0  0  0  0  0  0
  -26.5170  -11.9670   20.5110 N   0  0  0  0  0  0  0  0  0  0  0  0
  -24.4570  -10.7940   20.9420 C   0  0  0  0  0  0  0  0  0  0  0  0
  -24.7990   -9.8560   21.9420 C   0  0  0  0  0  3  0  0  0  0  0  0
  -24.0420   -8.6760   22.1060 C   0  0  0  0  0  3  0  0  0  0  0  0
  -22.9290   -8.4250   21.2700 C   0  0  0  0  0  0  0  0  0  0  0  0
  -22.6060   -9.3500   20.2610 C   0  0  0  0  0  3  0  0  0  0  0  0
  -23.3630  -10.5230   20.0960 C   0  0  0  0  0  3  0  0  0  0  0  0
  -22.1510   -7.2930   21.3410 O   0  0  0  0  0  0  0  0  0  0  0  0
  -21.9560   -6.6230   22.5220 C   0  0  0  0  0  0  0  0  0  0  0  0
  -21.3840   -7.2520   23.6500 C   0  0  0  0  0  3  0  0  0  0  0  0
  -21.1380   -6.5090   24.8210 C   0  0  0  0  0  3  0  0  0  0  0  0
  -21.4560   -5.1390   24.8650 C   0  0  0  0  0  0  0  0  0  0  0  0
  -22.0200   -4.5080   23.7420 C   0  0  0  0  0  3  0  0  0  0  0  0
  -22.2670   -5.2490   22.5720 C   0  0  0  0  0  0  0  0  0  0  0  0
  -22.7890   -4.6330   21.4850 F   0  0  0  0  0  0  0  0  0  0  0  0
  -21.2150   -4.4220   25.9870 F   0  0  0  0  0  0  0  0  0  0  0  0
  -23.3840  -13.9070   20.9610 C   0  0  0  0  0  0  0  0  0  0  0  0
  -22.6120  -13.2460   21.8160 N   0  0  0  0  0  0  0  0  0  0  0  0
  -22.9860  -14.9260   20.3990 O   0  0  0  0  0  0  0  0  0  0  0  0
  -22.9470  -12.4220   22.2930 H   0  0  0  0  0  0  0  0  0  0  0  0
  -21.6710  -13.5670   21.9970 H   0  0  0  0  0  0  0  0  0  0  0  0
  -26.0860  -15.5060   20.2220 N   0  0  0  0  0  0  0  0  0  0  0  0
  -25.3350  -16.1850   20.2800 H   0  0  0  0  0  0  0  0  0  0  0  0
  -26.9620  -15.9110   19.9140 H   0  0  0  0  0  0  0  0  0  0  0  0
  -29.2920  -23.0800   21.0960 C   0  0  0  0  0  3  0  0  0  0  0  0
  -29.2110  -24.4180   20.2740 C   0  0  0  0  0  3  0  0  0  0  0  0
  -28.4180  -25.5710   20.9630 C   0  0  0  0  0  2  0  0  0  0  0  0
  -28.5060  -26.8540   20.2850 O   0  0  0  0  0  0  0  0  0  0  0  0
  -24.6320  -32.0270   23.3480 C   0  0  0  0  0  0  0  0  0  0  0  0
  -27.3470  -27.6100   20.2760 C   0  0  0  0  0  0  0  0  0  0  0  0
  -23.4530  -30.6120   21.7010 C   0  0  0  0  0  3  0  0  0  0  0  0
  -24.9340  -29.1030   20.2700 C   0  0  0  0  0  0  0  0  0  0  0  0
  -25.9750  -31.0080   21.5070 C   0  0  0  0  0  2  0  0  0  0  0  0
  -26.0850  -29.6390   20.8620 C   0  0  0  0  0  0  0  0  0  0  0  0
  -27.2980  -28.9030   20.8570 C   0  0  0  0  0  3  0  0  0  0  0  0
  -26.1810  -27.1010   19.6650 C   0  0  0  0  0  3  0  0  0  0  0  0
  -24.9800  -27.8350   19.6630 C   0  0  0  0  0  3  0  0  0  0  0  0
  -23.6750  -29.9420   20.3180 C   0  0  0  0  0  2  0  0  0  0  0  0
  -24.7060  -31.2300   22.2440 N   0  0  0  0  0  0  0  0  0  0  0  0
  -23.5450  -32.2780   23.8880 O   0  0  0  0  0  0  0  0  0  0  0  0
  -22.8180  -29.5750   22.6570 C   0  0  0  0  0  0  0  0  0  0  0  0
  -21.5020  -29.3460   22.5060 N   0  0  0  0  0  0  0  0  0  0  0  0
  -23.5070  -28.9800   23.4890 O   0  0  0  0  0  0  0  0  0  0  0  0
  -21.0030  -29.8850   21.8120 H   0  0  0  0  0  0  0  0  0  0  0  0
  -18.1650  -28.0210   22.9250 C   0  0  0  0  0  0  0  0  0  0  0  0
  -20.7020  -28.3850   23.2670 C   0  0  0  0  0  3  0  0  0  0  0  0
  -20.8790  -26.9510   22.7150 C   0  0  0  0  0  2  0  0  0  0  0  0
  -19.8210  -26.5710   21.6750 C   0  0  0  0  0  2  0  0  0  0  0  0
  -18.4160  -26.6700   22.2750 C   0  0  0  0  0  2  0  0  0  0  0  0
  -19.2400  -28.8340   23.3750 C   0  0  0  0  0  0  0  0  0  0  0  0
  -18.9540  -30.0970   23.9370 C   0  0  0  0  0  3  0  0  0  0  0  0
  -17.6260  -30.5490   24.0560 C   0  0  0  0  0  3  0  0  0  0  0  0
  -16.5660  -29.7340   23.6220 C   0  0  0  0  0  3  0  0  0  0  0  0
  -16.8360  -28.4720   23.0630 C   0  0  0  0  0  3  0  0  0  0  0  0
  -25.9050  -32.6780   23.9720 C   0  0  0  0  0  3  0  0  0  0  0  0
  -25.5870  -34.0810   24.2690 N   0  0  0  0  0  0  0  0  0  0  0  0
  -25.9280  -35.1180   23.4930 C   0  0  0  0  0  0  0  0  0  0  0  0
  -26.6150  -34.9950   22.4740 O   0  0  0  0  0  0  0  0  0  0  0  0
  -24.9800  -34.2520   25.0570 H   0  0  0  0  0  0  0  0  0  0  0  0
  -24.1980  -36.8930   23.0700 C   0  0  0  0  0  1  0  0  0  0  0  0
  -25.4280  -36.5130   23.9110 C   0  0  0  0  0  3  0  0  0  0  0  0
  -27.5430  -37.4270   24.7560 C   0  0  0  0  0  1  0  0  0  0  0  0
  -26.4580  -37.5680   23.7910 N   0  0  0  0  0  0  0  0  0  0  0  0
  -26.0440  -38.4890   23.9110 H   0  0  0  0  0  0  0  0  0  0  0  0
  -26.4110  -31.9360   25.2710 C   0  0  1  0  0  0  0  0  0  0  0  0
  -25.3030  -31.7010   26.3230 C   0  0  0  0  0  1  0  0  0  0  0  0
  -27.0210  -30.5630   24.9060 C   0  0  0  0  0  1  0  0  0  0  0  0
  -27.5360  -32.7580   25.9400 C   0  0  0  0  0  1  0  0  0  0  0  0
  2  1  1  0
  2 48  1  0
  2  3  1  0
  4  3  1  0
  5  7  2  0
  6  9  2  0
  6  5  1  0
  7  4  1  0
  8  6  1  0
  9 10  1  0
 10  7  1  0
 10 11  1  0
 12 11  1  0
 13 18  1  0
 14 15  1  0
 14 13  1  0
 16 15  1  0
 16 23  1  0
 16 17  1  0
 18 12  1  0
 18 17  1  0
 19 12  2  0
 20 21  2  0
 21 22  1  0
 21 40  1  0
 22 25  1  0
 23 20  1  0
 23 24  1  0
 24 22  2  0
 25 26  1  0
 26 27  2  0
 28 31  1  0
 28 27  1  0
 29 28  2  0
 30 29  1  0
 30 25  2  0
 31 32  1  0
 32 37  2  0
 32 33  1  0
 33 34  2  0
 34 35  1  0
 35 39  1  0
 36 35  2  0
 37 36  1  0
 38 37  1  0
 40 41  1  0
 41 44  1  0
 41 43  1  0
 42 40  2  0
 45 46  1  0
 45 20  1  0
 47 45  1  0
 49 50  1  0
 49 48  2  0
 51 50  1  0
 52 63  2  0
 53 51  1  0
 53 58  1  0
 54 62  1  0
 54 64  1  0
 55 61  1  0
 55 57  1  0
 56 62  1  0
 57 56  1  0
 58 57  2  0
 59 53  2  0
 60 59  1  0
 60 55  2  0
 61 54  1  0
 62 52  1  0
 64 66  2  0
 65 64  1  0
 67 65  1  0
 68 77  2  0
 68 73  1  0
 69 65  1  0
 69 73  1  0
 70 69  1  0
 71 72  1  0
 71 70  1  0
 72 68  1  0
 73 74  2  0
 74 75  1  0
 76 75  2  0
 77 76  1  0
 78 52  1  0
 78 79  1  0
 78 88  1  0
 79 82  1  0
 80 84  1  0
 80 79  1  0
 81 80  2  0
 84 83  1  0
 86 84  1  0
 86 87  1  0
 86 85  1  0
 88 91  1  1
 88 89  1  0
 90 88  1  0
M  ISO  4  11 100  12 100  50 101  51 101
M  END
>  <TORSDO>  (71) 
F 23

>  <SCORE>  (71) 
-12.021

>  <name>  (71) 
70

>  <ligand_id>  (71) 
70

>  <original_smiles>  (71) 
[H]c1c([H])c([H])c2c(c1[H])C([H])([H])C([H])([H])C([H])([H])C2([H])N([H])C(=O)C1([H])N(C(=O)C([H])(N([H])C(=O)C([H])(N([H])C([H])([H])[H])C([H])([H])[H])C(C([H])([H])[H])(C([H])([H])[H])C([H])([H])[H])C([H])([H])c2c([H])c(OC([H])([H])C([H])([H])C([H])([H])C([H])(C([H])([H])[H])C([H])([H])C([H])([H])c3c([H])c(C([H])([H])[H])nn3C([H])([H])C(=O)N3C([H])([H])C([H])([H])C([H])([H])C([H])(n4nc(-c5c([H])c([H])c(Oc6c([H])c([H])c(F)c([H])c6F)c([H])c5[H])c(C(=O)N([H])[H])c4N([H])[H])C3([H])[H])c([H])c([H])c2C1([H])[H]

>  <smiles>  (71) 
[H]c1c([H])c([H])c2c(c1[H])C([H])([H])C([H])([H])C([H])([H])C2([H])N([H])C(=O)C1([H])N(C(=O)C([H])(N([H])C(=O)C([H])(N([H])C([H])([H])[H])C([H])([H])[H])C(C([H])([H])[H])(C([H])([H])[H])C([H])([H])[H])C([H])([H])c2c([H])c(OC([H])([H])C([H])([H])C([H])([H])C([H])(C([H])([H])[H])C([H])([H])C([H])([H])c3c([H])c(C([H])([H])[H])nn3C([H])([H])C(=O)N3C([H])([H])C([H])([H])C([H])([H])C([H])(n4nc(-c5c([H])c([H])c(Oc6c([H])c([H])c(F)c([H])c6F)c([H])c5[H])c(C(=O)N([H])[H])c4N([H])[H])C3([H])[H])c([H])c([H])c2C1([H])[H]

$$$$
71:0:0
     RDKit          3D

 95103  0  0  1  0  0  0  0  0999 V2000
  -31.1950  -23.1040   18.8130 C   0  0  0  0  0  3  0  0  0  0  0  0
  -30.1080  -23.3170   19.7140 C   0  0  0  0  0  0  0  0  0  0  0  0
  -29.7870  -22.2440   20.5900 C   0  0  0  0  0  0  0  0  0  0  0  0
  -31.8870  -21.8620   18.7950 C   0  0  0  0  0  0  0  0  0  0  0  0
  -30.4580  -21.0030   20.4260 C   0  0  0  0  0  0  0  0  0  0  0  0
  -28.7940  -22.4310   21.7340 C   0  0  0  0  0  1  0  0  0  0  0  0
  -31.4820  -20.8380   19.5650 N   0  0  0  0  0  0  0  0  0  0  0  0
  -31.3490  -19.3380   22.1210 C   0  0  0  0  0  1  0  0  0  0  0  0
  -29.6180  -18.6020   20.3960 C   0  0  0  0  0  1  0  0  0  0  0  0
  -30.1430  -19.7590   21.2650 C   0  0  0  0  0  3  0  0  0  0  0  0
  -33.0200  -21.8550   16.5110 C   0  0  0  0  0  1  0  0  0  0  0  0
  -33.2100  -21.5960   18.0170 C   0  0  0  0  0  3  0  0  0  0  0  0
  -34.4860  -22.2900   18.6190 C   0  0  0  0  0  2  0  0  0  0  0  0
  -34.6070  -24.8200   18.2470 C   0  0  0  0  0  0  0  0  0  0  0  0
  -36.2540  -26.6160   17.8460 C   0  0  0  0  0  2  0  0  0  0  0  0
  -37.6270  -25.9420   17.6200 C   0  0  0  0  0  2  0  0  0  0  0  0
  -38.3460  -25.6930   18.9620 C   0  0  0  0  0  2  0  0  0  0  0  0
  -37.4270  -25.0180   20.0150 C   0  0  0  0  0  3  0  0  0  0  0  0
  -36.0600  -25.7400   20.0970 C   0  0  0  0  0  2  0  0  0  0  0  0
  -35.4690  -25.7540   18.7460 N   0  0  0  0  0  0  0  0  0  0  0  0
  -34.1620  -24.8710   17.0980 O   0  0  0  0  0  0  0  0  0  0  0  0
  -34.4450  -23.7260   19.0260 N   0  0  0  0  0  0  0  0  0  0  0  0
  -34.7250  -23.8790   19.9830 H   0  0  0  0  0  0  0  0  0  0  0  0
  -38.6620  -23.8390   21.9410 C   0  0  0  0  0  0  0  0  0  0  0  0
  -39.1870  -24.3090   23.1150 C   0  0  0  0  0  0  0  0  0  0  0  0
  -38.8930  -25.7070   23.1460 C   0  0  0  0  0  0  0  0  0  0  0  0
  -38.0770  -24.9320   21.3200 N   0  0  0  0  0  0  0  0  0  0  0  0
  -38.1760  -26.0510   22.0840 N   0  0  0  0  0  0  0  0  0  0  0  0
  -39.3010  -26.7480   24.0990 C   0  0  0  0  0  0  0  0  0  0  0  0
  -38.3600  -27.4020   24.9250 C   0  0  0  0  0  3  0  0  0  0  0  0
  -38.7790  -28.3880   25.8440 C   0  0  0  0  0  3  0  0  0  0  0  0
  -40.1490  -28.7260   25.9470 C   0  0  0  0  0  0  0  0  0  0  0  0
  -41.0780  -28.0880   25.1070 C   0  0  0  0  0  3  0  0  0  0  0  0
  -40.6600  -27.1100   24.1890 C   0  0  0  0  0  3  0  0  0  0  0  0
  -40.6440  -29.6880   26.7940 O   0  0  0  0  0  0  0  0  0  0  0  0
  -40.4570  -29.6180   28.1510 C   0  0  0  0  0  0  0  0  0  0  0  0
  -41.3560  -28.9260   28.9920 C   0  0  0  0  0  3  0  0  0  0  0  0
  -41.1640  -28.9380   30.3880 C   0  0  0  0  0  3  0  0  0  0  0  0
  -40.0830  -29.6470   30.9460 C   0  0  0  0  0  0  0  0  0  0  0  0
  -39.1910  -30.3420   30.1100 C   0  0  0  0  0  3  0  0  0  0  0  0
  -39.3800  -30.3300   28.7160 C   0  0  0  0  0  0  0  0  0  0  0  0
  -38.5290  -31.0180   27.9180 F   0  0  0  0  0  0  0  0  0  0  0  0
  -39.9030  -29.6650   32.2860 F   0  0  0  0  0  0  0  0  0  0  0  0
  -39.9990  -23.5290   24.1090 C   0  0  0  0  0  0  0  0  0  0  0  0
  -39.7390  -23.7200   25.3980 N   0  0  0  0  0  0  0  0  0  0  0  0
  -40.8390  -22.7070   23.7440 O   0  0  0  0  0  0  0  0  0  0  0  0
  -39.0350  -24.3790   25.6960 H   0  0  0  0  0  0  0  0  0  0  0  0
  -40.2510  -23.1990   26.0950 H   0  0  0  0  0  0  0  0  0  0  0  0
  -38.6490  -22.5820   21.3420 N   0  0  0  0  0  0  0  0  0  0  0  0
  -39.1170  -21.7830   21.7540 H   0  0  0  0  0  0  0  0  0  0  0  0
  -38.2520  -22.3840   20.4330 H   0  0  0  0  0  0  0  0  0  0  0  0
  -29.4090  -24.7050   19.8090 C   0  0  0  0  0  2  0  0  0  0  0  0
  -27.8650  -24.7900   19.5190 C   0  0  0  0  0  2  0  0  0  0  0  0
  -27.3700  -26.1270   18.8680 C   0  0  0  0  0  2  0  0  0  0  0  0
  -27.5550  -27.3510   19.6260 O   0  0  0  0  0  0  0  0  0  0  0  0
  -26.1860  -31.9750   24.9020 C   0  0  0  0  0  0  0  0  0  0  0  0
  -26.6340  -27.7660   20.5830 C   0  0  0  0  0  0  0  0  0  0  0  0
  -24.6180  -30.0740   24.7020 C   0  0  0  0  0  3  0  0  0  0  0  0
  -24.8130  -28.6870   22.5650 C   0  0  0  0  0  0  0  0  0  0  0  0
  -25.8620  -30.9550   22.6460 C   0  0  0  0  0  2  0  0  0  0  0  0
  -25.8010  -29.5480   22.0750 C   0  0  0  0  0  0  0  0  0  0  0  0
  -26.7100  -29.0930   21.0860 C   0  0  0  0  0  3  0  0  0  0  0  0
  -25.6280  -26.9180   21.1010 C   0  0  0  0  0  3  0  0  0  0  0  0
  -24.7230  -27.3720   22.0810 C   0  0  0  0  0  3  0  0  0  0  0  0
  -23.8810  -29.2350   23.6230 C   0  0  0  0  0  2  0  0  0  0  0  0
  -25.6050  -31.0320   24.1070 N   0  0  0  0  0  0  0  0  0  0  0  0
  -25.8830  -32.0810   26.0990 O   0  0  0  0  0  0  0  0  0  0  0  0
  -25.2450  -29.1110   25.7350 C   0  0  0  0  0  0  0  0  0  0  0  0
  -24.8310  -29.2420   27.0080 N   0  0  0  0  0  0  0  0  0  0  0  0
  -26.0630  -28.2560   25.3860 O   0  0  0  0  0  0  0  0  0  0  0  0
  -24.1650  -29.9710   27.2150 H   0  0  0  0  0  0  0  0  0  0  0  0
  -26.0530  -29.3620   30.4070 C   0  0  0  0  0  0  0  0  0  0  0  0
  -25.2540  -28.4150   28.1380 C   0  0  0  0  0  3  0  0  0  0  0  0
  -24.0350  -27.8650   28.9140 C   0  0  0  0  0  2  0  0  0  0  0  0
  -23.6180  -28.7530   30.0900 C   0  0  0  0  0  2  0  0  0  0  0  0
  -24.7730  -28.9040   31.0840 C   0  0  0  0  0  2  0  0  0  0  0  0
  -26.2730  -29.1470   29.0200 C   0  0  0  0  0  0  0  0  0  0  0  0
  -27.4650  -29.6240   28.4330 C   0  0  0  0  0  3  0  0  0  0  0  0
  -28.4270  -30.3020   29.2050 C   0  0  0  0  0  3  0  0  0  0  0  0
  -28.2120  -30.4970   30.5810 C   0  0  0  0  0  3  0  0  0  0  0  0
  -27.0310  -30.0240   31.1790 C   0  0  0  0  0  3  0  0  0  0  0  0
  -27.2390  -32.9820   24.3430 C   0  0  0  0  0  3  0  0  0  0  0  0
  -26.7150  -34.3370   24.5580 N   0  0  0  0  0  0  0  0  0  0  0  0
  -26.1470  -35.0940   23.6090 C   0  0  0  0  0  0  0  0  0  0  0  0
  -26.0720  -34.7410   22.4280 O   0  0  0  0  0  0  0  0  0  0  0  0
  -26.6890  -34.6640   25.5130 H   0  0  0  0  0  0  0  0  0  0  0  0
  -24.2310  -36.6960   23.3200 C   0  0  0  0  0  1  0  0  0  0  0  0
  -25.5690  -36.4560   24.0360 C   0  0  0  0  0  3  0  0  0  0  0  0
  -27.6920  -37.5580   24.5940 C   0  0  0  0  0  1  0  0  0  0  0  0
  -26.4840  -37.5900   23.7760 N   0  0  0  0  0  0  0  0  0  0  0  0
  -26.0140  -38.4770   23.9390 H   0  0  0  0  0  0  0  0  0  0  0  0
  -28.6630  -32.8240   25.0030 C   0  0  1  0  0  0  0  0  0  0  0  0
  -28.7710  -33.4610   26.4090 C   0  0  0  0  0  1  0  0  0  0  0  0
  -29.0420  -31.3290   25.1340 C   0  0  0  0  0  1  0  0  0  0  0  0
  -29.7360  -33.4740   24.0990 C   0  0  0  0  0  1  0  0  0  0  0  0
  1  2  1  0
  2 52  1  0
  2  3  2  0
  3  6  1  0
  4  1  2  0
  4  7  1  0
  5  3  1  0
  5 10  1  0
  7  5  2  0
  9 10  1  0
 10  8  1  0
 12 11  1  0
 12 13  1  0
 12  4  1  0
 13 22  1  0
 14 20  1  0
 14 22  1  0
 15 20  1  0
 16 15  1  0
 16 17  1  0
 18 17  1  0
 18 19  1  0
 18 27  1  0
 20 19  1  0
 21 14  2  0
 22 23  1  0
 24 25  2  0
 25 26  1  0
 25 44  1  0
 26 29  1  0
 27 24  1  0
 27 28  1  0
 28 26  2  0
 29 34  2  0
 29 30  1  0
 30 31  2  0
 31 32  1  0
 32 35  1  0
 33 32  2  0
 34 33  1  0
 35 36  1  0
 36 41  2  0
 36 37  1  0
 37 38  2  0
 38 39  1  0
 39 43  1  0
 40 39  2  0
 41 40  1  0
 42 41  1  0
 44 45  1  0
 45 47  1  0
 45 48  1  0
 46 44  2  0
 49 50  1  0
 49 24  1  0
 51 49  1  0
 53 52  1  0
 54 53  1  0
 54 55  1  0
 55 57  1  0
 56 67  2  0
 57 62  2  0
 57 63  1  0
 58 68  1  0
 59 65  1  0
 60 66  1  0
 61 59  2  0
 61 60  1  0
 62 61  1  0
 63 64  2  0
 64 59  1  0
 65 58  1  0
 66 58  1  0
 66 56  1  0
 68 69  1  0
 69 71  1  0
 70 68  2  0
 72 76  1  0
 72 81  1  0
 73 69  1  0
 73 74  1  0
 73 77  1  0
 74 75  1  0
 75 76  1  0
 77 72  2  0
 78 77  1  0
 78 79  2  0
 79 80  1  0
 80 81  2  0
 82 83  1  0
 82 56  1  0
 82 92  1  0
 83 86  1  0
 84 88  1  0
 84 83  1  0
 85 84  2  0
 88 87  1  0
 90 91  1  0
 90 88  1  0
 90 89  1  0
 92 94  1  1
 92 93  1  0
 95 92  1  0
M  ISO  4  14 100  22 100  54 101  55 101
M  END
>  <TORSDO>  (72) 
F 22

>  <SCORE>  (72) 
-7.109

>  <name>  (72) 
71

>  <ligand_id>  (72) 
71

>  <original_smiles>  (72) 
[H]c1c([H])c([H])c2c(c1[H])C([H])([H])C([H])([H])C([H])([H])C2([H])N([H])C(=O)C1([H])N(C(=O)C([H])(N([H])C(=O)C([H])(N([H])C([H])([H])[H])C([H])([H])[H])C(C([H])([H])[H])(C([H])([H])[H])C([H])([H])[H])C([H])([H])c2c([H])c(OC([H])([H])C([H])([H])C([H])([H])c3c([H])c(C([H])(C([H])([H])[H])C([H])([H])N([H])C(=O)N4C([H])([H])C([H])([H])C([H])([H])C([H])(n5nc(-c6c([H])c([H])c(Oc7c([H])c([H])c(F)c([H])c7F)c([H])c6[H])c(C(=O)N([H])[H])c5N([H])[H])C4([H])[H])nc(C([H])(C([H])([H])[H])C([H])([H])[H])c3C([H])([H])[H])c([H])c([H])c2C1([H])[H]

>  <smiles>  (72) 
[H]c1c([H])c([H])c2c(c1[H])C([H])([H])C([H])([H])C([H])([H])C2([H])N([H])C(=O)C1([H])N(C(=O)C([H])(N([H])C(=O)C([H])(N([H])C([H])([H])[H])C([H])([H])[H])C(C([H])([H])[H])(C([H])([H])[H])C([H])([H])[H])C([H])([H])c2c([H])c(OC([H])([H])C([H])([H])C([H])([H])c3c([H])c(C([H])(C([H])([H])[H])C([H])([H])N([H])C(=O)N4C([H])([H])C([H])([H])C([H])([H])C([H])(n5nc(-c6c([H])c([H])c(Oc7c([H])c([H])c(F)c([H])c7F)c([H])c6[H])c(C(=O)N([H])[H])c5N([H])[H])C4([H])[H])nc(C([H])(C([H])([H])[H])C([H])([H])[H])c3C([H])([H])[H])c([H])c([H])c2C1([H])[H]

$$$$
72:0:0
     RDKit          3D

 93101  0  0  1  0  0  0  0  0999 V2000
  -29.4900  -21.3060   19.5610 C   0  0  0  0  0  3  0  0  0  0  0  0
  -30.2850  -22.4750   19.5770 C   0  0  0  0  0  0  0  0  0  0  0  0
  -30.1280  -20.0470   19.6030 C   0  0  0  0  0  0  0  0  0  0  0  0
  -31.6900  -22.2800   19.6570 C   0  0  0  0  0  0  0  0  0  0  0  0
  -31.4740  -19.9380   19.6800 N   0  0  0  0  0  0  0  0  0  0  0  0
  -32.2380  -21.0360   19.7190 N   0  0  0  0  0  0  0  0  0  0  0  0
  -33.3200  -23.6730   18.2750 C   0  0  0  0  0  1  0  0  0  0  0  0
  -32.7030  -23.4160   19.6560 C   0  0  0  0  0  2  0  0  0  0  0  0
  -29.6060  -23.8480   19.4540 C   0  0  0  0  0  2  0  0  0  0  0  0
  -29.6970  -24.7340   20.7200 C   0  0  0  0  0  2  0  0  0  0  0  0
  -28.4540  -25.5940   21.0140 C   0  0  0  0  0  2  0  0  0  0  0  0
  -28.4310  -26.7530   20.1870 O   0  0  0  0  0  0  0  0  0  0  0  0
  -24.5650  -31.9040   23.2450 C   0  0  0  0  0  0  0  0  0  0  0  0
  -27.2500  -27.4560   20.2260 C   0  0  0  0  0  0  0  0  0  0  0  0
  -23.3750  -30.4860   21.6030 C   0  0  0  0  0  3  0  0  0  0  0  0
  -24.8470  -28.9320   20.2110 C   0  0  0  0  0  0  0  0  0  0  0  0
  -25.9010  -30.8510   21.4230 C   0  0  0  0  0  2  0  0  0  0  0  0
  -25.9960  -29.4720   20.8040 C   0  0  0  0  0  0  0  0  0  0  0  0
  -27.2020  -28.7390   20.8100 C   0  0  0  0  0  3  0  0  0  0  0  0
  -26.0890  -26.9190   19.6370 C   0  0  0  0  0  3  0  0  0  0  0  0
  -24.8860  -27.6530   19.6290 C   0  0  0  0  0  3  0  0  0  0  0  0
  -23.6000  -29.7880   20.2330 C   0  0  0  0  0  2  0  0  0  0  0  0
  -24.6300  -31.0950   22.1500 N   0  0  0  0  0  0  0  0  0  0  0  0
  -23.4790  -32.1770   23.7750 O   0  0  0  0  0  0  0  0  0  0  0  0
  -22.7160  -29.4730   22.5670 C   0  0  0  0  0  0  0  0  0  0  0  0
  -21.3930  -29.2870   22.4280 N   0  0  0  0  0  0  0  0  0  0  0  0
  -23.3920  -28.8540   23.3920 O   0  0  0  0  0  0  0  0  0  0  0  0
  -20.9080  -29.8380   21.7330 H   0  0  0  0  0  0  0  0  0  0  0  0
  -18.0170  -28.0930   22.8880 C   0  0  0  0  0  0  0  0  0  0  0  0
  -20.5700  -28.3560   23.1960 C   0  0  0  0  0  3  0  0  0  0  0  0
  -20.6840  -26.9200   22.6350 C   0  0  0  0  0  2  0  0  0  0  0  0
  -19.5980  -26.5860   21.6080 C   0  0  0  0  0  2  0  0  0  0  0  0
  -18.2060  -26.7360   22.2290 C   0  0  0  0  0  2  0  0  0  0  0  0
  -19.1280  -28.8600   23.3270 C   0  0  0  0  0  0  0  0  0  0  0  0
  -18.8970  -30.1320   23.8980 C   0  0  0  0  0  3  0  0  0  0  0  0
  -17.5890  -30.6320   24.0360 C   0  0  0  0  0  3  0  0  0  0  0  0
  -16.4940  -29.8620   23.6150 C   0  0  0  0  0  3  0  0  0  0  0  0
  -16.7080  -28.5930   23.0470 C   0  0  0  0  0  3  0  0  0  0  0  0
  -25.8440  -32.5400   23.8740 C   0  0  0  0  0  3  0  0  0  0  0  0
  -25.5310  -33.9370   24.1980 N   0  0  0  0  0  0  0  0  0  0  0  0
  -25.8700  -34.9870   23.4370 C   0  0  0  0  0  0  0  0  0  0  0  0
  -26.5470  -34.8820   22.4120 O   0  0  0  0  0  0  0  0  0  0  0  0
  -24.9310  -34.0920   24.9950 H   0  0  0  0  0  0  0  0  0  0  0  0
  -24.1360  -36.7710   23.0620 C   0  0  0  0  0  1  0  0  0  0  0  0
  -25.3730  -36.3750   23.8860 C   0  0  0  0  0  3  0  0  0  0  0  0
  -27.5010  -37.2670   24.7240 C   0  0  0  0  0  1  0  0  0  0  0  0
  -26.4020  -37.4320   23.7780 N   0  0  0  0  0  0  0  0  0  0  0  0
  -25.9920  -38.3500   23.9260 H   0  0  0  0  0  0  0  0  0  0  0  0
  -26.3580  -31.7710   25.1530 C   0  0  1  0  0  0  0  0  0  0  0  0
  -25.2620  -31.5320   26.2150 C   0  0  0  0  0  1  0  0  0  0  0  0
  -26.9460  -30.3950   24.7600 C   0  0  0  0  0  1  0  0  0  0  0  0
  -27.5030  -32.5690   25.8190 C   0  0  0  0  0  1  0  0  0  0  0  0
  -29.3240  -18.7650   19.3860 C   0  0  0  0  0  2  0  0  0  0  0  0
  -29.3810  -17.6810   20.4910 C   0  0  0  0  0  2  0  0  0  0  0  0
  -30.6220  -16.7660   20.4220 C   0  0  0  0  0  2  0  0  0  0  0  0
  -30.8130  -14.3450   20.0580 C   0  0  0  0  0  0  0  0  0  0  0  0
  -30.2810  -12.2860   18.8040 C   0  0  0  0  0  2  0  0  0  0  0  0
  -29.2880  -12.6020   17.6710 C   0  0  0  0  0  2  0  0  0  0  0  0
  -27.8390  -12.4760   18.1820 C   0  0  0  0  0  2  0  0  0  0  0  0
  -27.6070  -13.2460   19.5090 C   0  0  0  0  0  3  0  0  0  0  0  0
  -28.7260  -12.9570   20.5340 C   0  0  0  0  0  2  0  0  0  0  0  0
  -30.0280  -13.2380   19.9000 N   0  0  0  0  0  0  0  0  0  0  0  0
  -31.8350  -14.5110   19.3840 O   0  0  0  0  0  0  0  0  0  0  0  0
  -30.3480  -15.2050   22.2910 C   0  0  0  0  0  1  0  0  0  0  0  0
  -30.3490  -15.3630   20.8320 N   0  0  0  0  0  0  0  0  0  0  0  0
  -25.2620  -13.8610   20.3700 C   0  0  0  0  0  0  0  0  0  0  0  0
  -24.2130  -13.0930   20.7980 C   0  0  0  0  0  0  0  0  0  0  0  0
  -24.6570  -11.7360   20.7230 C   0  0  0  0  0  0  0  0  0  0  0  0
  -26.2820  -12.9730   20.0640 N   0  0  0  0  0  0  0  0  0  0  0  0
  -25.9260  -11.6910   20.3340 N   0  0  0  0  0  0  0  0  0  0  0  0
  -23.9300  -10.4810   20.9500 C   0  0  0  0  0  0  0  0  0  0  0  0
  -24.3990   -9.5070   21.8600 C   0  0  0  0  0  3  0  0  0  0  0  0
  -23.6740   -8.3140   22.0710 C   0  0  0  0  0  3  0  0  0  0  0  0
  -22.4630   -8.0880   21.3740 C   0  0  0  0  0  0  0  0  0  0  0  0
  -22.0100   -9.0490   20.4560 C   0  0  0  0  0  3  0  0  0  0  0  0
  -22.7370  -10.2320   20.2410 C   0  0  0  0  0  3  0  0  0  0  0  0
  -21.7030   -6.9500   21.4970 O   0  0  0  0  0  0  0  0  0  0  0  0
  -21.6910   -6.2140   22.6550 C   0  0  0  0  0  0  0  0  0  0  0  0
  -21.3340   -6.7830   23.8970 C   0  0  0  0  0  3  0  0  0  0  0  0
  -21.2680   -5.9730   25.0480 C   0  0  0  0  0  3  0  0  0  0  0  0
  -21.5500   -4.5970   24.9610 C   0  0  0  0  0  0  0  0  0  0  0  0
  -21.9020   -4.0290   23.7230 C   0  0  0  0  0  3  0  0  0  0  0  0
  -21.9700   -4.8360   22.5730 C   0  0  0  0  0  0  0  0  0  0  0  0
  -22.2890   -4.2780   21.3810 F   0  0  0  0  0  0  0  0  0  0  0  0
  -21.4820   -3.8180   26.0660 F   0  0  0  0  0  0  0  0  0  0  0  0
  -22.8410  -13.5820   21.1630 C   0  0  0  0  0  0  0  0  0  0  0  0
  -22.1670  -12.8980   22.0800 N   0  0  0  0  0  0  0  0  0  0  0  0
  -22.3770  -14.6080   20.6680 O   0  0  0  0  0  0  0  0  0  0  0  0
  -22.5550  -12.0700   22.5070 H   0  0  0  0  0  0  0  0  0  0  0  0
  -21.2490  -13.2090   22.3630 H   0  0  0  0  0  0  0  0  0  0  0  0
  -25.4300  -15.2310   20.1970 N   0  0  0  0  0  0  0  0  0  0  0  0
  -24.6810  -15.8940   20.3690 H   0  0  0  0  0  0  0  0  0  0  0  0
  -26.2700  -15.6690   19.8400 H   0  0  0  0  0  0  0  0  0  0  0  0
  1  2  2  0
  1  3  1  0
  2  4  1  0
  3  5  2  0
  4  6  2  0
  5  6  1  0
  7  8  1  0
  8  4  1  0
  9  2  1  0
  9 10  1  0
 10 11  1  0
 12 14  1  0
 12 11  1  0
 13 24  2  0
 14 19  1  0
 15 23  1  0
 15 25  1  0
 16 22  1  0
 16 18  1  0
 17 23  1  0
 18 19  2  0
 18 17  1  0
 20 14  2  0
 21 20  1  0
 21 16  2  0
 22 15  1  0
 23 13  1  0
 25 27  2  0
 26 25  1  0
 28 26  1  0
 29 38  2  0
 29 34  1  0
 30 26  1  0
 30 34  1  0
 31 30  1  0
 32 33  1  0
 32 31  1  0
 33 29  1  0
 34 35  2  0
 35 36  1  0
 37 36  2  0
 38 37  1  0
 39 13  1  0
 39 40  1  0
 39 49  1  0
 40 43  1  0
 41 45  1  0
 41 40  1  0
 42 41  2  0
 45 44  1  0
 47 45  1  0
 47 48  1  0
 47 46  1  0
 49 52  1  1
 49 50  1  0
 51 49  1  0
 53  3  1  0
 53 54  1  0
 55 54  1  0
 55 65  1  0
 56 65  1  0
 57 62  1  0
 58 59  1  0
 58 57  1  0
 60 59  1  0
 60 69  1  0
 60 61  1  0
 62 56  1  0
 62 61  1  0
 63 56  2  0
 65 64  1  0
 66 67  2  0
 67 86  1  0
 68 67  1  0
 68 71  1  0
 69 70  1  0
 69 66  1  0
 70 68  2  0
 71 72  1  0
 72 73  2  0
 74 77  1  0
 74 73  1  0
 75 74  2  0
 76 75  1  0
 76 71  2  0
 77 78  1  0
 78 79  1  0
 79 80  2  0
 81 80  1  0
 81 85  1  0
 82 81  2  0
 83 78  2  0
 83 82  1  0
 84 83  1  0
 86 87  1  0
 87 90  1  0
 87 89  1  0
 88 86  2  0
 91 92  1  0
 91 66  1  0
 93 91  1  0
M  ISO  4  11 101  12 101  56 100  65 100
M  END
>  <TORSDO>  (73) 
F 23

>  <SCORE>  (73) 
-11.878

>  <name>  (73) 
72

>  <ligand_id>  (73) 
72

>  <original_smiles>  (73) 
[H]c1c([H])c([H])c2c(c1[H])C([H])([H])C([H])([H])C([H])([H])C2([H])N([H])C(=O)C1([H])N(C(=O)C([H])(N([H])C(=O)C([H])(N([H])C([H])([H])[H])C([H])([H])[H])C(C([H])([H])[H])(C([H])([H])[H])C([H])([H])[H])C([H])([H])c2c([H])c(OC([H])([H])C([H])([H])C([H])([H])c3c(C([H])([H])C([H])([H])[H])nnc(C([H])([H])C([H])([H])C([H])([H])N(C(=O)N4C([H])([H])C([H])([H])C([H])([H])C([H])(n5nc(-c6c([H])c([H])c(Oc7c([H])c([H])c(F)c([H])c7F)c([H])c6[H])c(C(=O)N([H])[H])c5N([H])[H])C4([H])[H])C([H])([H])[H])c3[H])c([H])c([H])c2C1([H])[H]

>  <smiles>  (73) 
[H]c1c([H])c([H])c2c(c1[H])C([H])([H])C([H])([H])C([H])([H])C2([H])N([H])C(=O)C1([H])N(C(=O)C([H])(N([H])C(=O)C([H])(N([H])C([H])([H])[H])C([H])([H])[H])C(C([H])([H])[H])(C([H])([H])[H])C([H])([H])[H])C([H])([H])c2c([H])c(OC([H])([H])C([H])([H])C([H])([H])c3c(C([H])([H])C([H])([H])[H])nnc(C([H])([H])C([H])([H])C([H])([H])N(C(=O)N4C([H])([H])C([H])([H])C([H])([H])C([H])(n5nc(-c6c([H])c([H])c(Oc7c([H])c([H])c(F)c([H])c7F)c([H])c6[H])c(C(=O)N([H])[H])c5N([H])[H])C4([H])[H])C([H])([H])[H])c3[H])c([H])c([H])c2C1([H])[H]

$$$$
73:0:0
     RDKit          3D

 94102  0  0  1  0  0  0  0  0999 V2000
  -28.5470  -17.9070   20.4590 C   0  0  0  0  0  3  0  0  0  0  0  0
  -29.9420  -18.1130   20.5450 C   0  0  0  0  0  0  0  0  0  0  0  0
  -28.2320  -20.0730   19.6950 C   0  0  0  0  0  0  0  0  0  0  0  0
  -29.6370  -20.3280   19.7870 C   0  0  0  0  0  0  0  0  0  0  0  0
  -27.6970  -18.8790   20.0520 N   0  0  0  0  0  0  0  0  0  0  0  0
  -30.4770  -19.3310   20.2140 N   0  0  0  0  0  0  0  0  0  0  0  0
  -27.2350  -21.1450   19.2740 C   0  0  0  0  0  2  0  0  0  0  0  0
  -25.4250  -22.0240   17.7480 C   0  0  0  0  0  1  0  0  0  0  0  0
  -26.1810  -20.7660   18.2170 C   0  0  0  0  0  2  0  0  0  0  0  0
  -30.3030  -21.6750   19.3550 C   0  0  0  0  0  3  0  0  0  0  0  0
  -29.9080  -23.0040   20.1070 C   0  0  0  0  0  3  0  0  0  0  0  0
  -30.7420  -25.3310   20.6740 C   0  0  0  0  0  1  0  0  0  0  0  0
  -30.3500  -24.3930   19.5090 C   0  0  0  0  0  3  0  0  0  0  0  0
  -29.2700  -25.1030   18.6290 C   0  0  0  0  0  2  0  0  0  0  0  0
  -29.2570  -26.5610   18.7260 O   0  0  0  0  0  0  0  0  0  0  0  0
  -25.1680  -30.3420   23.2070 C   0  0  0  0  0  0  0  0  0  0  0  0
  -28.0300  -27.1770   18.9400 C   0  0  0  0  0  0  0  0  0  0  0  0
  -23.9990  -29.2680   21.3170 C   0  0  0  0  0  3  0  0  0  0  0  0
  -25.4940  -28.3560   19.4600 C   0  0  0  0  0  0  0  0  0  0  0  0
  -26.4510  -29.9710   21.1030 C   0  0  0  0  0  2  0  0  0  0  0  0
  -26.6350  -28.8370   20.1150 C   0  0  0  0  0  0  0  0  0  0  0  0
  -27.9020  -28.2510   19.8610 C   0  0  0  0  0  3  0  0  0  0  0  0
  -26.8660  -26.7500   18.2540 C   0  0  0  0  0  3  0  0  0  0  0  0
  -25.6080  -27.3150   18.5260 C   0  0  0  0  0  3  0  0  0  0  0  0
  -24.1680  -29.0060   19.7990 C   0  0  0  0  0  2  0  0  0  0  0  0
  -25.2270  -29.8610   21.9330 N   0  0  0  0  0  0  0  0  0  0  0  0
  -24.1100  -30.3280   23.8520 O   0  0  0  0  0  0  0  0  0  0  0  0
  -23.5500  -27.9560   22.0010 C   0  0  0  0  0  0  0  0  0  0  0  0
  -22.2830  -27.5690   21.7840 N   0  0  0  0  0  0  0  0  0  0  0  0
  -24.3380  -27.2970   22.6860 O   0  0  0  0  0  0  0  0  0  0  0  0
  -21.6890  -28.1890   21.2570 H   0  0  0  0  0  0  0  0  0  0  0  0
  -19.2760  -25.5580   21.6470 C   0  0  0  0  0  0  0  0  0  0  0  0
  -21.6600  -26.3380   22.2780 C   0  0  0  0  0  3  0  0  0  0  0  0
  -22.1690  -25.1010   21.4970 C   0  0  0  0  0  2  0  0  0  0  0  0
  -21.2690  -24.6910   20.3260 C   0  0  0  0  0  2  0  0  0  0  0  0
  -19.8370  -24.4240   20.8000 C   0  0  0  0  0  2  0  0  0  0  0  0
  -20.1350  -26.4640   22.3250 C   0  0  0  0  0  0  0  0  0  0  0  0
  -19.5650  -27.5230   23.0630 C   0  0  0  0  0  3  0  0  0  0  0  0
  -18.1680  -27.6810   23.1390 C   0  0  0  0  0  3  0  0  0  0  0  0
  -17.3230  -26.7730   22.4810 C   0  0  0  0  0  3  0  0  0  0  0  0
  -17.8760  -25.7140   21.7380 C   0  0  0  0  0  3  0  0  0  0  0  0
  -26.4200  -30.9640   23.9030 C   0  0  0  0  0  3  0  0  0  0  0  0
  -26.0420  -32.2980   24.3880 N   0  0  0  0  0  0  0  0  0  0  0  0
  -26.4390  -33.4510   23.8330 C   0  0  0  0  0  0  0  0  0  0  0  0
  -27.2360  -33.5020   22.8930 O   0  0  0  0  0  0  0  0  0  0  0  0
  -25.3500  -32.3320   25.1220 H   0  0  0  0  0  0  0  0  0  0  0  0
  -24.7920  -35.3190   23.4620 C   0  0  0  0  0  1  0  0  0  0  0  0
  -25.8600  -34.7570   24.4140 C   0  0  0  0  0  3  0  0  0  0  0  0
  -27.7870  -35.4460   25.7700 C   0  0  0  0  0  1  0  0  0  0  0  0
  -26.8850  -35.7910   24.6750 N   0  0  0  0  0  0  0  0  0  0  0  0
  -26.4480  -36.6810   24.8970 H   0  0  0  0  0  0  0  0  0  0  0  0
  -26.9670  -30.0780   25.0870 C   0  0  1  0  0  0  0  0  0  0  0  0
  -25.8830  -29.6870   26.1170 C   0  0  0  0  0  1  0  0  0  0  0  0
  -27.6130  -28.7760   24.5550 C   0  0  0  0  0  1  0  0  0  0  0  0
  -28.0810  -30.8430   25.8420 C   0  0  0  0  0  1  0  0  0  0  0  0
  -30.8970  -16.9950   21.0400 C   0  0  0  0  0  2  0  0  0  0  0  0
  -31.0820  -14.5470   20.4280 C   0  0  0  0  0  0  0  0  0  0  0  0
  -30.6630  -12.4570   19.1790 C   0  0  0  0  0  2  0  0  0  0  0  0
  -29.7770  -12.8620   17.9810 C   0  0  0  0  0  2  0  0  0  0  0  0
  -28.2850  -12.8130   18.3720 C   0  0  0  0  0  2  0  0  0  0  0  0
  -27.9920  -13.5360   19.7170 C   0  0  0  0  0  3  0  0  0  0  0  0
  -29.0140  -13.1520   20.8110 C   0  0  0  0  0  2  0  0  0  0  0  0
  -30.3580  -13.4010   20.2660 N   0  0  0  0  0  0  0  0  0  0  0  0
  -32.2160  -14.6810   19.9660 O   0  0  0  0  0  0  0  0  0  0  0  0
  -30.4160  -15.5910   20.9720 N   0  0  0  0  0  0  0  0  0  0  0  0
  -29.4840  -15.4040   21.3070 H   0  0  0  0  0  0  0  0  0  0  0  0
  -25.6300  -14.2450   20.4370 C   0  0  0  0  0  0  0  0  0  0  0  0
  -24.5160  -13.5220   20.7580 C   0  0  0  0  0  0  0  0  0  0  0  0
  -24.8910  -12.1480   20.6580 C   0  0  0  0  0  0  0  0  0  0  0  0
  -26.6200  -13.3160   20.1620 N   0  0  0  0  0  0  0  0  0  0  0  0
  -26.1780  -12.0460   20.3460 N   0  0  0  0  0  0  0  0  0  0  0  0
  -24.0850  -10.9260   20.7800 C   0  0  0  0  0  0  0  0  0  0  0  0
  -24.5150   -9.8250   21.5510 C   0  0  0  0  0  3  0  0  0  0  0  0
  -23.7060   -8.6720   21.6630 C   0  0  0  0  0  3  0  0  0  0  0  0
  -22.4550   -8.6150   21.0040 C   0  0  0  0  0  0  0  0  0  0  0  0
  -22.0450   -9.7070   20.2200 C   0  0  0  0  0  3  0  0  0  0  0  0
  -22.8510  -10.8500   20.1050 C   0  0  0  0  0  3  0  0  0  0  0  0
  -21.6180   -7.5270   21.0360 O   0  0  0  0  0  0  0  0  0  0  0  0
  -21.6980   -6.5850   22.0320 C   0  0  0  0  0  0  0  0  0  0  0  0
  -21.6000   -6.9380   23.3970 C   0  0  0  0  0  3  0  0  0  0  0  0
  -21.6150   -5.9330   24.3840 C   0  0  0  0  0  3  0  0  0  0  0  0
  -21.7220   -4.5790   24.0100 C   0  0  0  0  0  0  0  0  0  0  0  0
  -21.8160   -4.2280   22.6530 C   0  0  0  0  0  3  0  0  0  0  0  0
  -21.8000   -5.2300   21.6660 C   0  0  0  0  0  0  0  0  0  0  0  0
  -21.8710   -4.8830   20.3570 F   0  0  0  0  0  0  0  0  0  0  0  0
  -21.7300   -3.6140   24.9590 F   0  0  0  0  0  0  0  0  0  0  0  0
  -23.1500  -14.0780   21.0500 C   0  0  0  0  0  0  0  0  0  0  0  0
  -22.3970  -13.4180   21.9250 N   0  0  0  0  0  0  0  0  0  0  0  0
  -22.7650  -15.1280   20.5430 O   0  0  0  0  0  0  0  0  0  0  0  0
  -22.7120  -12.5540   22.3410 H   0  0  0  0  0  0  0  0  0  0  0  0
  -21.4910  -13.7850   22.1800 H   0  0  0  0  0  0  0  0  0  0  0  0
  -25.8750  -15.6110   20.3350 N   0  0  0  0  0  0  0  0  0  0  0  0
  -25.1430  -16.2930   20.5080 H   0  0  0  0  0  0  0  0  0  0  0  0
  -26.7230  -16.0340   19.9770 H   0  0  0  0  0  0  0  0  0  0  0  0
  1  2  1  0
  2 56  1  0
  3  4  2  0
  3  5  1  0
  4  6  1  0
  5  1  2  0
  6  2  2  0
  7  3  1  0
  8  9  1  0
  9  7  1  0
 10  4  1  0
 10 11  2  0
 13 11  1  0
 13 12  1  0
 14 15  1  0
 14 13  1  0
 15 17  1  0
 16 27  2  0
 17 22  1  0
 18 26  1  0
 18 28  1  0
 19 25  1  0
 19 21  1  0
 20 26  1  0
 21 20  1  0
 22 21  2  0
 23 24  1  0
 23 17  2  0
 24 19  2  0
 25 18  1  0
 26 16  1  0
 28 30  2  0
 29 28  1  0
 31 29  1  0
 32 41  2  0
 32 37  1  0
 33 29  1  0
 33 37  1  0
 34 33  1  0
 35 36  1  0
 35 34  1  0
 36 32  1  0
 37 38  2  0
 38 39  1  0
 40 39  2  0
 41 40  1  0
 42 16  1  0
 42 43  1  0
 42 52  1  0
 43 46  1  0
 44 43  1  0
 44 48  1  0
 45 44  2  0
 48 47  1  0
 48 50  1  0
 50 51  1  0
 50 49  1  0
 52 55  1  1
 52 53  1  0
 54 52  1  0
 57 65  1  0
 58 63  1  0
 59 60  1  0
 59 58  1  0
 61 60  1  0
 61 70  1  0
 61 62  1  0
 63 57  1  0
 63 62  1  0
 64 57  2  0
 65 56  1  0
 65 66  1  0
 67 68  2  0
 68 87  1  0
 69 68  1  0
 69 72  1  0
 70 71  1  0
 70 67  1  0
 71 69  2  0
 72 73  1  0
 73 74  2  0
 75 78  1  0
 75 74  1  0
 76 75  2  0
 77 76  1  0
 77 72  2  0
 78 79  1  0
 79 80  1  0
 80 81  2  0
 82 81  1  0
 82 86  1  0
 83 82  2  0
 84 79  2  0
 84 83  1  0
 85 84  1  0
 87 88  1  0
 88 91  1  0
 88 90  1  0
 89 87  2  0
 92 67  1  0
 92 93  1  0
 94 92  1  0
M  ISO  4  14 101  15 101  57 100  65 100
M  END
>  <TORSDO>  (74) 
F 23

>  <SCORE>  (74) 
-10.119

>  <name>  (74) 
73

>  <ligand_id>  (74) 
73

>  <original_smiles>  (74) 
[H]c1nc(C([H])([H])C([H])([H])C([H])([H])[H])c(C([H])([H])C([H])([H])C([H])(C([H])([H])[H])C([H])([H])Oc2c([H])c([H])c3c(c2[H])C([H])([H])N(C(=O)C([H])(N([H])C(=O)C([H])(N([H])C([H])([H])[H])C([H])([H])[H])C(C([H])([H])[H])(C([H])([H])[H])C([H])([H])[H])C([H])(C(=O)N([H])C2([H])c4c([H])c([H])c([H])c([H])c4C([H])([H])C([H])([H])C2([H])[H])C3([H])[H])nc1C([H])([H])N([H])C(=O)N1C([H])([H])C([H])([H])C([H])([H])C([H])(n2nc(-c3c([H])c([H])c(Oc4c([H])c([H])c(F)c([H])c4F)c([H])c3[H])c(C(=O)N([H])[H])c2N([H])[H])C1([H])[H]

>  <smiles>  (74) 
[H]c1nc(C([H])([H])C([H])([H])C([H])([H])[H])c(C([H])([H])C([H])([H])C([H])(C([H])([H])[H])C([H])([H])Oc2c([H])c([H])c3c(c2[H])C([H])([H])N(C(=O)C([H])(N([H])C(=O)C([H])(N([H])C([H])([H])[H])C([H])([H])[H])C(C([H])([H])[H])(C([H])([H])[H])C([H])([H])[H])C([H])(C(=O)N([H])C2([H])c4c([H])c([H])c([H])c([H])c4C([H])([H])C([H])([H])C2([H])[H])C3([H])[H])nc1C([H])([H])N([H])C(=O)N1C([H])([H])C([H])([H])C([H])([H])C([H])(n2nc(-c3c([H])c([H])c(Oc4c([H])c([H])c(F)c([H])c4F)c([H])c3[H])c(C(=O)N([H])[H])c2N([H])[H])C1([H])[H]

$$$$
74:0:0
     RDKit          3D

 94102  0  0  1  0  0  0  0  0999 V2000
  -29.9800  -18.8770   20.5570 C   0  0  0  0  0  3  0  0  0  0  0  0
  -28.2900  -20.0240   19.7160 C   0  0  0  0  0  3  0  0  0  0  0  0
  -29.0910  -17.9280   20.0660 C   0  0  0  0  0  0  0  0  0  0  0  0
  -27.9780  -18.7010   19.5450 C   0  0  0  0  0  0  0  0  0  0  0  0
  -29.4990  -20.1760   20.3430 N   0  0  0  0  0  0  0  0  0  0  0  0
  -26.8630  -18.4610   17.3340 C   0  0  0  0  0  1  0  0  0  0  0  0
  -25.5290  -19.2800   19.2750 C   0  0  0  0  0  1  0  0  0  0  0  0
  -26.1850  -16.8840   19.2050 C   0  0  0  0  0  1  0  0  0  0  0  0
  -26.6630  -18.3060   18.8550 C   0  0  2  0  0  0  0  0  0  0  0  0
  -29.2460  -16.3700   20.0370 C   0  0  0  0  0  2  0  0  0  0  0  0
  -31.1490  -14.5510   19.9060 C   0  0  0  0  0  0  0  0  0  0  0  0
  -30.9510  -12.0990   19.6100 C   0  0  0  0  0  2  0  0  0  0  0  0
  -30.0790  -11.7540   18.3880 C   0  0  0  0  0  2  0  0  0  0  0  0
  -28.6030  -11.6560   18.8110 C   0  0  0  0  0  2  0  0  0  0  0  0
  -28.1480  -12.8680   19.6590 C   0  0  0  0  0  3  0  0  0  0  0  0
  -29.1570  -13.2000   20.7840 C   0  0  0  0  0  2  0  0  0  0  0  0
  -30.4730  -13.3860   20.1650 N   0  0  0  0  0  0  0  0  0  0  0  0
  -32.3070  -14.5210   19.4920 O   0  0  0  0  0  0  0  0  0  0  0  0
  -30.6080  -15.7980   20.0520 N   0  0  0  0  0  0  0  0  0  0  0  0
  -31.3140  -16.5110   19.9490 H   0  0  0  0  0  0  0  0  0  0  0  0
  -25.8360  -13.6440   20.4510 C   0  0  0  0  0  0  0  0  0  0  0  0
  -24.7290  -12.9640   20.8660 C   0  0  0  0  0  0  0  0  0  0  0  0
  -25.0700  -11.5800   20.7840 C   0  0  0  0  0  0  0  0  0  0  0  0
  -26.7990  -12.6870   20.1800 N   0  0  0  0  0  0  0  0  0  0  0  0
  -26.3430  -11.4340   20.4310 N   0  0  0  0  0  0  0  0  0  0  0  0
  -24.2380  -10.3870   20.9540 C   0  0  0  0  0  0  0  0  0  0  0  0
  -24.6290   -9.3300   21.8040 C   0  0  0  0  0  3  0  0  0  0  0  0
  -23.8020   -8.1980   21.9630 C   0  0  0  0  0  3  0  0  0  0  0  0
  -22.5690   -8.1200   21.2710 C   0  0  0  0  0  0  0  0  0  0  0  0
  -22.1960   -9.1640   20.4050 C   0  0  0  0  0  3  0  0  0  0  0  0
  -23.0230  -10.2880   20.2460 C   0  0  0  0  0  3  0  0  0  0  0  0
  -21.7030   -7.0580   21.3530 O   0  0  0  0  0  0  0  0  0  0  0  0
  -21.6540   -6.2580   22.4660 C   0  0  0  0  0  0  0  0  0  0  0  0
  -21.3150   -6.7720   23.7380 C   0  0  0  0  0  3  0  0  0  0  0  0
  -21.2060   -5.9030   24.8420 C   0  0  0  0  0  3  0  0  0  0  0  0
  -21.4260   -4.5230   24.6770 C   0  0  0  0  0  0  0  0  0  0  0  0
  -21.7520   -4.0080   23.4090 C   0  0  0  0  0  3  0  0  0  0  0  0
  -21.8660   -4.8740   22.3060 C   0  0  0  0  0  0  0  0  0  0  0  0
  -22.1670   -4.3710   21.0860 F   0  0  0  0  0  0  0  0  0  0  0  0
  -21.3090   -3.6870   25.7360 F   0  0  0  0  0  0  0  0  0  0  0  0
  -23.3900  -13.5590   21.1970 C   0  0  0  0  0  0  0  0  0  0  0  0
  -22.6420  -12.9280   22.0940 N   0  0  0  0  0  0  0  0  0  0  0  0
  -23.0250  -14.6240   20.6980 O   0  0  0  0  0  0  0  0  0  0  0  0
  -22.9380  -12.0530   22.5030 H   0  0  0  0  0  0  0  0  0  0  0  0
  -21.7520  -13.3240   22.3640 H   0  0  0  0  0  0  0  0  0  0  0  0
  -26.0880  -14.9920   20.2440 N   0  0  0  0  0  0  0  0  0  0  0  0
  -25.3460  -15.6750   20.3360 H   0  0  0  0  0  0  0  0  0  0  0  0
  -26.9220  -15.3680   19.8180 H   0  0  0  0  0  0  0  0  0  0  0  0
  -30.1130  -21.4920   20.7040 C   0  0  0  0  0  2  0  0  0  0  0  0
  -29.1700  -22.7460   20.4950 C   0  0  0  0  0  2  0  0  0  0  0  0
  -30.6290  -24.7590   19.7480 C   0  0  0  0  0  1  0  0  0  0  0  0
  -29.6430  -24.2230   20.8010 C   0  0  0  0  0  3  0  0  0  0  0  0
  -28.4040  -25.1840   20.9340 C   0  0  0  0  0  2  0  0  0  0  0  0
  -28.6190  -26.6180   20.7410 O   0  0  0  0  0  0  0  0  0  0  0  0
  -24.5510  -31.9220   23.3380 C   0  0  0  0  0  0  0  0  0  0  0  0
  -27.4700  -27.3940   20.5990 C   0  0  0  0  0  0  0  0  0  0  0  0
  -23.5000  -30.4830   21.6250 C   0  0  0  0  0  3  0  0  0  0  0  0
  -25.0810  -28.9250   20.3610 C   0  0  0  0  0  0  0  0  0  0  0  0
  -26.0350  -30.8420   21.6420 C   0  0  0  0  0  2  0  0  0  0  0  0
  -26.1820  -29.4540   21.0430 C   0  0  0  0  0  0  0  0  0  0  0  0
  -27.3770  -28.6950   21.1630 C   0  0  0  0  0  3  0  0  0  0  0  0
  -26.3520  -26.9070   19.8860 C   0  0  0  0  0  3  0  0  0  0  0  0
  -25.1610  -27.6490   19.7810 C   0  0  0  0  0  3  0  0  0  0  0  0
  -23.8350  -29.7800   20.2840 C   0  0  0  0  0  2  0  0  0  0  0  0
  -24.7080  -31.1010   22.2620 N   0  0  0  0  0  0  0  0  0  0  0  0
  -23.4250  -32.1940   23.7790 O   0  0  0  0  0  0  0  0  0  0  0  0
  -22.7700  -29.4760   22.5430 C   0  0  0  0  0  0  0  0  0  0  0  0
  -21.4480  -29.3350   22.3510 N   0  0  0  0  0  0  0  0  0  0  0  0
  -23.3930  -28.8260   23.3850 O   0  0  0  0  0  0  0  0  0  0  0  0
  -21.0060  -29.9070   21.6440 H   0  0  0  0  0  0  0  0  0  0  0  0
  -18.0090  -28.3030   22.7570 C   0  0  0  0  0  0  0  0  0  0  0  0
  -20.5710  -28.4140   23.0760 C   0  0  0  0  0  3  0  0  0  0  0  0
  -20.6080  -27.0000   22.4520 C   0  0  0  0  0  2  0  0  0  0  0  0
  -19.5110  -26.7740   21.4080 C   0  0  0  0  0  2  0  0  0  0  0  0
  -18.1270  -26.9710   22.0340 C   0  0  0  0  0  2  0  0  0  0  0  0
  -19.1590  -28.9880   23.2320 C   0  0  0  0  0  0  0  0  0  0  0  0
  -18.9980  -30.2380   23.8680 C   0  0  0  0  0  3  0  0  0  0  0  0
  -17.7210  -30.8030   24.0320 C   0  0  0  0  0  3  0  0  0  0  0  0
  -16.5830  -30.1150   23.5730 C   0  0  0  0  0  3  0  0  0  0  0  0
  -16.7290  -28.8670   22.9420 C   0  0  0  0  0  3  0  0  0  0  0  0
  -25.7740  -32.5760   24.0520 C   0  0  0  0  0  3  0  0  0  0  0  0
  -25.4490  -33.9900   24.2840 N   0  0  0  0  0  0  0  0  0  0  0  0
  -25.8440  -35.0000   23.4970 C   0  0  0  0  0  0  0  0  0  0  0  0
  -26.5900  -34.8400   22.5260 O   0  0  0  0  0  0  0  0  0  0  0  0
  -24.7960  -34.1870   25.0270 H   0  0  0  0  0  0  0  0  0  0  0  0
  -24.1420  -36.7660   22.9330 C   0  0  0  0  0  1  0  0  0  0  0  0
  -25.3300  -36.4120   23.8430 C   0  0  0  0  0  3  0  0  0  0  0  0
  -27.4060  -37.3540   24.7530 C   0  0  0  0  0  1  0  0  0  0  0  0
  -26.3670  -37.4600   23.7330 N   0  0  0  0  0  0  0  0  0  0  0  0
  -25.9510  -38.3850   23.7980 H   0  0  0  0  0  0  0  0  0  0  0  0
  -26.1590  -31.8610   25.4060 C   0  0  1  0  0  0  0  0  0  0  0  0
  -24.9700  -31.6900   26.3800 C   0  0  0  0  0  1  0  0  0  0  0  0
  -26.7500  -30.4570   25.1350 C   0  0  0  0  0  1  0  0  0  0  0  0
  -27.2570  -32.6710   26.1340 C   0  0  0  0  0  1  0  0  0  0  0  0
  2  5  1  0
  3  1  2  0
  4  2  2  0
  4  3  1  0
  5  1  1  0
  5 49  1  0
  9  6  1  6
  9  8  1  0
  9  7  1  0
  9  4  1  0
 10 19  1  0
 10  3  1  0
 11 19  1  0
 11 17  1  0
 12 17  1  0
 13 14  1  0
 13 12  1  0
 15 14  1  0
 15 24  1  0
 15 16  1  0
 17 16  1  0
 18 11  2  0
 20 19  1  0
 21 22  2  0
 22 41  1  0
 23 22  1  0
 23 26  1  0
 24 25  1  0
 24 21  1  0
 25 23  2  0
 26 27  1  0
 27 28  2  0
 29 32  1  0
 29 28  1  0
 30 29  2  0
 31 30  1  0
 31 26  2  0
 32 33  1  0
 33 34  1  0
 34 35  2  0
 36 35  1  0
 36 40  1  0
 37 36  2  0
 38 33  2  0
 38 37  1  0
 39 38  1  0
 41 42  1  0
 42 45  1  0
 42 44  1  0
 43 41  2  0
 46 47  1  0
 46 21  1  0
 48 46  1  0
 50 49  1  0
 50 52  1  0
 52 51  1  0
 52 53  1  0
 54 53  1  0
 55 66  2  0
 56 54  1  0
 56 61  1  0
 57 65  1  0
 57 67  1  0
 58 60  1  0
 59 65  1  0
 60 61  2  0
 60 59  1  0
 62 56  2  0
 63 62  1  0
 63 58  2  0
 64 58  1  0
 64 57  1  0
 65 55  1  0
 67 69  2  0
 68 67  1  0
 70 68  1  0
 71 80  2  0
 71 76  1  0
 72 68  1  0
 72 76  1  0
 73 72  1  0
 74 75  1  0
 74 73  1  0
 75 71  1  0
 76 77  2  0
 77 78  1  0
 79 78  2  0
 80 79  1  0
 81 55  1  0
 81 82  1  0
 81 91  1  0
 82 85  1  0
 83 87  1  0
 83 82  1  0
 84 83  2  0
 87 86  1  0
 89 90  1  0
 89 87  1  0
 89 88  1  0
 91 94  1  1
 91 92  1  0
 93 91  1  0
M  ISO  4  11 100  19 100  53 101  54 101
M  END
>  <TORSDO>  (75) 
F 22

>  <SCORE>  (75) 
-10.515

>  <name>  (75) 
74

>  <ligand_id>  (75) 
74

>  <original_smiles>  (75) 
[H]c1c([H])c([H])c2c(c1[H])C([H])([H])C([H])([H])C([H])([H])C2([H])N([H])C(=O)C1([H])N(C(=O)C([H])(N([H])C(=O)C([H])(N([H])C([H])([H])[H])C([H])([H])[H])C(C([H])([H])[H])(C([H])([H])[H])C([H])([H])[H])C([H])([H])c2c([H])c(OC([H])([H])C([H])(C([H])([H])[H])C([H])([H])C([H])([H])n3c([H])c(C([H])([H])N([H])C(=O)N4C([H])([H])C([H])([H])C([H])([H])C([H])(n5nc(-c6c([H])c([H])c(Oc7c([H])c([H])c(F)c([H])c7F)c([H])c6[H])c(C(=O)N([H])[H])c5N([H])[H])C4([H])[H])c(C(C([H])([H])[H])(C([H])([H])[H])C([H])([H])[H])c3[H])c([H])c([H])c2C1([H])[H]

>  <smiles>  (75) 
[H]c1c([H])c([H])c2c(c1[H])C([H])([H])C([H])([H])C([H])([H])C2([H])N([H])C(=O)C1([H])N(C(=O)C([H])(N([H])C(=O)C([H])(N([H])C([H])([H])[H])C([H])([H])[H])C(C([H])([H])[H])(C([H])([H])[H])C([H])([H])[H])C([H])([H])c2c([H])c(OC([H])([H])C([H])(C([H])([H])[H])C([H])([H])C([H])([H])n3c([H])c(C([H])([H])N([H])C(=O)N4C([H])([H])C([H])([H])C([H])([H])C([H])(n5nc(-c6c([H])c([H])c(Oc7c([H])c([H])c(F)c([H])c7F)c([H])c6[H])c(C(=O)N([H])[H])c5N([H])[H])C4([H])[H])c(C(C([H])([H])[H])(C([H])([H])[H])C([H])([H])[H])c3[H])c([H])c([H])c2C1([H])[H]

$$$$
75:0:0
     RDKit          3D

 95103  0  0  1  0  0  0  0  0999 V2000
  -27.4740  -21.3740   18.7190 C   0  0  0  0  0  3  0  0  0  0  0  0
  -28.5540  -21.0690   19.5880 C   0  0  0  0  0  0  0  0  0  0  0  0
  -26.9730  -20.4430   17.7810 C   0  0  0  0  0  0  0  0  0  0  0  0
  -29.0760  -19.6900   19.4940 C   0  0  0  0  0  0  0  0  0  0  0  0
  -27.7230  -19.2600   17.6130 C   0  0  0  0  0  0  0  0  0  0  0  0
  -27.5510  -18.3380   16.4130 C   0  0  0  0  0  1  0  0  0  0  0  0
  -28.6760  -18.8850   18.4820 N   0  0  0  0  0  0  0  0  0  0  0  0
  -24.8200  -21.9020   17.4260 C   0  0  0  0  0  1  0  0  0  0  0  0
  -24.7180  -19.4280   17.2720 C   0  0  0  0  0  1  0  0  0  0  0  0
  -25.6320  -20.6500   17.0340 C   0  0  0  0  0  3  0  0  0  0  0  0
  -28.9070  -22.2420   20.6050 C   0  0  0  0  0  2  0  0  0  0  0  0
  -29.0790  -23.7880   20.0760 C   0  0  0  0  0  3  0  0  0  0  0  0
  -28.3610  -25.0610   20.8010 C   0  0  0  0  0  3  0  0  0  0  0  0
  -28.6170  -26.5150   20.4300 O   0  0  0  0  0  0  0  0  0  0  0  0
  -24.6340  -31.9130   23.2930 C   0  0  0  0  0  0  0  0  0  0  0  0
  -27.5170  -27.4030   20.3530 C   0  0  0  0  0  0  0  0  0  0  0  0
  -23.5550  -30.4830   21.5980 C   0  0  0  0  0  3  0  0  0  0  0  0
  -25.1240  -28.9870   20.2290 C   0  0  0  0  0  0  0  0  0  0  0  0
  -26.0980  -30.8700   21.5350 C   0  0  0  0  0  2  0  0  0  0  0  0
  -26.2540  -29.5000   20.8800 C   0  0  0  0  0  0  0  0  0  0  0  0
  -27.4610  -28.7230   20.9240 C   0  0  0  0  0  3  0  0  0  0  0  0
  -26.3690  -26.9740   19.6580 C   0  0  0  0  0  3  0  0  0  0  0  0
  -25.1880  -27.7350   19.6060 C   0  0  0  0  0  3  0  0  0  0  0  0
  -23.8570  -29.8240   20.2260 C   0  0  0  0  0  2  0  0  0  0  0  0
  -24.7800  -31.1060   22.2000 N   0  0  0  0  0  0  0  0  0  0  0  0
  -23.5160  -32.1540   23.7740 O   0  0  0  0  0  0  0  0  0  0  0  0
  -22.8840  -29.4390   22.5220 C   0  0  0  0  0  0  0  0  0  0  0  0
  -21.5680  -29.2280   22.3470 N   0  0  0  0  0  0  0  0  0  0  0  0
  -23.5490  -28.8200   23.3560 O   0  0  0  0  0  0  0  0  0  0  0  0
  -21.0900  -29.7790   21.6480 H   0  0  0  0  0  0  0  0  0  0  0  0
  -18.1990  -27.9820   22.7710 C   0  0  0  0  0  0  0  0  0  0  0  0
  -20.7500  -28.2630   23.0820 C   0  0  0  0  0  3  0  0  0  0  0  0
  -20.8750  -26.8500   22.4690 C   0  0  0  0  0  2  0  0  0  0  0  0
  -19.7920  -26.5420   21.4290 C   0  0  0  0  0  2  0  0  0  0  0  0
  -18.4000  -26.6530   22.0590 C   0  0  0  0  0  2  0  0  0  0  0  0
  -19.3030  -28.7430   23.2350 C   0  0  0  0  0  0  0  0  0  0  0  0
  -19.0650  -29.9840   23.8630 C   0  0  0  0  0  3  0  0  0  0  0  0
  -17.7540  -30.4700   24.0240 C   0  0  0  0  0  3  0  0  0  0  0  0
  -16.6610  -29.7050   23.5750 C   0  0  0  0  0  3  0  0  0  0  0  0
  -16.8850  -28.4610   22.9580 C   0  0  0  0  0  3  0  0  0  0  0  0
  -25.8600  -32.5910   23.9740 C   0  0  0  0  0  3  0  0  0  0  0  0
  -25.4970  -33.9890   24.2460 N   0  0  0  0  0  0  0  0  0  0  0  0
  -25.8350  -35.0330   23.4760 C   0  0  0  0  0  0  0  0  0  0  0  0
  -26.5540  -34.9250   22.4790 O   0  0  0  0  0  0  0  0  0  0  0  0
  -24.8580  -34.1500   25.0120 H   0  0  0  0  0  0  0  0  0  0  0  0
  -24.0690  -36.7660   23.0100 C   0  0  0  0  0  1  0  0  0  0  0  0
  -25.2890  -36.4160   23.8770 C   0  0  0  0  0  3  0  0  0  0  0  0
  -27.3530  -37.3940   24.7780 C   0  0  0  0  0  1  0  0  0  0  0  0
  -26.2930  -37.4970   23.7790 N   0  0  0  0  0  0  0  0  0  0  0  0
  -25.8510  -38.4050   23.8810 H   0  0  0  0  0  0  0  0  0  0  0  0
  -26.3140  -31.8670   25.3020 C   0  0  1  0  0  0  0  0  0  0  0  0
  -25.1580  -31.6300   26.3010 C   0  0  0  0  0  1  0  0  0  0  0  0
  -26.9530  -30.4930   24.9920 C   0  0  0  0  0  1  0  0  0  0  0  0
  -27.3930  -32.7160   26.0200 C   0  0  0  0  0  1  0  0  0  0  0  0
  -29.9470  -18.8370   20.5110 C   0  0  0  0  0  2  0  0  0  0  0  0
  -32.2390  -17.6440   20.7600 C   0  0  0  0  0  1  0  0  0  0  0  0
  -30.8740  -17.5670   20.0260 C   0  0  0  0  0  3  0  0  0  0  0  0
  -31.0710  -14.9430   19.8720 C   0  0  0  0  0  0  0  0  0  0  0  0
  -30.7780  -12.6400   18.9630 C   0  0  0  0  0  2  0  0  0  0  0  0
  -29.7990  -12.6760   17.7690 C   0  0  0  0  0  2  0  0  0  0  0  0
  -28.3430  -12.5560   18.2550 C   0  0  0  0  0  2  0  0  0  0  0  0
  -28.0280  -13.4930   19.4530 C   0  0  0  0  0  3  0  0  0  0  0  0
  -29.1270  -13.4420   20.5380 C   0  0  0  0  0  2  0  0  0  0  0  0
  -30.4020  -13.7400   19.8810 N   0  0  0  0  0  0  0  0  0  0  0  0
  -32.2300  -14.9880   19.4540 O   0  0  0  0  0  0  0  0  0  0  0  0
  -30.3810  -16.1140   20.1570 N   0  0  0  0  0  0  0  0  0  0  0  0
  -29.4260  -15.9910   20.4530 H   0  0  0  0  0  0  0  0  0  0  0  0
  -25.6930  -14.1430   20.2940 C   0  0  0  0  0  0  0  0  0  0  0  0
  -24.6220  -13.3970   20.6930 C   0  0  0  0  0  0  0  0  0  0  0  0
  -25.0370  -12.0310   20.6190 C   0  0  0  0  0  0  0  0  0  0  0  0
  -26.6970  -13.2360   19.9950 N   0  0  0  0  0  0  0  0  0  0  0  0
  -26.3140  -11.9580   20.2550 N   0  0  0  0  0  0  0  0  0  0  0  0
  -24.2770  -10.7890   20.8160 C   0  0  0  0  0  0  0  0  0  0  0  0
  -24.6580   -9.8340   21.7830 C   0  0  0  0  0  3  0  0  0  0  0  0
  -23.9010   -8.6580   21.9660 C   0  0  0  0  0  3  0  0  0  0  0  0
  -22.7440   -8.4290   21.1830 C   0  0  0  0  0  0  0  0  0  0  0  0
  -22.3830   -9.3700   20.2040 C   0  0  0  0  0  3  0  0  0  0  0  0
  -23.1410  -10.5390   20.0190 C   0  0  0  0  0  3  0  0  0  0  0  0
  -21.9640   -7.3020   21.2720 O   0  0  0  0  0  0  0  0  0  0  0  0
  -21.7860   -6.6430   22.4630 C   0  0  0  0  0  0  0  0  0  0  0  0
  -21.2130   -7.2760   23.5860 C   0  0  0  0  0  3  0  0  0  0  0  0
  -20.9820   -6.5430   24.7670 C   0  0  0  0  0  3  0  0  0  0  0  0
  -21.3210   -5.1770   24.8260 C   0  0  0  0  0  0  0  0  0  0  0  0
  -21.8870   -4.5420   23.7060 C   0  0  0  0  0  3  0  0  0  0  0  0
  -22.1180   -5.2750   22.5270 C   0  0  0  0  0  0  0  0  0  0  0  0
  -22.6450   -4.6540   21.4440 F   0  0  0  0  0  0  0  0  0  0  0  0
  -21.0940   -4.4680   25.9570 F   0  0  0  0  0  0  0  0  0  0  0  0
  -23.2520  -13.9120   21.0340 C   0  0  0  0  0  0  0  0  0  0  0  0
  -22.5480  -13.2350   21.9300 N   0  0  0  0  0  0  0  0  0  0  0  0
  -22.8210  -14.9530   20.5390 O   0  0  0  0  0  0  0  0  0  0  0  0
  -22.9130  -12.3900   22.3470 H   0  0  0  0  0  0  0  0  0  0  0  0
  -21.6330  -13.5630   22.2070 H   0  0  0  0  0  0  0  0  0  0  0  0
  -25.8980  -15.5130   20.1330 N   0  0  0  0  0  0  0  0  0  0  0  0
  -25.1550  -16.1860   20.2810 H   0  0  0  0  0  0  0  0  0  0  0  0
  -26.7300  -15.9190   19.7210 H   0  0  0  0  0  0  0  0  0  0  0  0
  1  2  1  0
  2 11  1  0
  3  1  2  0
  4  2  2  0
  4 55  1  0
  5  3  1  0
  5  7  2  0
  6  5  1  0
  7  4  1  0
 10  9  1  0
 10  8  1  0
 10  3  1  0
 12 11  1  0
 12 13  2  0
 14 13  1  0
 15 26  2  0
 16 14  1  0
 16 21  1  0
 17 25  1  0
 17 27  1  0
 18 20  1  0
 19 25  1  0
 20 21  2  0
 20 19  1  0
 22 16  2  0
 23 22  1  0
 23 18  2  0
 24 18  1  0
 24 17  1  0
 25 15  1  0
 27 29  2  0
 28 27  1  0
 30 28  1  0
 31 40  2  0
 31 36  1  0
 32 28  1  0
 32 36  1  0
 33 32  1  0
 34 35  1  0
 34 33  1  0
 35 31  1  0
 36 37  2  0
 37 38  1  0
 39 38  2  0
 40 39  1  0
 41 15  1  0
 41 42  1  0
 41 51  1  0
 42 45  1  0
 43 47  1  0
 43 42  1  0
 44 43  2  0
 47 46  1  0
 49 47  1  0
 49 50  1  0
 49 48  1  0
 51 54  1  1
 51 52  1  0
 53 51  1  0
 57 66  1  0
 57 55  1  0
 57 56  1  0
 58 64  1  0
 58 66  1  0
 59 64  1  0
 60 61  1  0
 60 59  1  0
 62 61  1  0
 62 71  1  0
 62 63  1  0
 64 63  1  0
 65 58  2  0
 66 67  1  0
 68 69  2  0
 69 88  1  0
 70 69  1  0
 70 73  1  0
 71 72  1  0
 71 68  1  0
 72 70  2  0
 73 74  1  0
 74 75  2  0
 76 79  1  0
 76 75  1  0
 77 76  2  0
 78 77  1  0
 78 73  2  0
 79 80  1  0
 80 85  2  0
 80 81  1  0
 81 82  2  0
 82 83  1  0
 83 87  1  0
 84 83  2  0
 85 84  1  0
 86 85  1  0
 88 89  1  0
 89 92  1  0
 89 91  1  0
 90 88  2  0
 93 94  1  0
 93 68  1  0
 95 93  1  0
M  ISO  4  13 101  14 101  58 100  66 100
M  END
>  <TORSDO>  (76) 
F 22

>  <SCORE>  (76) 
-11.507

>  <name>  (76) 
75

>  <ligand_id>  (76) 
75

>  <original_smiles>  (76) 
[H]c1c([H])c([H])c2c(c1[H])C([H])([H])C([H])([H])C([H])([H])C2([H])N([H])C(=O)C1([H])N(C(=O)C([H])(N([H])C(=O)C([H])(N([H])C([H])([H])[H])C([H])([H])[H])C(C([H])([H])[H])(C([H])([H])[H])C([H])([H])[H])C([H])([H])c2c([H])c(OC([H])([H])C([H])([H])C([H])([H])c3c(C([H])([H])C([H])(N([H])C(=O)N4C([H])([H])C([H])([H])C([H])([H])C([H])(n5nc(-c6c([H])c([H])c(Oc7c([H])c([H])c(F)c([H])c7F)c([H])c6[H])c(C(=O)N([H])[H])c5N([H])[H])C4([H])[H])C([H])([H])[H])nc(C([H])([H])[H])c(C([H])(C([H])([H])[H])C([H])([H])[H])c3[H])c([H])c([H])c2C1([H])[H]

>  <smiles>  (76) 
[H]c1c([H])c([H])c2c(c1[H])C([H])([H])C([H])([H])C([H])([H])C2([H])N([H])C(=O)C1([H])N(C(=O)C([H])(N([H])C(=O)C([H])(N([H])C([H])([H])[H])C([H])([H])[H])C(C([H])([H])[H])(C([H])([H])[H])C([H])([H])[H])C([H])([H])c2c([H])c(OC([H])([H])C([H])([H])C([H])([H])c3c(C([H])([H])C([H])(N([H])C(=O)N4C([H])([H])C([H])([H])C([H])([H])C([H])(n5nc(-c6c([H])c([H])c(Oc7c([H])c([H])c(F)c([H])c7F)c([H])c6[H])c(C(=O)N([H])[H])c5N([H])[H])C4([H])[H])C([H])([H])[H])nc(C([H])([H])[H])c(C([H])(C([H])([H])[H])C([H])([H])[H])c3[H])c([H])c([H])c2C1([H])[H]

$$$$
76:0:0
     RDKit          3D

 94102  0  0  1  0  0  0  0  0999 V2000
  -29.9050  -21.7720   22.1570 C   0  0  0  0  0  3  0  0  0  0  0  0
  -29.7180  -21.4440   20.8350 C   0  0  0  0  0  0  0  0  0  0  0  0
  -30.2160  -20.0430   20.7890 C   0  0  0  0  0  0  0  0  0  0  0  0
  -30.5700  -19.6620   22.0070 N   0  0  0  0  0  0  0  0  0  0  0  0
  -30.3740  -20.6840   22.8450 N   0  0  0  0  0  0  0  0  0  0  0  0
  -30.4290  -19.2750   18.3520 C   0  0  0  0  0  1  0  0  0  0  0  0
  -30.2700  -18.8140   19.8040 C   0  0  0  0  0  3  0  0  0  0  0  0
  -31.3260  -17.6340   20.1550 C   0  0  0  0  0  2  0  0  0  0  0  0
  -31.6580  -15.0510   19.9230 C   0  0  0  0  0  0  0  0  0  0  0  0
  -31.4190  -12.6950   19.1430 C   0  0  0  0  0  2  0  0  0  0  0  0
  -30.4720  -12.6580   17.9230 C   0  0  0  0  0  2  0  0  0  0  0  0
  -29.0000  -12.5670   18.3750 C   0  0  0  0  0  2  0  0  0  0  0  0
  -28.6500  -13.5900   19.4910 C   0  0  0  0  0  3  0  0  0  0  0  0
  -29.7120  -13.5870   20.6110 C   0  0  0  0  0  2  0  0  0  0  0  0
  -31.0120  -13.8420   19.9800 N   0  0  0  0  0  0  0  0  0  0  0  0
  -32.8410  -15.1220   19.5800 O   0  0  0  0  0  0  0  0  0  0  0  0
  -30.8930  -16.1820   20.0750 N   0  0  0  0  0  0  0  0  0  0  0  0
  -29.9200  -16.0070   20.2750 H   0  0  0  0  0  0  0  0  0  0  0  0
  -26.3520  -14.3270   20.3640 C   0  0  0  0  0  0  0  0  0  0  0  0
  -25.2340  -13.6210   20.7180 C   0  0  0  0  0  0  0  0  0  0  0  0
  -25.5720  -12.2410   20.5580 C   0  0  0  0  0  0  0  0  0  0  0  0
  -27.3030  -13.3820   20.0140 N   0  0  0  0  0  0  0  0  0  0  0  0
  -26.8420  -12.1170   20.1910 N   0  0  0  0  0  0  0  0  0  0  0  0
  -24.7420  -11.0350   20.6750 C   0  0  0  0  0  0  0  0  0  0  0  0
  -25.0520  -10.0120   21.6000 C   0  0  0  0  0  3  0  0  0  0  0  0
  -24.2280   -8.8720   21.7090 C   0  0  0  0  0  3  0  0  0  0  0  0
  -23.0780   -8.7470   20.8930 C   0  0  0  0  0  0  0  0  0  0  0  0
  -22.7870   -9.7570   19.9600 C   0  0  0  0  0  3  0  0  0  0  0  0
  -23.6110  -10.8890   19.8490 C   0  0  0  0  0  3  0  0  0  0  0  0
  -22.2360   -7.6610   20.9100 O   0  0  0  0  0  0  0  0  0  0  0  0
  -21.9620   -6.9830   22.0700 C   0  0  0  0  0  0  0  0  0  0  0  0
  -21.3590   -7.6160   23.1800 C   0  0  0  0  0  3  0  0  0  0  0  0
  -21.0310   -6.8650   24.3270 C   0  0  0  0  0  3  0  0  0  0  0  0
  -21.2940   -5.4820   24.3610 C   0  0  0  0  0  0  0  0  0  0  0  0
  -21.8890   -4.8490   23.2560 C   0  0  0  0  0  3  0  0  0  0  0  0
  -22.2180   -5.5980   22.1120 C   0  0  0  0  0  0  0  0  0  0  0  0
  -22.7710   -4.9790   21.0410 F   0  0  0  0  0  0  0  0  0  0  0  0
  -20.9730   -4.7590   25.4600 F   0  0  0  0  0  0  0  0  0  0  0  0
  -23.8960  -14.1920   21.0870 C   0  0  0  0  0  0  0  0  0  0  0  0
  -23.1480  -13.5010   21.9400 N   0  0  0  0  0  0  0  0  0  0  0  0
  -23.5260  -15.2840   20.6560 O   0  0  0  0  0  0  0  0  0  0  0  0
  -23.4610  -12.6160   22.3090 H   0  0  0  0  0  0  0  0  0  0  0  0
  -22.2500  -13.8650   22.2290 H   0  0  0  0  0  0  0  0  0  0  0  0
  -26.6310  -15.6880   20.2850 N   0  0  0  0  0  0  0  0  0  0  0  0
  -25.9260  -16.3930   20.4760 H   0  0  0  0  0  0  0  0  0  0  0  0
  -27.4900  -16.0760   19.9170 H   0  0  0  0  0  0  0  0  0  0  0  0
  -29.0360  -22.4720   19.8510 C   0  0  0  0  0  2  0  0  0  0  0  0
  -29.0130  -24.0410   20.2780 C   0  0  0  0  0  3  0  0  0  0  0  0
  -28.2040  -25.1150   19.4010 C   0  0  0  0  0  3  0  0  0  0  0  0
  -28.3010  -26.5870   19.6840 O   0  0  0  0  0  0  0  0  0  0  0  0
  -24.7080  -31.7990   23.1660 C   0  0  0  0  0  0  0  0  0  0  0  0
  -27.1630  -27.4230   19.7140 C   0  0  0  0  0  0  0  0  0  0  0  0
  -23.4060  -30.4360   21.5760 C   0  0  0  0  0  3  0  0  0  0  0  0
  -24.7690  -28.9920   19.9610 C   0  0  0  0  0  0  0  0  0  0  0  0
  -25.9160  -30.8280   21.1960 C   0  0  0  0  0  2  0  0  0  0  0  0
  -25.9730  -29.4810   20.4820 C   0  0  0  0  0  0  0  0  0  0  0  0
  -27.1700  -28.7090   20.3490 C   0  0  0  0  0  3  0  0  0  0  0  0
  -25.9340  -27.0150   19.1430 C   0  0  0  0  0  3  0  0  0  0  0  0
  -24.7530  -27.7670   19.2800 C   0  0  0  0  0  3  0  0  0  0  0  0
  -23.5170  -29.8260   20.1530 C   0  0  0  0  0  2  0  0  0  0  0  0
  -24.7010  -31.0370   22.0340 N   0  0  0  0  0  0  0  0  0  0  0  0
  -23.6680  -32.0220   23.8020 O   0  0  0  0  0  0  0  0  0  0  0  0
  -22.8540  -29.3590   22.5420 C   0  0  0  0  0  0  0  0  0  0  0  0
  -21.5590  -29.0300   22.4050 N   0  0  0  0  0  0  0  0  0  0  0  0
  -23.5920  -28.8240   23.3750 O   0  0  0  0  0  0  0  0  0  0  0  0
  -21.0180  -29.5190   21.7060 H   0  0  0  0  0  0  0  0  0  0  0  0
  -18.3660  -27.3800   22.8130 C   0  0  0  0  0  0  0  0  0  0  0  0
  -20.8450  -28.0120   23.1790 C   0  0  0  0  0  3  0  0  0  0  0  0
  -21.1760  -26.5890   22.6730 C   0  0  0  0  0  2  0  0  0  0  0  0
  -20.1820  -26.0740   21.6280 C   0  0  0  0  0  2  0  0  0  0  0  0
  -18.7640  -26.0440   22.2060 C   0  0  0  0  0  2  0  0  0  0  0  0
  -19.3430  -28.3110   23.2560 C   0  0  0  0  0  0  0  0  0  0  0  0
  -18.9210  -29.5500   23.7820 C   0  0  0  0  0  3  0  0  0  0  0  0
  -17.5520  -29.8640   23.8740 C   0  0  0  0  0  3  0  0  0  0  0  0
  -16.5890  -28.9350   23.4490 C   0  0  0  0  0  3  0  0  0  0  0  0
  -16.9940  -27.6940   22.9250 C   0  0  0  0  0  3  0  0  0  0  0  0
  -26.0220  -32.4450   23.7060 C   0  0  0  0  0  3  0  0  0  0  0  0
  -25.7030  -33.8220   24.1140 N   0  0  0  0  0  0  0  0  0  0  0  0
  -25.9340  -34.9110   23.3680 C   0  0  0  0  0  0  0  0  0  0  0  0
  -26.5070  -34.8650   22.2770 O   0  0  0  0  0  0  0  0  0  0  0  0
  -25.1830  -33.9300   24.9710 H   0  0  0  0  0  0  0  0  0  0  0  0
  -24.1240  -36.6580   23.2540 C   0  0  0  0  0  1  0  0  0  0  0  0
  -25.4520  -36.2670   23.9220 C   0  0  0  0  0  3  0  0  0  0  0  0
  -27.6230  -37.2050   24.5850 C   0  0  0  0  0  1  0  0  0  0  0  0
  -26.4360  -37.3570   23.7470 N   0  0  0  0  0  0  0  0  0  0  0  0
  -26.0150  -38.2580   23.9560 H   0  0  0  0  0  0  0  0  0  0  0  0
  -26.6610  -31.6450   24.9070 C   0  0  1  0  0  0  0  0  0  0  0  0
  -25.6520  -31.2870   26.0240 C   0  0  0  0  0  1  0  0  0  0  0  0
  -27.2990  -30.3260   24.4120 C   0  0  0  0  0  1  0  0  0  0  0  0
  -27.8040  -32.4760   25.5380 C   0  0  0  0  0  1  0  0  0  0  0  0
  -30.5880  -20.5530   24.2850 C   0  0  0  0  0  2  0  0  0  0  0  0
  -30.2870  -17.9770   24.4590 C   0  0  0  0  0  1  0  0  0  0  0  0
  -31.3850  -19.2660   26.3140 C   0  0  0  0  0  1  0  0  0  0  0  0
  -31.1650  -19.2020   24.7940 C   0  0  0  0  0  3  0  0  0  0  0  0
  1  5  1  0
  2  1  2  0
  3  2  1  0
  3  4  2  0
  4  5  1  0
  5 91  1  0
  7  6  1  0
  7  8  1  0
  7  3  1  0
  9 15  1  0
  9 17  1  0
 10 15  1  0
 11 12  1  0
 11 10  1  0
 13 12  1  0
 13 22  1  0
 13 14  1  0
 15 14  1  0
 16  9  2  0
 17  8  1  0
 17 18  1  0
 19 20  2  0
 20 39  1  0
 21 24  1  0
 21 20  1  0
 22 23  1  0
 22 19  1  0
 23 21  2  0
 24 25  1  0
 25 26  2  0
 27 30  1  0
 27 26  1  0
 28 27  2  0
 29 28  1  0
 29 24  2  0
 30 31  1  0
 31 36  2  0
 31 32  1  0
 32 33  2  0
 33 34  1  0
 34 38  1  0
 35 34  2  0
 36 35  1  0
 37 36  1  0
 39 40  1  0
 40 43  1  0
 40 42  1  0
 41 39  2  0
 44 19  1  0
 44 45  1  0
 46 44  1  0
 47 48  1  0
 47  2  1  0
 49 50  1  0
 49 48  2  0
 50 52  1  0
 51 62  2  0
 52 57  1  0
 53 61  1  0
 53 63  1  0
 54 60  1  0
 54 56  1  0
 55 61  1  0
 56 55  1  0
 57 56  2  0
 58 59  1  0
 58 52  2  0
 59 54  2  0
 60 53  1  0
 61 51  1  0
 63 65  2  0
 64 63  1  0
 66 64  1  0
 67 76  2  0
 67 72  1  0
 68 64  1  0
 68 72  1  0
 69 68  1  0
 70 71  1  0
 70 69  1  0
 71 67  1  0
 72 73  2  0
 73 74  1  0
 75 74  2  0
 76 75  1  0
 77 51  1  0
 77 78  1  0
 77 87  1  0
 78 81  1  0
 79 83  1  0
 79 78  1  0
 80 79  2  0
 83 82  1  0
 85 83  1  0
 85 86  1  0
 85 84  1  0
 87 90  1  1
 87 88  1  0
 89 87  1  0
 91 94  1  0
 92 94  1  0
 94 93  1  0
M  ISO  4   9 100  17 100  49 101  50 101
M  END
>  <TORSDO>  (77) 
F 23

>  <SCORE>  (77) 
-2.263

>  <name>  (77) 
76

>  <ligand_id>  (77) 
76

>  <original_smiles>  (77) 
[H]c1c([H])c([H])c2c(c1[H])C([H])([H])C([H])([H])C([H])([H])C2([H])N([H])C(=O)C1([H])N(C(=O)C([H])(N([H])C(=O)C([H])(N([H])C([H])([H])[H])C([H])([H])[H])C(C([H])([H])[H])(C([H])([H])[H])C([H])([H])[H])C([H])([H])c2c([H])c(OC([H])([H])C([H])([H])C([H])([H])c3c(C([H])(C([H])([H])[H])C([H])([H])N([H])C(=O)N4C([H])([H])C([H])([H])C([H])([H])C([H])(n5nc(-c6c([H])c([H])c(Oc7c([H])c([H])c(F)c([H])c7F)c([H])c6[H])c(C(=O)N([H])[H])c5N([H])[H])C4([H])[H])nn(C([H])([H])C([H])(C([H])([H])[H])C([H])([H])[H])c3[H])c([H])c([H])c2C1([H])[H]

>  <smiles>  (77) 
[H]c1c([H])c([H])c2c(c1[H])C([H])([H])C([H])([H])C([H])([H])C2([H])N([H])C(=O)C1([H])N(C(=O)C([H])(N([H])C(=O)C([H])(N([H])C([H])([H])[H])C([H])([H])[H])C(C([H])([H])[H])(C([H])([H])[H])C([H])([H])[H])C([H])([H])c2c([H])c(OC([H])([H])C([H])([H])C([H])([H])c3c(C([H])(C([H])([H])[H])C([H])([H])N([H])C(=O)N4C([H])([H])C([H])([H])C([H])([H])C([H])(n5nc(-c6c([H])c([H])c(Oc7c([H])c([H])c(F)c([H])c7F)c([H])c6[H])c(C(=O)N([H])[H])c5N([H])[H])C4([H])[H])nn(C([H])([H])C([H])(C([H])([H])[H])C([H])([H])[H])c3[H])c([H])c([H])c2C1([H])[H]

$$$$
77:0:0
     RDKit          3D

 97105  0  0  1  0  0  0  0  0999 V2000
  -30.1200  -19.0020   19.3990 C   0  0  0  0  0  3  0  0  0  0  0  0
  -29.5260  -17.7280   19.5630 C   0  0  0  0  0  0  0  0  0  0  0  0
  -28.0550  -20.0280   19.5380 C   0  0  0  0  0  0  0  0  0  0  0  0
  -27.4490  -18.7500   19.7560 C   0  0  0  0  0  0  0  0  0  0  0  0
  -29.3920  -20.1410   19.3600 N   0  0  0  0  0  0  0  0  0  0  0  0
  -28.1870  -17.6020   19.7350 N   0  0  0  0  0  0  0  0  0  0  0  0
  -30.2100  -15.8730   18.0140 C   0  0  0  0  0  1  0  0  0  0  0  0
  -30.3940  -16.4730   19.4260 C   0  0  0  0  0  3  0  0  0  0  0  0
  -31.0390  -14.4020   20.6230 C   0  0  0  0  0  0  0  0  0  0  0  0
  -30.9820  -12.0500   19.9540 C   0  0  0  0  0  2  0  0  0  0  0  0
  -30.1270  -11.9580   18.6700 C   0  0  0  0  0  2  0  0  0  0  0  0
  -28.6340  -11.8000   19.0170 C   0  0  0  0  0  2  0  0  0  0  0  0
  -28.1440  -12.8130   20.0890 C   0  0  0  0  0  3  0  0  0  0  0  0
  -29.1280  -12.8980   21.2800 C   0  0  0  0  0  2  0  0  0  0  0  0
  -30.4670  -13.1760   20.7450 N   0  0  0  0  0  0  0  0  0  0  0  0
  -32.2320  -14.5590   20.3530 O   0  0  0  0  0  0  0  0  0  0  0  0
  -30.1670  -15.4090   20.4270 N   0  0  0  0  0  0  0  0  0  0  0  0
  -29.2080  -15.2620   20.7020 H   0  0  0  0  0  0  0  0  0  0  0  0
  -25.7130  -13.3730   20.7130 C   0  0  0  0  0  0  0  0  0  0  0  0
  -24.6500  -12.5800   21.0510 C   0  0  0  0  0  0  0  0  0  0  0  0
  -25.1430  -11.2390   21.0530 C   0  0  0  0  0  0  0  0  0  0  0  0
  -26.7850  -12.5130   20.5280 N   0  0  0  0  0  0  0  0  0  0  0  0
  -26.4450  -11.2260   20.7920 N   0  0  0  0  0  0  0  0  0  0  0  0
  -24.4420   -9.9610   21.2300 C   0  0  0  0  0  0  0  0  0  0  0  0
  -24.7910   -9.0610   22.2610 C   0  0  0  0  0  3  0  0  0  0  0  0
  -24.0910   -7.8480   22.4210 C   0  0  0  0  0  3  0  0  0  0  0  0
  -23.0240   -7.5240   21.5480 C   0  0  0  0  0  0  0  0  0  0  0  0
  -22.6970   -8.4100   20.5080 C   0  0  0  0  0  3  0  0  0  0  0  0
  -23.4000   -9.6170   20.3470 C   0  0  0  0  0  3  0  0  0  0  0  0
  -22.3020   -6.3570   21.6120 O   0  0  0  0  0  0  0  0  0  0  0  0
  -22.0260   -5.7450   22.8100 C   0  0  0  0  0  0  0  0  0  0  0  0
  -21.3270   -6.4080   23.8420 C   0  0  0  0  0  3  0  0  0  0  0  0
  -21.0040   -5.7200   25.0280 C   0  0  0  0  0  3  0  0  0  0  0  0
  -21.3700   -4.3700   25.1820 C   0  0  0  0  0  0  0  0  0  0  0  0
  -22.0620   -3.7060   24.1520 C   0  0  0  0  0  3  0  0  0  0  0  0
  -22.3860   -4.3920   22.9690 C   0  0  0  0  0  0  0  0  0  0  0  0
  -23.0330   -3.7420   21.9720 F   0  0  0  0  0  0  0  0  0  0  0  0
  -21.0530   -3.7060   26.3180 F   0  0  0  0  0  0  0  0  0  0  0  0
  -23.2330  -13.0260   21.2670 C   0  0  0  0  0  0  0  0  0  0  0  0
  -22.5080  -12.3610   22.1600 N   0  0  0  0  0  0  0  0  0  0  0  0
  -22.7720  -14.0010   20.6750 O   0  0  0  0  0  0  0  0  0  0  0  0
  -22.8890  -11.5670   22.6550 H   0  0  0  0  0  0  0  0  0  0  0  0
  -21.5580  -12.6450   22.3480 H   0  0  0  0  0  0  0  0  0  0  0  0
  -25.8540  -14.7450   20.5250 N   0  0  0  0  0  0  0  0  0  0  0  0
  -25.0730  -15.3840   20.6130 H   0  0  0  0  0  0  0  0  0  0  0  0
  -26.7080  -15.2070   20.2430 H   0  0  0  0  0  0  0  0  0  0  0  0
  -27.2770  -21.3300   19.2960 C   0  0  0  0  0  2  0  0  0  0  0  0
  -27.7610  -22.5720   20.0920 C   0  0  0  0  0  2  0  0  0  0  0  0
  -27.3410  -23.9130   19.4310 C   0  0  0  0  0  2  0  0  0  0  0  0
  -27.9400  -25.1780   20.0910 C   0  0  0  0  0  2  0  0  0  0  0  0
  -27.8170  -26.3680   19.2990 O   0  0  0  0  0  0  0  0  0  0  0  0
  -24.4010  -31.4150   23.0000 C   0  0  0  0  0  0  0  0  0  0  0  0
  -26.6790  -27.1180   19.4750 C   0  0  0  0  0  0  0  0  0  0  0  0
  -23.0440  -30.1830   21.3360 C   0  0  0  0  0  3  0  0  0  0  0  0
  -24.3510  -28.6970   19.7250 C   0  0  0  0  0  0  0  0  0  0  0  0
  -25.5650  -30.4660   21.0110 C   0  0  0  0  0  2  0  0  0  0  0  0
  -25.5580  -29.1400   20.2790 C   0  0  0  0  0  0  0  0  0  0  0  0
  -26.7280  -28.3580   20.1510 C   0  0  0  0  0  3  0  0  0  0  0  0
  -25.4610  -26.6900   18.9120 C   0  0  0  0  0  3  0  0  0  0  0  0
  -24.2950  -27.4700   19.0400 C   0  0  0  0  0  3  0  0  0  0  0  0
  -23.1450  -29.5910   19.9040 C   0  0  0  0  0  2  0  0  0  0  0  0
  -24.3570  -30.6990   21.8400 N   0  0  0  0  0  0  0  0  0  0  0  0
  -23.3670  -31.6870   23.6250 O   0  0  0  0  0  0  0  0  0  0  0  0
  -22.4090  -29.1200   22.2640 C   0  0  0  0  0  0  0  0  0  0  0  0
  -21.0770  -28.9760   22.1830 N   0  0  0  0  0  0  0  0  0  0  0  0
  -23.1110  -28.4310   23.0090 O   0  0  0  0  0  0  0  0  0  0  0  0
  -20.5740  -29.5810   21.5500 H   0  0  0  0  0  0  0  0  0  0  0  0
  -17.6970  -27.8480   22.7710 C   0  0  0  0  0  0  0  0  0  0  0  0
  -20.2720  -28.0120   22.9310 C   0  0  0  0  0  3  0  0  0  0  0  0
  -20.3010  -26.6230   22.2520 C   0  0  0  0  0  2  0  0  0  0  0  0
  -19.1400  -26.4030   21.2780 C   0  0  0  0  0  2  0  0  0  0  0  0
  -17.7970  -26.5430   21.9990 C   0  0  0  0  0  2  0  0  0  0  0  0
  -18.8590  -28.5450   23.1950 C   0  0  0  0  0  0  0  0  0  0  0  0
  -18.7120  -29.7690   23.8820 C   0  0  0  0  0  3  0  0  0  0  0  0
  -17.4350  -30.2970   24.1470 C   0  0  0  0  0  3  0  0  0  0  0  0
  -16.2870  -29.5950   23.7390 C   0  0  0  0  0  3  0  0  0  0  0  0
  -16.4200  -28.3730   23.0570 C   0  0  0  0  0  3  0  0  0  0  0  0
  -25.7490  -31.9480   23.5820 C   0  0  0  0  0  3  0  0  0  0  0  0
  -25.5180  -33.3240   24.0410 N   0  0  0  0  0  0  0  0  0  0  0  0
  -25.8450  -34.4210   23.3460 C   0  0  0  0  0  0  0  0  0  0  0  0
  -26.4410  -34.3780   22.2660 O   0  0  0  0  0  0  0  0  0  0  0  0
  -24.9820  -33.4360   24.8890 H   0  0  0  0  0  0  0  0  0  0  0  0
  -24.1660  -36.2910   23.2470 C   0  0  0  0  0  1  0  0  0  0  0  0
  -25.4410  -35.7830   23.9410 C   0  0  0  0  0  3  0  0  0  0  0  0
  -27.6510  -36.5320   24.7010 C   0  0  0  0  0  1  0  0  0  0  0  0
  -26.5020  -36.8080   23.8410 N   0  0  0  0  0  0  0  0  0  0  0  0
  -26.1390  -37.7250   24.0830 H   0  0  0  0  0  0  0  0  0  0  0  0
  -26.3180  -31.0560   24.7540 C   0  0  1  0  0  0  0  0  0  0  0  0
  -25.2860  -30.7540   25.8650 C   0  0  0  0  0  1  0  0  0  0  0  0
  -26.8320  -29.7060   24.2050 C   0  0  0  0  0  1  0  0  0  0  0  0
  -27.5320  -31.7610   25.4060 C   0  0  0  0  0  1  0  0  0  0  0  0
  -25.9430  -18.5940   19.9690 C   0  0  0  0  0  3  0  0  0  0  0  0
  -25.3700  -17.1970   19.6140 C   0  0  0  0  0  3  0  0  0  0  0  0
  -23.8290  -16.3870   21.4640 C   0  0  0  0  0  1  0  0  0  0  0  0
  -23.3270  -15.8550   19.0720 C   0  0  0  0  0  1  0  0  0  0  0  0
  -23.0280  -18.1920   19.9040 C   0  0  0  0  0  1  0  0  0  0  0  0
  -23.8970  -16.9240   20.0220 C   0  0  2  0  0  0  0  0  0  0  0  0
  1  2  1  0
  2  6  2  0
  3  4  2  0
  4 92  1  0
  5  1  2  0
  5  3  1  0
  6  4  1  0
  8  7  1  0
  8  2  1  0
  8 17  1  0
  9 15  1  0
 10 15  1  0
 11 12  1  0
 11 10  1  0
 13 12  1  0
 13 22  1  0
 13 14  1  0
 15 14  1  0
 16  9  2  0
 17  9  1  0
 17 18  1  0
 19 20  2  0
 20 21  1  0
 20 39  1  0
 21 24  1  0
 22 19  1  0
 22 23  1  0
 23 21  2  0
 24 25  1  0
 25 26  2  0
 27 30  1  0
 27 26  1  0
 28 27  2  0
 29 28  1  0
 29 24  2  0
 30 31  1  0
 31 36  2  0
 31 32  1  0
 32 33  2  0
 33 34  1  0
 34 38  1  0
 35 34  2  0
 36 35  1  0
 37 36  1  0
 39 40  1  0
 40 43  1  0
 40 42  1  0
 41 39  2  0
 44 45  1  0
 44 19  1  0
 46 44  1  0
 47  3  1  0
 47 48  1  0
 49 50  1  0
 49 48  1  0
 51 53  1  0
 51 50  1  0
 52 63  2  0
 53 58  1  0
 54 62  1  0
 54 64  1  0
 55 61  1  0
 55 57  1  0
 56 62  1  0
 57 56  1  0
 58 57  2  0
 59 60  1  0
 59 53  2  0
 60 55  2  0
 61 54  1  0
 62 52  1  0
 64 66  2  0
 65 64  1  0
 67 65  1  0
 68 77  2  0
 68 73  1  0
 69 65  1  0
 69 73  1  0
 70 69  1  0
 71 72  1  0
 71 70  1  0
 72 68  1  0
 73 74  2  0
 74 75  1  0
 76 75  2  0
 77 76  1  0
 78 52  1  0
 78 79  1  0
 78 88  1  0
 79 82  1  0
 80 84  1  0
 80 79  1  0
 81 80  2  0
 84 83  1  0
 86 84  1  0
 86 87  1  0
 86 85  1  0
 88 91  1  1
 88 89  1  0
 90 88  1  0
 93 92  2  0
 93 97  1  0
 97 95  1  6
 96 97  1  0
 97 94  1  0
M  ISO  4   9 100  17 100  50 101  51 101
M  END
>  <TORSDO>  (78) 
F 24

>  <SCORE>  (78) 
-1.028

>  <name>  (78) 
77

>  <ligand_id>  (78) 
77

>  <original_smiles>  (78) 
[H]c1nc(C([H])([H])C([H])([H])C([H])([H])C([H])([H])Oc2c([H])c([H])c3c(c2[H])C([H])([H])N(C(=O)C([H])(N([H])C(=O)C([H])(N([H])C([H])([H])[H])C([H])([H])[H])C(C([H])([H])[H])(C([H])([H])[H])C([H])([H])[H])C([H])(C(=O)N([H])C2([H])c4c([H])c([H])c([H])c([H])c4C([H])([H])C([H])([H])C2([H])[H])C3([H])[H])c(C([H])([H])C([H])([H])C(C([H])([H])[H])(C([H])([H])[H])C([H])([H])[H])nc1C([H])(N([H])C(=O)N1C([H])([H])C([H])([H])C([H])([H])C([H])(n2nc(-c3c([H])c([H])c(Oc4c([H])c([H])c(F)c([H])c4F)c([H])c3[H])c(C(=O)N([H])[H])c2N([H])[H])C1([H])[H])C([H])([H])[H]

>  <smiles>  (78) 
[H]c1nc(C([H])([H])C([H])([H])C([H])([H])C([H])([H])Oc2c([H])c([H])c3c(c2[H])C([H])([H])N(C(=O)C([H])(N([H])C(=O)C([H])(N([H])C([H])([H])[H])C([H])([H])[H])C(C([H])([H])[H])(C([H])([H])[H])C([H])([H])[H])C([H])(C(=O)N([H])C2([H])c4c([H])c([H])c([H])c([H])c4C([H])([H])C([H])([H])C2([H])[H])C3([H])[H])c(C([H])([H])C([H])([H])C(C([H])([H])[H])(C([H])([H])[H])C([H])([H])[H])nc1C([H])(N([H])C(=O)N1C([H])([H])C([H])([H])C([H])([H])C([H])(n2nc(-c3c([H])c([H])c(Oc4c([H])c([H])c(F)c([H])c4F)c([H])c3[H])c(C(=O)N([H])[H])c2N([H])[H])C1([H])[H])C([H])([H])[H]

$$$$
78:0:0
     RDKit          3D

 95103  0  0  1  0  0  0  0  0999 V2000
  -27.4470  -22.8460   18.7500 C   0  0  0  0  0  3  0  0  0  0  0  0
  -26.8630  -21.6180   18.4080 C   0  0  0  0  0  0  0  0  0  0  0  0
  -27.3180  -20.4160   19.0240 C   0  0  0  0  0  0  0  0  0  0  0  0
  -28.4700  -22.8960   19.7000 C   0  0  0  0  0  0  0  0  0  0  0  0
  -28.4030  -20.5350   19.9570 C   0  0  0  0  0  0  0  0  0  0  0  0
  -25.7150  -21.6590   17.4080 C   0  0  0  0  0  1  0  0  0  0  0  0
  -28.9520  -21.7530   20.2700 N   0  0  0  0  0  0  0  0  0  0  0  0
  -25.8090  -18.4640   19.8880 C   0  0  0  0  0  1  0  0  0  0  0  0
  -27.2890  -18.0600   17.8330 C   0  0  0  0  0  1  0  0  0  0  0  0
  -26.5500  -19.0960   18.7010 C   0  0  0  0  0  3  0  0  0  0  0  0
  -29.0760  -24.2760   20.0620 C   0  0  0  0  0  2  0  0  0  0  0  0
  -28.3930  -25.4850   22.2170 C   0  0  0  0  0  1  0  0  0  0  0  0
  -28.1090  -25.3320   20.7140 C   0  0  0  0  0  3  0  0  0  0  0  0
  -28.2310  -26.6820   20.1700 O   0  0  0  0  0  0  0  0  0  0  0  0
  -24.5180  -31.9820   23.2680 C   0  0  0  0  0  0  0  0  0  0  0  0
  -27.0900  -27.4720   20.1890 C   0  0  0  0  0  0  0  0  0  0  0  0
  -23.2870  -30.5920   21.6350 C   0  0  0  0  0  3  0  0  0  0  0  0
  -24.7180  -29.0310   20.2090 C   0  0  0  0  0  0  0  0  0  0  0  0
  -25.8190  -30.9150   21.4230 C   0  0  0  0  0  2  0  0  0  0  0  0
  -25.8910  -29.5390   20.7840 C   0  0  0  0  0  0  0  0  0  0  0  0
  -27.0820  -28.7690   20.7670 C   0  0  0  0  0  3  0  0  0  0  0  0
  -25.8990  -26.9920   19.6040 C   0  0  0  0  0  3  0  0  0  0  0  0
  -24.7170  -27.7540   19.6200 C   0  0  0  0  0  3  0  0  0  0  0  0
  -23.4890  -29.9100   20.2570 C   0  0  0  0  0  2  0  0  0  0  0  0
  -24.5610  -31.1750   22.1710 N   0  0  0  0  0  0  0  0  0  0  0  0
  -23.4400  -32.2670   23.8120 O   0  0  0  0  0  0  0  0  0  0  0  0
  -22.6240  -29.5800   22.5970 C   0  0  0  0  0  0  0  0  0  0  0  0
  -21.2980  -29.4130   22.4700 N   0  0  0  0  0  0  0  0  0  0  0  0
  -23.2990  -28.9500   23.4140 O   0  0  0  0  0  0  0  0  0  0  0  0
  -20.8170  -29.9710   21.7790 H   0  0  0  0  0  0  0  0  0  0  0  0
  -17.9110  -28.2430   22.9710 C   0  0  0  0  0  0  0  0  0  0  0  0
  -20.4700  -28.4840   23.2410 C   0  0  0  0  0  3  0  0  0  0  0  0
  -20.5660  -27.0540   22.6640 C   0  0  0  0  0  2  0  0  0  0  0  0
  -19.4600  -26.7430   21.6490 C   0  0  0  0  0  2  0  0  0  0  0  0
  -18.0790  -26.8910   22.2970 C   0  0  0  0  0  2  0  0  0  0  0  0
  -19.0340  -29.0000   23.3980 C   0  0  0  0  0  0  0  0  0  0  0  0
  -18.8220  -30.2670   23.9840 C   0  0  0  0  0  3  0  0  0  0  0  0
  -17.5200  -30.7800   24.1410 C   0  0  0  0  0  3  0  0  0  0  0  0
  -16.4090  -30.0190   23.7330 C   0  0  0  0  0  3  0  0  0  0  0  0
  -16.6070  -28.7520   23.1550 C   0  0  0  0  0  3  0  0  0  0  0  0
  -25.8130  -32.6020   23.8790 C   0  0  0  0  0  3  0  0  0  0  0  0
  -25.5260  -34.0030   24.2130 N   0  0  0  0  0  0  0  0  0  0  0  0
  -25.8760  -35.0510   23.4540 C   0  0  0  0  0  0  0  0  0  0  0  0
  -26.5450  -34.9340   22.4240 O   0  0  0  0  0  0  0  0  0  0  0  0
  -24.9530  -34.1690   25.0280 H   0  0  0  0  0  0  0  0  0  0  0  0
  -24.1820  -36.8680   23.0800 C   0  0  0  0  0  1  0  0  0  0  0  0
  -25.4100  -36.4480   23.9040 C   0  0  0  0  0  3  0  0  0  0  0  0
  -27.5550  -37.2940   24.7520 C   0  0  0  0  0  1  0  0  0  0  0  0
  -26.4620  -37.4820   23.8010 N   0  0  0  0  0  0  0  0  0  0  0  0
  -26.0720  -38.4090   23.9500 H   0  0  0  0  0  0  0  0  0  0  0  0
  -26.3330  -31.8240   25.1500 C   0  0  1  0  0  0  0  0  0  0  0  0
  -25.2440  -31.5930   26.2220 C   0  0  0  0  0  1  0  0  0  0  0  0
  -26.9010  -30.4430   24.7480 C   0  0  0  0  0  1  0  0  0  0  0  0
  -27.5020  -32.6000   25.8030 C   0  0  0  0  0  1  0  0  0  0  0  0
  -28.9440  -19.3390   20.7850 C   0  0  0  0  0  2  0  0  0  0  0  0
  -29.8040  -18.2460   20.0610 C   0  0  0  0  0  2  0  0  0  0  0  0
  -29.8030  -16.8250   20.7470 C   0  0  0  0  0  2  0  0  0  0  0  0
  -31.0660  -14.6520   20.1980 C   0  0  0  0  0  0  0  0  0  0  0  0
  -30.7260  -12.4450   19.1520 C   0  0  0  0  0  2  0  0  0  0  0  0
  -29.7800  -12.6240   17.9450 C   0  0  0  0  0  2  0  0  0  0  0  0
  -28.3070  -12.5390   18.3940 C   0  0  0  0  0  2  0  0  0  0  0  0
  -27.9980  -13.3820   19.6630 C   0  0  0  0  0  3  0  0  0  0  0  0
  -29.0730  -13.2150   20.7600 C   0  0  0  0  0  2  0  0  0  0  0  0
  -30.3730  -13.4810   20.1360 N   0  0  0  0  0  0  0  0  0  0  0  0
  -32.2690  -14.7030   19.9450 O   0  0  0  0  0  0  0  0  0  0  0  0
  -30.3470  -15.7590   19.8750 N   0  0  0  0  0  0  0  0  0  0  0  0
  -30.8080  -16.1980   19.0910 H   0  0  0  0  0  0  0  0  0  0  0  0
  -25.6260  -14.0200   20.4020 C   0  0  0  0  0  0  0  0  0  0  0  0
  -24.5450  -13.2680   20.7800 C   0  0  0  0  0  0  0  0  0  0  0  0
  -24.9820  -11.9090   20.7490 C   0  0  0  0  0  0  0  0  0  0  0  0
  -26.6500  -13.1210   20.1610 N   0  0  0  0  0  0  0  0  0  0  0  0
  -26.2710  -11.8460   20.4310 N   0  0  0  0  0  0  0  0  0  0  0  0
  -24.2330  -10.6600   20.9480 C   0  0  0  0  0  0  0  0  0  0  0  0
  -24.6220   -9.7100   21.9170 C   0  0  0  0  0  3  0  0  0  0  0  0
  -23.8760   -8.5250   22.1020 C   0  0  0  0  0  3  0  0  0  0  0  0
  -22.7240   -8.2840   21.3160 C   0  0  0  0  0  0  0  0  0  0  0  0
  -22.3510   -9.2220   20.3370 C   0  0  0  0  0  3  0  0  0  0  0  0
  -23.0990  -10.3970   20.1510 C   0  0  0  0  0  3  0  0  0  0  0  0
  -21.9560   -7.1470   21.4050 O   0  0  0  0  0  0  0  0  0  0  0  0
  -21.8110   -6.4670   22.5870 C   0  0  0  0  0  0  0  0  0  0  0  0
  -21.3000   -7.0910   23.7460 C   0  0  0  0  0  3  0  0  0  0  0  0
  -21.1020   -6.3400   24.9230 C   0  0  0  0  0  3  0  0  0  0  0  0
  -21.4050   -4.9650   24.9380 C   0  0  0  0  0  0  0  0  0  0  0  0
  -21.9090   -4.3400   23.7840 C   0  0  0  0  0  3  0  0  0  0  0  0
  -22.1080   -5.0900   22.6110 C   0  0  0  0  0  0  0  0  0  0  0  0
  -22.5750   -4.4800   21.4940 F   0  0  0  0  0  0  0  0  0  0  0  0
  -21.2100   -4.2390   26.0640 F   0  0  0  0  0  0  0  0  0  0  0  0
  -23.1590  -13.7780   21.0540 C   0  0  0  0  0  0  0  0  0  0  0  0
  -22.4210  -13.1110   21.9370 N   0  0  0  0  0  0  0  0  0  0  0  0
  -22.7380  -14.8030   20.5220 O   0  0  0  0  0  0  0  0  0  0  0  0
  -22.7720  -12.2840   22.3930 H   0  0  0  0  0  0  0  0  0  0  0  0
  -21.4910  -13.4390   22.1590 H   0  0  0  0  0  0  0  0  0  0  0  0
  -25.8250  -15.3840   20.2260 N   0  0  0  0  0  0  0  0  0  0  0  0
  -25.0890  -16.0710   20.3600 H   0  0  0  0  0  0  0  0  0  0  0  0
  -26.6950  -15.7920   19.9120 H   0  0  0  0  0  0  0  0  0  0  0  0
  1  4  1  0
  2  1  2  0
  2  3  1  0
  3  5  2  0
  4 11  1  0
  4  7  2  0
  5  7  1  0
  5 55  1  0
  6  2  1  0
  9 10  1  0
 10  3  1  0
 10  8  1  0
 11 13  1  0
 13 12  1  0
 14 16  1  0
 14 13  1  0
 15 26  2  0
 16 21  1  0
 17 25  1  0
 17 27  1  0
 18 24  1  0
 18 20  1  0
 19 25  1  0
 20 19  1  0
 21 20  2  0
 22 23  1  0
 22 16  2  0
 23 18  2  0
 24 17  1  0
 25 15  1  0
 27 29  2  0
 28 27  1  0
 30 28  1  0
 31 40  2  0
 31 36  1  0
 32 28  1  0
 32 36  1  0
 33 32  1  0
 34 35  1  0
 34 33  1  0
 35 31  1  0
 36 37  2  0
 37 38  1  0
 39 38  2  0
 40 39  1  0
 41 15  1  0
 41 42  1  0
 41 51  1  0
 42 45  1  0
 43 47  1  0
 43 42  1  0
 44 43  2  0
 47 46  1  0
 49 47  1  0
 49 50  1  0
 49 48  1  0
 51 54  1  1
 51 52  1  0
 53 51  1  0
 56 57  1  0
 56 55  1  0
 59 64  1  0
 60 61  1  0
 60 59  1  0
 62 61  1  0
 62 71  1  0
 62 63  1  0
 64 58  1  0
 64 63  1  0
 65 58  2  0
 66 58  1  0
 66 57  1  0
 67 66  1  0
 68 69  2  0
 69 88  1  0
 70 69  1  0
 70 73  1  0
 71 68  1  0
 71 72  1  0
 72 70  2  0
 73 74  1  0
 74 75  2  0
 76 79  1  0
 76 75  1  0
 77 76  2  0
 78 77  1  0
 78 73  2  0
 79 80  1  0
 80 85  2  0
 80 81  1  0
 81 82  2  0
 82 83  1  0
 83 87  1  0
 84 83  2  0
 85 84  1  0
 86 85  1  0
 88 89  1  0
 89 92  1  0
 89 91  1  0
 90 88  2  0
 93 94  1  0
 93 68  1  0
 95 93  1  0
M  ISO  4  13 101  14 101  58 100  66 100
M  END
>  <TORSDO>  (79) 
F 22

>  <SCORE>  (79) 
-11.881

>  <name>  (79) 
78

>  <ligand_id>  (79) 
78

>  <original_smiles>  (79) 
[H]c1c([H])c([H])c2c(c1[H])C([H])([H])C([H])([H])C([H])([H])C2([H])N([H])C(=O)C1([H])N(C(=O)C([H])(N([H])C(=O)C([H])(N([H])C([H])([H])[H])C([H])([H])[H])C(C([H])([H])[H])(C([H])([H])[H])C([H])([H])[H])C([H])([H])c2c([H])c(OC([H])(C([H])([H])[H])C([H])([H])c3nc(C([H])([H])C([H])([H])C([H])([H])N([H])C(=O)N4C([H])([H])C([H])([H])C([H])([H])C([H])(n5nc(-c6c([H])c([H])c(Oc7c([H])c([H])c(F)c([H])c7F)c([H])c6[H])c(C(=O)N([H])[H])c5N([H])[H])C4([H])[H])c(C([H])(C([H])([H])[H])C([H])([H])[H])c(C([H])([H])[H])c3[H])c([H])c([H])c2C1([H])[H]

>  <smiles>  (79) 
[H]c1c([H])c([H])c2c(c1[H])C([H])([H])C([H])([H])C([H])([H])C2([H])N([H])C(=O)C1([H])N(C(=O)C([H])(N([H])C(=O)C([H])(N([H])C([H])([H])[H])C([H])([H])[H])C(C([H])([H])[H])(C([H])([H])[H])C([H])([H])[H])C([H])([H])c2c([H])c(OC([H])(C([H])([H])[H])C([H])([H])c3nc(C([H])([H])C([H])([H])C([H])([H])N([H])C(=O)N4C([H])([H])C([H])([H])C([H])([H])C([H])(n5nc(-c6c([H])c([H])c(Oc7c([H])c([H])c(F)c([H])c7F)c([H])c6[H])c(C(=O)N([H])[H])c5N([H])[H])C4([H])[H])c(C([H])(C([H])([H])[H])C([H])([H])[H])c(C([H])([H])[H])c3[H])c([H])c([H])c2C1([H])[H]

$$$$
79:0:0
     RDKit          3D

 94102  0  0  1  0  0  0  0  0999 V2000
  -29.8510  -21.4780   19.7540 C   0  0  0  0  0  3  0  0  0  0  0  0
  -30.2470  -20.1750   19.4010 C   0  0  0  0  0  3  0  0  0  0  0  0
  -29.8210  -21.8440   21.1160 C   0  0  0  0  0  0  0  0  0  0  0  0
  -30.6350  -19.2630   20.4040 C   0  0  0  0  0  0  0  0  0  0  0  0
  -30.1840  -20.8520   22.0620 C   0  0  0  0  0  0  0  0  0  0  0  0
  -30.6110  -19.6190   21.7060 N   0  0  0  0  0  0  0  0  0  0  0  0
  -32.5190  -17.9070   19.4230 C   0  0  0  0  0  1  0  0  0  0  0  0
  -31.1000  -17.8360   20.0290 C   0  0  0  0  0  3  0  0  0  0  0  0
  -31.0770  -16.7760   21.1870 C   0  0  0  0  0  2  0  0  0  0  0  0
  -31.2070  -14.4540   20.1290 C   0  0  0  0  0  0  0  0  0  0  0  0
  -30.7800  -12.3140   18.9730 C   0  0  0  0  0  2  0  0  0  0  0  0
  -29.8070  -12.5400   17.7990 C   0  0  0  0  0  2  0  0  0  0  0  0
  -28.3430  -12.4660   18.2760 C   0  0  0  0  0  2  0  0  0  0  0  0
  -28.0770  -13.3340   19.5350 C   0  0  0  0  0  3  0  0  0  0  0  0
  -29.1530  -13.0690   20.6110 C   0  0  0  0  0  2  0  0  0  0  0  0
  -30.4750  -13.3160   20.0050 N   0  0  0  0  0  0  0  0  0  0  0  0
  -32.2960  -14.6180   19.5790 O   0  0  0  0  0  0  0  0  0  0  0  0
  -30.6090  -15.4270   20.8310 N   0  0  0  0  0  0  0  0  0  0  0  0
  -29.7050  -15.1730   21.2010 H   0  0  0  0  0  0  0  0  0  0  0  0
  -25.7430  -14.0580   20.3520 C   0  0  0  0  0  0  0  0  0  0  0  0
  -24.6450  -13.3370   20.7370 C   0  0  0  0  0  0  0  0  0  0  0  0
  -25.0230  -11.9630   20.6450 C   0  0  0  0  0  0  0  0  0  0  0  0
  -26.7270  -13.1260   20.0550 N   0  0  0  0  0  0  0  0  0  0  0  0
  -26.2970  -11.8580   20.2870 N   0  0  0  0  0  0  0  0  0  0  0  0
  -24.2310  -10.7380   20.8230 C   0  0  0  0  0  0  0  0  0  0  0  0
  -24.6280   -9.7240   21.7210 C   0  0  0  0  0  3  0  0  0  0  0  0
  -23.8380   -8.5650   21.8860 C   0  0  0  0  0  3  0  0  0  0  0  0
  -22.6390   -8.4140   21.1520 C   0  0  0  0  0  0  0  0  0  0  0  0
  -22.2600   -9.4170   20.2430 C   0  0  0  0  0  3  0  0  0  0  0  0
  -23.0490  -10.5660   20.0750 C   0  0  0  0  0  3  0  0  0  0  0  0
  -21.8210   -7.3120   21.2300 O   0  0  0  0  0  0  0  0  0  0  0  0
  -21.7310   -6.5610   22.3750 C   0  0  0  0  0  0  0  0  0  0  0  0
  -21.3410   -7.1280   23.6080 C   0  0  0  0  0  3  0  0  0  0  0  0
  -21.1930   -6.3070   24.7440 C   0  0  0  0  0  3  0  0  0  0  0  0
  -21.4260   -4.9220   24.6490 C   0  0  0  0  0  0  0  0  0  0  0  0
  -21.8100   -4.3570   23.4200 C   0  0  0  0  0  3  0  0  0  0  0  0
  -21.9590   -5.1730   22.2870 C   0  0  0  0  0  0  0  0  0  0  0  0
  -22.3080   -4.6180   21.1010 F   0  0  0  0  0  0  0  0  0  0  0  0
  -21.2770   -4.1330   25.7380 F   0  0  0  0  0  0  0  0  0  0  0  0
  -23.2890  -13.8850   21.0810 C   0  0  0  0  0  0  0  0  0  0  0  0
  -22.5610  -13.2120   21.9650 N   0  0  0  0  0  0  0  0  0  0  0  0
  -22.8860  -14.9440   20.5990 O   0  0  0  0  0  0  0  0  0  0  0  0
  -22.8980  -12.3540   22.3750 H   0  0  0  0  0  0  0  0  0  0  0  0
  -21.6510  -13.5590   22.2350 H   0  0  0  0  0  0  0  0  0  0  0  0
  -25.9820  -15.4210   20.2130 N   0  0  0  0  0  0  0  0  0  0  0  0
  -25.2600  -16.1160   20.3680 H   0  0  0  0  0  0  0  0  0  0  0  0
  -26.8490  -15.8230   19.8740 H   0  0  0  0  0  0  0  0  0  0  0  0
  -29.3980  -23.2490   21.5710 C   0  0  0  0  0  2  0  0  0  0  0  0
  -29.4800  -24.4030   20.5380 C   0  0  0  0  0  2  0  0  0  0  0  0
  -28.9990  -25.7330   21.1530 C   0  0  0  0  0  2  0  0  0  0  0  0
  -29.0510  -26.8390   20.2390 O   0  0  0  0  0  0  0  0  0  0  0  0
  -24.7440  -31.6510   23.2130 C   0  0  0  0  0  0  0  0  0  0  0  0
  -27.8550  -27.5100   20.1700 C   0  0  0  0  0  0  0  0  0  0  0  0
  -23.7150  -30.1690   21.5180 C   0  0  0  0  0  3  0  0  0  0  0  0
  -25.3420  -28.7870   20.1220 C   0  0  0  0  0  0  0  0  0  0  0  0
  -26.2030  -30.7550   21.4020 C   0  0  0  0  0  2  0  0  0  0  0  0
  -26.4290  -29.4070   20.7510 C   0  0  0  0  0  0  0  0  0  0  0  0
  -27.6930  -28.7760   20.7740 C   0  0  0  0  0  3  0  0  0  0  0  0
  -26.7560  -26.9000   19.5300 C   0  0  0  0  0  3  0  0  0  0  0  0
  -25.4990  -27.5310   19.5090 C   0  0  0  0  0  3  0  0  0  0  0  0
  -24.0250  -29.5280   20.1390 C   0  0  0  0  0  2  0  0  0  0  0  0
  -24.9020  -30.8750   22.1030 N   0  0  0  0  0  0  0  0  0  0  0  0
  -23.6280  -31.8150   23.7240 O   0  0  0  0  0  0  0  0  0  0  0  0
  -23.1280  -29.0840   22.4470 C   0  0  0  0  0  0  0  0  0  0  0  0
  -21.8410  -28.7540   22.2440 N   0  0  0  0  0  0  0  0  0  0  0  0
  -23.8280  -28.5400   23.3050 O   0  0  0  0  0  0  0  0  0  0  0  0
  -21.3350  -29.2470   21.5230 H   0  0  0  0  0  0  0  0  0  0  0  0
  -18.6240  -27.1310   22.4900 C   0  0  0  0  0  0  0  0  0  0  0  0
  -21.0910  -27.7320   22.9730 C   0  0  0  0  0  3  0  0  0  0  0  0
  -21.4330  -26.3160   22.4550 C   0  0  0  0  0  2  0  0  0  0  0  0
  -20.4780  -25.8280   21.3610 C   0  0  0  0  0  2  0  0  0  0  0  0
  -19.0360  -25.8030   21.8770 C   0  0  0  0  0  2  0  0  0  0  0  0
  -19.5900  -28.0440   22.9900 C   0  0  0  0  0  0  0  0  0  0  0  0
  -19.1550  -29.2800   23.5160 C   0  0  0  0  0  3  0  0  0  0  0  0
  -17.7860  -29.6070   23.5510 C   0  0  0  0  0  3  0  0  0  0  0  0
  -16.8340  -28.6920   23.0700 C   0  0  0  0  0  3  0  0  0  0  0  0
  -17.2530  -27.4570   22.5440 C   0  0  0  0  0  3  0  0  0  0  0  0
  -25.9510  -32.3820   23.8800 C   0  0  0  0  0  3  0  0  0  0  0  0
  -25.5280  -33.7560   24.1740 N   0  0  0  0  0  0  0  0  0  0  0  0
  -25.8190  -34.8200   23.4150 C   0  0  0  0  0  0  0  0  0  0  0  0
  -26.5440  -34.7520   22.4170 O   0  0  0  0  0  0  0  0  0  0  0  0
  -24.8880  -33.8780   24.9450 H   0  0  0  0  0  0  0  0  0  0  0  0
  -23.9810  -36.4730   22.9560 C   0  0  0  0  0  1  0  0  0  0  0  0
  -25.2100  -36.1730   23.8270 C   0  0  0  0  0  3  0  0  0  0  0  0
  -27.2330  -37.2230   24.7350 C   0  0  0  0  0  1  0  0  0  0  0  0
  -26.1650  -37.2990   23.7440 N   0  0  0  0  0  0  0  0  0  0  0  0
  -25.6860  -38.1870   23.8610 H   0  0  0  0  0  0  0  0  0  0  0  0
  -26.4690  -31.6630   25.1870 C   0  0  1  0  0  0  0  0  0  0  0  0
  -25.3520  -31.3550   26.2130 C   0  0  0  0  0  1  0  0  0  0  0  0
  -27.1630  -30.3280   24.8310 C   0  0  0  0  0  1  0  0  0  0  0  0
  -27.5340  -32.5440   25.8820 C   0  0  0  0  0  1  0  0  0  0  0  0
  -30.1130  -21.0820   23.5680 C   0  0  0  0  0  2  0  0  0  0  0  0
  -31.3700  -21.8500   25.6560 C   0  0  0  0  0  1  0  0  0  0  0  0
  -31.4750  -21.4540   24.1760 C   0  0  0  0  0  2  0  0  0  0  0  0
  1  3  1  0
  2  1  2  0
  2  4  1  0
  3 48  1  0
  3  5  2  0
  4  6  2  0
  5 92  1  0
  6  5  1  0
  8  7  1  0
  8  4  1  0
  8  9  1  0
 10 18  1  0
 11 16  1  0
 12 13  1  0
 12 11  1  0
 14 13  1  0
 14 23  1  0
 14 15  1  0
 16 10  1  0
 16 15  1  0
 17 10  2  0
 18  9  1  0
 18 19  1  0
 20 21  2  0
 21 40  1  0
 22 21  1  0
 22 25  1  0
 23 24  1  0
 23 20  1  0
 24 22  2  0
 25 26  1  0
 26 27  2  0
 28 31  1  0
 28 27  1  0
 29 28  2  0
 30 29  1  0
 30 25  2  0
 31 32  1  0
 32 33  1  0
 33 34  2  0
 35 34  1  0
 35 39  1  0
 36 35  2  0
 37 32  2  0
 37 36  1  0
 38 37  1  0
 40 41  1  0
 41 44  1  0
 41 43  1  0
 42 40  2  0
 45 20  1  0
 45 46  1  0
 47 45  1  0
 49 50  1  0
 49 48  1  0
 51 50  1  0
 52 63  2  0
 53 51  1  0
 53 58  1  0
 54 62  1  0
 54 64  1  0
 55 61  1  0
 55 57  1  0
 56 62  1  0
 57 58  2  0
 57 56  1  0
 59 53  2  0
 60 59  1  0
 60 55  2  0
 61 54  1  0
 62 52  1  0
 64 66  2  0
 65 64  1  0
 67 65  1  0
 68 77  2  0
 68 73  1  0
 69 65  1  0
 69 73  1  0
 70 69  1  0
 71 72  1  0
 71 70  1  0
 72 68  1  0
 73 74  2  0
 74 75  1  0
 76 75  2  0
 77 76  1  0
 78 52  1  0
 78 79  1  0
 78 88  1  0
 79 82  1  0
 80 84  1  0
 80 79  1  0
 81 80  2  0
 84 83  1  0
 86 84  1  0
 86 87  1  0
 86 85  1  0
 88 91  1  1
 88 89  1  0
 90 88  1  0
 92 94  1  0
 94 93  1  0
M  ISO  4  10 100  18 100  50 101  51 101
M  END
>  <TORSDO>  (80) 
F 23

>  <SCORE>  (80) 
-11.770

>  <name>  (80) 
79

>  <ligand_id>  (80) 
79

>  <original_smiles>  (80) 
[H]c1c(C([H])(C([H])([H])[H])C([H])([H])N([H])C(=O)N2C([H])([H])C([H])([H])C([H])([H])C([H])(n3nc(-c4c([H])c([H])c(Oc5c([H])c([H])c(F)c([H])c5F)c([H])c4[H])c(C(=O)N([H])[H])c3N([H])[H])C2([H])[H])nc(C([H])([H])C([H])([H])C([H])([H])[H])c(C([H])([H])C([H])([H])C([H])([H])Oc2c([H])c([H])c3c(c2[H])C([H])([H])N(C(=O)C([H])(N([H])C(=O)C([H])(N([H])C([H])([H])[H])C([H])([H])[H])C(C([H])([H])[H])(C([H])([H])[H])C([H])([H])[H])C([H])(C(=O)N([H])C2([H])c4c([H])c([H])c([H])c([H])c4C([H])([H])C([H])([H])C2([H])[H])C3([H])[H])c1[H]

>  <smiles>  (80) 
[H]c1c(C([H])(C([H])([H])[H])C([H])([H])N([H])C(=O)N2C([H])([H])C([H])([H])C([H])([H])C([H])(n3nc(-c4c([H])c([H])c(Oc5c([H])c([H])c(F)c([H])c5F)c([H])c4[H])c(C(=O)N([H])[H])c3N([H])[H])C2([H])[H])nc(C([H])([H])C([H])([H])C([H])([H])[H])c(C([H])([H])C([H])([H])C([H])([H])Oc2c([H])c([H])c3c(c2[H])C([H])([H])N(C(=O)C([H])(N([H])C(=O)C([H])(N([H])C([H])([H])[H])C([H])([H])[H])C(C([H])([H])[H])(C([H])([H])[H])C([H])([H])[H])C([H])(C(=O)N([H])C2([H])c4c([H])c([H])c([H])c([H])c4C([H])([H])C([H])([H])C2([H])[H])C3([H])[H])c1[H]

$$$$
80:0:0
     RDKit          3D

 99107  0  0  1  0  0  0  0  0999 V2000
  -31.1670  -23.5530   21.7900 C   0  0  0  0  0  3  0  0  0  0  0  0
  -30.2590  -24.3040   19.6820 C   0  0  0  0  0  3  0  0  0  0  0  0
  -30.5840  -24.5850   21.0220 C   0  0  0  0  0  0  0  0  0  0  0  0
  -31.3930  -22.3000   21.1900 C   0  0  0  0  0  0  0  0  0  0  0  0
  -30.4820  -23.0130   19.1720 C   0  0  0  0  0  0  0  0  0  0  0  0
  -32.0370  -21.1630   21.9580 C   0  0  0  0  0  1  0  0  0  0  0  0
  -31.0450  -22.0330   19.9130 N   0  0  0  0  0  0  0  0  0  0  0  0
  -31.4220  -26.9610   21.0660 C   0  0  0  0  0  1  0  0  0  0  0  0
  -30.3780  -25.9770   21.6120 C   0  0  0  0  0  3  0  0  0  0  0  0
  -28.9270  -26.5250   21.5240 C   0  0  0  0  0  2  0  0  0  0  0  0
  -28.4010  -26.7490   20.1980 O   0  0  0  0  0  0  0  0  0  0  0  0
  -24.5800  -31.8890   23.2460 C   0  0  0  0  0  0  0  0  0  0  0  0
  -27.2390  -27.4900   20.1730 C   0  0  0  0  0  0  0  0  0  0  0  0
  -23.3610  -30.4840   21.6070 C   0  0  0  0  0  3  0  0  0  0  0  0
  -24.8150  -28.9510   20.1700 C   0  0  0  0  0  0  0  0  0  0  0  0
  -25.8740  -30.8680   21.3820 C   0  0  0  0  0  2  0  0  0  0  0  0
  -25.9640  -29.4980   20.7500 C   0  0  0  0  0  0  0  0  0  0  0  0
  -27.1740  -28.7790   20.7460 C   0  0  0  0  0  3  0  0  0  0  0  0
  -26.0800  -26.9560   19.5650 C   0  0  0  0  0  3  0  0  0  0  0  0
  -24.8680  -27.6800   19.5670 C   0  0  0  0  0  3  0  0  0  0  0  0
  -23.5610  -29.7950   20.2280 C   0  0  0  0  0  2  0  0  0  0  0  0
  -24.6220  -31.0950   22.1370 N   0  0  0  0  0  0  0  0  0  0  0  0
  -23.5020  -32.1590   23.7960 O   0  0  0  0  0  0  0  0  0  0  0  0
  -22.7190  -29.4680   22.5770 C   0  0  0  0  0  0  0  0  0  0  0  0
  -21.3950  -29.2800   22.4500 N   0  0  0  0  0  0  0  0  0  0  0  0
  -23.4060  -28.8480   23.3930 O   0  0  0  0  0  0  0  0  0  0  0  0
  -20.9040  -29.8320   21.7620 H   0  0  0  0  0  0  0  0  0  0  0  0
  -18.0290  -28.0610   22.9350 C   0  0  0  0  0  0  0  0  0  0  0  0
  -20.5810  -28.3410   23.2210 C   0  0  0  0  0  3  0  0  0  0  0  0
  -20.6990  -26.9080   22.6530 C   0  0  0  0  0  2  0  0  0  0  0  0
  -19.6060  -26.5710   21.6340 C   0  0  0  0  0  2  0  0  0  0  0  0
  -18.2190  -26.7090   22.2690 C   0  0  0  0  0  2  0  0  0  0  0  0
  -19.1380  -28.8340   23.3660 C   0  0  0  0  0  0  0  0  0  0  0  0
  -18.9070  -30.1010   23.9480 C   0  0  0  0  0  3  0  0  0  0  0  0
  -17.5980  -30.5950   24.1010 C   0  0  0  0  0  3  0  0  0  0  0  0
  -16.5020  -29.8180   23.6860 C   0  0  0  0  0  3  0  0  0  0  0  0
  -16.7180  -28.5530   23.1100 C   0  0  0  0  0  3  0  0  0  0  0  0
  -25.8710  -32.5170   23.8600 C   0  0  0  0  0  3  0  0  0  0  0  0
  -25.5700  -33.9150   24.1920 N   0  0  0  0  0  0  0  0  0  0  0  0
  -25.9030  -34.9660   23.4300 C   0  0  0  0  0  0  0  0  0  0  0  0
  -26.5670  -34.8580   22.3940 O   0  0  0  0  0  0  0  0  0  0  0  0
  -24.9800  -34.0710   24.9960 H   0  0  0  0  0  0  0  0  0  0  0  0
  -24.1760  -36.7600   23.0850 C   0  0  0  0  0  1  0  0  0  0  0  0
  -25.4220  -36.3550   23.8890 C   0  0  0  0  0  3  0  0  0  0  0  0
  -27.5660  -37.2340   24.7010 C   0  0  0  0  0  1  0  0  0  0  0  0
  -26.4570  -37.4050   23.7670 N   0  0  0  0  0  0  0  0  0  0  0  0
  -26.0550  -38.3270   23.9150 H   0  0  0  0  0  0  0  0  0  0  0  0
  -26.4000  -31.7400   25.1260 C   0  0  1  0  0  0  0  0  0  0  0  0
  -25.3200  -31.4990   26.2060 C   0  0  0  0  0  1  0  0  0  0  0  0
  -26.9750  -30.3630   24.7170 C   0  0  0  0  0  1  0  0  0  0  0  0
  -27.5620  -32.5280   25.7780 C   0  0  0  0  0  1  0  0  0  0  0  0
  -30.0840  -22.6860   17.7380 C   0  0  0  0  0  2  0  0  0  0  0  0
  -30.2240  -21.2060   17.3030 C   0  0  0  0  0  2  0  0  0  0  0  0
  -29.3840  -20.2530   18.0780 N   0  0  0  0  0  4  0  0  0  0  0  0
  -28.6470  -19.9220   17.4740 H   0  0  0  0  0  0  0  0  0  0  0  0
  -28.9700  -20.7440   18.8530 H   0  0  0  0  0  0  0  0  0  0  0  0
  -30.1510  -19.1030   18.6160 C   0  0  0  0  0  2  0  0  0  0  0  0
  -28.4080  -18.6570   20.4370 C   0  0  0  0  0  1  0  0  0  0  0  0
  -28.4490  -17.2420   18.3560 C   0  0  0  0  0  1  0  0  0  0  0  0
  -29.3230  -18.0150   19.3680 C   0  0  1  0  0  0  0  0  0  0  0  0
  -30.3650  -17.0780   20.0710 C   0  0  0  0  0  2  0  0  0  0  0  0
  -30.6720  -14.6090   20.2130 C   0  0  0  0  0  0  0  0  0  0  0  0
  -30.3580  -12.4210   19.1580 C   0  0  0  0  0  2  0  0  0  0  0  0
  -29.4040  -12.6270   17.9620 C   0  0  0  0  0  2  0  0  0  0  0  0
  -27.9380  -12.4860   18.4110 C   0  0  0  0  0  2  0  0  0  0  0  0
  -27.6130  -13.3360   19.6710 C   0  0  0  0  0  3  0  0  0  0  0  0
  -28.6880  -13.1560   20.7680 C   0  0  0  0  0  2  0  0  0  0  0  0
  -29.9980  -13.4330   20.1630 N   0  0  0  0  0  0  0  0  0  0  0  0
  -31.8440  -14.7180   19.8470 O   0  0  0  0  0  0  0  0  0  0  0  0
  -29.9170  -15.7110   20.4140 N   0  0  0  0  0  0  0  0  0  0  0  0
  -28.9590  -15.5760   20.7010 H   0  0  0  0  0  0  0  0  0  0  0  0
  -25.2290  -13.9480   20.4180 C   0  0  0  0  0  0  0  0  0  0  0  0
  -24.1690  -13.1810   20.8100 C   0  0  0  0  0  0  0  0  0  0  0  0
  -24.6310  -11.8300   20.7920 C   0  0  0  0  0  0  0  0  0  0  0  0
  -26.2730  -13.0650   20.1800 N   0  0  0  0  0  0  0  0  0  0  0  0
  -25.9190  -11.7870   20.4700 N   0  0  0  0  0  0  0  0  0  0  0  0
  -23.9110  -10.5700   21.0050 C   0  0  0  0  0  0  0  0  0  0  0  0
  -24.3660   -9.6070   21.9300 C   0  0  0  0  0  3  0  0  0  0  0  0
  -23.6460   -8.4110   22.1310 C   0  0  0  0  0  3  0  0  0  0  0  0
  -22.4550   -8.1670   21.4060 C   0  0  0  0  0  0  0  0  0  0  0  0
  -22.0170   -9.1200   20.4690 C   0  0  0  0  0  3  0  0  0  0  0  0
  -22.7390  -10.3090   20.2670 C   0  0  0  0  0  3  0  0  0  0  0  0
  -21.7070   -7.0210   21.5170 O   0  0  0  0  0  0  0  0  0  0  0  0
  -21.7000   -6.2710   22.6650 C   0  0  0  0  0  0  0  0  0  0  0  0
  -21.3320   -6.8240   23.9110 C   0  0  0  0  0  3  0  0  0  0  0  0
  -21.2700   -6.0040   25.0560 C   0  0  0  0  0  3  0  0  0  0  0  0
  -21.5680   -4.6320   24.9550 C   0  0  0  0  0  0  0  0  0  0  0  0
  -21.9300   -4.0790   23.7140 C   0  0  0  0  0  3  0  0  0  0  0  0
  -21.9930   -4.8960   22.5710 C   0  0  0  0  0  0  0  0  0  0  0  0
  -22.3240   -4.3540   21.3760 F   0  0  0  0  0  0  0  0  0  0  0  0
  -21.5020   -3.8410   26.0530 F   0  0  0  0  0  0  0  0  0  0  0  0
  -22.7770  -13.6630   21.0900 C   0  0  0  0  0  0  0  0  0  0  0  0
  -22.0610  -12.9820   21.9750 N   0  0  0  0  0  0  0  0  0  0  0  0
  -22.3320  -14.6810   20.5610 O   0  0  0  0  0  0  0  0  0  0  0  0
  -22.4450  -12.1640   22.4260 H   0  0  0  0  0  0  0  0  0  0  0  0
  -21.1260  -13.2860   22.2080 H   0  0  0  0  0  0  0  0  0  0  0  0
  -25.3850  -15.3150   20.2270 N   0  0  0  0  0  0  0  0  0  0  0  0
  -24.6000  -15.9510   20.3160 H   0  0  0  0  0  0  0  0  0  0  0  0
  -26.2070  -15.7460   19.8260 H   0  0  0  0  0  0  0  0  0  0  0  0
  2  3  1  0
  3  9  1  0
  3  1  2  0
  4  1  1  0
  4  6  1  0
  5  2  2  0
  5  7  1  0
  7  4  2  0
  9  8  1  0
 10  9  1  0
 11 10  1  0
 12 23  2  0
 13 11  1  0
 13 18  1  0
 14 22  1  0
 14 24  1  0
 15 21  1  0
 15 17  1  0
 16 22  1  0
 17 16  1  0
 18 17  2  0
 19 20  1  0
 19 13  2  0
 20 15  2  0
 21 14  1  0
 22 12  1  0
 24 26  2  0
 25 24  1  0
 27 25  1  0
 28 37  2  0
 28 33  1  0
 29 25  1  0
 29 33  1  0
 30 29  1  0
 31 32  1  0
 31 30  1  0
 32 28  1  0
 33 34  2  0
 34 35  1  0
 36 35  2  0
 37 36  1  0
 38 12  1  0
 38 39  1  0
 38 48  1  0
 39 42  1  0
 40 44  1  0
 40 39  1  0
 41 40  2  0
 44 43  1  0
 46 44  1  0
 46 47  1  0
 46 45  1  0
 48 51  1  1
 48 49  1  0
 50 48  1  0
 52  5  1  0
 53 52  1  0
 53 54  1  0
 54 57  1  0
 54 56  1  0
 55 54  1  0
 57 60  1  0
 60 59  1  6
 60 61  1  0
 60 58  1  0
 61 70  1  0
 62 70  1  0
 63 68  1  0
 64 65  1  0
 64 63  1  0
 66 65  1  0
 66 75  1  0
 66 67  1  0
 68 62  1  0
 68 67  1  0
 69 62  2  0
 70 71  1  0
 72 73  2  0
 73 92  1  0
 74 73  1  0
 74 77  1  0
 75 72  1  0
 75 76  1  0
 76 74  2  0
 77 78  1  0
 78 79  2  0
 80 83  1  0
 80 79  1  0
 81 80  2  0
 82 81  1  0
 82 77  2  0
 83 84  1  0
 84 85  1  0
 85 86  2  0
 87 86  1  0
 87 91  1  0
 88 87  2  0
 89 84  2  0
 89 88  1  0
 90 89  1  0
 92 93  1  0
 93 96  1  0
 93 95  1  0
 94 92  2  0
 97 98  1  0
 97 72  1  0
 99 97  1  0
M  ISO  4  10 101  11 101  62 100  70 100
M  END
>  <TORSDO>  (81) 
F 24

>  <SCORE>  (81) 
-12.311

>  <name>  (81) 
80

>  <ligand_id>  (81) 
80

>  <original_smiles>  (81) 
[H]c1c([H])c([H])c2c(c1[H])C([H])([H])C([H])([H])C([H])([H])C2([H])N([H])C(=O)C1([H])N(C(=O)C([H])(N([H])C(=O)C([H])(N([H])C([H])([H])[H])C([H])([H])[H])C(C([H])([H])[H])(C([H])([H])[H])C([H])([H])[H])C([H])([H])c2c([H])c(OC([H])([H])C([H])(c3c([H])c(C([H])([H])[H])nc(C([H])([H])C([H])([H])[N+]([H])([H])C([H])([H])C(C([H])([H])[H])(C([H])([H])[H])C([H])([H])N([H])C(=O)N4C([H])([H])C([H])([H])C([H])([H])C([H])(n5nc(-c6c([H])c([H])c(Oc7c([H])c([H])c(F)c([H])c7F)c([H])c6[H])c(C(=O)N([H])[H])c5N([H])[H])C4([H])[H])c3[H])C([H])([H])[H])c([H])c([H])c2C1([H])[H]

>  <smiles>  (81) 
[H]c1c([H])c([H])c2c(c1[H])C([H])([H])C([H])([H])C([H])([H])C2([H])N([H])C(=O)C1([H])N(C(=O)C([H])(N([H])C(=O)C([H])(N([H])C([H])([H])[H])C([H])([H])[H])C(C([H])([H])[H])(C([H])([H])[H])C([H])([H])[H])C([H])([H])c2c([H])c(OC([H])([H])C([H])(c3c([H])c(C([H])([H])[H])nc(C([H])([H])C([H])([H])[N+]([H])([H])C([H])([H])C(C([H])([H])[H])(C([H])([H])[H])C([H])([H])N([H])C(=O)N4C([H])([H])C([H])([H])C([H])([H])C([H])(n5nc(-c6c([H])c([H])c(Oc7c([H])c([H])c(F)c([H])c7F)c([H])c6[H])c(C(=O)N([H])[H])c5N([H])[H])C4([H])[H])c3[H])C([H])([H])[H])c([H])c([H])c2C1([H])[H]

$$$$
81:0:0
     RDKit          3D

 94 95  0  0  1  0  0  0  0  0999 V2000
  -31.8130  -16.2250   21.4930 C   0  0  0  0  0 15  0  0  0  0  0  0
  -31.9000  -17.9830   18.4620 C   0  0  0  0  0  1  0  0  0  0  0  0
  -32.8510  -16.9730   19.9340 C   0  0  0  0  0  1  0  0  0  0  0  0
  -29.8850  -16.7040   21.5690 C   0  0  0  0  0  1  0  0  0  0  0  0
  -30.0370  -18.4820   18.6840 C   0  0  0  0  0  3  0  0  0  0  0  0
  -29.0910  -17.7210   20.1450 N   0  0  0  0  0  1  0  0  0  0  0  0
  -34.6600  -18.7450   19.6210 C   0  0  0  0  0  1  0  0  0  0  0  0
  -33.7190  -17.9730   20.5590 C   0  0  0  0  0  3  0  0  0  0  0  0
  -32.5000  -18.7820   21.0590 C   0  0  0  0  0  2  0  0  0  0  0  0
  -30.7010  -16.1230   19.3140 C   0  0  0  0  0  2  0  0  0  0  0  0
  -30.7200  -13.3610   18.9300 C   0  0  0  0  0  2  0  0  0  0  0  0
  -29.8060  -12.8050   17.7850 C   0  0  0  0  0  2  0  0  0  0  0  0
  -28.4200  -12.4450   18.3250 C   0  0  0  0  0  2  0  0  0  0  0  0
  -27.9270  -13.5760   19.2410 C   0  0  0  0  0  3  0  0  0  0  0  0
  -28.9800  -14.0930   20.2600 C   0  0  0  0  0  2  0  0  0  0  0  0
  -30.1970  -14.6920   19.5870 N   0  0  0  0  0  0  0  0  0  0  0  0
  -31.3800  -15.7330   18.3170 O   0  0  0  0  0  1  0  0  0  0  0  0
  -31.2180  -18.0340   20.7120 N   0  0  0  0  0  2  0  0  0  0  0  0
  -30.3850  -18.2800   21.2340 H   0  0  0  0  0  0  0  0  0  0  0  0
  -25.6800  -14.1850   20.2710 C   0  0  0  0  0  0  0  0  0  0  0  0
  -24.6210  -13.4440   20.7200 C   0  0  0  0  0  0  0  0  0  0  0  0
  -25.0080  -12.0770   20.5800 C   0  0  0  0  0  0  0  0  0  0  0  0
  -26.6410  -13.2760   19.8720 N   0  0  0  0  0  0  0  0  0  0  0  0
  -26.2570  -11.9960   20.1240 N   0  0  0  0  0  0  0  0  0  0  0  0
  -24.2310  -10.8460   20.7990 C   0  0  0  0  0  0  0  0  0  0  0  0
  -24.6280   -9.8800   21.7500 C   0  0  0  0  0  3  0  0  0  0  0  0
  -23.8510   -8.7180   21.9580 C   0  0  0  0  0  3  0  0  0  0  0  0
  -22.6640   -8.5130   21.2140 C   0  0  0  0  0  0  0  0  0  0  0  0
  -22.2860   -9.4680   20.2530 C   0  0  0  0  0  3  0  0  0  0  0  0
  -23.0630  -10.6200   20.0430 C   0  0  0  0  0  3  0  0  0  0  0  0
  -21.8610   -7.4050   21.3280 O   0  0  0  0  0  0  0  0  0  0  0  0
  -21.7040   -6.7490   22.5240 C   0  0  0  0  0  0  0  0  0  0  0  0
  -21.1850   -7.3970   23.6660 C   0  0  0  0  0  3  0  0  0  0  0  0
  -20.9770   -6.6680   24.8530 C   0  0  0  0  0  3  0  0  0  0  0  0
  -21.2740   -5.2930   24.8990 C   0  0  0  0  0  0  0  0  0  0  0  0
  -21.7830   -4.6450   23.7610 C   0  0  0  0  0  3  0  0  0  0  0  0
  -21.9950   -5.3690   22.5750 C   0  0  0  0  0  0  0  0  0  0  0  0
  -22.4660   -4.7360   21.4740 F   0  0  0  0  0  0  0  0  0  0  0  0
  -21.0660   -4.5900   26.0380 F   0  0  0  0  0  0  0  0  0  0  0  0
  -23.2920  -13.9820   21.1630 C   0  0  0  0  0  0  0  0  0  0  0  0
  -22.6430  -13.3060   22.1040 N   0  0  0  0  0  0  0  0  0  0  0  0
  -22.8440  -15.0340   20.7110 O   0  0  0  0  0  0  0  0  0  0  0  0
  -23.0280  -12.4520   22.4850 H   0  0  0  0  0  0  0  0  0  0  0  0
  -21.7540  -13.6390   22.4450 H   0  0  0  0  0  0  0  0  0  0  0  0
  -25.9060  -15.5530   20.1430 N   0  0  0  0  0  0  0  0  0  0  0  0
  -25.2210  -16.2520   20.4070 H   0  0  0  0  0  0  0  0  0  0  0  0
  -26.7870  -15.9540   19.8520 H   0  0  0  0  0  0  0  0  0  0  0  0
  -29.1860  -16.6820   22.9130 C   0  0  0  0  0  2  0  0  0  0  0  0
  -28.7680  -18.4210   24.7990 C   0  0  0  0  0  1  0  0  0  0  0  0
  -29.7530  -17.8210   23.7890 C   0  0  0  0  0  2  0  0  0  0  0  0
  -29.3430  -20.0570   17.8740 C   0  0  0  0  0  1  0  0  0  0  0  0
  -29.4520  -22.0270   17.7590 C   0  0  0  0  0 15  0  0  0  0  0  0
  -28.3520  -23.6660   17.5260 C   0  0  0  0  0  1  0  0  0  0  0  0
  -28.3630  -25.4630   17.5770 O   0  0  0  0  0  0  0  0  0  0  0  0
  -25.1100  -30.8570   22.2120 C   0  0  0  0  0  0  0  0  0  0  0  0
  -27.3470  -26.6200   17.9050 C   0  0  0  0  0  0  0  0  0  0  0  0
  -23.7450  -29.7490   20.4980 C   0  0  0  0  0  3  0  0  0  0  0  0
  -25.0220  -28.5090   18.5890 C   0  0  0  0  0  0  0  0  0  0  0  0
  -26.2740  -30.0610   20.0600 C   0  0  0  0  0  2  0  0  0  0  0  0
  -26.2870  -28.7930   19.1150 C   0  0  0  0  0  0  0  0  0  0  0  0
  -27.4220  -27.8820   18.7510 C   0  0  0  0  0  3  0  0  0  0  0  0
  -26.0300  -26.5660   17.3740 C   0  0  0  0  0  3  0  0  0  0  0  0
  -24.9300  -27.4250   17.6950 C   0  0  0  0  0  3  0  0  0  0  0  0
  -23.8050  -29.3610   18.9950 C   0  0  0  0  0  2  0  0  0  0  0  0
  -25.0750  -30.2470   20.9770 N   0  0  0  0  0  0  0  0  0  0  0  0
  -24.0940  -30.9820   22.9170 O   0  0  0  0  0  0  0  0  0  0  0  0
  -23.2070  -28.5550   21.3330 C   0  0  0  0  0  0  0  0  0  0  0  0
  -21.8760  -28.3440   21.3530 N   0  0  0  0  0  0  0  0  0  0  0  0
  -23.9950  -27.8220   21.9360 O   0  0  0  0  0  0  0  0  0  0  0  0
  -21.2810  -28.9870   20.8500 H   0  0  0  0  0  0  0  0  0  0  0  0
  -18.6570  -26.7750   21.9640 C   0  0  0  0  0  0  0  0  0  0  0  0
  -21.2060  -27.2210   22.0170 C   0  0  0  0  0  3  0  0  0  0  0  0
  -21.3420  -25.9260   21.1850 C   0  0  0  0  0  2  0  0  0  0  0  0
  -20.1590  -25.6900   20.2410 C   0  0  0  0  0  2  0  0  0  0  0  0
  -18.8510  -25.5920   21.0300 C   0  0  0  0  0  2  0  0  0  0  0  0
  -19.7600  -27.5480   22.4150 C   0  0  0  0  0  0  0  0  0  0  0  0
  -19.5190  -28.6540   23.2610 C   0  0  0  0  0  3  0  0  0  0  0  0
  -18.2090  -28.9890   23.6530 C   0  0  0  0  0  3  0  0  0  0  0  0
  -17.1230  -28.2150   23.2110 C   0  0  0  0  0  3  0  0  0  0  0  0
  -17.3480  -27.1080   22.3730 C   0  0  0  0  0  3  0  0  0  0  0  0
  -26.4320  -31.4430   22.8000 C   0  0  0  0  0  3  0  0  0  0  0  0
  -26.0840  -32.5950   23.6570 N   0  0  0  0  0  0  0  0  0  0  0  0
  -26.3230  -33.8780   23.3610 C   0  0  0  0  0  0  0  0  0  0  0  0
  -26.9130  -34.2240   22.3330 O   0  0  0  0  0  0  0  0  0  0  0  0
  -25.5480  -32.3920   24.4890 H   0  0  0  0  0  0  0  0  0  0  0  0
  -24.5500  -35.6080   23.8260 C   0  0  0  0  0  1  0  0  0  0  0  0
  -25.8370  -34.9540   24.3570 C   0  0  0  0  0  3  0  0  0  0  0  0
  -27.9860  -35.5170   25.4020 C   0  0  0  0  0  1  0  0  0  0  0  0
  -26.8430  -36.0040   24.6350 N   0  0  0  0  0  0  0  0  0  0  0  0
  -26.4240  -36.7760   25.1450 H   0  0  0  0  0  0  0  0  0  0  0  0
  -27.2560  -30.3860   23.6350 C   0  0  1  0  0  0  0  0  0  0  0  0
  -26.4280  -29.6730   24.7280 C   0  0  0  0  0  1  0  0  0  0  0  0
  -27.8530  -29.2920   22.7220 C   0  0  0  0  0  1  0  0  0  0  0  0
  -28.4590  -31.0820   24.3160 C   0  0  0  0  0  1  0  0  0  0  0  0
  2  5  1  0
  3  8  1  0
  4 48  1  0
  5  6  1  0
  7  8  1  0
  8  9  1  0
 10 16  1  0
 11 16  1  0
 12 13  1  0
 12 11  1  0
 14 13  1  0
 14 23  1  0
 14 15  1  0
 16 15  1  0
 17 10  1  0
 18  9  1  0
 18 19  1  0
 20 21  2  0
 21 40  1  0
 22 21  1  0
 22 25  1  0
 23 24  1  0
 23 20  1  0
 24 22  2  0
 25 26  1  0
 26 27  2  0
 28 31  1  0
 28 27  1  0
 29 28  2  0
 30 29  1  0
 30 25  2  0
 31 32  1  0
 32 37  2  0
 32 33  1  0
 33 34  2  0
 34 35  1  0
 35 39  1  0
 36 35  2  0
 37 36  1  0
 38 37  1  0
 40 41  1  0
 41 44  1  0
 41 43  1  0
 42 40  2  0
 45 20  1  0
 45 46  1  0
 47 45  1  0
 48 50  1  0
 50 49  1  0
 51  5  1  0
 53 54  1  0
 54 56  1  0
 55 66  2  0
 56 61  1  0
 57 65  1  0
 57 67  1  0
 58 64  1  0
 58 60  1  0
 59 65  1  0
 60 59  1  0
 61 60  2  0
 62 63  1  0
 62 56  2  0
 63 58  2  0
 64 57  1  0
 65 55  1  0
 67 68  1  0
 67 69  2  0
 70 68  1  0
 71 80  2  0
 71 76  1  0
 72 68  1  0
 72 76  1  0
 73 72  1  0
 74 75  1  0
 74 73  1  0
 75 71  1  0
 76 77  2  0
 77 78  1  0
 79 78  2  0
 80 79  1  0
 81 55  1  0
 81 91  1  0
 81 82  1  0
 82 85  1  0
 83 82  1  0
 83 87  1  0
 84 83  2  0
 87 86  1  0
 87 89  1  0
 89 90  1  0
 89 88  1  0
 91 94  1  1
 91 92  1  0
 93 91  1  0
M  ISO  4  10 100  18 100  53 101  54 101
M  END
>  <TORSDO>  (82) 
F 23

>  <SCORE>  (82) 
0.414

>  <name>  (82) 
81

>  <ligand_id>  (82) 
81

>  <original_smiles>  (82) 
[H]c1c([H])c([H])c2c(c1[H])C([H])([H])C([H])([H])C([H])([H])C2([H])N([H])C(=O)C1([H])N(C(=O)C([H])(N([H])C(=O)C([H])(N([H])C([H])([H])[H])C([H])([H])[H])C(C([H])([H])[H])(C([H])([H])[H])C([H])([H])[H])C([H])([H])c2c([H])c(OC([H])([H])C([H])([H])C([H])([H])c3nc(C([H])([H])C([H])([H])C([H])([H])[H])c([H])c(C([H])(C([H])([H])[H])C([H])([H])N([H])C(=O)N4C([H])([H])C([H])([H])C([H])([H])C([H])(n5nc(-c6c([H])c([H])c(Oc7c([H])c([H])c(F)c([H])c7F)c([H])c6[H])c(C(=O)N([H])[H])c5N([H])[H])C4([H])[H])c3[H])c([H])c([H])c2C1([H])[H]

>  <smiles>  (82) 
[H]c1c([H])c([H])c2c(c1[H])C([H])([H])C([H])([H])C([H])([H])C2([H])N([H])C(=O)C1([H])N(C(=O)C([H])(N([H])C(=O)C([H])(N([H])C([H])([H])[H])C([H])([H])[H])C(C([H])([H])[H])(C([H])([H])[H])C([H])([H])[H])C([H])([H])c2c([H])c(OC([H])([H])C([H])([H])C([H])([H])c3nc(C([H])([H])C([H])([H])C([H])([H])[H])c([H])c(C([H])(C([H])([H])[H])C([H])([H])N([H])C(=O)N4C([H])([H])C([H])([H])C([H])([H])C([H])(n5nc(-c6c([H])c([H])c(Oc7c([H])c([H])c(F)c([H])c7F)c([H])c6[H])c(C(=O)N([H])[H])c5N([H])[H])C4([H])[H])c3[H])c([H])c([H])c2C1([H])[H]

$$$$
82:0:0
     RDKit          3D

 93101  0  0  1  0  0  0  0  0999 V2000
  -29.1730  -20.3990   20.4520 C   0  0  0  0  0  3  0  0  0  0  0  0
  -29.3060  -21.5540   19.7130 C   0  0  0  0  0  0  0  0  0  0  0  0
  -30.3940  -21.3600   18.8610 N   0  0  0  0  0  0  0  0  0  0  0  0
  -30.9250  -20.1850   19.0700 N   0  0  0  0  0  0  0  0  0  0  0  0
  -30.1960  -19.5460   20.0260 N   0  0  0  0  0  0  0  0  0  0  0  0
  -28.3610  -22.7550   19.5950 C   0  0  0  0  0  2  0  0  0  0  0  0
  -28.8940  -24.2240   19.7900 C   0  0  0  0  0  2  0  0  0  0  0  0
  -27.7680  -25.2820   19.5000 C   0  0  0  0  0  2  0  0  0  0  0  0
  -27.9840  -26.7050   19.7570 O   0  0  0  0  0  0  0  0  0  0  0  0
  -24.4520  -31.9480   23.1700 C   0  0  0  0  0  0  0  0  0  0  0  0
  -26.8460  -27.5170   19.8070 C   0  0  0  0  0  0  0  0  0  0  0  0
  -23.1340  -30.6050   21.5700 C   0  0  0  0  0  3  0  0  0  0  0  0
  -24.4800  -29.1030   20.0060 C   0  0  0  0  0  0  0  0  0  0  0  0
  -25.6550  -30.9320   21.2300 C   0  0  0  0  0  2  0  0  0  0  0  0
  -25.6840  -29.5780   20.5390 C   0  0  0  0  0  0  0  0  0  0  0  0
  -26.8680  -28.7960   20.4330 C   0  0  0  0  0  3  0  0  0  0  0  0
  -25.6110  -27.0870   19.2580 C   0  0  0  0  0  3  0  0  0  0  0  0
  -24.4410  -27.8600   19.3600 C   0  0  0  0  0  3  0  0  0  0  0  0
  -23.2510  -29.9730   20.1600 C   0  0  0  0  0  2  0  0  0  0  0  0
  -24.4350  -31.1750   22.0460 N   0  0  0  0  0  0  0  0  0  0  0  0
  -23.4070  -32.2140   23.7820 O   0  0  0  0  0  0  0  0  0  0  0  0
  -22.5300  -29.5600   22.5380 C   0  0  0  0  0  0  0  0  0  0  0  0
  -21.2190  -29.3030   22.4040 N   0  0  0  0  0  0  0  0  0  0  0  0
  -23.2400  -28.9830   23.3670 O   0  0  0  0  0  0  0  0  0  0  0  0
  -20.7030  -29.8240   21.7090 H   0  0  0  0  0  0  0  0  0  0  0  0
  -17.9250  -27.8790   22.8500 C   0  0  0  0  0  0  0  0  0  0  0  0
  -20.4480  -28.3320   23.1830 C   0  0  0  0  0  3  0  0  0  0  0  0
  -20.6710  -26.8960   22.6560 C   0  0  0  0  0  2  0  0  0  0  0  0
  -19.6250  -26.4630   21.6240 C   0  0  0  0  0  2  0  0  0  0  0  0
  -18.2170  -26.5260   22.2240 C   0  0  0  0  0  2  0  0  0  0  0  0
  -18.9720  -28.7340   23.2850 C   0  0  0  0  0  0  0  0  0  0  0  0
  -18.6440  -29.9950   23.8280 C   0  0  0  0  0  3  0  0  0  0  0  0
  -17.3020  -30.4040   23.9420 C   0  0  0  0  0  3  0  0  0  0  0  0
  -16.2690  -29.5470   23.5240 C   0  0  0  0  0  3  0  0  0  0  0  0
  -16.5800  -28.2870   22.9830 C   0  0  0  0  0  3  0  0  0  0  0  0
  -25.7790  -32.5510   23.7260 C   0  0  0  0  0  3  0  0  0  0  0  0
  -25.5120  -33.9510   24.0850 N   0  0  0  0  0  0  0  0  0  0  0  0
  -25.7860  -35.0020   23.3000 C   0  0  0  0  0  0  0  0  0  0  0  0
  -26.3610  -34.8950   22.2140 O   0  0  0  0  0  0  0  0  0  0  0  0
  -24.9910  -34.1070   24.9350 H   0  0  0  0  0  0  0  0  0  0  0  0
  -24.0330  -36.7960   23.1230 C   0  0  0  0  0  1  0  0  0  0  0  0
  -25.3520  -36.3930   23.8010 C   0  0  0  0  0  3  0  0  0  0  0  0
  -27.5540  -37.2870   24.4160 C   0  0  0  0  0  1  0  0  0  0  0  0
  -26.3700  -37.4430   23.5750 N   0  0  0  0  0  0  0  0  0  0  0  0
  -25.9800  -38.3660   23.7430 H   0  0  0  0  0  0  0  0  0  0  0  0
  -26.3490  -31.7570   24.9650 C   0  0  1  0  0  0  0  0  0  0  0  0
  -25.3000  -31.4880   26.0680 C   0  0  0  0  0  1  0  0  0  0  0  0
  -26.9260  -30.3930   24.5200 C   0  0  0  0  0  1  0  0  0  0  0  0
  -27.5190  -32.5480   25.5970 C   0  0  0  0  0  1  0  0  0  0  0  0
  -30.6020  -18.1720   20.4720 C   0  0  0  0  0  3  0  0  0  0  0  0
  -32.4100  -19.1870   21.9810 C   0  0  0  0  0  1  0  0  0  0  0  0
  -31.8170  -16.8080   22.3030 C   0  0  0  0  0  1  0  0  0  0  0  0
  -30.1900  -18.5980   22.9790 C   0  0  0  0  0  1  0  0  0  0  0  0
  -31.2300  -18.1860   21.9170 C   0  0  2  0  0  0  0  0  0  0  0  0
  -29.4730  -17.1130   20.1780 C   0  0  0  0  0  2  0  0  0  0  0  0
  -30.3430  -14.6970   19.9770 C   0  0  0  0  0  0  0  0  0  0  0  0
  -30.0640  -12.5000   18.8780 C   0  0  0  0  0  2  0  0  0  0  0  0
  -29.0230  -12.6600   17.7480 C   0  0  0  0  0  2  0  0  0  0  0  0
  -27.5880  -12.4770   18.2860 C   0  0  0  0  0  2  0  0  0  0  0  0
  -27.3240  -13.2990   19.5760 C   0  0  0  0  0  3  0  0  0  0  0  0
  -28.4710  -13.1120   20.5980 C   0  0  0  0  0  2  0  0  0  0  0  0
  -29.7390  -13.4720   19.9350 N   0  0  0  0  0  0  0  0  0  0  0  0
  -31.3930  -14.9400   19.3810 O   0  0  0  0  0  0  0  0  0  0  0  0
  -29.6130  -15.6770   20.5590 N   0  0  0  0  0  0  0  0  0  0  0  0
  -28.8370  -15.3220   21.0970 H   0  0  0  0  0  0  0  0  0  0  0  0
  -24.9940  -13.8450   20.5250 C   0  0  0  0  0  0  0  0  0  0  0  0
  -23.9640  -13.0440   20.9410 C   0  0  0  0  0  0  0  0  0  0  0  0
  -24.4240  -11.7000   20.7910 C   0  0  0  0  0  0  0  0  0  0  0  0
  -26.0170  -12.9860   20.1540 N   0  0  0  0  0  0  0  0  0  0  0  0
  -25.6810  -11.6880   20.3680 N   0  0  0  0  0  0  0  0  0  0  0  0
  -23.7190  -10.4230   20.9710 C   0  0  0  0  0  0  0  0  0  0  0  0
  -24.1540   -9.4640   21.9120 C   0  0  0  0  0  3  0  0  0  0  0  0
  -23.4490   -8.2540   22.0790 C   0  0  0  0  0  3  0  0  0  0  0  0
  -22.2950   -7.9920   21.3040 C   0  0  0  0  0  0  0  0  0  0  0  0
  -21.8780   -8.9400   20.3520 C   0  0  0  0  0  3  0  0  0  0  0  0
  -22.5850  -10.1410   20.1840 C   0  0  0  0  0  3  0  0  0  0  0  0
  -21.5630   -6.8310   21.3790 O   0  0  0  0  0  0  0  0  0  0  0  0
  -21.4390   -6.1320   22.5510 C   0  0  0  0  0  0  0  0  0  0  0  0
  -20.8300   -6.6940   23.6950 C   0  0  0  0  0  3  0  0  0  0  0  0
  -20.6610   -5.9180   24.8580 C   0  0  0  0  0  3  0  0  0  0  0  0
  -21.0930   -4.5780   24.8790 C   0  0  0  0  0  0  0  0  0  0  0  0
  -21.6960   -4.0140   23.7400 C   0  0  0  0  0  3  0  0  0  0  0  0
  -21.8660   -4.7890   22.5790 C   0  0  0  0  0  0  0  0  0  0  0  0
  -22.4270   -4.2330   21.4780 F   0  0  0  0  0  0  0  0  0  0  0  0
  -20.9240   -3.8280   25.9930 F   0  0  0  0  0  0  0  0  0  0  0  0
  -22.5960  -13.4950   21.3660 C   0  0  0  0  0  0  0  0  0  0  0  0
  -21.9430  -12.7350   22.2380 N   0  0  0  0  0  0  0  0  0  0  0  0
  -22.1160  -14.5530   20.9590 O   0  0  0  0  0  0  0  0  0  0  0  0
  -22.3450  -11.8780   22.5880 H   0  0  0  0  0  0  0  0  0  0  0  0
  -21.0290  -13.0180   22.5640 H   0  0  0  0  0  0  0  0  0  0  0  0
  -25.1390  -15.2240   20.4150 N   0  0  0  0  0  0  0  0  0  0  0  0
  -24.3810  -15.8630   20.6280 H   0  0  0  0  0  0  0  0  0  0  0  0
  -25.9510  -15.6880   20.0280 H   0  0  0  0  0  0  0  0  0  0  0  0
  2  1  2  0
  3  4  2  0
  3  2  1  0
  4  5  1  0
  5  1  1  0
  5 50  1  0
  6  2  1  0
  6  7  1  0
  8  9  1  0
  8  7  1  0
  9 11  1  0
 10 21  2  0
 11 16  1  0
 12 20  1  0
 12 22  1  0
 13 19  1  0
 13 15  1  0
 14 20  1  0
 15 14  1  0
 16 15  2  0
 17 18  1  0
 17 11  2  0
 18 13  2  0
 19 12  1  0
 20 10  1  0
 22 24  2  0
 23 22  1  0
 25 23  1  0
 26 35  2  0
 26 31  1  0
 27 23  1  0
 27 31  1  0
 28 27  1  0
 29 30  1  0
 29 28  1  0
 30 26  1  0
 31 32  2  0
 32 33  1  0
 34 33  2  0
 35 34  1  0
 36 10  1  0
 36 37  1  0
 36 46  1  0
 37 40  1  0
 38 42  1  0
 38 37  1  0
 39 38  2  0
 42 41  1  0
 44 45  1  0
 44 42  1  0
 44 43  1  0
 46 49  1  1
 46 47  1  0
 48 46  1  0
 50 55  1  0
 50 54  1  0
 54 51  1  6
 54 52  1  0
 54 53  1  0
 55 64  1  0
 56 64  1  0
 57 62  1  0
 58 59  1  0
 58 57  1  0
 60 59  1  0
 60 69  1  0
 60 61  1  0
 62 56  1  0
 62 61  1  0
 63 56  2  0
 64 65  1  0
 66 67  2  0
 67 86  1  0
 68 67  1  0
 68 71  1  0
 69 70  1  0
 69 66  1  0
 70 68  2  0
 71 72  1  0
 72 73  2  0
 74 77  1  0
 74 73  1  0
 75 74  2  0
 76 75  1  0
 76 71  2  0
 77 78  1  0
 78 83  2  0
 78 79  1  0
 79 80  2  0
 80 81  1  0
 81 85  1  0
 82 81  2  0
 83 82  1  0
 84 83  1  0
 86 87  1  0
 87 90  1  0
 87 89  1  0
 88 86  2  0
 91 66  1  0
 91 92  1  0
 93 91  1  0
M  ISO  4   8 101   9 101  56 100  64 100
M  END
>  <TORSDO>  (83) 
F 22

>  <SCORE>  (83) 
-10.663

>  <name>  (83) 
82

>  <ligand_id>  (83) 
82

>  <original_smiles>  (83) 
[H]c1c([H])c([H])c2c(c1[H])C([H])([H])C([H])([H])C([H])([H])C2([H])N([H])C(=O)C1([H])N(C(=O)C([H])(N([H])C(=O)C([H])(N([H])C([H])([H])[H])C([H])([H])[H])C(C([H])([H])[H])(C([H])([H])[H])C([H])([H])[H])C([H])([H])c2c([H])c(OC([H])([H])C([H])([H])C([H])([H])c3nnn(C([H])(C([H])([H])N([H])C(=O)N4C([H])([H])C([H])([H])C([H])([H])C([H])(n5nc(-c6c([H])c([H])c(Oc7c([H])c([H])c(F)c([H])c7F)c([H])c6[H])c(C(=O)N([H])[H])c5N([H])[H])C4([H])[H])C(C([H])([H])[H])(C([H])([H])[H])C([H])([H])[H])c3[H])c([H])c([H])c2C1([H])[H]

>  <smiles>  (83) 
[H]c1c([H])c([H])c2c(c1[H])C([H])([H])C([H])([H])C([H])([H])C2([H])N([H])C(=O)C1([H])N(C(=O)C([H])(N([H])C(=O)C([H])(N([H])C([H])([H])[H])C([H])([H])[H])C(C([H])([H])[H])(C([H])([H])[H])C([H])([H])[H])C([H])([H])c2c([H])c(OC([H])([H])C([H])([H])C([H])([H])c3nnn(C([H])(C([H])([H])N([H])C(=O)N4C([H])([H])C([H])([H])C([H])([H])C([H])(n5nc(-c6c([H])c([H])c(Oc7c([H])c([H])c(F)c([H])c7F)c([H])c6[H])c(C(=O)N([H])[H])c5N([H])[H])C4([H])[H])C(C([H])([H])[H])(C([H])([H])[H])C([H])([H])[H])c3[H])c([H])c([H])c2C1([H])[H]

$$$$
83:0:0
     RDKit          3D

 96104  0  0  1  0  0  0  0  0999 V2000
  -28.8700  -19.2390   20.2080 C   0  0  0  0  0  3  0  0  0  0  0  0
  -29.7570  -18.2030   20.4480 C   0  0  0  0  0  0  0  0  0  0  0  0
  -30.5310  -20.0920   21.3900 C   0  0  0  0  0  3  0  0  0  0  0  0
  -29.3590  -20.3910   20.7920 N   0  0  0  0  0  0  0  0  0  0  0  0
  -30.7490  -18.7760   21.2030 N   0  0  0  0  0  0  0  0  0  0  0  0
  -31.5770  -18.2830   21.5190 H   0  0  0  0  0  0  0  0  0  0  0  0
  -30.7540  -16.7610   18.6540 C   0  0  0  0  0  1  0  0  0  0  0  0
  -29.8180  -16.7850   19.8810 C   0  0  0  0  0  3  0  0  0  0  0  0
  -30.7570  -14.5270   20.6740 C   0  0  0  0  0  0  0  0  0  0  0  0
  -30.5140  -12.2790   19.6960 C   0  0  0  0  0  2  0  0  0  0  0  0
  -29.6490  -12.4280   18.4230 C   0  0  0  0  0  2  0  0  0  0  0  0
  -28.1500  -12.3320   18.7650 C   0  0  0  0  0  2  0  0  0  0  0  0
  -27.7480  -13.2230   19.9720 C   0  0  0  0  0  3  0  0  0  0  0  0
  -28.7430  -13.0710   21.1490 C   0  0  0  0  0  2  0  0  0  0  0  0
  -30.1000  -13.3290   20.6440 N   0  0  0  0  0  0  0  0  0  0  0  0
  -31.9360  -14.6400   20.3340 O   0  0  0  0  0  0  0  0  0  0  0  0
  -29.9580  -15.6170   20.8060 N   0  0  0  0  0  0  0  0  0  0  0  0
  -29.0960  -15.4060   21.2790 H   0  0  0  0  0  0  0  0  0  0  0  0
  -25.3220  -13.8760   20.5240 C   0  0  0  0  0  0  0  0  0  0  0  0
  -24.2260  -13.1290   20.8560 C   0  0  0  0  0  0  0  0  0  0  0  0
  -24.6690  -11.7700   20.8940 C   0  0  0  0  0  0  0  0  0  0  0  0
  -26.3700  -12.9770   20.3840 N   0  0  0  0  0  0  0  0  0  0  0  0
  -25.9770  -11.7080   20.6660 N   0  0  0  0  0  0  0  0  0  0  0  0
  -23.9150  -10.5230   21.0810 C   0  0  0  0  0  0  0  0  0  0  0  0
  -24.3190   -9.5510   22.0220 C   0  0  0  0  0  3  0  0  0  0  0  0
  -23.5660   -8.3710   22.2010 C   0  0  0  0  0  3  0  0  0  0  0  0
  -22.3980   -8.1500   21.4350 C   0  0  0  0  0  0  0  0  0  0  0  0
  -22.0110   -9.1110   20.4850 C   0  0  0  0  0  3  0  0  0  0  0  0
  -22.7630  -10.2830   20.3060 C   0  0  0  0  0  3  0  0  0  0  0  0
  -21.6250   -7.0190   21.5130 O   0  0  0  0  0  0  0  0  0  0  0  0
  -21.5680   -6.2630   22.6570 C   0  0  0  0  0  0  0  0  0  0  0  0
  -21.1480   -6.8100   23.8890 C   0  0  0  0  0  3  0  0  0  0  0  0
  -21.0400   -5.9840   25.0260 C   0  0  0  0  0  3  0  0  0  0  0  0
  -21.3430   -4.6110   24.9280 C   0  0  0  0  0  0  0  0  0  0  0  0
  -21.7560   -4.0650   23.7010 C   0  0  0  0  0  3  0  0  0  0  0  0
  -21.8650   -4.8890   22.5670 C   0  0  0  0  0  0  0  0  0  0  0  0
  -22.2420   -4.3540   21.3810 F   0  0  0  0  0  0  0  0  0  0  0  0
  -21.2330   -3.8140   26.0160 F   0  0  0  0  0  0  0  0  0  0  0  0
  -22.8210  -13.6270   21.0290 C   0  0  0  0  0  0  0  0  0  0  0  0
  -22.0470  -12.9860   21.8940 N   0  0  0  0  0  0  0  0  0  0  0  0
  -22.4200  -14.6290   20.4320 O   0  0  0  0  0  0  0  0  0  0  0  0
  -22.3900  -12.1810   22.3980 H   0  0  0  0  0  0  0  0  0  0  0  0
  -21.1010  -13.3000   22.0530 H   0  0  0  0  0  0  0  0  0  0  0  0
  -25.5120  -15.2390   20.3030 N   0  0  0  0  0  0  0  0  0  0  0  0
  -24.7310  -15.8860   20.3140 H   0  0  0  0  0  0  0  0  0  0  0  0
  -26.3640  -15.6420   19.9360 H   0  0  0  0  0  0  0  0  0  0  0  0
  -31.4880  -21.0280   22.0700 C   0  0  0  0  0  2  0  0  0  0  0  0
  -31.2650  -21.2260   23.5880 C   0  0  0  0  0  2  0  0  0  0  0  0
  -30.1390  -22.1900   24.0210 C   0  0  0  0  0  2  0  0  0  0  0  0
  -29.0070  -24.4650   23.7170 C   0  0  0  0  0  1  0  0  0  0  0  0
  -30.1900  -23.5690   23.3360 C   0  0  0  0  0  2  0  0  0  0  0  0
  -28.7350  -21.7590   20.7900 C   0  0  0  0  0  2  0  0  0  0  0  0
  -29.1340  -22.6790   19.5970 C   0  0  0  0  0  2  0  0  0  0  0  0
  -29.2330  -24.2330   19.8460 C   0  0  0  0  0  2  0  0  0  0  0  0
  -27.9100  -25.0550   19.9100 C   0  0  0  0  0  2  0  0  0  0  0  0
  -28.0950  -26.5010   20.0030 O   0  0  0  0  0  0  0  0  0  0  0  0
  -24.5040  -31.8550   23.2170 C   0  0  0  0  0  0  0  0  0  0  0  0
  -26.9580  -27.3070   20.0390 C   0  0  0  0  0  0  0  0  0  0  0  0
  -23.2450  -30.4930   21.5900 C   0  0  0  0  0  3  0  0  0  0  0  0
  -24.6300  -28.9410   20.1180 C   0  0  0  0  0  0  0  0  0  0  0  0
  -25.7840  -30.7740   21.3540 C   0  0  0  0  0  2  0  0  0  0  0  0
  -25.8200  -29.4040   20.6900 C   0  0  0  0  0  0  0  0  0  0  0  0
  -26.9930  -28.6030   20.6300 C   0  0  0  0  0  3  0  0  0  0  0  0
  -25.7350  -26.8810   19.4680 C   0  0  0  0  0  3  0  0  0  0  0  0
  -24.5870  -27.6900   19.4910 C   0  0  0  0  0  3  0  0  0  0  0  0
  -23.4180  -29.8390   20.1980 C   0  0  0  0  0  2  0  0  0  0  0  0
  -24.5330  -31.0530   22.1130 N   0  0  0  0  0  0  0  0  0  0  0  0
  -23.4350  -32.1500   23.7690 O   0  0  0  0  0  0  0  0  0  0  0  0
  -22.5810  -29.4780   22.5540 C   0  0  0  0  0  0  0  0  0  0  0  0
  -21.2580  -29.2910   22.4170 N   0  0  0  0  0  0  0  0  0  0  0  0
  -23.2540  -28.8670   23.3870 O   0  0  0  0  0  0  0  0  0  0  0  0
  -20.7720  -29.8450   21.7270 H   0  0  0  0  0  0  0  0  0  0  0  0
  -17.8880  -28.0350   22.8580 C   0  0  0  0  0  0  0  0  0  0  0  0
  -20.4330  -28.3570   23.1890 C   0  0  0  0  0  3  0  0  0  0  0  0
  -20.5780  -26.9120   22.6610 C   0  0  0  0  0  2  0  0  0  0  0  0
  -19.5110  -26.5330   21.6290 C   0  0  0  0  0  2  0  0  0  0  0  0
  -18.1100  -26.6690   22.2310 C   0  0  0  0  0  2  0  0  0  0  0  0
  -18.9780  -28.8320   23.2960 C   0  0  0  0  0  0  0  0  0  0  0  0
  -18.7160  -30.1060   23.8450 C   0  0  0  0  0  3  0  0  0  0  0  0
  -17.3970  -30.5830   23.9580 C   0  0  0  0  0  3  0  0  0  0  0  0
  -16.3210  -29.7840   23.5330 C   0  0  0  0  0  3  0  0  0  0  0  0
  -16.5690  -28.5110   22.9900 C   0  0  0  0  0  3  0  0  0  0  0  0
  -25.8070  -32.4570   23.8220 C   0  0  0  0  0  3  0  0  0  0  0  0
  -26.3310  -31.6640   25.0810 C   0  0  1  0  0  0  0  0  0  0  0  0
  -25.2560  -31.4370   26.1710 C   0  0  0  0  0  1  0  0  0  0  0  0
  -26.8710  -30.2770   24.6640 C   0  0  0  0  0  1  0  0  0  0  0  0
  -27.5230  -32.4210   25.7160 C   0  0  0  0  0  1  0  0  0  0  0  0
  -25.5320  -33.8600   24.1670 N   0  0  0  0  0  0  0  0  0  0  0  0
  -25.8710  -34.9080   23.4070 C   0  0  0  0  0  0  0  0  0  0  0  0
  -26.5210  -34.7960   22.3630 O   0  0  0  0  0  0  0  0  0  0  0  0
  -24.9540  -34.0240   24.9790 H   0  0  0  0  0  0  0  0  0  0  0  0
  -24.1820  -36.7410   23.0880 C   0  0  0  0  0  1  0  0  0  0  0  0
  -25.4230  -36.3040   23.8810 C   0  0  0  0  0  3  0  0  0  0  0  0
  -27.5830  -37.1330   24.7000 C   0  0  0  0  0  1  0  0  0  0  0  0
  -26.4800  -37.3320   23.7640 N   0  0  0  0  0  0  0  0  0  0  0  0
  -26.0990  -38.2620   23.9150 H   0  0  0  0  0  0  0  0  0  0  0  0
  1  2  2  0
  1  4  1  0
  2  5  1  0
  3 47  1  0
  4  3  1  0
  5  3  1  0
  5  6  1  0
  8  7  1  0
  8  2  1  0
  8 17  1  0
  9 17  1  0
 10 15  1  0
 11 12  1  0
 11 10  1  0
 13 12  1  0
 13 22  1  0
 13 14  1  0
 15  9  1  0
 15 14  1  0
 16  9  2  0
 17 18  1  0
 19 20  2  0
 20 21  1  0
 20 39  1  0
 21 24  1  0
 22 19  1  0
 22 23  1  0
 23 21  2  0
 24 25  1  0
 25 26  2  0
 27 30  1  0
 27 26  1  0
 28 27  2  0
 29 28  1  0
 29 24  2  0
 30 31  1  0
 31 32  1  0
 32 33  2  0
 34 33  1  0
 34 38  1  0
 35 34  2  0
 36 31  2  0
 36 35  1  0
 37 36  1  0
 39 40  1  0
 40 43  1  0
 40 42  1  0
 41 39  2  0
 44 45  1  0
 44 19  1  0
 46 44  1  0
 47 48  1  0
 48 49  1  0
 51 50  1  0
 51 49  1  0
 52  4  1  0
 53 54  1  0
 53 52  1  0
 54 55  1  0
 55 56  1  0
 56 58  1  0
 57 68  2  0
 58 63  1  0
 59 67  1  0
 59 69  1  0
 60 66  1  0
 60 62  1  0
 61 67  1  0
 62 61  1  0
 63 62  2  0
 64 65  1  0
 64 58  2  0
 65 60  2  0
 66 59  1  0
 67 57  1  0
 69 71  2  0
 70 69  1  0
 72 70  1  0
 73 82  2  0
 73 78  1  0
 74 70  1  0
 74 78  1  0
 75 74  1  0
 76 77  1  0
 76 75  1  0
 77 73  1  0
 78 79  2  0
 79 80  1  0
 81 80  2  0
 82 81  1  0
 83 57  1  0
 83 88  1  0
 83 84  1  0
 84 87  1  1
 84 85  1  0
 86 84  1  0
 88 91  1  0
 89 93  1  0
 89 88  1  0
 90 89  2  0
 93 92  1  0
 95 93  1  0
 95 96  1  0
 95 94  1  0
M  ISO  4   9 100  17 100  55 101  56 101
M  END
>  <TORSDO>  (84) 
F 25

>  <SCORE>  (84) 
-12.296

>  <name>  (84) 
83

>  <ligand_id>  (84) 
83

>  <original_smiles>  (84) 
[H]c1c([H])c([H])c2c(c1[H])C([H])([H])C([H])([H])C([H])([H])C2([H])N([H])C(=O)C1([H])N(C(=O)C([H])(N([H])C(=O)C([H])(N([H])C([H])([H])[H])C([H])([H])[H])C(C([H])([H])[H])(C([H])([H])[H])C([H])([H])[H])C([H])([H])c2c([H])c(OC([H])([H])C([H])([H])C([H])([H])C([H])([H])n3c([H])c(C([H])(N([H])C(=O)N4C([H])([H])C([H])([H])C([H])([H])C([H])(n5nc(-c6c([H])c([H])c(Oc7c([H])c([H])c(F)c([H])c7F)c([H])c6[H])c(C(=O)N([H])[H])c5N([H])[H])C4([H])[H])C([H])([H])[H])[n+]([H])c3C([H])([H])C([H])([H])C([H])([H])C([H])([H])C([H])([H])[H])c([H])c([H])c2C1([H])[H]

>  <smiles>  (84) 
[H]c1c([H])c([H])c2c(c1[H])C([H])([H])C([H])([H])C([H])([H])C2([H])N([H])C(=O)C1([H])N(C(=O)C([H])(N([H])C(=O)C([H])(N([H])C([H])([H])[H])C([H])([H])[H])C(C([H])([H])[H])(C([H])([H])[H])C([H])([H])[H])C([H])([H])c2c([H])c(OC([H])([H])C([H])([H])C([H])([H])C([H])([H])n3c([H])c(C([H])(N([H])C(=O)N4C([H])([H])C([H])([H])C([H])([H])C([H])(n5nc(-c6c([H])c([H])c(Oc7c([H])c([H])c(F)c([H])c7F)c([H])c6[H])c(C(=O)N([H])[H])c5N([H])[H])C4([H])[H])C([H])([H])[H])[n+]([H])c3C([H])([H])C([H])([H])C([H])([H])C([H])([H])C([H])([H])[H])c([H])c([H])c2C1([H])[H]

$$$$
84:0:0
     RDKit          3D

 94102  0  0  1  0  0  0  0  0999 V2000
  -28.5950  -20.9150   19.8760 C   0  0  0  0  0  3  0  0  0  0  0  0
  -29.1590  -19.6420   19.6570 C   0  0  0  0  0  0  0  0  0  0  0  0
  -30.1730  -19.1650   20.5370 C   0  0  0  0  0  0  0  0  0  0  0  0
  -29.0380  -21.6920   20.9550 C   0  0  0  0  0  0  0  0  0  0  0  0
  -30.5780  -20.0510   21.5810 C   0  0  0  0  0  0  0  0  0  0  0  0
  -28.6450  -18.8310   18.4770 C   0  0  0  0  0  1  0  0  0  0  0  0
  -30.0170  -21.2690   21.7750 N   0  0  0  0  0  0  0  0  0  0  0  0
  -32.9180  -20.6280   22.3980 C   0  0  0  0  0  1  0  0  0  0  0  0
  -31.6730  -19.7530   22.6000 C   0  0  0  0  0  2  0  0  0  0  0  0
  -32.2700  -17.9030   19.8530 C   0  0  0  0  0  1  0  0  0  0  0  0
  -30.8040  -17.7640   20.3130 C   0  0  0  0  0  3  0  0  0  0  0  0
  -30.6180  -16.7750   21.5080 C   0  0  0  0  0  2  0  0  0  0  0  0
  -30.7280  -14.4610   20.5020 C   0  0  0  0  0  0  0  0  0  0  0  0
  -30.3800  -12.3400   19.2940 C   0  0  0  0  0  2  0  0  0  0  0  0
  -29.4410  -12.5730   18.0930 C   0  0  0  0  0  2  0  0  0  0  0  0
  -27.9680  -12.4460   18.5220 C   0  0  0  0  0  2  0  0  0  0  0  0
  -27.6390  -13.2740   19.7930 C   0  0  0  0  0  3  0  0  0  0  0  0
  -28.6880  -13.0250   20.8990 C   0  0  0  0  0  2  0  0  0  0  0  0
  -30.0180  -13.3130   20.3350 N   0  0  0  0  0  0  0  0  0  0  0  0
  -31.8450  -14.6330   20.0150 O   0  0  0  0  0  0  0  0  0  0  0  0
  -30.0920  -15.4470   21.1550 N   0  0  0  0  0  0  0  0  0  0  0  0
  -29.1640  -15.2300   21.4840 H   0  0  0  0  0  0  0  0  0  0  0  0
  -25.2380  -13.9000   20.4800 C   0  0  0  0  0  0  0  0  0  0  0  0
  -24.1630  -13.1360   20.8470 C   0  0  0  0  0  0  0  0  0  0  0  0
  -24.6170  -11.7820   20.8310 C   0  0  0  0  0  0  0  0  0  0  0  0
  -26.2810  -13.0120   20.2640 N   0  0  0  0  0  0  0  0  0  0  0  0
  -25.9100  -11.7340   20.5320 N   0  0  0  0  0  0  0  0  0  0  0  0
  -23.8840  -10.5240   21.0260 C   0  0  0  0  0  0  0  0  0  0  0  0
  -24.3090   -9.5580   21.9640 C   0  0  0  0  0  3  0  0  0  0  0  0
  -23.5750   -8.3660   22.1460 C   0  0  0  0  0  3  0  0  0  0  0  0
  -22.4030   -8.1310   21.3890 C   0  0  0  0  0  0  0  0  0  0  0  0
  -21.9970   -9.0860   20.4410 C   0  0  0  0  0  3  0  0  0  0  0  0
  -22.7300  -10.2700   20.2560 C   0  0  0  0  0  3  0  0  0  0  0  0
  -21.6420   -6.9900   21.4800 O   0  0  0  0  0  0  0  0  0  0  0  0
  -21.5930   -6.2480   22.6320 C   0  0  0  0  0  0  0  0  0  0  0  0
  -21.1870   -6.8090   23.8630 C   0  0  0  0  0  3  0  0  0  0  0  0
  -21.0830   -5.9940   25.0090 C   0  0  0  0  0  3  0  0  0  0  0  0
  -21.3760   -4.6190   24.9250 C   0  0  0  0  0  0  0  0  0  0  0  0
  -21.7770   -4.0590   23.6990 C   0  0  0  0  0  3  0  0  0  0  0  0
  -21.8830   -4.8700   22.5560 C   0  0  0  0  0  0  0  0  0  0  0  0
  -22.2480   -4.3210   21.3730 F   0  0  0  0  0  0  0  0  0  0  0  0
  -21.2700   -3.8350   26.0220 F   0  0  0  0  0  0  0  0  0  0  0  0
  -22.7660  -13.6220   21.1060 C   0  0  0  0  0  0  0  0  0  0  0  0
  -22.0300  -12.9360   21.9730 N   0  0  0  0  0  0  0  0  0  0  0  0
  -22.3370  -14.6460   20.5750 O   0  0  0  0  0  0  0  0  0  0  0  0
  -22.3900  -12.1080   22.4240 H   0  0  0  0  0  0  0  0  0  0  0  0
  -21.0930  -13.2460   22.1910 H   0  0  0  0  0  0  0  0  0  0  0  0
  -25.4130  -15.2680   20.2930 N   0  0  0  0  0  0  0  0  0  0  0  0
  -24.6520  -15.9310   20.3920 H   0  0  0  0  0  0  0  0  0  0  0  0
  -26.2740  -15.6980   19.9780 H   0  0  0  0  0  0  0  0  0  0  0  0
  -28.3800  -23.0230   21.3080 C   0  0  0  0  0  2  0  0  0  0  0  0
  -28.8090  -24.2440   20.4600 C   0  0  0  0  0  2  0  0  0  0  0  0
  -28.2800  -25.5590   21.0750 C   0  0  0  0  0  2  0  0  0  0  0  0
  -28.3730  -26.6920   20.1980 O   0  0  0  0  0  0  0  0  0  0  0  0
  -24.5750  -31.8870   23.2490 C   0  0  0  0  0  0  0  0  0  0  0  0
  -27.2250  -27.4530   20.1750 C   0  0  0  0  0  0  0  0  0  0  0  0
  -23.3720  -30.4820   21.6070 C   0  0  0  0  0  3  0  0  0  0  0  0
  -24.8300  -28.9450   20.1810 C   0  0  0  0  0  0  0  0  0  0  0  0
  -25.8950  -30.8460   21.4080 C   0  0  0  0  0  2  0  0  0  0  0  0
  -25.9860  -29.4750   20.7720 C   0  0  0  0  0  0  0  0  0  0  0  0
  -27.1900  -28.7340   20.7680 C   0  0  0  0  0  3  0  0  0  0  0  0
  -26.0590  -26.9360   19.5750 C   0  0  0  0  0  3  0  0  0  0  0  0
  -24.8610  -27.6750   19.5790 C   0  0  0  0  0  3  0  0  0  0  0  0
  -23.5830  -29.8010   20.2290 C   0  0  0  0  0  2  0  0  0  0  0  0
  -24.6330  -31.0860   22.1480 N   0  0  0  0  0  0  0  0  0  0  0  0
  -23.4950  -32.1590   23.7890 O   0  0  0  0  0  0  0  0  0  0  0  0
  -22.7210  -29.4620   22.5680 C   0  0  0  0  0  0  0  0  0  0  0  0
  -21.3970  -29.2820   22.4420 N   0  0  0  0  0  0  0  0  0  0  0  0
  -23.4040  -28.8350   23.3830 O   0  0  0  0  0  0  0  0  0  0  0  0
  -20.9080  -29.8420   21.7560 H   0  0  0  0  0  0  0  0  0  0  0  0
  -18.0190  -28.0930   22.9360 C   0  0  0  0  0  0  0  0  0  0  0  0
  -20.5770  -28.3460   23.2110 C   0  0  0  0  0  3  0  0  0  0  0  0
  -20.6770  -26.9150   22.6350 C   0  0  0  0  0  2  0  0  0  0  0  0
  -19.5760  -26.5950   21.6190 C   0  0  0  0  0  2  0  0  0  0  0  0
  -18.1940  -26.7430   22.2620 C   0  0  0  0  0  2  0  0  0  0  0  0
  -19.1390  -28.8520   23.3680 C   0  0  0  0  0  0  0  0  0  0  0  0
  -18.9230  -30.1170   23.9570 C   0  0  0  0  0  3  0  0  0  0  0  0
  -17.6190  -30.6220   24.1200 C   0  0  0  0  0  3  0  0  0  0  0  0
  -16.5140  -29.8600   23.7030 C   0  0  0  0  0  3  0  0  0  0  0  0
  -16.7150  -28.5970   23.1190 C   0  0  0  0  0  3  0  0  0  0  0  0
  -25.8620  -32.5170   23.8700 C   0  0  0  0  0  3  0  0  0  0  0  0
  -25.5560  -33.9170   24.1910 N   0  0  0  0  0  0  0  0  0  0  0  0
  -25.9010  -34.9650   23.4300 C   0  0  0  0  0  0  0  0  0  0  0  0
  -26.5810  -34.8530   22.4060 O   0  0  0  0  0  0  0  0  0  0  0  0
  -24.9480  -34.0770   24.9810 H   0  0  0  0  0  0  0  0  0  0  0  0
  -24.1840  -36.7640   23.0500 C   0  0  0  0  0  1  0  0  0  0  0  0
  -25.4150  -36.3560   23.8760 C   0  0  0  0  0  3  0  0  0  0  0  0
  -27.5460  -37.2310   24.7250 C   0  0  0  0  0  1  0  0  0  0  0  0
  -26.4540  -37.4040   23.7700 N   0  0  0  0  0  0  0  0  0  0  0  0
  -26.0500  -38.3270   23.9140 H   0  0  0  0  0  0  0  0  0  0  0  0
  -26.3770  -31.7500   25.1480 C   0  0  1  0  0  0  0  0  0  0  0  0
  -25.2810  -31.5160   26.2160 C   0  0  0  0  0  1  0  0  0  0  0  0
  -26.9560  -30.3700   24.7570 C   0  0  0  0  0  1  0  0  0  0  0  0
  -27.5300  -32.5420   25.8070 C   0  0  0  0  0  1  0  0  0  0  0  0
  1  4  1  0
  2  1  2  0
  2  3  1  0
  3  5  2  0
  4 51  1  0
  4  7  2  0
  5  7  1  0
  5  9  1  0
  6  2  1  0
  8  9  1  0
 11 10  1  0
 11  3  1  0
 11 12  1  0
 13 21  1  0
 14 19  1  0
 15 16  1  0
 15 14  1  0
 17 16  1  0
 17 26  1  0
 17 18  1  0
 19 13  1  0
 19 18  1  0
 20 13  2  0
 21 22  1  0
 21 12  1  0
 23 24  2  0
 24 43  1  0
 25 24  1  0
 25 28  1  0
 26 23  1  0
 26 27  1  0
 27 25  2  0
 28 29  1  0
 29 30  2  0
 31 34  1  0
 31 30  1  0
 32 31  2  0
 33 32  1  0
 33 28  2  0
 34 35  1  0
 35 36  1  0
 36 37  2  0
 38 37  1  0
 38 42  1  0
 39 38  2  0
 40 35  2  0
 40 39  1  0
 41 40  1  0
 43 44  1  0
 44 47  1  0
 44 46  1  0
 45 43  2  0
 48 49  1  0
 48 23  1  0
 50 48  1  0
 52 53  1  0
 52 51  1  0
 54 53  1  0
 55 66  2  0
 56 54  1  0
 56 61  1  0
 57 65  1  0
 57 67  1  0
 58 64  1  0
 58 60  1  0
 59 65  1  0
 60 59  1  0
 61 60  2  0
 62 63  1  0
 62 56  2  0
 63 58  2  0
 64 57  1  0
 65 55  1  0
 67 69  2  0
 68 67  1  0
 70 68  1  0
 71 80  2  0
 71 76  1  0
 72 68  1  0
 72 76  1  0
 73 72  1  0
 74 75  1  0
 74 73  1  0
 75 71  1  0
 76 77  2  0
 77 78  1  0
 79 78  2  0
 80 79  1  0
 81 55  1  0
 81 82  1  0
 81 91  1  0
 82 85  1  0
 83 87  1  0
 83 82  1  0
 84 83  2  0
 87 86  1  0
 89 87  1  0
 89 90  1  0
 89 88  1  0
 91 94  1  1
 91 92  1  0
 93 91  1  0
M  ISO  4  13 100  21 100  53 101  54 101
M  END
>  <TORSDO>  (85) 
F 22

>  <SCORE>  (85) 
-13.817

>  <name>  (85) 
84

>  <ligand_id>  (85) 
84

>  <original_smiles>  (85) 
[H]c1c([H])c([H])c2c(c1[H])C([H])([H])C([H])([H])C([H])([H])C2([H])N([H])C(=O)C1([H])N(C(=O)C([H])(N([H])C(=O)C([H])(N([H])C([H])([H])[H])C([H])([H])[H])C(C([H])([H])[H])(C([H])([H])[H])C([H])([H])[H])C([H])([H])c2c([H])c(OC([H])([H])C([H])([H])C([H])([H])c3nc(C([H])([H])C([H])([H])[H])c(C([H])(C([H])([H])[H])C([H])([H])N([H])C(=O)N4C([H])([H])C([H])([H])C([H])([H])C([H])(n5nc(-c6c([H])c([H])c(Oc7c([H])c([H])c(F)c([H])c7F)c([H])c6[H])c(C(=O)N([H])[H])c5N([H])[H])C4([H])[H])c(C([H])([H])[H])c3[H])c([H])c([H])c2C1([H])[H]

>  <smiles>  (85) 
[H]c1c([H])c([H])c2c(c1[H])C([H])([H])C([H])([H])C([H])([H])C2([H])N([H])C(=O)C1([H])N(C(=O)C([H])(N([H])C(=O)C([H])(N([H])C([H])([H])[H])C([H])([H])[H])C(C([H])([H])[H])(C([H])([H])[H])C([H])([H])[H])C([H])([H])c2c([H])c(OC([H])([H])C([H])([H])C([H])([H])c3nc(C([H])([H])C([H])([H])[H])c(C([H])(C([H])([H])[H])C([H])([H])N([H])C(=O)N4C([H])([H])C([H])([H])C([H])([H])C([H])(n5nc(-c6c([H])c([H])c(Oc7c([H])c([H])c(F)c([H])c7F)c([H])c6[H])c(C(=O)N([H])[H])c5N([H])[H])C4([H])[H])c(C([H])([H])[H])c3[H])c([H])c([H])c2C1([H])[H]

$$$$
85:0:0
     RDKit          3D

 95103  0  0  1  0  0  0  0  0999 V2000
  -27.0530  -20.4020   20.1100 C   0  0  0  0  0  2  0  0  0  0  0  0
  -28.9310  -18.6980   20.2780 C   0  0  0  0  0  3  0  0  0  0  0  0
  -29.9560  -18.2700   19.4650 C   0  0  0  0  0  0  0  0  0  0  0  0
  -28.9740  -20.0490   18.5160 C   0  0  0  0  0  3  0  0  0  0  0  0
  -28.6470  -21.0200   17.4270 C   0  0  0  0  0  1  0  0  0  0  0  0
  -28.3290  -19.7840   19.6660 N   0  0  0  0  0  0  0  0  0  0  0  0
  -29.9890  -19.1870   18.4460 N   0  0  0  0  0  0  0  0  0  0  0  0
  -30.6550  -19.1690   17.6830 H   0  0  0  0  0  0  0  0  0  0  0  0
  -31.1160  -16.6540   17.9760 C   0  0  0  0  0  1  0  0  0  0  0  0
  -30.8980  -17.0800   19.4530 C   0  0  0  0  0  3  0  0  0  0  0  0
  -31.2490  -14.8470   20.4710 C   0  0  0  0  0  0  0  0  0  0  0  0
  -31.0480  -12.5260   19.7280 C   0  0  0  0  0  2  0  0  0  0  0  0
  -30.2060  -12.5310   18.4360 C   0  0  0  0  0  2  0  0  0  0  0  0
  -28.7040  -12.4370   18.7720 C   0  0  0  0  0  2  0  0  0  0  0  0
  -28.2630  -13.4490   19.8640 C   0  0  0  0  0  3  0  0  0  0  0  0
  -29.2360  -13.4550   21.0640 C   0  0  0  0  0  2  0  0  0  0  0  0
  -30.5950  -13.6620   20.5440 N   0  0  0  0  0  0  0  0  0  0  0  0
  -32.4640  -14.9270   20.2710 O   0  0  0  0  0  0  0  0  0  0  0  0
  -30.4580  -15.9140   20.2420 N   0  0  0  0  0  0  0  0  0  0  0  0
  -29.4670  -15.7940   20.3710 H   0  0  0  0  0  0  0  0  0  0  0  0
  -25.8600  -14.1340   20.4710 C   0  0  0  0  0  0  0  0  0  0  0  0
  -24.7510  -13.3960   20.7920 C   0  0  0  0  0  0  0  0  0  0  0  0
  -25.1700  -12.0310   20.7800 C   0  0  0  0  0  0  0  0  0  0  0  0
  -26.8830  -13.2180   20.2850 N   0  0  0  0  0  0  0  0  0  0  0  0
  -26.4710  -11.9480   20.5320 N   0  0  0  0  0  0  0  0  0  0  0  0
  -24.3960  -10.7920   20.9340 C   0  0  0  0  0  0  0  0  0  0  0  0
  -24.7460   -9.8170   21.8950 C   0  0  0  0  0  3  0  0  0  0  0  0
  -23.9750   -8.6440   22.0390 C   0  0  0  0  0  3  0  0  0  0  0  0
  -22.8390   -8.4380   21.2210 C   0  0  0  0  0  0  0  0  0  0  0  0
  -22.5070   -9.3990   20.2510 C   0  0  0  0  0  3  0  0  0  0  0  0
  -23.2780  -10.5650   20.1050 C   0  0  0  0  0  3  0  0  0  0  0  0
  -22.0460   -7.3160   21.2710 O   0  0  0  0  0  0  0  0  0  0  0  0
  -21.9060   -6.5850   22.4230 C   0  0  0  0  0  0  0  0  0  0  0  0
  -21.4000   -7.1560   23.6100 C   0  0  0  0  0  3  0  0  0  0  0  0
  -21.2070   -6.3530   24.7510 C   0  0  0  0  0  3  0  0  0  0  0  0
  -21.5100   -4.9780   24.7040 C   0  0  0  0  0  0  0  0  0  0  0  0
  -22.0080   -4.4060   23.5210 C   0  0  0  0  0  3  0  0  0  0  0  0
  -22.2020   -5.2080   22.3820 C   0  0  0  0  0  0  0  0  0  0  0  0
  -22.6630   -4.6480   21.2370 F   0  0  0  0  0  0  0  0  0  0  0  0
  -21.3180   -4.2040   25.7970 F   0  0  0  0  0  0  0  0  0  0  0  0
  -23.3590  -13.9180   20.9950 C   0  0  0  0  0  0  0  0  0  0  0  0
  -22.5690  -13.2510   21.8300 N   0  0  0  0  0  0  0  0  0  0  0  0
  -22.9780  -14.9550   20.4520 O   0  0  0  0  0  0  0  0  0  0  0  0
  -22.8870  -12.4130   22.2930 H   0  0  0  0  0  0  0  0  0  0  0  0
  -21.6320  -13.5820   22.0080 H   0  0  0  0  0  0  0  0  0  0  0  0
  -26.0770  -15.4980   20.2930 N   0  0  0  0  0  0  0  0  0  0  0  0
  -25.3120  -16.1630   20.3330 H   0  0  0  0  0  0  0  0  0  0  0  0
  -26.9130  -15.8830   19.8780 H   0  0  0  0  0  0  0  0  0  0  0  0
  -26.7190  -21.8850   19.7510 C   0  0  0  0  0  2  0  0  0  0  0  0
  -28.7860  -22.6100   21.1250 C   0  0  0  0  0  1  0  0  0  0  0  0
  -27.7140  -23.0290   20.1070 C   0  0  0  0  0  3  0  0  0  0  0  0
  -28.3260  -23.7890   18.9040 C   0  0  0  0  0  2  0  0  0  0  0  0
  -27.4240  -24.9010   18.3140 C   0  0  0  0  0  2  0  0  0  0  0  0
  -28.2130  -26.1330   17.8040 C   0  0  0  0  0  2  0  0  0  0  0  0
  -27.4670  -27.0540   16.9970 O   0  0  0  0  0  0  0  0  0  0  0  0
  -24.7380  -30.7300   22.4800 C   0  0  0  0  0  0  0  0  0  0  0  0
  -26.3770  -27.6490   17.5870 C   0  0  0  0  0  0  0  0  0  0  0  0
  -23.1100  -29.8230   20.8530 C   0  0  0  0  0  3  0  0  0  0  0  0
  -24.1030  -28.9010   18.6940 C   0  0  0  0  0  0  0  0  0  0  0  0
  -25.4960  -30.3980   20.1310 C   0  0  0  0  0  2  0  0  0  0  0  0
  -25.3850  -29.2970   19.0970 C   0  0  0  0  0  0  0  0  0  0  0  0
  -26.5280  -28.6750   18.5460 C   0  0  0  0  0  3  0  0  0  0  0  0
  -25.0820  -27.2780   17.1750 C   0  0  0  0  0  3  0  0  0  0  0  0
  -23.9440  -27.8880   17.7320 C   0  0  0  0  0  3  0  0  0  0  0  0
  -22.9300  -29.6170   19.3250 C   0  0  0  0  0  2  0  0  0  0  0  0
  -24.4810  -30.3140   21.2060 N   0  0  0  0  0  0  0  0  0  0  0  0
  -23.8470  -30.7460   23.3410 O   0  0  0  0  0  0  0  0  0  0  0  0
  -22.7240  -28.5120   21.5770 C   0  0  0  0  0  0  0  0  0  0  0  0
  -21.4230  -28.1850   21.5650 N   0  0  0  0  0  0  0  0  0  0  0  0
  -23.5840  -27.8050   22.1090 O   0  0  0  0  0  0  0  0  0  0  0  0
  -20.7780  -28.8170   21.1120 H   0  0  0  0  0  0  0  0  0  0  0  0
  -18.3730  -26.2690   21.8310 C   0  0  0  0  0  0  0  0  0  0  0  0
  -20.8370  -26.9780   22.1470 C   0  0  0  0  0  3  0  0  0  0  0  0
  -21.1980  -25.7260   21.3150 C   0  0  0  0  0  2  0  0  0  0  0  0
  -20.1420  -25.3780   20.2600 C   0  0  0  0  0  2  0  0  0  0  0  0
  -18.7840  -25.1260   20.9180 C   0  0  0  0  0  2  0  0  0  0  0  0
  -19.3340  -27.1470   22.3950 C   0  0  0  0  0  0  0  0  0  0  0  0
  -18.8940  -28.2150   23.2080 C   0  0  0  0  0  3  0  0  0  0  0  0
  -17.5240  -28.4080   23.4630 C   0  0  0  0  0  3  0  0  0  0  0  0
  -16.5770  -27.5270   22.9130 C   0  0  0  0  0  3  0  0  0  0  0  0
  -17.0010  -26.4590   22.1040 C   0  0  0  0  0  3  0  0  0  0  0  0
  -26.1550  -31.2250   22.9070 C   0  0  0  0  0  3  0  0  0  0  0  0
  -25.9720  -32.4120   23.7510 N   0  0  0  0  0  0  0  0  0  0  0  0
  -26.2060  -33.6710   23.3530 C   0  0  0  0  0  0  0  0  0  0  0  0
  -26.6750  -33.9460   22.2450 O   0  0  0  0  0  0  0  0  0  0  0  0
  -25.5390  -32.2650   24.6520 H   0  0  0  0  0  0  0  0  0  0  0  0
  -24.5510  -35.4740   23.9230 C   0  0  0  0  0  1  0  0  0  0  0  0
  -25.8680  -34.8010   24.3420 C   0  0  0  0  0  3  0  0  0  0  0  0
  -28.1420  -35.3210   25.1080 C   0  0  0  0  0  1  0  0  0  0  0  0
  -26.9330  -35.8210   24.4570 N   0  0  0  0  0  0  0  0  0  0  0  0
  -26.6050  -36.6290   24.9770 H   0  0  0  0  0  0  0  0  0  0  0  0
  -26.9970  -30.1240   23.6630 C   0  0  1  0  0  0  0  0  0  0  0  0
  -26.2460  -29.4720   24.8470 C   0  0  0  0  0  1  0  0  0  0  0  0
  -27.4180  -28.9960   22.6920 C   0  0  0  0  0  1  0  0  0  0  0  0
  -28.3030  -30.7480   24.2090 C   0  0  0  0  0  1  0  0  0  0  0  0
  3  2  2  0
  4  5  1  0
  4  6  1  0
  6  1  1  0
  6  2  1  0
  7  4  1  0
  7  3  1  0
  8  7  1  0
 10  9  1  0
 10  3  1  0
 10 19  1  0
 11 17  1  0
 12 17  1  0
 13 14  1  0
 13 12  1  0
 15 14  1  0
 15 24  1  0
 15 16  1  0
 17 16  1  0
 18 11  2  0
 19 20  1  0
 19 11  1  0
 21 22  2  0
 22 41  1  0
 23 22  1  0
 23 26  1  0
 24 21  1  0
 24 25  1  0
 25 23  2  0
 26 27  1  0
 27 28  2  0
 29 32  1  0
 29 28  1  0
 30 29  2  0
 31 30  1  0
 31 26  2  0
 32 33  1  0
 33 34  1  0
 34 35  2  0
 36 35  1  0
 36 40  1  0
 37 36  2  0
 38 33  2  0
 38 37  1  0
 39 38  1  0
 41 42  1  0
 42 45  1  0
 42 44  1  0
 43 41  2  0
 46 47  1  0
 46 21  1  0
 48 46  1  0
 49 51  1  0
 49  1  1  0
 51 50  1  0
 52 51  1  0
 53 52  1  0
 54 53  1  0
 55 57  1  0
 55 54  1  0
 56 67  2  0
 57 62  1  0
 58 66  1  0
 58 68  1  0
 59 61  1  0
 59 65  1  0
 60 66  1  0
 61 60  1  0
 62 61  2  0
 63 57  2  0
 63 64  1  0
 64 59  2  0
 65 58  1  0
 66 56  1  0
 68 70  2  0
 69 68  1  0
 71 69  1  0
 72 81  2  0
 72 77  1  0
 73 69  1  0
 73 77  1  0
 74 73  1  0
 75 76  1  0
 75 74  1  0
 76 72  1  0
 77 78  2  0
 78 79  1  0
 80 79  2  0
 81 80  1  0
 82 56  1  0
 82 92  1  0
 82 83  1  0
 83 86  1  0
 84 83  1  0
 84 88  1  0
 85 84  2  0
 88 87  1  0
 88 90  1  0
 90 91  1  0
 90 89  1  0
 92 95  1  1
 92 93  1  0
 94 92  1  0
M  ISO  4  11 100  19 100  54 101  55 101
M  END
>  <TORSDO>  (86) 
F 23

>  <SCORE>  (86) 
-8.479

>  <name>  (86) 
85

>  <ligand_id>  (86) 
85

>  <original_smiles>  (86) 
[H]c1c([H])c([H])c2c(c1[H])C([H])([H])C([H])([H])C([H])([H])C2([H])N([H])C(=O)C1([H])N(C(=O)C([H])(N([H])C(=O)C([H])(N([H])C([H])([H])[H])C([H])([H])[H])C(C([H])([H])[H])(C([H])([H])[H])C([H])([H])[H])C([H])([H])c2c([H])c(OC([H])([H])C([H])([H])C([H])([H])C([H])(C([H])([H])[H])C([H])([H])C([H])([H])n3c([H])c(C([H])(N([H])C(=O)N4C([H])([H])C([H])([H])C([H])([H])C([H])(n5nc(-c6c([H])c([H])c(Oc7c([H])c([H])c(F)c([H])c7F)c([H])c6[H])c(C(=O)N([H])[H])c5N([H])[H])C4([H])[H])C([H])([H])[H])[n+]([H])c3C([H])([H])[H])c([H])c([H])c2C1([H])[H]

>  <smiles>  (86) 
[H]c1c([H])c([H])c2c(c1[H])C([H])([H])C([H])([H])C([H])([H])C2([H])N([H])C(=O)C1([H])N(C(=O)C([H])(N([H])C(=O)C([H])(N([H])C([H])([H])[H])C([H])([H])[H])C(C([H])([H])[H])(C([H])([H])[H])C([H])([H])[H])C([H])([H])c2c([H])c(OC([H])([H])C([H])([H])C([H])([H])C([H])(C([H])([H])[H])C([H])([H])C([H])([H])n3c([H])c(C([H])(N([H])C(=O)N4C([H])([H])C([H])([H])C([H])([H])C([H])(n5nc(-c6c([H])c([H])c(Oc7c([H])c([H])c(F)c([H])c7F)c([H])c6[H])c(C(=O)N([H])[H])c5N([H])[H])C4([H])[H])C([H])([H])[H])[n+]([H])c3C([H])([H])[H])c([H])c([H])c2C1([H])[H]

$$$$
86:0:0
     RDKit          3D

 93101  0  0  1  0  0  0  0  0999 V2000
  -29.7700  -20.7880   22.0070 C   0  0  0  0  0  3  0  0  0  0  0  0
  -30.6340  -19.7680   22.2970 C   0  0  0  0  0  0  0  0  0  0  0  0
  -29.4130  -19.1310   20.5090 C   0  0  0  0  0  3  0  0  0  0  0  0
  -29.0090  -20.4680   20.9020 N   0  0  0  0  0  0  0  0  0  0  0  0
  -30.3980  -18.8140   21.3530 N   0  0  0  0  0  0  0  0  0  0  0  0
  -30.9030  -17.9390   21.2940 H   0  0  0  0  0  0  0  0  0  0  0  0
  -31.9450  -20.9100   24.1020 C   0  0  0  0  0  1  0  0  0  0  0  0
  -32.9140  -18.8920   22.9050 C   0  0  0  0  0  1  0  0  0  0  0  0
  -31.6300  -19.5770   23.4060 C   0  0  0  0  0  3  0  0  0  0  0  0
  -27.8460  -18.1940   18.6770 C   0  0  0  0  0  1  0  0  0  0  0  0
  -29.1500  -17.9240   19.4380 C   0  0  0  0  0  3  0  0  0  0  0  0
  -30.0210  -15.2870   19.7660 C   0  0  0  0  0  0  0  0  0  0  0  0
  -30.0560  -12.8850   18.9480 C   0  0  0  0  0  2  0  0  0  0  0  0
  -29.0520  -12.7100   17.7830 C   0  0  0  0  0  2  0  0  0  0  0  0
  -27.6430  -12.4010   18.3220 C   0  0  0  0  0  2  0  0  0  0  0  0
  -27.2400  -13.3370   19.4910 C   0  0  0  0  0  3  0  0  0  0  0  0
  -28.3630  -13.4800   20.5410 C   0  0  0  0  0  2  0  0  0  0  0  0
  -29.5490  -13.9740   19.8330 N   0  0  0  0  0  0  0  0  0  0  0  0
  -31.1820  -15.4410   19.3740 O   0  0  0  0  0  0  0  0  0  0  0  0
  -29.1360  -16.3980   19.9240 N   0  0  0  0  0  0  0  0  0  0  0  0
  -28.2220  -16.0940   20.2240 H   0  0  0  0  0  0  0  0  0  0  0  0
  -24.9000  -13.7640   20.4330 C   0  0  0  0  0  0  0  0  0  0  0  0
  -23.9200  -12.9230   20.8800 C   0  0  0  0  0  0  0  0  0  0  0  0
  -24.4590  -11.6020   20.7920 C   0  0  0  0  0  0  0  0  0  0  0  0
  -25.9690  -12.9520   20.0930 N   0  0  0  0  0  0  0  0  0  0  0  0
  -25.7190  -11.6460   20.3740 N   0  0  0  0  0  0  0  0  0  0  0  0
  -23.8260  -10.2980   21.0210 C   0  0  0  0  0  0  0  0  0  0  0  0
  -24.2940   -9.4150   22.0200 C   0  0  0  0  0  3  0  0  0  0  0  0
  -23.6580   -8.1740   22.2350 C   0  0  0  0  0  3  0  0  0  0  0  0
  -22.5390   -7.8060   21.4520 C   0  0  0  0  0  0  0  0  0  0  0  0
  -22.0900   -8.6770   20.4440 C   0  0  0  0  0  3  0  0  0  0  0  0
  -22.7290   -9.9090   20.2270 C   0  0  0  0  0  3  0  0  0  0  0  0
  -21.8710   -6.6100   21.5750 O   0  0  0  0  0  0  0  0  0  0  0  0
  -21.7210   -5.9900   22.7890 C   0  0  0  0  0  0  0  0  0  0  0  0
  -21.0620   -6.6180   23.8700 C   0  0  0  0  0  3  0  0  0  0  0  0
  -20.8690   -5.9200   25.0770 C   0  0  0  0  0  3  0  0  0  0  0  0
  -21.3210   -4.5930   25.2060 C   0  0  0  0  0  0  0  0  0  0  0  0
  -21.9730   -3.9640   24.1310 C   0  0  0  0  0  3  0  0  0  0  0  0
  -22.1690   -4.6610   22.9250 C   0  0  0  0  0  0  0  0  0  0  0  0
  -22.7780   -4.0440   21.8830 F   0  0  0  0  0  0  0  0  0  0  0  0
  -21.1290   -3.9190   26.3630 F   0  0  0  0  0  0  0  0  0  0  0  0
  -22.5240  -13.3120   21.2690 C   0  0  0  0  0  0  0  0  0  0  0  0
  -21.9240  -12.5860   22.2060 N   0  0  0  0  0  0  0  0  0  0  0  0
  -21.9750  -14.2970   20.7770 O   0  0  0  0  0  0  0  0  0  0  0  0
  -22.3830  -11.7920   22.6270 H   0  0  0  0  0  0  0  0  0  0  0  0
  -20.9910  -12.8260   22.5090 H   0  0  0  0  0  0  0  0  0  0  0  0
  -24.9640  -15.1430   20.2560 N   0  0  0  0  0  0  0  0  0  0  0  0
  -24.1540  -15.7330   20.4150 H   0  0  0  0  0  0  0  0  0  0  0  0
  -25.7110  -15.6200   19.7700 H   0  0  0  0  0  0  0  0  0  0  0  0
  -27.8990  -21.5740   20.5320 C   0  0  0  0  0  2  0  0  0  0  0  0
  -28.2190  -23.2520   20.2910 C   0  0  0  0  0  3  0  0  0  0  0  0
  -27.1400  -24.5570   20.0630 C   0  0  0  0  0  3  0  0  0  0  0  0
  -27.4400  -26.0670   19.7240 O   0  0  0  0  0  0  0  0  0  0  0  0
  -24.5470  -31.9770   23.1030 C   0  0  0  0  0  0  0  0  0  0  0  0
  -26.4490  -27.1270   19.7690 C   0  0  0  0  0  0  0  0  0  0  0  0
  -23.0740  -30.6590   21.6310 C   0  0  0  0  0  3  0  0  0  0  0  0
  -24.2400  -29.0160   20.0310 C   0  0  0  0  0  0  0  0  0  0  0  0
  -25.5980  -30.7800   21.1440 C   0  0  0  0  0  2  0  0  0  0  0  0
  -25.5110  -29.3870   20.4870 C   0  0  0  0  0  0  0  0  0  0  0  0
  -26.6140  -28.4590   20.3380 C   0  0  0  0  0  3  0  0  0  0  0  0
  -25.1540  -26.8710   19.2680 C   0  0  0  0  0  3  0  0  0  0  0  0
  -24.0730  -27.7720   19.4050 C   0  0  0  0  0  3  0  0  0  0  0  0
  -23.0810  -29.9790   20.2360 C   0  0  0  0  0  2  0  0  0  0  0  0
  -24.4350  -31.1620   22.0100 N   0  0  0  0  0  0  0  0  0  0  0  0
  -23.5540  -32.3160   23.7660 O   0  0  0  0  0  0  0  0  0  0  0  0
  -22.4710  -29.6850   22.6740 C   0  0  0  0  0  0  0  0  0  0  0  0
  -21.1610  -29.3990   22.5630 N   0  0  0  0  0  0  0  0  0  0  0  0
  -23.1850  -29.1840   23.5490 O   0  0  0  0  0  0  0  0  0  0  0  0
  -20.6360  -29.8530   21.8290 H   0  0  0  0  0  0  0  0  0  0  0  0
  -17.9590  -27.7590   22.9980 C   0  0  0  0  0  0  0  0  0  0  0  0
  -20.4140  -28.4660   23.4120 C   0  0  0  0  0  3  0  0  0  0  0  0
  -20.7800  -27.0000   23.0870 C   0  0  0  0  0  2  0  0  0  0  0  0
  -19.8430  -26.3590   22.0570 C   0  0  0  0  0  2  0  0  0  0  0  0
  -18.3980  -26.3720   22.5610 C   0  0  0  0  0  2  0  0  0  0  0  0
  -18.9050  -28.7480   23.3820 C   0  0  0  0  0  0  0  0  0  0  0  0
  -18.4410  -30.0300   23.7500 C   0  0  0  0  0  3  0  0  0  0  0  0
  -17.0650  -30.3300   23.7320 C   0  0  0  0  0  3  0  0  0  0  0  0
  -16.1350  -29.3450   23.3610 C   0  0  0  0  0  3  0  0  0  0  0  0
  -16.5810  -28.0600   23.0010 C   0  0  0  0  0  3  0  0  0  0  0  0
  -25.9250  -32.5420   23.5610 C   0  0  0  0  0  3  0  0  0  0  0  0
  -25.7160  -33.9280   24.0110 N   0  0  0  0  0  0  0  0  0  0  0  0
  -26.0910  -35.0180   23.3290 C   0  0  0  0  0  0  0  0  0  0  0  0
  -26.7120  -34.9570   22.2640 O   0  0  0  0  0  0  0  0  0  0  0  0
  -25.1620  -34.0510   24.8460 H   0  0  0  0  0  0  0  0  0  0  0  0
  -24.4980  -36.9590   23.1690 C   0  0  0  0  0  1  0  0  0  0  0  0
  -25.7170  -36.3930   23.9160 C   0  0  0  0  0  3  0  0  0  0  0  0
  -27.9230  -37.0400   24.7790 C   0  0  0  0  0  1  0  0  0  0  0  0
  -26.8250  -37.3730   23.8760 N   0  0  0  0  0  0  0  0  0  0  0  0
  -26.4930  -38.3050   24.1090 H   0  0  0  0  0  0  0  0  0  0  0  0
  -26.5930  -31.6880   24.7080 C   0  0  1  0  0  0  0  0  0  0  0  0
  -25.6510  -31.4120   25.9050 C   0  0  0  0  0  1  0  0  0  0  0  0
  -27.0760  -30.3220   24.1680 C   0  0  0  0  0  1  0  0  0  0  0  0
  -27.8470  -32.4190   25.2420 C   0  0  0  0  0  1  0  0  0  0  0  0
  1  2  2  0
  2  9  1  0
  3 11  1  0
  3  4  1  0
  3  5  1  0
  4  1  1  0
  5  2  1  0
  6  5  1  0
  8  9  1  0
  9  7  1  0
 11 10  1  0
 11 20  1  0
 12 18  1  0
 12 20  1  0
 13 18  1  0
 14 15  1  0
 14 13  1  0
 16 15  1  0
 16 25  1  0
 16 17  1  0
 18 17  1  0
 19 12  2  0
 20 21  1  0
 22 23  2  0
 23 42  1  0
 24 23  1  0
 24 27  1  0
 25 26  1  0
 25 22  1  0
 26 24  2  0
 27 28  1  0
 28 29  2  0
 30 33  1  0
 30 29  1  0
 31 30  2  0
 32 31  1  0
 32 27  2  0
 33 34  1  0
 34 39  2  0
 34 35  1  0
 35 36  2  0
 36 37  1  0
 37 41  1  0
 38 37  2  0
 39 38  1  0
 40 39  1  0
 42 43  1  0
 43 46  1  0
 43 45  1  0
 44 42  2  0
 47 48  1  0
 47 22  1  0
 49 47  1  0
 50  4  1  0
 51 50  1  0
 52 51  2  0
 53 55  1  0
 53 52  1  0
 54 65  2  0
 55 60  1  0
 56 64  1  0
 56 66  1  0
 57 63  1  0
 57 59  1  0
 58 64  1  0
 59 58  1  0
 60 59  2  0
 61 62  1  0
 61 55  2  0
 62 57  2  0
 63 56  1  0
 64 54  1  0
 66 68  2  0
 67 66  1  0
 69 67  1  0
 70 79  2  0
 70 75  1  0
 71 67  1  0
 72 71  1  0
 73 74  1  0
 73 72  1  0
 74 70  1  0
 75 71  1  0
 75 76  2  0
 77 76  1  0
 78 77  2  0
 79 78  1  0
 80 54  1  0
 80 81  1  0
 80 90  1  0
 81 84  1  0
 82 86  1  0
 82 81  1  0
 83 82  2  0
 86 85  1  0
 88 86  1  0
 88 89  1  0
 88 87  1  0
 90 93  1  1
 90 91  1  0
 92 90  1  0
M  ISO  4  12 100  20 100  52 101  53 101
M  END
>  <TORSDO>  (87) 
F 21

>  <SCORE>  (87) 
-12.350

>  <name>  (87) 
86

>  <ligand_id>  (87) 
86

>  <original_smiles>  (87) 
[H]c1c([H])c([H])c2c(c1[H])C([H])([H])C([H])([H])C([H])([H])C2([H])N([H])C(=O)C1([H])N(C(=O)C([H])(N([H])C(=O)C([H])(N([H])C([H])([H])[H])C([H])([H])[H])C(C([H])([H])[H])(C([H])([H])[H])C([H])([H])[H])C([H])([H])c2c([H])c(OC([H])([H])C([H])([H])C([H])([H])n3c([H])c(C([H])(C([H])([H])[H])C([H])([H])[H])[n+]([H])c3C([H])(N([H])C(=O)N3C([H])([H])C([H])([H])C([H])([H])C([H])(n4nc(-c5c([H])c([H])c(Oc6c([H])c([H])c(F)c([H])c6F)c([H])c5[H])c(C(=O)N([H])[H])c4N([H])[H])C3([H])[H])C([H])([H])[H])c([H])c([H])c2C1([H])[H]

>  <smiles>  (87) 
[H]c1c([H])c([H])c2c(c1[H])C([H])([H])C([H])([H])C([H])([H])C2([H])N([H])C(=O)C1([H])N(C(=O)C([H])(N([H])C(=O)C([H])(N([H])C([H])([H])[H])C([H])([H])[H])C(C([H])([H])[H])(C([H])([H])[H])C([H])([H])[H])C([H])([H])c2c([H])c(OC([H])([H])C([H])([H])C([H])([H])n3c([H])c(C([H])(C([H])([H])[H])C([H])([H])[H])[n+]([H])c3C([H])(N([H])C(=O)N3C([H])([H])C([H])([H])C([H])([H])C([H])(n4nc(-c5c([H])c([H])c(Oc6c([H])c([H])c(F)c([H])c6F)c([H])c5[H])c(C(=O)N([H])[H])c4N([H])[H])C3([H])[H])C([H])([H])[H])c([H])c([H])c2C1([H])[H]

$$$$
87:0:0
     RDKit          3D

 92 99  0  0  1  0  0  0  0  0999 V2000
  -28.9040  -22.7860   20.4900 C   0  0  0  0  0  2  0  0  0  0  0  0
  -28.9390  -21.5440   19.6560 N   0  0  0  0  0  4  0  0  0  0  0  0
  -29.3720  -21.7560   18.7730 H   0  0  0  0  0  0  0  0  0  0  0  0
  -27.9790  -21.3050   19.4660 H   0  0  0  0  0  0  0  0  0  0  0  0
  -31.1120  -20.3610   19.8670 C   0  0  0  0  0  1  0  0  0  0  0  0
  -29.6150  -20.3290   20.2130 C   0  0  0  0  0  3  0  0  0  0  0  0
  -28.9140  -19.0290   19.6970 C   0  0  0  0  0  2  0  0  0  0  0  0
  -29.6710  -17.6590   19.6570 C   0  0  0  0  0  2  0  0  0  0  0  0
  -30.0420  -16.9640   20.9950 C   0  0  0  0  0  2  0  0  0  0  0  0
  -30.6170  -14.5140   20.4770 C   0  0  0  0  0  0  0  0  0  0  0  0
  -30.3710  -12.3460   19.3140 C   0  0  0  0  0  2  0  0  0  0  0  0
  -29.4220  -12.5500   18.1130 C   0  0  0  0  0  2  0  0  0  0  0  0
  -27.9450  -12.4140   18.5370 C   0  0  0  0  0  2  0  0  0  0  0  0
  -27.6090  -13.2360   19.8100 C   0  0  0  0  0  3  0  0  0  0  0  0
  -28.6640  -12.9870   20.9110 C   0  0  0  0  0  2  0  0  0  0  0  0
  -29.9870  -13.3140   20.3520 N   0  0  0  0  0  0  0  0  0  0  0  0
  -31.7470  -14.7330   20.0290 O   0  0  0  0  0  0  0  0  0  0  0  0
  -29.8360  -15.5000   20.9670 N   0  0  0  0  0  0  0  0  0  0  0  0
  -28.9370  -15.1850   21.3020 H   0  0  0  0  0  0  0  0  0  0  0  0
  -25.2100  -13.8540   20.5060 C   0  0  0  0  0  0  0  0  0  0  0  0
  -24.1390  -13.0870   20.8780 C   0  0  0  0  0  0  0  0  0  0  0  0
  -24.5970  -11.7340   20.8570 C   0  0  0  0  0  0  0  0  0  0  0  0
  -26.2540  -12.9690   20.2850 N   0  0  0  0  0  0  0  0  0  0  0  0
  -25.8880  -11.6890   20.5550 N   0  0  0  0  0  0  0  0  0  0  0  0
  -23.8670  -10.4750   21.0540 C   0  0  0  0  0  0  0  0  0  0  0  0
  -24.3080   -9.5010   21.9770 C   0  0  0  0  0  3  0  0  0  0  0  0
  -23.5790   -8.3060   22.1610 C   0  0  0  0  0  3  0  0  0  0  0  0
  -22.3940   -8.0770   21.4220 C   0  0  0  0  0  0  0  0  0  0  0  0
  -21.9720   -9.0400   20.4880 C   0  0  0  0  0  3  0  0  0  0  0  0
  -22.7010  -10.2250   20.3020 C   0  0  0  0  0  3  0  0  0  0  0  0
  -21.6370   -6.9340   21.5150 O   0  0  0  0  0  0  0  0  0  0  0  0
  -21.6150   -6.1750   22.6570 C   0  0  0  0  0  0  0  0  0  0  0  0
  -21.2460   -6.7190   23.9060 C   0  0  0  0  0  3  0  0  0  0  0  0
  -21.1710   -5.8870   25.0410 C   0  0  0  0  0  3  0  0  0  0  0  0
  -21.4570   -4.5130   24.9290 C   0  0  0  0  0  0  0  0  0  0  0  0
  -21.8220   -3.9690   23.6850 C   0  0  0  0  0  3  0  0  0  0  0  0
  -21.8980   -4.7980   22.5510 C   0  0  0  0  0  0  0  0  0  0  0  0
  -22.2280   -4.2650   21.3500 F   0  0  0  0  0  0  0  0  0  0  0  0
  -21.3780   -3.7120   26.0180 F   0  0  0  0  0  0  0  0  0  0  0  0
  -22.7410  -13.5700   21.1410 C   0  0  0  0  0  0  0  0  0  0  0  0
  -22.0090  -12.8820   22.0100 N   0  0  0  0  0  0  0  0  0  0  0  0
  -22.3070  -14.5910   20.6110 O   0  0  0  0  0  0  0  0  0  0  0  0
  -22.3740  -12.0550   22.4600 H   0  0  0  0  0  0  0  0  0  0  0  0
  -21.0720  -13.1870   22.2280 H   0  0  0  0  0  0  0  0  0  0  0  0
  -25.3790  -15.2230   20.3200 N   0  0  0  0  0  0  0  0  0  0  0  0
  -24.6090  -15.8770   20.4130 H   0  0  0  0  0  0  0  0  0  0  0  0
  -26.2270  -15.6570   19.9760 H   0  0  0  0  0  0  0  0  0  0  0  0
  -27.6620  -23.9790   18.5800 C   0  0  0  0  0  1  0  0  0  0  0  0
  -30.0790  -24.4950   19.0140 C   0  0  0  0  0  1  0  0  0  0  0  0
  -28.7350  -24.1330   19.6790 C   0  0  2  0  0  0  0  0  0  0  0  0
  -28.3140  -25.3030   20.6460 C   0  0  0  0  0  2  0  0  0  0  0  0
  -28.3710  -26.6520   20.1110 O   0  0  0  0  0  0  0  0  0  0  0  0
  -24.5980  -31.8850   23.2350 C   0  0  0  0  0  0  0  0  0  0  0  0
  -27.2080  -27.4050   20.1500 C   0  0  0  0  0  0  0  0  0  0  0  0
  -23.3770  -30.4790   21.6070 C   0  0  0  0  0  3  0  0  0  0  0  0
  -24.8170  -28.9370   20.1730 C   0  0  0  0  0  0  0  0  0  0  0  0
  -25.9050  -30.8290   21.3860 C   0  0  0  0  0  2  0  0  0  0  0  0
  -25.9840  -29.4540   20.7500 C   0  0  0  0  0  0  0  0  0  0  0  0
  -27.1850  -28.7000   20.7290 C   0  0  0  0  0  3  0  0  0  0  0  0
  -26.0190  -26.9110   19.5730 C   0  0  0  0  0  3  0  0  0  0  0  0
  -24.8320  -27.6650   19.5780 C   0  0  0  0  0  3  0  0  0  0  0  0
  -23.5760  -29.8010   20.2270 C   0  0  0  0  0  2  0  0  0  0  0  0
  -24.6460  -31.0800   22.1340 N   0  0  0  0  0  0  0  0  0  0  0  0
  -23.5210  -32.1580   23.7830 O   0  0  0  0  0  0  0  0  0  0  0  0
  -22.7330  -29.4600   22.5750 C   0  0  0  0  0  0  0  0  0  0  0  0
  -21.4080  -29.2750   22.4570 N   0  0  0  0  0  0  0  0  0  0  0  0
  -23.4230  -28.8390   23.3880 O   0  0  0  0  0  0  0  0  0  0  0  0
  -20.9120  -29.8300   21.7740 H   0  0  0  0  0  0  0  0  0  0  0  0
  -18.0410  -28.0630   22.9630 C   0  0  0  0  0  0  0  0  0  0  0  0
  -20.5970  -28.3370   23.2340 C   0  0  0  0  0  3  0  0  0  0  0  0
  -20.7090  -26.9030   22.6680 C   0  0  0  0  0  2  0  0  0  0  0  0
  -19.6080  -26.5660   21.6570 C   0  0  0  0  0  2  0  0  0  0  0  0
  -18.2250  -26.7080   22.3010 C   0  0  0  0  0  2  0  0  0  0  0  0
  -19.1550  -28.8340   23.3880 C   0  0  0  0  0  0  0  0  0  0  0  0
  -18.9300  -30.1020   23.9670 C   0  0  0  0  0  3  0  0  0  0  0  0
  -17.6220  -30.5980   24.1310 C   0  0  0  0  0  3  0  0  0  0  0  0
  -16.5230  -29.8240   23.7230 C   0  0  0  0  0  3  0  0  0  0  0  0
  -16.7330  -28.5590   23.1440 C   0  0  0  0  0  3  0  0  0  0  0  0
  -25.8900  -32.5170   23.8410 C   0  0  0  0  0  3  0  0  0  0  0  0
  -25.5830  -33.9130   24.1780 N   0  0  0  0  0  0  0  0  0  0  0  0
  -25.9040  -34.9680   23.4170 C   0  0  0  0  0  0  0  0  0  0  0  0
  -26.5650  -34.8680   22.3790 O   0  0  0  0  0  0  0  0  0  0  0  0
  -25.0000  -34.0680   24.9870 H   0  0  0  0  0  0  0  0  0  0  0  0
  -24.1670  -36.7530   23.0830 C   0  0  0  0  0  1  0  0  0  0  0  0
  -25.4170  -36.3540   23.8820 C   0  0  0  0  0  3  0  0  0  0  0  0
  -27.5620  -37.2380   24.6880 C   0  0  0  0  0  1  0  0  0  0  0  0
  -26.4460  -37.4100   23.7600 N   0  0  0  0  0  0  0  0  0  0  0  0
  -26.0400  -38.3290   23.9170 H   0  0  0  0  0  0  0  0  0  0  0  0
  -26.4240  -31.7410   25.1080 C   0  0  1  0  0  0  0  0  0  0  0  0
  -25.3460  -31.5000   26.1900 C   0  0  0  0  0  1  0  0  0  0  0  0
  -27.0030  -30.3670   24.7020 C   0  0  0  0  0  1  0  0  0  0  0  0
  -27.5840  -32.5350   25.7560 C   0  0  0  0  0  1  0  0  0  0  0  0
  2  6  1  0
  2  1  1  0
  3  2  1  0
  4  2  1  0
  6  5  1  0
  7  6  1  0
  8  7  1  0
  8  9  1  0
 10 18  1  0
 11 16  1  0
 12 13  1  0
 12 11  1  0
 14 13  1  0
 14 23  1  0
 14 15  1  0
 16 10  1  0
 16 15  1  0
 17 10  2  0
 18  9  1  0
 18 19  1  0
 20 21  2  0
 21 40  1  0
 22 21  1  0
 22 25  1  0
 23 20  1  0
 23 24  1  0
 24 22  2  0
 25 26  1  0
 26 27  2  0
 28 31  1  0
 28 27  1  0
 29 28  2  0
 30 29  1  0
 30 25  2  0
 31 32  1  0
 32 33  1  0
 33 34  2  0
 35 34  1  0
 35 39  1  0
 36 35  2  0
 37 32  2  0
 37 36  1  0
 38 37  1  0
 40 41  1  0
 41 44  1  0
 41 43  1  0
 42 40  2  0
 45 46  1  0
 45 20  1  0
 47 45  1  0
 50 48  1  6
 49 50  1  0
 50  1  1  0
 50 51  1  0
 52 54  1  0
 52 51  1  0
 53 64  2  0
 54 59  1  0
 55 63  1  0
 55 65  1  0
 56 62  1  0
 56 58  1  0
 57 63  1  0
 58 57  1  0
 59 58  2  0
 60 61  1  0
 60 54  2  0
 61 56  2  0
 62 55  1  0
 63 53  1  0
 65 67  2  0
 66 65  1  0
 68 66  1  0
 69 78  2  0
 69 74  1  0
 70 66  1  0
 70 74  1  0
 71 70  1  0
 72 73  1  0
 72 71  1  0
 73 69  1  0
 74 75  2  0
 75 76  1  0
 77 76  2  0
 78 77  1  0
 79 53  1  0
 79 80  1  0
 79 89  1  0
 80 83  1  0
 81 85  1  0
 81 80  1  0
 82 81  2  0
 85 84  1  0
 87 85  1  0
 87 88  1  0
 87 86  1  0
 89 92  1  1
 89 90  1  0
 91 89  1  0
M  ISO  4  10 100  18 100  51 101  52 101
M  END
>  <TORSDO>  (88) 
F 23

>  <SCORE>  (88) 
-12.745

>  <name>  (88) 
87

>  <ligand_id>  (88) 
87

>  <original_smiles>  (88) 
[H]c1c([H])c([H])c2c(c1[H])C([H])([H])C([H])([H])C([H])([H])C2([H])N([H])C(=O)C1([H])N(C(=O)C([H])(N([H])C(=O)C([H])(N([H])C([H])([H])[H])C([H])([H])[H])C(C([H])([H])[H])(C([H])([H])[H])C([H])([H])[H])C([H])([H])c2c([H])c(OC([H])([H])C(C([H])([H])[H])(C([H])([H])[H])C([H])([H])[N+]([H])([H])C([H])(C([H])([H])[H])C([H])([H])C([H])([H])C([H])([H])N([H])C(=O)N3C([H])([H])C([H])([H])C([H])([H])C([H])(n4nc(-c5c([H])c([H])c(Oc6c([H])c([H])c(F)c([H])c6F)c([H])c5[H])c(C(=O)N([H])[H])c4N([H])[H])C3([H])[H])c([H])c([H])c2C1([H])[H]

>  <smiles>  (88) 
[H]c1c([H])c([H])c2c(c1[H])C([H])([H])C([H])([H])C([H])([H])C2([H])N([H])C(=O)C1([H])N(C(=O)C([H])(N([H])C(=O)C([H])(N([H])C([H])([H])[H])C([H])([H])[H])C(C([H])([H])[H])(C([H])([H])[H])C([H])([H])[H])C([H])([H])c2c([H])c(OC([H])([H])C(C([H])([H])[H])(C([H])([H])[H])C([H])([H])[N+]([H])([H])C([H])(C([H])([H])[H])C([H])([H])C([H])([H])C([H])([H])N([H])C(=O)N3C([H])([H])C([H])([H])C([H])([H])C([H])(n4nc(-c5c([H])c([H])c(Oc6c([H])c([H])c(F)c([H])c6F)c([H])c5[H])c(C(=O)N([H])[H])c4N([H])[H])C3([H])[H])c([H])c([H])c2C1([H])[H]

$$$$
88:0:0
     RDKit          3D

 91 99  0  0  1  0  0  0  0  0999 V2000
  -29.8780  -21.0110   21.5450 C   0  0  0  0  0  3  0  0  0  0  0  0
  -29.1450  -20.6350   20.4480 C   0  0  0  0  0  0  0  0  0  0  0  0
  -29.7580  -19.2540   20.1500 C   0  0  0  0  0  0  0  0  0  0  0  0
  -30.6870  -18.9870   21.0610 N   0  0  0  0  0  0  0  0  0  0  0  0
  -30.7800  -20.0390   21.8810 N   0  0  0  0  0  0  0  0  0  0  0  0
  -33.1730  -19.9860   22.6320 C   0  0  0  0  0  1  0  0  0  0  0  0
  -31.6850  -20.0160   23.0220 C   0  0  0  0  0  2  0  0  0  0  0  0
  -28.5160  -18.1660   18.1790 C   0  0  0  0  0  1  0  0  0  0  0  0
  -29.6960  -17.9710   19.1390 C   0  0  0  0  0  3  0  0  0  0  0  0
  -30.4930  -15.3590   19.5780 C   0  0  0  0  0  0  0  0  0  0  0  0
  -30.4880  -12.9160   18.9140 C   0  0  0  0  0  2  0  0  0  0  0  0
  -29.4800  -12.6940   17.7620 C   0  0  0  0  0  2  0  0  0  0  0  0
  -28.0680  -12.4370   18.3190 C   0  0  0  0  0  2  0  0  0  0  0  0
  -27.6780  -13.4470   19.4300 C   0  0  0  0  0  3  0  0  0  0  0  0
  -28.8030  -13.6420   20.4690 C   0  0  0  0  0  2  0  0  0  0  0  0
  -30.0010  -14.0650   19.7330 N   0  0  0  0  0  0  0  0  0  0  0  0
  -31.6470  -15.4770   19.1520 O   0  0  0  0  0  0  0  0  0  0  0  0
  -29.6380  -16.4860   19.6850 N   0  0  0  0  0  0  0  0  0  0  0  0
  -28.7520  -16.2810   20.1220 H   0  0  0  0  0  0  0  0  0  0  0  0
  -25.4020  -13.9650   20.4820 C   0  0  0  0  0  0  0  0  0  0  0  0
  -24.3820  -13.1630   20.9120 C   0  0  0  0  0  0  0  0  0  0  0  0
  -24.8280  -11.8190   20.7220 C   0  0  0  0  0  0  0  0  0  0  0  0
  -26.4040  -13.1100   20.0550 N   0  0  0  0  0  0  0  0  0  0  0  0
  -26.0740  -11.8080   20.2620 N   0  0  0  0  0  0  0  0  0  0  0  0
  -24.1160  -10.5460   20.8980 C   0  0  0  0  0  0  0  0  0  0  0  0
  -24.4950   -9.6180   21.8920 C   0  0  0  0  0  3  0  0  0  0  0  0
  -23.7810   -8.4110   22.0540 C   0  0  0  0  0  3  0  0  0  0  0  0
  -22.6760   -8.1220   21.2190 C   0  0  0  0  0  0  0  0  0  0  0  0
  -22.3180   -9.0380   20.2140 C   0  0  0  0  0  3  0  0  0  0  0  0
  -23.0320  -10.2370   20.0510 C   0  0  0  0  0  3  0  0  0  0  0  0
  -21.9400   -6.9630   21.2860 O   0  0  0  0  0  0  0  0  0  0  0  0
  -21.6110   -6.3880   22.4870 C   0  0  0  0  0  0  0  0  0  0  0  0
  -20.8260   -7.0640   23.4460 C   0  0  0  0  0  3  0  0  0  0  0  0
  -20.4520   -6.4100   24.6370 C   0  0  0  0  0  3  0  0  0  0  0  0
  -20.8550   -5.0810   24.8670 C   0  0  0  0  0  0  0  0  0  0  0  0
  -21.6320   -4.4040   23.9100 C   0  0  0  0  0  3  0  0  0  0  0  0
  -22.0060   -5.0560   22.7220 C   0  0  0  0  0  0  0  0  0  0  0  0
  -22.7370   -4.3920   21.7950 F   0  0  0  0  0  0  0  0  0  0  0  0
  -20.4890   -4.4490   26.0080 F   0  0  0  0  0  0  0  0  0  0  0  0
  -23.0290  -13.6180   21.3790 C   0  0  0  0  0  0  0  0  0  0  0  0
  -22.4140  -12.8740   22.2910 N   0  0  0  0  0  0  0  0  0  0  0  0
  -22.5330  -14.6670   20.9720 O   0  0  0  0  0  0  0  0  0  0  0  0
  -22.8330  -12.0240   22.6400 H   0  0  0  0  0  0  0  0  0  0  0  0
  -21.5130  -13.1580   22.6460 H   0  0  0  0  0  0  0  0  0  0  0  0
  -25.5540  -15.3460   20.3920 N   0  0  0  0  0  0  0  0  0  0  0  0
  -24.8110  -15.9870   20.6470 H   0  0  0  0  0  0  0  0  0  0  0  0
  -26.3590  -15.8140   19.9960 H   0  0  0  0  0  0  0  0  0  0  0  0
  -27.9630  -21.6980   20.0030 C   0  0  0  0  0  2  0  0  0  0  0  0
  -28.1880  -23.3800   19.8470 C   0  0  0  0  0  3  0  0  0  0  0  0
  -27.0520  -24.5330   19.3620 C   0  0  0  0  0  3  0  0  0  0  0  0
  -27.2720  -26.0430   19.0110 O   0  0  0  0  0  0  0  0  0  0  0  0
  -24.7350  -31.6260   23.0870 C   0  0  0  0  0  0  0  0  0  0  0  0
  -26.2990  -27.0960   19.1980 C   0  0  0  0  0  0  0  0  0  0  0  0
  -23.1400  -30.4940   21.5870 C   0  0  0  0  0  3  0  0  0  0  0  0
  -24.1620  -28.9910   19.7690 C   0  0  0  0  0  0  0  0  0  0  0  0
  -25.6330  -30.6030   20.9640 C   0  0  0  0  0  2  0  0  0  0  0  0
  -25.4660  -29.2860   20.1850 C   0  0  0  0  0  0  0  0  0  0  0  0
  -26.5300  -28.3540   19.8910 C   0  0  0  0  0  3  0  0  0  0  0  0
  -24.9750  -26.9220   18.7360 C   0  0  0  0  0  3  0  0  0  0  0  0
  -23.9290  -27.8240   19.0270 C   0  0  0  0  0  3  0  0  0  0  0  0
  -23.0450  -29.9560   20.1340 C   0  0  0  0  0  2  0  0  0  0  0  0
  -24.5340  -30.9220   21.9310 N   0  0  0  0  0  0  0  0  0  0  0  0
  -23.7930  -31.9240   23.8360 O   0  0  0  0  0  0  0  0  0  0  0  0
  -22.5670  -29.4370   22.5650 C   0  0  0  0  0  0  0  0  0  0  0  0
  -21.2530  -29.1680   22.4750 N   0  0  0  0  0  0  0  0  0  0  0  0
  -23.3070  -28.8630   23.3680 O   0  0  0  0  0  0  0  0  0  0  0  0
  -20.7080  -29.6860   21.8000 H   0  0  0  0  0  0  0  0  0  0  0  0
  -18.0640  -27.4920   22.8570 C   0  0  0  0  0  0  0  0  0  0  0  0
  -20.5260  -28.1720   23.2670 C   0  0  0  0  0  3  0  0  0  0  0  0
  -20.8860  -26.7360   22.8230 C   0  0  0  0  0  2  0  0  0  0  0  0
  -19.9280  -26.1700   21.7690 C   0  0  0  0  0  2  0  0  0  0  0  0
  -18.4940  -26.1430   22.3080 C   0  0  0  0  0  2  0  0  0  0  0  0
  -19.0180  -28.4510   23.2930 C   0  0  0  0  0  0  0  0  0  0  0  0
  -18.5630  -29.7020   23.7640 C   0  0  0  0  0  3  0  0  0  0  0  0
  -17.1880  -30.0000   23.8050 C   0  0  0  0  0  3  0  0  0  0  0  0
  -16.2480  -29.0420   23.3860 C   0  0  0  0  0  3  0  0  0  0  0  0
  -16.6860  -27.7910   22.9160 C   0  0  0  0  0  3  0  0  0  0  0  0
  -26.1560  -32.1060   23.5140 C   0  0  0  0  0  3  0  0  0  0  0  0
  -26.0180  -33.4500   24.0960 N   0  0  0  0  0  0  0  0  0  0  0  0
  -26.4100  -34.5850   23.5030 C   0  0  0  0  0  0  0  0  0  0  0  0
  -26.9940  -34.6020   22.4160 O   0  0  0  0  0  0  0  0  0  0  0  0
  -25.4980  -33.5160   24.9600 H   0  0  0  0  0  0  0  0  0  0  0  0
  -24.8920  -36.5900   23.5850 C   0  0  0  0  0  1  0  0  0  0  0  0
  -26.1120  -35.9110   24.2290 C   0  0  0  0  0  3  0  0  0  0  0  0
  -28.3640  -36.4020   25.0750 C   0  0  0  0  0  1  0  0  0  0  0  0
  -27.2550  -36.8500   24.2370 N   0  0  0  0  0  0  0  0  0  0  0  0
  -26.9650  -37.7690   24.5610 H   0  0  0  0  0  0  0  0  0  0  0  0
  -26.8570  -31.1320   24.5400 C   0  0  1  0  0  0  0  0  0  0  0  0
  -25.9790  -30.7800   25.7630 C   0  0  0  0  0  1  0  0  0  0  0  0
  -27.2580  -29.8060   23.8530 C   0  0  0  0  0  1  0  0  0  0  0  0
  -28.1670  -31.7710   25.0570 C   0  0  0  0  0  1  0  0  0  0  0  0
  1  5  1  0
  2  1  2  0
  3  2  1  0
  3  4  2  0
  4  5  1  0
  5  7  1  0
  6  7  1  0
  9  8  1  0
  9 18  1  0
  9  3  1  0
 10 18  1  0
 10 16  1  0
 11 16  1  0
 12 13  1  0
 12 11  1  0
 14 13  1  0
 14 23  1  0
 14 15  1  0
 16 15  1  0
 17 10  2  0
 18 19  1  0
 20 21  2  0
 21 40  1  0
 22 25  1  0
 22 21  1  0
 23 24  1  0
 23 20  1  0
 24 22  2  0
 25 26  1  0
 26 27  2  0
 28 31  1  0
 28 27  1  0
 29 28  2  0
 30 29  1  0
 30 25  2  0
 31 32  1  0
 32 37  2  0
 32 33  1  0
 33 34  2  0
 34 35  1  0
 35 39  1  0
 36 35  2  0
 37 36  1  0
 38 37  1  0
 40 41  1  0
 41 43  1  0
 41 44  1  0
 42 40  2  0
 45 20  1  0
 45 46  1  0
 47 45  1  0
 48  2  1  0
 49 48  1  0
 50 49  2  0
 51 53  1  0
 51 50  1  0
 52 63  2  0
 53 58  1  0
 54 62  1  0
 54 64  1  0
 55 61  1  0
 55 57  1  0
 56 62  1  0
 57 56  1  0
 58 57  2  0
 59 60  1  0
 59 53  2  0
 60 55  2  0
 61 54  1  0
 62 52  1  0
 64 66  2  0
 65 64  1  0
 67 65  1  0
 68 77  2  0
 68 73  1  0
 69 65  1  0
 69 73  1  0
 70 69  1  0
 71 72  1  0
 71 70  1  0
 72 68  1  0
 73 74  2  0
 74 75  1  0
 76 75  2  0
 77 76  1  0
 78 52  1  0
 78 79  1  0
 78 88  1  0
 79 82  1  0
 80 79  1  0
 80 84  1  0
 81 80  2  0
 84 83  1  0
 84 86  1  0
 86 87  1  0
 86 85  1  0
 88 91  1  1
 88 89  1  0
 90 88  1  0
M  ISO  4  10 100  18 100  50 101  51 101
M  END
>  <TORSDO>  (89) 
F 21

>  <SCORE>  (89) 
-12.657

>  <name>  (89) 
88

>  <ligand_id>  (89) 
88

>  <original_smiles>  (89) 
[H]c1c([H])c([H])c2c(c1[H])C([H])([H])C([H])([H])C([H])([H])C2([H])N([H])C(=O)C1([H])N(C(=O)C([H])(N([H])C(=O)C([H])(N([H])C([H])([H])[H])C([H])([H])[H])C(C([H])([H])[H])(C([H])([H])[H])C([H])([H])[H])C([H])([H])c2c([H])c(OC([H])([H])C([H])([H])C([H])([H])c3c(C([H])(N([H])C(=O)N4C([H])([H])C([H])([H])C([H])([H])C([H])(n5nc(-c6c([H])c([H])c(Oc7c([H])c([H])c(F)c([H])c7F)c([H])c6[H])c(C(=O)N([H])[H])c5N([H])[H])C4([H])[H])C([H])([H])[H])nn(C([H])([H])C([H])([H])[H])c3[H])c([H])c([H])c2C1([H])[H]

>  <smiles>  (89) 
[H]c1c([H])c([H])c2c(c1[H])C([H])([H])C([H])([H])C([H])([H])C2([H])N([H])C(=O)C1([H])N(C(=O)C([H])(N([H])C(=O)C([H])(N([H])C([H])([H])[H])C([H])([H])[H])C(C([H])([H])[H])(C([H])([H])[H])C([H])([H])[H])C([H])([H])c2c([H])c(OC([H])([H])C([H])([H])C([H])([H])c3c(C([H])(N([H])C(=O)N4C([H])([H])C([H])([H])C([H])([H])C([H])(n5nc(-c6c([H])c([H])c(Oc7c([H])c([H])c(F)c([H])c7F)c([H])c6[H])c(C(=O)N([H])[H])c5N([H])[H])C4([H])[H])C([H])([H])[H])nn(C([H])([H])C([H])([H])[H])c3[H])c([H])c([H])c2C1([H])[H]

$$$$
89:0:0
     RDKit          3D

 92100  0  0  1  0  0  0  0  0999 V2000
  -30.6500  -21.8770   19.6760 C   0  0  0  0  0  3  0  0  0  0  0  0
  -29.0010  -20.3840   20.6080 C   0  0  0  0  0  3  0  0  0  0  0  0
  -29.4850  -21.7080   20.4490 C   0  0  0  0  0  0  0  0  0  0  0  0
  -31.2580  -20.7560   19.0870 C   0  0  0  0  0  0  0  0  0  0  0  0
  -29.6960  -19.3030   20.0070 C   0  0  0  0  0  0  0  0  0  0  0  0
  -32.4760  -20.9210   18.2050 C   0  0  0  0  0  1  0  0  0  0  0  0
  -30.8020  -19.5000   19.2560 N   0  0  0  0  0  0  0  0  0  0  0  0
  -28.9440  -17.2260   18.7590 C   0  0  0  0  0  1  0  0  0  0  0  0
  -29.2330  -17.8390   20.1450 C   0  0  0  0  0  3  0  0  0  0  0  0
  -30.2040  -16.9690   21.0030 C   0  0  0  0  0  2  0  0  0  0  0  0
  -30.6140  -14.5290   20.5090 C   0  0  0  0  0  0  0  0  0  0  0  0
  -30.3390  -12.4020   19.3040 C   0  0  0  0  0  2  0  0  0  0  0  0
  -29.3880  -12.6530   18.1140 C   0  0  0  0  0  2  0  0  0  0  0  0
  -27.9160  -12.4890   18.5450 C   0  0  0  0  0  2  0  0  0  0  0  0
  -27.5840  -13.2700   19.8440 C   0  0  0  0  0  3  0  0  0  0  0  0
  -28.6480  -13.0120   20.9360 C   0  0  0  0  0  2  0  0  0  0  0  0
  -29.9650  -13.3430   20.3680 N   0  0  0  0  0  0  0  0  0  0  0  0
  -31.7430  -14.7330   20.0530 O   0  0  0  0  0  0  0  0  0  0  0  0
  -29.8720  -15.5280   21.0200 N   0  0  0  0  0  0  0  0  0  0  0  0
  -28.9610  -15.2750   21.3710 H   0  0  0  0  0  0  0  0  0  0  0  0
  -25.1780  -13.8420   20.5520 C   0  0  0  0  0  0  0  0  0  0  0  0
  -24.1220  -13.0530   20.9230 C   0  0  0  0  0  0  0  0  0  0  0  0
  -24.6040  -11.7090   20.8910 C   0  0  0  0  0  0  0  0  0  0  0  0
  -26.2370  -12.9770   20.3220 N   0  0  0  0  0  0  0  0  0  0  0  0
  -25.8940  -11.6900   20.5810 N   0  0  0  0  0  0  0  0  0  0  0  0
  -23.8980  -10.4360   21.0790 C   0  0  0  0  0  0  0  0  0  0  0  0
  -24.3500   -9.4740   22.0080 C   0  0  0  0  0  3  0  0  0  0  0  0
  -23.6440   -8.2650   22.1840 C   0  0  0  0  0  3  0  0  0  0  0  0
  -22.4730   -8.0090   21.4330 C   0  0  0  0  0  0  0  0  0  0  0  0
  -22.0430   -8.9590   20.4910 C   0  0  0  0  0  3  0  0  0  0  0  0
  -22.7490  -10.1610   20.3120 C   0  0  0  0  0  3  0  0  0  0  0  0
  -21.7350   -6.8520   21.5190 O   0  0  0  0  0  0  0  0  0  0  0  0
  -21.7040   -6.1030   22.6680 C   0  0  0  0  0  0  0  0  0  0  0  0
  -21.2690   -6.6430   23.8980 C   0  0  0  0  0  3  0  0  0  0  0  0
  -21.1870   -5.8190   25.0380 C   0  0  0  0  0  3  0  0  0  0  0  0
  -21.5310   -4.4560   24.9480 C   0  0  0  0  0  0  0  0  0  0  0  0
  -21.9600   -3.9170   23.7230 C   0  0  0  0  0  3  0  0  0  0  0  0
  -22.0440   -4.7390   22.5860 C   0  0  0  0  0  0  0  0  0  0  0  0
  -22.4370   -4.2090   21.4020 F   0  0  0  0  0  0  0  0  0  0  0  0
  -21.4460   -3.6620   26.0410 F   0  0  0  0  0  0  0  0  0  0  0  0
  -22.7180  -13.5080   21.1970 C   0  0  0  0  0  0  0  0  0  0  0  0
  -22.0020  -12.7960   22.0610 N   0  0  0  0  0  0  0  0  0  0  0  0
  -22.2650  -14.5280   20.6800 O   0  0  0  0  0  0  0  0  0  0  0  0
  -22.3800  -11.9690   22.5000 H   0  0  0  0  0  0  0  0  0  0  0  0
  -21.0590  -13.0810   22.2850 H   0  0  0  0  0  0  0  0  0  0  0  0
  -25.3220  -15.2140   20.3720 N   0  0  0  0  0  0  0  0  0  0  0  0
  -24.5400  -15.8520   20.4650 H   0  0  0  0  0  0  0  0  0  0  0  0
  -26.1550  -15.6620   20.0160 H   0  0  0  0  0  0  0  0  0  0  0  0
  -28.8080  -22.9150   21.1210 C   0  0  0  0  0  2  0  0  0  0  0  0
  -28.8110  -24.2360   20.2970 C   0  0  0  0  0  2  0  0  0  0  0  0
  -28.2070  -25.4560   21.0330 C   0  0  0  0  0  2  0  0  0  0  0  0
  -28.4130  -26.6940   20.3120 O   0  0  0  0  0  0  0  0  0  0  0  0
  -24.6320  -31.9440   23.2630 C   0  0  0  0  0  0  0  0  0  0  0  0
  -27.2900  -27.4870   20.2400 C   0  0  0  0  0  0  0  0  0  0  0  0
  -23.4440  -30.5350   21.6150 C   0  0  0  0  0  3  0  0  0  0  0  0
  -24.9140  -29.0110   20.1930 C   0  0  0  0  0  0  0  0  0  0  0  0
  -25.9710  -30.8990   21.4400 C   0  0  0  0  0  2  0  0  0  0  0  0
  -26.0640  -29.5300   20.7980 C   0  0  0  0  0  0  0  0  0  0  0  0
  -27.2630  -28.7760   20.8170 C   0  0  0  0  0  3  0  0  0  0  0  0
  -26.1320  -26.9900   19.6100 C   0  0  0  0  0  3  0  0  0  0  0  0
  -24.9440  -27.7440   19.5860 C   0  0  0  0  0  3  0  0  0  0  0  0
  -23.6660  -29.8650   20.2330 C   0  0  0  0  0  2  0  0  0  0  0  0
  -24.7010  -31.1390   22.1660 N   0  0  0  0  0  0  0  0  0  0  0  0
  -23.5460  -32.2130   23.7930 O   0  0  0  0  0  0  0  0  0  0  0  0
  -22.7930  -29.5090   22.5700 C   0  0  0  0  0  0  0  0  0  0  0  0
  -21.4730  -29.3060   22.4210 N   0  0  0  0  0  0  0  0  0  0  0  0
  -23.4720  -28.8980   23.4010 O   0  0  0  0  0  0  0  0  0  0  0  0
  -20.9840  -29.8530   21.7250 H   0  0  0  0  0  0  0  0  0  0  0  0
  -18.1100  -28.0690   22.8620 C   0  0  0  0  0  0  0  0  0  0  0  0
  -20.6560  -28.3630   23.1840 C   0  0  0  0  0  3  0  0  0  0  0  0
  -20.7930  -26.9290   22.6240 C   0  0  0  0  0  2  0  0  0  0  0  0
  -19.7170  -26.5810   21.5900 C   0  0  0  0  0  2  0  0  0  0  0  0
  -18.3200  -26.7140   22.2030 C   0  0  0  0  0  2  0  0  0  0  0  0
  -19.2070  -28.8500   23.3080 C   0  0  0  0  0  0  0  0  0  0  0  0
  -18.9600  -30.1160   23.8810 C   0  0  0  0  0  3  0  0  0  0  0  0
  -17.6460  -30.6030   24.0100 C   0  0  0  0  0  3  0  0  0  0  0  0
  -16.5610  -29.8190   23.5830 C   0  0  0  0  0  3  0  0  0  0  0  0
  -16.7930  -28.5530   23.0150 C   0  0  0  0  0  3  0  0  0  0  0  0
  -25.9120  -32.5830   23.8880 C   0  0  0  0  0  3  0  0  0  0  0  0
  -25.6000  -33.9840   24.1970 N   0  0  0  0  0  0  0  0  0  0  0  0
  -25.9420  -35.0260   23.4310 C   0  0  0  0  0  0  0  0  0  0  0  0
  -26.6280  -34.9100   22.4100 O   0  0  0  0  0  0  0  0  0  0  0  0
  -24.9980  -34.1480   24.9910 H   0  0  0  0  0  0  0  0  0  0  0  0
  -24.2260  -36.8160   23.0200 C   0  0  0  0  0  1  0  0  0  0  0  0
  -25.4480  -36.4190   23.8630 C   0  0  0  0  0  3  0  0  0  0  0  0
  -27.5650  -37.3110   24.7310 C   0  0  0  0  0  1  0  0  0  0  0  0
  -26.4850  -37.4690   23.7610 N   0  0  0  0  0  0  0  0  0  0  0  0
  -26.0770  -38.3910   23.8900 H   0  0  0  0  0  0  0  0  0  0  0  0
  -26.4150  -31.8260   25.1780 C   0  0  1  0  0  0  0  0  0  0  0  0
  -25.3090  -31.6010   26.2350 C   0  0  0  0  0  1  0  0  0  0  0  0
  -27.0030  -30.4460   24.8050 C   0  0  0  0  0  1  0  0  0  0  0  0
  -27.5570  -32.6270   25.8450 C   0  0  0  0  0  1  0  0  0  0  0  0
  1  3  1  0
  3  2  2  0
  3 49  1  0
  4  7  1  0
  4  1  2  0
  5  9  1  0
  5  2  1  0
  6  4  1  0
  7  5  2  0
  9  8  1  0
  9 10  1  0
 10 19  1  0
 11 19  1  0
 12 17  1  0
 13 14  1  0
 13 12  1  0
 15 14  1  0
 15 24  1  0
 15 16  1  0
 17 11  1  0
 17 16  1  0
 18 11  2  0
 19 20  1  0
 21 22  2  0
 22 41  1  0
 23 22  1  0
 23 26  1  0
 24 21  1  0
 24 25  1  0
 25 23  2  0
 26 27  1  0
 27 28  2  0
 29 32  1  0
 29 28  1  0
 30 29  2  0
 31 30  1  0
 31 26  2  0
 32 33  1  0
 33 34  1  0
 34 35  2  0
 36 35  1  0
 36 40  1  0
 37 36  2  0
 38 33  2  0
 38 37  1  0
 39 38  1  0
 41 42  1  0
 42 45  1  0
 42 44  1  0
 43 41  2  0
 46 47  1  0
 46 21  1  0
 48 46  1  0
 50 51  1  0
 50 49  1  0
 52 51  1  0
 53 64  2  0
 54 52  1  0
 54 59  1  0
 55 63  1  0
 55 65  1  0
 56 62  1  0
 56 58  1  0
 57 63  1  0
 58 59  2  0
 58 57  1  0
 60 54  2  0
 61 60  1  0
 61 56  2  0
 62 55  1  0
 63 53  1  0
 65 67  2  0
 66 65  1  0
 68 66  1  0
 69 78  2  0
 69 74  1  0
 70 66  1  0
 70 74  1  0
 71 70  1  0
 72 73  1  0
 72 71  1  0
 73 69  1  0
 74 75  2  0
 75 76  1  0
 77 76  2  0
 78 77  1  0
 79 53  1  0
 79 80  1  0
 79 89  1  0
 80 83  1  0
 81 85  1  0
 81 80  1  0
 82 81  2  0
 85 84  1  0
 87 85  1  0
 87 88  1  0
 87 86  1  0
 89 92  1  1
 89 90  1  0
 91 89  1  0
M  ISO  4  11 100  19 100  51 101  52 101
M  END
>  <TORSDO>  (90) 
F 21

>  <SCORE>  (90) 
-13.691

>  <name>  (90) 
89

>  <ligand_id>  (90) 
89

>  <original_smiles>  (90) 
[H]c1c([H])c([H])c2c(c1[H])C([H])([H])C([H])([H])C([H])([H])C2([H])N([H])C(=O)C1([H])N(C(=O)C([H])(N([H])C(=O)C([H])(N([H])C([H])([H])[H])C([H])([H])[H])C(C([H])([H])[H])(C([H])([H])[H])C([H])([H])[H])C([H])([H])c2c([H])c(OC([H])([H])C([H])([H])C([H])([H])c3c([H])c(C([H])([H])[H])nc(C([H])(C([H])([H])[H])C([H])([H])N([H])C(=O)N4C([H])([H])C([H])([H])C([H])([H])C([H])(n5nc(-c6c([H])c([H])c(Oc7c([H])c([H])c(F)c([H])c7F)c([H])c6[H])c(C(=O)N([H])[H])c5N([H])[H])C4([H])[H])c3[H])c([H])c([H])c2C1([H])[H]

>  <smiles>  (90) 
[H]c1c([H])c([H])c2c(c1[H])C([H])([H])C([H])([H])C([H])([H])C2([H])N([H])C(=O)C1([H])N(C(=O)C([H])(N([H])C(=O)C([H])(N([H])C([H])([H])[H])C([H])([H])[H])C(C([H])([H])[H])(C([H])([H])[H])C([H])([H])[H])C([H])([H])c2c([H])c(OC([H])([H])C([H])([H])C([H])([H])c3c([H])c(C([H])([H])[H])nc(C([H])(C([H])([H])[H])C([H])([H])N([H])C(=O)N4C([H])([H])C([H])([H])C([H])([H])C([H])(n5nc(-c6c([H])c([H])c(Oc7c([H])c([H])c(F)c([H])c7F)c([H])c6[H])c(C(=O)N([H])[H])c5N([H])[H])C4([H])[H])c3[H])c([H])c([H])c2C1([H])[H]

$$$$
90:0:0
     RDKit          3D

 94102  0  0  1  0  0  0  0  0999 V2000
  -28.7950  -21.4830   19.2430 C   0  0  0  0  0  3  0  0  0  0  0  0
  -29.0630  -19.0920   19.4110 C   0  0  0  0  0  3  0  0  0  0  0  0
  -28.6980  -20.2140   18.6350 C   0  0  0  0  0  0  0  0  0  0  0  0
  -29.2400  -21.5950   20.5690 C   0  0  0  0  0  0  0  0  0  0  0  0
  -29.5030  -19.2600   20.7370 C   0  0  0  0  0  0  0  0  0  0  0  0
  -29.5990  -20.4980   21.3030 N   0  0  0  0  0  0  0  0  0  0  0  0
  -28.3310  -18.6640   16.6260 C   0  0  0  0  0  1  0  0  0  0  0  0
  -28.8210  -21.0770   16.2540 C   0  0  0  0  0  1  0  0  0  0  0  0
  -26.6250  -20.3780   17.2720 C   0  0  0  0  0  1  0  0  0  0  0  0
  -28.1340  -20.0800   17.2120 C   0  0  2  0  0  0  0  0  0  0  0  0
  -29.3470  -22.9860   21.2240 C   0  0  0  0  0  2  0  0  0  0  0  0
  -28.2230  -24.0380   20.8970 C   0  0  0  0  0  2  0  0  0  0  0  0
  -28.5770  -25.1980   19.9080 C   0  0  0  0  0  2  0  0  0  0  0  0
  -28.4590  -26.5400   20.4510 O   0  0  0  0  0  0  0  0  0  0  0  0
  -24.6610  -31.8110   23.4250 C   0  0  0  0  0  0  0  0  0  0  0  0
  -27.2780  -27.2730   20.4040 C   0  0  0  0  0  0  0  0  0  0  0  0
  -23.4610  -30.4310   21.7610 C   0  0  0  0  0  3  0  0  0  0  0  0
  -24.9110  -28.8510   20.3720 C   0  0  0  0  0  0  0  0  0  0  0  0
  -26.0030  -30.7220   21.6220 C   0  0  0  0  0  2  0  0  0  0  0  0
  -26.0700  -29.3480   20.9780 C   0  0  0  0  0  0  0  0  0  0  0  0
  -27.2520  -28.5680   20.9850 C   0  0  0  0  0  3  0  0  0  0  0  0
  -26.0910  -26.7900   19.8050 C   0  0  0  0  0  3  0  0  0  0  0  0
  -24.9170  -27.5710   19.7880 C   0  0  0  0  0  3  0  0  0  0  0  0
  -23.6880  -29.7420   20.3880 C   0  0  0  0  0  2  0  0  0  0  0  0
  -24.7260  -31.0050   22.3250 N   0  0  0  0  0  0  0  0  0  0  0  0
  -23.5740  -32.1100   23.9400 O   0  0  0  0  0  0  0  0  0  0  0  0
  -22.7660  -29.4290   22.7100 C   0  0  0  0  0  0  0  0  0  0  0  0
  -21.4490  -29.2400   22.5230 N   0  0  0  0  0  0  0  0  0  0  0  0
  -23.4110  -28.8220   23.5700 O   0  0  0  0  0  0  0  0  0  0  0  0
  -20.9940  -29.7790   21.8000 H   0  0  0  0  0  0  0  0  0  0  0  0
  -18.0590  -28.0400   22.8870 C   0  0  0  0  0  0  0  0  0  0  0  0
  -20.6000  -28.3130   23.2710 C   0  0  0  0  0  3  0  0  0  0  0  0
  -20.7340  -26.8730   22.7270 C   0  0  0  0  0  2  0  0  0  0  0  0
  -19.6810  -26.5270   21.6690 C   0  0  0  0  0  2  0  0  0  0  0  0
  -18.2700  -26.6800   22.2460 C   0  0  0  0  0  2  0  0  0  0  0  0
  -19.1540  -28.8150   23.3550 C   0  0  0  0  0  0  0  0  0  0  0  0
  -18.9040  -30.0880   23.9110 C   0  0  0  0  0  3  0  0  0  0  0  0
  -17.5920  -30.5860   24.0070 C   0  0  0  0  0  3  0  0  0  0  0  0
  -16.5100  -29.8090   23.5570 C   0  0  0  0  0  3  0  0  0  0  0  0
  -16.7430  -28.5390   23.0030 C   0  0  0  0  0  3  0  0  0  0  0  0
  -25.9450  -32.4180   24.0720 C   0  0  0  0  0  3  0  0  0  0  0  0
  -25.6800  -33.8400   24.3310 N   0  0  0  0  0  0  0  0  0  0  0  0
  -26.1030  -34.8470   23.5560 C   0  0  0  0  0  0  0  0  0  0  0  0
  -26.8270  -34.6750   22.5710 O   0  0  0  0  0  0  0  0  0  0  0  0
  -25.0490  -34.0510   25.0900 H   0  0  0  0  0  0  0  0  0  0  0  0
  -24.5070  -36.7110   23.0060 C   0  0  0  0  0  1  0  0  0  0  0  0
  -25.6520  -36.2710   23.9320 C   0  0  0  0  0  3  0  0  0  0  0  0
  -27.7410  -37.0860   24.9330 C   0  0  0  0  0  1  0  0  0  0  0  0
  -26.7430  -37.2680   23.8810 N   0  0  0  0  0  0  0  0  0  0  0  0
  -26.3730  -38.2120   23.9550 H   0  0  0  0  0  0  0  0  0  0  0  0
  -26.3820  -31.6820   25.3990 C   0  0  1  0  0  0  0  0  0  0  0  0
  -25.2370  -31.5180   26.4250 C   0  0  0  0  0  1  0  0  0  0  0  0
  -26.9400  -30.2750   25.0880 C   0  0  0  0  0  1  0  0  0  0  0  0
  -27.5260  -32.4690   26.0810 C   0  0  0  0  0  1  0  0  0  0  0  0
  -29.7640  -18.0000   21.5970 C   0  0  0  0  0  2  0  0  0  0  0  0
  -30.8090  -16.9810   21.0400 C   0  0  0  0  0  2  0  0  0  0  0  0
  -31.1810  -14.5140   20.7930 C   0  0  0  0  0  0  0  0  0  0  0  0
  -30.7980  -12.4890   19.4420 C   0  0  0  0  0  2  0  0  0  0  0  0
  -29.8850  -12.8680   18.2570 C   0  0  0  0  0  2  0  0  0  0  0  0
  -28.4010  -12.7570   18.6600 C   0  0  0  0  0  2  0  0  0  0  0  0
  -28.0890  -13.4710   20.0030 C   0  0  0  0  0  3  0  0  0  0  0  0
  -29.1200  -13.0910   21.0920 C   0  0  0  0  0  2  0  0  0  0  0  0
  -30.4640  -13.3800   20.5670 N   0  0  0  0  0  0  0  0  0  0  0  0
  -32.3250  -14.6760   20.3630 O   0  0  0  0  0  0  0  0  0  0  0  0
  -30.4920  -15.5540   21.3080 N   0  0  0  0  0  0  0  0  0  0  0  0
  -29.5750  -15.3430   21.6740 H   0  0  0  0  0  0  0  0  0  0  0  0
  -25.6840  -14.1130   20.6480 C   0  0  0  0  0  0  0  0  0  0  0  0
  -24.5910  -13.3560   20.9750 C   0  0  0  0  0  0  0  0  0  0  0  0
  -25.0280  -11.9970   20.9410 C   0  0  0  0  0  0  0  0  0  0  0  0
  -26.7190  -13.2160   20.4380 N   0  0  0  0  0  0  0  0  0  0  0  0
  -26.3270  -11.9380   20.6730 N   0  0  0  0  0  0  0  0  0  0  0  0
  -24.2760  -10.7450   21.0930 C   0  0  0  0  0  0  0  0  0  0  0  0
  -24.6410   -9.7730   22.0500 C   0  0  0  0  0  3  0  0  0  0  0  0
  -23.8900   -8.5850   22.1900 C   0  0  0  0  0  3  0  0  0  0  0  0
  -22.7590   -8.3610   21.3710 C   0  0  0  0  0  0  0  0  0  0  0  0
  -22.4130   -9.3200   20.4020 C   0  0  0  0  0  3  0  0  0  0  0  0
  -23.1650  -10.4990   20.2610 C   0  0  0  0  0  3  0  0  0  0  0  0
  -21.9840   -7.2270   21.4180 O   0  0  0  0  0  0  0  0  0  0  0  0
  -21.8260   -6.5130   22.5790 C   0  0  0  0  0  0  0  0  0  0  0  0
  -21.2140   -7.0740   23.7220 C   0  0  0  0  0  3  0  0  0  0  0  0
  -21.0080   -6.2810   24.8690 C   0  0  0  0  0  3  0  0  0  0  0  0
  -21.4000   -4.9290   24.8710 C   0  0  0  0  0  0  0  0  0  0  0  0
  -22.0040   -4.3680   23.7320 C   0  0  0  0  0  3  0  0  0  0  0  0
  -22.2120   -5.1580   22.5870 C   0  0  0  0  0  0  0  0  0  0  0  0
  -22.7750   -4.6070   21.4840 F   0  0  0  0  0  0  0  0  0  0  0  0
  -21.1940   -4.1660   25.9700 F   0  0  0  0  0  0  0  0  0  0  0  0
  -23.1940  -13.8540   21.2110 C   0  0  0  0  0  0  0  0  0  0  0  0
  -22.4230  -13.1590   22.0410 N   0  0  0  0  0  0  0  0  0  0  0  0
  -22.7920  -14.8950   20.6930 O   0  0  0  0  0  0  0  0  0  0  0  0
  -22.7570  -12.3160   22.4860 H   0  0  0  0  0  0  0  0  0  0  0  0
  -21.4860  -13.4780   22.2370 H   0  0  0  0  0  0  0  0  0  0  0  0
  -25.8790  -15.4830   20.4910 N   0  0  0  0  0  0  0  0  0  0  0  0
  -25.1150  -16.1440   20.5720 H   0  0  0  0  0  0  0  0  0  0  0  0
  -26.7410  -15.9110   20.1810 H   0  0  0  0  0  0  0  0  0  0  0  0
  1  4  1  0
  2  5  2  0
  3  1  2  0
  3  2  1  0
  4 11  1  0
  4  6  2  0
  5  6  1  0
  5 55  1  0
 10  7  1  6
  8 10  1  0
 10  9  1  0
 10  3  1  0
 12 11  1  0
 13 14  1  0
 13 12  1  0
 15 26  2  0
 16 14  1  0
 16 21  1  0
 17 25  1  0
 17 27  1  0
 18 24  1  0
 18 20  1  0
 19 25  1  0
 20 21  2  0
 20 19  1  0
 22 16  2  0
 23 22  1  0
 23 18  2  0
 24 17  1  0
 25 15  1  0
 27 29  2  0
 28 27  1  0
 30 28  1  0
 31 40  2  0
 31 36  1  0
 32 28  1  0
 32 36  1  0
 33 32  1  0
 34 35  1  0
 34 33  1  0
 35 31  1  0
 36 37  2  0
 37 38  1  0
 39 38  2  0
 40 39  1  0
 41 15  1  0
 41 42  1  0
 41 51  1  0
 42 45  1  0
 43 47  1  0
 43 42  1  0
 44 43  2  0
 47 46  1  0
 49 47  1  0
 49 50  1  0
 49 48  1  0
 51 54  1  1
 51 52  1  0
 53 51  1  0
 56 65  1  0
 56 55  1  0
 57 65  1  0
 58 63  1  0
 59 60  1  0
 59 58  1  0
 61 60  1  0
 61 70  1  0
 61 62  1  0
 63 57  1  0
 63 62  1  0
 64 57  2  0
 65 66  1  0
 67 68  2  0
 68 87  1  0
 69 68  1  0
 69 72  1  0
 70 67  1  0
 70 71  1  0
 71 69  2  0
 72 73  1  0
 73 74  2  0
 75 78  1  0
 75 74  1  0
 76 75  2  0
 77 76  1  0
 77 72  2  0
 78 79  1  0
 79 84  2  0
 79 80  1  0
 80 81  2  0
 81 82  1  0
 82 86  1  0
 83 82  2  0
 84 83  1  0
 85 84  1  0
 87 88  1  0
 88 91  1  0
 88 90  1  0
 89 87  2  0
 92 93  1  0
 92 67  1  0
 94 92  1  0
M  ISO  4  13 101  14 101  57 100  65 100
M  END
>  <TORSDO>  (91) 
F 22

>  <SCORE>  (91) 
-12.343

>  <name>  (91) 
90

>  <ligand_id>  (91) 
90

>  <original_smiles>  (91) 
[H]c1c([H])c([H])c2c(c1[H])C([H])([H])C([H])([H])C([H])([H])C2([H])N([H])C(=O)C1([H])N(C(=O)C([H])(N([H])C(=O)C([H])(N([H])C([H])([H])[H])C([H])([H])[H])C(C([H])([H])[H])(C([H])([H])[H])C([H])([H])[H])C([H])([H])c2c([H])c(OC([H])([H])C([H])([H])C([H])([H])c3nc(C([H])([H])C([H])([H])N([H])C(=O)N4C([H])([H])C([H])([H])C([H])([H])C([H])(n5nc(-c6c([H])c([H])c(Oc7c([H])c([H])c(F)c([H])c7F)c([H])c6[H])c(C(=O)N([H])[H])c5N([H])[H])C4([H])[H])c([H])c(C(C([H])([H])[H])(C([H])([H])[H])C([H])([H])[H])c3[H])c([H])c([H])c2C1([H])[H]

>  <smiles>  (91) 
[H]c1c([H])c([H])c2c(c1[H])C([H])([H])C([H])([H])C([H])([H])C2([H])N([H])C(=O)C1([H])N(C(=O)C([H])(N([H])C(=O)C([H])(N([H])C([H])([H])[H])C([H])([H])[H])C(C([H])([H])[H])(C([H])([H])[H])C([H])([H])[H])C([H])([H])c2c([H])c(OC([H])([H])C([H])([H])C([H])([H])c3nc(C([H])([H])C([H])([H])N([H])C(=O)N4C([H])([H])C([H])([H])C([H])([H])C([H])(n5nc(-c6c([H])c([H])c(Oc7c([H])c([H])c(F)c([H])c7F)c([H])c6[H])c(C(=O)N([H])[H])c5N([H])[H])C4([H])[H])c([H])c(C(C([H])([H])[H])(C([H])([H])[H])C([H])([H])[H])c3[H])c([H])c([H])c2C1([H])[H]

$$$$
91:0:0
     RDKit          3D

 94102  0  0  1  0  0  0  0  0999 V2000
  -28.2160  -15.6600   18.2160 C   0  0  0  0  0  3  0  0  0  0  0  0
  -26.9910  -15.1980   19.4900 C   0  0  0  0  0  3  0  0  0  0  0  0
  -28.4090  -17.0050   18.8410 C   0  0  0  0  0  3  0  0  0  0  0  0
  -27.0880  -16.6430   19.3990 C   0  0  1  0  0  0  0  0  0  0  0  0
  -28.0970  -14.2920   19.0220 N   0  0  0  0  0  0  0  0  0  0  0  0
  -24.5210  -17.0200   19.2310 C   0  0  0  0  0  1  0  0  0  0  0  0
  -25.8710  -18.9970   18.9290 C   0  0  0  0  0  1  0  0  0  0  0  0
  -25.6490  -17.9650   21.2260 C   0  0  0  0  0  1  0  0  0  0  0  0
  -25.8760  -17.6410   19.7120 C   0  0  2  0  0  0  0  0  0  0  0  0
  -29.3110  -18.6610   18.6790 C   0  0  0  0  0  3  0  0  0  0  0  0
  -30.4970  -19.9140   19.5370 C   0  0  0  0  0  3  0  0  0  0  0  0
  -31.1660  -21.6950   19.3440 C   0  0  0  0  0  3  0  0  0  0  0  0
  -31.4750  -23.2340   20.4280 C   0  0  0  0  0  3  0  0  0  0  0  0
  -31.9400  -24.9080   20.4410 O   0  0  0  0  0  0  0  0  0  0  0  0
  -28.9810  -31.1570   24.1780 C   0  0  0  0  0  0  0  0  0  0  0  0
  -31.1190  -26.1590   20.7230 C   0  0  0  0  0  0  0  0  0  0  0  0
  -27.6860  -29.8270   22.5890 C   0  0  0  0  0  3  0  0  0  0  0  0
  -28.9910  -28.2190   21.0420 C   0  0  0  0  0  0  0  0  0  0  0  0
  -30.2720  -29.8910   22.3510 C   0  0  0  0  0  2  0  0  0  0  0  0
  -30.2440  -28.5070   21.5960 C   0  0  0  0  0  0  0  0  0  0  0  0
  -31.3170  -27.4920   21.4140 C   0  0  0  0  0  3  0  0  0  0  0  0
  -29.8360  -26.0630   20.1890 C   0  0  0  0  0  3  0  0  0  0  0  0
  -28.8160  -27.0200   20.3450 C   0  0  0  0  0  3  0  0  0  0  0  0
  -27.8390  -29.2040   21.1840 C   0  0  0  0  0  2  0  0  0  0  0  0
  -29.0080  -30.3190   23.0890 N   0  0  0  0  0  0  0  0  0  0  0  0
  -27.9170  -31.4680   24.7380 O   0  0  0  0  0  0  0  0  0  0  0  0
  -27.0140  -28.8160   23.5570 C   0  0  0  0  0  0  0  0  0  0  0  0
  -25.8020  -28.3330   23.2250 N   0  0  0  0  0  0  0  0  0  0  0  0
  -27.5960  -28.4720   24.5890 O   0  0  0  0  0  0  0  0  0  0  0  0
  -25.3610  -28.6910   22.3910 H   0  0  0  0  0  0  0  0  0  0  0  0
  -22.8830  -26.1770   23.1350 C   0  0  0  0  0  0  0  0  0  0  0  0
  -25.0390  -27.3340   23.9800 C   0  0  0  0  0  3  0  0  0  0  0  0
  -25.6980  -25.9370   23.8830 C   0  0  0  0  0  2  0  0  0  0  0  0
  -25.1300  -25.0770   22.7490 C   0  0  0  0  0  2  0  0  0  0  0  0
  -23.6250  -24.8650   22.9310 C   0  0  0  0  0  2  0  0  0  0  0  0
  -23.5500  -27.3380   23.6090 C   0  0  0  0  0  0  0  0  0  0  0  0
  -22.8180  -28.5380   23.7470 C   0  0  0  0  0  3  0  0  0  0  0  0
  -21.4480  -28.5910   23.4220 C   0  0  0  0  0  3  0  0  0  0  0  0
  -20.7910  -27.4360   22.9660 C   0  0  0  0  0  3  0  0  0  0  0  0
  -21.5050  -26.2320   22.8270 C   0  0  0  0  0  3  0  0  0  0  0  0
  -30.2790  -31.7860   24.7610 C   0  0  0  0  0  3  0  0  0  0  0  0
  -30.0410  -33.2290   24.9660 N   0  0  0  0  0  0  0  0  0  0  0  0
  -30.4620  -34.2070   24.1540 C   0  0  0  0  0  0  0  0  0  0  0  0
  -31.1480  -33.9870   23.1520 O   0  0  0  0  0  0  0  0  0  0  0  0
  -29.4580  -33.4840   25.7500 H   0  0  0  0  0  0  0  0  0  0  0  0
  -28.8900  -36.1060   23.6170 C   0  0  0  0  0  1  0  0  0  0  0  0
  -30.0600  -35.6580   24.5070 C   0  0  0  0  0  3  0  0  0  0  0  0
  -32.2130  -36.4530   25.3860 C   0  0  0  0  0  1  0  0  0  0  0  0
  -31.1700  -36.6290   24.3820 N   0  0  0  0  0  0  0  0  0  0  0  0
  -30.8210  -37.5810   24.4540 H   0  0  0  0  0  0  0  0  0  0  0  0
  -30.7240  -31.1300   26.1260 C   0  0  1  0  0  0  0  0  0  0  0  0
  -29.6080  -31.0750   27.1940 C   0  0  0  0  0  1  0  0  0  0  0  0
  -31.2430  -29.6940   25.9090 C   0  0  0  0  0  1  0  0  0  0  0  0
  -31.9020  -31.9290   26.7360 C   0  0  0  0  0  1  0  0  0  0  0  0
  -30.1350  -12.8930   20.2030 C   0  0  0  0  0  2  0  0  0  0  0  0
  -29.7660  -10.1720   20.3870 C   0  0  0  0  0  1  0  0  0  0  0  0
  -31.8310  -11.2450   21.2950 C   0  0  0  0  0  1  0  0  0  0  0  0
  -30.6880  -11.4220   20.2140 C   0  0  2  0  0  0  0  0  0  0  0  0
  -31.1560  -11.8280   18.9020 C   0  0  1  0  0  0  0  0  0  0  0  0
  -30.5590  -13.3890   17.6700 C   0  0  0  0  0  2  0  0  0  0  0  0
  -30.3030  -14.7080   19.0360 C   0  0  0  0  0  1  0  0  0  0  0  0
  -28.4530  -14.4290   20.3500 C   0  0  0  0  0  1  0  0  0  0  0  0
  -27.6020  -12.5830   19.9230 C   0  0  0  0  0  2  0  0  0  0  0  0
  -28.4560  -11.5790   18.5980 C   0  0  0  0  0  2  0  0  0  0  0  0
  -30.0730  -11.9280   18.0290 N   0  0  0  0  0  0  0  0  0  0  0  0
  -32.3140  -12.3550   18.8660 O   0  0  0  0  0  1  0  0  0  0  0  0
  -25.3980  -13.2070   20.4490 C   0  0  0  0  0  0  0  0  0  0  0  0
  -24.3630  -12.4610   20.8680 C   0  0  0  0  0  0  0  0  0  0  0  0
  -24.7110  -11.0980   20.6280 C   0  0  0  0  0  0  0  0  0  0  0  0
  -26.2820  -12.3000   20.0070 N   0  0  0  0  0  0  0  0  0  0  0  0
  -25.9170  -11.0020   20.1330 N   0  0  0  0  0  0  0  0  0  0  0  0
  -23.9050   -9.9020   20.8090 C   0  0  0  0  0  0  0  0  0  0  0  0
  -24.2280   -8.9020   21.7650 C   0  0  0  0  0  3  0  0  0  0  0  0
  -23.4070   -7.7640   21.8990 C   0  0  0  0  0  3  0  0  0  0  0  0
  -22.2460   -7.6420   21.1070 C   0  0  0  0  0  0  0  0  0  0  0  0
  -21.9480   -8.6250   20.1670 C   0  0  0  0  0  3  0  0  0  0  0  0
  -22.7640   -9.7430   20.0110 C   0  0  0  0  0  3  0  0  0  0  0  0
  -21.3760   -6.5740   21.1690 O   0  0  0  0  0  0  0  0  0  0  0  0
  -21.0440   -6.0110   22.3660 C   0  0  0  0  0  0  0  0  0  0  0  0
  -20.5420   -6.7770   23.4420 C   0  0  0  0  0  3  0  0  0  0  0  0
  -20.1440   -6.1360   24.6390 C   0  0  0  0  0  3  0  0  0  0  0  0
  -20.2310   -4.7320   24.7430 C   0  0  0  0  0  0  0  0  0  0  0  0
  -20.7220   -3.9700   23.6720 C   0  0  0  0  0  3  0  0  0  0  0  0
  -21.1270   -4.6100   22.4850 C   0  0  0  0  0  0  0  0  0  0  0  0
  -21.5770   -3.8760   21.4370 F   0  0  0  0  0  0  0  0  0  0  0  0
  -19.8510   -4.1130   25.8860 F   0  0  0  0  0  0  0  0  0  0  0  0
  -23.1220  -13.0550   21.3880 C   0  0  0  0  0  0  0  0  0  0  0  0
  -22.3970  -12.3230   22.2370 N   0  0  0  0  0  0  0  0  0  0  0  0
  -22.8190  -14.2220   21.1020 O   0  0  0  0  0  0  0  0  0  0  0  0
  -22.6380  -11.3730   22.4560 H   0  0  0  0  0  0  0  0  0  0  0  0
  -21.5660  -12.7080   22.6470 H   0  0  0  0  0  0  0  0  0  0  0  0
  -25.6480  -14.5540   20.4560 N   0  0  0  0  0  2  0  0  0  0  0  0
  -24.7870  -15.0840   20.3590 H   0  0  0  0  0  0  0  0  0  0  0  0
  -26.3190  -14.7980   19.7300 H   0  0  0  0  0  0  0  0  0  0  0  0
  1  3  1  0
  1  5  1  0
  1  4  1  0
  2 94  1  0
  3 10  1  0
  4  3  1  1
  4  2  1  0
  4  9  1  0
  5  2  1  0
  5 62  1  0
  9  6  1  6
  7  9  1  0
  9  8  1  0
 10 11  2  0
 12 11  1  0
 12 13  2  0
 13 14  1  0
 14 16  1  0
 15 26  2  0
 16 21  1  0
 17 25  1  0
 17 27  1  0
 18 24  1  0
 18 20  1  0
 19 25  1  0
 20 19  1  0
 21 20  2  0
 22 23  1  0
 22 16  2  0
 23 18  2  0
 24 17  1  0
 25 15  1  0
 27 29  2  0
 28 27  1  0
 30 28  1  0
 31 36  1  0
 32 28  1  0
 33 32  1  0
 34 35  1  0
 34 33  1  0
 35 31  1  0
 36 37  2  0
 36 32  1  0
 38 37  1  0
 39 38  2  0
 40 39  1  0
 40 31  2  0
 41 15  1  0
 41 42  1  0
 41 51  1  0
 42 45  1  0
 43 47  1  0
 43 42  1  0
 44 43  2  0
 47 46  1  0
 49 50  1  0
 49 47  1  0
 49 48  1  0
 51 54  1  1
 51 52  1  0
 53 51  1  0
 55 58  1  0
 58 56  1  6
 58 57  1  0
 59 66  1  6
 59 55  1  0
 59 58  1  0
 60 65  1  0
 60 61  1  0
 63 70  1  0
 64 63  1  0
 65 64  1  0
 65 59  1  0
 67 92  1  0
 67 68  2  0
 68 87  1  0
 69 72  1  0
 69 68  1  0
 70 71  1  0
 70 67  1  0
 71 69  2  0
 72 73  1  0
 73 74  2  0
 75 78  1  0
 75 74  1  0
 76 75  2  0
 77 76  1  0
 77 72  2  0
 78 79  1  0
 79 84  2  0
 79 80  1  0
 80 81  2  0
 81 82  1  0
 82 86  1  0
 83 82  2  0
 84 83  1  0
 85 84  1  0
 87 88  1  0
 88 90  1  0
 88 91  1  0
 89 87  2  0
 93 92  1  0
M  ISO  4  13 101  14 101  58 100  59 100
M  END
>  <TORSDO>  (92) 
F 23

>  <SCORE>  (92) 
-4.127

>  <name>  (92) 
91

>  <ligand_id>  (92) 
91

>  <original_smiles>  (92) 
[H]c1c([H])c([H])c2c(c1[H])C([H])([H])C([H])([H])C([H])([H])C2([H])N([H])C(=O)C1([H])N(C(=O)C([H])(N([H])C(=O)C([H])(N([H])C([H])([H])[H])C([H])([H])[H])C(C([H])([H])[H])(C([H])([H])[H])C([H])([H])[H])C([H])([H])c2c([H])c(OC([H])([H])C([H])([H])C([H])([H])C([H])([H])c3c(C(C([H])([H])[H])(C([H])([H])[H])C([H])([H])[H])c([H])n(C([H])([H])C(C(=O)N4C([H])([H])C([H])([H])C([H])([H])C([H])(n5nc(-c6c([H])c([H])c(Oc7c([H])c([H])c(F)c([H])c7F)c([H])c6[H])c(C(=O)N([H])[H])c5N([H])[H])C4([H])[H])(C([H])([H])[H])C([H])([H])[H])c3[H])c([H])c([H])c2C1([H])[H]

>  <smiles>  (92) 
[H]c1c([H])c([H])c2c(c1[H])C([H])([H])C([H])([H])C([H])([H])C2([H])N([H])C(=O)C1([H])N(C(=O)C([H])(N([H])C(=O)C([H])(N([H])C([H])([H])[H])C([H])([H])[H])C(C([H])([H])[H])(C([H])([H])[H])C([H])([H])[H])C([H])([H])c2c([H])c(OC([H])([H])C([H])([H])C([H])([H])C([H])([H])c3c(C(C([H])([H])[H])(C([H])([H])[H])C([H])([H])[H])c([H])n(C([H])([H])C(C(=O)N4C([H])([H])C([H])([H])C([H])([H])C([H])(n5nc(-c6c([H])c([H])c(Oc7c([H])c([H])c(F)c([H])c7F)c([H])c6[H])c(C(=O)N([H])[H])c5N([H])[H])C4([H])[H])(C([H])([H])[H])C([H])([H])[H])c3[H])c([H])c([H])c2C1([H])[H]

$$$$
92:0:0
     RDKit          3D

 94102  0  0  1  0  0  0  0  0999 V2000
  -28.1310  -21.7880   22.1590 C   0  0  0  0  0  3  0  0  0  0  0  0
  -28.4070  -20.4640   21.7730 C   0  0  0  0  0  3  0  0  0  0  0  0
  -28.9310  -22.8100   21.6120 C   0  0  0  0  0  0  0  0  0  0  0  0
  -29.4650  -20.2490   20.8660 C   0  0  0  0  0  0  0  0  0  0  0  0
  -29.8950  -22.5520   20.6920 N   0  0  0  0  0  0  0  0  0  0  0  0
  -30.1620  -21.2890   20.3300 N   0  0  0  0  0  0  0  0  0  0  0  0
  -29.8440  -18.5770   19.0080 C   0  0  0  0  0  1  0  0  0  0  0  0
  -29.9210  -18.8180   20.5310 C   0  0  0  0  0  3  0  0  0  0  0  0
  -32.2470  -19.5120   21.4950 C   0  0  0  0  0  1  0  0  0  0  0  0
  -30.8850  -17.8000   22.6600 C   0  0  0  0  0  1  0  0  0  0  0  0
  -31.2560  -18.3440   21.2580 C   0  0  1  0  0  0  0  0  0  0  0  0
  -32.0630  -17.2480   20.4950 C   0  0  0  0  0  2  0  0  0  0  0  0
  -31.9720  -14.8420   19.8960 C   0  0  0  0  0  0  0  0  0  0  0  0
  -31.5960  -12.4990   19.2210 C   0  0  0  0  0  2  0  0  0  0  0  0
  -30.6470  -12.4340   18.0100 C   0  0  0  0  0  2  0  0  0  0  0  0
  -29.1780  -12.4160   18.4720 C   0  0  0  0  0  2  0  0  0  0  0  0
  -28.8630  -13.5370   19.4990 C   0  0  0  0  0  3  0  0  0  0  0  0
  -29.9200  -13.5620   20.6250 C   0  0  0  0  0  2  0  0  0  0  0  0
  -31.2510  -13.6950   20.0050 N   0  0  0  0  0  0  0  0  0  0  0  0
  -33.0310  -14.9180   19.2690 O   0  0  0  0  0  0  0  0  0  0  0  0
  -31.4430  -15.9210   20.4890 N   0  0  0  0  0  0  0  0  0  0  0  0
  -30.5750  -15.8020   20.9890 H   0  0  0  0  0  0  0  0  0  0  0  0
  -26.5800  -14.3870   20.3310 C   0  0  0  0  0  0  0  0  0  0  0  0
  -25.4500  -13.7280   20.7350 C   0  0  0  0  0  0  0  0  0  0  0  0
  -25.7570  -12.3350   20.6540 C   0  0  0  0  0  0  0  0  0  0  0  0
  -27.5100  -13.4030   20.0340 N   0  0  0  0  0  0  0  0  0  0  0  0
  -27.0190  -12.1620   20.2830 N   0  0  0  0  0  0  0  0  0  0  0  0
  -24.9060  -11.1550   20.8530 C   0  0  0  0  0  0  0  0  0  0  0  0
  -25.2320  -10.1590   21.8000 C   0  0  0  0  0  3  0  0  0  0  0  0
  -24.3890   -9.0430   21.9870 C   0  0  0  0  0  3  0  0  0  0  0  0
  -23.2040   -8.9150   21.2250 C   0  0  0  0  0  0  0  0  0  0  0  0
  -22.8940   -9.8970   20.2670 C   0  0  0  0  0  3  0  0  0  0  0  0
  -23.7370  -11.0050   20.0800 C   0  0  0  0  0  3  0  0  0  0  0  0
  -22.3360   -7.8540   21.3190 O   0  0  0  0  0  0  0  0  0  0  0  0
  -22.1300   -7.1960   22.5050 C   0  0  0  0  0  0  0  0  0  0  0  0
  -21.6770   -7.8690   23.6610 C   0  0  0  0  0  3  0  0  0  0  0  0
  -21.4110   -7.1440   24.8390 C   0  0  0  0  0  3  0  0  0  0  0  0
  -21.5880   -5.7470   24.8620 C   0  0  0  0  0  0  0  0  0  0  0  0
  -22.0330   -5.0740   23.7100 C   0  0  0  0  0  3  0  0  0  0  0  0
  -22.3000   -5.7980   22.5350 C   0  0  0  0  0  0  0  0  0  0  0  0
  -22.7090   -5.1410   21.4210 F   0  0  0  0  0  0  0  0  0  0  0  0
  -21.3250   -5.0480   25.9910 F   0  0  0  0  0  0  0  0  0  0  0  0
  -24.1290  -14.3470   21.0840 C   0  0  0  0  0  0  0  0  0  0  0  0
  -23.3800  -13.7260   21.9900 N   0  0  0  0  0  0  0  0  0  0  0  0
  -23.7730  -15.4170   20.5900 O   0  0  0  0  0  0  0  0  0  0  0  0
  -23.6820  -12.8590   22.4090 H   0  0  0  0  0  0  0  0  0  0  0  0
  -22.4940  -14.1230   22.2650 H   0  0  0  0  0  0  0  0  0  0  0  0
  -26.8880  -15.7360   20.1740 N   0  0  0  0  0  0  0  0  0  0  0  0
  -26.2020  -16.4660   20.3280 H   0  0  0  0  0  0  0  0  0  0  0  0
  -27.7650  -16.0850   19.8100 H   0  0  0  0  0  0  0  0  0  0  0  0
  -28.8180  -24.2370   22.1280 C   0  0  0  0  0  2  0  0  0  0  0  0
  -27.8700  -25.1670   21.3440 C   0  0  0  0  0  2  0  0  0  0  0  0
  -28.3850  -25.6220   19.9610 C   0  0  0  0  0  2  0  0  0  0  0  0
  -28.3950  -27.0500   19.8500 O   0  0  0  0  0  0  0  0  0  0  0  0
  -24.6730  -31.9750   23.3620 C   0  0  0  0  0  0  0  0  0  0  0  0
  -27.1980  -27.7280   19.9370 C   0  0  0  0  0  0  0  0  0  0  0  0
  -23.4000  -30.6550   21.7010 C   0  0  0  0  0  3  0  0  0  0  0  0
  -24.7960  -29.2020   20.1370 C   0  0  0  0  0  0  0  0  0  0  0  0
  -25.9130  -31.0410   21.4150 C   0  0  0  0  0  2  0  0  0  0  0  0
  -25.9750  -29.7090   20.6970 C   0  0  0  0  0  0  0  0  0  0  0  0
  -27.1790  -28.9800   20.5890 C   0  0  0  0  0  3  0  0  0  0  0  0
  -26.0000  -27.2270   19.3780 C   0  0  0  0  0  3  0  0  0  0  0  0
  -24.8030  -27.9600   19.4770 C   0  0  0  0  0  3  0  0  0  0  0  0
  -23.5520  -30.0470   20.2800 C   0  0  0  0  0  2  0  0  0  0  0  0
  -24.6830  -31.2360   22.2170 N   0  0  0  0  0  0  0  0  0  0  0  0
  -23.6160  -32.2110   23.9640 O   0  0  0  0  0  0  0  0  0  0  0  0
  -22.7980  -29.5790   22.6330 C   0  0  0  0  0  0  0  0  0  0  0  0
  -21.4800  -29.3550   22.5110 N   0  0  0  0  0  0  0  0  0  0  0  0
  -23.5120  -28.9530   23.4210 O   0  0  0  0  0  0  0  0  0  0  0  0
  -20.9660  -29.9120   21.8430 H   0  0  0  0  0  0  0  0  0  0  0  0
  -18.1660  -27.9820   22.9450 C   0  0  0  0  0  0  0  0  0  0  0  0
  -20.7030  -28.3630   23.2550 C   0  0  0  0  0  3  0  0  0  0  0  0
  -20.8860  -26.9500   22.6560 C   0  0  0  0  0  2  0  0  0  0  0  0
  -19.8140  -26.5890   21.6230 C   0  0  0  0  0  2  0  0  0  0  0  0
  -18.4190  -26.6540   22.2510 C   0  0  0  0  0  2  0  0  0  0  0  0
  -19.2390  -28.7920   23.4020 C   0  0  0  0  0  0  0  0  0  0  0  0
  -18.9490  -30.0340   24.0090 C   0  0  0  0  0  3  0  0  0  0  0  0
  -17.6200  -30.4690   24.1610 C   0  0  0  0  0  3  0  0  0  0  0  0
  -16.5610  -29.6560   23.7210 C   0  0  0  0  0  3  0  0  0  0  0  0
  -16.8350  -28.4130   23.1200 C   0  0  0  0  0  3  0  0  0  0  0  0
  -25.9850  -32.5760   23.9580 C   0  0  0  0  0  3  0  0  0  0  0  0
  -25.7040  -33.9710   24.3210 N   0  0  0  0  0  0  0  0  0  0  0  0
  -26.0350  -35.0310   23.5710 C   0  0  0  0  0  0  0  0  0  0  0  0
  -26.6820  -34.9360   22.5250 O   0  0  0  0  0  0  0  0  0  0  0  0
  -25.1260  -34.1190   25.1360 H   0  0  0  0  0  0  0  0  0  0  0  0
  -24.3200  -36.8480   23.2910 C   0  0  0  0  0  1  0  0  0  0  0  0
  -25.5780  -36.4180   24.0620 C   0  0  0  0  0  3  0  0  0  0  0  0
  -27.7470  -37.2630   24.8440 C   0  0  0  0  0  1  0  0  0  0  0  0
  -26.6210  -37.4600   23.9360 N   0  0  0  0  0  0  0  0  0  0  0  0
  -26.2330  -38.3820   24.1090 H   0  0  0  0  0  0  0  0  0  0  0  0
  -26.5270  -31.7730   25.2030 C   0  0  1  0  0  0  0  0  0  0  0  0
  -25.4530  -31.5060   26.2840 C   0  0  0  0  0  1  0  0  0  0  0  0
  -27.1050  -30.4080   24.7630 C   0  0  0  0  0  1  0  0  0  0  0  0
  -27.6910  -32.5520   25.8620 C   0  0  0  0  0  1  0  0  0  0  0  0
  2  1  1  0
  3 51  1  0
  3  1  2  0
  4  2  2  0
  5  3  1  0
  6  5  2  0
  6  4  1  0
  8  7  1  0
  8  4  1  0
  8 11  1  0
 11  9  1  1
 11 10  1  0
 12 11  1  0
 13 19  1  0
 13 21  1  0
 14 19  1  0
 15 16  1  0
 15 14  1  0
 17 16  1  0
 17 26  1  0
 17 18  1  0
 19 18  1  0
 20 13  2  0
 21 12  1  0
 21 22  1  0
 23 24  2  0
 24 43  1  0
 25 24  1  0
 25 28  1  0
 26 27  1  0
 26 23  1  0
 27 25  2  0
 28 29  1  0
 29 30  2  0
 31 34  1  0
 31 30  1  0
 32 31  2  0
 33 32  1  0
 33 28  2  0
 34 35  1  0
 35 40  2  0
 35 36  1  0
 36 37  2  0
 37 38  1  0
 38 42  1  0
 39 38  2  0
 40 39  1  0
 41 40  1  0
 43 44  1  0
 44 47  1  0
 44 46  1  0
 45 43  2  0
 48 49  1  0
 48 23  1  0
 50 48  1  0
 52 51  1  0
 53 52  1  0
 54 56  1  0
 54 53  1  0
 55 66  2  0
 56 61  1  0
 57 65  1  0
 57 67  1  0
 58 64  1  0
 58 60  1  0
 59 65  1  0
 60 59  1  0
 61 60  2  0
 62 63  1  0
 62 56  2  0
 63 58  2  0
 64 57  1  0
 65 55  1  0
 67 69  2  0
 68 67  1  0
 70 68  1  0
 71 80  2  0
 71 76  1  0
 72 68  1  0
 72 76  1  0
 73 72  1  0
 74 75  1  0
 74 73  1  0
 75 71  1  0
 76 77  2  0
 77 78  1  0
 79 78  2  0
 80 79  1  0
 81 55  1  0
 81 82  1  0
 81 91  1  0
 82 85  1  0
 83 87  1  0
 83 82  1  0
 84 83  2  0
 87 86  1  0
 89 87  1  0
 89 90  1  0
 89 88  1  0
 91 94  1  1
 91 92  1  0
 93 91  1  0
M  ISO  4  13 100  21 100  53 101  54 101
M  END
>  <TORSDO>  (93) 
F 22

>  <SCORE>  (93) 
-10.473

>  <name>  (93) 
92

>  <ligand_id>  (93) 
92

>  <original_smiles>  (93) 
[H]c1c(C([H])([H])C([H])([H])C([H])([H])Oc2c([H])c([H])c3c(c2[H])C([H])([H])N(C(=O)C([H])(N([H])C(=O)C([H])(N([H])C([H])([H])[H])C([H])([H])[H])C(C([H])([H])[H])(C([H])([H])[H])C([H])([H])[H])C([H])(C(=O)N([H])C2([H])c4c([H])c([H])c([H])c([H])c4C([H])([H])C([H])([H])C2([H])[H])C3([H])[H])nnc(C([H])(C([H])([H])[H])C(C([H])([H])[H])(C([H])([H])[H])C([H])([H])N([H])C(=O)N2C([H])([H])C([H])([H])C([H])([H])C([H])(n3nc(-c4c([H])c([H])c(Oc5c([H])c([H])c(F)c([H])c5F)c([H])c4[H])c(C(=O)N([H])[H])c3N([H])[H])C2([H])[H])c1[H]

>  <smiles>  (93) 
[H]c1c(C([H])([H])C([H])([H])C([H])([H])Oc2c([H])c([H])c3c(c2[H])C([H])([H])N(C(=O)C([H])(N([H])C(=O)C([H])(N([H])C([H])([H])[H])C([H])([H])[H])C(C([H])([H])[H])(C([H])([H])[H])C([H])([H])[H])C([H])(C(=O)N([H])C2([H])c4c([H])c([H])c([H])c([H])c4C([H])([H])C([H])([H])C2([H])[H])C3([H])[H])nnc(C([H])(C([H])([H])[H])C(C([H])([H])[H])(C([H])([H])[H])C([H])([H])N([H])C(=O)N2C([H])([H])C([H])([H])C([H])([H])C([H])(n3nc(-c4c([H])c([H])c(Oc5c([H])c([H])c(F)c([H])c5F)c([H])c4[H])c(C(=O)N([H])[H])c3N([H])[H])C2([H])[H])c1[H]

$$$$
93:0:0
     RDKit          3D

 95103  0  0  1  0  0  0  0  0999 V2000
  -29.8540  -21.3740   19.9150 C   0  0  0  0  0  3  0  0  0  0  0  0
  -29.8780  -22.4780   20.7920 C   0  0  0  0  0  0  0  0  0  0  0  0
  -30.0690  -21.7820   22.0580 C   0  0  0  0  0  0  0  0  0  0  0  0
  -30.1210  -20.4430   21.8940 N   0  0  0  0  0  0  0  0  0  0  0  0
  -29.9170  -20.1210   20.5960 N   0  0  0  0  0  0  0  0  0  0  0  0
  -29.4270  -23.5530   23.8700 C   0  0  0  0  0  1  0  0  0  0  0  0
  -31.7290  -22.6260   23.8530 C   0  0  0  0  0  1  0  0  0  0  0  0
  -29.7990  -21.2380   24.5650 C   0  0  0  0  0  1  0  0  0  0  0  0
  -30.2570  -22.2970   23.5240 C   0  0  2  0  0  0  0  0  0  0  0  0
  -31.1640  -24.7490   20.3290 C   0  0  0  0  0  1  0  0  0  0  0  0
  -29.7720  -24.0850   20.5820 C   0  0  0  0  0  3  0  0  0  0  0  0
  -28.8840  -24.7400   18.2740 C   0  0  0  0  0  1  0  0  0  0  0  0
  -27.2480  -24.0540   20.0980 C   0  0  0  0  0  1  0  0  0  0  0  0
  -28.5540  -24.8410   19.7960 C   0  0  1  0  0  0  0  0  0  0  0  0
  -28.4380  -26.3140   20.2190 O   0  0  0  0  0  0  0  0  0  0  0  0
  -24.7260  -31.8350   23.3230 C   0  0  0  0  0  0  0  0  0  0  0  0
  -27.2980  -27.1830   20.1800 C   0  0  0  0  0  0  0  0  0  0  0  0
  -23.5060  -30.4700   21.6690 C   0  0  0  0  0  3  0  0  0  0  0  0
  -24.9420  -28.8900   20.2280 C   0  0  0  0  0  0  0  0  0  0  0  0
  -26.0620  -30.6940   21.5320 C   0  0  0  0  0  2  0  0  0  0  0  0
  -26.1170  -29.3160   20.8600 C   0  0  0  0  0  0  0  0  0  0  0  0
  -27.2810  -28.4720   20.8310 C   0  0  0  0  0  3  0  0  0  0  0  0
  -26.1080  -26.8570   19.4840 C   0  0  0  0  0  3  0  0  0  0  0  0
  -24.9540  -27.6720   19.5230 C   0  0  0  0  0  3  0  0  0  0  0  0
  -23.7160  -29.7890   20.2910 C   0  0  0  0  0  2  0  0  0  0  0  0
  -24.7840  -31.0200   22.2270 N   0  0  0  0  0  0  0  0  0  0  0  0
  -23.6450  -32.1490   23.8400 O   0  0  0  0  0  0  0  0  0  0  0  0
  -22.7970  -29.4780   22.6210 C   0  0  0  0  0  0  0  0  0  0  0  0
  -21.4680  -29.3280   22.4700 N   0  0  0  0  0  0  0  0  0  0  0  0
  -23.4460  -28.8500   23.4620 O   0  0  0  0  0  0  0  0  0  0  0  0
  -20.9990  -29.8730   21.7570 H   0  0  0  0  0  0  0  0  0  0  0  0
  -18.0600  -28.2060   22.9040 C   0  0  0  0  0  0  0  0  0  0  0  0
  -20.6160  -28.4060   23.2260 C   0  0  0  0  0  3  0  0  0  0  0  0
  -20.6990  -26.9760   22.6480 C   0  0  0  0  0  2  0  0  0  0  0  0
  -19.6100  -26.6810   21.6160 C   0  0  0  0  0  2  0  0  0  0  0  0
  -18.2200  -26.8560   22.2300 C   0  0  0  0  0  2  0  0  0  0  0  0
  -19.1870  -28.9440   23.3530 C   0  0  0  0  0  0  0  0  0  0  0  0
  -18.9810  -30.2160   23.9330 C   0  0  0  0  0  3  0  0  0  0  0  0
  -17.6810  -30.7420   24.0860 C   0  0  0  0  0  3  0  0  0  0  0  0
  -16.5710  -29.9970   23.6540 C   0  0  0  0  0  3  0  0  0  0  0  0
  -16.7600  -28.7340   23.0610 C   0  0  0  0  0  3  0  0  0  0  0  0
  -26.0240  -32.4290   23.9600 C   0  0  0  0  0  3  0  0  0  0  0  0
  -25.7460  -33.8280   24.3130 N   0  0  0  0  0  0  0  0  0  0  0  0
  -26.0810  -34.8890   23.5670 C   0  0  0  0  0  0  0  0  0  0  0  0
  -26.7300  -34.7920   22.5210 O   0  0  0  0  0  0  0  0  0  0  0  0
  -25.1780  -33.9870   25.1290 H   0  0  0  0  0  0  0  0  0  0  0  0
  -24.3690  -36.7080   23.2860 C   0  0  0  0  0  1  0  0  0  0  0  0
  -25.6260  -36.2740   24.0570 C   0  0  0  0  0  3  0  0  0  0  0  0
  -27.7800  -37.1230   24.8680 C   0  0  0  0  0  1  0  0  0  0  0  0
  -26.6670  -37.3170   23.9420 N   0  0  0  0  0  0  0  0  0  0  0  0
  -26.2700  -38.2370   24.1150 H   0  0  0  0  0  0  0  0  0  0  0  0
  -26.5240  -31.6290   25.2270 C   0  0  1  0  0  0  0  0  0  0  0  0
  -25.4220  -31.3900   26.2830 C   0  0  0  0  0  1  0  0  0  0  0  0
  -27.0800  -30.2420   24.8240 C   0  0  0  0  0  1  0  0  0  0  0  0
  -27.6800  -32.3970   25.9150 C   0  0  0  0  0  1  0  0  0  0  0  0
  -29.4880  -18.6630   20.2600 C   0  0  0  0  0  2  0  0  0  0  0  0
  -30.4690  -17.3640   20.0210 C   0  0  0  0  0  2  0  0  0  0  0  0
  -30.5210  -14.6870   19.8820 C   0  0  0  0  0  0  0  0  0  0  0  0
  -30.1810  -12.4000   18.8980 C   0  0  0  0  0  2  0  0  0  0  0  0
  -29.1290  -12.4020   17.7690 C   0  0  0  0  0  2  0  0  0  0  0  0
  -27.7350  -12.1350   18.3560 C   0  0  0  0  0  2  0  0  0  0  0  0
  -27.4250  -13.0620   19.5620 C   0  0  0  0  0  3  0  0  0  0  0  0
  -28.5960  -13.1020   20.5760 C   0  0  0  0  0  2  0  0  0  0  0  0
  -29.8240  -13.4870   19.8490 N   0  0  0  0  0  0  0  0  0  0  0  0
  -31.6730  -14.7130   19.4460 O   0  0  0  0  0  0  0  0  0  0  0  0
  -29.9090  -15.9110   20.1720 N   0  0  0  0  0  0  0  0  0  0  0  0
  -28.9450  -15.8460   20.4680 H   0  0  0  0  0  0  0  0  0  0  0  0
  -25.1330  -13.5710   20.6000 C   0  0  0  0  0  0  0  0  0  0  0  0
  -24.1180  -12.7720   21.0360 C   0  0  0  0  0  0  0  0  0  0  0  0
  -24.5710  -11.4260   20.8690 C   0  0  0  0  0  0  0  0  0  0  0  0
  -26.1460  -12.7220   20.1910 N   0  0  0  0  0  0  0  0  0  0  0  0
  -25.8240  -11.4200   20.4220 N   0  0  0  0  0  0  0  0  0  0  0  0
  -23.8720  -10.1510   21.0570 C   0  0  0  0  0  0  0  0  0  0  0  0
  -24.3560   -9.1640   21.9440 C   0  0  0  0  0  3  0  0  0  0  0  0
  -23.6530   -7.9530   22.1240 C   0  0  0  0  0  3  0  0  0  0  0  0
  -22.4480   -7.7170   21.4210 C   0  0  0  0  0  0  0  0  0  0  0  0
  -21.9780   -8.6960   20.5280 C   0  0  0  0  0  3  0  0  0  0  0  0
  -22.6810   -9.8970   20.3430 C   0  0  0  0  0  3  0  0  0  0  0  0
  -21.7090   -6.5620   21.5140 O   0  0  0  0  0  0  0  0  0  0  0  0
  -21.6890   -5.8140   22.6640 C   0  0  0  0  0  0  0  0  0  0  0  0
  -21.2160   -6.3370   23.8880 C   0  0  0  0  0  3  0  0  0  0  0  0
  -21.1530   -5.5120   25.0290 C   0  0  0  0  0  3  0  0  0  0  0  0
  -21.5460   -4.1610   24.9430 C   0  0  0  0  0  0  0  0  0  0  0  0
  -22.0110   -3.6390   23.7240 C   0  0  0  0  0  3  0  0  0  0  0  0
  -22.0800   -4.4630   22.5870 C   0  0  0  0  0  0  0  0  0  0  0  0
  -22.5090   -3.9470   21.4100 F   0  0  0  0  0  0  0  0  0  0  0  0
  -21.4760   -3.3660   26.0370 F   0  0  0  0  0  0  0  0  0  0  0  0
  -22.7520  -13.2190   21.4820 C   0  0  0  0  0  0  0  0  0  0  0  0
  -22.1180  -12.4690   22.3720 N   0  0  0  0  0  0  0  0  0  0  0  0
  -22.2620  -14.2730   21.0720 O   0  0  0  0  0  0  0  0  0  0  0  0
  -22.5300  -11.6190   22.7280 H   0  0  0  0  0  0  0  0  0  0  0  0
  -21.2020  -12.7410   22.7060 H   0  0  0  0  0  0  0  0  0  0  0  0
  -25.2810  -14.9530   20.4830 N   0  0  0  0  0  0  0  0  0  0  0  0
  -24.5400  -15.6030   20.7260 H   0  0  0  0  0  0  0  0  0  0  0  0
  -26.0830  -15.4050   20.0650 H   0  0  0  0  0  0  0  0  0  0  0  0
  1  5  1  0
  1  2  2  0
  2  3  1  0
  3  9  1  0
  4  3  2  0
  5  4  1  0
  9  7  1  1
  9  6  1  0
  9  8  1  0
 11 10  1  0
 11  2  1  0
 14 12  1  6
 14 13  1  0
 14 15  1  0
 14 11  1  0
 16 27  2  0
 17 15  1  0
 17 22  1  0
 18 26  1  0
 18 28  1  0
 19 25  1  0
 19 21  1  0
 20 26  1  0
 21 20  1  0
 22 21  2  0
 23 24  1  0
 23 17  2  0
 24 19  2  0
 25 18  1  0
 26 16  1  0
 28 30  2  0
 29 28  1  0
 31 29  1  0
 32 41  2  0
 32 37  1  0
 33 29  1  0
 33 37  1  0
 34 33  1  0
 35 36  1  0
 35 34  1  0
 36 32  1  0
 37 38  2  0
 38 39  1  0
 40 39  2  0
 41 40  1  0
 42 16  1  0
 42 43  1  0
 42 52  1  0
 43 46  1  0
 44 48  1  0
 44 43  1  0
 45 44  2  0
 48 47  1  0
 50 48  1  0
 50 51  1  0
 50 49  1  0
 52 55  1  1
 52 53  1  0
 54 52  1  0
 56  5  1  0
 57 66  1  0
 57 56  1  0
 58 66  1  0
 59 64  1  0
 60 61  1  0
 60 59  1  0
 62 61  1  0
 62 71  1  0
 62 63  1  0
 64 58  1  0
 64 63  1  0
 65 58  2  0
 66 67  1  0
 68 69  2  0
 69 88  1  0
 70 69  1  0
 70 73  1  0
 71 72  1  0
 71 68  1  0
 72 70  2  0
 73 74  1  0
 74 75  2  0
 76 79  1  0
 76 75  1  0
 77 76  2  0
 78 77  1  0
 78 73  2  0
 79 80  1  0
 80 81  1  0
 81 82  2  0
 83 82  1  0
 83 87  1  0
 84 83  2  0
 85 80  2  0
 85 84  1  0
 86 85  1  0
 88 89  1  0
 89 92  1  0
 89 91  1  0
 90 88  2  0
 93 68  1  0
 93 94  1  0
 95 93  1  0
M  ISO  4  14 101  15 101  58 100  66 100
M  END
>  <TORSDO>  (94) 
F 21

>  <SCORE>  (94) 
-11.264

>  <name>  (94) 
93

>  <ligand_id>  (94) 
93

>  <original_smiles>  (94) 
[H]c1c([H])c([H])c2c(c1[H])C([H])([H])C([H])([H])C([H])([H])C2([H])N([H])C(=O)C1([H])N(C(=O)C([H])(N([H])C(=O)C([H])(N([H])C([H])([H])[H])C([H])([H])[H])C(C([H])([H])[H])(C([H])([H])[H])C([H])([H])[H])C([H])([H])c2c([H])c(OC(C([H])([H])[H])(C([H])([H])[H])C([H])(c3c(C(C([H])([H])[H])(C([H])([H])[H])C([H])([H])[H])nn(C([H])([H])C([H])([H])N([H])C(=O)N4C([H])([H])C([H])([H])C([H])([H])C([H])(n5nc(-c6c([H])c([H])c(Oc7c([H])c([H])c(F)c([H])c7F)c([H])c6[H])c(C(=O)N([H])[H])c5N([H])[H])C4([H])[H])c3[H])C([H])([H])[H])c([H])c([H])c2C1([H])[H]

>  <smiles>  (94) 
[H]c1c([H])c([H])c2c(c1[H])C([H])([H])C([H])([H])C([H])([H])C2([H])N([H])C(=O)C1([H])N(C(=O)C([H])(N([H])C(=O)C([H])(N([H])C([H])([H])[H])C([H])([H])[H])C(C([H])([H])[H])(C([H])([H])[H])C([H])([H])[H])C([H])([H])c2c([H])c(OC(C([H])([H])[H])(C([H])([H])[H])C([H])(c3c(C(C([H])([H])[H])(C([H])([H])[H])C([H])([H])[H])nn(C([H])([H])C([H])([H])N([H])C(=O)N4C([H])([H])C([H])([H])C([H])([H])C([H])(n5nc(-c6c([H])c([H])c(Oc7c([H])c([H])c(F)c([H])c7F)c([H])c6[H])c(C(=O)N([H])[H])c5N([H])[H])C4([H])[H])c3[H])C([H])([H])[H])c([H])c([H])c2C1([H])[H]

$$$$
94:0:0
     RDKit          3D

 96104  0  0  1  0  0  0  0  0999 V2000
  -28.2050  -22.0090   20.4840 C   0  0  0  0  0  3  0  0  0  0  0  0
  -27.2120  -22.9460   20.4120 C   0  0  0  0  0  0  0  0  0  0  0  0
  -26.5120  -22.6050   19.2160 C   0  0  0  0  0  0  0  0  0  0  0  0
  -27.0330  -21.5400   18.6180 N   0  0  0  0  0  0  0  0  0  0  0  0
  -28.0770  -21.1760   19.3970 N   0  0  0  0  0  0  0  0  0  0  0  0
  -23.9990  -22.6500   19.0750 C   0  0  0  0  0  1  0  0  0  0  0  0
  -25.3120  -23.2850   18.6110 C   0  0  0  0  0  2  0  0  0  0  0  0
  -26.9420  -24.0800   21.3700 C   0  0  0  0  0  2  0  0  0  0  0  0
  -28.1820  -24.9640   21.5920 C   0  0  0  0  0  2  0  0  0  0  0  0
  -28.7550  -25.5800   20.2970 C   0  0  0  0  0  2  0  0  0  0  0  0
  -28.6920  -27.0000   20.3330 O   0  0  0  0  0  0  0  0  0  0  0  0
  -24.6400  -31.9830   23.3240 C   0  0  0  0  0  0  0  0  0  0  0  0
  -27.4610  -27.6140   20.3210 C   0  0  0  0  0  0  0  0  0  0  0  0
  -23.4980  -30.5460   21.6620 C   0  0  0  0  0  3  0  0  0  0  0  0
  -25.0150  -29.0250   20.2890 C   0  0  0  0  0  0  0  0  0  0  0  0
  -26.0140  -30.9660   21.5120 C   0  0  0  0  0  2  0  0  0  0  0  0
  -26.1440  -29.5930   20.8910 C   0  0  0  0  0  0  0  0  0  0  0  0
  -27.3670  -28.8930   20.9040 C   0  0  0  0  0  3  0  0  0  0  0  0
  -26.3110  -27.0430   19.7260 C   0  0  0  0  0  3  0  0  0  0  0  0
  -25.0900  -27.7440   19.7120 C   0  0  0  0  0  3  0  0  0  0  0  0
  -23.7510  -29.8550   20.2950 C   0  0  0  0  0  2  0  0  0  0  0  0
  -24.7340  -31.1810   22.2260 N   0  0  0  0  0  0  0  0  0  0  0  0
  -23.5410  -32.2340   23.8400 O   0  0  0  0  0  0  0  0  0  0  0  0
  -22.8500  -29.5180   22.6160 C   0  0  0  0  0  0  0  0  0  0  0  0
  -21.5310  -29.3150   22.4680 N   0  0  0  0  0  0  0  0  0  0  0  0
  -23.5320  -28.9010   23.4400 O   0  0  0  0  0  0  0  0  0  0  0  0
  -21.0420  -29.8660   21.7770 H   0  0  0  0  0  0  0  0  0  0  0  0
  -18.1600  -28.1060   22.9380 C   0  0  0  0  0  0  0  0  0  0  0  0
  -20.7170  -28.3650   23.2240 C   0  0  0  0  0  3  0  0  0  0  0  0
  -20.8240  -26.9400   22.6320 C   0  0  0  0  0  2  0  0  0  0  0  0
  -19.7270  -26.6260   21.6110 C   0  0  0  0  0  2  0  0  0  0  0  0
  -18.3420  -26.7620   22.2510 C   0  0  0  0  0  2  0  0  0  0  0  0
  -19.2760  -28.8650   23.3810 C   0  0  0  0  0  0  0  0  0  0  0  0
  -19.0530  -30.1230   23.9820 C   0  0  0  0  0  3  0  0  0  0  0  0
  -17.7470  -30.6200   24.1480 C   0  0  0  0  0  3  0  0  0  0  0  0
  -16.6450  -29.8570   23.7240 C   0  0  0  0  0  3  0  0  0  0  0  0
  -16.8530  -28.6030   23.1220 C   0  0  0  0  0  3  0  0  0  0  0  0
  -25.8980  -32.6440   23.9670 C   0  0  0  0  0  3  0  0  0  0  0  0
  -25.5650  -34.0440   24.2540 N   0  0  0  0  0  0  0  0  0  0  0  0
  -25.9090  -35.0810   23.4790 C   0  0  0  0  0  0  0  0  0  0  0  0
  -26.6130  -34.9610   22.4720 O   0  0  0  0  0  0  0  0  0  0  0  0
  -24.9440  -34.2110   25.0320 H   0  0  0  0  0  0  0  0  0  0  0  0
  -24.1650  -36.8370   23.0310 C   0  0  0  0  0  1  0  0  0  0  0  0
  -25.3900  -36.4750   23.8850 C   0  0  0  0  0  3  0  0  0  0  0  0
  -27.4900  -37.4090   24.7470 C   0  0  0  0  0  1  0  0  0  0  0  0
  -26.4110  -37.5390   23.7710 N   0  0  0  0  0  0  0  0  0  0  0  0
  -25.9900  -38.4560   23.8870 H   0  0  0  0  0  0  0  0  0  0  0  0
  -26.3850  -31.9090   25.2760 C   0  0  1  0  0  0  0  0  0  0  0  0
  -25.2620  -31.6750   26.3140 C   0  0  0  0  0  1  0  0  0  0  0  0
  -27.0010  -30.5350   24.9280 C   0  0  0  0  0  1  0  0  0  0  0  0
  -27.5010  -32.7370   25.9570 C   0  0  0  0  0  1  0  0  0  0  0  0
  -28.9400  -20.0670   19.0190 C   0  0  0  0  0  2  0  0  0  0  0  0
  -27.5770  -18.3230   20.2730 C   0  0  0  0  0  1  0  0  0  0  0  0
  -28.9890  -18.9260   20.0790 C   0  0  0  0  0  3  0  0  0  0  0  0
  -29.6760  -16.9370   18.6220 C   0  0  0  0  0  1  0  0  0  0  0  0
  -31.4340  -18.4920   19.4520 C   0  0  0  0  0  1  0  0  0  0  0  0
  -30.0850  -17.8280   19.8210 C   0  0  1  0  0  0  0  0  0  0  0  0
  -30.3550  -17.0130   21.1400 C   0  0  0  0  0  2  0  0  0  0  0  0
  -30.6900  -14.6090   20.5750 C   0  0  0  0  0  0  0  0  0  0  0  0
  -30.4280  -12.4620   19.4100 C   0  0  0  0  0  2  0  0  0  0  0  0
  -29.5090  -12.6720   18.1900 C   0  0  0  0  0  2  0  0  0  0  0  0
  -28.0250  -12.5260   18.5840 C   0  0  0  0  0  2  0  0  0  0  0  0
  -27.6560  -13.3550   19.8440 C   0  0  0  0  0  3  0  0  0  0  0  0
  -28.6870  -13.1360   20.9730 C   0  0  0  0  0  2  0  0  0  0  0  0
  -30.0260  -13.4350   20.4340 N   0  0  0  0  0  0  0  0  0  0  0  0
  -31.8190  -14.8120   20.1160 O   0  0  0  0  0  0  0  0  0  0  0  0
  -29.9640  -15.6030   21.1020 N   0  0  0  0  0  0  0  0  0  0  0  0
  -29.0400  -15.3670   21.4290 H   0  0  0  0  0  0  0  0  0  0  0  0
  -25.2360  -13.9520   20.4880 C   0  0  0  0  0  0  0  0  0  0  0  0
  -24.1670  -13.1760   20.8450 C   0  0  0  0  0  0  0  0  0  0  0  0
  -24.6400  -11.8270   20.8400 C   0  0  0  0  0  0  0  0  0  0  0  0
  -26.2940  -13.0770   20.2930 N   0  0  0  0  0  0  0  0  0  0  0  0
  -25.9370  -11.7950   20.5590 N   0  0  0  0  0  0  0  0  0  0  0  0
  -23.9230  -10.5610   21.0280 C   0  0  0  0  0  0  0  0  0  0  0  0
  -24.3550   -9.6030   21.9720 C   0  0  0  0  0  3  0  0  0  0  0  0
  -23.6400   -8.4000   22.1500 C   0  0  0  0  0  3  0  0  0  0  0  0
  -22.4780   -8.1460   21.3820 C   0  0  0  0  0  0  0  0  0  0  0  0
  -22.0650   -9.0930   20.4280 C   0  0  0  0  0  3  0  0  0  0  0  0
  -22.7820  -10.2880   20.2490 C   0  0  0  0  0  3  0  0  0  0  0  0
  -21.7330   -6.9950   21.4680 O   0  0  0  0  0  0  0  0  0  0  0  0
  -21.6880   -6.2500   22.6200 C   0  0  0  0  0  0  0  0  0  0  0  0
  -21.2630   -6.8030   23.8480 C   0  0  0  0  0  3  0  0  0  0  0  0
  -21.1630   -5.9850   24.9920 C   0  0  0  0  0  3  0  0  0  0  0  0
  -21.4800   -4.6160   24.9080 C   0  0  0  0  0  0  0  0  0  0  0  0
  -21.9010   -4.0620   23.6850 C   0  0  0  0  0  3  0  0  0  0  0  0
  -22.0000   -4.8780   22.5440 C   0  0  0  0  0  0  0  0  0  0  0  0
  -22.3830   -4.3360   21.3620 F   0  0  0  0  0  0  0  0  0  0  0  0
  -21.3800   -3.8270   26.0020 F   0  0  0  0  0  0  0  0  0  0  0  0
  -22.7590  -13.6420   21.0840 C   0  0  0  0  0  0  0  0  0  0  0  0
  -22.0210  -12.9480   21.9430 N   0  0  0  0  0  0  0  0  0  0  0  0
  -22.3200  -14.6560   20.5410 O   0  0  0  0  0  0  0  0  0  0  0  0
  -22.3890  -12.1290   22.4050 H   0  0  0  0  0  0  0  0  0  0  0  0
  -21.0750  -13.2380   22.1460 H   0  0  0  0  0  0  0  0  0  0  0  0
  -25.3960  -15.3210   20.2960 N   0  0  0  0  0  0  0  0  0  0  0  0
  -24.6240  -15.9740   20.3720 H   0  0  0  0  0  0  0  0  0  0  0  0
  -26.2540  -15.7580   19.9860 H   0  0  0  0  0  0  0  0  0  0  0  0
  2  1  2  0
  2  8  1  0
  3  2  1  0
  4  3  2  0
  4  5  1  0
  5  1  1  0
  7  6  1  0
  7  3  1  0
  8  9  1  0
 10 11  1  0
 10  9  1  0
 12 23  2  0
 13 11  1  0
 13 18  1  0
 14 22  1  0
 14 24  1  0
 15 21  1  0
 15 17  1  0
 16 22  1  0
 17 18  2  0
 17 16  1  0
 19 13  2  0
 20 19  1  0
 20 15  2  0
 21 14  1  0
 22 12  1  0
 24 26  2  0
 25 24  1  0
 27 25  1  0
 28 37  2  0
 28 33  1  0
 29 25  1  0
 29 33  1  0
 30 29  1  0
 31 32  1  0
 31 30  1  0
 32 28  1  0
 33 34  2  0
 34 35  1  0
 36 35  2  0
 37 36  1  0
 38 12  1  0
 38 39  1  0
 38 48  1  0
 39 42  1  0
 40 44  1  0
 40 39  1  0
 41 40  2  0
 44 43  1  0
 46 44  1  0
 46 47  1  0
 46 45  1  0
 48 51  1  1
 48 49  1  0
 50 48  1  0
 52  5  1  0
 52 54  1  0
 54 53  1  0
 57 55  1  6
 56 57  1  0
 57 54  1  0
 57 58  1  0
 59 67  1  0
 60 65  1  0
 61 62  1  0
 61 60  1  0
 63 62  1  0
 63 72  1  0
 63 64  1  0
 65 59  1  0
 65 64  1  0
 66 59  2  0
 67 58  1  0
 67 68  1  0
 69 70  2  0
 70 89  1  0
 71 70  1  0
 71 74  1  0
 72 69  1  0
 72 73  1  0
 73 71  2  0
 74 75  1  0
 75 76  2  0
 77 80  1  0
 77 76  1  0
 78 77  2  0
 79 78  1  0
 79 74  2  0
 80 81  1  0
 81 82  1  0
 82 83  2  0
 84 83  1  0
 84 88  1  0
 85 84  2  0
 86 81  2  0
 86 85  1  0
 87 86  1  0
 89 90  1  0
 90 93  1  0
 90 92  1  0
 91 89  2  0
 94 95  1  0
 94 69  1  0
 96 94  1  0
M  ISO  4  10 101  11 101  59 100  67 100
M  END
>  <TORSDO>  (95) 
F 24

>  <SCORE>  (95) 
-12.934

>  <name>  (95) 
94

>  <ligand_id>  (95) 
94

>  <original_smiles>  (95) 
[H]c1c([H])c([H])c2c(c1[H])C([H])([H])C([H])([H])C([H])([H])C2([H])N([H])C(=O)C1([H])N(C(=O)C([H])(N([H])C(=O)C([H])(N([H])C([H])([H])[H])C([H])([H])[H])C(C([H])([H])[H])(C([H])([H])[H])C([H])([H])[H])C([H])([H])c2c([H])c(OC([H])([H])C([H])([H])C([H])([H])c3c(C([H])([H])C([H])([H])[H])nn(C([H])([H])C([H])(C([H])([H])[H])C(C([H])([H])[H])(C([H])([H])[H])C([H])([H])N([H])C(=O)N4C([H])([H])C([H])([H])C([H])([H])C([H])(n5nc(-c6c([H])c([H])c(Oc7c([H])c([H])c(F)c([H])c7F)c([H])c6[H])c(C(=O)N([H])[H])c5N([H])[H])C4([H])[H])c3[H])c([H])c([H])c2C1([H])[H]

>  <smiles>  (95) 
[H]c1c([H])c([H])c2c(c1[H])C([H])([H])C([H])([H])C([H])([H])C2([H])N([H])C(=O)C1([H])N(C(=O)C([H])(N([H])C(=O)C([H])(N([H])C([H])([H])[H])C([H])([H])[H])C(C([H])([H])[H])(C([H])([H])[H])C([H])([H])[H])C([H])([H])c2c([H])c(OC([H])([H])C([H])([H])C([H])([H])c3c(C([H])([H])C([H])([H])[H])nn(C([H])([H])C([H])(C([H])([H])[H])C(C([H])([H])[H])(C([H])([H])[H])C([H])([H])N([H])C(=O)N4C([H])([H])C([H])([H])C([H])([H])C([H])(n5nc(-c6c([H])c([H])c(Oc7c([H])c([H])c(F)c([H])c7F)c([H])c6[H])c(C(=O)N([H])[H])c5N([H])[H])C4([H])[H])c3[H])c([H])c([H])c2C1([H])[H]

$$$$
95:0:0
     RDKit          3D

 86 93  0  0  1  0  0  0  0  0999 V2000
  -30.2210  -22.6010   19.0380 C   0  0  0  0  0  1  0  0  0  0  0  0
  -29.5260  -22.3300   21.4190 C   0  0  0  0  0  1  0  0  0  0  0  0
  -29.0380  -22.2890   19.9630 C   0  0  2  0  0  0  0  0  0  0  0  0
  -27.5040  -20.0880   20.4470 C   0  0  0  0  0  1  0  0  0  0  0  0
  -28.8030  -20.4020   19.6890 C   0  0  0  0  0  3  0  0  0  0  0  0
  -29.8460  -18.7890   19.8370 C   0  0  0  0  0  2  0  0  0  0  0  0
  -30.3490  -15.6760   19.7280 C   0  0  0  0  0  0  0  0  0  0  0  0
  -30.3710  -13.1370   18.9130 C   0  0  0  0  0  2  0  0  0  0  0  0
  -29.3900  -12.7240   17.7800 C   0  0  0  0  0  2  0  0  0  0  0  0
  -28.0110  -12.3560   18.3530 C   0  0  0  0  0  2  0  0  0  0  0  0
  -27.5720  -13.3630   19.4380 C   0  0  0  0  0  3  0  0  0  0  0  0
  -28.6860  -13.7140   20.4570 C   0  0  0  0  0  2  0  0  0  0  0  0
  -29.8040  -14.3200   19.6960 N   0  0  0  0  0  0  0  0  0  0  0  0
  -31.5790  -15.6020   19.5410 O   0  0  0  0  0  0  0  0  0  0  0  0
  -28.1650  -16.9130   19.5450 C   0  0  0  0  0  1  0  0  0  0  0  0
  -29.5920  -17.0450   19.7730 N   0  0  0  0  0  0  0  0  0  0  0  0
  -25.2910  -13.9070   20.4210 C   0  0  0  0  0  0  0  0  0  0  0  0
  -24.2600  -13.1290   20.8550 C   0  0  0  0  0  0  0  0  0  0  0  0
  -24.7120  -11.7790   20.7440 C   0  0  0  0  0  0  0  0  0  0  0  0
  -26.3030  -13.0340   20.0640 N   0  0  0  0  0  0  0  0  0  0  0  0
  -25.9740  -11.7440   20.3260 N   0  0  0  0  0  0  0  0  0  0  0  0
  -23.9900  -10.5190   20.9490 C   0  0  0  0  0  0  0  0  0  0  0  0
  -24.4560   -9.5430   21.8560 C   0  0  0  0  0  3  0  0  0  0  0  0
  -23.7300   -8.3490   22.0540 C   0  0  0  0  0  3  0  0  0  0  0  0
  -22.5260   -8.1250   21.3450 C   0  0  0  0  0  0  0  0  0  0  0  0
  -22.0790   -9.0900   20.4270 C   0  0  0  0  0  3  0  0  0  0  0  0
  -22.8050  -10.2770   20.2270 C   0  0  0  0  0  3  0  0  0  0  0  0
  -21.7670   -6.9840   21.4550 O   0  0  0  0  0  0  0  0  0  0  0  0
  -21.7260   -6.2570   22.6150 C   0  0  0  0  0  0  0  0  0  0  0  0
  -21.2500   -6.8090   23.8250 C   0  0  0  0  0  3  0  0  0  0  0  0
  -21.1600   -6.0020   24.9780 C   0  0  0  0  0  3  0  0  0  0  0  0
  -21.5350   -4.6470   24.9220 C   0  0  0  0  0  0  0  0  0  0  0  0
  -22.0040   -4.0950   23.7170 C   0  0  0  0  0  3  0  0  0  0  0  0
  -22.0960   -4.8980   22.5660 C   0  0  0  0  0  0  0  0  0  0  0  0
  -22.5280   -4.3560   21.4030 F   0  0  0  0  0  0  0  0  0  0  0  0
  -21.4400   -3.8700   26.0270 F   0  0  0  0  0  0  0  0  0  0  0  0
  -22.8940  -13.6110   21.2480 C   0  0  0  0  0  0  0  0  0  0  0  0
  -22.2330  -12.9050   22.1570 N   0  0  0  0  0  0  0  0  0  0  0  0
  -22.4280  -14.6520   20.7840 O   0  0  0  0  0  0  0  0  0  0  0  0
  -22.6270  -12.0640   22.5540 H   0  0  0  0  0  0  0  0  0  0  0  0
  -21.3220  -13.2130   22.4650 H   0  0  0  0  0  0  0  0  0  0  0  0
  -25.4310  -15.2810   20.2660 N   0  0  0  0  0  0  0  0  0  0  0  0
  -24.6640  -15.9150   20.4650 H   0  0  0  0  0  0  0  0  0  0  0  0
  -26.2300  -15.7420   19.8520 H   0  0  0  0  0  0  0  0  0  0  0  0
  -28.0140  -23.9110   19.8280 C   0  0  0  0  0  2  0  0  0  0  0  0
  -28.1820  -25.6280   20.0610 O   0  0  0  0  0  0  0  0  0  0  0  0
  -24.6550  -31.7650   23.1570 C   0  0  0  0  0  0  0  0  0  0  0  0
  -27.1910  -26.8100   20.0370 C   0  0  0  0  0  0  0  0  0  0  0  0
  -23.4630  -30.4040   21.4930 C   0  0  0  0  0  3  0  0  0  0  0  0
  -24.9090  -28.8020   20.0360 C   0  0  0  0  0  0  0  0  0  0  0  0
  -26.0380  -30.5720   21.3590 C   0  0  0  0  0  2  0  0  0  0  0  0
  -26.1050  -29.1590   20.6700 C   0  0  0  0  0  0  0  0  0  0  0  0
  -27.2330  -28.1920   20.6370 C   0  0  0  0  0  3  0  0  0  0  0  0
  -25.9590  -26.6490   19.3550 C   0  0  0  0  0  3  0  0  0  0  0  0
  -24.8720  -27.5740   19.3540 C   0  0  0  0  0  3  0  0  0  0  0  0
  -23.6980  -29.7420   20.1050 C   0  0  0  0  0  2  0  0  0  0  0  0
  -24.7430  -30.9440   22.0570 N   0  0  0  0  0  0  0  0  0  0  0  0
  -23.5620  -32.0470   23.6810 O   0  0  0  0  0  0  0  0  0  0  0  0
  -22.7590  -29.3970   22.4430 C   0  0  0  0  0  0  0  0  0  0  0  0
  -21.4280  -29.2340   22.3150 N   0  0  0  0  0  0  0  0  0  0  0  0
  -23.4200  -28.7620   23.2670 O   0  0  0  0  0  0  0  0  0  0  0  0
  -20.9440  -29.7970   21.6290 H   0  0  0  0  0  0  0  0  0  0  0  0
  -18.0470  -28.0000   22.8160 C   0  0  0  0  0  0  0  0  0  0  0  0
  -20.6080  -28.2760   23.0690 C   0  0  0  0  0  3  0  0  0  0  0  0
  -20.7110  -26.8570   22.4610 C   0  0  0  0  0  2  0  0  0  0  0  0
  -19.6060  -26.5530   21.4450 C   0  0  0  0  0  2  0  0  0  0  0  0
  -18.2270  -26.6720   22.1010 C   0  0  0  0  0  2  0  0  0  0  0  0
  -19.1630  -28.7610   23.2560 C   0  0  0  0  0  0  0  0  0  0  0  0
  -18.9370  -30.0010   23.8900 C   0  0  0  0  0  3  0  0  0  0  0  0
  -17.6280  -30.4850   24.0840 C   0  0  0  0  0  3  0  0  0  0  0  0
  -16.5280  -29.7230   23.6560 C   0  0  0  0  0  3  0  0  0  0  0  0
  -16.7380  -28.4820   23.0290 C   0  0  0  0  0  3  0  0  0  0  0  0
  -25.9200  -32.4050   23.8070 C   0  0  0  0  0  3  0  0  0  0  0  0
  -26.3920  -31.6480   25.1110 C   0  0  1  0  0  0  0  0  0  0  0  0
  -25.2690  -31.4420   26.1540 C   0  0  0  0  0  1  0  0  0  0  0  0
  -26.9680  -30.2560   24.7660 C   0  0  0  0  0  1  0  0  0  0  0  0
  -27.5360  -32.4390   25.7890 C   0  0  0  0  0  1  0  0  0  0  0  0
  -25.6090  -33.8110   24.1290 N   0  0  0  0  0  0  0  0  0  0  0  0
  -25.9360  -34.8660   23.3710 C   0  0  0  0  0  0  0  0  0  0  0  0
  -26.5870  -34.7590   22.3280 O   0  0  0  0  0  0  0  0  0  0  0  0
  -25.0280  -33.9680   24.9390 H   0  0  0  0  0  0  0  0  0  0  0  0
  -24.2010  -36.6710   23.0730 C   0  0  0  0  0  1  0  0  0  0  0  0
  -25.4710  -36.2630   23.8370 C   0  0  0  0  0  3  0  0  0  0  0  0
  -27.6290  -37.1620   24.5930 C   0  0  0  0  0  1  0  0  0  0  0  0
  -26.5010  -37.3130   23.6790 N   0  0  0  0  0  0  0  0  0  0  0  0
  -26.1000  -38.2360   23.8200 H   0  0  0  0  0  0  0  0  0  0  0  0
  3  1  1  6
  3  2  1  0
  5  6  1  0
  5  3  1  0
  5  4  1  0
  7 16  1  0
  8 13  1  0
  9 10  1  0
  9  8  1  0
 11 10  1  0
 11 20  1  0
 11 12  1  0
 13  7  1  0
 13 12  1  0
 14  7  2  0
 15 16  1  0
 16  6  1  0
 17 18  2  0
 18 37  1  0
 19 18  1  0
 19 22  1  0
 20 21  1  0
 20 17  1  0
 21 19  2  0
 22 23  1  0
 23 24  2  0
 25 28  1  0
 25 24  1  0
 26 25  2  0
 27 26  1  0
 27 22  2  0
 28 29  1  0
 29 30  1  0
 30 31  2  0
 32 31  1  0
 32 36  1  0
 33 32  2  0
 34 29  2  0
 34 33  1  0
 35 34  1  0
 37 38  1  0
 38 41  1  0
 38 40  1  0
 39 37  2  0
 42 17  1  0
 42 43  1  0
 44 42  1  0
 45  3  1  0
 45 46  1  0
 47 58  2  0
 48 46  1  0
 48 53  1  0
 49 57  1  0
 49 59  1  0
 50 56  1  0
 50 52  1  0
 51 57  1  0
 52 51  1  0
 53 52  2  0
 54 48  2  0
 55 54  1  0
 55 50  2  0
 56 49  1  0
 57 47  1  0
 59 61  2  0
 60 59  1  0
 62 60  1  0
 63 72  2  0
 63 68  1  0
 64 60  1  0
 64 68  1  0
 65 64  1  0
 66 67  1  0
 66 65  1  0
 67 63  1  0
 68 69  2  0
 69 70  1  0
 71 70  2  0
 72 71  1  0
 73 47  1  0
 73 78  1  0
 73 74  1  0
 74 77  1  1
 74 75  1  0
 76 74  1  0
 78 81  1  0
 79 83  1  0
 79 78  1  0
 80 79  2  0
 83 82  1  0
 85 86  1  0
 85 83  1  0
 85 84  1  0
M  ISO  4   7 100  16 100  45 101  46 101
M  END
>  <TORSDO>  (96) 
F 19

>  <SCORE>  (96) 
-15.914

>  <name>  (96) 
95

>  <ligand_id>  (96) 
95

>  <original_smiles>  (96) 
[H]c1c([H])c([H])c2c(c1[H])C([H])([H])C([H])([H])C([H])([H])C2([H])N([H])C(=O)C1([H])N(C(=O)C([H])(N([H])C(=O)C([H])(N([H])C([H])([H])[H])C([H])([H])[H])C(C([H])([H])[H])(C([H])([H])[H])C([H])([H])[H])C([H])([H])c2c([H])c(OC([H])([H])C(C([H])([H])[H])(C([H])([H])[H])C([H])(C([H])([H])[H])C([H])([H])N(C(=O)N3C([H])([H])C([H])([H])C([H])([H])C([H])(n4nc(-c5c([H])c([H])c(Oc6c([H])c([H])c(F)c([H])c6F)c([H])c5[H])c(C(=O)N([H])[H])c4N([H])[H])C3([H])[H])C([H])([H])[H])c([H])c([H])c2C1([H])[H]

>  <smiles>  (96) 
[H]c1c([H])c([H])c2c(c1[H])C([H])([H])C([H])([H])C([H])([H])C2([H])N([H])C(=O)C1([H])N(C(=O)C([H])(N([H])C(=O)C([H])(N([H])C([H])([H])[H])C([H])([H])[H])C(C([H])([H])[H])(C([H])([H])[H])C([H])([H])[H])C([H])([H])c2c([H])c(OC([H])([H])C(C([H])([H])[H])(C([H])([H])[H])C([H])(C([H])([H])[H])C([H])([H])N(C(=O)N3C([H])([H])C([H])([H])C([H])([H])C([H])(n4nc(-c5c([H])c([H])c(Oc6c([H])c([H])c(F)c([H])c6F)c([H])c5[H])c(C(=O)N([H])[H])c4N([H])[H])C3([H])[H])C([H])([H])[H])c([H])c([H])c2C1([H])[H]

$$$$
