0:0:0
     RDKit          3D

 92100  0  0  1  0  0  0  0  0999 V2000
  -28.7790  -21.6260   20.9690 C   0  0  0  0  0  3  0  0  0  0  0  0
  -29.7480  -19.3340   21.4180 C   0  0  0  0  0  3  0  0  0  0  0  0
  -30.0900  -18.1800   20.7530 C   0  0  0  0  0  0  0  0  0  0  0  0
  -29.8700  -18.4550   19.3700 C   0  0  0  0  0  0  0  0  0  0  0  0
  -29.3890  -19.7410   19.2510 C   0  0  0  0  0  0  0  0  0  0  0  0
  -30.1280  -17.4860   18.2390 C   0  0  0  0  0  1  0  0  0  0  0  0
  -28.9840  -20.4770   18.0120 C   0  0  0  0  0  1  0  0  0  0  0  0
  -29.3120  -20.3090   20.5250 N   0  0  0  0  0  0  0  0  0  0  0  0
  -30.6490  -16.9000   21.3940 C   0  0  0  0  0  2  0  0  0  0  0  0
  -30.7170  -14.5610   20.4340 C   0  0  0  0  0  0  0  0  0  0  0  0
  -30.3950  -12.3970   19.2830 C   0  0  0  0  0  2  0  0  0  0  0  0
  -29.4540  -12.5760   18.0750 C   0  0  0  0  0  2  0  0  0  0  0  0
  -27.9800  -12.4430   18.5030 C   0  0  0  0  0  2  0  0  0  0  0  0
  -27.6410  -13.2910   19.7610 C   0  0  0  0  0  3  0  0  0  0  0  0
  -28.6980  -13.1020   20.8700 C   0  0  0  0  0  2  0  0  0  0  0  0
  -30.0170  -13.4000   20.2910 N   0  0  0  0  0  0  0  0  0  0  0  0
  -31.8590  -14.6980   19.9920 O   0  0  0  0  0  0  0  0  0  0  0  0
  -30.0580  -15.6080   20.9810 N   0  0  0  0  0  0  0  0  0  0  0  0
  -29.0850  -15.4670   21.2140 H   0  0  0  0  0  0  0  0  0  0  0  0
  -25.2440  -13.9020   20.4600 C   0  0  0  0  0  0  0  0  0  0  0  0
  -24.1750  -13.1330   20.8320 C   0  0  0  0  0  0  0  0  0  0  0  0
  -24.6330  -11.7820   20.8150 C   0  0  0  0  0  0  0  0  0  0  0  0
  -26.2890  -13.0170   20.2430 N   0  0  0  0  0  0  0  0  0  0  0  0
  -25.9250  -11.7380   20.5130 N   0  0  0  0  0  0  0  0  0  0  0  0
  -23.9050  -10.5230   21.0140 C   0  0  0  0  0  0  0  0  0  0  0  0
  -24.3400   -9.5540   21.9470 C   0  0  0  0  0  3  0  0  0  0  0  0
  -23.6130   -8.3580   22.1320 C   0  0  0  0  0  3  0  0  0  0  0  0
  -22.4340   -8.1220   21.3850 C   0  0  0  0  0  0  0  0  0  0  0  0
  -22.0180   -9.0770   20.4410 C   0  0  0  0  0  3  0  0  0  0  0  0
  -22.7440  -10.2640   20.2550 C   0  0  0  0  0  3  0  0  0  0  0  0
  -21.6730   -6.9820   21.4830 O   0  0  0  0  0  0  0  0  0  0  0  0
  -21.6380   -6.2370   22.6350 C   0  0  0  0  0  0  0  0  0  0  0  0
  -21.2310   -6.7920   23.8700 C   0  0  0  0  0  3  0  0  0  0  0  0
  -21.1460   -5.9740   25.0140 C   0  0  0  0  0  3  0  0  0  0  0  0
  -21.4500   -4.6030   24.9240 C   0  0  0  0  0  0  0  0  0  0  0  0
  -21.8440   -4.0460   23.6940 C   0  0  0  0  0  3  0  0  0  0  0  0
  -21.9360   -4.8610   22.5530 C   0  0  0  0  0  0  0  0  0  0  0  0
  -22.2970   -4.3170   21.3650 F   0  0  0  0  0  0  0  0  0  0  0  0
  -21.3560   -3.8150   26.0200 F   0  0  0  0  0  0  0  0  0  0  0  0
  -22.7760  -13.6140   21.1000 C   0  0  0  0  0  0  0  0  0  0  0  0
  -22.0450  -12.9260   21.9690 N   0  0  0  0  0  0  0  0  0  0  0  0
  -22.3410  -14.6380   20.5720 O   0  0  0  0  0  0  0  0  0  0  0  0
  -22.4090  -12.1020   22.4230 H   0  0  0  0  0  0  0  0  0  0  0  0
  -21.1080  -13.2320   22.1870 H   0  0  0  0  0  0  0  0  0  0  0  0
  -25.4110  -15.2690   20.2700 N   0  0  0  0  0  0  0  0  0  0  0  0
  -24.6520  -15.9330   20.3830 H   0  0  0  0  0  0  0  0  0  0  0  0
  -26.2640  -15.7040   19.9370 H   0  0  0  0  0  0  0  0  0  0  0  0
  -29.0420  -22.8980   20.0980 C   0  0  0  0  0  3  0  0  0  0  0  0
  -29.4250  -24.6370   21.9490 C   0  0  0  0  0  1  0  0  0  0  0  0
  -28.5840  -24.2690   20.7130 C   0  0  0  0  0  3  0  0  0  0  0  0
  -28.6240  -25.4300   19.6700 C   0  0  0  0  0  2  0  0  0  0  0  0
  -28.4510  -26.7570   20.2220 O   0  0  0  0  0  0  0  0  0  0  0  0
  -24.5820  -31.9070   23.2680 C   0  0  0  0  0  0  0  0  0  0  0  0
  -27.2440  -27.4400   20.1980 C   0  0  0  0  0  0  0  0  0  0  0  0
  -23.3850  -30.5010   21.6230 C   0  0  0  0  0  3  0  0  0  0  0  0
  -24.8420  -28.9610   20.2050 C   0  0  0  0  0  0  0  0  0  0  0  0
  -25.9110  -30.8590   21.4310 C   0  0  0  0  0  2  0  0  0  0  0  0
  -25.9980  -29.4830   20.7950 C   0  0  0  0  0  0  0  0  0  0  0  0
  -27.1970  -28.7310   20.7850 C   0  0  0  0  0  3  0  0  0  0  0  0
  -26.0590  -26.9290   19.6180 C   0  0  0  0  0  3  0  0  0  0  0  0
  -24.8690  -27.6850   19.6150 C   0  0  0  0  0  3  0  0  0  0  0  0
  -23.5980  -29.8210   20.2450 C   0  0  0  0  0  2  0  0  0  0  0  0
  -24.6450  -31.1040   22.1670 N   0  0  0  0  0  0  0  0  0  0  0  0
  -23.4980  -32.1780   23.8040 O   0  0  0  0  0  0  0  0  0  0  0  0
  -22.7310  -29.4800   22.5830 C   0  0  0  0  0  0  0  0  0  0  0  0
  -21.4080  -29.2970   22.4530 N   0  0  0  0  0  0  0  0  0  0  0  0
  -23.4140  -28.8560   23.3990 O   0  0  0  0  0  0  0  0  0  0  0  0
  -20.9190  -29.8550   21.7670 H   0  0  0  0  0  0  0  0  0  0  0  0
  -18.0310  -28.1060   22.9410 C   0  0  0  0  0  0  0  0  0  0  0  0
  -20.5880  -28.3580   23.2190 C   0  0  0  0  0  3  0  0  0  0  0  0
  -20.6890  -26.9290   22.6380 C   0  0  0  0  0  2  0  0  0  0  0  0
  -19.5890  -26.6110   21.6210 C   0  0  0  0  0  2  0  0  0  0  0  0
  -18.2070  -26.7570   22.2640 C   0  0  0  0  0  2  0  0  0  0  0  0
  -19.1500  -28.8650   23.3760 C   0  0  0  0  0  0  0  0  0  0  0  0
  -18.9330  -30.1280   23.9690 C   0  0  0  0  0  3  0  0  0  0  0  0
  -17.6270  -30.6320   24.1310 C   0  0  0  0  0  3  0  0  0  0  0  0
  -16.5230  -29.8690   23.7150 C   0  0  0  0  0  3  0  0  0  0  0  0
  -16.7260  -28.6080   23.1260 C   0  0  0  0  0  3  0  0  0  0  0  0
  -25.8630  -32.5430   23.8920 C   0  0  0  0  0  3  0  0  0  0  0  0
  -25.5560  -33.9450   24.2060 N   0  0  0  0  0  0  0  0  0  0  0  0
  -25.9000  -34.9890   23.4400 C   0  0  0  0  0  0  0  0  0  0  0  0
  -26.5810  -34.8720   22.4170 O   0  0  0  0  0  0  0  0  0  0  0  0
  -24.9540  -34.1090   25.0000 H   0  0  0  0  0  0  0  0  0  0  0  0
  -24.1820  -36.7820   23.0470 C   0  0  0  0  0  1  0  0  0  0  0  0
  -25.4110  -36.3820   23.8780 C   0  0  0  0  0  3  0  0  0  0  0  0
  -27.5390  -37.2670   24.7260 C   0  0  0  0  0  1  0  0  0  0  0  0
  -26.4490  -37.4310   23.7690 N   0  0  0  0  0  0  0  0  0  0  0  0
  -26.0440  -38.3540   23.9040 H   0  0  0  0  0  0  0  0  0  0  0  0
  -26.3700  -31.7830   25.1790 C   0  0  1  0  0  0  0  0  0  0  0  0
  -25.2710  -31.5570   26.2430 C   0  0  0  0  0  1  0  0  0  0  0  0
  -26.9510  -30.4010   24.7980 C   0  0  0  0  0  1  0  0  0  0  0  0
  -27.5190  -32.5800   25.8410 C   0  0  0  0  0  1  0  0  0  0  0  0
  3  9  1  0
  3  2  2  0
  4  3  1  0
  5  4  2  0
  5  8  1  0
  6  4  1  0
  7  5  1  0
  8  1  1  0
  8  2  1  0
 10 18  1  0
 11 16  1  0
 12 13  1  0
 12 11  1  0
 14 13  1  0
 14 23  1  0
 14 15  1  0
 16 10  1  0
 16 15  1  0
 17 10  2  0
 18 19  1  0
 18  9  1  0
 20 21  2  0
 21 40  1  0
 22 21  1  0
 22 25  1  0
 23 20  1  0
 23 24  1  0
 24 22  2  0
 25 26  1  0
 26 27  2  0
 28 31  1  0
 28 27  1  0
 29 28  2  0
 30 29  1  0
 30 25  2  0
 31 32  1  0
 32 33  1  0
 33 34  2  0
 35 34  1  0
 35 39  1  0
 36 35  2  0
 37 32  2  0
 37 36  1  0
 38 37  1  0
 40 41  1  0
 41 44  1  0
 41 43  1  0
 42 40  2  0
 45 46  1  0
 45 20  1  0
 47 45  1  0
 48 50  1  0
 48  1  2  0
 50 49  1  0
 51 52  1  0
 51 50  1  0
 53 64  2  0
 54 52  1  0
 54 59  1  0
 55 63  1  0
 55 65  1  0
 56 62  1  0
 56 58  1  0
 57 63  1  0
 58 57  1  0
 59 58  2  0
 60 54  2  0
 61 60  1  0
 61 56  2  0
 62 55  1  0
 63 53  1  0
 65 67  2  0
 66 65  1  0
 68 66  1  0
 69 78  2  0
 69 74  1  0
 70 66  1  0
 70 74  1  0
 71 70  1  0
 72 73  1  0
 72 71  1  0
 73 69  1  0
 74 75  2  0
 75 76  1  0
 77 76  2  0
 78 77  1  0
 79 53  1  0
 79 80  1  0
 79 89  1  0
 80 83  1  0
 81 85  1  0
 81 80  1  0
 82 81  2  0
 85 84  1  0
 87 85  1  0
 87 88  1  0
 87 86  1  0
 89 92  1  1
 89 90  1  0
 91 89  1  0
M  ISO  4  10 100  18 100  51 101  52 101
M  END
>  <TORSDO>  (1) 
F 21

>  <SCORE>  (1) 
-13.451

>  <name>  (1) 
0

>  <ligand_id>  (1) 
0

>  <original_smiles>  (1) 
[H]c1c([H])c([H])c2c(c1[H])C([H])([H])C([H])([H])C([H])([H])C2([H])N([H])C(=O)C1([H])N(C(=O)C([H])(N([H])C(=O)C([H])(N([H])C([H])([H])[H])C([H])([H])[H])C(C([H])([H])[H])(C([H])([H])[H])C([H])([H])[H])C([H])([H])c2c([H])c(OC([H])([H])C([H])(C([H])([H])[H])C([H])([H])C([H])([H])n3c([H])c(C([H])([H])N([H])C(=O)N4C([H])([H])C([H])([H])C([H])([H])C([H])(n5nc(-c6c([H])c([H])c(Oc7c([H])c([H])c(F)c([H])c7F)c([H])c6[H])c(C(=O)N([H])[H])c5N([H])[H])C4([H])[H])c(C([H])([H])[H])c3C([H])([H])[H])c([H])c([H])c2C1([H])[H]

>  <smiles>  (1) 
[H]c1c([H])c([H])c2c(c1[H])C([H])([H])C([H])([H])C([H])([H])C2([H])N([H])C(=O)C1([H])N(C(=O)C([H])(N([H])C(=O)C([H])(N([H])C([H])([H])[H])C([H])([H])[H])C(C([H])([H])[H])(C([H])([H])[H])C([H])([H])[H])C([H])([H])c2c([H])c(OC([H])([H])C([H])(C([H])([H])[H])C([H])([H])C([H])([H])n3c([H])c(C([H])([H])N([H])C(=O)N4C([H])([H])C([H])([H])C([H])([H])C([H])(n5nc(-c6c([H])c([H])c(Oc7c([H])c([H])c(F)c([H])c7F)c([H])c6[H])c(C(=O)N([H])[H])c5N([H])[H])C4([H])[H])c(C([H])([H])[H])c3C([H])([H])[H])c([H])c([H])c2C1([H])[H]

$$$$
1:0:0
     RDKit          3D

 93101  0  0  1  0  0  0  0  0999 V2000
  -29.9450  -20.5060   20.0540 C   0  0  0  0  0  3  0  0  0  0  0  0
  -28.0370  -21.6610   19.1220 C   0  0  0  0  0  3  0  0  0  0  0  0
  -29.3020  -21.7460   19.7140 C   0  0  0  0  0  0  0  0  0  0  0  0
  -29.3130  -19.2560   19.7300 C   0  0  0  0  0  0  0  0  0  0  0  0
  -28.0970  -19.3500   19.0000 C   0  0  0  0  0  0  0  0  0  0  0  0
  -27.4680  -20.5140   18.7770 N   0  0  0  0  0  0  0  0  0  0  0  0
  -26.8800  -18.3930   17.0290 C   0  0  0  0  0  1  0  0  0  0  0  0
  -26.0460  -17.9830   19.4190 C   0  0  0  0  0  1  0  0  0  0  0  0
  -27.2730  -18.1640   18.5090 C   0  0  0  0  0  3  0  0  0  0  0  0
  -29.9110  -23.1600   19.8910 C   0  0  0  0  0  2  0  0  0  0  0  0
  -29.2900  -24.1380   20.9540 C   0  0  0  0  0  2  0  0  0  0  0  0
  -28.0360  -24.9800   20.5520 C   0  0  0  0  0  2  0  0  0  0  0  0
  -28.2770  -26.3620   20.2080 O   0  0  0  0  0  0  0  0  0  0  0  0
  -24.6150  -31.6870   23.2780 C   0  0  0  0  0  0  0  0  0  0  0  0
  -27.1420  -27.1650   20.1930 C   0  0  0  0  0  0  0  0  0  0  0  0
  -23.3970  -30.3480   21.6270 C   0  0  0  0  0  3  0  0  0  0  0  0
  -24.7970  -28.7620   20.1980 C   0  0  0  0  0  0  0  0  0  0  0  0
  -25.9320  -30.5970   21.4600 C   0  0  0  0  0  2  0  0  0  0  0  0
  -25.9690  -29.2400   20.7990 C   0  0  0  0  0  0  0  0  0  0  0  0
  -27.1430  -28.4500   20.7880 C   0  0  0  0  0  3  0  0  0  0  0  0
  -25.9560  -26.7180   19.5790 C   0  0  0  0  0  3  0  0  0  0  0  0
  -24.7860  -27.4990   19.5770 C   0  0  0  0  0  3  0  0  0  0  0  0
  -23.5800  -29.6630   20.2440 C   0  0  0  0  0  2  0  0  0  0  0  0
  -24.6700  -30.8830   22.1810 N   0  0  0  0  0  0  0  0  0  0  0  0
  -23.5350  -31.9930   23.8080 O   0  0  0  0  0  0  0  0  0  0  0  0
  -22.6970  -29.3550   22.5780 C   0  0  0  0  0  0  0  0  0  0  0  0
  -21.3860  -29.3260   22.4120 N   0  0  0  0  0  0  0  0  0  0  0  0
  -23.3080  -28.6320   23.3630 O   0  0  0  0  0  0  0  0  0  0  0  0
  -21.0480  -30.0420   21.7870 H   0  0  0  0  0  0  0  0  0  0  0  0
  -17.8870  -28.1050   22.7900 C   0  0  0  0  0  0  0  0  0  0  0  0
  -20.3820  -28.3660   22.7840 C   0  0  0  0  0  3  0  0  0  0  0  0
  -20.5550  -26.8590   22.6010 C   0  0  0  0  0  2  0  0  0  0  0  0
  -19.4630  -26.3680   21.6280 C   0  0  0  0  0  2  0  0  0  0  0  0
  -18.0350  -26.7470   22.0970 C   0  0  0  0  0  2  0  0  0  0  0  0
  -19.0170  -28.8400   23.2170 C   0  0  0  0  0  0  0  0  0  0  0  0
  -18.8500  -30.0840   23.8600 C   0  0  0  0  0  3  0  0  0  0  0  0
  -17.5600  -30.6150   24.0450 C   0  0  0  0  0  3  0  0  0  0  0  0
  -16.4370  -29.9040   23.5850 C   0  0  0  0  0  3  0  0  0  0  0  0
  -16.5990  -28.6540   22.9690 C   0  0  0  0  0  3  0  0  0  0  0  0
  -25.9130  -32.2460   23.9270 C   0  0  0  0  0  3  0  0  0  0  0  0
  -25.6440  -33.6400   24.2910 N   0  0  0  0  0  0  0  0  0  0  0  0
  -26.0120  -34.6970   23.5520 C   0  0  0  0  0  0  0  0  0  0  0  0
  -26.6870  -34.6030   22.5220 O   0  0  0  0  0  0  0  0  0  0  0  0
  -25.0430  -33.8030   25.0870 H   0  0  0  0  0  0  0  0  0  0  0  0
  -24.3330  -36.5530   23.2430 C   0  0  0  0  0  1  0  0  0  0  0  0
  -25.5650  -36.0910   24.0400 C   0  0  0  0  0  3  0  0  0  0  0  0
  -27.7260  -36.9030   24.8820 C   0  0  0  0  0  1  0  0  0  0  0  0
  -26.6270  -37.1200   23.9410 N   0  0  0  0  0  0  0  0  0  0  0  0
  -26.2420  -38.0450   24.1160 H   0  0  0  0  0  0  0  0  0  0  0  0
  -26.3870  -31.4280   25.1900 C   0  0  1  0  0  0  0  0  0  0  0  0
  -25.2780  -31.1960   26.2410 C   0  0  0  0  0  1  0  0  0  0  0  0
  -26.9330  -30.0430   24.7710 C   0  0  0  0  0  1  0  0  0  0  0  0
  -27.5490  -32.1700   25.8950 C   0  0  0  0  0  1  0  0  0  0  0  0
  -29.7830  -17.9000   20.3450 C   0  0  0  0  0  2  0  0  0  0  0  0
  -30.1430  -16.6560   19.4780 C   0  0  0  0  0  2  0  0  0  0  0  0
  -31.0390  -14.3520   19.9280 C   0  0  0  0  0  0  0  0  0  0  0  0
  -30.7500  -12.0710   19.0760 C   0  0  0  0  0  2  0  0  0  0  0  0
  -29.7550  -12.1830   17.8940 C   0  0  0  0  0  2  0  0  0  0  0  0
  -28.2930  -12.0990   18.3990 C   0  0  0  0  0  2  0  0  0  0  0  0
  -28.0080  -13.0520   19.5960 C   0  0  0  0  0  3  0  0  0  0  0  0
  -29.1170  -12.8790   20.6670 C   0  0  0  0  0  2  0  0  0  0  0  0
  -30.4210  -13.1420   20.0380 N   0  0  0  0  0  0  0  0  0  0  0  0
  -32.0990  -14.4900   19.3210 O   0  0  0  0  0  0  0  0  0  0  0  0
  -30.3310  -15.4360   20.3220 N   0  0  0  0  0  0  0  0  0  0  0  0
  -29.7100  -15.3020   21.1410 H   0  0  0  0  0  0  0  0  0  0  0  0
  -25.7030  -13.8110   20.4640 C   0  0  0  0  0  0  0  0  0  0  0  0
  -24.5950  -13.1130   20.8610 C   0  0  0  0  0  0  0  0  0  0  0  0
  -24.9450  -11.7320   20.7530 C   0  0  0  0  0  0  0  0  0  0  0  0
  -26.6630  -12.8590   20.1450 N   0  0  0  0  0  0  0  0  0  0  0  0
  -26.2100  -11.6000   20.3690 N   0  0  0  0  0  0  0  0  0  0  0  0
  -24.1340  -10.5180   20.9400 C   0  0  0  0  0  0  0  0  0  0  0  0
  -24.5340   -9.4920   21.8240 C   0  0  0  0  0  3  0  0  0  0  0  0
  -23.7380   -8.3390   21.9940 C   0  0  0  0  0  3  0  0  0  0  0  0
  -22.5230   -8.2020   21.2820 C   0  0  0  0  0  0  0  0  0  0  0  0
  -22.1380   -9.2160   20.3860 C   0  0  0  0  0  3  0  0  0  0  0  0
  -22.9340  -10.3640   20.2150 C   0  0  0  0  0  3  0  0  0  0  0  0
  -21.6960   -7.1080   21.3700 O   0  0  0  0  0  0  0  0  0  0  0  0
  -21.6190   -6.3460   22.5120 C   0  0  0  0  0  0  0  0  0  0  0  0
  -21.2720   -6.9030   23.7630 C   0  0  0  0  0  3  0  0  0  0  0  0
  -21.1490   -6.0680   24.8950 C   0  0  0  0  0  3  0  0  0  0  0  0
  -21.3680   -4.6820   24.7740 C   0  0  0  0  0  0  0  0  0  0  0  0
  -21.6970   -4.1280   23.5260 C   0  0  0  0  0  3  0  0  0  0  0  0
  -21.8290   -4.9570   22.4030 C   0  0  0  0  0  0  0  0  0  0  0  0
  -22.1320   -4.4080   21.1990 F   0  0  0  0  0  0  0  0  0  0  0  0
  -21.2320   -3.8860   25.8610 F   0  0  0  0  0  0  0  0  0  0  0  0
  -23.2610  -13.6830   21.2340 C   0  0  0  0  0  0  0  0  0  0  0  0
  -22.5350  -13.0060   22.1180 N   0  0  0  0  0  0  0  0  0  0  0  0
  -22.8690  -14.7560   20.7760 O   0  0  0  0  0  0  0  0  0  0  0  0
  -22.8730  -12.1350   22.4990 H   0  0  0  0  0  0  0  0  0  0  0  0
  -21.6450  -13.3700   22.4150 H   0  0  0  0  0  0  0  0  0  0  0  0
  -25.9900  -15.1600   20.3180 N   0  0  0  0  0  0  0  0  0  0  0  0
  -25.3180  -15.9010   20.4700 H   0  0  0  0  0  0  0  0  0  0  0  0
  -26.8510  -15.4750   19.8950 H   0  0  0  0  0  0  0  0  0  0  0  0
  2  3  1  0
  3 10  1  0
  3  1  2  0
  4  1  1  0
  4 54  1  0
  5  4  2  0
  6  5  1  0
  6  2  2  0
  7  9  1  0
  9  5  1  0
  9  8  1  0
 10 11  1  0
 12 11  1  0
 13 12  1  0
 14 25  2  0
 15 13  1  0
 15 20  1  0
 16 24  1  0
 16 26  1  0
 17 23  1  0
 17 19  1  0
 18 24  1  0
 19 18  1  0
 20 19  2  0
 21 15  2  0
 22 21  1  0
 22 17  2  0
 23 16  1  0
 24 14  1  0
 26 28  2  0
 27 26  1  0
 29 27  1  0
 30 39  2  0
 30 35  1  0
 31 27  1  0
 31 35  1  0
 32 31  1  0
 33 34  1  0
 33 32  1  0
 34 30  1  0
 35 36  2  0
 36 37  1  0
 38 37  2  0
 39 38  1  0
 40 14  1  0
 40 41  1  0
 40 50  1  0
 41 44  1  0
 42 46  1  0
 42 41  1  0
 43 42  2  0
 46 45  1  0
 48 46  1  0
 48 49  1  0
 48 47  1  0
 50 53  1  1
 50 51  1  0
 52 50  1  0
 55 64  1  0
 55 54  1  0
 56 62  1  0
 56 64  1  0
 57 62  1  0
 58 59  1  0
 58 57  1  0
 60 59  1  0
 60 69  1  0
 60 61  1  0
 62 61  1  0
 63 56  2  0
 64 65  1  0
 66 67  2  0
 67 86  1  0
 68 67  1  0
 68 71  1  0
 69 70  1  0
 69 66  1  0
 70 68  2  0
 71 72  1  0
 72 73  2  0
 74 77  1  0
 74 73  1  0
 75 74  2  0
 76 75  1  0
 76 71  2  0
 77 78  1  0
 78 79  1  0
 79 80  2  0
 81 80  1  0
 81 85  1  0
 82 81  2  0
 83 78  2  0
 83 82  1  0
 84 83  1  0
 86 87  1  0
 87 90  1  0
 87 89  1  0
 88 86  2  0
 91 66  1  0
 91 92  1  0
 93 91  1  0
M  ISO  4  12 101  13 101  56 100  64 100
M  END
>  <TORSDO>  (2) 
F 22

>  <SCORE>  (2) 
-11.491

>  <name>  (2) 
1

>  <ligand_id>  (2) 
1

>  <original_smiles>  (2) 
[H]c1nc(C([H])(C([H])([H])[H])C([H])([H])[H])c(C([H])([H])C([H])([H])N([H])C(=O)N2C([H])([H])C([H])([H])C([H])([H])C([H])(n3nc(-c4c([H])c([H])c(Oc5c([H])c([H])c(F)c([H])c5F)c([H])c4[H])c(C(=O)N([H])[H])c3N([H])[H])C2([H])[H])c([H])c1C([H])([H])C([H])([H])C([H])([H])Oc1c([H])c([H])c2c(c1[H])C([H])([H])N(C(=O)C([H])(N([H])C(=O)C([H])(N([H])C([H])([H])[H])C([H])([H])[H])C(C([H])([H])[H])(C([H])([H])[H])C([H])([H])[H])C([H])(C(=O)N([H])C1([H])c3c([H])c([H])c([H])c([H])c3C([H])([H])C([H])([H])C1([H])[H])C2([H])[H]

>  <smiles>  (2) 
[H]c1nc(C([H])(C([H])([H])[H])C([H])([H])[H])c(C([H])([H])C([H])([H])N([H])C(=O)N2C([H])([H])C([H])([H])C([H])([H])C([H])(n3nc(-c4c([H])c([H])c(Oc5c([H])c([H])c(F)c([H])c5F)c([H])c4[H])c(C(=O)N([H])[H])c3N([H])[H])C2([H])[H])c([H])c1C([H])([H])C([H])([H])C([H])([H])Oc1c([H])c([H])c2c(c1[H])C([H])([H])N(C(=O)C([H])(N([H])C(=O)C([H])(N([H])C([H])([H])[H])C([H])([H])[H])C(C([H])([H])[H])(C([H])([H])[H])C([H])([H])[H])C([H])(C(=O)N([H])C1([H])c3c([H])c([H])c([H])c([H])c3C([H])([H])C([H])([H])C1([H])[H])C2([H])[H]

$$$$
2:0:0
     RDKit          3D

 92100  0  0  1  0  0  0  0  0999 V2000
  -28.6560  -22.4630   19.2280 C   0  0  0  0  0  2  0  0  0  0  0  0
  -31.0020  -22.4790   20.2050 C   0  0  0  0  0  2  0  0  0  0  0  0
  -28.7120  -20.9280   19.1880 C   0  0  0  0  0  2  0  0  0  0  0  0
  -31.0280  -20.9400   20.1040 C   0  0  0  0  0  2  0  0  0  0  0  0
  -29.5760  -23.0720   20.3080 C   0  0  0  0  0  3  0  0  0  0  0  0
  -30.1560  -20.4470   18.9260 C   0  0  0  0  0  3  0  0  0  0  0  0
  -31.7530  -18.7110   18.0200 C   0  0  0  0  0  1  0  0  0  0  0  0
  -29.3670  -18.6080   17.3650 C   0  0  0  0  0  1  0  0  0  0  0  0
  -30.3150  -18.9310   18.5490 C   0  0  2  0  0  0  0  0  0  0  0  0
  -30.0540  -17.9750   19.7600 C   0  0  0  0  0  2  0  0  0  0  0  0
  -29.8030  -16.5030   19.3540 C   0  0  0  0  0  2  0  0  0  0  0  0
  -30.6490  -14.4590   20.3890 C   0  0  0  0  0  0  0  0  0  0  0  0
  -30.3480  -12.2770   19.3370 C   0  0  0  0  0  2  0  0  0  0  0  0
  -29.4150  -12.5140   18.1290 C   0  0  0  0  0  2  0  0  0  0  0  0
  -27.9370  -12.3990   18.5560 C   0  0  0  0  0  2  0  0  0  0  0  0
  -27.6070  -13.2390   19.8180 C   0  0  0  0  0  3  0  0  0  0  0  0
  -28.6620  -13.0170   20.9310 C   0  0  0  0  0  2  0  0  0  0  0  0
  -29.9940  -13.2710   20.3610 N   0  0  0  0  0  0  0  0  0  0  0  0
  -31.8200  -14.6010   20.0270 O   0  0  0  0  0  0  0  0  0  0  0  0
  -29.8220  -15.5150   20.4420 N   0  0  0  0  0  0  0  0  0  0  0  0
  -28.9180  -15.3020   20.8340 H   0  0  0  0  0  0  0  0  0  0  0  0
  -25.2190  -13.8800   20.5270 C   0  0  0  0  0  0  0  0  0  0  0  0
  -24.1410  -13.1210   20.8990 C   0  0  0  0  0  0  0  0  0  0  0  0
  -24.5880  -11.7640   20.8700 C   0  0  0  0  0  0  0  0  0  0  0  0
  -26.2520  -12.9850   20.2990 N   0  0  0  0  0  0  0  0  0  0  0  0
  -25.8770  -11.7080   20.5640 N   0  0  0  0  0  0  0  0  0  0  0  0
  -23.8490  -10.5110   21.0630 C   0  0  0  0  0  0  0  0  0  0  0  0
  -24.2860   -9.5310   21.9820 C   0  0  0  0  0  3  0  0  0  0  0  0
  -23.5510   -8.3410   22.1650 C   0  0  0  0  0  3  0  0  0  0  0  0
  -22.3630   -8.1220   21.4280 C   0  0  0  0  0  0  0  0  0  0  0  0
  -21.9450   -9.0880   20.4960 C   0  0  0  0  0  3  0  0  0  0  0  0
  -22.6810  -10.2710   20.3120 C   0  0  0  0  0  3  0  0  0  0  0  0
  -21.5980   -6.9840   21.5200 O   0  0  0  0  0  0  0  0  0  0  0  0
  -21.5730   -6.2250   22.6610 C   0  0  0  0  0  0  0  0  0  0  0  0
  -21.2010   -6.7680   23.9100 C   0  0  0  0  0  3  0  0  0  0  0  0
  -21.1240   -5.9350   25.0450 C   0  0  0  0  0  3  0  0  0  0  0  0
  -21.4060   -4.5610   24.9310 C   0  0  0  0  0  0  0  0  0  0  0  0
  -21.7680   -4.0180   23.6860 C   0  0  0  0  0  3  0  0  0  0  0  0
  -21.8510   -4.8470   22.5540 C   0  0  0  0  0  0  0  0  0  0  0  0
  -22.1810   -4.3150   21.3530 F   0  0  0  0  0  0  0  0  0  0  0  0
  -21.3220   -3.7590   26.0190 F   0  0  0  0  0  0  0  0  0  0  0  0
  -22.7490  -13.6130   21.1700 C   0  0  0  0  0  0  0  0  0  0  0  0
  -22.0170  -12.9270   22.0390 N   0  0  0  0  0  0  0  0  0  0  0  0
  -22.3190  -14.6400   20.6460 O   0  0  0  0  0  0  0  0  0  0  0  0
  -22.3800  -12.0930   22.4790 H   0  0  0  0  0  0  0  0  0  0  0  0
  -21.0810  -13.2330   22.2650 H   0  0  0  0  0  0  0  0  0  0  0  0
  -25.3980  -15.2490   20.3430 N   0  0  0  0  0  0  0  0  0  0  0  0
  -24.6330  -15.9080   20.4400 H   0  0  0  0  0  0  0  0  0  0  0  0
  -26.2420  -15.6790   19.9900 H   0  0  0  0  0  0  0  0  0  0  0  0
  -29.6310  -24.6210   20.2420 C   0  0  0  0  0  2  0  0  0  0  0  0
  -28.2690  -25.3100   20.0420 C   0  0  0  0  0  2  0  0  0  0  0  0
  -28.3770  -26.7290   20.1480 O   0  0  0  0  0  0  0  0  0  0  0  0
  -24.5730  -31.8770   23.2350 C   0  0  0  0  0  0  0  0  0  0  0  0
  -27.1930  -27.4410   20.1360 C   0  0  0  0  0  0  0  0  0  0  0  0
  -23.3560  -30.4810   21.5960 C   0  0  0  0  0  3  0  0  0  0  0  0
  -24.7970  -28.9470   20.1620 C   0  0  0  0  0  0  0  0  0  0  0  0
  -25.8810  -30.8360   21.3870 C   0  0  0  0  0  2  0  0  0  0  0  0
  -25.9590  -29.4680   20.7440 C   0  0  0  0  0  0  0  0  0  0  0  0
  -27.1600  -28.7230   20.7260 C   0  0  0  0  0  3  0  0  0  0  0  0
  -26.0060  -26.9320   19.5500 C   0  0  0  0  0  3  0  0  0  0  0  0
  -24.8150  -27.6770   19.5620 C   0  0  0  0  0  3  0  0  0  0  0  0
  -23.5540  -29.8030   20.2150 C   0  0  0  0  0  2  0  0  0  0  0  0
  -24.6220  -31.0780   22.1310 N   0  0  0  0  0  0  0  0  0  0  0  0
  -23.4950  -32.1520   23.7790 O   0  0  0  0  0  0  0  0  0  0  0  0
  -22.7070  -29.4580   22.5570 C   0  0  0  0  0  0  0  0  0  0  0  0
  -21.3820  -29.2840   22.4330 N   0  0  0  0  0  0  0  0  0  0  0  0
  -23.3920  -28.8290   23.3650 O   0  0  0  0  0  0  0  0  0  0  0  0
  -20.8910  -29.8460   21.7530 H   0  0  0  0  0  0  0  0  0  0  0  0
  -18.0030  -28.1110   22.9440 C   0  0  0  0  0  0  0  0  0  0  0  0
  -20.5640  -28.3460   23.2030 C   0  0  0  0  0  3  0  0  0  0  0  0
  -20.6530  -26.9190   22.6180 C   0  0  0  0  0  2  0  0  0  0  0  0
  -19.5430  -26.6090   21.6080 C   0  0  0  0  0  2  0  0  0  0  0  0
  -18.1660  -26.7630   22.2600 C   0  0  0  0  0  2  0  0  0  0  0  0
  -19.1300  -28.8620   23.3710 C   0  0  0  0  0  0  0  0  0  0  0  0
  -18.9250  -30.1250   23.9660 C   0  0  0  0  0  3  0  0  0  0  0  0
  -17.6250  -30.6370   24.1410 C   0  0  0  0  0  3  0  0  0  0  0  0
  -16.5130  -29.8810   23.7330 C   0  0  0  0  0  3  0  0  0  0  0  0
  -16.7030  -28.6200   23.1390 C   0  0  0  0  0  3  0  0  0  0  0  0
  -25.8640  -32.5010   23.8500 C   0  0  0  0  0  3  0  0  0  0  0  0
  -25.5630  -33.8990   24.1840 N   0  0  0  0  0  0  0  0  0  0  0  0
  -25.8960  -34.9510   23.4250 C   0  0  0  0  0  0  0  0  0  0  0  0
  -26.5620  -34.8470   22.3910 O   0  0  0  0  0  0  0  0  0  0  0  0
  -24.9730  -34.0560   24.9880 H   0  0  0  0  0  0  0  0  0  0  0  0
  -24.1710  -36.7490   23.0770 C   0  0  0  0  0  1  0  0  0  0  0  0
  -25.4130  -36.3400   23.8840 C   0  0  0  0  0  3  0  0  0  0  0  0
  -27.5530  -37.2160   24.7090 C   0  0  0  0  0  1  0  0  0  0  0  0
  -26.4480  -37.3900   23.7700 N   0  0  0  0  0  0  0  0  0  0  0  0
  -26.0450  -38.3110   23.9240 H   0  0  0  0  0  0  0  0  0  0  0  0
  -26.3870  -31.7230   25.1200 C   0  0  1  0  0  0  0  0  0  0  0  0
  -25.3020  -31.4830   26.1930 C   0  0  0  0  0  1  0  0  0  0  0  0
  -26.9620  -30.3450   24.7160 C   0  0  0  0  0  1  0  0  0  0  0  0
  -27.5430  -32.5110   25.7800 C   0  0  0  0  0  1  0  0  0  0  0  0
  1  5  1  0
  2  5  1  0
  3  1  1  0
  4  2  1  0
  5 50  1  0
  6  9  1  0
  6  3  1  0
  6  4  1  0
  9  7  1  6
  8  9  1  0
  9 10  1  0
 11 10  1  0
 11 20  1  0
 12 20  1  0
 13 18  1  0
 14 15  1  0
 14 13  1  0
 16 15  1  0
 16 25  1  0
 16 17  1  0
 18 12  1  0
 18 17  1  0
 19 12  2  0
 20 21  1  0
 22 23  2  0
 23 42  1  0
 24 23  1  0
 24 27  1  0
 25 22  1  0
 25 26  1  0
 26 24  2  0
 27 28  1  0
 28 29  2  0
 30 33  1  0
 30 29  1  0
 31 30  2  0
 32 31  1  0
 32 27  2  0
 33 34  1  0
 34 35  1  0
 35 36  2  0
 37 36  1  0
 37 41  1  0
 38 37  2  0
 39 34  2  0
 39 38  1  0
 40 39  1  0
 42 43  1  0
 43 46  1  0
 43 45  1  0
 44 42  2  0
 47 48  1  0
 47 22  1  0
 49 47  1  0
 51 52  1  0
 51 50  1  0
 53 64  2  0
 54 52  1  0
 54 59  1  0
 55 63  1  0
 55 65  1  0
 56 62  1  0
 56 58  1  0
 57 63  1  0
 58 57  1  0
 59 58  2  0
 60 61  1  0
 60 54  2  0
 61 56  2  0
 62 55  1  0
 63 53  1  0
 65 67  2  0
 66 65  1  0
 68 66  1  0
 69 78  2  0
 69 74  1  0
 70 66  1  0
 70 74  1  0
 71 70  1  0
 72 73  1  0
 72 71  1  0
 73 69  1  0
 74 75  2  0
 75 76  1  0
 77 76  2  0
 78 77  1  0
 79 53  1  0
 79 80  1  0
 79 89  1  0
 80 83  1  0
 81 85  1  0
 81 80  1  0
 82 81  2  0
 85 84  1  0
 87 85  1  0
 87 88  1  0
 87 86  1  0
 89 92  1  1
 89 90  1  0
 91 89  1  0
M  ISO  4  12 100  20 100  51 101  52 101
M  END
>  <TORSDO>  (3) 
F 21

>  <SCORE>  (3) 
-13.465

>  <name>  (3) 
2

>  <ligand_id>  (3) 
2

>  <original_smiles>  (3) 
[H]c1c([H])c([H])c2c(c1[H])C([H])([H])C([H])([H])C([H])([H])C2([H])N([H])C(=O)C1([H])N(C(=O)C([H])(N([H])C(=O)C([H])(N([H])C([H])([H])[H])C([H])([H])[H])C(C([H])([H])[H])(C([H])([H])[H])C([H])([H])[H])C([H])([H])c2c([H])c(OC([H])([H])C([H])([H])C3([H])C([H])([H])C([H])([H])C([H])(C(C([H])([H])[H])(C([H])([H])[H])C([H])([H])C([H])([H])N([H])C(=O)N4C([H])([H])C([H])([H])C([H])([H])C([H])(n5nc(-c6c([H])c([H])c(Oc7c([H])c([H])c(F)c([H])c7F)c([H])c6[H])c(C(=O)N([H])[H])c5N([H])[H])C4([H])[H])C([H])([H])C3([H])[H])c([H])c([H])c2C1([H])[H]

>  <smiles>  (3) 
[H]c1c([H])c([H])c2c(c1[H])C([H])([H])C([H])([H])C([H])([H])C2([H])N([H])C(=O)C1([H])N(C(=O)C([H])(N([H])C(=O)C([H])(N([H])C([H])([H])[H])C([H])([H])[H])C(C([H])([H])[H])(C([H])([H])[H])C([H])([H])[H])C([H])([H])c2c([H])c(OC([H])([H])C([H])([H])C3([H])C([H])([H])C([H])([H])C([H])(C(C([H])([H])[H])(C([H])([H])[H])C([H])([H])C([H])([H])N([H])C(=O)N4C([H])([H])C([H])([H])C([H])([H])C([H])(n5nc(-c6c([H])c([H])c(Oc7c([H])c([H])c(F)c([H])c7F)c([H])c6[H])c(C(=O)N([H])[H])c5N([H])[H])C4([H])[H])C([H])([H])C3([H])[H])c([H])c([H])c2C1([H])[H]

$$$$
3:0:0
     RDKit          3D

 99107  0  0  1  0  0  0  0  0999 V2000
  -28.8730  -21.6450   21.4640 C   0  0  0  0  0  2  0  0  0  0  0  0
  -28.5890  -21.5090   20.0680 C   0  0  0  0  0  0  0  0  0  0  0  0
  -30.2290  -21.5820   21.4970 C   0  0  0  0  0  3  0  0  0  0  0  0
  -29.6950  -20.8700   19.5290 C   0  0  0  0  0  0  0  0  0  0  0  0
  -30.4710  -20.4710   20.6180 N   0  0  0  0  0  0  0  0  0  0  0  0
  -26.1470  -21.0170   19.5450 C   0  0  0  0  0  1  0  0  0  0  0  0
  -27.3270  -21.9950   19.3590 C   0  0  0  0  0  3  0  0  0  0  0  0
  -26.9480  -23.4450   19.7590 C   0  0  0  0  0  2  0  0  0  0  0  0
  -26.2800  -24.2770   18.6410 C   0  0  0  0  0  2  0  0  0  0  0  0
  -25.4480  -26.5280   18.0080 C   0  0  0  0  0  1  0  0  0  0  0  0
  -26.0420  -25.6770   19.0580 N   0  0  0  0  0  4  0  0  0  0  0  0
  -25.4250  -25.6790   19.8500 H   0  0  0  0  0  0  0  0  0  0  0  0
  -26.9120  -26.1050   19.3400 H   0  0  0  0  0  0  0  0  0  0  0  0
  -30.1620  -21.3540   17.0380 C   0  0  0  0  0  1  0  0  0  0  0  0
  -29.9910  -20.3250   18.1540 C   0  0  0  0  0  2  0  0  0  0  0  0
  -31.0410  -22.9380   21.5690 C   0  0  0  0  0  2  0  0  0  0  0  0
  -30.2740  -24.3460   21.8990 C   0  0  0  0  0  3  0  0  0  0  0  0
  -30.6780  -25.7430   21.1870 C   0  0  0  0  0  3  0  0  0  0  0  0
  -30.2870  -27.0890   21.7580 O   0  0  0  0  0  0  0  0  0  0  0  0
  -25.3680  -31.9580   23.9250 C   0  0  0  0  0  0  0  0  0  0  0  0
  -29.0980  -27.8020   21.4520 C   0  0  0  0  0  0  0  0  0  0  0  0
  -24.7060  -30.4860   22.0650 C   0  0  0  0  0  3  0  0  0  0  0  0
  -26.5980  -29.1610   20.9520 C   0  0  0  0  0  0  0  0  0  0  0  0
  -27.1730  -31.0980   22.4090 C   0  0  0  0  0  2  0  0  0  0  0  0
  -27.5530  -29.7560   21.7840 C   0  0  0  0  0  0  0  0  0  0  0  0
  -28.8040  -29.0920   22.0160 C   0  0  0  0  0  3  0  0  0  0  0  0
  -28.1070  -27.2700   20.5940 C   0  0  0  0  0  3  0  0  0  0  0  0
  -26.8850  -27.9300   20.3480 C   0  0  0  0  0  3  0  0  0  0  0  0
  -25.2760  -29.8830   20.7530 C   0  0  0  0  0  2  0  0  0  0  0  0
  -25.7570  -31.1960   22.8600 N   0  0  0  0  0  0  0  0  0  0  0  0
  -24.1700  -32.0910   24.2200 O   0  0  0  0  0  0  0  0  0  0  0  0
  -23.9830  -29.3730   22.8590 C   0  0  0  0  0  0  0  0  0  0  0  0
  -22.7080  -29.1240   22.5200 N   0  0  0  0  0  0  0  0  0  0  0  0
  -24.5760  -28.7380   23.7380 O   0  0  0  0  0  0  0  0  0  0  0  0
  -22.3060  -29.6760   21.7750 H   0  0  0  0  0  0  0  0  0  0  0  0
  -19.3760  -27.7200   22.5040 C   0  0  0  0  0  0  0  0  0  0  0  0
  -21.8610  -28.0830   23.1050 C   0  0  0  0  0  3  0  0  0  0  0  0
  -22.1210  -26.7130   22.4280 C   0  0  0  0  0  2  0  0  0  0  0  0
  -21.1590  -26.4570   21.2550 C   0  0  0  0  0  2  0  0  0  0  0  0
  -19.7130  -26.4400   21.7630 C   0  0  0  0  0  2  0  0  0  0  0  0
  -20.3880  -28.4960   23.1280 C   0  0  0  0  0  0  0  0  0  0  0  0
  -20.0270  -29.6930   23.7860 C   0  0  0  0  0  3  0  0  0  0  0  0
  -18.6890  -30.1240   23.8080 C   0  0  0  0  0  3  0  0  0  0  0  0
  -17.6900  -29.3470   23.1920 C   0  0  0  0  0  3  0  0  0  0  0  0
  -18.0320  -28.1440   22.5530 C   0  0  0  0  0  3  0  0  0  0  0  0
  -26.4040  -32.7210   24.8070 C   0  0  0  0  0  3  0  0  0  0  0  0
  -26.6230  -32.0500   26.2190 C   0  0  1  0  0  0  0  0  0  0  0  0
  -25.3050  -31.7550   26.9760 C   0  0  0  0  0  1  0  0  0  0  0  0
  -27.3880  -30.7160   26.0710 C   0  0  0  0  0  1  0  0  0  0  0  0
  -27.5020  -32.9690   27.1030 C   0  0  0  0  0  1  0  0  0  0  0  0
  -25.9220  -34.1040   24.9560 N   0  0  0  0  0  0  0  0  0  0  0  0
  -26.3530  -35.1430   24.2280 C   0  0  0  0  0  0  0  0  0  0  0  0
  -27.2560  -35.0410   23.3930 O   0  0  0  0  0  0  0  0  0  0  0  0
  -25.1420  -34.2470   25.5790 H   0  0  0  0  0  0  0  0  0  0  0  0
  -24.6080  -36.7520   23.3970 C   0  0  0  0  0  1  0  0  0  0  0  0
  -25.6850  -36.5110   24.4660 C   0  0  0  0  0  3  0  0  0  0  0  0
  -27.5530  -37.6120   25.6160 C   0  0  0  0  0  1  0  0  0  0  0  0
  -26.6410  -37.6410   24.4760 N   0  0  0  0  0  0  0  0  0  0  0  0
  -26.1480  -38.5290   24.4830 H   0  0  0  0  0  0  0  0  0  0  0  0
  -30.4880  -18.9240   20.7680 C   0  0  0  0  0  3  0  0  0  0  0  0
  -31.7270  -17.9090   20.7530 C   0  0  0  0  0  3  0  0  0  0  0  0
  -32.0390  -15.2630   20.6420 C   0  0  0  0  0  0  0  0  0  0  0  0
  -31.6790  -13.0550   19.5250 C   0  0  0  0  0  2  0  0  0  0  0  0
  -30.8920  -13.2870   18.2150 C   0  0  0  0  0  2  0  0  0  0  0  0
  -29.3760  -13.3190   18.4860 C   0  0  0  0  0  2  0  0  0  0  0  0
  -29.0100  -14.2430   19.6770 C   0  0  0  0  0  3  0  0  0  0  0  0
  -29.8980  -13.9370   20.9030 C   0  0  0  0  0  2  0  0  0  0  0  0
  -31.2930  -14.1190   20.4800 N   0  0  0  0  0  0  0  0  0  0  0  0
  -33.2380  -15.2700   20.3370 O   0  0  0  0  0  0  0  0  0  0  0  0
  -31.3580  -16.4300   20.9480 N   0  0  0  0  0  0  0  0  0  0  0  0
  -30.3930  -16.2730   21.2160 H   0  0  0  0  0  0  0  0  0  0  0  0
  -26.6580  -15.1910   20.0640 C   0  0  0  0  0  0  0  0  0  0  0  0
  -25.4600  -14.5860   20.3460 C   0  0  0  0  0  0  0  0  0  0  0  0
  -25.7370  -13.1890   20.4420 C   0  0  0  0  0  0  0  0  0  0  0  0
  -27.5910  -14.1710   20.0050 N   0  0  0  0  0  0  0  0  0  0  0  0
  -27.0370  -12.9670   20.2930 N   0  0  0  0  0  0  0  0  0  0  0  0
  -24.8320  -12.0440   20.6040 C   0  0  0  0  0  0  0  0  0  0  0  0
  -25.1400  -10.9810   21.4820 C   0  0  0  0  0  3  0  0  0  0  0  0
  -24.2460   -9.9000   21.6370 C   0  0  0  0  0  3  0  0  0  0  0  0
  -23.0300   -9.8750   20.9130 C   0  0  0  0  0  0  0  0  0  0  0  0
  -22.7420  -10.9230   20.0210 C   0  0  0  0  0  3  0  0  0  0  0  0
  -23.6350  -11.9960   19.8630 C   0  0  0  0  0  3  0  0  0  0  0  0
  -22.1120   -8.8560   20.9820 O   0  0  0  0  0  0  0  0  0  0  0  0
  -22.0550   -8.0120   22.0620 C   0  0  0  0  0  0  0  0  0  0  0  0
  -21.9480   -8.4990   23.3840 C   0  0  0  0  0  3  0  0  0  0  0  0
  -21.8210   -7.5950   24.4580 C   0  0  0  0  0  3  0  0  0  0  0  0
  -21.7950   -6.2100   24.2130 C   0  0  0  0  0  0  0  0  0  0  0  0
  -21.8970   -5.7240   22.8990 C   0  0  0  0  0  3  0  0  0  0  0  0
  -22.0260   -6.6240   21.8260 C   0  0  0  0  0  0  0  0  0  0  0  0
  -22.1030   -6.1530   20.5590 F   0  0  0  0  0  0  0  0  0  0  0  0
  -21.6650   -5.3410   25.2440 F   0  0  0  0  0  0  0  0  0  0  0  0
  -24.1210  -15.2560   20.4250 C   0  0  0  0  0  0  0  0  0  0  0  0
  -23.2160  -14.7180   21.2410 N   0  0  0  0  0  0  0  0  0  0  0  0
  -23.8810  -16.2850   19.7980 O   0  0  0  0  0  0  0  0  0  0  0  0
  -23.4190  -13.8850   21.7690 H   0  0  0  0  0  0  0  0  0  0  0  0
  -22.3060  -15.1480   21.3320 H   0  0  0  0  0  0  0  0  0  0  0  0
  -27.0200  -16.5130   19.8280 N   0  0  0  0  0  0  0  0  0  0  0  0
  -26.3210  -17.2450   19.7550 H   0  0  0  0  0  0  0  0  0  0  0  0
  -27.9250  -16.7910   19.4670 H   0  0  0  0  0  0  0  0  0  0  0  0
  1  3  1  0
  2  1  1  0
  3 16  1  0
  4  2  2  0
  4  5  1  0
  5 60  1  0
  5  3  1  0
  7  6  1  0
  7  8  1  0
  7  2  1  0
  9 11  1  0
  9  8  1  0
 10 11  1  0
 11 13  1  0
 11 12  1  0
 14 15  1  0
 15  4  1  0
 16 17  1  0
 18 19  1  0
 18 17  2  0
 20 31  2  0
 21 19  1  0
 21 26  1  0
 22 32  1  0
 22 30  1  0
 23 25  1  0
 24 30  1  0
 25 26  2  0
 25 24  1  0
 27 21  2  0
 28 27  1  0
 28 23  2  0
 29 23  1  0
 29 22  1  0
 30 20  1  0
 32 34  2  0
 33 32  1  0
 35 33  1  0
 36 45  2  0
 36 41  1  0
 37 33  1  0
 37 41  1  0
 38 37  1  0
 39 40  1  0
 39 38  1  0
 40 36  1  0
 41 42  2  0
 42 43  1  0
 44 43  2  0
 45 44  1  0
 46 20  1  0
 46 51  1  0
 46 47  1  0
 47 48  1  1
 47 50  1  0
 49 47  1  0
 51 54  1  0
 52 56  1  0
 52 51  1  0
 53 52  2  0
 56 55  1  0
 56 58  1  0
 58 59  1  0
 58 57  1  0
 61 60  2  0
 61 70  1  0
 62 70  1  0
 63 68  1  0
 64 65  1  0
 64 63  1  0
 66 65  1  0
 66 75  1  0
 66 67  1  0
 68 62  1  0
 68 67  1  0
 69 62  2  0
 70 71  1  0
 72 73  2  0
 73 92  1  0
 73 74  1  0
 74 77  1  0
 75 72  1  0
 75 76  1  0
 76 74  2  0
 77 78  1  0
 78 79  2  0
 80 83  1  0
 80 79  1  0
 81 80  2  0
 82 81  1  0
 82 77  2  0
 83 84  1  0
 84 85  1  0
 85 86  2  0
 87 86  1  0
 87 91  1  0
 88 87  2  0
 89 84  2  0
 89 88  1  0
 90 89  1  0
 92 93  1  0
 93 96  1  0
 93 95  1  0
 94 92  2  0
 97 72  1  0
 98 97  1  0
 99 97  1  0
M  ISO  4  18 101  19 101  62 100  70 100
M  END
>  <TORSDO>  (4) 
F 26

>  <SCORE>  (4) 
-7.681

>  <name>  (4) 
3

>  <ligand_id>  (4) 
3

>  <original_smiles>  (4) 
[H]c1c([H])c([H])c2c(c1[H])C([H])([H])C([H])([H])C([H])([H])C2([H])N([H])C(=O)C1([H])N(C(=O)C([H])(N([H])C(=O)C([H])(N([H])C([H])([H])[H])C([H])([H])[H])C(C([H])([H])[H])(C([H])([H])[H])C([H])([H])[H])C([H])([H])c2c([H])c(OC([H])([H])C([H])([H])C([H])([H])c3c([H])c(C([H])(C([H])([H])[H])C([H])([H])C([H])([H])[N+]([H])([H])C([H])([H])[H])c(C([H])([H])C([H])([H])[H])n3C([H])([H])C([H])([H])N([H])C(=O)N3C([H])([H])C([H])([H])C([H])([H])C([H])(n4nc(-c5c([H])c([H])c(Oc6c([H])c([H])c(F)c([H])c6F)c([H])c5[H])c(C(=O)N([H])[H])c4N([H])[H])C3([H])[H])c([H])c([H])c2C1([H])[H]

>  <smiles>  (4) 
[H]c1c([H])c([H])c2c(c1[H])C([H])([H])C([H])([H])C([H])([H])C2([H])N([H])C(=O)C1([H])N(C(=O)C([H])(N([H])C(=O)C([H])(N([H])C([H])([H])[H])C([H])([H])[H])C(C([H])([H])[H])(C([H])([H])[H])C([H])([H])[H])C([H])([H])c2c([H])c(OC([H])([H])C([H])([H])C([H])([H])c3c([H])c(C([H])(C([H])([H])[H])C([H])([H])C([H])([H])[N+]([H])([H])C([H])([H])[H])c(C([H])([H])C([H])([H])[H])n3C([H])([H])C([H])([H])N([H])C(=O)N3C([H])([H])C([H])([H])C([H])([H])C([H])(n4nc(-c5c([H])c([H])c(Oc6c([H])c([H])c(F)c([H])c6F)c([H])c5[H])c(C(=O)N([H])[H])c4N([H])[H])C3([H])[H])c([H])c([H])c2C1([H])[H]

$$$$
4:0:0
     RDKit          3D

 95103  0  0  1  0  0  0  0  0999 V2000
  -31.8580  -22.4620   18.1410 C   0  0  0  0  0  1  0  0  0  0  0  0
  -29.7160  -21.6010   17.2100 C   0  0  0  0  0  1  0  0  0  0  0  0
  -30.3250  -22.5050   18.3130 C   0  0  2  0  0  0  0  0  0  0  0  0
  -29.7700  -23.9390   18.0450 C   0  0  0  0  0  2  0  0  0  0  0  0
  -31.2340  -25.6100   19.3750 C   0  0  0  0  0  1  0  0  0  0  0  0
  -29.8300  -25.0230   19.1590 C   0  0  0  0  0  3  0  0  0  0  0  0
  -28.8200  -26.1510   18.8550 C   0  0  0  0  0  2  0  0  0  0  0  0
  -28.4490  -26.7900   20.0750 O   0  0  0  0  0  0  0  0  0  0  0  0
  -24.6220  -31.8750   23.2310 C   0  0  0  0  0  0  0  0  0  0  0  0
  -27.2500  -27.4680   20.0960 C   0  0  0  0  0  0  0  0  0  0  0  0
  -23.3980  -30.4750   21.5990 C   0  0  0  0  0  3  0  0  0  0  0  0
  -24.8370  -28.9390   20.1620 C   0  0  0  0  0  0  0  0  0  0  0  0
  -25.9190  -30.8390   21.3760 C   0  0  0  0  0  2  0  0  0  0  0  0
  -25.9980  -29.4680   20.7390 C   0  0  0  0  0  0  0  0  0  0  0  0
  -27.2020  -28.7350   20.7150 C   0  0  0  0  0  3  0  0  0  0  0  0
  -26.0600  -26.9290   19.5510 C   0  0  0  0  0  3  0  0  0  0  0  0
  -24.8590  -27.6630   19.5750 C   0  0  0  0  0  3  0  0  0  0  0  0
  -23.5930  -29.7930   20.2180 C   0  0  0  0  0  2  0  0  0  0  0  0
  -24.6650  -31.0770   22.1270 N   0  0  0  0  0  0  0  0  0  0  0  0
  -23.5460  -32.1470   23.7820 O   0  0  0  0  0  0  0  0  0  0  0  0
  -22.7580  -29.4530   22.5640 C   0  0  0  0  0  0  0  0  0  0  0  0
  -21.4320  -29.2710   22.4470 N   0  0  0  0  0  0  0  0  0  0  0  0
  -23.4480  -28.8260   23.3720 O   0  0  0  0  0  0  0  0  0  0  0  0
  -20.9360  -29.8290   21.7660 H   0  0  0  0  0  0  0  0  0  0  0  0
  -18.0630  -28.0760   22.9640 C   0  0  0  0  0  0  0  0  0  0  0  0
  -20.6210  -28.3330   23.2230 C   0  0  0  0  0  3  0  0  0  0  0  0
  -20.7210  -26.9020   22.6470 C   0  0  0  0  0  2  0  0  0  0  0  0
  -19.6150  -26.5780   21.6390 C   0  0  0  0  0  2  0  0  0  0  0  0
  -18.2360  -26.7250   22.2900 C   0  0  0  0  0  2  0  0  0  0  0  0
  -19.1830  -28.8380   23.3880 C   0  0  0  0  0  0  0  0  0  0  0  0
  -18.9680  -30.1030   23.9770 C   0  0  0  0  0  3  0  0  0  0  0  0
  -17.6660  -30.6060   24.1470 C   0  0  0  0  0  3  0  0  0  0  0  0
  -16.5590  -29.8400   23.7410 C   0  0  0  0  0  3  0  0  0  0  0  0
  -16.7590  -28.5780   23.1550 C   0  0  0  0  0  3  0  0  0  0  0  0
  -25.9150  -32.5030   23.8390 C   0  0  0  0  0  3  0  0  0  0  0  0
  -25.6090  -33.8980   24.1820 N   0  0  0  0  0  0  0  0  0  0  0  0
  -25.9320  -34.9550   23.4250 C   0  0  0  0  0  0  0  0  0  0  0  0
  -26.5900  -34.8590   22.3850 O   0  0  0  0  0  0  0  0  0  0  0  0
  -25.0250  -34.0460   24.9910 H   0  0  0  0  0  0  0  0  0  0  0  0
  -24.1960  -36.7440   23.0980 C   0  0  0  0  0  1  0  0  0  0  0  0
  -25.4460  -36.3390   23.8940 C   0  0  0  0  0  3  0  0  0  0  0  0
  -27.5890  -37.2210   24.7040 C   0  0  0  0  0  1  0  0  0  0  0  0
  -26.4750  -37.3950   23.7760 N   0  0  0  0  0  0  0  0  0  0  0  0
  -26.0690  -38.3130   23.9350 H   0  0  0  0  0  0  0  0  0  0  0  0
  -26.4520  -31.7220   25.1000 C   0  0  1  0  0  0  0  0  0  0  0  0
  -25.3770  -31.4750   26.1830 C   0  0  0  0  0  1  0  0  0  0  0  0
  -27.0310  -30.3500   24.6860 C   0  0  0  0  0  1  0  0  0  0  0  0
  -27.6130  -32.5120   25.7500 C   0  0  0  0  0  1  0  0  0  0  0  0
  -29.9100  -22.0110   19.7340 C   0  0  0  0  0  2  0  0  0  0  0  0
  -28.2830  -18.5990   20.1650 C   0  0  0  0  0  2  0  0  0  0  0  0
  -30.7880  -18.3120   20.3300 C   0  0  0  0  0  2  0  0  0  0  0  0
  -28.4700  -20.1040   20.3680 C   0  0  0  0  0  2  0  0  0  0  0  0
  -30.9000  -19.8430   20.5190 C   0  0  0  0  0  2  0  0  0  0  0  0
  -29.4200  -17.7700   20.7980 C   0  0  0  0  0  3  0  0  0  0  0  0
  -29.7810  -20.5350   19.8280 N   0  0  2  0  0  4  0  0  0  0  0  0
  -29.7990  -20.2310   18.8660 H   0  0  0  0  0  0  0  0  0  0  0  0
  -29.1950  -16.3040   20.4060 C   0  0  0  0  0  2  0  0  0  0  0  0
  -30.6500  -14.3850   20.4550 C   0  0  0  0  0  0  0  0  0  0  0  0
  -30.3480  -12.2550   19.2600 C   0  0  0  0  0  2  0  0  0  0  0  0
  -29.4020  -12.5120   18.0670 C   0  0  0  0  0  2  0  0  0  0  0  0
  -27.9250  -12.3760   18.4920 C   0  0  0  0  0  2  0  0  0  0  0  0
  -27.6040  -13.1890   19.7730 C   0  0  0  0  0  3  0  0  0  0  0  0
  -28.6550  -12.9060   20.8730 C   0  0  0  0  0  2  0  0  0  0  0  0
  -29.9980  -13.1990   20.3310 N   0  0  0  0  0  0  0  0  0  0  0  0
  -31.7030  -14.6620   19.8740 O   0  0  0  0  0  0  0  0  0  0  0  0
  -29.9710  -15.3090   21.1410 N   0  0  0  0  0  0  0  0  0  0  0  0
  -29.4200  -14.8920   21.8770 H   0  0  0  0  0  0  0  0  0  0  0  0
  -25.2080  -13.8330   20.4800 C   0  0  0  0  0  0  0  0  0  0  0  0
  -24.1330  -13.0710   20.8540 C   0  0  0  0  0  0  0  0  0  0  0  0
  -24.5830  -11.7150   20.8280 C   0  0  0  0  0  0  0  0  0  0  0  0
  -26.2450  -12.9390   20.2490 N   0  0  0  0  0  0  0  0  0  0  0  0
  -25.8700  -11.6630   20.5110 N   0  0  0  0  0  0  0  0  0  0  0  0
  -23.8490  -10.4610   21.0280 C   0  0  0  0  0  0  0  0  0  0  0  0
  -24.2910   -9.4880   21.9510 C   0  0  0  0  0  3  0  0  0  0  0  0
  -23.5610   -8.2940   22.1360 C   0  0  0  0  0  3  0  0  0  0  0  0
  -22.3750   -8.0670   21.3990 C   0  0  0  0  0  0  0  0  0  0  0  0
  -21.9510   -9.0300   20.4660 C   0  0  0  0  0  3  0  0  0  0  0  0
  -22.6810  -10.2150   20.2790 C   0  0  0  0  0  3  0  0  0  0  0  0
  -21.6130   -6.9270   21.4950 O   0  0  0  0  0  0  0  0  0  0  0  0
  -21.5930   -6.1720   22.6390 C   0  0  0  0  0  0  0  0  0  0  0  0
  -21.2220   -6.7190   23.8870 C   0  0  0  0  0  3  0  0  0  0  0  0
  -21.1470   -5.8900   25.0250 C   0  0  0  0  0  3  0  0  0  0  0  0
  -21.4320   -4.5150   24.9150 C   0  0  0  0  0  0  0  0  0  0  0  0
  -21.7960   -3.9690   23.6710 C   0  0  0  0  0  3  0  0  0  0  0  0
  -21.8740   -4.7940   22.5370 C   0  0  0  0  0  0  0  0  0  0  0  0
  -22.2060   -4.2590   21.3360 F   0  0  0  0  0  0  0  0  0  0  0  0
  -21.3510   -3.7170   26.0030 F   0  0  0  0  0  0  0  0  0  0  0  0
  -22.7410  -13.5630   21.1320 C   0  0  0  0  0  0  0  0  0  0  0  0
  -22.0120  -12.8770   22.0070 N   0  0  0  0  0  0  0  0  0  0  0  0
  -22.3070  -14.5870   20.6090 O   0  0  0  0  0  0  0  0  0  0  0  0
  -22.3730  -12.0480   22.4550 H   0  0  0  0  0  0  0  0  0  0  0  0
  -21.0780  -13.1900   22.2330 H   0  0  0  0  0  0  0  0  0  0  0  0
  -25.3750  -15.2020   20.3000 N   0  0  0  0  0  0  0  0  0  0  0  0
  -24.6060  -15.8510   20.4250 H   0  0  0  0  0  0  0  0  0  0  0  0
  -26.2170  -15.6480   19.9590 H   0  0  0  0  0  0  0  0  0  0  0  0
  3  1  1  1
  2  3  1  0
  3 49  1  0
  4  3  1  0
  4  6  1  0
  6  5  1  0
  7  6  1  0
  7  8  1  0
  8 10  1  0
  9 20  2  0
 10 15  1  0
 11 19  1  0
 11 21  1  0
 12 18  1  0
 12 14  1  0
 13 19  1  0
 14 13  1  0
 15 14  2  0
 16 17  1  0
 16 10  2  0
 17 12  2  0
 18 11  1  0
 19  9  1  0
 21 23  2  0
 22 21  1  0
 24 22  1  0
 25 34  2  0
 25 30  1  0
 26 22  1  0
 26 30  1  0
 27 26  1  0
 28 29  1  0
 28 27  1  0
 29 25  1  0
 30 31  2  0
 31 32  1  0
 33 32  2  0
 34 33  1  0
 35  9  1  0
 35 36  1  0
 35 45  1  0
 36 39  1  0
 37 41  1  0
 37 36  1  0
 38 37  2  0
 41 40  1  0
 43 41  1  0
 43 44  1  0
 43 42  1  0
 45 48  1  1
 45 46  1  0
 47 45  1  0
 49 55  1  0
 50 52  1  0
 50 54  1  0
 51 53  1  0
 51 54  1  0
 54 57  1  0
 55 52  1  0
 55 53  1  0
 55 56  1  6
 57 66  1  0
 58 66  1  0
 59 64  1  0
 60 61  1  0
 60 59  1  0
 62 61  1  0
 62 71  1  0
 62 63  1  0
 64 58  1  0
 64 63  1  0
 65 58  2  0
 66 67  1  0
 68 69  2  0
 69 88  1  0
 70 69  1  0
 70 73  1  0
 71 68  1  0
 71 72  1  0
 72 70  2  0
 73 74  1  0
 74 75  2  0
 76 79  1  0
 76 75  1  0
 77 76  2  0
 78 77  1  0
 78 73  2  0
 79 80  1  0
 80 81  1  0
 81 82  2  0
 83 82  1  0
 83 87  1  0
 84 83  2  0
 85 80  2  0
 85 84  1  0
 86 85  1  0
 88 89  1  0
 89 92  1  0
 89 91  1  0
 90 88  2  0
 93 94  1  0
 93 68  1  0
 95 93  1  0
M  ISO  4   7 101   8 101  58 100  66 100
M  END
>  <TORSDO>  (5) 
F 22

>  <SCORE>  (5) 
-13.324

>  <name>  (5) 
4

>  <ligand_id>  (5) 
4

>  <original_smiles>  (5) 
[H]c1c([H])c([H])c2c(c1[H])C([H])([H])C([H])([H])C([H])([H])C2([H])N([H])C(=O)C1([H])N(C(=O)C([H])(N([H])C(=O)C([H])(N([H])C([H])([H])[H])C([H])([H])[H])C(C([H])([H])[H])(C([H])([H])[H])C([H])([H])[H])C([H])([H])c2c([H])c(OC([H])([H])C([H])(C([H])([H])[H])C([H])([H])C(C([H])([H])[H])(C([H])([H])[H])C([H])([H])[N+]3([H])C([H])([H])C([H])([H])C([H])(C([H])([H])N([H])C(=O)N4C([H])([H])C([H])([H])C([H])([H])C([H])(n5nc(-c6c([H])c([H])c(Oc7c([H])c([H])c(F)c([H])c7F)c([H])c6[H])c(C(=O)N([H])[H])c5N([H])[H])C4([H])[H])C([H])([H])C3([H])[H])c([H])c([H])c2C1([H])[H]

>  <smiles>  (5) 
[H]c1c([H])c([H])c2c(c1[H])C([H])([H])C([H])([H])C([H])([H])C2([H])N([H])C(=O)C1([H])N(C(=O)C([H])(N([H])C(=O)C([H])(N([H])C([H])([H])[H])C([H])([H])[H])C(C([H])([H])[H])(C([H])([H])[H])C([H])([H])[H])C([H])([H])c2c([H])c(OC([H])([H])C([H])(C([H])([H])[H])C([H])([H])C(C([H])([H])[H])(C([H])([H])[H])C([H])([H])[N+]3([H])C([H])([H])C([H])([H])C([H])(C([H])([H])N([H])C(=O)N4C([H])([H])C([H])([H])C([H])([H])C([H])(n5nc(-c6c([H])c([H])c(Oc7c([H])c([H])c(F)c([H])c7F)c([H])c6[H])c(C(=O)N([H])[H])c5N([H])[H])C4([H])[H])C([H])([H])C3([H])[H])c([H])c([H])c2C1([H])[H]

$$$$
5:0:0
     RDKit          3D

 93101  0  0  1  0  0  0  0  0999 V2000
  -29.1890  -22.4480   20.1720 C   0  0  0  0  0  2  0  0  0  0  0  0
  -29.5260  -21.2150   19.1570 C   0  0  0  0  0  2  0  0  0  0  0  0
  -26.5960  -18.8430   18.8090 C   0  0  0  0  0  3  0  0  0  0  0  0
  -27.3000  -20.0090   18.7530 C   0  0  0  0  0  0  0  0  0  0  0  0
  -28.6860  -19.8870   19.1490 C   0  0  0  0  0  0  0  0  0  0  0  0
  -29.0380  -18.5120   19.3560 C   0  0  0  0  0  0  0  0  0  0  0  0
  -26.6130  -21.2540   18.2810 C   0  0  0  0  0  1  0  0  0  0  0  0
  -27.5920  -17.5200   19.2390 S   0  0  0  0  0  0  0  0  0  0  0  0
  -30.3510  -17.6600   19.5880 C   0  0  0  0  0  2  0  0  0  0  0  0
  -30.5960  -16.5310   21.9260 C   0  0  0  0  0  1  0  0  0  0  0  0
  -30.2600  -16.2670   20.4420 C   0  0  0  0  0  3  0  0  0  0  0  0
  -31.0450  -14.9300   20.0230 C   0  0  0  0  0  0  0  0  0  0  0  0
  -30.9520  -12.5050   19.3820 C   0  0  0  0  0  2  0  0  0  0  0  0
  -30.0250  -12.3520   18.1510 C   0  0  0  0  0  2  0  0  0  0  0  0
  -28.5410  -12.2600   18.5670 C   0  0  0  0  0  2  0  0  0  0  0  0
  -28.1470  -13.3310   19.6180 C   0  0  0  0  0  3  0  0  0  0  0  0
  -29.1820  -13.3760   20.7630 C   0  0  0  0  0  2  0  0  0  0  0  0
  -30.4830  -13.6770   20.1520 N   0  0  0  0  0  0  0  0  0  0  0  0
  -32.1840  -15.0330   19.5530 O   0  0  0  0  0  0  0  0  0  0  0  0
  -25.8060  -14.0810   20.3650 C   0  0  0  0  0  0  0  0  0  0  0  0
  -24.6950  -13.3770   20.7350 C   0  0  0  0  0  0  0  0  0  0  0  0
  -25.0650  -11.9970   20.6820 C   0  0  0  0  0  0  0  0  0  0  0  0
  -26.7880  -13.1360   20.1110 N   0  0  0  0  0  0  0  0  0  0  0  0
  -26.3470  -11.8770   20.3580 N   0  0  0  0  0  0  0  0  0  0  0  0
  -24.2560  -10.7840   20.8640 C   0  0  0  0  0  0  0  0  0  0  0  0
  -24.6280   -9.7760   21.7820 C   0  0  0  0  0  3  0  0  0  0  0  0
  -23.8240   -8.6270   21.9480 C   0  0  0  0  0  3  0  0  0  0  0  0
  -22.6320   -8.4820   21.2000 C   0  0  0  0  0  0  0  0  0  0  0  0
  -22.2810   -9.4750   20.2680 C   0  0  0  0  0  3  0  0  0  0  0  0
  -23.0840  -10.6140   20.1000 C   0  0  0  0  0  3  0  0  0  0  0  0
  -21.8010   -7.3900   21.2790 O   0  0  0  0  0  0  0  0  0  0  0  0
  -21.7070   -6.6430   22.4260 C   0  0  0  0  0  0  0  0  0  0  0  0
  -21.3350   -7.2190   23.6620 C   0  0  0  0  0  3  0  0  0  0  0  0
  -21.1810   -6.4010   24.8010 C   0  0  0  0  0  3  0  0  0  0  0  0
  -21.3880   -5.0130   24.7040 C   0  0  0  0  0  0  0  0  0  0  0  0
  -21.7540   -4.4380   23.4740 C   0  0  0  0  0  3  0  0  0  0  0  0
  -21.9120   -5.2510   22.3380 C   0  0  0  0  0  0  0  0  0  0  0  0
  -22.2430   -4.6890   21.1490 F   0  0  0  0  0  0  0  0  0  0  0  0
  -21.2330   -4.2270   25.7960 F   0  0  0  0  0  0  0  0  0  0  0  0
  -23.3370  -13.9420   21.0350 C   0  0  0  0  0  0  0  0  0  0  0  0
  -22.5800  -13.2850   21.9080 N   0  0  0  0  0  0  0  0  0  0  0  0
  -22.9560  -14.9970   20.5290 O   0  0  0  0  0  0  0  0  0  0  0  0
  -22.9020  -12.4300   22.3360 H   0  0  0  0  0  0  0  0  0  0  0  0
  -21.6660  -13.6440   22.1530 H   0  0  0  0  0  0  0  0  0  0  0  0
  -26.0570  -15.4380   20.2030 N   0  0  0  0  0  0  0  0  0  0  0  0
  -25.3440  -16.1420   20.3490 H   0  0  0  0  0  0  0  0  0  0  0  0
  -26.9410  -15.8300   19.9030 H   0  0  0  0  0  0  0  0  0  0  0  0
  -28.2610  -23.7540   19.8630 C   0  0  0  0  0  2  0  0  0  0  0  0
  -28.9340  -25.2100   19.6720 C   0  0  0  0  0  3  0  0  0  0  0  0
  -28.3630  -25.6460   17.1470 C   0  0  0  0  0  1  0  0  0  0  0  0
  -30.4850  -26.5620   18.1500 C   0  0  0  0  0  1  0  0  0  0  0  0
  -29.4420  -25.4370   18.2210 C   0  0  0  0  0  3  0  0  0  0  0  0
  -28.5600  -26.4830   20.3760 O   0  0  0  0  0  0  0  0  0  0  0  0
  -24.6510  -31.8300   23.2440 C   0  0  0  0  0  0  0  0  0  0  0  0
  -27.4000  -27.2710   20.2660 C   0  0  0  0  0  0  0  0  0  0  0  0
  -23.5090  -30.4080   21.5800 C   0  0  0  0  0  3  0  0  0  0  0  0
  -25.0120  -28.8590   20.1980 C   0  0  0  0  0  0  0  0  0  0  0  0
  -26.0480  -30.7550   21.4550 C   0  0  0  0  0  2  0  0  0  0  0  0
  -26.1610  -29.3730   20.8110 C   0  0  0  0  0  0  0  0  0  0  0  0
  -27.3540  -28.5910   20.8280 C   0  0  0  0  0  3  0  0  0  0  0  0
  -26.2180  -26.7960   19.6670 C   0  0  0  0  0  3  0  0  0  0  0  0
  -25.0430  -27.5780   19.6190 C   0  0  0  0  0  3  0  0  0  0  0  0
  -23.7640  -29.7220   20.2110 C   0  0  0  0  0  2  0  0  0  0  0  0
  -24.7550  -31.0170   22.1510 N   0  0  0  0  0  0  0  0  0  0  0  0
  -23.5500  -32.0950   23.7490 O   0  0  0  0  0  0  0  0  0  0  0  0
  -22.8340  -29.3900   22.5310 C   0  0  0  0  0  0  0  0  0  0  0  0
  -21.5100  -29.2110   22.3840 N   0  0  0  0  0  0  0  0  0  0  0  0
  -23.5020  -28.7630   23.3580 O   0  0  0  0  0  0  0  0  0  0  0  0
  -21.0310  -29.7680   21.6890 H   0  0  0  0  0  0  0  0  0  0  0  0
  -18.1260  -28.0210   22.8470 C   0  0  0  0  0  0  0  0  0  0  0  0
  -20.6830  -28.2680   23.1390 C   0  0  0  0  0  3  0  0  0  0  0  0
  -20.7850  -26.8420   22.5490 C   0  0  0  0  0  2  0  0  0  0  0  0
  -19.6910  -26.5350   21.5240 C   0  0  0  0  0  2  0  0  0  0  0  0
  -18.3050  -26.6780   22.1590 C   0  0  0  0  0  2  0  0  0  0  0  0
  -19.2440  -28.7750   23.2930 C   0  0  0  0  0  0  0  0  0  0  0  0
  -19.0240  -30.0310   23.8980 C   0  0  0  0  0  3  0  0  0  0  0  0
  -17.7180  -30.5340   24.0590 C   0  0  0  0  0  3  0  0  0  0  0  0
  -16.6160  -29.7770   23.6280 C   0  0  0  0  0  3  0  0  0  0  0  0
  -16.8200  -28.5220   23.0290 C   0  0  0  0  0  3  0  0  0  0  0  0
  -25.9070  -32.4830   23.8980 C   0  0  0  0  0  3  0  0  0  0  0  0
  -25.5730  -33.8840   24.2010 N   0  0  0  0  0  0  0  0  0  0  0  0
  -25.9250  -34.9310   23.4430 C   0  0  0  0  0  0  0  0  0  0  0  0
  -26.6300  -34.8210   22.4370 O   0  0  0  0  0  0  0  0  0  0  0  0
  -24.9480  -34.0410   24.9760 H   0  0  0  0  0  0  0  0  0  0  0  0
  -24.1880  -36.7030   23.0200 C   0  0  0  0  0  1  0  0  0  0  0  0
  -25.4120  -36.3210   23.8690 C   0  0  0  0  0  3  0  0  0  0  0  0
  -27.5190  -37.2340   24.7370 C   0  0  0  0  0  1  0  0  0  0  0  0
  -26.4350  -37.3840   23.7680 N   0  0  0  0  0  0  0  0  0  0  0  0
  -26.0190  -38.3000   23.9000 H   0  0  0  0  0  0  0  0  0  0  0  0
  -26.3860  -31.7370   25.2050 C   0  0  1  0  0  0  0  0  0  0  0  0
  -25.2560  -31.4960   26.2340 C   0  0  0  0  0  1  0  0  0  0  0  0
  -27.0000  -30.3620   24.8520 C   0  0  0  0  0  1  0  0  0  0  0  0
  -27.5000  -32.5540   25.8980 C   0  0  0  0  0  1  0  0  0  0  0  0
  2  1  1  0
  3  8  1  0
  4  3  2  0
  4  5  1  0
  5  2  1  0
  5  6  2  0
  6  9  1  0
  7  4  1  0
  8  6  1  0
  9 11  1  0
 11 10  1  0
 12 18  1  0
 12 11  1  0
 13 18  1  0
 14 15  1  0
 14 13  1  0
 16 15  1  0
 16 23  1  0
 16 17  1  0
 18 17  1  0
 19 12  2  0
 20 21  2  0
 21 40  1  0
 22 21  1  0
 22 25  1  0
 23 24  1  0
 23 20  1  0
 24 22  2  0
 25 26  1  0
 26 27  2  0
 28 31  1  0
 28 27  1  0
 29 28  2  0
 30 29  1  0
 30 25  2  0
 31 32  1  0
 32 33  1  0
 33 34  2  0
 35 34  1  0
 35 39  1  0
 36 35  2  0
 37 32  2  0
 37 36  1  0
 38 37  1  0
 40 41  1  0
 41 44  1  0
 41 43  1  0
 42 40  2  0
 45 46  1  0
 45 20  1  0
 47 45  1  0
 48  1  1  0
 49 48  1  0
 49 53  1  0
 50 52  1  0
 51 52  1  0
 52 49  1  0
 54 65  2  0
 55 53  1  0
 55 60  1  0
 56 64  1  0
 56 66  1  0
 57 63  1  0
 57 59  1  0
 58 64  1  0
 59 60  2  0
 59 58  1  0
 61 55  2  0
 62 61  1  0
 62 57  2  0
 63 56  1  0
 64 54  1  0
 66 68  2  0
 67 66  1  0
 69 67  1  0
 70 79  2  0
 70 75  1  0
 71 67  1  0
 71 75  1  0
 72 71  1  0
 73 74  1  0
 73 72  1  0
 74 70  1  0
 75 76  2  0
 76 77  1  0
 78 77  2  0
 79 78  1  0
 80 54  1  0
 80 81  1  0
 80 90  1  0
 81 84  1  0
 82 86  1  0
 82 81  1  0
 83 82  2  0
 86 85  1  0
 88 86  1  0
 88 89  1  0
 88 87  1  0
 90 93  1  1
 90 91  1  0
 92 90  1  0
M  ISO  4  11 100  12 100  49 101  53 101
M  END
>  <TORSDO>  (6) 
F 23

>  <SCORE>  (6) 
-12.597

>  <name>  (6) 
5

>  <ligand_id>  (6) 
5

>  <original_smiles>  (6) 
[H]c1sc(C([H])([H])C([H])(C(=O)N2C([H])([H])C([H])([H])C([H])([H])C([H])(n3nc(-c4c([H])c([H])c(Oc5c([H])c([H])c(F)c([H])c5F)c([H])c4[H])c(C(=O)N([H])[H])c3N([H])[H])C2([H])[H])C([H])([H])[H])c(C([H])([H])C([H])([H])C([H])([H])C([H])(Oc2c([H])c([H])c3c(c2[H])C([H])([H])N(C(=O)C([H])(N([H])C(=O)C([H])(N([H])C([H])([H])[H])C([H])([H])[H])C(C([H])([H])[H])(C([H])([H])[H])C([H])([H])[H])C([H])(C(=O)N([H])C2([H])c4c([H])c([H])c([H])c([H])c4C([H])([H])C([H])([H])C2([H])[H])C3([H])[H])C([H])(C([H])([H])[H])C([H])([H])[H])c1C([H])([H])[H]

>  <smiles>  (6) 
[H]c1sc(C([H])([H])C([H])(C(=O)N2C([H])([H])C([H])([H])C([H])([H])C([H])(n3nc(-c4c([H])c([H])c(Oc5c([H])c([H])c(F)c([H])c5F)c([H])c4[H])c(C(=O)N([H])[H])c3N([H])[H])C2([H])[H])C([H])([H])[H])c(C([H])([H])C([H])([H])C([H])([H])C([H])(Oc2c([H])c([H])c3c(c2[H])C([H])([H])N(C(=O)C([H])(N([H])C(=O)C([H])(N([H])C([H])([H])[H])C([H])([H])[H])C(C([H])([H])[H])(C([H])([H])[H])C([H])([H])[H])C([H])(C(=O)N([H])C2([H])c4c([H])c([H])c([H])c([H])c4C([H])([H])C([H])([H])C2([H])[H])C3([H])[H])C([H])(C([H])([H])[H])C([H])([H])[H])c1C([H])([H])[H]

$$$$
6:0:0
     RDKit          3D

 97105  0  0  1  0  0  0  0  0999 V2000
  -30.8830  -22.1790   19.1730 C   0  0  0  0  0  2  0  0  0  0  0  0
  -31.2300  -20.5140   17.2590 C   0  0  0  0  0  3  0  0  0  0  0  0
  -30.2460  -18.3170   17.4600 C   0  0  0  0  0  3  0  0  0  0  0  0
  -30.9980  -19.2370   16.7050 C   0  0  0  0  0  0  0  0  0  0  0  0
  -30.7030  -20.8130   18.5320 C   0  0  0  0  0  0  0  0  0  0  0  0
  -29.7840  -18.6900   18.7360 C   0  0  0  0  0  0  0  0  0  0  0  0
  -30.0180  -19.9090   19.2630 N   0  0  0  0  0  0  0  0  0  0  0  0
  -27.5560  -18.3160   19.8640 C   0  0  0  0  0  1  0  0  0  0  0  0
  -29.6840  -17.3080   20.8580 C   0  0  0  0  0  1  0  0  0  0  0  0
  -28.9490  -17.7350   19.5770 C   0  0  0  0  0  3  0  0  0  0  0  0
  -31.4950  -18.8750   15.3060 C   0  0  0  0  0  2  0  0  0  0  0  0
  -33.6070  -17.9440   14.4920 C   0  0  0  0  0  0  0  0  0  0  0  0
  -34.6600  -18.1480   12.2640 C   0  0  0  0  0  2  0  0  0  0  0  0
  -34.5270  -19.5830   11.7140 C   0  0  0  0  0  2  0  0  0  0  0  0
  -33.1900  -19.7600   10.9680 C   0  0  0  0  0  2  0  0  0  0  0  0
  -31.9790  -19.2490   11.7900 C   0  0  0  0  0  3  0  0  0  0  0  0
  -32.2560  -17.8340   12.3480 C   0  0  0  0  0  2  0  0  0  0  0  0
  -33.5010  -17.8850   13.1340 N   0  0  0  0  0  0  0  0  0  0  0  0
  -34.6970  -18.0440   15.0660 O   0  0  0  0  0  0  0  0  0  0  0  0
  -32.4930  -16.8050   16.3120 C   0  0  0  0  0  1  0  0  0  0  0  0
  -32.4700  -17.7650   15.2040 N   0  0  0  0  0  0  0  0  0  0  0  0
  -29.6560  -20.1520   11.1400 C   0  0  0  0  0  0  0  0  0  0  0  0
  -28.7960  -19.8150   10.1310 C   0  0  0  0  0  0  0  0  0  0  0  0
  -29.4210  -18.7450    9.4200 C   0  0  0  0  0  0  0  0  0  0  0  0
  -30.7400  -19.2960   11.0170 N   0  0  0  0  0  0  0  0  0  0  0  0
  -30.5640  -18.4090   10.0050 N   0  0  0  0  0  0  0  0  0  0  0  0
  -29.0260  -18.0590    8.1850 C   0  0  0  0  0  0  0  0  0  0  0  0
  -28.8510  -16.6570    8.1470 C   0  0  0  0  0  3  0  0  0  0  0  0
  -28.4570  -16.0180    6.9520 C   0  0  0  0  0  3  0  0  0  0  0  0
  -28.2270  -16.7810    5.7810 C   0  0  0  0  0  0  0  0  0  0  0  0
  -28.4240  -18.1730    5.8200 C   0  0  0  0  0  3  0  0  0  0  0  0
  -28.8220  -18.8070    7.0080 C   0  0  0  0  0  3  0  0  0  0  0  0
  -27.8660  -16.2430    4.5700 O   0  0  0  0  0  0  0  0  0  0  0  0
  -26.7790  -15.4160    4.4430 C   0  0  0  0  0  0  0  0  0  0  0  0
  -25.4560  -15.9020    4.5280 C   0  0  0  0  0  3  0  0  0  0  0  0
  -24.3700  -15.0290    4.3250 C   0  0  0  0  0  3  0  0  0  0  0  0
  -24.6020  -13.6730    4.0270 C   0  0  0  0  0  0  0  0  0  0  0  0
  -25.9200  -13.1870    3.9350 C   0  0  0  0  0  3  0  0  0  0  0  0
  -27.0040  -14.0570    4.1410 C   0  0  0  0  0  0  0  0  0  0  0  0
  -28.2720  -13.5880    4.0320 F   0  0  0  0  0  0  0  0  0  0  0  0
  -23.5600  -12.8350    3.8220 F   0  0  0  0  0  0  0  0  0  0  0  0
  -27.5130  -20.5130    9.7790 C   0  0  0  0  0  0  0  0  0  0  0  0
  -26.4850  -19.7580    9.4050 N   0  0  0  0  0  0  0  0  0  0  0  0
  -27.4020  -21.7340    9.8760 O   0  0  0  0  0  0  0  0  0  0  0  0
  -26.5680  -18.7540    9.3480 H   0  0  0  0  0  0  0  0  0  0  0  0
  -25.6040  -20.1930    9.1700 H   0  0  0  0  0  0  0  0  0  0  0  0
  -29.6180  -21.1240   12.1360 N   0  0  0  0  0  0  0  0  0  0  0  0
  -28.8630  -21.7980   12.1960 H   0  0  0  0  0  0  0  0  0  0  0  0
  -30.3770  -21.3220   12.7760 H   0  0  0  0  0  0  0  0  0  0  0  0
  -31.3630  -23.2600   18.1770 C   0  0  0  0  0  2  0  0  0  0  0  0
  -31.3550  -24.6790   18.7750 C   0  0  0  0  0  2  0  0  0  0  0  0
  -32.4770  -26.6290   17.7830 C   0  0  0  0  0  1  0  0  0  0  0  0
  -31.2830  -25.7470   17.7350 N   0  0  2  0  0  4  0  0  0  0  0  0
  -31.3170  -25.2760   16.8420 H   0  0  0  0  0  0  0  0  0  0  0  0
  -29.9860  -26.4880   17.8180 C   0  0  0  0  0  2  0  0  0  0  0  0
  -29.6950  -27.4910   16.6760 C   0  0  0  0  0  2  0  0  0  0  0  0
  -28.9050  -26.8960   15.6480 O   0  0  0  0  0  0  0  0  0  0  0  0
  -28.5650  -27.5620    8.5630 C   0  0  0  0  0  0  0  0  0  0  0  0
  -29.5400  -26.7640   14.4410 C   0  0  0  0  0  0  0  0  0  0  0  0
  -30.5270  -26.3420    9.4490 C   0  0  0  0  0  3  0  0  0  0  0  0
  -30.8700  -26.4800   11.9710 C   0  0  0  0  0  0  0  0  0  0  0  0
  -29.3590  -28.1300   10.8540 C   0  0  0  0  0  2  0  0  0  0  0  0
  -29.7810  -27.3540   12.0830 C   0  0  0  0  0  0  0  0  0  0  0  0
  -29.1050  -27.4940   13.3150 C   0  0  0  0  0  3  0  0  0  0  0  0
  -30.6270  -25.8730   14.3130 C   0  0  0  0  0  3  0  0  0  0  0  0
  -31.2940  -25.7290   13.0820 C   0  0  0  0  0  3  0  0  0  0  0  0
  -31.5430  -26.3950   10.6200 C   0  0  0  0  0  2  0  0  0  0  0  0
  -29.4250  -27.3470    9.5980 N   0  0  0  0  0  0  0  0  0  0  0  0
  -28.7010  -26.9690    7.4840 O   0  0  0  0  0  0  0  0  0  0  0  0
  -30.0150  -24.8910    9.3060 C   0  0  0  0  0  0  0  0  0  0  0  0
  -30.6900  -24.0990    8.4560 N   0  0  0  0  0  0  0  0  0  0  0  0
  -29.0530  -24.4910    9.9680 O   0  0  0  0  0  0  0  0  0  0  0  0
  -31.4620  -24.5040    7.9460 H   0  0  0  0  0  0  0  0  0  0  0  0
  -30.4220  -21.6350    5.8290 C   0  0  0  0  0  0  0  0  0  0  0  0
  -30.4100  -22.6890    8.1900 C   0  0  0  0  0  3  0  0  0  0  0  0
  -31.6500  -21.8120    8.4760 C   0  0  0  0  0  2  0  0  0  0  0  0
  -32.5230  -21.5780    7.2390 C   0  0  0  0  0  2  0  0  0  0  0  0
  -31.7140  -20.8950    6.1320 C   0  0  0  0  0  2  0  0  0  0  0  0
  -29.8180  -22.4890    6.7890 C   0  0  0  0  0  0  0  0  0  0  0  0
  -28.6370  -23.1810    6.4440 C   0  0  0  0  0  3  0  0  0  0  0  0
  -28.0590  -23.0280    5.1700 C   0  0  0  0  0  3  0  0  0  0  0  0
  -28.6510  -22.1670    4.2290 C   0  0  0  0  0  3  0  0  0  0  0  0
  -29.8270  -21.4710    4.5600 C   0  0  0  0  0  3  0  0  0  0  0  0
  -27.3840  -28.5770    8.6780 C   0  0  0  0  0  3  0  0  0  0  0  0
  -27.3740  -29.3830    7.4510 N   0  0  0  0  0  0  0  0  0  0  0  0
  -28.2220  -30.3890    7.1950 C   0  0  0  0  0  0  0  0  0  0  0  0
  -29.0590  -30.7840    8.0120 O   0  0  0  0  0  0  0  0  0  0  0  0
  -26.7530  -29.0800    6.7150 H   0  0  0  0  0  0  0  0  0  0  0  0
  -29.5380  -31.2420    5.2290 C   0  0  0  0  0  1  0  0  0  0  0  0
  -28.1270  -31.0620    5.8130 C   0  0  0  0  0  3  0  0  0  0  0  0
  -26.0410  -32.2880    5.3970 C   0  0  0  0  0  1  0  0  0  0  0  0
  -27.4300  -32.3670    5.8410 N   0  0  0  0  0  0  0  0  0  0  0  0
  -27.9120  -33.0450    5.2560 H   0  0  0  0  0  0  0  0  0  0  0  0
  -25.9840  -27.8820    8.9020 C   0  0  1  0  0  0  0  0  0  0  0  0
  -25.4660  -27.1170    7.6620 C   0  0  0  0  0  1  0  0  0  0  0  0
  -26.0550  -26.8810   10.0790 C   0  0  0  0  0  1  0  0  0  0  0  0
  -24.9280  -28.9450    9.2860 C   0  0  0  0  0  1  0  0  0  0  0  0
  2  5  1  0
  3  6  2  0
  4  2  2  0
  4  3  1  0
  5  1  1  0
  5  7  2  0
  6  7  1  0
  6 10  1  0
 10  8  1  0
 10  9  1  0
 11  4  1  0
 12 19  2  0
 12 21  1  0
 13 18  1  0
 14 13  1  0
 15 14  1  0
 16 15  1  0
 16 17  1  0
 17 18  1  0
 18 12  1  0
 21 11  1  0
 21 20  1  0
 22 47  1  0
 23 22  2  0
 24 26  2  0
 24 23  1  0
 25 22  1  0
 25 16  1  0
 26 25  1  0
 27 24  1  0
 28 27  1  0
 29 28  2  0
 30 31  2  0
 30 29  1  0
 31 32  1  0
 32 27  2  0
 33 30  1  0
 34 35  1  0
 34 33  1  0
 36 35  2  0
 37 36  1  0
 38 37  2  0
 38 39  1  0
 39 34  2  0
 40 39  1  0
 41 37  1  0
 42 44  2  0
 42 23  1  0
 43 42  1  0
 45 43  1  0
 46 43  1  0
 47 48  1  0
 47 49  1  0
 50 51  1  0
 50  1  1  0
 53 52  1  0
 53 55  1  0
 53 51  1  0
 53 54  1  6
 56 55  1  0
 57 56  1  0
 58 68  1  0
 59 57  1  0
 60 70  1  0
 60 68  1  0
 60 67  1  0
 61 63  2  0
 61 66  1  0
 62 63  1  0
 63 64  1  0
 64 59  2  0
 65 59  1  0
 66 65  2  0
 67 61  1  0
 68 62  1  0
 69 58  2  0
 70 72  2  0
 71 70  1  0
 73 71  1  0
 74 78  1  0
 74 79  1  0
 75 71  1  0
 75 76  1  0
 77 76  1  0
 78 77  1  0
 79 75  1  0
 80 79  2  0
 81 80  1  0
 82 83  1  0
 82 81  2  0
 83 74  2  0
 84 58  1  0
 84 94  1  0
 85 84  1  0
 86 85  1  0
 86 87  2  0
 88 85  1  0
 90 89  1  0
 90 92  1  0
 90 86  1  0
 91 92  1  0
 93 92  1  0
 94 97  1  1
 94 96  1  0
 95 94  1  0
M  ISO  4  12 100  21 100  56 101  57 101
M  END
>  <TORSDO>  (7) 
F 24

>  <SCORE>  (7) 
-3.555

>  <name>  (7) 
6

>  <ligand_id>  (7) 
6

>  <original_smiles>  (7) 
[H]c1c([H])c([H])c2c(c1[H])C([H])([H])C([H])([H])C([H])([H])C2([H])N([H])C(=O)C1([H])N(C(=O)C([H])(N([H])C(=O)C([H])(N([H])C([H])([H])[H])C([H])([H])[H])C(C([H])([H])[H])(C([H])([H])[H])C([H])([H])[H])C([H])([H])c2c([H])c(OC([H])([H])C([H])([H])[N+]([H])(C([H])([H])[H])C([H])([H])C([H])([H])C([H])([H])c3nc(C([H])(C([H])([H])[H])C([H])([H])[H])c([H])c(C([H])([H])N(C(=O)N4C([H])([H])C([H])([H])C([H])([H])C([H])(n5nc(-c6c([H])c([H])c(Oc7c([H])c([H])c(F)c([H])c7F)c([H])c6[H])c(C(=O)N([H])[H])c5N([H])[H])C4([H])[H])C([H])([H])[H])c3[H])c([H])c([H])c2C1([H])[H]

>  <smiles>  (7) 
[H]c1c([H])c([H])c2c(c1[H])C([H])([H])C([H])([H])C([H])([H])C2([H])N([H])C(=O)C1([H])N(C(=O)C([H])(N([H])C(=O)C([H])(N([H])C([H])([H])[H])C([H])([H])[H])C(C([H])([H])[H])(C([H])([H])[H])C([H])([H])[H])C([H])([H])c2c([H])c(OC([H])([H])C([H])([H])[N+]([H])(C([H])([H])[H])C([H])([H])C([H])([H])C([H])([H])c3nc(C([H])(C([H])([H])[H])C([H])([H])[H])c([H])c(C([H])([H])N(C(=O)N4C([H])([H])C([H])([H])C([H])([H])C([H])(n5nc(-c6c([H])c([H])c(Oc7c([H])c([H])c(F)c([H])c7F)c([H])c6[H])c(C(=O)N([H])[H])c5N([H])[H])C4([H])[H])C([H])([H])[H])c3[H])c([H])c([H])c2C1([H])[H]

$$$$
7:0:0
     RDKit          3D

 95103  0  0  1  0  0  0  0  0999 V2000
  -29.1410  -20.0270   20.7510 C   0  0  0  0  0  3  0  0  0  0  0  0
  -30.9250  -18.5340   22.1840 C   0  0  0  0  0  3  0  0  0  0  0  0
  -29.0240  -18.6210   20.6980 C   0  0  0  0  0  0  0  0  0  0  0  0
  -29.9460  -17.8380   21.4450 C   0  0  0  0  0  0  0  0  0  0  0  0
  -30.1540  -20.6350   21.5170 C   0  0  0  0  0  0  0  0  0  0  0  0
  -31.0220  -19.8800   22.2310 N   0  0  0  0  0  0  0  0  0  0  0  0
  -27.9980  -18.4460   18.3790 C   0  0  0  0  0  1  0  0  0  0  0  0
  -26.5270  -18.3660   20.4330 C   0  0  0  0  0  1  0  0  0  0  0  0
  -27.9040  -18.0170   19.8540 C   0  0  0  0  0  3  0  0  0  0  0  0
  -29.9170  -22.4860   23.1680 C   0  0  0  0  0  1  0  0  0  0  0  0
  -31.6900  -22.6510   21.3660 C   0  0  0  0  0  1  0  0  0  0  0  0
  -30.2570  -22.1750   21.6960 C   0  0  1  0  0  0  0  0  0  0  0  0
  -29.2700  -22.9520   20.7590 C   0  0  0  0  0  2  0  0  0  0  0  0
  -29.4280  -24.4960   20.6580 C   0  0  0  0  0  2  0  0  0  0  0  0
  -28.2920  -25.1440   19.8510 C   0  0  0  0  0  2  0  0  0  0  0  0
  -28.4320  -26.5700   19.8050 O   0  0  0  0  0  0  0  0  0  0  0  0
  -24.5940  -31.6010   23.0370 C   0  0  0  0  0  0  0  0  0  0  0  0
  -27.2550  -27.2900   19.7960 C   0  0  0  0  0  0  0  0  0  0  0  0
  -23.3870  -30.2330   21.3660 C   0  0  0  0  0  3  0  0  0  0  0  0
  -24.8410  -28.7620   19.8780 C   0  0  0  0  0  0  0  0  0  0  0  0
  -25.9050  -30.6360   21.1470 C   0  0  0  0  0  2  0  0  0  0  0  0
  -26.0010  -29.2880   20.4610 C   0  0  0  0  0  0  0  0  0  0  0  0
  -27.2120  -28.5610   20.4120 C   0  0  0  0  0  3  0  0  0  0  0  0
  -26.0750  -26.7810   19.2050 C   0  0  0  0  0  3  0  0  0  0  0  0
  -24.8720  -27.5060   19.2490 C   0  0  0  0  0  3  0  0  0  0  0  0
  -23.5870  -29.6000   19.9640 C   0  0  0  0  0  2  0  0  0  0  0  0
  -24.6480  -30.8370   21.9080 N   0  0  0  0  0  0  0  0  0  0  0  0
  -23.5150  -31.8380   23.5980 O   0  0  0  0  0  0  0  0  0  0  0  0
  -22.7630  -29.1740   22.3030 C   0  0  0  0  0  0  0  0  0  0  0  0
  -21.4390  -28.9750   22.1850 N   0  0  0  0  0  0  0  0  0  0  0  0
  -23.4650  -28.5340   23.0900 O   0  0  0  0  0  0  0  0  0  0  0  0
  -20.9340  -29.5480   21.5240 H   0  0  0  0  0  0  0  0  0  0  0  0
  -18.0840  -27.7380   22.7010 C   0  0  0  0  0  0  0  0  0  0  0  0
  -20.6440  -28.0040   22.9360 C   0  0  0  0  0  3  0  0  0  0  0  0
  -20.7440  -26.5950   22.3060 C   0  0  0  0  0  2  0  0  0  0  0  0
  -19.6260  -26.3020   21.3010 C   0  0  0  0  0  2  0  0  0  0  0  0
  -18.2540  -26.4160   21.9740 C   0  0  0  0  0  2  0  0  0  0  0  0
  -19.2050  -28.4920   23.1390 C   0  0  0  0  0  0  0  0  0  0  0  0
  -18.9880  -29.7320   23.7780 C   0  0  0  0  0  3  0  0  0  0  0  0
  -17.6830  -30.2190   23.9840 C   0  0  0  0  0  3  0  0  0  0  0  0
  -16.5760  -29.4600   23.5630 C   0  0  0  0  0  3  0  0  0  0  0  0
  -16.7770  -28.2220   22.9270 C   0  0  0  0  0  3  0  0  0  0  0  0
  -25.8780  -32.2300   23.6620 C   0  0  0  0  0  3  0  0  0  0  0  0
  -25.5560  -33.6110   24.0440 N   0  0  0  0  0  0  0  0  0  0  0  0
  -25.8810  -34.6930   23.3240 C   0  0  0  0  0  0  0  0  0  0  0  0
  -26.5540  -34.6330   22.2910 O   0  0  0  0  0  0  0  0  0  0  0  0
  -24.9630  -33.7310   24.8530 H   0  0  0  0  0  0  0  0  0  0  0  0
  -24.1350  -36.4750   23.0260 C   0  0  0  0  0  1  0  0  0  0  0  0
  -25.3780  -36.0590   23.8290 C   0  0  0  0  0  3  0  0  0  0  0  0
  -27.4990  -36.9340   24.7010 C   0  0  0  0  0  1  0  0  0  0  0  0
  -26.4010  -37.1250   23.7570 N   0  0  0  0  0  0  0  0  0  0  0  0
  -25.9870  -38.0360   23.9330 H   0  0  0  0  0  0  0  0  0  0  0  0
  -26.4280  -31.4220   24.9000 C   0  0  1  0  0  0  0  0  0  0  0  0
  -25.3590  -31.1190   25.9770 C   0  0  0  0  0  1  0  0  0  0  0  0
  -27.0300  -30.0750   24.4420 C   0  0  0  0  0  1  0  0  0  0  0  0
  -27.5760  -32.2130   25.5720 C   0  0  0  0  0  1  0  0  0  0  0  0
  -29.9300  -16.2900   21.4960 C   0  0  0  0  0  2  0  0  0  0  0  0
  -30.8530  -14.4540   20.1070 C   0  0  0  0  0  0  0  0  0  0  0  0
  -30.4890  -12.3110   18.9500 C   0  0  0  0  0  2  0  0  0  0  0  0
  -29.5170  -12.5450   17.7750 C   0  0  0  0  0  2  0  0  0  0  0  0
  -28.0550  -12.4190   18.2490 C   0  0  0  0  0  2  0  0  0  0  0  0
  -27.7610  -13.2330   19.5380 C   0  0  0  0  0  3  0  0  0  0  0  0
  -28.8520  -13.0050   20.6100 C   0  0  0  0  0  2  0  0  0  0  0  0
  -30.1540  -13.2920   19.9910 N   0  0  0  0  0  0  0  0  0  0  0  0
  -32.0200  -14.5630   19.7150 O   0  0  0  0  0  0  0  0  0  0  0  0
  -30.0170  -16.4200   19.0020 C   0  0  0  0  0  1  0  0  0  0  0  0
  -30.0910  -15.5740   20.2050 N   0  0  0  0  0  0  0  0  0  0  0  0
  -25.3820  -13.8330   20.3060 C   0  0  0  0  0  0  0  0  0  0  0  0
  -24.3260  -13.0590   20.7060 C   0  0  0  0  0  0  0  0  0  0  0  0
  -24.7890  -11.7110   20.6670 C   0  0  0  0  0  0  0  0  0  0  0  0
  -26.4230  -12.9550   20.0550 N   0  0  0  0  0  0  0  0  0  0  0  0
  -26.0730  -11.6720   20.3290 N   0  0  0  0  0  0  0  0  0  0  0  0
  -24.0700  -10.4470   20.8740 C   0  0  0  0  0  0  0  0  0  0  0  0
  -24.4880   -9.5110   21.8450 C   0  0  0  0  0  3  0  0  0  0  0  0
  -23.7670   -8.3120   22.0390 C   0  0  0  0  0  3  0  0  0  0  0  0
  -22.6160   -8.0440   21.2610 C   0  0  0  0  0  0  0  0  0  0  0  0
  -22.2190   -8.9680   20.2790 C   0  0  0  0  0  3  0  0  0  0  0  0
  -22.9400  -10.1580   20.0850 C   0  0  0  0  0  3  0  0  0  0  0  0
  -21.8690   -6.8940   21.3620 O   0  0  0  0  0  0  0  0  0  0  0  0
  -21.7350   -6.2270   22.5520 C   0  0  0  0  0  0  0  0  0  0  0  0
  -21.2100   -6.8540   23.7030 C   0  0  0  0  0  3  0  0  0  0  0  0
  -21.0210   -6.1120   24.8860 C   0  0  0  0  0  3  0  0  0  0  0  0
  -21.3500   -4.7430   24.9190 C   0  0  0  0  0  0  0  0  0  0  0  0
  -21.8670   -4.1160   23.7710 C   0  0  0  0  0  3  0  0  0  0  0  0
  -22.0550   -4.8550   22.5910 C   0  0  0  0  0  0  0  0  0  0  0  0
  -22.5340   -4.2410   21.4830 F   0  0  0  0  0  0  0  0  0  0  0  0
  -21.1630   -4.0260   26.0520 F   0  0  0  0  0  0  0  0  0  0  0  0
  -22.9360  -13.5370   21.0090 C   0  0  0  0  0  0  0  0  0  0  0  0
  -22.2410  -12.8570   21.9170 N   0  0  0  0  0  0  0  0  0  0  0  0
  -22.4740  -14.5450   20.4780 O   0  0  0  0  0  0  0  0  0  0  0  0
  -22.6270  -12.0400   22.3650 H   0  0  0  0  0  0  0  0  0  0  0  0
  -21.3090  -13.1600   22.1630 H   0  0  0  0  0  0  0  0  0  0  0  0
  -25.5350  -15.2020   20.1140 N   0  0  0  0  0  0  0  0  0  0  0  0
  -24.7640  -15.8530   20.2220 H   0  0  0  0  0  0  0  0  0  0  0  0
  -26.3650  -15.6280   19.7260 H   0  0  0  0  0  0  0  0  0  0  0  0
  1  5  1  0
  2  6  1  0
  3  1  2  0
  3  4  1  0
  4 57  1  0
  4  2  2  0
  5 12  1  0
  5  6  2  0
  7  9  1  0
  9  8  1  0
  9  3  1  0
 12 11  1  6
 12 10  1  0
 13 12  1  0
 14 13  1  0
 15 14  1  0
 16 15  1  0
 17 28  2  0
 18 16  1  0
 18 23  1  0
 19 27  1  0
 19 29  1  0
 20 26  1  0
 20 22  1  0
 21 27  1  0
 22 21  1  0
 23 22  2  0
 24 25  1  0
 24 18  2  0
 25 20  2  0
 26 19  1  0
 27 17  1  0
 29 31  2  0
 30 29  1  0
 32 30  1  0
 33 42  2  0
 33 38  1  0
 34 30  1  0
 34 38  1  0
 35 34  1  0
 36 37  1  0
 36 35  1  0
 37 33  1  0
 38 39  2  0
 39 40  1  0
 41 40  2  0
 42 41  1  0
 43 17  1  0
 43 44  1  0
 43 53  1  0
 44 47  1  0
 45 49  1  0
 45 44  1  0
 46 45  2  0
 49 48  1  0
 51 49  1  0
 51 52  1  0
 51 50  1  0
 53 56  1  1
 53 54  1  0
 55 53  1  0
 58 67  1  0
 59 64  1  0
 60 61  1  0
 60 59  1  0
 62 61  1  0
 62 71  1  0
 62 63  1  0
 64 58  1  0
 64 63  1  0
 65 58  2  0
 66 67  1  0
 67 57  1  0
 68 69  2  0
 69 88  1  0
 70 69  1  0
 70 73  1  0
 71 68  1  0
 71 72  1  0
 72 70  2  0
 73 74  1  0
 74 75  2  0
 76 79  1  0
 76 75  1  0
 77 76  2  0
 78 77  1  0
 78 73  2  0
 79 80  1  0
 80 85  2  0
 80 81  1  0
 81 82  2  0
 82 83  1  0
 83 87  1  0
 84 83  2  0
 85 84  1  0
 86 85  1  0
 88 89  1  0
 89 92  1  0
 89 91  1  0
 90 88  2  0
 93 94  1  0
 93 68  1  0
 95 93  1  0
M  ISO  4  15 101  16 101  58 100  67 100
M  END
>  <TORSDO>  (8) 
F 22

>  <SCORE>  (8) 
-12.223

>  <name>  (8) 
7

>  <ligand_id>  (8) 
7

>  <original_smiles>  (8) 
[H]c1nc(C(C([H])([H])[H])(C([H])([H])[H])C([H])([H])C([H])([H])C([H])([H])Oc2c([H])c([H])c3c(c2[H])C([H])([H])N(C(=O)C([H])(N([H])C(=O)C([H])(N([H])C([H])([H])[H])C([H])([H])[H])C(C([H])([H])[H])(C([H])([H])[H])C([H])([H])[H])C([H])(C(=O)N([H])C2([H])c4c([H])c([H])c([H])c([H])c4C([H])([H])C([H])([H])C2([H])[H])C3([H])[H])c([H])c(C([H])(C([H])([H])[H])C([H])([H])[H])c1C([H])([H])N(C(=O)N1C([H])([H])C([H])([H])C([H])([H])C([H])(n2nc(-c3c([H])c([H])c(Oc4c([H])c([H])c(F)c([H])c4F)c([H])c3[H])c(C(=O)N([H])[H])c2N([H])[H])C1([H])[H])C([H])([H])[H]

>  <smiles>  (8) 
[H]c1nc(C(C([H])([H])[H])(C([H])([H])[H])C([H])([H])C([H])([H])C([H])([H])Oc2c([H])c([H])c3c(c2[H])C([H])([H])N(C(=O)C([H])(N([H])C(=O)C([H])(N([H])C([H])([H])[H])C([H])([H])[H])C(C([H])([H])[H])(C([H])([H])[H])C([H])([H])[H])C([H])(C(=O)N([H])C2([H])c4c([H])c([H])c([H])c([H])c4C([H])([H])C([H])([H])C2([H])[H])C3([H])[H])c([H])c(C([H])(C([H])([H])[H])C([H])([H])[H])c1C([H])([H])N(C(=O)N1C([H])([H])C([H])([H])C([H])([H])C([H])(n2nc(-c3c([H])c([H])c(Oc4c([H])c([H])c(F)c([H])c4F)c([H])c3[H])c(C(=O)N([H])[H])c2N([H])[H])C1([H])[H])C([H])([H])[H]

$$$$
8:0:0
     RDKit          3D

 91 99  0  0  1  0  0  0  0  0999 V2000
  -30.5820  -22.0280   20.5670 C   0  0  0  0  0  3  0  0  0  0  0  0
  -29.2000  -21.8270   20.3890 C   0  0  0  0  0  0  0  0  0  0  0  0
  -29.7360  -19.3330   20.3270 C   0  0  0  0  0  0  0  0  0  0  0  0
  -31.0910  -19.7180   20.5520 C   0  0  0  0  0  0  0  0  0  0  0  0
  -31.4870  -21.0200   20.6440 N   0  0  0  0  0  0  0  0  0  0  0  0
  -28.8070  -20.4410   20.2590 N   0  0  0  0  0  0  0  0  0  0  0  0
  -33.2600  -19.0010   21.6890 C   0  0  0  0  0  1  0  0  0  0  0  0
  -32.9200  -18.6070   19.1940 C   0  0  0  0  0  1  0  0  0  0  0  0
  -32.2430  -18.7120   20.5700 C   0  0  0  0  0  3  0  0  0  0  0  0
  -28.2390  -23.1920   20.5780 C   0  0  0  0  0  2  0  0  0  0  0  0
  -28.3640  -24.7360   19.8320 C   0  0  0  0  0  2  0  0  0  0  0  0
  -28.2330  -26.2220   20.3650 O   0  0  0  0  0  0  0  0  0  0  0  0
  -24.6030  -31.9640   23.2510 C   0  0  0  0  0  0  0  0  0  0  0  0
  -27.1620  -27.1940   20.2380 C   0  0  0  0  0  0  0  0  0  0  0  0
  -23.3940  -30.5580   21.6250 C   0  0  0  0  0  3  0  0  0  0  0  0
  -24.8340  -28.9620   20.1990 C   0  0  0  0  0  0  0  0  0  0  0  0
  -25.9480  -30.8090   21.4500 C   0  0  0  0  0  2  0  0  0  0  0  0
  -26.0140  -29.4090   20.8040 C   0  0  0  0  0  0  0  0  0  0  0  0
  -27.1720  -28.5380   20.8090 C   0  0  0  0  0  3  0  0  0  0  0  0
  -25.9580  -26.8550   19.5880 C   0  0  0  0  0  3  0  0  0  0  0  0
  -24.8210  -27.7020   19.5740 C   0  0  0  0  0  3  0  0  0  0  0  0
  -23.6090  -29.8660   20.2500 C   0  0  0  0  0  2  0  0  0  0  0  0
  -24.6690  -31.1350   22.1630 N   0  0  0  0  0  0  0  0  0  0  0  0
  -23.5190  -32.2540   23.7820 O   0  0  0  0  0  0  0  0  0  0  0  0
  -22.7160  -29.5630   22.6000 C   0  0  0  0  0  0  0  0  0  0  0  0
  -21.3890  -29.3860   22.4730 N   0  0  0  0  0  0  0  0  0  0  0  0
  -23.3880  -28.9520   23.4350 O   0  0  0  0  0  0  0  0  0  0  0  0
  -20.9030  -29.9300   21.7740 H   0  0  0  0  0  0  0  0  0  0  0  0
  -18.0190  -28.1450   22.9580 C   0  0  0  0  0  0  0  0  0  0  0  0
  -20.5700  -28.4530   23.2520 C   0  0  0  0  0  3  0  0  0  0  0  0
  -20.7010  -27.0100   22.7100 C   0  0  0  0  0  2  0  0  0  0  0  0
  -19.6170  -26.6500   21.6880 C   0  0  0  0  0  2  0  0  0  0  0  0
  -18.2250  -26.7850   22.3100 C   0  0  0  0  0  2  0  0  0  0  0  0
  -19.1190  -28.9340   23.3860 C   0  0  0  0  0  0  0  0  0  0  0  0
  -18.8710  -30.2030   23.9520 C   0  0  0  0  0  3  0  0  0  0  0  0
  -17.5570  -30.6840   24.0960 C   0  0  0  0  0  3  0  0  0  0  0  0
  -16.4700  -29.8930   23.6820 C   0  0  0  0  0  3  0  0  0  0  0  0
  -16.7020  -28.6250   23.1190 C   0  0  0  0  0  3  0  0  0  0  0  0
  -25.8830  -32.6030   23.8700 C   0  0  0  0  0  3  0  0  0  0  0  0
  -26.3890  -31.8520   25.1640 C   0  0  1  0  0  0  0  0  0  0  0  0
  -25.2900  -31.6420   26.2320 C   0  0  0  0  0  1  0  0  0  0  0  0
  -26.9650  -30.4640   24.8050 C   0  0  0  0  0  1  0  0  0  0  0  0
  -27.5410  -32.6510   25.8170 C   0  0  0  0  0  1  0  0  0  0  0  0
  -25.5780  -34.0090   24.1840 N   0  0  0  0  0  0  0  0  0  0  0  0
  -25.9140  -35.0550   23.4190 C   0  0  0  0  0  0  0  0  0  0  0  0
  -26.5800  -34.9400   22.3870 O   0  0  0  0  0  0  0  0  0  0  0  0
  -24.9840  -34.1720   24.9850 H   0  0  0  0  0  0  0  0  0  0  0  0
  -24.1960  -36.8610   23.0610 C   0  0  0  0  0  1  0  0  0  0  0  0
  -25.4400  -36.4530   23.8680 C   0  0  0  0  0  3  0  0  0  0  0  0
  -27.5820  -37.3360   24.6810 C   0  0  0  0  0  1  0  0  0  0  0  0
  -26.4780  -37.4990   23.7400 N   0  0  0  0  0  0  0  0  0  0  0  0
  -26.0780  -38.4220   23.8760 H   0  0  0  0  0  0  0  0  0  0  0  0
  -29.4190  -17.7500   19.8590 C   0  0  0  0  0  2  0  0  0  0  0  0
  -30.4360  -15.1350   20.2330 C   0  0  0  0  0  0  0  0  0  0  0  0
  -30.3670  -12.7580   19.3210 C   0  0  0  0  0  2  0  0  0  0  0  0
  -29.4260  -12.7000   18.0920 C   0  0  0  0  0  2  0  0  0  0  0  0
  -27.9700  -12.4630   18.5350 C   0  0  0  0  0  2  0  0  0  0  0  0
  -27.5640  -13.3700   19.7250 C   0  0  0  0  0  3  0  0  0  0  0  0
  -28.6290  -13.3960   20.8440 C   0  0  0  0  0  2  0  0  0  0  0  0
  -29.8880  -13.8440   20.2340 N   0  0  0  0  0  0  0  0  0  0  0  0
  -31.5970  -15.2290   19.8210 O   0  0  0  0  0  0  0  0  0  0  0  0
  -29.6470  -16.3000   20.5200 N   0  0  0  0  0  0  0  0  0  0  0  0
  -28.8240  -16.0300   21.0370 H   0  0  0  0  0  0  0  0  0  0  0  0
  -25.1810  -13.9070   20.4860 C   0  0  0  0  0  0  0  0  0  0  0  0
  -24.1340  -13.1160   20.8670 C   0  0  0  0  0  0  0  0  0  0  0  0
  -24.6190  -11.7720   20.8340 C   0  0  0  0  0  0  0  0  0  0  0  0
  -26.2350  -13.0460   20.2350 N   0  0  0  0  0  0  0  0  0  0  0  0
  -25.9080  -11.7570   20.5110 N   0  0  0  0  0  0  0  0  0  0  0  0
  -23.9140  -10.4990   21.0320 C   0  0  0  0  0  0  0  0  0  0  0  0
  -24.3640   -9.5420   21.9690 C   0  0  0  0  0  3  0  0  0  0  0  0
  -23.6560   -8.3360   22.1560 C   0  0  0  0  0  3  0  0  0  0  0  0
  -22.4830   -8.0770   21.4070 C   0  0  0  0  0  0  0  0  0  0  0  0
  -22.0530   -9.0220   20.4600 C   0  0  0  0  0  3  0  0  0  0  0  0
  -22.7620  -10.2200   20.2700 C   0  0  0  0  0  3  0  0  0  0  0  0
  -21.7440   -6.9220   21.5040 O   0  0  0  0  0  0  0  0  0  0  0  0
  -21.7090   -6.1850   22.6610 C   0  0  0  0  0  0  0  0  0  0  0  0
  -21.2630   -6.7370   23.8820 C   0  0  0  0  0  3  0  0  0  0  0  0
  -21.1760   -5.9260   25.0310 C   0  0  0  0  0  3  0  0  0  0  0  0
  -21.5230   -4.5640   24.9600 C   0  0  0  0  0  0  0  0  0  0  0  0
  -21.9620   -4.0110   23.7440 C   0  0  0  0  0  3  0  0  0  0  0  0
  -22.0510   -4.8190   22.5970 C   0  0  0  0  0  0  0  0  0  0  0  0
  -22.4540   -4.2770   21.4230 F   0  0  0  0  0  0  0  0  0  0  0  0
  -21.4330   -3.7810   26.0610 F   0  0  0  0  0  0  0  0  0  0  0  0
  -22.7310  -13.5710   21.1500 C   0  0  0  0  0  0  0  0  0  0  0  0
  -22.0200  -12.8650   22.0210 N   0  0  0  0  0  0  0  0  0  0  0  0
  -22.2770  -14.5910   20.6340 O   0  0  0  0  0  0  0  0  0  0  0  0
  -22.4020  -12.0410   22.4610 H   0  0  0  0  0  0  0  0  0  0  0  0
  -21.0800  -13.1540   22.2530 H   0  0  0  0  0  0  0  0  0  0  0  0
  -25.3200  -15.2800   20.3040 N   0  0  0  0  0  0  0  0  0  0  0  0
  -24.5400  -15.9190   20.4180 H   0  0  0  0  0  0  0  0  0  0  0  0
  -26.1460  -15.7290   19.9300 H   0  0  0  0  0  0  0  0  0  0  0  0
  1  5  1  0
  2  1  2  0
  2 10  1  0
  3  4  1  0
  4  9  1  0
  4  5  2  0
  6  3  2  0
  6  2  1  0
  8  9  1  0
  9  7  1  0
 11 12  1  0
 11 10  1  0
 13 24  2  0
 14 12  1  0
 14 19  1  0
 15 23  1  0
 15 25  1  0
 16 22  1  0
 16 18  1  0
 17 23  1  0
 18 19  2  0
 18 17  1  0
 20 14  2  0
 21 20  1  0
 21 16  2  0
 22 15  1  0
 23 13  1  0
 25 27  2  0
 26 25  1  0
 28 26  1  0
 29 38  2  0
 29 34  1  0
 30 26  1  0
 30 34  1  0
 31 30  1  0
 32 33  1  0
 32 31  1  0
 33 29  1  0
 34 35  2  0
 35 36  1  0
 37 36  2  0
 38 37  1  0
 39 13  1  0
 39 44  1  0
 39 40  1  0
 40 43  1  1
 40 41  1  0
 42 40  1  0
 44 47  1  0
 45 49  1  0
 45 44  1  0
 46 45  2  0
 49 48  1  0
 51 49  1  0
 51 52  1  0
 51 50  1  0
 53  3  1  0
 53 62  1  0
 54 60  1  0
 54 62  1  0
 55 60  1  0
 56 57  1  0
 56 55  1  0
 58 57  1  0
 58 67  1  0
 58 59  1  0
 60 59  1  0
 61 54  2  0
 62 63  1  0
 64 65  2  0
 65 84  1  0
 66 65  1  0
 66 69  1  0
 67 64  1  0
 67 68  1  0
 68 66  2  0
 69 70  1  0
 70 71  2  0
 72 75  1  0
 72 71  1  0
 73 72  2  0
 74 73  1  0
 74 69  2  0
 75 76  1  0
 76 77  1  0
 77 78  2  0
 79 78  1  0
 79 83  1  0
 80 79  2  0
 81 76  2  0
 81 80  1  0
 82 81  1  0
 84 85  1  0
 85 88  1  0
 85 87  1  0
 86 84  2  0
 89 90  1  0
 89 64  1  0
 91 89  1  0
M  ISO  4  11 101  12 101  54 100  62 100
M  END
>  <TORSDO>  (9) 
F 20

>  <SCORE>  (9) 
-14.554

>  <name>  (9) 
8

>  <ligand_id>  (9) 
8

>  <original_smiles>  (9) 
[H]c1nc(C([H])(C([H])([H])[H])C([H])([H])[H])c(C([H])([H])N([H])C(=O)N2C([H])([H])C([H])([H])C([H])([H])C([H])(n3nc(-c4c([H])c([H])c(Oc5c([H])c([H])c(F)c([H])c5F)c([H])c4[H])c(C(=O)N([H])[H])c3N([H])[H])C2([H])[H])nc1C([H])([H])C([H])([H])Oc1c([H])c([H])c2c(c1[H])C([H])([H])N(C(=O)C([H])(N([H])C(=O)C([H])(N([H])C([H])([H])[H])C([H])([H])[H])C(C([H])([H])[H])(C([H])([H])[H])C([H])([H])[H])C([H])(C(=O)N([H])C1([H])c3c([H])c([H])c([H])c([H])c3C([H])([H])C([H])([H])C1([H])[H])C2([H])[H]

>  <smiles>  (9) 
[H]c1nc(C([H])(C([H])([H])[H])C([H])([H])[H])c(C([H])([H])N([H])C(=O)N2C([H])([H])C([H])([H])C([H])([H])C([H])(n3nc(-c4c([H])c([H])c(Oc5c([H])c([H])c(F)c([H])c5F)c([H])c4[H])c(C(=O)N([H])[H])c3N([H])[H])C2([H])[H])nc1C([H])([H])C([H])([H])Oc1c([H])c([H])c2c(c1[H])C([H])([H])N(C(=O)C([H])(N([H])C(=O)C([H])(N([H])C([H])([H])[H])C([H])([H])[H])C(C([H])([H])[H])(C([H])([H])[H])C([H])([H])[H])C([H])(C(=O)N([H])C1([H])c3c([H])c([H])c([H])c([H])c3C([H])([H])C([H])([H])C1([H])[H])C2([H])[H]

$$$$
9:0:0
     RDKit          3D

 95103  0  0  1  0  0  0  0  0999 V2000
  -30.3600  -19.8500   19.4790 C   0  0  0  0  0  3  0  0  0  0  0  0
  -29.9430  -18.5290   19.3150 C   0  0  0  0  0  0  0  0  0  0  0  0
  -28.5660  -18.6810   18.9530 C   0  0  0  0  0  0  0  0  0  0  0  0
  -28.2580  -20.0280   18.8160 C   0  0  0  0  0  0  0  0  0  0  0  0
  -27.0010  -20.6670   18.3210 C   0  0  0  0  0  1  0  0  0  0  0  0
  -29.3570  -20.8060   19.1880 N   0  0  0  0  0  0  0  0  0  0  0  0
  -30.8160  -17.2120   19.5430 C   0  0  0  0  0  2  0  0  0  0  0  0
  -30.9990  -14.6540   19.8400 C   0  0  0  0  0  0  0  0  0  0  0  0
  -30.7450  -12.2790   19.1250 C   0  0  0  0  0  2  0  0  0  0  0  0
  -29.7700  -12.2030   17.9300 C   0  0  0  0  0  2  0  0  0  0  0  0
  -28.3160  -12.0930   18.4260 C   0  0  0  0  0  2  0  0  0  0  0  0
  -27.9800  -13.1340   19.5280 C   0  0  0  0  0  3  0  0  0  0  0  0
  -29.0730  -13.1810   20.6170 C   0  0  0  0  0  2  0  0  0  0  0  0
  -30.3480  -13.4460   19.9440 N   0  0  0  0  0  0  0  0  0  0  0  0
  -32.1800  -14.6800   19.4860 O   0  0  0  0  0  0  0  0  0  0  0  0
  -30.2770  -15.8330   19.9050 N   0  0  0  0  0  0  0  0  0  0  0  0
  -29.2950  -15.7720   20.1290 H   0  0  0  0  0  0  0  0  0  0  0  0
  -25.6690  -13.8460   20.3820 C   0  0  0  0  0  0  0  0  0  0  0  0
  -24.5860  -13.1270   20.8100 C   0  0  0  0  0  0  0  0  0  0  0  0
  -24.9770  -11.7540   20.7530 C   0  0  0  0  0  0  0  0  0  0  0  0
  -26.6530  -12.9160   20.0930 N   0  0  0  0  0  0  0  0  0  0  0  0
  -26.2460  -11.6520   20.3790 N   0  0  0  0  0  0  0  0  0  0  0  0
  -24.1970  -10.5300   20.9780 C   0  0  0  0  0  0  0  0  0  0  0  0
  -24.5940   -9.5650   21.9300 C   0  0  0  0  0  3  0  0  0  0  0  0
  -23.8150   -8.4070   22.1400 C   0  0  0  0  0  3  0  0  0  0  0  0
  -22.6260   -8.2050   21.4000 C   0  0  0  0  0  0  0  0  0  0  0  0
  -22.2490   -9.1570   20.4360 C   0  0  0  0  0  3  0  0  0  0  0  0
  -23.0280  -10.3070   20.2230 C   0  0  0  0  0  3  0  0  0  0  0  0
  -21.8220   -7.0970   21.5190 O   0  0  0  0  0  0  0  0  0  0  0  0
  -21.7080   -6.4150   22.7040 C   0  0  0  0  0  0  0  0  0  0  0  0
  -21.2700   -7.0470   23.8880 C   0  0  0  0  0  3  0  0  0  0  0  0
  -21.1010   -6.2930   25.0670 C   0  0  0  0  0  3  0  0  0  0  0  0
  -21.3590   -4.9100   25.0610 C   0  0  0  0  0  0  0  0  0  0  0  0
  -21.7890   -4.2770   23.8820 C   0  0  0  0  0  3  0  0  0  0  0  0
  -21.9610   -5.0280   22.7050 C   0  0  0  0  0  0  0  0  0  0  0  0
  -22.3560   -4.4120   21.5660 F   0  0  0  0  0  0  0  0  0  0  0  0
  -21.1880   -4.1830   26.1910 F   0  0  0  0  0  0  0  0  0  0  0  0
  -23.2320  -13.6740   21.1550 C   0  0  0  0  0  0  0  0  0  0  0  0
  -22.5250  -13.0240   22.0720 N   0  0  0  0  0  0  0  0  0  0  0  0
  -22.8130  -14.7150   20.6480 O   0  0  0  0  0  0  0  0  0  0  0  0
  -22.8780  -12.1820   22.5020 H   0  0  0  0  0  0  0  0  0  0  0  0
  -21.6170  -13.3710   22.3470 H   0  0  0  0  0  0  0  0  0  0  0  0
  -25.8880  -15.2060   20.1880 N   0  0  0  0  0  2  0  0  0  0  0  0
  -25.1670  -15.8970   20.3640 H   0  0  0  0  0  0  0  0  0  0  0  0
  -26.7540  -15.6170   19.8640 H   0  0  0  0  0  0  0  0  0  0  0  0
  -29.5730  -22.3270   19.1350 C   0  0  0  0  0  3  0  0  0  0  0  0
  -28.5370  -23.4680   19.6600 C   0  0  0  0  0  3  0  0  0  0  0  0
  -28.9610  -25.3310   17.8500 C   0  0  0  0  0  1  0  0  0  0  0  0
  -28.9260  -25.0180   19.3560 C   0  0  0  0  0  3  0  0  0  0  0  0
  -28.5120  -26.2120   20.1740 O   0  0  0  0  0  0  0  0  0  0  0  0
  -24.5870  -31.5860   23.0000 C   0  0  0  0  0  0  0  0  0  0  0  0
  -27.3590  -27.0200   20.0490 C   0  0  0  0  0  0  0  0  0  0  0  0
  -23.4610  -30.1770   21.3120 C   0  0  0  0  0  3  0  0  0  0  0  0
  -24.9800  -28.6320   19.9430 C   0  0  0  0  0  0  0  0  0  0  0  0
  -26.0020  -30.5100   21.2290 C   0  0  0  0  0  2  0  0  0  0  0  0
  -26.1190  -29.1280   20.5840 C   0  0  0  0  0  0  0  0  0  0  0  0
  -27.3070  -28.3340   20.6230 C   0  0  0  0  0  3  0  0  0  0  0  0
  -26.1880  -26.5720   19.4020 C   0  0  0  0  0  3  0  0  0  0  0  0
  -25.0200  -27.3610   19.3410 C   0  0  0  0  0  3  0  0  0  0  0  0
  -23.7350  -29.5000   19.9410 C   0  0  0  0  0  2  0  0  0  0  0  0
  -24.7010  -30.7760   21.9040 N   0  0  0  0  0  0  0  0  0  0  0  0
  -23.4810  -31.8530   23.4940 O   0  0  0  0  0  0  0  0  0  0  0  0
  -22.7680  -29.1560   22.2480 C   0  0  0  0  0  0  0  0  0  0  0  0
  -21.4370  -29.0260   22.1250 N   0  0  0  0  0  0  0  0  0  0  0  0
  -23.4290  -28.4860   23.0460 O   0  0  0  0  0  0  0  0  0  0  0  0
  -20.9630  -29.6190   21.4570 H   0  0  0  0  0  0  0  0  0  0  0  0
  -18.0150  -27.9860   22.6740 C   0  0  0  0  0  0  0  0  0  0  0  0
  -20.5910  -28.0910   22.8700 C   0  0  0  0  0  3  0  0  0  0  0  0
  -20.5950  -26.6910   22.2140 C   0  0  0  0  0  2  0  0  0  0  0  0
  -19.4470  -26.4870   21.2210 C   0  0  0  0  0  2  0  0  0  0  0  0
  -18.0950  -26.6690   21.9190 C   0  0  0  0  0  2  0  0  0  0  0  0
  -19.1880  -28.6620   23.1060 C   0  0  0  0  0  0  0  0  0  0  0  0
  -19.0580  -29.9000   23.7730 C   0  0  0  0  0  3  0  0  0  0  0  0
  -17.7890  -30.4600   24.0110 C   0  0  0  0  0  3  0  0  0  0  0  0
  -16.6320  -29.7790   23.5930 C   0  0  0  0  0  3  0  0  0  0  0  0
  -16.7450  -28.5440   22.9310 C   0  0  0  0  0  3  0  0  0  0  0  0
  -25.8390  -32.2300   23.6730 C   0  0  0  0  0  3  0  0  0  0  0  0
  -25.4980  -33.6180   24.0150 N   0  0  0  0  0  0  0  0  0  0  0  0
  -25.8310  -34.6870   23.2800 C   0  0  0  0  0  0  0  0  0  0  0  0
  -26.5270  -34.6090   22.2630 O   0  0  0  0  0  0  0  0  0  0  0  0
  -24.8820  -33.7510   24.8030 H   0  0  0  0  0  0  0  0  0  0  0  0
  -24.0760  -36.4550   22.9140 C   0  0  0  0  0  1  0  0  0  0  0  0
  -25.3090  -36.0620   23.7440 C   0  0  0  0  0  3  0  0  0  0  0  0
  -27.4120  -36.9750   24.6240 C   0  0  0  0  0  1  0  0  0  0  0  0
  -26.3230  -37.1350   23.6630 N   0  0  0  0  0  0  0  0  0  0  0  0
  -25.8970  -38.0460   23.8160 H   0  0  0  0  0  0  0  0  0  0  0  0
  -26.3230  -31.4490   24.9570 C   0  0  1  0  0  0  0  0  0  0  0  0
  -25.1980  -31.1770   25.9830 C   0  0  0  0  0  1  0  0  0  0  0  0
  -26.9440  -30.0880   24.5690 C   0  0  0  0  0  1  0  0  0  0  0  0
  -27.4350  -32.2540   25.6710 C   0  0  0  0  0  1  0  0  0  0  0  0
  -27.7240  -17.6220   18.7090 O   0  0  0  0  0  0  0  0  0  0  0  0
  -28.1250  -16.9030   21.0680 C   0  0  0  0  0  1  0  0  0  0  0  0
  -25.8090  -17.4220   20.1910 C   0  0  0  0  0  1  0  0  0  0  0  0
  -27.0740  -15.4440   19.3310 C   0  0  0  0  0  2  0  0  0  0  0  0
  -27.2020  -16.8880   19.8300 C   0  0  1  0  0  0  0  0  0  0  0  0
  2  1  2  0
  2  7  1  0
  3  2  1  0
  4  3  2  0
  4  6  1  0
  5  4  1  0
  6  1  1  0
  7 16  1  0
  8 16  1  0
  8 14  1  0
  9 14  1  0
 10 11  1  0
 10  9  1  0
 12 11  1  0
 12 21  1  0
 12 13  1  0
 14 13  1  0
 15  8  2  0
 16 17  1  0
 18 19  2  0
 19 38  1  0
 20 19  1  0
 20 23  1  0
 21 22  1  0
 21 18  1  0
 22 20  2  0
 23 24  1  0
 24 25  2  0
 26 29  1  0
 26 25  1  0
 27 26  2  0
 28 27  1  0
 28 23  2  0
 29 30  1  0
 30 35  2  0
 30 31  1  0
 31 32  2  0
 33 32  1  0
 33 37  1  0
 34 33  2  0
 35 34  1  0
 36 35  1  0
 38 39  1  0
 39 42  1  0
 39 41  1  0
 40 38  2  0
 43 44  1  0
 43 18  1  0
 46  6  1  0
 46 47  2  0
 49 48  1  0
 49 47  1  0
 49 50  1  0
 51 62  2  0
 52 50  1  0
 52 57  1  0
 53 61  1  0
 53 63  1  0
 54 56  1  0
 55 61  1  0
 56 57  2  0
 56 55  1  0
 58 52  2  0
 59 58  1  0
 59 54  2  0
 60 54  1  0
 60 53  1  0
 61 51  1  0
 63 65  2  0
 64 63  1  0
 66 64  1  0
 67 76  2  0
 67 72  1  0
 68 64  1  0
 68 72  1  0
 69 68  1  0
 70 71  1  0
 70 69  1  0
 71 67  1  0
 72 73  2  0
 73 74  1  0
 75 74  2  0
 76 75  1  0
 77 51  1  0
 77 78  1  0
 77 87  1  0
 78 81  1  0
 79 83  1  0
 79 78  1  0
 80 79  2  0
 83 82  1  0
 85 83  1  0
 85 86  1  0
 85 84  1  0
 87 90  1  1
 87 88  1  0
 89 87  1  0
 91  3  1  0
 91 95  1  0
 94 95  1  0
 94 45  1  0
 95 93  1  1
 95 92  1  0
M  ISO  4   8 100  16 100  49 101  50 101
M  END
>  <TORSDO>  (10) 
F 22

>  <SCORE>  (10) 
-12.559

>  <name>  (10) 
9

>  <ligand_id>  (10) 
9

>  <original_smiles>  (10) 
[H]c1c([H])c([H])c2c(c1[H])C([H])([H])C([H])([H])C([H])([H])C2([H])N([H])C(=O)C1([H])N(C(=O)C([H])(N([H])C(=O)C([H])(N([H])C([H])([H])[H])C([H])([H])[H])C(C([H])([H])[H])(C([H])([H])[H])C([H])([H])[H])C([H])([H])c2c([H])c(OC([H])(C([H])([H])[H])C([H])([H])C([H])([H])n3c([H])c(C([H])([H])N([H])C(=O)N4C([H])([H])C([H])([H])C([H])([H])C([H])(n5nc(-c6c([H])c([H])c(Oc7c([H])c([H])c(F)c([H])c7F)c([H])c6[H])c(C(=O)N([H])[H])c5N([H])[H])C4([H])[H])c(OC(C([H])([H])[H])(C([H])([H])[H])C([H])([H])[H])c3C([H])([H])[H])c([H])c([H])c2C1([H])[H]

>  <smiles>  (10) 
[H]c1c([H])c([H])c2c(c1[H])C([H])([H])C([H])([H])C([H])([H])C2([H])N([H])C(=O)C1([H])N(C(=O)C([H])(N([H])C(=O)C([H])(N([H])C([H])([H])[H])C([H])([H])[H])C(C([H])([H])[H])(C([H])([H])[H])C([H])([H])[H])C([H])([H])c2c([H])c(OC([H])(C([H])([H])[H])C([H])([H])C([H])([H])n3c([H])c(C([H])([H])N([H])C(=O)N4C([H])([H])C([H])([H])C([H])([H])C([H])(n5nc(-c6c([H])c([H])c(Oc7c([H])c([H])c(F)c([H])c7F)c([H])c6[H])c(C(=O)N([H])[H])c5N([H])[H])C4([H])[H])c(OC(C([H])([H])[H])(C([H])([H])[H])C([H])([H])[H])c3C([H])([H])[H])c([H])c([H])c2C1([H])[H]

$$$$
11:0:0
     RDKit          3D

 97105  0  0  1  0  0  0  0  0999 V2000
  -28.7510  -20.2880   21.1070 C   0  0  0  0  0  3  0  0  0  0  0  0
  -29.3280  -19.2940   20.3610 C   0  0  0  0  0  0  0  0  0  0  0  0
  -30.0280  -19.9570   19.3020 C   0  0  0  0  0  0  0  0  0  0  0  0
  -29.7590  -21.3030   19.3880 C   0  0  0  0  0  0  0  0  0  0  0  0
  -28.9910  -21.5240   20.5300 N   0  0  0  0  0  0  0  0  0  0  0  0
  -31.5380  -22.9930   18.6660 C   0  0  0  0  0  1  0  0  0  0  0  0
  -30.1470  -22.3890   18.4260 C   0  0  0  0  0  2  0  0  0  0  0  0
  -29.1500  -17.7950   20.5940 C   0  0  0  0  0  2  0  0  0  0  0  0
  -30.4090  -16.9860   20.9830 C   0  0  0  0  0  2  0  0  0  0  0  0
  -30.8110  -14.5380   20.6260 C   0  0  0  0  0  0  0  0  0  0  0  0
  -30.5430  -12.3790   19.4740 C   0  0  0  0  0  2  0  0  0  0  0  0
  -29.6450  -12.5950   18.2380 C   0  0  0  0  0  2  0  0  0  0  0  0
  -28.1540  -12.4790   18.6110 C   0  0  0  0  0  2  0  0  0  0  0  0
  -27.7820  -13.3160   19.8650 C   0  0  0  0  0  3  0  0  0  0  0  0
  -28.7940  -13.0710   21.0080 C   0  0  0  0  0  2  0  0  0  0  0  0
  -30.1400  -13.3650   20.4890 N   0  0  0  0  0  0  0  0  0  0  0  0
  -31.9470  -14.7180   20.1780 O   0  0  0  0  0  0  0  0  0  0  0  0
  -30.0890  -15.5570   21.1220 N   0  0  0  0  0  0  0  0  0  0  0  0
  -29.1750  -15.3230   21.4790 H   0  0  0  0  0  0  0  0  0  0  0  0
  -25.3580  -13.9590   20.4520 C   0  0  0  0  0  0  0  0  0  0  0  0
  -24.2700  -13.2040   20.7930 C   0  0  0  0  0  0  0  0  0  0  0  0
  -24.7180  -11.8480   20.8140 C   0  0  0  0  0  0  0  0  0  0  0  0
  -26.4060  -13.0650   20.2890 N   0  0  0  0  0  0  0  0  0  0  0  0
  -26.0210  -11.7930   20.5630 N   0  0  0  0  0  0  0  0  0  0  0  0
  -23.9730  -10.5970   21.0040 C   0  0  0  0  0  0  0  0  0  0  0  0
  -24.3630   -9.6490   21.9760 C   0  0  0  0  0  3  0  0  0  0  0  0
  -23.6200   -8.4630   22.1580 C   0  0  0  0  0  3  0  0  0  0  0  0
  -22.4750   -8.2150   21.3650 C   0  0  0  0  0  0  0  0  0  0  0  0
  -22.1020   -9.1520   20.3860 C   0  0  0  0  0  3  0  0  0  0  0  0
  -22.8450  -10.3300   20.2030 C   0  0  0  0  0  3  0  0  0  0  0  0
  -21.7100   -7.0760   21.4490 O   0  0  0  0  0  0  0  0  0  0  0  0
  -21.6130   -6.3600   22.6160 C   0  0  0  0  0  0  0  0  0  0  0  0
  -21.1560   -6.9480   23.8170 C   0  0  0  0  0  3  0  0  0  0  0  0
  -21.0050   -6.1590   24.9740 C   0  0  0  0  0  3  0  0  0  0  0  0
  -21.2990   -4.7830   24.9340 C   0  0  0  0  0  0  0  0  0  0  0  0
  -21.7510   -4.1950   23.7390 C   0  0  0  0  0  3  0  0  0  0  0  0
  -21.9060   -4.9800   22.5830 C   0  0  0  0  0  0  0  0  0  0  0  0
  -22.3170   -4.4050   21.4280 F   0  0  0  0  0  0  0  0  0  0  0  0
  -21.1490   -4.0220   26.0430 F   0  0  0  0  0  0  0  0  0  0  0  0
  -22.8660  -13.6990   20.9950 C   0  0  0  0  0  0  0  0  0  0  0  0
  -22.1020  -13.0380   21.8560 N   0  0  0  0  0  0  0  0  0  0  0  0
  -22.4530  -14.7070   20.4210 O   0  0  0  0  0  0  0  0  0  0  0  0
  -22.4510  -12.2280   22.3430 H   0  0  0  0  0  0  0  0  0  0  0  0
  -21.1560  -13.3490   22.0300 H   0  0  0  0  0  0  0  0  0  0  0  0
  -25.5430  -15.3220   20.2460 N   0  0  0  0  0  0  0  0  0  0  0  0
  -24.7740  -15.9820   20.2950 H   0  0  0  0  0  0  0  0  0  0  0  0
  -26.4080  -15.7430   19.9300 H   0  0  0  0  0  0  0  0  0  0  0  0
  -30.8950  -19.3080   18.2440 C   0  0  0  0  0  2  0  0  0  0  0  0
  -29.7280  -19.6710   15.9920 C   0  0  0  0  0  1  0  0  0  0  0  0
  -30.9600  -17.5200   16.4610 C   0  0  0  0  0  1  0  0  0  0  0  0
  -30.1240  -18.6540   17.0760 C   0  0  0  0  0  3  0  0  0  0  0  0
  -28.3840  -22.7690   21.0360 C   0  0  0  0  0  2  0  0  0  0  0  0
  -29.2830  -24.0270   21.0860 C   0  0  0  0  0  2  0  0  0  0  0  0
  -29.0790  -24.9610   23.4380 C   0  0  0  0  0  1  0  0  0  0  0  0
  -28.6910  -25.1570   21.9620 C   0  0  0  0  0  3  0  0  0  0  0  0
  -29.0860  -26.5660   21.4600 C   0  0  0  0  0  2  0  0  0  0  0  0
  -28.4180  -26.8290   20.2240 O   0  0  0  0  0  0  0  0  0  0  0  0
  -24.5170  -31.9870   23.2530 C   0  0  0  0  0  0  0  0  0  0  0  0
  -27.2490  -27.5520   20.2760 C   0  0  0  0  0  0  0  0  0  0  0  0
  -23.3390  -30.5540   21.6110 C   0  0  0  0  0  3  0  0  0  0  0  0
  -24.8260  -29.0040   20.2340 C   0  0  0  0  0  0  0  0  0  0  0  0
  -25.8590  -30.9360   21.4410 C   0  0  0  0  0  2  0  0  0  0  0  0
  -25.9640  -29.5550   20.8350 C   0  0  0  0  0  0  0  0  0  0  0  0
  -27.1750  -28.8340   20.8650 C   0  0  0  0  0  3  0  0  0  0  0  0
  -26.1000  -27.0100   19.6640 C   0  0  0  0  0  3  0  0  0  0  0  0
  -24.8850  -27.7250   19.6530 C   0  0  0  0  0  3  0  0  0  0  0  0
  -23.5740  -29.8510   20.2460 C   0  0  0  0  0  2  0  0  0  0  0  0
  -24.5880  -31.1760   22.1610 N   0  0  0  0  0  0  0  0  0  0  0  0
  -23.4290  -32.2590   23.7790 O   0  0  0  0  0  0  0  0  0  0  0  0
  -22.6840  -29.5430   22.5770 C   0  0  0  0  0  0  0  0  0  0  0  0
  -21.3580  -29.3680   22.4490 N   0  0  0  0  0  0  0  0  0  0  0  0
  -23.3630  -28.9210   23.3990 O   0  0  0  0  0  0  0  0  0  0  0  0
  -20.8740  -29.9240   21.7600 H   0  0  0  0  0  0  0  0  0  0  0  0
  -17.9730  -28.2210   22.9590 C   0  0  0  0  0  0  0  0  0  0  0  0
  -20.5350  -28.4370   23.2200 C   0  0  0  0  0  3  0  0  0  0  0  0
  -20.6140  -27.0080   22.6350 C   0  0  0  0  0  2  0  0  0  0  0  0
  -19.5010  -26.7070   21.6260 C   0  0  0  0  0  2  0  0  0  0  0  0
  -18.1260  -26.8700   22.2790 C   0  0  0  0  0  2  0  0  0  0  0  0
  -19.1050  -28.9640   23.3870 C   0  0  0  0  0  0  0  0  0  0  0  0
  -18.9090  -30.2290   23.9810 C   0  0  0  0  0  3  0  0  0  0  0  0
  -17.6140  -30.7490   24.1540 C   0  0  0  0  0  3  0  0  0  0  0  0
  -16.4960  -30.0020   23.7470 C   0  0  0  0  0  3  0  0  0  0  0  0
  -16.6760  -28.7400   23.1550 C   0  0  0  0  0  3  0  0  0  0  0  0
  -25.7940  -32.6320   23.8790 C   0  0  0  0  0  3  0  0  0  0  0  0
  -26.3100  -31.8700   25.1610 C   0  0  1  0  0  0  0  0  0  0  0  0
  -25.2070  -31.6130   26.2150 C   0  0  0  0  0  1  0  0  0  0  0  0
  -26.9220  -30.5040   24.7750 C   0  0  0  0  0  1  0  0  0  0  0  0
  -27.4370  -32.6840   25.8380 C   0  0  0  0  0  1  0  0  0  0  0  0
  -25.4750  -34.0300   24.1960 N   0  0  0  0  0  0  0  0  0  0  0  0
  -25.8200  -35.0780   23.4370 C   0  0  0  0  0  0  0  0  0  0  0  0
  -26.5100  -34.9710   22.4190 O   0  0  0  0  0  0  0  0  0  0  0  0
  -24.8630  -34.1850   24.9830 H   0  0  0  0  0  0  0  0  0  0  0  0
  -24.0900  -36.8590   23.0360 C   0  0  0  0  0  1  0  0  0  0  0  0
  -25.3170  -36.4670   23.8760 C   0  0  0  0  0  3  0  0  0  0  0  0
  -27.4330  -37.3620   24.7430 C   0  0  0  0  0  1  0  0  0  0  0  0
  -26.3470  -37.5240   23.7790 N   0  0  0  0  0  0  0  0  0  0  0  0
  -25.9350  -38.4420   23.9160 H   0  0  0  0  0  0  0  0  0  0  0  0
  2  8  1  0
  2  1  2  0
  3  4  2  0
  3  2  1  0
  4  5  1  0
  5 52  1  0
  5  1  1  0
  7  6  1  0
  7  4  1  0
  8  9  1  0
  9 18  1  0
 10 18  1  0
 11 16  1  0
 12 13  1  0
 12 11  1  0
 14 13  1  0
 14 23  1  0
 14 15  1  0
 16 10  1  0
 16 15  1  0
 17 10  2  0
 18 19  1  0
 20 21  2  0
 21 22  1  0
 21 40  1  0
 22 25  1  0
 23 20  1  0
 23 24  1  0
 24 22  2  0
 25 26  1  0
 26 27  2  0
 28 31  1  0
 28 27  1  0
 29 28  2  0
 30 29  1  0
 30 25  2  0
 31 32  1  0
 32 33  1  0
 33 34  2  0
 35 34  1  0
 35 39  1  0
 36 35  2  0
 37 32  2  0
 37 36  1  0
 38 37  1  0
 40 41  1  0
 41 44  1  0
 41 43  1  0
 42 40  2  0
 45 46  1  0
 45 20  1  0
 47 45  1  0
 48  3  1  0
 49 51  1  0
 50 51  1  0
 51 48  1  0
 52 53  1  0
 53 55  1  0
 55 54  1  0
 56 55  1  0
 57 59  1  0
 57 56  1  0
 58 69  2  0
 59 64  1  0
 60 68  1  0
 60 70  1  0
 61 67  1  0
 61 63  1  0
 62 68  1  0
 63 64  2  0
 63 62  1  0
 65 59  2  0
 66 65  1  0
 66 61  2  0
 67 60  1  0
 68 58  1  0
 70 72  2  0
 71 70  1  0
 73 71  1  0
 74 83  2  0
 74 79  1  0
 75 71  1  0
 75 79  1  0
 76 75  1  0
 77 78  1  0
 77 76  1  0
 78 74  1  0
 79 80  2  0
 80 81  1  0
 82 81  2  0
 83 82  1  0
 84 58  1  0
 84 89  1  0
 84 85  1  0
 85 88  1  1
 85 86  1  0
 87 85  1  0
 89 92  1  0
 90 94  1  0
 90 89  1  0
 91 90  2  0
 94 93  1  0
 96 94  1  0
 96 97  1  0
 96 95  1  0
M  ISO  4  10 100  18 100  56 101  57 101
M  END
>  <TORSDO>  (11) 
F 25

>  <SCORE>  (11) 
-12.098

>  <name>  (11) 
11

>  <ligand_id>  (11) 
11

>  <original_smiles>  (11) 
[H]c1c([H])c([H])c2c(c1[H])C([H])([H])C([H])([H])C([H])([H])C2([H])N([H])C(=O)C1([H])N(C(=O)C([H])(N([H])C(=O)C([H])(N([H])C([H])([H])[H])C([H])([H])[H])C(C([H])([H])[H])(C([H])([H])[H])C([H])([H])[H])C([H])([H])c2c([H])c(OC([H])([H])C([H])(C([H])([H])[H])C([H])([H])C([H])([H])n3c([H])c(C([H])([H])C([H])([H])N([H])C(=O)N4C([H])([H])C([H])([H])C([H])([H])C([H])(n5nc(-c6c([H])c([H])c(Oc7c([H])c([H])c(F)c([H])c7F)c([H])c6[H])c(C(=O)N([H])[H])c5N([H])[H])C4([H])[H])c(C([H])([H])C([H])(C([H])([H])[H])C([H])([H])[H])c3C([H])([H])C([H])([H])[H])c([H])c([H])c2C1([H])[H]

>  <smiles>  (11) 
[H]c1c([H])c([H])c2c(c1[H])C([H])([H])C([H])([H])C([H])([H])C2([H])N([H])C(=O)C1([H])N(C(=O)C([H])(N([H])C(=O)C([H])(N([H])C([H])([H])[H])C([H])([H])[H])C(C([H])([H])[H])(C([H])([H])[H])C([H])([H])[H])C([H])([H])c2c([H])c(OC([H])([H])C([H])(C([H])([H])[H])C([H])([H])C([H])([H])n3c([H])c(C([H])([H])C([H])([H])N([H])C(=O)N4C([H])([H])C([H])([H])C([H])([H])C([H])(n5nc(-c6c([H])c([H])c(Oc7c([H])c([H])c(F)c([H])c7F)c([H])c6[H])c(C(=O)N([H])[H])c5N([H])[H])C4([H])[H])c(C([H])([H])C([H])(C([H])([H])[H])C([H])([H])[H])c3C([H])([H])C([H])([H])[H])c([H])c([H])c2C1([H])[H]

$$$$
12:0:0
     RDKit          3D

 93101  0  0  1  0  0  0  0  0999 V2000
  -29.1350  -21.1890   19.3120 C   0  0  0  0  0  3  0  0  0  0  0  0
  -29.8840  -20.4750   21.2680 C   0  0  0  0  0  3  0  0  0  0  0  0
  -29.2720  -21.5530   20.6770 C   0  0  0  0  0  0  0  0  0  0  0  0
  -29.6220  -19.9220   19.1270 C   0  0  0  0  0  0  0  0  0  0  0  0
  -29.6720  -19.1780   17.8340 C   0  0  0  0  0  1  0  0  0  0  0  0
  -30.0380  -19.4130   20.3680 N   0  0  0  0  0  0  0  0  0  0  0  0
  -32.1490  -18.1290   20.3970 C   0  0  0  0  0  1  0  0  0  0  0  0
  -30.4600  -17.7890   22.2230 C   0  0  0  0  0  1  0  0  0  0  0  0
  -30.6380  -18.0720   20.7110 C   0  0  1  0  0  0  0  0  0  0  0  0
  -29.9570  -16.8820   19.9370 C   0  0  0  0  0  2  0  0  0  0  0  0
  -30.7950  -14.4990   20.1850 C   0  0  0  0  0  0  0  0  0  0  0  0
  -30.4950  -12.2910   19.1290 C   0  0  0  0  0  2  0  0  0  0  0  0
  -29.5390  -12.5160   17.9380 C   0  0  0  0  0  2  0  0  0  0  0  0
  -28.0670  -12.4050   18.3880 C   0  0  0  0  0  2  0  0  0  0  0  0
  -27.7680  -13.2340   19.6660 C   0  0  0  0  0  3  0  0  0  0  0  0
  -28.8490  -12.9930   20.7510 C   0  0  0  0  0  2  0  0  0  0  0  0
  -30.1630  -13.2920   20.1560 N   0  0  0  0  0  0  0  0  0  0  0  0
  -31.9120  -14.6890   19.6960 O   0  0  0  0  0  0  0  0  0  0  0  0
  -29.9970  -15.5260   20.5400 N   0  0  0  0  0  0  0  0  0  0  0  0
  -29.1430  -15.2450   20.9960 H   0  0  0  0  0  0  0  0  0  0  0  0
  -25.3960  -13.8810   20.4200 C   0  0  0  0  0  0  0  0  0  0  0  0
  -24.3220  -13.1290   20.8090 C   0  0  0  0  0  0  0  0  0  0  0  0
  -24.7560  -11.7680   20.7670 C   0  0  0  0  0  0  0  0  0  0  0  0
  -26.4200  -12.9820   20.1710 N   0  0  0  0  0  0  0  0  0  0  0  0
  -26.0380  -11.7060   20.4330 N   0  0  0  0  0  0  0  0  0  0  0  0
  -24.0080  -10.5200   20.9720 C   0  0  0  0  0  0  0  0  0  0  0  0
  -24.4480   -9.5480   21.9000 C   0  0  0  0  0  3  0  0  0  0  0  0
  -23.7120   -8.3610   22.0980 C   0  0  0  0  0  3  0  0  0  0  0  0
  -22.5220   -8.1350   21.3670 C   0  0  0  0  0  0  0  0  0  0  0  0
  -22.0990   -9.0930   20.4290 C   0  0  0  0  0  3  0  0  0  0  0  0
  -22.8350  -10.2720   20.2300 C   0  0  0  0  0  3  0  0  0  0  0  0
  -21.7580   -6.9980   21.4720 O   0  0  0  0  0  0  0  0  0  0  0  0
  -21.7200   -6.2580   22.6270 C   0  0  0  0  0  0  0  0  0  0  0  0
  -21.3240   -6.8210   23.8590 C   0  0  0  0  0  3  0  0  0  0  0  0
  -21.2340   -6.0110   25.0070 C   0  0  0  0  0  3  0  0  0  0  0  0
  -21.5290   -4.6370   24.9230 C   0  0  0  0  0  0  0  0  0  0  0  0
  -21.9180   -4.0720   23.6960 C   0  0  0  0  0  3  0  0  0  0  0  0
  -22.0110   -4.8820   22.5500 C   0  0  0  0  0  0  0  0  0  0  0  0
  -22.3670   -4.3300   21.3650 F   0  0  0  0  0  0  0  0  0  0  0  0
  -21.4350   -3.8550   26.0230 F   0  0  0  0  0  0  0  0  0  0  0  0
  -22.9380  -13.6280   21.1100 C   0  0  0  0  0  0  0  0  0  0  0  0
  -22.2210  -12.9410   21.9910 N   0  0  0  0  0  0  0  0  0  0  0  0
  -22.5010  -14.6590   20.5970 O   0  0  0  0  0  0  0  0  0  0  0  0
  -22.5880  -12.1070   22.4260 H   0  0  0  0  0  0  0  0  0  0  0  0
  -21.2900  -13.2470   22.2350 H   0  0  0  0  0  0  0  0  0  0  0  0
  -25.5890  -15.2500   20.2340 N   0  0  0  0  0  0  0  0  0  0  0  0
  -24.8370  -15.9230   20.3310 H   0  0  0  0  0  0  0  0  0  0  0  0
  -26.4360  -15.6510   19.8510 H   0  0  0  0  0  0  0  0  0  0  0  0
  -27.2400  -22.7380   21.5360 C   0  0  0  0  0  1  0  0  0  0  0  0
  -28.7680  -22.8160   21.3880 C   0  0  0  0  0  3  0  0  0  0  0  0
  -29.3170  -24.2210   20.9280 C   0  0  0  0  0  2  0  0  0  0  0  0
  -28.4400  -25.1050   19.9770 C   0  0  0  0  0  2  0  0  0  0  0  0
  -28.4960  -26.5360   20.2750 O   0  0  0  0  0  0  0  0  0  0  0  0
  -24.5600  -31.7860   23.1930 C   0  0  0  0  0  0  0  0  0  0  0  0
  -27.3330  -27.3060   20.1970 C   0  0  0  0  0  0  0  0  0  0  0  0
  -23.4140  -30.3680   21.5210 C   0  0  0  0  0  3  0  0  0  0  0  0
  -24.9290  -28.8370   20.1420 C   0  0  0  0  0  0  0  0  0  0  0  0
  -25.9510  -30.7250   21.4190 C   0  0  0  0  0  2  0  0  0  0  0  0
  -26.0670  -29.3510   20.7780 C   0  0  0  0  0  0  0  0  0  0  0  0
  -27.2680  -28.5880   20.8120 C   0  0  0  0  0  3  0  0  0  0  0  0
  -26.1830  -26.8510   19.5110 C   0  0  0  0  0  3  0  0  0  0  0  0
  -24.9850  -27.5880   19.5080 C   0  0  0  0  0  3  0  0  0  0  0  0
  -23.6740  -29.6820   20.1530 C   0  0  0  0  0  2  0  0  0  0  0  0
  -24.6560  -30.9790   22.0990 N   0  0  0  0  0  0  0  0  0  0  0  0
  -23.4620  -32.0550   23.7030 O   0  0  0  0  0  0  0  0  0  0  0  0
  -22.7420  -29.3470   22.4700 C   0  0  0  0  0  0  0  0  0  0  0  0
  -21.4210  -29.1590   22.3160 N   0  0  0  0  0  0  0  0  0  0  0  0
  -23.4100  -28.7270   23.3000 O   0  0  0  0  0  0  0  0  0  0  0  0
  -20.9480  -29.7020   21.6080 H   0  0  0  0  0  0  0  0  0  0  0  0
  -18.0430  -27.9490   22.7590 C   0  0  0  0  0  0  0  0  0  0  0  0
  -20.5930  -28.2210   23.0760 C   0  0  0  0  0  3  0  0  0  0  0  0
  -20.7160  -26.7900   22.5100 C   0  0  0  0  0  2  0  0  0  0  0  0
  -19.6330  -26.4570   21.4780 C   0  0  0  0  0  2  0  0  0  0  0  0
  -18.2370  -26.5970   22.0920 C   0  0  0  0  0  2  0  0  0  0  0  0
  -19.1500  -28.7180   23.2070 C   0  0  0  0  0  0  0  0  0  0  0  0
  -18.9160  -29.9810   23.7920 C   0  0  0  0  0  3  0  0  0  0  0  0
  -17.6070  -30.4760   23.9350 C   0  0  0  0  0  3  0  0  0  0  0  0
  -16.5130  -29.7060   23.5020 C   0  0  0  0  0  3  0  0  0  0  0  0
  -16.7320  -28.4460   22.9160 C   0  0  0  0  0  3  0  0  0  0  0  0
  -25.8250  -32.4310   23.8370 C   0  0  0  0  0  3  0  0  0  0  0  0
  -25.4900  -33.8240   24.1630 N   0  0  0  0  0  0  0  0  0  0  0  0
  -25.8210  -34.8850   23.4130 C   0  0  0  0  0  0  0  0  0  0  0  0
  -26.5100  -34.7950   22.3930 O   0  0  0  0  0  0  0  0  0  0  0  0
  -24.8790  -33.9640   24.9540 H   0  0  0  0  0  0  0  0  0  0  0  0
  -24.0700  -36.6530   23.0380 C   0  0  0  0  0  1  0  0  0  0  0  0
  -25.3040  -36.2630   23.8660 C   0  0  0  0  0  3  0  0  0  0  0  0
  -27.4070  -37.1830   24.7360 C   0  0  0  0  0  1  0  0  0  0  0  0
  -26.3200  -37.3330   23.7730 N   0  0  0  0  0  0  0  0  0  0  0  0
  -25.8940  -38.2460   23.9160 H   0  0  0  0  0  0  0  0  0  0  0  0
  -26.3320  -31.6660   25.1220 C   0  0  1  0  0  0  0  0  0  0  0  0
  -25.2190  -31.4120   26.1650 C   0  0  0  0  0  1  0  0  0  0  0  0
  -26.9530  -30.2970   24.7570 C   0  0  0  0  0  1  0  0  0  0  0  0
  -27.4560  -32.4800   25.8070 C   0  0  0  0  0  1  0  0  0  0  0  0
  1  3  1  0
  3  2  2  0
  3 50  1  0
  4  1  2  0
  4  6  1  0
  5  4  1  0
  6  9  1  0
  6  2  1  0
  9  7  1  1
  9  8  1  0
 10 19  1  0
 10  9  1  0
 11 19  1  0
 12 17  1  0
 13 14  1  0
 13 12  1  0
 15 14  1  0
 15 24  1  0
 15 16  1  0
 17 11  1  0
 17 16  1  0
 18 11  2  0
 19 20  1  0
 21 22  2  0
 22 41  1  0
 23 22  1  0
 23 26  1  0
 24 21  1  0
 24 25  1  0
 25 23  2  0
 26 27  1  0
 27 28  2  0
 29 32  1  0
 29 28  1  0
 30 29  2  0
 31 30  1  0
 31 26  2  0
 32 33  1  0
 33 34  1  0
 34 35  2  0
 36 35  1  0
 36 40  1  0
 37 36  2  0
 38 33  2  0
 38 37  1  0
 39 38  1  0
 41 42  1  0
 42 45  1  0
 42 44  1  0
 43 41  2  0
 46 47  1  0
 46 21  1  0
 48 46  1  0
 50 49  1  0
 51 50  1  0
 52 53  1  0
 52 51  1  0
 54 65  2  0
 55 53  1  0
 55 60  1  0
 56 64  1  0
 56 66  1  0
 57 63  1  0
 57 59  1  0
 58 64  1  0
 59 60  2  0
 59 58  1  0
 61 55  2  0
 62 61  1  0
 62 57  2  0
 63 56  1  0
 64 54  1  0
 66 68  2  0
 67 66  1  0
 69 67  1  0
 70 79  2  0
 70 75  1  0
 71 67  1  0
 71 75  1  0
 72 71  1  0
 73 74  1  0
 73 72  1  0
 74 70  1  0
 75 76  2  0
 76 77  1  0
 78 77  2  0
 79 78  1  0
 80 54  1  0
 80 81  1  0
 80 90  1  0
 81 84  1  0
 82 86  1  0
 82 81  1  0
 83 82  2  0
 86 85  1  0
 88 86  1  0
 88 89  1  0
 88 87  1  0
 90 93  1  1
 90 91  1  0
 92 90  1  0
M  ISO  4  11 100  19 100  52 101  53 101
M  END
>  <TORSDO>  (12) 
F 21

>  <SCORE>  (12) 
-13.635

>  <name>  (12) 
12

>  <ligand_id>  (12) 
12

>  <original_smiles>  (12) 
[H]c1c([H])c([H])c2c(c1[H])C([H])([H])C([H])([H])C([H])([H])C2([H])N([H])C(=O)C1([H])N(C(=O)C([H])(N([H])C(=O)C([H])(N([H])C([H])([H])[H])C([H])([H])[H])C(C([H])([H])[H])(C([H])([H])[H])C([H])([H])[H])C([H])([H])c2c([H])c(OC([H])([H])C([H])([H])C([H])(c3c([H])c(C([H])([H])[H])n(C(C([H])([H])[H])(C([H])([H])[H])C([H])([H])N([H])C(=O)N4C([H])([H])C([H])([H])C([H])([H])C([H])(n5nc(-c6c([H])c([H])c(Oc7c([H])c([H])c(F)c([H])c7F)c([H])c6[H])c(C(=O)N([H])[H])c5N([H])[H])C4([H])[H])c3[H])C([H])([H])[H])c([H])c([H])c2C1([H])[H]

>  <smiles>  (12) 
[H]c1c([H])c([H])c2c(c1[H])C([H])([H])C([H])([H])C([H])([H])C2([H])N([H])C(=O)C1([H])N(C(=O)C([H])(N([H])C(=O)C([H])(N([H])C([H])([H])[H])C([H])([H])[H])C(C([H])([H])[H])(C([H])([H])[H])C([H])([H])[H])C([H])([H])c2c([H])c(OC([H])([H])C([H])([H])C([H])(c3c([H])c(C([H])([H])[H])n(C(C([H])([H])[H])(C([H])([H])[H])C([H])([H])N([H])C(=O)N4C([H])([H])C([H])([H])C([H])([H])C([H])(n5nc(-c6c([H])c([H])c(Oc7c([H])c([H])c(F)c([H])c7F)c([H])c6[H])c(C(=O)N([H])[H])c5N([H])[H])C4([H])[H])c3[H])C([H])([H])[H])c([H])c([H])c2C1([H])[H]

$$$$
13:0:0
     RDKit          3D

 95104  0  0  1  0  0  0  0  0999 V2000
  -28.8780  -20.1120   17.8050 C   0  0  0  0  0  2  0  0  0  0  0  0
  -27.9850  -20.4310   18.8610 C   0  0  0  0  0  3  0  0  0  0  0  0
  -30.1130  -20.4900   18.2850 C   0  0  0  0  0  3  0  0  0  0  0  0
  -28.8040  -20.1120   19.9130 C   0  0  0  0  0  3  0  0  0  0  0  0
  -31.3280  -20.8400   17.4890 C   0  0  0  0  0  1  0  0  0  0  0  0
  -29.8270  -21.0320   19.5410 N   0  0  0  0  0  0  0  0  0  0  0  0
  -24.5530  -21.9920   18.1740 C   0  0  0  0  0  2  0  0  0  0  0  0
  -25.4910  -23.0970   17.6390 C   0  0  0  0  0  2  0  0  0  0  0  0
  -25.4260  -20.7350   18.3840 C   0  0  0  0  0  2  0  0  0  0  0  0
  -26.8960  -22.5100   17.7800 C   0  0  0  0  0  2  0  0  0  0  0  0
  -26.7650  -21.3510   18.7880 C   0  0  0  0  0  3  0  0  0  0  0  0
  -28.9910  -18.6070   20.4510 C   0  0  0  0  0  2  0  0  0  0  0  0
  -30.1200  -17.4950   19.9940 C   0  0  0  0  0  2  0  0  0  0  0  0
  -30.7280  -14.8480   20.0220 C   0  0  0  0  0  0  0  0  0  0  0  0
  -30.5120  -12.5860   18.9610 C   0  0  0  0  0  2  0  0  0  0  0  0
  -29.5210  -12.6820   17.7810 C   0  0  0  0  0  2  0  0  0  0  0  0
  -28.0690  -12.4970   18.2610 C   0  0  0  0  0  2  0  0  0  0  0  0
  -27.7530  -13.3270   19.5370 C   0  0  0  0  0  3  0  0  0  0  0  0
  -28.8600  -13.2190   20.6000 C   0  0  0  0  0  2  0  0  0  0  0  0
  -30.1170  -13.6090   19.9590 N   0  0  0  0  0  0  0  0  0  0  0  0
  -31.9120  -14.9540   19.6940 O   0  0  0  0  0  0  0  0  0  0  0  0
  -29.9080  -15.9730   20.2420 N   0  0  0  0  0  0  0  0  0  0  0  0
  -28.9720  -15.7290   20.5060 H   0  0  0  0  0  0  0  0  0  0  0  0
  -25.4100  -13.9050   20.4010 C   0  0  0  0  0  0  0  0  0  0  0  0
  -24.3640  -13.1220   20.8110 C   0  0  0  0  0  0  0  0  0  0  0  0
  -24.8230  -11.7710   20.7390 C   0  0  0  0  0  0  0  0  0  0  0  0
  -26.4370  -13.0280   20.0890 N   0  0  0  0  0  0  0  0  0  0  0  0
  -26.0930  -11.7400   20.3560 N   0  0  0  0  0  0  0  0  0  0  0  0
  -24.1030  -10.5070   20.9390 C   0  0  0  0  0  0  0  0  0  0  0  0
  -24.5350   -9.5470   21.8780 C   0  0  0  0  0  3  0  0  0  0  0  0
  -23.8080   -8.3510   22.0650 C   0  0  0  0  0  3  0  0  0  0  0  0
  -22.6380   -8.1060   21.3080 C   0  0  0  0  0  0  0  0  0  0  0  0
  -22.2290   -9.0550   20.3530 C   0  0  0  0  0  3  0  0  0  0  0  0
  -22.9580  -10.2400   20.1660 C   0  0  0  0  0  3  0  0  0  0  0  0
  -21.8880   -6.9580   21.4030 O   0  0  0  0  0  0  0  0  0  0  0  0
  -21.8020   -6.2480   22.5730 C   0  0  0  0  0  0  0  0  0  0  0  0
  -21.2780   -6.8220   23.7530 C   0  0  0  0  0  3  0  0  0  0  0  0
  -21.1390   -6.0380   24.9170 C   0  0  0  0  0  3  0  0  0  0  0  0
  -21.5170   -4.6820   24.9000 C   0  0  0  0  0  0  0  0  0  0  0  0
  -22.0300   -4.1070   23.7260 C   0  0  0  0  0  3  0  0  0  0  0  0
  -22.1680   -4.8870   22.5650 C   0  0  0  0  0  0  0  0  0  0  0  0
  -22.6460   -4.3260   21.4280 F   0  0  0  0  0  0  0  0  0  0  0  0
  -21.3750   -3.9250   26.0140 F   0  0  0  0  0  0  0  0  0  0  0  0
  -22.9840  -13.5950   21.1550 C   0  0  0  0  0  0  0  0  0  0  0  0
  -22.2870  -12.8920   22.0410 N   0  0  0  0  0  0  0  0  0  0  0  0
  -22.5290  -14.6350   20.6780 O   0  0  0  0  0  0  0  0  0  0  0  0
  -22.6670  -12.0520   22.4610 H   0  0  0  0  0  0  0  0  0  0  0  0
  -21.3550  -13.1960   22.2960 H   0  0  0  0  0  0  0  0  0  0  0  0
  -25.5700  -15.2800   20.2380 N   0  0  0  0  0  0  0  0  0  0  0  0
  -24.8010  -15.9280   20.3650 H   0  0  0  0  0  0  0  0  0  0  0  0
  -26.3770  -15.7120   19.8170 H   0  0  0  0  0  0  0  0  0  0  0  0
  -30.0120  -22.5700   19.6120 C   0  0  0  0  0  2  0  0  0  0  0  0
  -29.2620  -23.6210   20.5820 C   0  0  0  0  0  2  0  0  0  0  0  0
  -28.5590  -24.9330   19.9220 C   0  0  0  0  0  2  0  0  0  0  0  0
  -28.6090  -26.3580   20.4210 O   0  0  0  0  0  0  0  0  0  0  0  0
  -24.7210  -31.8220   23.2480 C   0  0  0  0  0  0  0  0  0  0  0  0
  -27.5000  -27.2380   20.2810 C   0  0  0  0  0  0  0  0  0  0  0  0
  -23.5950  -30.3960   21.5790 C   0  0  0  0  0  3  0  0  0  0  0  0
  -25.1200  -28.8600   20.2040 C   0  0  0  0  0  0  0  0  0  0  0  0
  -26.1460  -30.7340   21.4950 C   0  0  0  0  0  2  0  0  0  0  0  0
  -26.2650  -29.3550   20.8410 C   0  0  0  0  0  0  0  0  0  0  0  0
  -27.4570  -28.5550   20.8680 C   0  0  0  0  0  3  0  0  0  0  0  0
  -26.3280  -26.8300   19.5970 C   0  0  0  0  0  3  0  0  0  0  0  0
  -25.1510  -27.6050   19.5850 C   0  0  0  0  0  3  0  0  0  0  0  0
  -23.8670  -29.7150   20.2110 C   0  0  0  0  0  2  0  0  0  0  0  0
  -24.8370  -31.0020   22.1600 N   0  0  0  0  0  0  0  0  0  0  0  0
  -23.6130  -32.0940   23.7340 O   0  0  0  0  0  0  0  0  0  0  0  0
  -22.9050  -29.3800   22.5170 C   0  0  0  0  0  0  0  0  0  0  0  0
  -21.5840  -29.1960   22.3450 N   0  0  0  0  0  0  0  0  0  0  0  0
  -23.5680  -28.7550   23.3550 O   0  0  0  0  0  0  0  0  0  0  0  0
  -21.1100  -29.7540   21.6450 H   0  0  0  0  0  0  0  0  0  0  0  0
  -18.1920  -28.0000   22.7510 C   0  0  0  0  0  0  0  0  0  0  0  0
  -20.7460  -28.2520   23.0870 C   0  0  0  0  0  3  0  0  0  0  0  0
  -20.8530  -26.8230   22.5000 C   0  0  0  0  0  2  0  0  0  0  0  0
  -19.7730  -26.5140   21.4560 C   0  0  0  0  0  2  0  0  0  0  0  0
  -18.3810  -26.6570   22.0690 C   0  0  0  0  0  2  0  0  0  0  0  0
  -19.3030  -28.7570   23.2160 C   0  0  0  0  0  0  0  0  0  0  0  0
  -19.0720  -30.0180   23.8050 C   0  0  0  0  0  3  0  0  0  0  0  0
  -17.7640  -30.5230   23.9390 C   0  0  0  0  0  3  0  0  0  0  0  0
  -16.6670  -29.7630   23.4930 C   0  0  0  0  0  3  0  0  0  0  0  0
  -16.8850  -28.5030   22.9090 C   0  0  0  0  0  3  0  0  0  0  0  0
  -25.9740  -32.4680   23.9180 C   0  0  0  0  0  3  0  0  0  0  0  0
  -25.6290  -33.8620   24.2320 N   0  0  0  0  0  0  0  0  0  0  0  0
  -25.9620  -34.9200   23.4750 C   0  0  0  0  0  0  0  0  0  0  0  0
  -26.6480  -34.8190   22.4560 O   0  0  0  0  0  0  0  0  0  0  0  0
  -25.0150  -34.0100   25.0180 H   0  0  0  0  0  0  0  0  0  0  0  0
  -24.2070  -36.6780   23.0750 C   0  0  0  0  0  1  0  0  0  0  0  0
  -25.4410  -36.3040   23.9110 C   0  0  0  0  0  3  0  0  0  0  0  0
  -27.5410  -37.2380   24.7710 C   0  0  0  0  0  1  0  0  0  0  0  0
  -26.4570  -37.3740   23.8030 N   0  0  0  0  0  0  0  0  0  0  0  0
  -26.0310  -38.2890   23.9190 H   0  0  0  0  0  0  0  0  0  0  0  0
  -26.4450  -31.7050   25.2140 C   0  0  1  0  0  0  0  0  0  0  0  0
  -25.3160  -31.4450   26.2390 C   0  0  0  0  0  1  0  0  0  0  0  0
  -27.0640  -30.3330   24.8500 C   0  0  0  0  0  1  0  0  0  0  0  0
  -27.5530  -32.5200   25.9170 C   0  0  0  0  0  1  0  0  0  0  0  0
  1  3  1  0
  1  2  1  0
  2 11  1  0
  2  4  1  0
  3  5  1  0
  3  6  1  0
  4 12  1  0
  6 52  1  0
  6  4  1  0
  7  9  1  0
  8 10  1  0
  8  7  1  0
  9 11  1  0
 10 11  1  0
 13 22  1  0
 13 12  1  0
 14 22  1  0
 15 20  1  0
 16 17  1  0
 16 15  1  0
 18 17  1  0
 18 27  1  0
 18 19  1  0
 20 14  1  0
 20 19  1  0
 21 14  2  0
 22 23  1  0
 24 25  2  0
 25 44  1  0
 26 25  1  0
 26 29  1  0
 27 28  1  0
 27 24  1  0
 28 26  2  0
 29 30  1  0
 30 31  2  0
 32 35  1  0
 32 31  1  0
 33 32  2  0
 34 33  1  0
 34 29  2  0
 35 36  1  0
 36 37  1  0
 37 38  2  0
 39 38  1  0
 39 43  1  0
 40 39  2  0
 41 36  2  0
 41 40  1  0
 42 41  1  0
 44 45  1  0
 45 48  1  0
 45 47  1  0
 46 44  2  0
 49 50  1  0
 49 24  1  0
 51 49  1  0
 52 53  1  0
 54 55  1  0
 54 53  1  0
 56 67  2  0
 57 55  1  0
 57 62  1  0
 58 66  1  0
 58 68  1  0
 59 65  1  0
 59 61  1  0
 60 66  1  0
 61 62  2  0
 61 60  1  0
 63 57  2  0
 64 63  1  0
 64 59  2  0
 65 58  1  0
 66 56  1  0
 68 70  2  0
 69 68  1  0
 71 69  1  0
 72 81  2  0
 72 77  1  0
 73 69  1  0
 73 77  1  0
 74 73  1  0
 75 76  1  0
 75 74  1  0
 76 72  1  0
 77 78  2  0
 78 79  1  0
 80 79  2  0
 81 80  1  0
 82 56  1  0
 82 83  1  0
 82 92  1  0
 83 86  1  0
 84 88  1  0
 84 83  1  0
 85 84  2  0
 88 87  1  0
 90 88  1  0
 90 91  1  0
 90 89  1  0
 92 95  1  1
 92 93  1  0
 94 92  1  0
M  ISO  4  14 100  22 100  54 101  55 101
M  END
>  <TORSDO>  (13) 
F 22

>  <SCORE>  (13) 
-12.932

>  <name>  (13) 
13

>  <ligand_id>  (13) 
13

>  <original_smiles>  (13) 
[H]c1c([H])c([H])c2c(c1[H])C([H])([H])C([H])([H])C([H])([H])C2([H])N([H])C(=O)C1([H])N(C(=O)C([H])(N([H])C(=O)C([H])(N([H])C([H])([H])[H])C([H])([H])[H])C(C([H])([H])[H])(C([H])([H])[H])C([H])([H])[H])C([H])([H])c2c([H])c(OC([H])([H])C([H])([H])C([H])([H])n3c(C([H])([H])[H])c([H])c(C4([H])C([H])([H])C([H])([H])C([H])([H])C4([H])[H])c3C([H])([H])C([H])([H])N([H])C(=O)N3C([H])([H])C([H])([H])C([H])([H])C([H])(n4nc(-c5c([H])c([H])c(Oc6c([H])c([H])c(F)c([H])c6F)c([H])c5[H])c(C(=O)N([H])[H])c4N([H])[H])C3([H])[H])c([H])c([H])c2C1([H])[H]

>  <smiles>  (13) 
[H]c1c([H])c([H])c2c(c1[H])C([H])([H])C([H])([H])C([H])([H])C2([H])N([H])C(=O)C1([H])N(C(=O)C([H])(N([H])C(=O)C([H])(N([H])C([H])([H])[H])C([H])([H])[H])C(C([H])([H])[H])(C([H])([H])[H])C([H])([H])[H])C([H])([H])c2c([H])c(OC([H])([H])C([H])([H])C([H])([H])n3c(C([H])([H])[H])c([H])c(C4([H])C([H])([H])C([H])([H])C([H])([H])C4([H])[H])c3C([H])([H])C([H])([H])N([H])C(=O)N3C([H])([H])C([H])([H])C([H])([H])C([H])(n4nc(-c5c([H])c([H])c(Oc6c([H])c([H])c(F)c([H])c6F)c([H])c5[H])c(C(=O)N([H])[H])c4N([H])[H])C3([H])[H])c([H])c([H])c2C1([H])[H]

$$$$
14:0:0
     RDKit          3D

 94102  0  0  1  0  0  0  0  0999 V2000
  -28.4010  -21.5170   18.9000 C   0  0  0  0  0  3  0  0  0  0  0  0
  -29.4320  -20.6190   20.8520 C   0  0  0  0  0  3  0  0  0  0  0  0
  -28.9230  -21.8390   20.1700 C   0  0  0  0  0  0  0  0  0  0  0  0
  -28.4260  -20.1870   18.3950 C   0  0  0  0  0  0  0  0  0  0  0  0
  -29.4260  -19.2420   20.2950 C   0  0  0  0  0  0  0  0  0  0  0  0
  -28.9130  -19.1000   19.0560 N   0  0  0  0  0  0  0  0  0  0  0  0
  -26.7530  -18.9820   16.9030 C   0  0  0  0  0  1  0  0  0  0  0  0
  -29.1330  -19.4310   16.0890 C   0  0  0  0  0  1  0  0  0  0  0  0
  -27.9670  -19.9230   16.9630 C   0  0  0  0  0  3  0  0  0  0  0  0
  -31.6870  -18.1590   20.7720 C   0  0  0  0  0  1  0  0  0  0  0  0
  -30.1770  -17.8950   20.9030 C   0  0  0  0  0  3  0  0  0  0  0  0
  -30.6060  -15.1600   20.4230 C   0  0  0  0  0  0  0  0  0  0  0  0
  -30.5050  -12.8230   19.4230 C   0  0  0  0  0  2  0  0  0  0  0  0
  -29.5720  -12.7770   18.1930 C   0  0  0  0  0  2  0  0  0  0  0  0
  -28.1190  -12.5170   18.6330 C   0  0  0  0  0  2  0  0  0  0  0  0
  -27.6940  -13.4130   19.8270 C   0  0  0  0  0  3  0  0  0  0  0  0
  -28.7560  -13.4470   20.9460 C   0  0  0  0  0  2  0  0  0  0  0  0
  -30.0070  -13.9010   20.3260 N   0  0  0  0  0  0  0  0  0  0  0  0
  -31.8170  -15.1950   20.1860 O   0  0  0  0  0  0  0  0  0  0  0  0
  -29.8450  -16.3610   20.5940 N   0  0  0  0  0  0  0  0  0  0  0  0
  -28.8510  -16.1900   20.6270 H   0  0  0  0  0  0  0  0  0  0  0  0
  -25.3080  -13.9210   20.5960 C   0  0  0  0  0  0  0  0  0  0  0  0
  -24.2650  -13.1160   20.9600 C   0  0  0  0  0  0  0  0  0  0  0  0
  -24.7600  -11.7770   20.9070 C   0  0  0  0  0  0  0  0  0  0  0  0
  -26.3690  -13.0720   20.3330 N   0  0  0  0  0  0  0  0  0  0  0  0
  -26.0500  -11.7750   20.5870 N   0  0  0  0  0  0  0  0  0  0  0  0
  -24.0620  -10.4950   21.0790 C   0  0  0  0  0  0  0  0  0  0  0  0
  -24.5010   -9.5350   22.0180 C   0  0  0  0  0  3  0  0  0  0  0  0
  -23.8000   -8.3210   22.1810 C   0  0  0  0  0  3  0  0  0  0  0  0
  -22.6480   -8.0580   21.4030 C   0  0  0  0  0  0  0  0  0  0  0  0
  -22.2280   -9.0080   20.4560 C   0  0  0  0  0  3  0  0  0  0  0  0
  -22.9290  -10.2130   20.2910 C   0  0  0  0  0  3  0  0  0  0  0  0
  -21.9190   -6.8950   21.4740 O   0  0  0  0  0  0  0  0  0  0  0  0
  -21.8370   -6.1650   22.6340 C   0  0  0  0  0  0  0  0  0  0  0  0
  -21.2940   -6.7080   23.8180 C   0  0  0  0  0  3  0  0  0  0  0  0
  -21.1650   -5.9010   24.9670 C   0  0  0  0  0  3  0  0  0  0  0  0
  -21.5690   -4.5530   24.9300 C   0  0  0  0  0  0  0  0  0  0  0  0
  -22.1050   -4.0100   23.7500 C   0  0  0  0  0  3  0  0  0  0  0  0
  -22.2350   -4.8140   22.6030 C   0  0  0  0  0  0  0  0  0  0  0  0
  -22.7310   -4.2790   21.4620 F   0  0  0  0  0  0  0  0  0  0  0  0
  -21.4400   -3.7760   26.0320 F   0  0  0  0  0  0  0  0  0  0  0  0
  -22.8570  -13.5600   21.2400 C   0  0  0  0  0  0  0  0  0  0  0  0
  -22.1390  -12.8300   22.0860 N   0  0  0  0  0  0  0  0  0  0  0  0
  -22.4030  -14.5900   20.7450 O   0  0  0  0  0  0  0  0  0  0  0  0
  -22.5180  -11.9970   22.5120 H   0  0  0  0  0  0  0  0  0  0  0  0
  -21.1950  -13.1120   22.3120 H   0  0  0  0  0  0  0  0  0  0  0  0
  -25.4370  -15.2990   20.4350 N   0  0  0  0  0  0  0  0  0  0  0  0
  -24.6480  -15.9260   20.5540 H   0  0  0  0  0  0  0  0  0  0  0  0
  -26.2600  -15.7630   20.0730 H   0  0  0  0  0  0  0  0  0  0  0  0
  -29.0440  -23.4390   20.6390 C   0  0  0  0  0  3  0  0  0  0  0  0
  -31.6220  -23.1000   20.9390 C   0  0  0  0  0  1  0  0  0  0  0  0
  -30.4780  -23.9430   20.3510 C   0  0  0  0  0  2  0  0  0  0  0  0
  -28.0270  -24.7260   20.1780 C   0  0  0  0  0  2  0  0  0  0  0  0
  -28.2380  -26.2620   20.4440 O   0  0  0  0  0  0  0  0  0  0  0  0
  -24.5920  -31.9920   23.3390 C   0  0  0  0  0  0  0  0  0  0  0  0
  -27.1840  -27.2500   20.3500 C   0  0  0  0  0  0  0  0  0  0  0  0
  -23.3990  -30.5790   21.7100 C   0  0  0  0  0  3  0  0  0  0  0  0
  -24.8530  -28.9960   20.2960 C   0  0  0  0  0  0  0  0  0  0  0  0
  -25.9510  -30.8500   21.5450 C   0  0  0  0  0  2  0  0  0  0  0  0
  -26.0310  -29.4510   20.9050 C   0  0  0  0  0  0  0  0  0  0  0  0
  -27.1960  -28.5920   20.9140 C   0  0  0  0  0  3  0  0  0  0  0  0
  -25.9820  -26.9030   19.6960 C   0  0  0  0  0  3  0  0  0  0  0  0
  -24.8430  -27.7370   19.6750 C   0  0  0  0  0  3  0  0  0  0  0  0
  -23.6240  -29.8900   20.3360 C   0  0  0  0  0  2  0  0  0  0  0  0
  -24.6680  -31.1630   22.2520 N   0  0  0  0  0  0  0  0  0  0  0  0
  -23.5050  -32.2780   23.8630 O   0  0  0  0  0  0  0  0  0  0  0  0
  -22.7230  -29.5790   22.6800 C   0  0  0  0  0  0  0  0  0  0  0  0
  -21.4070  -29.3530   22.5120 N   0  0  0  0  0  0  0  0  0  0  0  0
  -23.3870  -29.0060   23.5480 O   0  0  0  0  0  0  0  0  0  0  0  0
  -20.9280  -29.8690   21.7880 H   0  0  0  0  0  0  0  0  0  0  0  0
  -18.0660  -28.0080   22.9100 C   0  0  0  0  0  0  0  0  0  0  0  0
  -20.5930  -28.4090   23.2840 C   0  0  0  0  0  3  0  0  0  0  0  0
  -20.7910  -26.9610   22.7790 C   0  0  0  0  0  2  0  0  0  0  0  0
  -19.7570  -26.5400   21.7290 C   0  0  0  0  0  2  0  0  0  0  0  0
  -18.3400  -26.6430   22.3010 C   0  0  0  0  0  2  0  0  0  0  0  0
  -19.1250  -28.8430   23.3560 C   0  0  0  0  0  0  0  0  0  0  0  0
  -18.8160  -30.1150   23.8850 C   0  0  0  0  0  3  0  0  0  0  0  0
  -17.4800  -30.5560   23.9680 C   0  0  0  0  0  3  0  0  0  0  0  0
  -16.4360  -29.7190   23.5370 C   0  0  0  0  0  3  0  0  0  0  0  0
  -16.7300  -28.4470   23.0160 C   0  0  0  0  0  3  0  0  0  0  0  0
  -25.8670  -32.6420   23.9600 C   0  0  0  0  0  3  0  0  0  0  0  0
  -25.5610  -34.0530   24.2470 N   0  0  0  0  0  0  0  0  0  0  0  0
  -25.9100  -35.0840   23.4670 C   0  0  0  0  0  0  0  0  0  0  0  0
  -26.5900  -34.9490   22.4460 O   0  0  0  0  0  0  0  0  0  0  0  0
  -24.9590  -34.2310   25.0380 H   0  0  0  0  0  0  0  0  0  0  0  0
  -24.2110  -36.8920   23.0390 C   0  0  0  0  0  1  0  0  0  0  0  0
  -25.4310  -36.4890   23.8850 C   0  0  0  0  0  3  0  0  0  0  0  0
  -27.5530  -37.3760   24.7480 C   0  0  0  0  0  1  0  0  0  0  0  0
  -26.4770  -37.5290   23.7700 N   0  0  0  0  0  0  0  0  0  0  0  0
  -26.0780  -38.4560   23.8800 H   0  0  0  0  0  0  0  0  0  0  0  0
  -26.3580  -31.9110   25.2710 C   0  0  1  0  0  0  0  0  0  0  0  0
  -25.2420  -31.7020   26.3230 C   0  0  0  0  0  1  0  0  0  0  0  0
  -26.9540  -30.5240   24.9390 C   0  0  0  0  0  1  0  0  0  0  0  0
  -27.4910  -32.7290   25.9360 C   0  0  0  0  0  1  0  0  0  0  0  0
  1  3  1  0
  3 50  1  0
  3  2  2  0
  4  1  2  0
  4  6  1  0
  5  2  1  0
  5 11  1  0
  6  5  2  0
  7  9  1  0
  8  9  1  0
  9  4  1  0
 11 10  1  0
 12 20  1  0
 13 18  1  0
 14 15  1  0
 14 13  1  0
 16 15  1  0
 16 25  1  0
 16 17  1  0
 18 12  1  0
 18 17  1  0
 19 12  2  0
 20 21  1  0
 20 11  1  0
 22 23  2  0
 23 42  1  0
 24 23  1  0
 24 27  1  0
 25 26  1  0
 25 22  1  0
 26 24  2  0
 27 28  1  0
 28 29  2  0
 30 33  1  0
 30 29  1  0
 31 30  2  0
 32 31  1  0
 32 27  2  0
 33 34  1  0
 34 35  1  0
 35 36  2  0
 37 36  1  0
 37 41  1  0
 38 37  2  0
 39 34  2  0
 39 38  1  0
 40 39  1  0
 42 43  1  0
 43 46  1  0
 43 45  1  0
 44 42  2  0
 47 48  1  0
 47 22  1  0
 49 47  1  0
 50 53  1  0
 52 50  1  0
 52 51  1  0
 53 54  1  0
 55 66  2  0
 56 54  1  0
 56 61  1  0
 57 65  1  0
 57 67  1  0
 58 64  1  0
 58 60  1  0
 59 65  1  0
 60 61  2  0
 60 59  1  0
 62 56  2  0
 63 62  1  0
 63 58  2  0
 64 57  1  0
 65 55  1  0
 67 69  2  0
 68 67  1  0
 70 68  1  0
 71 80  2  0
 71 76  1  0
 72 68  1  0
 72 76  1  0
 73 72  1  0
 74 75  1  0
 74 73  1  0
 75 71  1  0
 76 77  2  0
 77 78  1  0
 79 78  2  0
 80 79  1  0
 81 55  1  0
 81 82  1  0
 81 91  1  0
 82 85  1  0
 83 87  1  0
 83 82  1  0
 84 83  2  0
 87 86  1  0
 89 90  1  0
 89 87  1  0
 89 88  1  0
 91 94  1  1
 91 92  1  0
 93 91  1  0
M  ISO  4  12 100  20 100  53 101  54 101
M  END
>  <TORSDO>  (14) 
F 21

>  <SCORE>  (14) 
-13.730

>  <name>  (14) 
14

>  <ligand_id>  (14) 
14

>  <original_smiles>  (14) 
[H]c1c([H])c([H])c2c(c1[H])C([H])([H])C([H])([H])C([H])([H])C2([H])N([H])C(=O)C1([H])N(C(=O)C([H])(N([H])C(=O)C([H])(N([H])C([H])([H])[H])C([H])([H])[H])C(C([H])([H])[H])(C([H])([H])[H])C([H])([H])[H])C([H])([H])c2c([H])c(OC([H])([H])C([H])(c3c([H])c(C([H])(N([H])C(=O)N4C([H])([H])C([H])([H])C([H])([H])C([H])(n5nc(-c6c([H])c([H])c(Oc7c([H])c([H])c(F)c([H])c7F)c([H])c6[H])c(C(=O)N([H])[H])c5N([H])[H])C4([H])[H])C([H])([H])[H])nc(C([H])(C([H])([H])[H])C([H])([H])[H])c3[H])C([H])([H])C([H])([H])[H])c([H])c([H])c2C1([H])[H]

>  <smiles>  (14) 
[H]c1c([H])c([H])c2c(c1[H])C([H])([H])C([H])([H])C([H])([H])C2([H])N([H])C(=O)C1([H])N(C(=O)C([H])(N([H])C(=O)C([H])(N([H])C([H])([H])[H])C([H])([H])[H])C(C([H])([H])[H])(C([H])([H])[H])C([H])([H])[H])C([H])([H])c2c([H])c(OC([H])([H])C([H])(c3c([H])c(C([H])(N([H])C(=O)N4C([H])([H])C([H])([H])C([H])([H])C([H])(n5nc(-c6c([H])c([H])c(Oc7c([H])c([H])c(F)c([H])c7F)c([H])c6[H])c(C(=O)N([H])[H])c5N([H])[H])C4([H])[H])C([H])([H])[H])nc(C([H])(C([H])([H])[H])C([H])([H])[H])c3[H])C([H])([H])C([H])([H])[H])c([H])c([H])c2C1([H])[H]

$$$$
15:0:0
     RDKit          3D

100108  0  0  1  0  0  0  0  0999 V2000
  -28.9760  -20.1470   19.8800 C   0  0  0  0  0  2  0  0  0  0  0  0
  -30.3260  -20.4680   20.1540 C   0  0  0  0  0  0  0  0  0  0  0  0
  -28.9200  -19.3510   18.7800 C   0  0  0  0  0  3  0  0  0  0  0  0
  -31.0770  -19.8540   19.1750 C   0  0  0  0  0  0  0  0  0  0  0  0
  -30.2370  -18.9620   18.4820 N   0  0  0  0  0  0  0  0  0  0  0  0
  -30.5710  -20.6940   22.6440 C   0  0  0  0  0  1  0  0  0  0  0  0
  -30.0200  -22.7270   21.2460 C   0  0  0  0  0  1  0  0  0  0  0  0
  -30.7610  -21.3800   21.2830 C   0  0  0  0  0  3  0  0  0  0  0  0
  -33.5190  -19.5470   19.8360 C   0  0  0  0  0  1  0  0  0  0  0  0
  -32.8100  -21.5560   18.4460 C   0  0  0  0  0  1  0  0  0  0  0  0
  -32.5210  -20.0850   18.7990 C   0  0  0  0  0  3  0  0  0  0  0  0
  -27.6720  -18.9690   18.0160 C   0  0  0  0  0  2  0  0  0  0  0  0
  -26.9450  -20.1500   17.3000 C   0  0  0  0  0  2  0  0  0  0  0  0
  -24.9570  -21.1730   18.5540 C   0  0  0  0  0  1  0  0  0  0  0  0
  -26.4370  -21.3780   18.1430 C   0  0  0  0  0  3  0  0  0  0  0  0
  -28.0460  -22.8140   16.7620 C   0  0  0  0  0  1  0  0  0  0  0  0
  -25.5700  -23.1010   16.4360 C   0  0  0  0  0  1  0  0  0  0  0  0
  -26.6730  -22.8000   17.4740 C   0  0  1  0  0  0  0  0  0  0  0  0
  -26.7010  -23.9540   18.5370 C   0  0  0  0  0  2  0  0  0  0  0  0
  -26.9270  -25.2840   17.9970 O   0  0  0  0  0  0  0  0  0  0  0  0
  -25.6020  -29.6190   23.5040 C   0  0  0  0  0  0  0  0  0  0  0  0
  -26.1410  -26.3060   18.5040 C   0  0  0  0  0  0  0  0  0  0  0  0
  -23.8460  -29.5120   21.7650 C   0  0  0  0  0  3  0  0  0  0  0  0
  -24.5150  -28.3640   19.5870 C   0  0  0  0  0  0  0  0  0  0  0  0
  -26.3020  -29.1010   21.1670 C   0  0  0  0  0  2  0  0  0  0  0  0
  -25.8200  -28.1830   20.0590 C   0  0  0  0  0  0  0  0  0  0  0  0
  -26.6380  -27.1610   19.5170 C   0  0  0  0  0  3  0  0  0  0  0  0
  -24.8340  -26.5340   18.0160 C   0  0  0  0  0  3  0  0  0  0  0  0
  -24.0170  -27.5440   18.5610 C   0  0  0  0  0  3  0  0  0  0  0  0
  -23.6920  -29.4640   20.2200 C   0  0  0  0  0  2  0  0  0  0  0  0
  -25.2760  -29.3910   22.2000 N   0  0  0  0  0  0  0  0  0  0  0  0
  -24.7440  -29.9610   24.3300 O   0  0  0  0  0  0  0  0  0  0  0  0
  -22.9250  -28.4360   22.3890 C   0  0  0  0  0  0  0  0  0  0  0  0
  -21.6040  -28.6460   22.2830 N   0  0  0  0  0  0  0  0  0  0  0  0
  -23.4010  -27.4330   22.9280 O   0  0  0  0  0  0  0  0  0  0  0  0
  -21.2990  -29.4990   21.8350 H   0  0  0  0  0  0  0  0  0  0  0  0
  -18.0270  -28.1250   22.3250 C   0  0  0  0  0  0  0  0  0  0  0  0
  -20.5490  -27.7550   22.7640 C   0  0  0  0  0  3  0  0  0  0  0  0
  -20.4230  -26.5080   21.8580 C   0  0  0  0  0  2  0  0  0  0  0  0
  -19.3770  -26.6740   20.7510 C   0  0  0  0  0  2  0  0  0  0  0  0
  -17.9970  -26.9610   21.3500 C   0  0  0  0  0  2  0  0  0  0  0  0
  -19.2310  -28.5080   22.9760 C   0  0  0  0  0  0  0  0  0  0  0  0
  -19.2120  -29.6200   23.8470 C   0  0  0  0  0  3  0  0  0  0  0  0
  -18.0230  -30.3370   24.0760 C   0  0  0  0  0  3  0  0  0  0  0  0
  -16.8330  -29.9450   23.4380 C   0  0  0  0  0  3  0  0  0  0  0  0
  -16.8360  -28.8400   22.5680 C   0  0  0  0  0  3  0  0  0  0  0  0
  -27.0700  -29.4810   24.0170 C   0  0  0  0  0  3  0  0  0  0  0  0
  -27.3850  -28.0650   24.6330 C   0  0  1  0  0  0  0  0  0  0  0  0
  -26.3630  -27.6150   25.7040 C   0  0  0  0  0  1  0  0  0  0  0  0
  -27.4210  -26.9850   23.5260 C   0  0  0  0  0  1  0  0  0  0  0  0
  -28.7910  -28.0750   25.2810 C   0  0  0  0  0  1  0  0  0  0  0  0
  -27.2880  -30.5410   25.0110 N   0  0  0  0  0  0  0  0  0  0  0  0
  -27.9860  -31.6610   24.7820 C   0  0  0  0  0  0  0  0  0  0  0  0
  -28.5770  -31.8790   23.7200 O   0  0  0  0  0  0  0  0  0  0  0  0
  -26.7890  -30.4570   25.8830 H   0  0  0  0  0  0  0  0  0  0  0  0
  -27.0650  -33.8570   25.5930 C   0  0  0  0  0  1  0  0  0  0  0  0
  -28.0320  -32.7050   25.9130 C   0  0  0  0  0  3  0  0  0  0  0  0
  -30.3000  -32.2600   26.7360 C   0  0  0  0  0  1  0  0  0  0  0  0
  -29.3850  -33.2450   26.1630 N   0  0  0  0  0  0  0  0  0  0  0  0
  -29.3430  -34.0380   26.7970 H   0  0  0  0  0  0  0  0  0  0  0  0
  -30.6060  -17.9360   17.4740 C   0  0  0  0  0  2  0  0  0  0  0  0
  -31.6320  -16.8040   17.8320 C   0  0  0  0  0  2  0  0  0  0  0  0
  -31.8610  -14.3990   18.4510 C   0  0  0  0  0  0  0  0  0  0  0  0
  -31.8860  -12.0310   19.1400 C   0  0  0  0  0  2  0  0  0  0  0  0
  -30.9670  -11.2060   18.2200 C   0  0  0  0  0  2  0  0  0  0  0  0
  -29.5170  -11.2220   18.7420 C   0  0  0  0  0  2  0  0  0  0  0  0
  -29.0160  -12.6530   19.0800 C   0  0  0  0  0  3  0  0  0  0  0  0
  -30.0530  -13.4220   19.9270 C   0  0  0  0  0  2  0  0  0  0  0  0
  -31.3350  -13.3940   19.2030 N   0  0  0  0  0  0  0  0  0  0  0  0
  -32.9530  -14.3010   17.8870 O   0  0  0  0  0  0  0  0  0  0  0  0
  -31.1070  -15.5040   18.2940 N   0  0  0  0  0  0  0  0  0  0  0  0
  -30.1730  -15.4870   18.6770 H   0  0  0  0  0  0  0  0  0  0  0  0
  -26.8660  -13.6710   20.0540 C   0  0  0  0  0  0  0  0  0  0  0  0
  -25.7310  -13.1000   20.5590 C   0  0  0  0  0  0  0  0  0  0  0  0
  -25.9390  -11.6880   20.5030 C   0  0  0  0  0  0  0  0  0  0  0  0
  -27.7050  -12.6190   19.7230 N   0  0  0  0  0  0  0  0  0  0  0  0
  -27.1570  -11.4210   20.0490 N   0  0  0  0  0  0  0  0  0  0  0  0
  -25.0300  -10.5740   20.8010 C   0  0  0  0  0  0  0  0  0  0  0  0
  -25.2520   -9.7090   21.8950 C   0  0  0  0  0  3  0  0  0  0  0  0
  -24.3510   -8.6580   22.1720 C   0  0  0  0  0  3  0  0  0  0  0  0
  -23.2140   -8.4640   21.3520 C   0  0  0  0  0  0  0  0  0  0  0  0
  -23.0110   -9.3130   20.2500 C   0  0  0  0  0  3  0  0  0  0  0  0
  -23.9100  -10.3550   19.9730 C   0  0  0  0  0  3  0  0  0  0  0  0
  -22.2990   -7.4550   21.5290 O   0  0  0  0  0  0  0  0  0  0  0  0
  -21.8580   -7.0930   22.7770 C   0  0  0  0  0  0  0  0  0  0  0  0
  -21.1810   -8.0010   23.6190 C   0  0  0  0  0  3  0  0  0  0  0  0
  -20.6830   -7.5690   24.8650 C   0  0  0  0  0  3  0  0  0  0  0  0
  -20.8530   -6.2300   25.2660 C   0  0  0  0  0  0  0  0  0  0  0  0
  -21.5240   -5.3230   24.4260 C   0  0  0  0  0  3  0  0  0  0  0  0
  -22.0210   -5.7530   23.1840 C   0  0  0  0  0  0  0  0  0  0  0  0
  -22.6480   -4.8700   22.3690 F   0  0  0  0  0  0  0  0  0  0  0  0
  -20.3700   -5.8120   26.4590 F   0  0  0  0  0  0  0  0  0  0  0  0
  -24.4800  -13.8160   20.9830 C   0  0  0  0  0  0  0  0  0  0  0  0
  -23.7720  -13.2820   21.9710 N   0  0  0  0  0  0  0  0  0  0  0  0
  -24.1510  -14.8860   20.4700 O   0  0  0  0  0  0  0  0  0  0  0  0
  -24.0540  -12.4140   22.4030 H   0  0  0  0  0  0  0  0  0  0  0  0
  -22.9370  -13.7460   22.3010 H   0  0  0  0  0  0  0  0  0  0  0  0
  -27.2460  -14.9920   19.8310 N   0  0  0  0  0  0  0  0  0  0  0  0
  -26.6290  -15.7730   20.0280 H   0  0  0  0  0  0  0  0  0  0  0  0
  -28.1300  -15.2790   19.4280 H   0  0  0  0  0  0  0  0  0  0  0  0
  1  2  1  0
  2  8  1  0
  3 12  1  0
  3  1  1  0
  4  2  2  0
  5  3  1  0
  5  4  1  0
  7  8  1  0
  8  6  1  0
 10 11  1  0
 11  4  1  0
 11  9  1  0
 13 12  1  0
 13 15  1  0
 15 14  1  0
 18 16  1  6
 17 18  1  0
 18 15  1  0
 18 19  1  0
 20 22  1  0
 20 19  1  0
 21 32  2  0
 22 27  1  0
 23 31  1  0
 23 33  1  0
 24 26  1  0
 24 30  1  0
 25 31  1  0
 26 25  1  0
 27 26  2  0
 28 22  2  0
 28 29  1  0
 29 24  2  0
 30 23  1  0
 31 21  1  0
 33 35  2  0
 34 33  1  0
 36 34  1  0
 37 46  2  0
 37 42  1  0
 38 34  1  0
 38 42  1  0
 39 38  1  0
 40 41  1  0
 40 39  1  0
 41 37  1  0
 42 43  2  0
 43 44  1  0
 45 44  2  0
 46 45  1  0
 47 21  1  0
 47 48  1  0
 47 52  1  0
 48 51  1  1
 48 49  1  0
 50 48  1  0
 52 55  1  0
 53 52  1  0
 53 57  1  0
 54 53  2  0
 57 56  1  0
 57 59  1  0
 59 58  1  0
 59 60  1  0
 61 62  1  0
 61  5  1  0
 62 71  1  0
 63 69  1  0
 64 69  1  0
 65 66  1  0
 65 64  1  0
 67 66  1  0
 67 76  1  0
 67 68  1  0
 69 68  1  0
 70 63  2  0
 71 63  1  0
 71 72  1  0
 73 74  2  0
 74 93  1  0
 75 74  1  0
 75 78  1  0
 76 77  1  0
 76 73  1  0
 77 75  2  0
 78 79  1  0
 79 80  2  0
 81 84  1  0
 81 80  1  0
 82 81  2  0
 83 82  1  0
 83 78  2  0
 84 85  1  0
 85 90  2  0
 85 86  1  0
 86 87  2  0
 87 88  1  0
 88 92  1  0
 89 88  2  0
 90 89  1  0
 91 90  1  0
 93 94  1  0
 94 97  1  0
 94 96  1  0
 95 93  2  0
 98 99  1  0
 98 73  1  0
100 98  1  0
M  ISO  4  19 101  20 101  63 100  71 100
M  END
>  <TORSDO>  (15) 
F 25

>  <SCORE>  (15) 
-6.579

>  <name>  (15) 
15

>  <ligand_id>  (15) 
15

>  <original_smiles>  (15) 
[H]c1c([H])c([H])c2c(c1[H])C([H])([H])C([H])([H])C([H])([H])C2([H])N([H])C(=O)C1([H])N(C(=O)C([H])(N([H])C(=O)C([H])(N([H])C([H])([H])[H])C([H])([H])[H])C(C([H])([H])[H])(C([H])([H])[H])C([H])([H])[H])C([H])([H])c2c([H])c(OC([H])([H])C(C([H])([H])[H])(C([H])([H])[H])C([H])(C([H])([H])[H])C([H])([H])C([H])([H])c3c([H])c(C([H])(C([H])([H])[H])C([H])([H])[H])c(C([H])(C([H])([H])[H])C([H])([H])[H])n3C([H])([H])C([H])([H])N([H])C(=O)N3C([H])([H])C([H])([H])C([H])([H])C([H])(n4nc(-c5c([H])c([H])c(Oc6c([H])c([H])c(F)c([H])c6F)c([H])c5[H])c(C(=O)N([H])[H])c4N([H])[H])C3([H])[H])c([H])c([H])c2C1([H])[H]

>  <smiles>  (15) 
[H]c1c([H])c([H])c2c(c1[H])C([H])([H])C([H])([H])C([H])([H])C2([H])N([H])C(=O)C1([H])N(C(=O)C([H])(N([H])C(=O)C([H])(N([H])C([H])([H])[H])C([H])([H])[H])C(C([H])([H])[H])(C([H])([H])[H])C([H])([H])[H])C([H])([H])c2c([H])c(OC([H])([H])C(C([H])([H])[H])(C([H])([H])[H])C([H])(C([H])([H])[H])C([H])([H])C([H])([H])c3c([H])c(C([H])(C([H])([H])[H])C([H])([H])[H])c(C([H])(C([H])([H])[H])C([H])([H])[H])n3C([H])([H])C([H])([H])N([H])C(=O)N3C([H])([H])C([H])([H])C([H])([H])C([H])(n4nc(-c5c([H])c([H])c(Oc6c([H])c([H])c(F)c([H])c6F)c([H])c5[H])c(C(=O)N([H])[H])c4N([H])[H])C3([H])[H])c([H])c([H])c2C1([H])[H]

$$$$
16:0:0
     RDKit          3D

 94102  0  0  1  0  0  0  0  0999 V2000
  -28.6540  -19.9690   20.5750 C   0  0  0  0  0  3  0  0  0  0  0  0
  -30.8060  -19.4940   20.7620 C   0  0  0  0  0  3  0  0  0  0  0  0
  -29.9310  -20.5520   20.7940 C   0  0  0  0  0  0  0  0  0  0  0  0
  -28.7910  -18.6280   20.3180 C   0  0  0  0  0  0  0  0  0  0  0  0
  -30.1400  -18.3030   20.4610 N   0  0  0  0  0  0  0  0  0  0  0  0
  -27.9770  -17.2760   18.3850 C   0  0  0  0  0  1  0  0  0  0  0  0
  -26.3230  -18.2960   20.0160 C   0  0  0  0  0  1  0  0  0  0  0  0
  -27.7280  -17.6830   19.8490 C   0  0  0  0  0  3  0  0  0  0  0  0
  -30.2520  -22.0400   20.9670 C   0  0  0  0  0  2  0  0  0  0  0  0
  -29.0390  -23.0010   20.7760 C   0  0  0  0  0  2  0  0  0  0  0  0
  -29.3150  -24.4540   20.2590 C   0  0  0  0  0  3  0  0  0  0  0  0
  -31.7910  -25.1480   20.5170 C   0  0  0  0  0  1  0  0  0  0  0  0
  -30.3700  -25.2110   21.0950 C   0  0  0  0  0  2  0  0  0  0  0  0
  -27.9880  -25.2620   20.2180 C   0  0  0  0  0  2  0  0  0  0  0  0
  -28.1350  -26.6090   19.7190 O   0  0  0  0  0  0  0  0  0  0  0  0
  -24.4830  -31.7090   23.0950 C   0  0  0  0  0  0  0  0  0  0  0  0
  -26.9810  -27.3700   19.7580 C   0  0  0  0  0  0  0  0  0  0  0  0
  -23.2080  -30.3800   21.4440 C   0  0  0  0  0  3  0  0  0  0  0  0
  -24.6000  -28.8970   19.9050 C   0  0  0  0  0  0  0  0  0  0  0  0
  -25.7280  -30.7360   21.1670 C   0  0  0  0  0  2  0  0  0  0  0  0
  -25.7830  -29.3910   20.4700 C   0  0  0  0  0  0  0  0  0  0  0  0
  -26.9790  -28.6370   20.3890 C   0  0  0  0  0  3  0  0  0  0  0  0
  -25.7800  -26.9020   19.1790 C   0  0  0  0  0  3  0  0  0  0  0  0
  -24.5950  -27.6540   19.2530 C   0  0  0  0  0  3  0  0  0  0  0  0
  -23.3620  -29.7570   20.0310 C   0  0  0  0  0  2  0  0  0  0  0  0
  -24.4930  -30.9530   21.9600 N   0  0  0  0  0  0  0  0  0  0  0  0
  -23.4230  -31.9640   23.6830 O   0  0  0  0  0  0  0  0  0  0  0  0
  -22.5870  -29.3240   22.3870 C   0  0  0  0  0  0  0  0  0  0  0  0
  -21.2660  -29.1160   22.2670 N   0  0  0  0  0  0  0  0  0  0  0  0
  -23.2910  -28.6930   23.1820 O   0  0  0  0  0  0  0  0  0  0  0  0
  -20.7560  -29.6820   21.6010 H   0  0  0  0  0  0  0  0  0  0  0  0
  -17.9280  -27.8140   22.7310 C   0  0  0  0  0  0  0  0  0  0  0  0
  -20.4740  -28.1450   23.0220 C   0  0  0  0  0  3  0  0  0  0  0  0
  -20.6230  -26.7240   22.4300 C   0  0  0  0  0  2  0  0  0  0  0  0
  -19.5370  -26.3800   21.4060 C   0  0  0  0  0  2  0  0  0  0  0  0
  -18.1480  -26.4770   22.0420 C   0  0  0  0  0  2  0  0  0  0  0  0
  -19.0200  -28.6030   23.1760 C   0  0  0  0  0  0  0  0  0  0  0  0
  -18.7600  -29.8540   23.7780 C   0  0  0  0  0  3  0  0  0  0  0  0
  -17.4390  -30.3130   23.9410 C   0  0  0  0  0  3  0  0  0  0  0  0
  -16.3620  -29.5190   23.5110 C   0  0  0  0  0  3  0  0  0  0  0  0
  -16.6060  -28.2720   22.9120 C   0  0  0  0  0  3  0  0  0  0  0  0
  -25.7940  -32.3090   23.6910 C   0  0  0  0  0  3  0  0  0  0  0  0
  -25.5070  -33.6980   24.0760 N   0  0  0  0  0  0  0  0  0  0  0  0
  -25.8410  -34.7730   23.3510 C   0  0  0  0  0  0  0  0  0  0  0  0
  -26.4930  -34.6980   22.3060 O   0  0  0  0  0  0  0  0  0  0  0  0
  -24.9270  -33.8310   24.8920 H   0  0  0  0  0  0  0  0  0  0  0  0
  -24.1320  -36.5980   23.0830 C   0  0  0  0  0  1  0  0  0  0  0  0
  -25.3780  -36.1490   23.8640 C   0  0  0  0  0  3  0  0  0  0  0  0
  -27.5330  -36.9760   24.7000 C   0  0  0  0  0  1  0  0  0  0  0  0
  -26.4220  -37.1920   23.7760 N   0  0  0  0  0  0  0  0  0  0  0  0
  -26.0300  -38.1120   23.9610 H   0  0  0  0  0  0  0  0  0  0  0  0
  -26.3480  -31.4910   24.9210 C   0  0  1  0  0  0  0  0  0  0  0  0
  -25.2940  -31.2270   26.0200 C   0  0  0  0  0  1  0  0  0  0  0  0
  -26.9020  -30.1210   24.4600 C   0  0  0  0  0  1  0  0  0  0  0  0
  -27.5320  -32.2510   25.5670 C   0  0  0  0  0  1  0  0  0  0  0  0
  -30.8610  -17.0430   20.1690 C   0  0  0  0  0  2  0  0  0  0  0  0
  -31.0350  -14.6180   20.5150 C   0  0  0  0  0  0  0  0  0  0  0  0
  -30.6920  -12.4600   19.3880 C   0  0  0  0  0  2  0  0  0  0  0  0
  -29.7800  -12.6830   18.1650 C   0  0  0  0  0  2  0  0  0  0  0  0
  -28.2990  -12.5640   18.5710 C   0  0  0  0  0  2  0  0  0  0  0  0
  -27.9470  -13.3840   19.8430 C   0  0  0  0  0  3  0  0  0  0  0  0
  -28.9920  -13.1810   20.9660 C   0  0  0  0  0  2  0  0  0  0  0  0
  -30.3180  -13.4620   20.4030 N   0  0  0  0  0  0  0  0  0  0  0  0
  -32.2150  -14.6760   20.1610 O   0  0  0  0  0  0  0  0  0  0  0  0
  -30.3520  -15.7670   20.7390 N   0  0  0  0  0  0  0  0  0  0  0  0
  -29.3840  -15.7180   21.0080 H   0  0  0  0  0  0  0  0  0  0  0  0
  -25.5410  -13.9740   20.5220 C   0  0  0  0  0  0  0  0  0  0  0  0
  -24.4640  -13.2090   20.8710 C   0  0  0  0  0  0  0  0  0  0  0  0
  -24.9200  -11.8590   20.8280 C   0  0  0  0  0  0  0  0  0  0  0  0
  -26.5890  -13.0990   20.3010 N   0  0  0  0  0  0  0  0  0  0  0  0
  -26.2170  -11.8160   20.5440 N   0  0  0  0  0  0  0  0  0  0  0  0
  -24.1790  -10.6030   20.9880 C   0  0  0  0  0  0  0  0  0  0  0  0
  -24.5680   -9.6360   21.9400 C   0  0  0  0  0  3  0  0  0  0  0  0
  -23.8280   -8.4430   22.0880 C   0  0  0  0  0  3  0  0  0  0  0  0
  -22.6850   -8.2110   21.2860 C   0  0  0  0  0  0  0  0  0  0  0  0
  -22.3160   -9.1680   20.3240 C   0  0  0  0  0  3  0  0  0  0  0  0
  -23.0560  -10.3520   20.1740 C   0  0  0  0  0  3  0  0  0  0  0  0
  -21.9200   -7.0720   21.3460 O   0  0  0  0  0  0  0  0  0  0  0  0
  -21.7850   -6.3590   22.5100 C   0  0  0  0  0  0  0  0  0  0  0  0
  -21.2660   -6.9410   23.6870 C   0  0  0  0  0  3  0  0  0  0  0  0
  -21.0780   -6.1530   24.8400 C   0  0  0  0  0  3  0  0  0  0  0  0
  -21.4010   -4.7820   24.8160 C   0  0  0  0  0  0  0  0  0  0  0  0
  -21.9130   -4.2000   23.6440 C   0  0  0  0  0  3  0  0  0  0  0  0
  -22.1040   -4.9870   22.4940 C   0  0  0  0  0  0  0  0  0  0  0  0
  -22.5790   -4.4160   21.3610 F   0  0  0  0  0  0  0  0  0  0  0  0
  -21.2130   -4.0220   25.9190 F   0  0  0  0  0  0  0  0  0  0  0  0
  -23.0680  -13.6990   21.1180 C   0  0  0  0  0  0  0  0  0  0  0  0
  -22.3190  -13.0110   21.9750 N   0  0  0  0  0  0  0  0  0  0  0  0
  -22.6470  -14.7280   20.5890 O   0  0  0  0  0  0  0  0  0  0  0  0
  -22.6620  -12.1760   22.4260 H   0  0  0  0  0  0  0  0  0  0  0  0
  -21.3830  -13.3250   22.1800 H   0  0  0  0  0  0  0  0  0  0  0  0
  -25.6980  -15.3360   20.3480 N   0  0  0  0  0  0  0  0  0  0  0  0
  -24.8980  -15.9560   20.4020 H   0  0  0  0  0  0  0  0  0  0  0  0
  -26.5120  -15.7640   19.9300 H   0  0  0  0  0  0  0  0  0  0  0  0
  1  3  1  0
  2  3  2  0
  3  9  1  0
  4  5  1  0
  4  1  2  0
  5  2  1  0
  6  8  1  0
  8  7  1  0
  8  4  1  0
 10  9  1  0
 11 14  1  0
 11 10  1  0
 11 13  1  0
 12 13  1  0
 15 17  1  0
 15 14  1  0
 16 27  2  0
 17 22  1  0
 18 26  1  0
 18 28  1  0
 19 25  1  0
 19 21  1  0
 20 26  1  0
 21 20  1  0
 22 21  2  0
 23 24  1  0
 23 17  2  0
 24 19  2  0
 25 18  1  0
 26 16  1  0
 28 30  2  0
 29 28  1  0
 31 29  1  0
 32 41  2  0
 32 37  1  0
 33 29  1  0
 33 37  1  0
 34 33  1  0
 35 36  1  0
 35 34  1  0
 36 32  1  0
 37 38  2  0
 38 39  1  0
 40 39  2  0
 41 40  1  0
 42 16  1  0
 42 43  1  0
 42 52  1  0
 43 46  1  0
 44 48  1  0
 44 43  1  0
 45 44  2  0
 48 47  1  0
 50 48  1  0
 50 51  1  0
 50 49  1  0
 52 55  1  1
 52 53  1  0
 54 52  1  0
 56  5  1  0
 56 65  1  0
 57 65  1  0
 58 63  1  0
 59 60  1  0
 59 58  1  0
 61 60  1  0
 61 70  1  0
 61 62  1  0
 63 57  1  0
 63 62  1  0
 64 57  2  0
 65 66  1  0
 67 68  2  0
 68 87  1  0
 69 68  1  0
 69 72  1  0
 70 67  1  0
 70 71  1  0
 71 69  2  0
 72 73  1  0
 73 74  2  0
 75 78  1  0
 75 74  1  0
 76 75  2  0
 77 76  1  0
 77 72  2  0
 78 79  1  0
 79 80  1  0
 80 81  2  0
 82 81  1  0
 82 86  1  0
 83 82  2  0
 84 79  2  0
 84 83  1  0
 85 84  1  0
 87 88  1  0
 88 91  1  0
 88 90  1  0
 89 87  2  0
 92 93  1  0
 92 67  1  0
 94 92  1  0
M  ISO  4  14 101  15 101  57 100  65 100
M  END
>  <TORSDO>  (16) 
F 23

>  <SCORE>  (16) 
-12.610

>  <name>  (16) 
16

>  <ligand_id>  (16) 
16

>  <original_smiles>  (16) 
[H]c1c([H])c([H])c2c(c1[H])C([H])([H])C([H])([H])C([H])([H])C2([H])N([H])C(=O)C1([H])N(C(=O)C([H])(N([H])C(=O)C([H])(N([H])C([H])([H])[H])C([H])([H])[H])C(C([H])([H])[H])(C([H])([H])[H])C([H])([H])[H])C([H])([H])c2c([H])c(OC([H])([H])C([H])(C([H])([H])C([H])([H])[H])C([H])([H])C([H])([H])c3c([H])c(C([H])(C([H])([H])[H])C([H])([H])[H])n(C([H])([H])N([H])C(=O)N4C([H])([H])C([H])([H])C([H])([H])C([H])(n5nc(-c6c([H])c([H])c(Oc7c([H])c([H])c(F)c([H])c7F)c([H])c6[H])c(C(=O)N([H])[H])c5N([H])[H])C4([H])[H])c3[H])c([H])c([H])c2C1([H])[H]

>  <smiles>  (16) 
[H]c1c([H])c([H])c2c(c1[H])C([H])([H])C([H])([H])C([H])([H])C2([H])N([H])C(=O)C1([H])N(C(=O)C([H])(N([H])C(=O)C([H])(N([H])C([H])([H])[H])C([H])([H])[H])C(C([H])([H])[H])(C([H])([H])[H])C([H])([H])[H])C([H])([H])c2c([H])c(OC([H])([H])C([H])(C([H])([H])C([H])([H])[H])C([H])([H])C([H])([H])c3c([H])c(C([H])(C([H])([H])[H])C([H])([H])[H])n(C([H])([H])N([H])C(=O)N4C([H])([H])C([H])([H])C([H])([H])C([H])(n5nc(-c6c([H])c([H])c(Oc7c([H])c([H])c(F)c([H])c7F)c([H])c6[H])c(C(=O)N([H])[H])c5N([H])[H])C4([H])[H])c3[H])c([H])c([H])c2C1([H])[H]

$$$$
17:0:0
     RDKit          3D

 96104  0  0  1  0  0  0  0  0999 V2000
  -29.5410  -19.4890   19.9220 C   0  0  0  0  0  3  0  0  0  0  0  0
  -30.0210  -18.2630   20.3340 C   0  0  0  0  0  0  0  0  0  0  0  0
  -31.0250  -18.5650   21.3170 C   0  0  0  0  0  0  0  0  0  0  0  0
  -31.0800  -19.9420   21.4970 C   0  0  0  0  0  0  0  0  0  0  0  0
  -31.9160  -17.5230   21.9640 C   0  0  0  0  0  1  0  0  0  0  0  0
  -30.1810  -20.5350   20.5860 N   0  0  0  0  0  0  0  0  0  0  0  0
  -29.5750  -16.9060   19.7270 C   0  0  0  0  0  2  0  0  0  0  0  0
  -30.4370  -14.5730   20.0000 C   0  0  0  0  0  0  0  0  0  0  0  0
  -30.1610  -12.3530   18.9400 C   0  0  0  0  0  2  0  0  0  0  0  0
  -29.1310  -12.5010   17.7950 C   0  0  0  0  0  2  0  0  0  0  0  0
  -27.6970  -12.3040   18.3200 C   0  0  0  0  0  2  0  0  0  0  0  0
  -27.4080  -13.1550   19.5840 C   0  0  0  0  0  3  0  0  0  0  0  0
  -28.5500  -13.0070   20.6250 C   0  0  0  0  0  2  0  0  0  0  0  0
  -29.8260  -13.3520   19.9780 N   0  0  0  0  0  0  0  0  0  0  0  0
  -31.5250  -14.7570   19.4440 O   0  0  0  0  0  0  0  0  0  0  0  0
  -29.7060  -15.6180   20.4650 N   0  0  0  0  0  0  0  0  0  0  0  0
  -28.9020  -15.3620   21.0220 H   0  0  0  0  0  0  0  0  0  0  0  0
  -25.0620  -13.6920   20.5140 C   0  0  0  0  0  0  0  0  0  0  0  0
  -24.0380  -12.8930   20.9360 C   0  0  0  0  0  0  0  0  0  0  0  0
  -24.5090  -11.5450   20.8140 C   0  0  0  0  0  0  0  0  0  0  0  0
  -26.0990  -12.8380   20.1660 N   0  0  0  0  0  0  0  0  0  0  0  0
  -25.7700  -11.5410   20.3980 N   0  0  0  0  0  0  0  0  0  0  0  0
  -23.8130  -10.2690   21.0050 C   0  0  0  0  0  0  0  0  0  0  0  0
  -24.3020   -9.2940   21.9010 C   0  0  0  0  0  3  0  0  0  0  0  0
  -23.6100   -8.0760   22.0810 C   0  0  0  0  0  3  0  0  0  0  0  0
  -22.4140   -7.8250   21.3650 C   0  0  0  0  0  0  0  0  0  0  0  0
  -21.9460   -8.7920   20.4550 C   0  0  0  0  0  3  0  0  0  0  0  0
  -22.6380   -9.9990   20.2730 C   0  0  0  0  0  3  0  0  0  0  0  0
  -21.6840   -6.6660   21.4620 O   0  0  0  0  0  0  0  0  0  0  0  0
  -21.6720   -5.9150   22.6110 C   0  0  0  0  0  0  0  0  0  0  0  0
  -21.2020   -6.4320   23.8380 C   0  0  0  0  0  3  0  0  0  0  0  0
  -21.1420   -5.6040   24.9770 C   0  0  0  0  0  3  0  0  0  0  0  0
  -21.5420   -4.2580   24.8920 C   0  0  0  0  0  0  0  0  0  0  0  0
  -22.0050   -3.7370   23.6710 C   0  0  0  0  0  3  0  0  0  0  0  0
  -22.0680   -4.5620   22.5350 C   0  0  0  0  0  0  0  0  0  0  0  0
  -22.4960   -4.0480   21.3560 F   0  0  0  0  0  0  0  0  0  0  0  0
  -21.4770   -3.4620   25.9860 F   0  0  0  0  0  0  0  0  0  0  0  0
  -22.6610  -13.3310   21.3440 C   0  0  0  0  0  0  0  0  0  0  0  0
  -22.0040  -12.5870   22.2250 N   0  0  0  0  0  0  0  0  0  0  0  0
  -22.1750  -14.3800   20.9120 O   0  0  0  0  0  0  0  0  0  0  0  0
  -22.4060  -11.7360   22.5960 H   0  0  0  0  0  0  0  0  0  0  0  0
  -21.0810  -12.8590   22.5320 H   0  0  0  0  0  0  0  0  0  0  0  0
  -25.2010  -15.0730   20.3910 N   0  0  0  0  0  0  0  0  0  0  0  0
  -24.4400  -15.7140   20.5840 H   0  0  0  0  0  0  0  0  0  0  0  0
  -26.0250  -15.5300   20.0280 H   0  0  0  0  0  0  0  0  0  0  0  0
  -29.9280  -21.9870   20.2670 C   0  0  0  0  0  3  0  0  0  0  0  0
  -28.6480  -22.6260   20.9360 C   0  0  0  0  0  3  0  0  0  0  0  0
  -26.5050  -23.9120   20.9160 C   0  0  0  0  0  1  0  0  0  0  0  0
  -27.9800  -24.0060   20.4400 C   0  0  0  0  0  3  0  0  0  0  0  0
  -28.6040  -25.3910   20.9310 C   0  0  0  0  0  2  0  0  0  0  0  0
  -28.5750  -26.5890   20.0560 O   0  0  0  0  0  0  0  0  0  0  0  0
  -24.6560  -31.7160   23.2520 C   0  0  0  0  0  0  0  0  0  0  0  0
  -27.4410  -27.3990   20.0440 C   0  0  0  0  0  0  0  0  0  0  0  0
  -23.5190  -30.3650   21.5380 C   0  0  0  0  0  3  0  0  0  0  0  0
  -25.0340  -28.9070   20.0770 C   0  0  0  0  0  0  0  0  0  0  0  0
  -26.0450  -30.7680   21.3980 C   0  0  0  0  0  2  0  0  0  0  0  0
  -26.1820  -29.4240   20.6920 C   0  0  0  0  0  0  0  0  0  0  0  0
  -27.3990  -28.6790   20.6570 C   0  0  0  0  0  3  0  0  0  0  0  0
  -26.2890  -26.9490   19.3730 C   0  0  0  0  0  3  0  0  0  0  0  0
  -25.0800  -27.6680   19.4160 C   0  0  0  0  0  3  0  0  0  0  0  0
  -23.7750  -29.7550   20.1380 C   0  0  0  0  0  2  0  0  0  0  0  0
  -24.7620  -30.9590   22.1270 N   0  0  0  0  0  0  0  0  0  0  0  0
  -23.5570  -31.9370   23.7780 O   0  0  0  0  0  0  0  0  0  0  0  0
  -22.8640  -29.2910   22.4330 C   0  0  0  0  0  0  0  0  0  0  0  0
  -21.5500  -29.0730   22.2500 N   0  0  0  0  0  0  0  0  0  0  0  0
  -23.5370  -28.6570   23.2520 O   0  0  0  0  0  0  0  0  0  0  0  0
  -21.0660  -29.6400   21.5690 H   0  0  0  0  0  0  0  0  0  0  0  0
  -18.1990  -27.7450   22.5940 C   0  0  0  0  0  0  0  0  0  0  0  0
  -20.7380  -28.0750   22.9470 C   0  0  0  0  0  3  0  0  0  0  0  0
  -20.9070  -26.6740   22.3200 C   0  0  0  0  0  2  0  0  0  0  0  0
  -19.8500  -26.3500   21.2630 C   0  0  0  0  0  2  0  0  0  0  0  0
  -18.4410  -26.4280   21.8690 C   0  0  0  0  0  2  0  0  0  0  0  0
  -19.2810  -28.5230   23.0820 C   0  0  0  0  0  0  0  0  0  0  0  0
  -19.0140  -29.7480   23.7270 C   0  0  0  0  0  3  0  0  0  0  0  0
  -17.6940  -30.2070   23.8820 C   0  0  0  0  0  3  0  0  0  0  0  0
  -16.6220  -29.4320   23.4030 C   0  0  0  0  0  3  0  0  0  0  0  0
  -16.8730  -28.2010   22.7720 C   0  0  0  0  0  3  0  0  0  0  0  0
  -25.9080  -32.3500   23.9260 C   0  0  0  0  0  3  0  0  0  0  0  0
  -25.5750  -33.7410   24.2530 N   0  0  0  0  0  0  0  0  0  0  0  0
  -25.9210  -34.8000   23.5100 C   0  0  0  0  0  0  0  0  0  0  0  0
  -26.6260  -34.7100   22.5010 O   0  0  0  0  0  0  0  0  0  0  0  0
  -24.9390  -33.8770   25.0260 H   0  0  0  0  0  0  0  0  0  0  0  0
  -24.1860  -36.5830   23.1190 C   0  0  0  0  0  1  0  0  0  0  0  0
  -25.4100  -36.1830   23.9580 C   0  0  0  0  0  3  0  0  0  0  0  0
  -27.5030  -37.0970   24.8600 C   0  0  0  0  0  1  0  0  0  0  0  0
  -26.4370  -37.2470   23.8740 N   0  0  0  0  0  0  0  0  0  0  0  0
  -26.0160  -38.1640   24.0020 H   0  0  0  0  0  0  0  0  0  0  0  0
  -26.3780  -31.5700   25.2140 C   0  0  1  0  0  0  0  0  0  0  0  0
  -25.2400  -31.3140   26.2350 C   0  0  0  0  0  1  0  0  0  0  0  0
  -26.9860  -30.2000   24.8280 C   0  0  0  0  0  1  0  0  0  0  0  0
  -27.4940  -32.3710   25.9270 C   0  0  0  0  0  1  0  0  0  0  0  0
  -31.9810  -20.7750   22.4090 C   0  0  0  0  0  3  0  0  0  0  0  0
  -34.0640  -20.2790   20.8940 C   0  0  0  0  0  1  0  0  0  0  0  0
  -33.4740  -20.3780   22.3080 C   0  0  0  0  0  2  0  0  0  0  0  0
  -30.1760  -21.1110   24.2970 C   0  0  0  0  0  1  0  0  0  0  0  0
  -31.6280  -20.7570   23.9290 C   0  0  0  0  0  2  0  0  0  0  0  0
  1  2  2  0
  1  6  1  0
  2  3  1  0
  3  4  2  0
  3  5  1  0
  4 92  1  0
  6  4  1  0
  7  2  1  0
  7 16  1  0
  8 16  1  0
  9 14  1  0
 10 11  1  0
 10  9  1  0
 12 11  1  0
 12 21  1  0
 12 13  1  0
 14  8  1  0
 14 13  1  0
 15  8  2  0
 16 17  1  0
 18 19  2  0
 19 38  1  0
 20 19  1  0
 20 23  1  0
 21 22  1  0
 21 18  1  0
 22 20  2  0
 23 24  1  0
 24 25  2  0
 26 29  1  0
 26 25  1  0
 27 26  2  0
 28 27  1  0
 28 23  2  0
 29 30  1  0
 30 31  1  0
 31 32  2  0
 33 32  1  0
 33 37  1  0
 34 33  2  0
 35 30  2  0
 35 34  1  0
 36 35  1  0
 38 39  1  0
 39 42  1  0
 39 41  1  0
 40 38  2  0
 43 18  1  0
 43 44  1  0
 45 43  1  0
 46  6  1  0
 46 47  2  0
 49 48  1  0
 49 50  1  0
 49 47  1  0
 51 50  1  0
 52 63  2  0
 53 51  1  0
 53 58  1  0
 54 62  1  0
 54 64  1  0
 55 61  1  0
 55 57  1  0
 56 62  1  0
 57 56  1  0
 58 57  2  0
 59 60  1  0
 59 53  2  0
 60 55  2  0
 61 54  1  0
 62 52  1  0
 64 66  2  0
 65 64  1  0
 67 65  1  0
 68 77  2  0
 68 73  1  0
 69 65  1  0
 69 73  1  0
 70 69  1  0
 71 72  1  0
 71 70  1  0
 72 68  1  0
 73 74  2  0
 74 75  1  0
 76 75  2  0
 77 76  1  0
 78 52  1  0
 78 79  1  0
 78 88  1  0
 79 82  1  0
 80 84  1  0
 80 79  1  0
 81 80  2  0
 84 83  1  0
 86 84  1  0
 86 87  1  0
 86 85  1  0
 88 91  1  1
 88 89  1  0
 90 88  1  0
 92 96  1  0
 93 94  1  0
 94 92  1  0
 96 95  1  0
M  ISO  4   8 100  16 100  50 101  51 101
M  END
>  <TORSDO>  (17) 
F 24

>  <SCORE>  (17) 
-12.402

>  <name>  (17) 
17

>  <ligand_id>  (17) 
17

>  <original_smiles>  (17) 
[H]c1c([H])c([H])c2c(c1[H])C([H])([H])C([H])([H])C([H])([H])C2([H])N([H])C(=O)C1([H])N(C(=O)C([H])(N([H])C(=O)C([H])(N([H])C([H])([H])[H])C([H])([H])[H])C(C([H])([H])[H])(C([H])([H])[H])C([H])([H])[H])C([H])([H])c2c([H])c(OC([H])([H])C([H])(C([H])([H])[H])C([H])([H])C([H])([H])n3c([H])c(C([H])([H])N([H])C(=O)N4C([H])([H])C([H])([H])C([H])([H])C([H])(n5nc(-c6c([H])c([H])c(Oc7c([H])c([H])c(F)c([H])c7F)c([H])c6[H])c(C(=O)N([H])[H])c5N([H])[H])C4([H])[H])c(C([H])([H])[H])c3C([H])(C([H])([H])C([H])([H])[H])C([H])([H])C([H])([H])[H])c([H])c([H])c2C1([H])[H]

>  <smiles>  (17) 
[H]c1c([H])c([H])c2c(c1[H])C([H])([H])C([H])([H])C([H])([H])C2([H])N([H])C(=O)C1([H])N(C(=O)C([H])(N([H])C(=O)C([H])(N([H])C([H])([H])[H])C([H])([H])[H])C(C([H])([H])[H])(C([H])([H])[H])C([H])([H])[H])C([H])([H])c2c([H])c(OC([H])([H])C([H])(C([H])([H])[H])C([H])([H])C([H])([H])n3c([H])c(C([H])([H])N([H])C(=O)N4C([H])([H])C([H])([H])C([H])([H])C([H])(n5nc(-c6c([H])c([H])c(Oc7c([H])c([H])c(F)c([H])c7F)c([H])c6[H])c(C(=O)N([H])[H])c5N([H])[H])C4([H])[H])c(C([H])([H])[H])c3C([H])(C([H])([H])C([H])([H])[H])C([H])([H])C([H])([H])[H])c([H])c([H])c2C1([H])[H]

$$$$
18:0:0
     RDKit          3D

 95103  0  0  1  0  0  0  0  0999 V2000
  -29.6800  -19.0790   20.7880 C   0  0  0  0  0  3  0  0  0  0  0  0
  -30.6810  -20.2480   19.1340 C   0  0  0  0  0  3  0  0  0  0  0  0
  -30.0330  -20.3930   20.3230 C   0  0  0  0  0  0  0  0  0  0  0  0
  -30.0620  -18.1570   19.8260 C   0  0  0  0  0  0  0  0  0  0  0  0
  -30.6880  -18.9010   18.8120 N   0  0  0  0  0  0  0  0  0  0  0  0
  -31.0040  -22.0170   21.7210 C   0  0  0  0  0  1  0  0  0  0  0  0
  -29.8110  -21.6420   20.9680 N   0  0  0  0  0  0  0  0  0  0  0  0
  -29.2080  -22.7040   20.1170 C   0  0  0  0  0  2  0  0  0  0  0  0
  -29.1970  -24.1730   20.6900 C   0  0  0  0  0  2  0  0  0  0  0  0
  -28.2720  -25.1620   19.9020 C   0  0  0  0  0  2  0  0  0  0  0  0
  -28.3650  -26.5830   20.2390 O   0  0  0  0  0  0  0  0  0  0  0  0
  -24.5860  -31.8780   23.2350 C   0  0  0  0  0  0  0  0  0  0  0  0
  -27.2150  -27.3710   20.1680 C   0  0  0  0  0  0  0  0  0  0  0  0
  -23.3800  -30.4740   21.5990 C   0  0  0  0  0  3  0  0  0  0  0  0
  -24.8310  -28.9360   20.1680 C   0  0  0  0  0  0  0  0  0  0  0  0
  -25.9130  -30.8120   21.4070 C   0  0  0  0  0  2  0  0  0  0  0  0
  -25.9940  -29.4380   20.7640 C   0  0  0  0  0  0  0  0  0  0  0  0
  -27.1860  -28.6630   20.7630 C   0  0  0  0  0  3  0  0  0  0  0  0
  -26.0330  -26.9200   19.5320 C   0  0  0  0  0  3  0  0  0  0  0  0
  -24.8490  -27.6780   19.5470 C   0  0  0  0  0  3  0  0  0  0  0  0
  -23.5900  -29.7990   20.2190 C   0  0  0  0  0  2  0  0  0  0  0  0
  -24.6440  -31.0710   22.1370 N   0  0  0  0  0  0  0  0  0  0  0  0
  -23.5030  -32.1530   23.7730 O   0  0  0  0  0  0  0  0  0  0  0  0
  -22.7270  -29.4540   22.5610 C   0  0  0  0  0  0  0  0  0  0  0  0
  -21.4010  -29.2720   22.4380 N   0  0  0  0  0  0  0  0  0  0  0  0
  -23.4110  -28.8290   23.3770 O   0  0  0  0  0  0  0  0  0  0  0  0
  -20.9110  -29.8240   21.7480 H   0  0  0  0  0  0  0  0  0  0  0  0
  -18.0270  -28.0830   22.9540 C   0  0  0  0  0  0  0  0  0  0  0  0
  -20.5870  -28.3370   23.2130 C   0  0  0  0  0  3  0  0  0  0  0  0
  -20.6850  -26.9050   22.6370 C   0  0  0  0  0  2  0  0  0  0  0  0
  -19.5780  -26.5840   21.6280 C   0  0  0  0  0  2  0  0  0  0  0  0
  -18.1980  -26.7330   22.2780 C   0  0  0  0  0  2  0  0  0  0  0  0
  -19.1480  -28.8430   23.3780 C   0  0  0  0  0  0  0  0  0  0  0  0
  -18.9350  -30.1080   23.9690 C   0  0  0  0  0  3  0  0  0  0  0  0
  -17.6320  -30.6110   24.1410 C   0  0  0  0  0  3  0  0  0  0  0  0
  -16.5240  -29.8480   23.7330 C   0  0  0  0  0  3  0  0  0  0  0  0
  -16.7230  -28.5860   23.1450 C   0  0  0  0  0  3  0  0  0  0  0  0
  -25.8700  -32.5130   23.8500 C   0  0  0  0  0  3  0  0  0  0  0  0
  -25.5630  -33.9140   24.1700 N   0  0  0  0  0  0  0  0  0  0  0  0
  -25.9030  -34.9610   23.4080 C   0  0  0  0  0  0  0  0  0  0  0  0
  -26.5810  -34.8510   22.3830 O   0  0  0  0  0  0  0  0  0  0  0  0
  -24.9610  -34.0740   24.9650 H   0  0  0  0  0  0  0  0  0  0  0  0
  -24.1910  -36.7610   23.0180 C   0  0  0  0  0  1  0  0  0  0  0  0
  -25.4150  -36.3530   23.8530 C   0  0  0  0  0  3  0  0  0  0  0  0
  -27.5380  -37.2270   24.7230 C   0  0  0  0  0  1  0  0  0  0  0  0
  -26.4550  -37.4010   23.7580 N   0  0  0  0  0  0  0  0  0  0  0  0
  -26.0510  -38.3230   23.8980 H   0  0  0  0  0  0  0  0  0  0  0  0
  -26.3890  -31.7510   25.1300 C   0  0  1  0  0  0  0  0  0  0  0  0
  -25.2970  -31.5160   26.1990 C   0  0  0  0  0  1  0  0  0  0  0  0
  -26.9760  -30.3720   24.7480 C   0  0  0  0  0  1  0  0  0  0  0  0
  -27.5390  -32.5510   25.7870 C   0  0  0  0  0  1  0  0  0  0  0  0
  -29.8040  -16.6530   19.6160 C   0  0  0  0  0  2  0  0  0  0  0  0
  -30.8400  -14.5580   20.4060 C   0  0  0  0  0  0  0  0  0  0  0  0
  -30.5560  -12.3670   19.3150 C   0  0  0  0  0  2  0  0  0  0  0  0
  -29.6330  -12.5760   18.0920 C   0  0  0  0  0  2  0  0  0  0  0  0
  -28.1520  -12.4510   18.5010 C   0  0  0  0  0  2  0  0  0  0  0  0
  -27.8050  -13.2860   19.7620 C   0  0  0  0  0  3  0  0  0  0  0  0
  -28.8490  -13.0780   20.8870 C   0  0  0  0  0  2  0  0  0  0  0  0
  -30.1820  -13.3630   20.3360 N   0  0  0  0  0  0  0  0  0  0  0  0
  -31.9920  -14.7000   19.9880 O   0  0  0  0  0  0  0  0  0  0  0  0
  -30.0680  -15.6400   20.6670 N   0  0  0  0  0  0  0  0  0  0  0  0
  -29.2460  -15.4210   21.2100 H   0  0  0  0  0  0  0  0  0  0  0  0
  -25.4010  -13.9120   20.4310 C   0  0  0  0  0  0  0  0  0  0  0  0
  -24.3220  -13.1490   20.7900 C   0  0  0  0  0  0  0  0  0  0  0  0
  -24.7760  -11.7960   20.7810 C   0  0  0  0  0  0  0  0  0  0  0  0
  -26.4440  -13.0230   20.2240 N   0  0  0  0  0  0  0  0  0  0  0  0
  -26.0710  -11.7450   20.4920 N   0  0  0  0  0  0  0  0  0  0  0  0
  -24.0400  -10.5390   20.9720 C   0  0  0  0  0  0  0  0  0  0  0  0
  -24.4570   -9.5730   21.9130 C   0  0  0  0  0  3  0  0  0  0  0  0
  -23.7210   -8.3820   22.0910 C   0  0  0  0  0  3  0  0  0  0  0  0
  -22.5520   -8.1480   21.3270 C   0  0  0  0  0  0  0  0  0  0  0  0
  -22.1550   -9.1030   20.3740 C   0  0  0  0  0  3  0  0  0  0  0  0
  -22.8930  -10.2860   20.1940 C   0  0  0  0  0  3  0  0  0  0  0  0
  -21.7900   -7.0090   21.4130 O   0  0  0  0  0  0  0  0  0  0  0  0
  -21.7220   -6.2740   22.5690 C   0  0  0  0  0  0  0  0  0  0  0  0
  -21.2880   -6.8400   23.7880 C   0  0  0  0  0  3  0  0  0  0  0  0
  -21.1670   -6.0320   24.9360 C   0  0  0  0  0  3  0  0  0  0  0  0
  -21.4690   -4.6590   24.8670 C   0  0  0  0  0  0  0  0  0  0  0  0
  -21.8990   -4.0930   23.6540 C   0  0  0  0  0  3  0  0  0  0  0  0
  -22.0210   -4.8980   22.5080 C   0  0  0  0  0  0  0  0  0  0  0  0
  -22.4140   -4.3430   21.3360 F   0  0  0  0  0  0  0  0  0  0  0  0
  -21.3470   -3.8800   25.9670 F   0  0  0  0  0  0  0  0  0  0  0  0
  -22.9230  -13.6380   21.0360 C   0  0  0  0  0  0  0  0  0  0  0  0
  -22.1790  -12.9590   21.9010 N   0  0  0  0  0  0  0  0  0  0  0  0
  -22.4980  -14.6600   20.4970 O   0  0  0  0  0  0  0  0  0  0  0  0
  -22.5350  -12.1330   22.3620 H   0  0  0  0  0  0  0  0  0  0  0  0
  -21.2400  -13.2700   22.1090 H   0  0  0  0  0  0  0  0  0  0  0  0
  -25.5750  -15.2800   20.2430 N   0  0  0  0  0  0  0  0  0  0  0  0
  -24.8100  -15.9380   20.3360 H   0  0  0  0  0  0  0  0  0  0  0  0
  -26.4290  -15.7130   19.9170 H   0  0  0  0  0  0  0  0  0  0  0  0
  -31.2380  -18.3940   17.5590 C   0  0  0  0  0  2  0  0  0  0  0  0
  -32.6540  -17.8130   17.7420 C   0  0  0  0  0  2  0  0  0  0  0  0
  -32.4420  -15.6700   16.3580 C   0  0  0  0  0  1  0  0  0  0  0  0
  -34.6830  -16.7800   16.6480 C   0  0  0  0  0  1  0  0  0  0  0  0
  -33.1730  -17.0160   16.5270 C   0  0  0  0  0  3  0  0  0  0  0  0
  2  3  2  0
  3  1  1  0
  3  7  1  0
  4  1  2  0
  5  2  1  0
  5  4  1  0
  7  6  1  0
  8  9  1  0
  8  7  1  0
 10 11  1  0
 10  9  1  0
 12 23  2  0
 13 11  1  0
 13 18  1  0
 14 22  1  0
 14 24  1  0
 15 21  1  0
 15 17  1  0
 16 22  1  0
 17 16  1  0
 18 17  2  0
 19 20  1  0
 19 13  2  0
 20 15  2  0
 21 14  1  0
 22 12  1  0
 24 26  2  0
 25 24  1  0
 27 25  1  0
 28 37  2  0
 28 33  1  0
 29 25  1  0
 29 33  1  0
 30 29  1  0
 31 32  1  0
 31 30  1  0
 32 28  1  0
 33 34  2  0
 34 35  1  0
 36 35  2  0
 37 36  1  0
 38 12  1  0
 38 39  1  0
 38 48  1  0
 39 42  1  0
 40 44  1  0
 40 39  1  0
 41 40  2  0
 44 43  1  0
 46 44  1  0
 46 47  1  0
 46 45  1  0
 48 51  1  1
 48 49  1  0
 50 48  1  0
 52  4  1  0
 52 61  1  0
 53 61  1  0
 54 59  1  0
 55 56  1  0
 55 54  1  0
 57 56  1  0
 57 66  1  0
 57 58  1  0
 59 53  1  0
 59 58  1  0
 60 53  2  0
 61 62  1  0
 63 64  2  0
 64 83  1  0
 65 64  1  0
 65 68  1  0
 66 63  1  0
 66 67  1  0
 67 65  2  0
 68 69  1  0
 69 70  2  0
 71 74  1  0
 71 70  1  0
 72 71  2  0
 73 72  1  0
 73 68  2  0
 74 75  1  0
 75 76  1  0
 76 77  2  0
 78 77  1  0
 78 82  1  0
 79 78  2  0
 80 75  2  0
 80 79  1  0
 81 80  1  0
 83 84  1  0
 84 87  1  0
 84 86  1  0
 85 83  2  0
 88 89  1  0
 88 63  1  0
 90 88  1  0
 91 92  1  0
 91  5  1  0
 93 95  1  0
 95 94  1  0
 95 92  1  0
M  ISO  4  10 101  11 101  53 100  61 100
M  END
>  <TORSDO>  (18) 
F 24

>  <SCORE>  (18) 
-12.645

>  <name>  (18) 
18

>  <ligand_id>  (18) 
18

>  <original_smiles>  (18) 
[H]c1c([H])c([H])c2c(c1[H])C([H])([H])C([H])([H])C([H])([H])C2([H])N([H])C(=O)C1([H])N(C(=O)C([H])(N([H])C(=O)C([H])(N([H])C([H])([H])[H])C([H])([H])[H])C(C([H])([H])[H])(C([H])([H])[H])C([H])([H])[H])C([H])([H])c2c([H])c(OC([H])([H])C([H])([H])C([H])([H])N(c3c([H])c(C([H])([H])N([H])C(=O)N4C([H])([H])C([H])([H])C([H])([H])C([H])(n5nc(-c6c([H])c([H])c(Oc7c([H])c([H])c(F)c([H])c7F)c([H])c6[H])c(C(=O)N([H])[H])c5N([H])[H])C4([H])[H])n(C([H])([H])C([H])([H])C([H])(C([H])([H])[H])C([H])([H])[H])c3[H])C([H])([H])[H])c([H])c([H])c2C1([H])[H]

>  <smiles>  (18) 
[H]c1c([H])c([H])c2c(c1[H])C([H])([H])C([H])([H])C([H])([H])C2([H])N([H])C(=O)C1([H])N(C(=O)C([H])(N([H])C(=O)C([H])(N([H])C([H])([H])[H])C([H])([H])[H])C(C([H])([H])[H])(C([H])([H])[H])C([H])([H])[H])C([H])([H])c2c([H])c(OC([H])([H])C([H])([H])C([H])([H])N(c3c([H])c(C([H])([H])N([H])C(=O)N4C([H])([H])C([H])([H])C([H])([H])C([H])(n5nc(-c6c([H])c([H])c(Oc7c([H])c([H])c(F)c([H])c7F)c([H])c6[H])c(C(=O)N([H])[H])c5N([H])[H])C4([H])[H])n(C([H])([H])C([H])([H])C([H])(C([H])([H])[H])C([H])([H])[H])c3[H])C([H])([H])[H])c([H])c([H])c2C1([H])[H]

$$$$
19:0:0
     RDKit          3D

 92100  0  0  1  0  0  0  0  0999 V2000
  -28.7330  -20.2860   17.3070 C   0  0  0  0  0  3  0  0  0  0  0  0
  -29.3020  -22.3510   18.3860 C   0  0  0  0  0  3  0  0  0  0  0  0
  -29.1480  -21.6090   17.2150 C   0  0  0  0  0  0  0  0  0  0  0  0
  -28.6210  -19.6600   18.5570 C   0  0  0  0  0  0  0  0  0  0  0  0
  -29.0850  -21.8470   19.6940 C   0  0  0  0  0  0  0  0  0  0  0  0
  -28.9690  -20.3140   19.7900 C   0  0  0  0  0  0  0  0  0  0  0  0
  -29.3670  -22.2620   15.8650 C   0  0  0  0  0  1  0  0  0  0  0  0
  -28.0670  -18.2380   18.4830 C   0  0  0  0  0  1  0  0  0  0  0  0
  -30.5360  -23.5640   20.9820 C   0  0  0  0  0  1  0  0  0  0  0  0
  -29.0810  -23.1740   20.6930 C   0  0  0  0  0  3  0  0  0  0  0  0
  -28.2000  -24.6120   20.3020 C   0  0  0  0  0  2  0  0  0  0  0  0
  -28.4140  -26.1270   20.6670 O   0  0  0  0  0  0  0  0  0  0  0  0
  -24.6670  -31.8990   23.3760 C   0  0  0  0  0  0  0  0  0  0  0  0
  -27.3740  -27.1290   20.5200 C   0  0  0  0  0  0  0  0  0  0  0  0
  -23.5390  -30.4790   21.7100 C   0  0  0  0  0  3  0  0  0  0  0  0
  -25.0490  -28.8870   20.3630 C   0  0  0  0  0  0  0  0  0  0  0  0
  -26.0980  -30.7400   21.6480 C   0  0  0  0  0  2  0  0  0  0  0  0
  -26.2010  -29.3380   21.0190 C   0  0  0  0  0  0  0  0  0  0  0  0
  -27.3630  -28.4740   21.0810 C   0  0  0  0  0  3  0  0  0  0  0  0
  -26.1970  -26.7920   19.8130 C   0  0  0  0  0  3  0  0  0  0  0  0
  -25.0620  -27.6290   19.7440 C   0  0  0  0  0  3  0  0  0  0  0  0
  -23.8180  -29.7840   20.3490 C   0  0  0  0  0  2  0  0  0  0  0  0
  -24.7860  -31.0630   22.3000 N   0  0  0  0  0  0  0  0  0  0  0  0
  -23.5600  -32.1880   23.8550 O   0  0  0  0  0  0  0  0  0  0  0  0
  -22.8220  -29.4830   22.6560 C   0  0  0  0  0  0  0  0  0  0  0  0
  -21.5110  -29.2670   22.4440 N   0  0  0  0  0  0  0  0  0  0  0  0
  -23.4510  -28.9070   23.5480 O   0  0  0  0  0  0  0  0  0  0  0  0
  -21.0600  -29.7830   21.7030 H   0  0  0  0  0  0  0  0  0  0  0  0
  -18.1400  -27.9760   22.7530 C   0  0  0  0  0  0  0  0  0  0  0  0
  -20.6640  -28.3320   23.1900 C   0  0  0  0  0  3  0  0  0  0  0  0
  -20.8500  -26.8840   22.6780 C   0  0  0  0  0  2  0  0  0  0  0  0
  -19.8330  -26.4900   21.6010 C   0  0  0  0  0  2  0  0  0  0  0  0
  -18.4060  -26.6110   22.1400 C   0  0  0  0  0  2  0  0  0  0  0  0
  -19.2020  -28.7900   23.2310 C   0  0  0  0  0  0  0  0  0  0  0  0
  -18.9000  -30.0630   23.7630 C   0  0  0  0  0  3  0  0  0  0  0  0
  -17.5720  -30.5230   23.8210 C   0  0  0  0  0  3  0  0  0  0  0  0
  -16.5240  -29.7070   23.3580 C   0  0  0  0  0  3  0  0  0  0  0  0
  -16.8080  -28.4360   22.8300 C   0  0  0  0  0  3  0  0  0  0  0  0
  -25.9160  -32.5480   24.0460 C   0  0  0  0  0  3  0  0  0  0  0  0
  -26.3390  -31.8350   25.3890 C   0  0  1  0  0  0  0  0  0  0  0  0
  -25.1750  -31.6480   26.3890 C   0  0  0  0  0  1  0  0  0  0  0  0
  -26.9420  -30.4400   25.1070 C   0  0  0  0  0  1  0  0  0  0  0  0
  -27.4450  -32.6570   26.0920 C   0  0  0  0  0  1  0  0  0  0  0  0
  -25.6060  -33.9660   24.2960 N   0  0  0  0  0  0  0  0  0  0  0  0
  -25.9790  -34.9810   23.5060 C   0  0  0  0  0  0  0  0  0  0  0  0
  -26.6860  -34.8230   22.5060 O   0  0  0  0  0  0  0  0  0  0  0  0
  -24.9830  -34.1610   25.0650 H   0  0  0  0  0  0  0  0  0  0  0  0
  -24.2890  -36.7790   23.0080 C   0  0  0  0  0  1  0  0  0  0  0  0
  -25.4940  -36.3950   23.8820 C   0  0  0  0  0  3  0  0  0  0  0  0
  -27.5930  -37.3110   24.7700 C   0  0  0  0  0  1  0  0  0  0  0  0
  -26.5430  -37.4310   23.7610 N   0  0  0  0  0  0  0  0  0  0  0  0
  -26.1410  -38.3620   23.8300 H   0  0  0  0  0  0  0  0  0  0  0  0
  -29.1340  -19.1760   20.9740 C   0  0  0  0  0  2  0  0  0  0  0  0
  -30.1330  -17.7810   20.8430 C   0  0  0  0  0  2  0  0  0  0  0  0
  -30.5540  -15.0520   20.8500 C   0  0  0  0  0  0  0  0  0  0  0  0
  -30.5060  -12.7240   19.8330 C   0  0  0  0  0  2  0  0  0  0  0  0
  -29.6120  -12.6960   18.5720 C   0  0  0  0  0  2  0  0  0  0  0  0
  -28.1450  -12.4310   18.9550 C   0  0  0  0  0  2  0  0  0  0  0  0
  -27.6810  -13.3030   20.1500 C   0  0  0  0  0  3  0  0  0  0  0  0
  -28.7040  -13.3150   21.3070 C   0  0  0  0  0  2  0  0  0  0  0  0
  -29.9780  -13.7820   20.7460 N   0  0  0  0  0  0  0  0  0  0  0  0
  -31.7590  -15.1340   20.5890 O   0  0  0  0  0  0  0  0  0  0  0  0
  -29.7720  -16.2380   21.0290 N   0  0  0  0  0  0  0  0  0  0  0  0
  -28.8000  -16.0540   21.2280 H   0  0  0  0  0  0  0  0  0  0  0  0
  -25.2640  -13.7890   20.8300 C   0  0  0  0  0  0  0  0  0  0  0  0
  -24.2140  -12.9730   21.1480 C   0  0  0  0  0  0  0  0  0  0  0  0
  -24.7210  -11.6380   21.1000 C   0  0  0  0  0  0  0  0  0  0  0  0
  -26.3410  -12.9490   20.6010 N   0  0  0  0  0  0  0  0  0  0  0  0
  -26.0210  -11.6480   20.8300 N   0  0  0  0  0  0  0  0  0  0  0  0
  -24.0260  -10.3510   21.2360 C   0  0  0  0  0  0  0  0  0  0  0  0
  -24.4160   -9.3980   22.2030 C   0  0  0  0  0  3  0  0  0  0  0  0
  -23.7190   -8.1780   22.3280 C   0  0  0  0  0  3  0  0  0  0  0  0
  -22.6170   -7.8990   21.4840 C   0  0  0  0  0  0  0  0  0  0  0  0
  -22.2480   -8.8410   20.5080 C   0  0  0  0  0  3  0  0  0  0  0  0
  -22.9460  -10.0520   20.3800 C   0  0  0  0  0  3  0  0  0  0  0  0
  -21.8980   -6.7290   21.5160 O   0  0  0  0  0  0  0  0  0  0  0  0
  -21.7590   -6.0010   22.6700 C   0  0  0  0  0  0  0  0  0  0  0  0
  -21.1020   -6.5220   23.8060 C   0  0  0  0  0  3  0  0  0  0  0  0
  -20.9210   -5.7140   24.9460 C   0  0  0  0  0  3  0  0  0  0  0  0
  -21.3860   -4.3860   24.9500 C   0  0  0  0  0  0  0  0  0  0  0  0
  -22.0340   -3.8630   23.8180 C   0  0  0  0  0  3  0  0  0  0  0  0
  -22.2170   -4.6680   22.6800 C   0  0  0  0  0  0  0  0  0  0  0  0
  -22.8240   -4.1530   21.5840 F   0  0  0  0  0  0  0  0  0  0  0  0
  -21.2050   -3.6070   26.0430 F   0  0  0  0  0  0  0  0  0  0  0  0
  -22.7950  -13.4030   21.3830 C   0  0  0  0  0  0  0  0  0  0  0  0
  -22.0570  -12.6580   22.1990 N   0  0  0  0  0  0  0  0  0  0  0  0
  -22.3480  -14.4330   20.8800 O   0  0  0  0  0  0  0  0  0  0  0  0
  -22.4320  -11.8250   22.6270 H   0  0  0  0  0  0  0  0  0  0  0  0
  -21.1040  -12.9260   22.3990 H   0  0  0  0  0  0  0  0  0  0  0  0
  -25.3890  -15.1670   20.6890 N   0  0  0  0  0  0  0  0  0  0  0  0
  -24.5950  -15.7910   20.7840 H   0  0  0  0  0  0  0  0  0  0  0  0
  -26.2230  -15.6370   20.3600 H   0  0  0  0  0  0  0  0  0  0  0  0
  1  4  1  0
  2  5  2  0
  3  1  2  0
  3  2  1  0
  4  6  2  0
  5  6  1  0
  5 10  1  0
  6 53  1  0
  7  3  1  0
  8  4  1  0
 10  9  1  0
 11 12  1  0
 11 10  1  0
 13 24  2  0
 14 12  1  0
 14 19  1  0
 15 23  1  0
 15 25  1  0
 16 18  1  0
 17 23  1  0
 18 19  2  0
 18 17  1  0
 20 14  2  0
 21 20  1  0
 21 16  2  0
 22 16  1  0
 22 15  1  0
 23 13  1  0
 25 27  2  0
 26 25  1  0
 28 26  1  0
 29 38  2  0
 29 34  1  0
 30 26  1  0
 30 34  1  0
 31 30  1  0
 32 33  1  0
 32 31  1  0
 33 29  1  0
 34 35  2  0
 35 36  1  0
 37 36  2  0
 38 37  1  0
 39 13  1  0
 39 44  1  0
 39 40  1  0
 40 43  1  1
 40 41  1  0
 42 40  1  0
 44 47  1  0
 45 49  1  0
 45 44  1  0
 46 45  2  0
 49 48  1  0
 51 52  1  0
 51 49  1  0
 51 50  1  0
 54 53  1  0
 54 63  1  0
 55 63  1  0
 56 61  1  0
 57 58  1  0
 57 56  1  0
 59 58  1  0
 59 68  1  0
 59 60  1  0
 61 55  1  0
 61 60  1  0
 62 55  2  0
 63 64  1  0
 65 66  2  0
 66 85  1  0
 67 66  1  0
 67 70  1  0
 68 65  1  0
 68 69  1  0
 69 67  2  0
 70 71  1  0
 71 72  2  0
 73 76  1  0
 73 72  1  0
 74 73  2  0
 75 74  1  0
 75 70  2  0
 76 77  1  0
 77 82  2  0
 77 78  1  0
 78 79  2  0
 79 80  1  0
 80 84  1  0
 81 80  2  0
 82 81  1  0
 83 82  1  0
 85 86  1  0
 86 89  1  0
 86 88  1  0
 87 85  2  0
 90 91  1  0
 90 65  1  0
 92 90  1  0
M  ISO  4  11 101  12 101  55 100  63 100
M  END
>  <TORSDO>  (19) 
F 20

>  <SCORE>  (19) 
-14.458

>  <name>  (19) 
19

>  <ligand_id>  (19) 
19

>  <original_smiles>  (19) 
[H]c1c([H])c([H])c2c(c1[H])C([H])([H])C([H])([H])C([H])([H])C2([H])N([H])C(=O)C1([H])N(C(=O)C([H])(N([H])C(=O)C([H])(N([H])C([H])([H])[H])C([H])([H])[H])C(C([H])([H])[H])(C([H])([H])[H])C([H])([H])[H])C([H])([H])c2c([H])c(OC([H])([H])C([H])(c3c([H])c(C([H])([H])[H])c([H])c(C([H])([H])[H])c3C([H])([H])C([H])([H])N([H])C(=O)N3C([H])([H])C([H])([H])C([H])([H])C([H])(n4nc(-c5c([H])c([H])c(Oc6c([H])c([H])c(F)c([H])c6F)c([H])c5[H])c(C(=O)N([H])[H])c4N([H])[H])C3([H])[H])C([H])([H])[H])c([H])c([H])c2C1([H])[H]

>  <smiles>  (19) 
[H]c1c([H])c([H])c2c(c1[H])C([H])([H])C([H])([H])C([H])([H])C2([H])N([H])C(=O)C1([H])N(C(=O)C([H])(N([H])C(=O)C([H])(N([H])C([H])([H])[H])C([H])([H])[H])C(C([H])([H])[H])(C([H])([H])[H])C([H])([H])[H])C([H])([H])c2c([H])c(OC([H])([H])C([H])(c3c([H])c(C([H])([H])[H])c([H])c(C([H])([H])[H])c3C([H])([H])C([H])([H])N([H])C(=O)N3C([H])([H])C([H])([H])C([H])([H])C([H])(n4nc(-c5c([H])c([H])c(Oc6c([H])c([H])c(F)c([H])c6F)c([H])c5[H])c(C(=O)N([H])[H])c4N([H])[H])C3([H])[H])C([H])([H])[H])c([H])c([H])c2C1([H])[H]

$$$$
20:0:0
     RDKit          3D

 83 90  0  0  1  0  0  0  0  0999 V2000
  -27.9770  -23.9420   20.2520 C   0  0  0  0  0  3  0  0  0  0  0  0
  -28.1620  -25.6720   20.2750 O   0  0  0  0  0  0  0  0  0  0  0  0
  -24.6340  -31.8930   23.2090 C   0  0  0  0  0  0  0  0  0  0  0  0
  -27.1660  -26.8490   20.2330 C   0  0  0  0  0  0  0  0  0  0  0  0
  -23.4400  -30.4880   21.5810 C   0  0  0  0  0  3  0  0  0  0  0  0
  -24.8850  -28.8420   20.1730 C   0  0  0  0  0  0  0  0  0  0  0  0
  -26.0160  -30.6470   21.4440 C   0  0  0  0  0  2  0  0  0  0  0  0
  -26.0810  -29.2160   20.7960 C   0  0  0  0  0  0  0  0  0  0  0  0
  -27.2080  -28.2460   20.7930 C   0  0  0  0  0  3  0  0  0  0  0  0
  -25.9320  -26.6670   19.5590 C   0  0  0  0  0  3  0  0  0  0  0  0
  -24.8460  -27.5910   19.5320 C   0  0  0  0  0  3  0  0  0  0  0  0
  -23.6760  -29.7870   20.2130 C   0  0  0  0  0  2  0  0  0  0  0  0
  -24.7210  -31.0410   22.1300 N   0  0  0  0  0  0  0  0  0  0  0  0
  -23.5430  -32.1940   23.7230 O   0  0  0  0  0  0  0  0  0  0  0  0
  -22.7310  -29.5100   22.5560 C   0  0  0  0  0  0  0  0  0  0  0  0
  -21.3980  -29.3540   22.4330 N   0  0  0  0  0  0  0  0  0  0  0  0
  -23.3890  -28.8910   23.3950 O   0  0  0  0  0  0  0  0  0  0  0  0
  -20.9190  -29.9100   21.7390 H   0  0  0  0  0  0  0  0  0  0  0  0
  -18.0110  -28.1460   22.9530 C   0  0  0  0  0  0  0  0  0  0  0  0
  -20.5730  -28.4200   23.2090 C   0  0  0  0  0  3  0  0  0  0  0  0
  -20.6740  -26.9830   22.6430 C   0  0  0  0  0  2  0  0  0  0  0  0
  -19.5720  -26.6560   21.6300 C   0  0  0  0  0  2  0  0  0  0  0  0
  -18.1910  -26.7970   22.2780 C   0  0  0  0  0  2  0  0  0  0  0  0
  -19.1290  -28.9140   23.3750 C   0  0  0  0  0  0  0  0  0  0  0  0
  -18.9060  -30.1740   23.9730 C   0  0  0  0  0  3  0  0  0  0  0  0
  -17.5990  -30.6660   24.1490 C   0  0  0  0  0  3  0  0  0  0  0  0
  -16.4960  -29.8960   23.7400 C   0  0  0  0  0  3  0  0  0  0  0  0
  -16.7040  -28.6370   23.1480 C   0  0  0  0  0  3  0  0  0  0  0  0
  -25.9000  -32.5430   23.8440 C   0  0  0  0  0  3  0  0  0  0  0  0
  -26.4050  -31.7810   25.1330 C   0  0  1  0  0  0  0  0  0  0  0  0
  -25.3030  -31.5520   26.1950 C   0  0  0  0  0  1  0  0  0  0  0  0
  -26.9900  -30.4000   24.7650 C   0  0  0  0  0  1  0  0  0  0  0  0
  -27.5520  -32.5800   25.7960 C   0  0  0  0  0  1  0  0  0  0  0  0
  -25.5780  -33.9420   24.1850 N   0  0  0  0  0  0  0  0  0  0  0  0
  -25.8770  -35.0090   23.4300 C   0  0  0  0  0  0  0  0  0  0  0  0
  -26.5140  -34.9190   22.3770 O   0  0  0  0  0  0  0  0  0  0  0  0
  -25.0080  -34.0850   25.0050 H   0  0  0  0  0  0  0  0  0  0  0  0
  -24.1150  -36.7930   23.1700 C   0  0  0  0  0  1  0  0  0  0  0  0
  -25.4000  -36.3940   23.9170 C   0  0  0  0  0  3  0  0  0  0  0  0
  -27.5590  -37.3080   24.6490 C   0  0  0  0  0  1  0  0  0  0  0  0
  -26.4140  -37.4610   23.7560 N   0  0  0  0  0  0  0  0  0  0  0  0
  -26.0030  -38.3760   23.9220 H   0  0  0  0  0  0  0  0  0  0  0  0
  -29.0010  -22.3180   20.2390 C   0  0  0  0  0  3  0  0  0  0  0  0
  -28.7820  -20.4130   20.2980 C   0  0  0  0  0  3  0  0  0  0  0  0
  -29.8210  -18.7980   20.2210 C   0  0  0  0  0  3  0  0  0  0  0  0
  -30.3040  -15.6940   20.1720 C   0  0  0  0  0  0  0  0  0  0  0  0
  -30.3910  -13.1780   19.3000 C   0  0  0  0  0  2  0  0  0  0  0  0
  -29.4600  -12.7830   18.1200 C   0  0  0  0  0  2  0  0  0  0  0  0
  -28.0570  -12.4070   18.6230 C   0  0  0  0  0  2  0  0  0  0  0  0
  -27.5710  -13.3930   19.7060 C   0  0  0  0  0  3  0  0  0  0  0  0
  -28.6400  -13.6720   20.7900 C   0  0  0  0  0  2  0  0  0  0  0  0
  -29.7790  -14.3310   20.0990 N   0  0  0  0  0  0  0  0  0  0  0  0
  -31.5360  -15.6380   19.9800 O   0  0  0  0  0  0  0  0  0  0  0  0
  -28.0950  -16.9420   20.3360 C   0  0  0  0  0  1  0  0  0  0  0  0
  -29.5460  -17.0590   20.2530 N   0  0  0  0  0  0  0  0  0  0  0  0
  -25.2270  -13.9050   20.5530 C   0  0  0  0  0  0  0  0  0  0  0  0
  -24.1820  -13.1120   20.9300 C   0  0  0  0  0  0  0  0  0  0  0  0
  -24.6590  -11.7670   20.8520 C   0  0  0  0  0  0  0  0  0  0  0  0
  -26.2700  -13.0450   20.2580 N   0  0  0  0  0  0  0  0  0  0  0  0
  -25.9430  -11.7510   20.5060 N   0  0  0  0  0  0  0  0  0  0  0  0
  -23.9460  -10.4970   21.0300 C   0  0  0  0  0  0  0  0  0  0  0  0
  -24.3830   -9.5290   21.9600 C   0  0  0  0  0  3  0  0  0  0  0  0
  -23.6650   -8.3240   22.1280 C   0  0  0  0  0  3  0  0  0  0  0  0
  -22.4970   -8.0820   21.3680 C   0  0  0  0  0  0  0  0  0  0  0  0
  -22.0790   -9.0400   20.4260 C   0  0  0  0  0  3  0  0  0  0  0  0
  -22.7970  -10.2350   20.2560 C   0  0  0  0  0  3  0  0  0  0  0  0
  -21.7510   -6.9310   21.4470 O   0  0  0  0  0  0  0  0  0  0  0  0
  -21.6660   -6.2070   22.6100 C   0  0  0  0  0  0  0  0  0  0  0  0
  -21.1570   -6.7690   23.8010 C   0  0  0  0  0  3  0  0  0  0  0  0
  -21.0230   -5.9700   24.9530 C   0  0  0  0  0  3  0  0  0  0  0  0
  -21.3870   -4.6100   24.9160 C   0  0  0  0  0  0  0  0  0  0  0  0
  -21.8880   -4.0490   23.7290 C   0  0  0  0  0  3  0  0  0  0  0  0
  -22.0250   -4.8450   22.5780 C   0  0  0  0  0  0  0  0  0  0  0  0
  -22.4900   -4.2930   21.4300 F   0  0  0  0  0  0  0  0  0  0  0  0
  -21.2500   -3.8400   26.0200 F   0  0  0  0  0  0  0  0  0  0  0  0
  -22.7910  -13.5760   21.2460 C   0  0  0  0  0  0  0  0  0  0  0  0
  -22.0930  -12.8600   22.1190 N   0  0  0  0  0  0  0  0  0  0  0  0
  -22.3340  -14.6080   20.7550 O   0  0  0  0  0  0  0  0  0  0  0  0
  -22.4780  -12.0280   22.5390 H   0  0  0  0  0  0  0  0  0  0  0  0
  -21.1590  -13.1510   22.3740 H   0  0  0  0  0  0  0  0  0  0  0  0
  -25.3630  -15.2790   20.4050 N   0  0  0  0  0  0  0  0  0  0  0  0
  -24.5980  -15.9230   20.5720 H   0  0  0  0  0  0  0  0  0  0  0  0
  -26.2100  -15.7380   20.1030 H   0  0  0  0  0  0  0  0  0  0  0  0
  1  2  1  0
  3 14  2  0
  4  2  1  0
  4  9  1  0
  5 13  1  0
  5 15  1  0
  6 12  1  0
  6  8  1  0
  7 13  1  0
  8  7  1  0
  9  8  2  0
 10  4  2  0
 11 10  1  0
 11  6  2  0
 12  5  1  0
 13  3  1  0
 15 17  2  0
 16 15  1  0
 18 16  1  0
 19 28  2  0
 19 24  1  0
 20 16  1  0
 20 24  1  0
 21 20  1  0
 22 23  1  0
 22 21  1  0
 23 19  1  0
 24 25  2  0
 25 26  1  0
 27 26  2  0
 28 27  1  0
 29  3  1  0
 29 34  1  0
 29 30  1  0
 30 33  1  1
 30 31  1  0
 32 30  1  0
 34 37  1  0
 35 39  1  0
 35 34  1  0
 36 35  2  0
 39 38  1  0
 41 39  1  0
 41 42  1  0
 41 40  1  0
 43  1  2  0
 43 44  1  0
 45 55  1  0
 45 44  2  0
 46 55  1  0
 47 52  1  0
 48 49  1  0
 48 47  1  0
 50 49  1  0
 50 59  1  0
 50 51  1  0
 52 46  1  0
 52 51  1  0
 53 46  2  0
 55 54  1  0
 56 57  2  0
 57 76  1  0
 58 57  1  0
 58 61  1  0
 59 60  1  0
 59 56  1  0
 60 58  2  0
 61 62  1  0
 62 63  2  0
 64 67  1  0
 64 63  1  0
 65 64  2  0
 66 65  1  0
 66 61  2  0
 67 68  1  0
 68 69  1  0
 69 70  2  0
 71 70  1  0
 71 75  1  0
 72 71  2  0
 73 68  2  0
 73 72  1  0
 74 73  1  0
 76 77  1  0
 77 80  1  0
 77 79  1  0
 78 76  2  0
 81 56  1  0
 81 82  1  0
 83 81  1  0
M  ISO  4   1 101   2 101  46 100  55 100
M  END
>  <TORSDO>  (20) 
F 19

>  <SCORE>  (20) 
-16.403

>  <name>  (20) 
20

>  <ligand_id>  (20) 
20

>  <original_smiles>  (20) 
[H]c1c([H])c([H])c2c(c1[H])C([H])([H])C([H])([H])C([H])([H])C2([H])N([H])C(=O)C1([H])N(C(=O)C([H])(N([H])C(=O)C([H])(N([H])C([H])([H])[H])C([H])([H])[H])C(C([H])([H])[H])(C([H])([H])[H])C([H])([H])[H])C([H])([H])c2c([H])c(OC([H])([H])C([H])([H])C([H])([H])C([H])([H])N(C(=O)N3C([H])([H])C([H])([H])C([H])([H])C([H])(n4nc(-c5c([H])c([H])c(Oc6c([H])c([H])c(F)c([H])c6F)c([H])c5[H])c(C(=O)N([H])[H])c4N([H])[H])C3([H])[H])C([H])([H])[H])c([H])c([H])c2C1([H])[H]

>  <smiles>  (20) 
[H]c1c([H])c([H])c2c(c1[H])C([H])([H])C([H])([H])C([H])([H])C2([H])N([H])C(=O)C1([H])N(C(=O)C([H])(N([H])C(=O)C([H])(N([H])C([H])([H])[H])C([H])([H])[H])C(C([H])([H])[H])(C([H])([H])[H])C([H])([H])[H])C([H])([H])c2c([H])c(OC([H])([H])C([H])([H])C([H])([H])C([H])([H])N(C(=O)N3C([H])([H])C([H])([H])C([H])([H])C([H])(n4nc(-c5c([H])c([H])c(Oc6c([H])c([H])c(F)c([H])c6F)c([H])c5[H])c(C(=O)N([H])[H])c4N([H])[H])C3([H])[H])C([H])([H])[H])c([H])c([H])c2C1([H])[H]

$$$$
21:0:0
     RDKit          3D

 94102  0  0  1  0  0  0  0  0999 V2000
  -31.4320  -19.3510   20.4090 C   0  0  0  0  0  3  0  0  0  0  0  0
  -30.1700  -18.7630   20.6640 C   0  0  0  0  0  0  0  0  0  0  0  0
  -29.1680  -20.5470   19.5180 C   0  0  0  0  0  0  0  0  0  0  0  0
  -30.4590  -21.1100   19.2320 C   0  0  0  0  0  0  0  0  0  0  0  0
  -31.5750  -20.5010   19.7080 N   0  0  0  0  0  0  0  0  0  0  0  0
  -29.0390  -19.3720   20.2160 N   0  0  0  0  0  0  0  0  0  0  0  0
  -29.9840  -22.3490   16.9920 C   0  0  0  0  0  1  0  0  0  0  0  0
  -30.7810  -22.3200   18.3090 C   0  0  0  0  0  3  0  0  0  0  0  0
  -30.8750  -23.6980   19.0330 C   0  0  0  0  0  2  0  0  0  0  0  0
  -30.8970  -24.9690   18.1280 C   0  0  0  0  0  2  0  0  0  0  0  0
  -29.5340  -25.3670   17.5150 C   0  0  0  0  0  2  0  0  0  0  0  0
  -29.3310  -26.7770   17.5200 O   0  0  0  0  0  0  0  0  0  0  0  0
  -25.0360  -29.8290   22.2430 C   0  0  0  0  0  0  0  0  0  0  0  0
  -28.0390  -27.1880   17.7700 C   0  0  0  0  0  0  0  0  0  0  0  0
  -23.9060  -28.7360   20.3340 C   0  0  0  0  0  3  0  0  0  0  0  0
  -25.4180  -28.0460   18.3950 C   0  0  0  0  0  0  0  0  0  0  0  0
  -26.2620  -29.6900   20.0760 C   0  0  0  0  0  2  0  0  0  0  0  0
  -26.5190  -28.6220   19.0390 C   0  0  0  0  0  0  0  0  0  0  0  0
  -27.8310  -28.2110   18.7160 C   0  0  0  0  0  3  0  0  0  0  0  0
  -26.9150  -26.6180   17.1180 C   0  0  0  0  0  3  0  0  0  0  0  0
  -25.6090  -27.0450   17.4250 C   0  0  0  0  0  3  0  0  0  0  0  0
  -24.0510  -28.5520   18.7980 C   0  0  0  0  0  2  0  0  0  0  0  0
  -25.0890  -29.4180   20.9410 N   0  0  0  0  0  0  0  0  0  0  0  0
  -24.0080  -29.6800   22.9170 O   0  0  0  0  0  0  0  0  0  0  0  0
  -23.5990  -27.3580   20.9650 C   0  0  0  0  0  0  0  0  0  0  0  0
  -22.3360  -26.9210   20.8330 N   0  0  0  0  0  0  0  0  0  0  0  0
  -24.4830  -26.7090   21.5320 O   0  0  0  0  0  0  0  0  0  0  0  0
  -21.6760  -27.5260   20.3600 H   0  0  0  0  0  0  0  0  0  0  0  0
  -19.3830  -24.8500   21.0080 C   0  0  0  0  0  0  0  0  0  0  0  0
  -21.8210  -25.6420   21.3140 C   0  0  0  0  0  3  0  0  0  0  0  0
  -22.2100  -24.4940   20.3570 C   0  0  0  0  0  2  0  0  0  0  0  0
  -21.1410  -24.2070   19.3010 C   0  0  0  0  0  2  0  0  0  0  0  0
  -19.8160  -23.8260   19.9720 C   0  0  0  0  0  2  0  0  0  0  0  0
  -20.3250  -25.7140   21.6290 C   0  0  0  0  0  0  0  0  0  0  0  0
  -19.8700  -26.6730   22.5560 C   0  0  0  0  0  3  0  0  0  0  0  0
  -18.5040  -26.7740   22.8760 C   0  0  0  0  0  3  0  0  0  0  0  0
  -17.5750  -25.9050   22.2770 C   0  0  0  0  0  3  0  0  0  0  0  0
  -18.0160  -24.9450   21.3470 C   0  0  0  0  0  3  0  0  0  0  0  0
  -26.2500  -30.5240   22.9320 C   0  0  0  0  0  3  0  0  0  0  0  0
  -25.7350  -31.6850   23.6720 N   0  0  0  0  0  0  0  0  0  0  0  0
  -25.8320  -32.9550   23.2660 C   0  0  0  0  0  0  0  0  0  0  0  0
  -26.4380  -33.2870   22.2420 O   0  0  0  0  0  0  0  0  0  0  0  0
  -25.1820  -31.4840   24.4930 H   0  0  0  0  0  0  0  0  0  0  0  0
  -23.8130  -34.4480   23.4930 C   0  0  0  0  0  1  0  0  0  0  0  0
  -25.1500  -34.0370   24.1290 C   0  0  0  0  0  3  0  0  0  0  0  0
  -27.1490  -34.9920   25.1910 C   0  0  0  0  0  1  0  0  0  0  0  0
  -25.9860  -35.2380   24.3410 N   0  0  0  0  0  0  0  0  0  0  0  0
  -25.4410  -35.9840   24.7650 H   0  0  0  0  0  0  0  0  0  0  0  0
  -27.0560  -29.5610   23.8910 C   0  0  1  0  0  0  0  0  0  0  0  0
  -26.1730  -28.8170   24.9190 C   0  0  0  0  0  1  0  0  0  0  0  0
  -27.8190  -28.4950   23.0690 C   0  0  0  0  0  1  0  0  0  0  0  0
  -28.1090  -30.3650   24.6870 C   0  0  0  0  0  1  0  0  0  0  0  0
  -27.8220  -21.1570   19.1030 C   0  0  0  0  0  2  0  0  0  0  0  0
  -25.9700  -22.8240   19.7070 C   0  0  0  0  0  1  0  0  0  0  0  0
  -27.4670  -22.4810   19.8100 C   0  0  0  0  0  2  0  0  0  0  0  0
  -30.0240  -17.5590   21.6250 C   0  0  0  0  0  2  0  0  0  0  0  0
  -30.4130  -15.2950   20.5950 C   0  0  0  0  0  0  0  0  0  0  0  0
  -30.4460  -12.9990   19.6840 C   0  0  0  0  0  2  0  0  0  0  0  0
  -29.5660  -12.9210   18.4200 C   0  0  0  0  0  2  0  0  0  0  0  0
  -28.0840  -12.7040   18.7920 C   0  0  0  0  0  2  0  0  0  0  0  0
  -27.5850  -13.6720   19.8940 C   0  0  0  0  0  3  0  0  0  0  0  0
  -28.5630  -13.6640   21.0880 C   0  0  0  0  0  2  0  0  0  0  0  0
  -29.8940  -14.0420   20.5620 N   0  0  0  0  0  0  0  0  0  0  0  0
  -31.5310  -15.5620   20.1420 O   0  0  0  0  0  0  0  0  0  0  0  0
  -29.5990  -16.2430   21.1070 N   0  0  0  0  0  0  0  0  0  0  0  0
  -28.6720  -15.9400   21.3900 H   0  0  0  0  0  0  0  0  0  0  0  0
  -25.1440  -14.1950   20.5270 C   0  0  0  0  0  0  0  0  0  0  0  0
  -24.0930  -13.3820   20.8510 C   0  0  0  0  0  0  0  0  0  0  0  0
  -24.6000  -12.0430   20.8110 C   0  0  0  0  0  0  0  0  0  0  0  0
  -26.2240  -13.3510   20.3140 N   0  0  0  0  0  0  0  0  0  0  0  0
  -25.9000  -12.0510   20.5460 N   0  0  0  0  0  0  0  0  0  0  0  0
  -23.9130  -10.7550   20.9490 C   0  0  0  0  0  0  0  0  0  0  0  0
  -24.3460   -9.7820   21.8760 C   0  0  0  0  0  3  0  0  0  0  0  0
  -23.6590   -8.5540   22.0040 C   0  0  0  0  0  3  0  0  0  0  0  0
  -22.5210   -8.2920   21.2030 C   0  0  0  0  0  0  0  0  0  0  0  0
  -22.1050   -9.2540   20.2650 C   0  0  0  0  0  3  0  0  0  0  0  0
  -22.7950  -10.4720   20.1360 C   0  0  0  0  0  3  0  0  0  0  0  0
  -21.8020   -7.1210   21.2430 O   0  0  0  0  0  0  0  0  0  0  0  0
  -21.7620   -6.3410   22.3700 C   0  0  0  0  0  0  0  0  0  0  0  0
  -21.3160   -6.8440   23.6110 C   0  0  0  0  0  3  0  0  0  0  0  0
  -21.2330   -5.9900   24.7310 C   0  0  0  0  0  3  0  0  0  0  0  0
  -21.5700   -4.6280   24.6030 C   0  0  0  0  0  0  0  0  0  0  0  0
  -22.0080   -4.1230   23.3660 C   0  0  0  0  0  3  0  0  0  0  0  0
  -22.0980   -4.9770   22.2530 C   0  0  0  0  0  0  0  0  0  0  0  0
  -22.5010   -4.4780   21.0590 F   0  0  0  0  0  0  0  0  0  0  0  0
  -21.4790   -3.8060   25.6740 F   0  0  0  0  0  0  0  0  0  0  0  0
  -22.6690  -13.8010   21.0780 C   0  0  0  0  0  0  0  0  0  0  0  0
  -21.9340  -13.0720   21.9080 N   0  0  0  0  0  0  0  0  0  0  0  0
  -22.2140  -14.8120   20.5450 O   0  0  0  0  0  0  0  0  0  0  0  0
  -22.3030  -12.2500   22.3660 H   0  0  0  0  0  0  0  0  0  0  0  0
  -20.9750  -13.3330   22.0880 H   0  0  0  0  0  0  0  0  0  0  0  0
  -25.2720  -15.5760   20.3790 N   0  0  0  0  0  0  0  0  0  0  0  0
  -24.4860  -16.2130   20.4780 H   0  0  0  0  0  0  0  0  0  0  0  0
  -26.1170  -16.0480   20.0840 H   0  0  0  0  0  0  0  0  0  0  0  0
  1  2  1  0
  2 56  1  0
  3  6  1  0
  4  3  2  0
  4  5  1  0
  5  1  2  0
  6  2  2  0
  8  7  1  0
  8  9  1  0
  8  4  1  0
 10  9  1  0
 11 12  1  0
 11 10  1  0
 12 14  1  0
 13 24  2  0
 14 19  1  0
 15 23  1  0
 15 25  1  0
 16 22  1  0
 16 18  1  0
 17 23  1  0
 18 17  1  0
 19 18  2  0
 20 21  1  0
 20 14  2  0
 21 16  2  0
 22 15  1  0
 23 13  1  0
 25 27  2  0
 26 25  1  0
 28 26  1  0
 29 38  2  0
 29 34  1  0
 30 26  1  0
 30 34  1  0
 31 30  1  0
 32 33  1  0
 32 31  1  0
 33 29  1  0
 34 35  2  0
 35 36  1  0
 37 36  2  0
 38 37  1  0
 39 13  1  0
 39 40  1  0
 39 49  1  0
 40 43  1  0
 41 40  1  0
 41 45  1  0
 42 41  2  0
 45 44  1  0
 45 47  1  0
 47 48  1  0
 47 46  1  0
 49 52  1  1
 49 50  1  0
 51 49  1  0
 53  3  1  0
 53 55  1  0
 54 55  1  0
 57 65  1  0
 58 63  1  0
 59 60  1  0
 59 58  1  0
 61 60  1  0
 61 70  1  0
 61 62  1  0
 63 57  1  0
 63 62  1  0
 64 57  2  0
 65 66  1  0
 65 56  1  0
 67 68  2  0
 68 87  1  0
 69 68  1  0
 69 72  1  0
 70 67  1  0
 70 71  1  0
 71 69  2  0
 72 73  1  0
 73 74  2  0
 75 78  1  0
 75 74  1  0
 76 75  2  0
 77 76  1  0
 77 72  2  0
 78 79  1  0
 79 80  1  0
 80 81  2  0
 82 81  1  0
 82 86  1  0
 83 82  2  0
 84 79  2  0
 84 83  1  0
 85 84  1  0
 87 88  1  0
 88 91  1  0
 88 90  1  0
 89 87  2  0
 92 93  1  0
 92 67  1  0
 94 92  1  0
M  ISO  4  11 101  12 101  57 100  65 100
M  END
>  <TORSDO>  (21) 
F 23

>  <SCORE>  (21) 
-8.529

>  <name>  (21) 
21

>  <ligand_id>  (21) 
21

>  <original_smiles>  (21) 
[H]c1nc(C([H])(C([H])([H])[H])C([H])([H])C([H])([H])C([H])([H])Oc2c([H])c([H])c3c(c2[H])C([H])([H])N(C(=O)C([H])(N([H])C(=O)C([H])(N([H])C([H])([H])[H])C([H])([H])[H])C(C([H])([H])[H])(C([H])([H])[H])C([H])([H])[H])C([H])(C(=O)N([H])C2([H])c4c([H])c([H])c([H])c([H])c4C([H])([H])C([H])([H])C2([H])[H])C3([H])[H])c(C([H])([H])C([H])([H])C([H])([H])[H])nc1C([H])([H])N([H])C(=O)N1C([H])([H])C([H])([H])C([H])([H])C([H])(n2nc(-c3c([H])c([H])c(Oc4c([H])c([H])c(F)c([H])c4F)c([H])c3[H])c(C(=O)N([H])[H])c2N([H])[H])C1([H])[H]

>  <smiles>  (21) 
[H]c1nc(C([H])(C([H])([H])[H])C([H])([H])C([H])([H])C([H])([H])Oc2c([H])c([H])c3c(c2[H])C([H])([H])N(C(=O)C([H])(N([H])C(=O)C([H])(N([H])C([H])([H])[H])C([H])([H])[H])C(C([H])([H])[H])(C([H])([H])[H])C([H])([H])[H])C([H])(C(=O)N([H])C2([H])c4c([H])c([H])c([H])c([H])c4C([H])([H])C([H])([H])C2([H])[H])C3([H])[H])c(C([H])([H])C([H])([H])C([H])([H])[H])nc1C([H])([H])N([H])C(=O)N1C([H])([H])C([H])([H])C([H])([H])C([H])(n2nc(-c3c([H])c([H])c(Oc4c([H])c([H])c(F)c([H])c4F)c([H])c3[H])c(C(=O)N([H])[H])c2N([H])[H])C1([H])[H]

$$$$
22:0:0
     RDKit          3D

 99107  0  0  1  0  0  0  0  0999 V2000
  -30.9370  -22.0950   20.0910 C   0  0  0  0  0  3  0  0  0  0  0  0
  -31.9250  -21.0730   19.9370 C   0  0  0  0  0  3  0  0  0  0  0  0
  -29.7190  -21.4760   19.8650 C   0  0  0  0  0  3  0  0  0  0  0  0
  -31.3470  -19.8940   19.9710 N   0  0  0  0  0  2  0  0  0  0  0  0
  -30.0090  -20.0570   19.9960 N   0  0  0  0  0  0  0  0  0  0  0  0
  -33.9970  -21.3030   21.3490 C   0  0  0  0  0  1  0  0  0  0  0  0
  -33.9950  -22.2270   18.9840 C   0  0  0  0  0  1  0  0  0  0  0  0
  -34.0480  -19.8000   19.3450 C   0  0  0  0  0  1  0  0  0  0  0  0
  -33.4620  -21.1160   19.9190 C   0  0  2  0  0  0  0  0  0  0  0  0
  -27.9670  -21.9930   18.0950 C   0  0  0  0  0  1  0  0  0  0  0  0
  -28.3450  -22.1880   19.5720 C   0  0  0  0  0  3  0  0  0  0  0  0
  -27.9950  -23.7320   20.0200 C   0  0  0  0  0  3  0  0  0  0  0  0
  -28.0990  -25.0380   19.0740 C   0  0  0  0  0  3  0  0  0  0  0  0
  -28.0960  -26.4270   19.6570 O   0  0  0  0  0  0  0  0  0  0  0  0
  -24.5980  -31.7730   23.0760 C   0  0  0  0  0  0  0  0  0  0  0  0
  -26.9850  -27.2980   19.6770 C   0  0  0  0  0  0  0  0  0  0  0  0
  -23.3130  -30.5090   21.3920 C   0  0  0  0  0  3  0  0  0  0  0  0
  -24.6750  -29.0060   19.8320 C   0  0  0  0  0  0  0  0  0  0  0  0
  -25.8570  -30.7590   21.1570 C   0  0  0  0  0  2  0  0  0  0  0  0
  -25.8760  -29.4170   20.4230 C   0  0  0  0  0  0  0  0  0  0  0  0
  -27.0290  -28.5750   20.3360 C   0  0  0  0  0  3  0  0  0  0  0  0
  -25.7540  -26.9480   19.0750 C   0  0  0  0  0  3  0  0  0  0  0  0
  -24.6200  -27.7810   19.1520 C   0  0  0  0  0  3  0  0  0  0  0  0
  -23.4670  -29.9130   19.9690 C   0  0  0  0  0  2  0  0  0  0  0  0
  -24.6110  -31.0280   21.9310 N   0  0  0  0  0  0  0  0  0  0  0  0
  -23.5370  -32.0490   23.6550 O   0  0  0  0  0  0  0  0  0  0  0  0
  -22.6420  -29.4570   22.3110 C   0  0  0  0  0  0  0  0  0  0  0  0
  -21.3040  -29.3440   22.2310 N   0  0  0  0  0  0  0  0  0  0  0  0
  -23.3220  -28.7500   23.0590 O   0  0  0  0  0  0  0  0  0  0  0  0
  -20.8150  -29.9650   21.6010 H   0  0  0  0  0  0  0  0  0  0  0  0
  -17.8960  -28.2510   22.7810 C   0  0  0  0  0  0  0  0  0  0  0  0
  -20.4730  -28.3910   22.9700 C   0  0  0  0  0  3  0  0  0  0  0  0
  -20.4960  -26.9980   22.2970 C   0  0  0  0  0  2  0  0  0  0  0  0
  -19.3450  -26.7880   21.3090 C   0  0  0  0  0  2  0  0  0  0  0  0
  -17.9930  -26.9440   22.0130 C   0  0  0  0  0  2  0  0  0  0  0  0
  -19.0610  -28.9390   23.2170 C   0  0  0  0  0  0  0  0  0  0  0  0
  -18.9170  -30.1650   23.9000 C   0  0  0  0  0  3  0  0  0  0  0  0
  -17.6410  -30.7060   24.1480 C   0  0  0  0  0  3  0  0  0  0  0  0
  -16.4920  -30.0150   23.7310 C   0  0  0  0  0  3  0  0  0  0  0  0
  -16.6200  -28.7880   23.0540 C   0  0  0  0  0  3  0  0  0  0  0  0
  -25.9110  -32.3350   23.7000 C   0  0  0  0  0  3  0  0  0  0  0  0
  -26.4050  -31.5040   24.9490 C   0  0  1  0  0  0  0  0  0  0  0  0
  -25.3170  -31.2950   26.0290 C   0  0  0  0  0  1  0  0  0  0  0  0
  -26.9100  -30.1090   24.5120 C   0  0  0  0  0  1  0  0  0  0  0  0
  -27.6020  -32.2250   25.6110 C   0  0  0  0  0  1  0  0  0  0  0  0
  -25.6580  -33.7340   24.0790 N   0  0  0  0  0  0  0  0  0  0  0  0
  -26.0360  -34.8020   23.3620 C   0  0  0  0  0  0  0  0  0  0  0  0
  -26.7010  -34.7060   22.3270 O   0  0  0  0  0  0  0  0  0  0  0  0
  -25.0660  -33.8810   24.8830 H   0  0  0  0  0  0  0  0  0  0  0  0
  -24.3810  -36.6810   23.0850 C   0  0  0  0  0  1  0  0  0  0  0  0
  -25.6100  -36.1930   23.8700 C   0  0  0  0  0  3  0  0  0  0  0  0
  -27.7850  -36.9620   24.7150 C   0  0  0  0  0  1  0  0  0  0  0  0
  -26.6850  -37.2050   23.7860 N   0  0  0  0  0  0  0  0  0  0  0  0
  -26.3220  -38.1380   23.9620 H   0  0  0  0  0  0  0  0  0  0  0  0
  -31.1940  -23.5260   20.5030 C   0  0  0  0  0  2  0  0  0  0  0  0
  -30.4360  -23.8040   21.8150 C   0  0  0  0  0  2  0  0  0  0  0  0
  -29.1440  -25.3420   23.3250 C   0  0  0  0  0  1  0  0  0  0  0  0
  -30.9940  -26.2980   21.9060 C   0  0  0  0  0  1  0  0  0  0  0  0
  -29.8920  -25.2320   21.9880 C   0  0  0  0  0  3  0  0  0  0  0  0
  -29.2620  -18.7300   20.1280 C   0  0  0  0  0  3  0  0  0  0  0  0
  -30.2050  -17.4070   20.3470 C   0  0  0  0  0  3  0  0  0  0  0  0
  -30.4550  -14.8260   20.3600 C   0  0  0  0  0  0  0  0  0  0  0  0
  -30.2430  -12.5480   19.3720 C   0  0  0  0  0  2  0  0  0  0  0  0
  -29.2930  -12.6300   18.1570 C   0  0  0  0  0  2  0  0  0  0  0  0
  -27.8320  -12.4410   18.6070 C   0  0  0  0  0  2  0  0  0  0  0  0
  -27.4660  -13.3270   19.8300 C   0  0  0  0  0  3  0  0  0  0  0  0
  -28.5410  -13.2550   20.9360 C   0  0  0  0  0  2  0  0  0  0  0  0
  -29.8240  -13.6040   20.3190 N   0  0  0  0  0  0  0  0  0  0  0  0
  -31.6440  -14.9130   20.0490 O   0  0  0  0  0  0  0  0  0  0  0  0
  -29.6940  -15.9750   20.5180 N   0  0  0  0  0  0  0  0  0  0  0  0
  -28.7170  -15.8480   20.7270 H   0  0  0  0  0  0  0  0  0  0  0  0
  -25.0880  -13.8930   20.6010 C   0  0  0  0  0  0  0  0  0  0  0  0
  -24.0340  -13.1070   20.9780 C   0  0  0  0  0  0  0  0  0  0  0  0
  -24.5070  -11.7600   20.9260 C   0  0  0  0  0  0  0  0  0  0  0  0
  -26.1340  -13.0240   20.3410 N   0  0  0  0  0  0  0  0  0  0  0  0
  -25.7930  -11.7350   20.6000 N   0  0  0  0  0  0  0  0  0  0  0  0
  -23.7940  -10.4890   21.1120 C   0  0  0  0  0  0  0  0  0  0  0  0
  -24.2710   -9.4940   21.9920 C   0  0  0  0  0  3  0  0  0  0  0  0
  -23.5550   -8.2910   22.1680 C   0  0  0  0  0  3  0  0  0  0  0  0
  -22.3470   -8.0730   21.4640 C   0  0  0  0  0  0  0  0  0  0  0  0
  -21.8890   -9.0560   20.5700 C   0  0  0  0  0  3  0  0  0  0  0  0
  -22.6060  -10.2530   20.3920 C   0  0  0  0  0  3  0  0  0  0  0  0
  -21.5980   -6.9250   21.5500 O   0  0  0  0  0  0  0  0  0  0  0  0
  -21.6220   -6.1360   22.6710 C   0  0  0  0  0  0  0  0  0  0  0  0
  -21.2680   -6.6370   23.9430 C   0  0  0  0  0  3  0  0  0  0  0  0
  -21.2390   -5.7730   25.0570 C   0  0  0  0  0  3  0  0  0  0  0  0
  -21.5530   -4.4090   24.8990 C   0  0  0  0  0  0  0  0  0  0  0  0
  -21.8990   -3.9080   23.6320 C   0  0  0  0  0  3  0  0  0  0  0  0
  -21.9300   -4.7690   22.5210 C   0  0  0  0  0  0  0  0  0  0  0  0
  -22.2440   -4.2750   21.2980 F   0  0  0  0  0  0  0  0  0  0  0  0
  -21.5170   -3.5780   25.9670 F   0  0  0  0  0  0  0  0  0  0  0  0
  -22.6380  -13.5690   21.2750 C   0  0  0  0  0  0  0  0  0  0  0  0
  -21.9320  -12.8660   22.1540 N   0  0  0  0  0  0  0  0  0  0  0  0
  -22.1800  -14.5900   20.7610 O   0  0  0  0  0  0  0  0  0  0  0  0
  -22.3160  -12.0400   22.5880 H   0  0  0  0  0  0  0  0  0  0  0  0
  -20.9970  -13.1570   22.3970 H   0  0  0  0  0  0  0  0  0  0  0  0
  -25.2350  -15.2670   20.4350 N   0  0  0  0  0  0  0  0  0  0  0  0
  -24.4500  -15.9010   20.5400 H   0  0  0  0  0  0  0  0  0  0  0  0
  -26.0650  -15.7200   20.0770 H   0  0  0  0  0  0  0  0  0  0  0  0
  1 55  1  0
  2  9  1  0
  2  4  1  0
  2  1  1  0
  3 11  1  0
  3  5  1  0
  3  1  1  0
  4  5  1  0
  5 60  1  0
  9  7  1  6
  8  9  1  0
  9  6  1  0
 11 10  1  0
 11 12  1  0
 13 14  1  0
 13 12  2  0
 14 16  1  0
 15 26  2  0
 16 21  1  0
 17 25  1  0
 17 27  1  0
 18 24  1  0
 18 20  1  0
 19 25  1  0
 20 19  1  0
 21 20  2  0
 22 23  1  0
 22 16  2  0
 23 18  2  0
 24 17  1  0
 25 15  1  0
 27 29  2  0
 28 27  1  0
 30 28  1  0
 31 40  2  0
 31 36  1  0
 32 28  1  0
 32 36  1  0
 33 32  1  0
 34 35  1  0
 34 33  1  0
 35 31  1  0
 36 37  2  0
 37 38  1  0
 39 38  2  0
 40 39  1  0
 41 15  1  0
 41 46  1  0
 41 42  1  0
 42 45  1  1
 42 43  1  0
 44 42  1  0
 46 49  1  0
 47 51  1  0
 47 46  1  0
 48 47  2  0
 51 50  1  0
 53 51  1  0
 53 54  1  0
 53 52  1  0
 55 56  1  0
 56 59  1  0
 58 59  1  0
 59 57  1  0
 60 61  2  0
 61 70  1  0
 62 70  1  0
 63 68  1  0
 64 65  1  0
 64 63  1  0
 66 65  1  0
 66 75  1  0
 66 67  1  0
 68 62  1  0
 68 67  1  0
 69 62  2  0
 70 71  1  0
 72 73  2  0
 73 92  1  0
 74 73  1  0
 74 77  1  0
 75 76  1  0
 75 72  1  0
 76 74  2  0
 77 78  1  0
 78 79  2  0
 80 83  1  0
 80 79  1  0
 81 80  2  0
 82 81  1  0
 82 77  2  0
 83 84  1  0
 84 85  1  0
 85 86  2  0
 87 86  1  0
 87 91  1  0
 88 87  2  0
 89 84  2  0
 89 88  1  0
 90 89  1  0
 92 93  1  0
 93 96  1  0
 93 95  1  0
 94 92  2  0
 97 98  1  0
 97 72  1  0
 99 97  1  0
M  ISO  4  13 101  14 101  62 100  70 100
M  END
>  <TORSDO>  (22) 
F 25

>  <SCORE>  (22) 
-12.080

>  <name>  (22) 
22

>  <ligand_id>  (22) 
22

>  <original_smiles>  (22) 
[H]c1c([H])c([H])c2c(c1[H])C([H])([H])C([H])([H])C([H])([H])C2([H])N([H])C(=O)C1([H])N(C(=O)C([H])(N([H])C(=O)C([H])(N([H])C([H])([H])[H])C([H])([H])[H])C(C([H])([H])[H])(C([H])([H])[H])C([H])([H])[H])C([H])([H])c2c([H])c(OC([H])([H])C([H])([H])C([H])(c3c(C([H])([H])C([H])([H])C([H])(C([H])([H])[H])C([H])([H])[H])c(C(C([H])([H])[H])(C([H])([H])[H])C([H])([H])[H])nn3C([H])([H])C([H])([H])N([H])C(=O)N3C([H])([H])C([H])([H])C([H])([H])C([H])(n4nc(-c5c([H])c([H])c(Oc6c([H])c([H])c(F)c([H])c6F)c([H])c5[H])c(C(=O)N([H])[H])c4N([H])[H])C3([H])[H])C([H])([H])[H])c([H])c([H])c2C1([H])[H]

>  <smiles>  (22) 
[H]c1c([H])c([H])c2c(c1[H])C([H])([H])C([H])([H])C([H])([H])C2([H])N([H])C(=O)C1([H])N(C(=O)C([H])(N([H])C(=O)C([H])(N([H])C([H])([H])[H])C([H])([H])[H])C(C([H])([H])[H])(C([H])([H])[H])C([H])([H])[H])C([H])([H])c2c([H])c(OC([H])([H])C([H])([H])C([H])(c3c(C([H])([H])C([H])([H])C([H])(C([H])([H])[H])C([H])([H])[H])c(C(C([H])([H])[H])(C([H])([H])[H])C([H])([H])[H])nn3C([H])([H])C([H])([H])N([H])C(=O)N3C([H])([H])C([H])([H])C([H])([H])C([H])(n4nc(-c5c([H])c([H])c(Oc6c([H])c([H])c(F)c([H])c6F)c([H])c5[H])c(C(=O)N([H])[H])c4N([H])[H])C3([H])[H])C([H])([H])[H])c([H])c([H])c2C1([H])[H]

$$$$
23:0:0
     RDKit          3D

 94102  0  0  1  0  0  0  0  0999 V2000
  -29.0280  -19.5310   19.6810 C   0  0  0  0  0  3  0  0  0  0  0  0
  -29.2880  -20.8460   20.1910 C   0  0  0  0  0  0  0  0  0  0  0  0
  -29.7190  -18.3930   20.2200 C   0  0  0  0  0  0  0  0  0  0  0  0
  -30.8080  -19.8620   21.6190 C   0  0  0  0  0  0  0  0  0  0  0  0
  -30.2070  -20.9660   21.1660 N   0  0  0  0  0  0  0  0  0  0  0  0
  -30.5930  -18.6050   21.2180 N   0  0  0  0  0  0  0  0  0  0  0  0
  -28.5570  -22.1600   19.6920 C   0  0  0  0  0  2  0  0  0  0  0  0
  -28.9980  -23.6410   20.1550 C   0  0  0  0  0  3  0  0  0  0  0  0
  -28.0470  -24.8460   19.6870 C   0  0  0  0  0  3  0  0  0  0  0  0
  -28.3000  -26.2890   19.9900 O   0  0  0  0  0  0  0  0  0  0  0  0
  -24.7130  -31.7590   23.1200 C   0  0  0  0  0  0  0  0  0  0  0  0
  -27.2040  -27.1830   19.9620 C   0  0  0  0  0  0  0  0  0  0  0  0
  -23.4580  -30.3880   21.5000 C   0  0  0  0  0  3  0  0  0  0  0  0
  -24.8590  -28.8410   20.0240 C   0  0  0  0  0  0  0  0  0  0  0  0
  -25.9980  -30.6760   21.2620 C   0  0  0  0  0  2  0  0  0  0  0  0
  -26.0490  -29.3020   20.6000 C   0  0  0  0  0  0  0  0  0  0  0  0
  -27.2240  -28.4860   20.5610 C   0  0  0  0  0  3  0  0  0  0  0  0
  -25.9880  -26.7920   19.3510 C   0  0  0  0  0  3  0  0  0  0  0  0
  -24.8320  -27.5910   19.3890 C   0  0  0  0  0  3  0  0  0  0  0  0
  -23.6330  -29.7270   20.1090 C   0  0  0  0  0  2  0  0  0  0  0  0
  -24.7440  -30.9570   22.0180 N   0  0  0  0  0  0  0  0  0  0  0  0
  -23.6450  -32.0450   23.6810 O   0  0  0  0  0  0  0  0  0  0  0  0
  -22.8070  -29.3680   22.4640 C   0  0  0  0  0  0  0  0  0  0  0  0
  -21.4780  -29.1980   22.3590 N   0  0  0  0  0  0  0  0  0  0  0  0
  -23.4970  -28.7350   23.2690 O   0  0  0  0  0  0  0  0  0  0  0  0
  -20.9770  -29.7630   21.6870 H   0  0  0  0  0  0  0  0  0  0  0  0
  -18.1040  -28.0220   22.9140 C   0  0  0  0  0  0  0  0  0  0  0  0
  -20.6680  -28.2620   23.1410 C   0  0  0  0  0  3  0  0  0  0  0  0
  -20.7510  -26.8320   22.5560 C   0  0  0  0  0  2  0  0  0  0  0  0
  -19.6300  -26.5220   21.5600 C   0  0  0  0  0  2  0  0  0  0  0  0
  -18.2610  -26.6740   22.2290 C   0  0  0  0  0  2  0  0  0  0  0  0
  -19.2360  -28.7740   23.3300 C   0  0  0  0  0  0  0  0  0  0  0  0
  -19.0360  -30.0350   23.9310 C   0  0  0  0  0  3  0  0  0  0  0  0
  -17.7390  -30.5460   24.1220 C   0  0  0  0  0  3  0  0  0  0  0  0
  -16.6220  -29.7900   23.7240 C   0  0  0  0  0  3  0  0  0  0  0  0
  -16.8050  -28.5310   23.1250 C   0  0  0  0  0  3  0  0  0  0  0  0
  -26.0140  -32.3740   23.7180 C   0  0  0  0  0  3  0  0  0  0  0  0
  -25.7070  -33.7500   24.1380 N   0  0  0  0  0  0  0  0  0  0  0  0
  -25.9950  -34.8460   23.4240 C   0  0  0  0  0  0  0  0  0  0  0  0
  -26.6160  -34.8050   22.3590 O   0  0  0  0  0  0  0  0  0  0  0  0
  -25.1410  -33.8510   24.9670 H   0  0  0  0  0  0  0  0  0  0  0  0
  -24.2440  -36.6430   23.2420 C   0  0  0  0  0  1  0  0  0  0  0  0
  -25.5180  -36.2020   23.9790 C   0  0  0  0  0  3  0  0  0  0  0  0
  -27.6760  -37.0580   24.7780 C   0  0  0  0  0  1  0  0  0  0  0  0
  -26.5400  -37.2680   23.8870 N   0  0  0  0  0  0  0  0  0  0  0  0
  -26.1340  -38.1750   24.1000 H   0  0  0  0  0  0  0  0  0  0  0  0
  -26.5930  -31.5430   24.9280 C   0  0  1  0  0  0  0  0  0  0  0  0
  -25.5440  -31.2290   26.0200 C   0  0  0  0  0  1  0  0  0  0  0  0
  -27.1790  -30.2000   24.4360 C   0  0  0  0  0  1  0  0  0  0  0  0
  -27.7580  -32.3180   25.5890 C   0  0  0  0  0  1  0  0  0  0  0  0
  -29.7230  -16.9490   19.5790 C   0  0  0  0  0  2  0  0  0  0  0  0
  -30.5210  -14.5540   20.1340 C   0  0  0  0  0  0  0  0  0  0  0  0
  -30.2680  -12.3070   19.1110 C   0  0  0  0  0  2  0  0  0  0  0  0
  -29.2750  -12.4340   17.9350 C   0  0  0  0  0  2  0  0  0  0  0  0
  -27.8230  -12.2670   18.4220 C   0  0  0  0  0  2  0  0  0  0  0  0
  -27.5130  -13.1150   19.6830 C   0  0  0  0  0  3  0  0  0  0  0  0
  -28.6230  -12.9790   20.7510 C   0  0  0  0  0  2  0  0  0  0  0  0
  -29.9030  -13.3270   20.1160 N   0  0  0  0  0  0  0  0  0  0  0  0
  -31.6670  -14.6830   19.6970 O   0  0  0  0  0  0  0  0  0  0  0  0
  -29.7370  -15.6580   20.3740 N   0  0  0  0  0  0  0  0  0  0  0  0
  -28.8660  -15.4660   20.8410 H   0  0  0  0  0  0  0  0  0  0  0  0
  -25.1590  -13.6940   20.5310 C   0  0  0  0  0  0  0  0  0  0  0  0
  -24.1120  -12.9130   20.9370 C   0  0  0  0  0  0  0  0  0  0  0  0
  -24.5710  -11.5630   20.8560 C   0  0  0  0  0  0  0  0  0  0  0  0
  -26.1900  -12.8190   20.2280 N   0  0  0  0  0  0  0  0  0  0  0  0
  -25.8470  -11.5320   20.4860 N   0  0  0  0  0  0  0  0  0  0  0  0
  -23.8530  -10.2960   21.0540 C   0  0  0  0  0  0  0  0  0  0  0  0
  -24.3210   -9.3180   21.9580 C   0  0  0  0  0  3  0  0  0  0  0  0
  -23.6040   -8.1160   22.1490 C   0  0  0  0  0  3  0  0  0  0  0  0
  -22.4040   -7.8840   21.4330 C   0  0  0  0  0  0  0  0  0  0  0  0
  -21.9530   -8.8540   20.5200 C   0  0  0  0  0  3  0  0  0  0  0  0
  -22.6720  -10.0460   20.3280 C   0  0  0  0  0  3  0  0  0  0  0  0
  -21.6560   -6.7350   21.5320 O   0  0  0  0  0  0  0  0  0  0  0  0
  -21.6570   -5.9700   22.6710 C   0  0  0  0  0  0  0  0  0  0  0  0
  -21.2700   -6.4980   23.9220 C   0  0  0  0  0  3  0  0  0  0  0  0
  -21.2170   -5.6590   25.0540 C   0  0  0  0  0  3  0  0  0  0  0  0
  -21.5430   -4.2960   24.9350 C   0  0  0  0  0  0  0  0  0  0  0  0
  -21.9250   -3.7670   23.6900 C   0  0  0  0  0  3  0  0  0  0  0  0
  -21.9780   -4.6020   22.5600 C   0  0  0  0  0  0  0  0  0  0  0  0
  -22.3220   -4.0840   21.3560 F   0  0  0  0  0  0  0  0  0  0  0  0
  -21.4870   -3.4880   26.0200 F   0  0  0  0  0  0  0  0  0  0  0  0
  -22.7270  -13.3830   21.2800 C   0  0  0  0  0  0  0  0  0  0  0  0
  -22.0430  -12.6730   22.1710 N   0  0  0  0  0  0  0  0  0  0  0  0
  -22.2620  -14.4110   20.7910 O   0  0  0  0  0  0  0  0  0  0  0  0
  -22.4350  -11.8430   22.5910 H   0  0  0  0  0  0  0  0  0  0  0  0
  -21.1120  -12.9660   22.4370 H   0  0  0  0  0  0  0  0  0  0  0  0
  -25.3170  -15.0670   20.3720 N   0  0  0  0  0  0  0  0  0  0  0  0
  -24.5570  -15.7200   20.5400 H   0  0  0  0  0  0  0  0  0  0  0  0
  -26.1300  -15.5100   19.9670 H   0  0  0  0  0  0  0  0  0  0  0  0
  -31.8410  -20.0450   22.7150 C   0  0  0  0  0  2  0  0  0  0  0  0
  -31.2110  -20.1550   24.1170 C   0  0  0  0  0  2  0  0  0  0  0  0
  -29.5850  -21.7530   25.2760 C   0  0  0  0  0  1  0  0  0  0  0  0
  -32.0790  -22.2120   25.3450 C   0  0  0  0  0  1  0  0  0  0  0  0
  -30.9200  -21.6150   24.5270 C   0  0  0  0  0  3  0  0  0  0  0  0
  1  2  2  0
  1  3  1  0
  2  5  1  0
  3  6  2  0
  4 90  1  0
  5  4  2  0
  6  4  1  0
  7  8  1  0
  7  2  1  0
  9 10  1  0
  9  8  2  0
 11 22  2  0
 12 10  1  0
 12 17  1  0
 13 21  1  0
 13 23  1  0
 14 20  1  0
 14 16  1  0
 15 21  1  0
 16 15  1  0
 17 16  2  0
 18 19  1  0
 18 12  2  0
 19 14  2  0
 20 13  1  0
 21 11  1  0
 23 25  2  0
 24 23  1  0
 26 24  1  0
 27 36  2  0
 27 32  1  0
 28 24  1  0
 28 32  1  0
 29 28  1  0
 30 31  1  0
 30 29  1  0
 31 27  1  0
 32 33  2  0
 33 34  1  0
 35 34  2  0
 36 35  1  0
 37 11  1  0
 37 38  1  0
 37 47  1  0
 38 41  1  0
 39 43  1  0
 39 38  1  0
 40 39  2  0
 43 42  1  0
 45 43  1  0
 45 46  1  0
 45 44  1  0
 47 50  1  1
 47 48  1  0
 49 47  1  0
 51  3  1  0
 51 60  1  0
 52 60  1  0
 53 58  1  0
 54 55  1  0
 54 53  1  0
 56 55  1  0
 56 65  1  0
 56 57  1  0
 58 52  1  0
 58 57  1  0
 59 52  2  0
 60 61  1  0
 62 63  2  0
 63 82  1  0
 64 63  1  0
 64 67  1  0
 65 66  1  0
 65 62  1  0
 66 64  2  0
 67 68  1  0
 68 69  2  0
 70 73  1  0
 70 69  1  0
 71 70  2  0
 72 71  1  0
 72 67  2  0
 73 74  1  0
 74 75  1  0
 75 76  2  0
 77 76  1  0
 77 81  1  0
 78 77  2  0
 79 74  2  0
 79 78  1  0
 80 79  1  0
 82 83  1  0
 83 86  1  0
 83 85  1  0
 84 82  2  0
 87 62  1  0
 87 88  1  0
 89 87  1  0
 90 91  1  0
 91 94  1  0
 94 92  1  0
 94 93  1  0
M  ISO  4   9 101  10 101  52 100  60 100
M  END
>  <TORSDO>  (23) 
F 23

>  <SCORE>  (23) 
-11.549

>  <name>  (23) 
23

>  <ligand_id>  (23) 
23

>  <original_smiles>  (23) 
[H]c1c(C([H])([H])N([H])C(=O)N2C([H])([H])C([H])([H])C([H])([H])C([H])(n3nc(-c4c([H])c([H])c(Oc5c([H])c([H])c(F)c([H])c5F)c([H])c4[H])c(C(=O)N([H])[H])c3N([H])[H])C2([H])[H])nc(C([H])([H])C([H])([H])C([H])(C([H])([H])[H])C([H])([H])[H])nc1C([H])([H])C([H])([H])C([H])([H])Oc1c([H])c([H])c2c(c1[H])C([H])([H])N(C(=O)C([H])(N([H])C(=O)C([H])(N([H])C([H])([H])[H])C([H])([H])[H])C(C([H])([H])[H])(C([H])([H])[H])C([H])([H])[H])C([H])(C(=O)N([H])C1([H])c3c([H])c([H])c([H])c([H])c3C([H])([H])C([H])([H])C1([H])[H])C2([H])[H]

>  <smiles>  (23) 
[H]c1c(C([H])([H])N([H])C(=O)N2C([H])([H])C([H])([H])C([H])([H])C([H])(n3nc(-c4c([H])c([H])c(Oc5c([H])c([H])c(F)c([H])c5F)c([H])c4[H])c(C(=O)N([H])[H])c3N([H])[H])C2([H])[H])nc(C([H])([H])C([H])([H])C([H])(C([H])([H])[H])C([H])([H])[H])nc1C([H])([H])C([H])([H])C([H])([H])Oc1c([H])c([H])c2c(c1[H])C([H])([H])N(C(=O)C([H])(N([H])C(=O)C([H])(N([H])C([H])([H])[H])C([H])([H])[H])C(C([H])([H])[H])(C([H])([H])[H])C([H])([H])[H])C([H])(C(=O)N([H])C1([H])c3c([H])c([H])c([H])c([H])c3C([H])([H])C([H])([H])C1([H])[H])C2([H])[H]

$$$$
24:0:0
     RDKit          3D

 93100  0  0  1  0  0  0  0  0999 V2000
  -30.7600  -21.1250   20.9430 C   0  0  0  0  0  1  0  0  0  0  0  0
  -29.3630  -21.0320   20.4650 N   0  0  1  0  0  4  0  0  0  0  0  0
  -28.8610  -20.8850   21.3280 H   0  0  0  0  0  0  0  0  0  0  0  0
  -28.7400  -22.3430   19.9130 C   0  0  0  0  0  2  0  0  0  0  0  0
  -30.4910  -24.2770   19.9310 C   0  0  0  0  0  1  0  0  0  0  0  0
  -29.1100  -23.8370   20.4520 C   0  0  0  0  0  3  0  0  0  0  0  0
  -28.0550  -25.0040   20.0700 C   0  0  0  0  0  2  0  0  0  0  0  0
  -28.2800  -26.4640   20.3520 O   0  0  0  0  0  0  0  0  0  0  0  0
  -24.6030  -31.9860   23.2990 C   0  0  0  0  0  0  0  0  0  0  0  0
  -27.1850  -27.3570   20.2760 C   0  0  0  0  0  0  0  0  0  0  0  0
  -23.3960  -30.5920   21.6630 C   0  0  0  0  0  3  0  0  0  0  0  0
  -24.8370  -29.0190   20.2510 C   0  0  0  0  0  0  0  0  0  0  0  0
  -25.9430  -30.8720   21.4940 C   0  0  0  0  0  2  0  0  0  0  0  0
  -26.0110  -29.4880   20.8510 C   0  0  0  0  0  0  0  0  0  0  0  0
  -27.1860  -28.6720   20.8520 C   0  0  0  0  0  3  0  0  0  0  0  0
  -25.9850  -26.9560   19.6400 C   0  0  0  0  0  3  0  0  0  0  0  0
  -24.8290  -27.7590   19.6350 C   0  0  0  0  0  3  0  0  0  0  0  0
  -23.6110  -29.9080   20.2870 C   0  0  0  0  0  2  0  0  0  0  0  0
  -24.6670  -31.1680   22.2070 N   0  0  0  0  0  0  0  0  0  0  0  0
  -23.5200  -32.2780   23.8270 O   0  0  0  0  0  0  0  0  0  0  0  0
  -22.7150  -29.5880   22.6240 C   0  0  0  0  0  0  0  0  0  0  0  0
  -21.3890  -29.4220   22.4890 N   0  0  0  0  0  0  0  0  0  0  0  0
  -23.3830  -28.9620   23.4520 O   0  0  0  0  0  0  0  0  0  0  0  0
  -20.9100  -29.9770   21.7930 H   0  0  0  0  0  0  0  0  0  0  0  0
  -17.9990  -28.2530   22.9720 C   0  0  0  0  0  0  0  0  0  0  0  0
  -20.5570  -28.4980   23.2600 C   0  0  0  0  0  3  0  0  0  0  0  0
  -20.6530  -27.0600   22.6980 C   0  0  0  0  0  2  0  0  0  0  0  0
  -19.5590  -26.7360   21.6780 C   0  0  0  0  0  2  0  0  0  0  0  0
  -18.1720  -26.8980   22.3070 C   0  0  0  0  0  2  0  0  0  0  0  0
  -19.1190  -29.0110   23.4060 C   0  0  0  0  0  0  0  0  0  0  0  0
  -18.9050  -30.2790   23.9880 C   0  0  0  0  0  3  0  0  0  0  0  0
  -17.6030  -30.7920   24.1390 C   0  0  0  0  0  3  0  0  0  0  0  0
  -16.4970  -30.0320   23.7210 C   0  0  0  0  0  3  0  0  0  0  0  0
  -16.6940  -28.7650   23.1430 C   0  0  0  0  0  3  0  0  0  0  0  0
  -25.8880  -32.6090   23.9260 C   0  0  0  0  0  3  0  0  0  0  0  0
  -25.5900  -34.0130   24.2450 N   0  0  0  0  0  0  0  0  0  0  0  0
  -25.9250  -35.0580   23.4760 C   0  0  0  0  0  0  0  0  0  0  0  0
  -26.5860  -34.9410   22.4400 O   0  0  0  0  0  0  0  0  0  0  0  0
  -24.9950  -34.1780   25.0440 H   0  0  0  0  0  0  0  0  0  0  0  0
  -24.1950  -36.8530   23.1380 C   0  0  0  0  0  1  0  0  0  0  0  0
  -25.4520  -36.4530   23.9270 C   0  0  0  0  0  3  0  0  0  0  0  0
  -27.6090  -37.3390   24.6980 C   0  0  0  0  0  1  0  0  0  0  0  0
  -26.4860  -37.5010   23.7770 N   0  0  0  0  0  0  0  0  0  0  0  0
  -26.0880  -38.4250   23.9210 H   0  0  0  0  0  0  0  0  0  0  0  0
  -26.3830  -31.8430   25.2140 C   0  0  1  0  0  0  0  0  0  0  0  0
  -25.2750  -31.6300   26.2730 C   0  0  0  0  0  1  0  0  0  0  0  0
  -26.9510  -30.4540   24.8410 C   0  0  0  0  0  1  0  0  0  0  0  0
  -27.5370  -32.6300   25.8790 C   0  0  0  0  0  1  0  0  0  0  0  0
  -29.0240  -19.7690   19.6460 C   0  0  0  0  0  2  0  0  0  0  0  0
  -29.8620  -18.3500   19.5210 C   0  0  2  0  0  0  0  0  0  0  0  0
  -31.6820  -19.4210   17.8530 C   0  0  0  0  0  1  0  0  0  0  0  0
  -31.3550  -18.5570   19.0910 C   0  0  0  0  0  2  0  0  0  0  0  0
  -28.6120  -18.1550   17.1260 C   0  0  0  0  0  1  0  0  0  0  0  0
  -29.1440  -17.4910   18.4140 C   0  0  0  0  0  2  0  0  0  0  0  0
  -29.9020  -17.3570   20.8020 C   0  0  0  0  0  2  0  0  0  0  0  0
  -30.5610  -14.7760   20.4250 C   0  0  0  0  0  0  0  0  0  0  0  0
  -30.3760  -12.5310   19.3610 C   0  0  0  0  0  2  0  0  0  0  0  0
  -29.4260  -12.6460   18.1470 C   0  0  0  0  0  2  0  0  0  0  0  0
  -27.9500  -12.4710   18.5670 C   0  0  0  0  0  2  0  0  0  0  0  0
  -27.5880  -13.3080   19.8240 C   0  0  0  0  0  3  0  0  0  0  0  0
  -28.6590  -13.1740   20.9290 C   0  0  0  0  0  2  0  0  0  0  0  0
  -29.9520  -13.5460   20.3420 N   0  0  0  0  0  0  0  0  0  0  0  0
  -31.7430  -14.9270   20.1110 O   0  0  0  0  0  0  0  0  0  0  0  0
  -29.7270  -15.8420   20.6640 N   0  0  0  0  0  0  0  0  0  0  0  0
  -28.7820  -15.5400   20.8430 H   0  0  0  0  0  0  0  0  0  0  0  0
  -25.1950  -13.8870   20.5580 C   0  0  0  0  0  0  0  0  0  0  0  0
  -24.1360  -13.1040   20.9320 C   0  0  0  0  0  0  0  0  0  0  0  0
  -24.6070  -11.7550   20.8970 C   0  0  0  0  0  0  0  0  0  0  0  0
  -26.2440  -13.0140   20.3160 N   0  0  0  0  0  0  0  0  0  0  0  0
  -25.8970  -11.7270   20.5800 N   0  0  0  0  0  0  0  0  0  0  0  0
  -23.8890  -10.4900   21.0830 C   0  0  0  0  0  0  0  0  0  0  0  0
  -24.3400   -9.5150   22.0000 C   0  0  0  0  0  3  0  0  0  0  0  0
  -23.6230   -8.3100   22.1790 C   0  0  0  0  0  3  0  0  0  0  0  0
  -22.4400   -8.0740   21.4410 C   0  0  0  0  0  0  0  0  0  0  0  0
  -22.0050   -9.0380   20.5140 C   0  0  0  0  0  3  0  0  0  0  0  0
  -22.7210  -10.2330   20.3330 C   0  0  0  0  0  3  0  0  0  0  0  0
  -21.6890   -6.9260   21.5320 O   0  0  0  0  0  0  0  0  0  0  0  0
  -21.6740   -6.1630   22.6720 C   0  0  0  0  0  0  0  0  0  0  0  0
  -21.2900   -6.6970   23.9220 C   0  0  0  0  0  3  0  0  0  0  0  0
  -21.2220   -5.8600   25.0530 C   0  0  0  0  0  3  0  0  0  0  0  0
  -21.5260   -4.4920   24.9360 C   0  0  0  0  0  0  0  0  0  0  0  0
  -21.9040   -3.9560   23.6920 C   0  0  0  0  0  3  0  0  0  0  0  0
  -21.9750   -4.7900   22.5630 C   0  0  0  0  0  0  0  0  0  0  0  0
  -22.3170   -4.2640   21.3620 F   0  0  0  0  0  0  0  0  0  0  0  0
  -21.4530   -3.6870   26.0220 F   0  0  0  0  0  0  0  0  0  0  0  0
  -22.7370  -13.5720   21.2090 C   0  0  0  0  0  0  0  0  0  0  0  0
  -22.0170  -12.8700   22.0780 N   0  0  0  0  0  0  0  0  0  0  0  0
  -22.2910  -14.5940   20.6880 O   0  0  0  0  0  0  0  0  0  0  0  0
  -22.3890  -12.0450   22.5260 H   0  0  0  0  0  0  0  0  0  0  0  0
  -21.0760  -13.1630   22.3010 H   0  0  0  0  0  0  0  0  0  0  0  0
  -25.3490  -15.2570   20.3780 N   0  0  0  0  0  0  0  0  0  0  0  0
  -24.5680  -15.8980   20.4720 H   0  0  0  0  0  0  0  0  0  0  0  0
  -26.1770  -15.7040   20.0110 H   0  0  0  0  0  0  0  0  0  0  0  0
  2  1  1  0
  2  3  1  1
  4  6  1  0
  4  2  1  0
  6  5  1  0
  7  8  1  0
  7  6  1  0
  9 20  2  0
 10  8  1  0
 10 15  1  0
 11 19  1  0
 11 21  1  0
 12 18  1  0
 12 14  1  0
 13 19  1  0
 14 15  2  0
 14 13  1  0
 16 10  2  0
 17 16  1  0
 17 12  2  0
 18 11  1  0
 19  9  1  0
 21 23  2  0
 22 21  1  0
 24 22  1  0
 25 34  2  0
 25 30  1  0
 26 22  1  0
 26 30  1  0
 27 26  1  0
 28 29  1  0
 28 27  1  0
 29 25  1  0
 30 31  2  0
 31 32  1  0
 33 32  2  0
 34 33  1  0
 35  9  1  0
 35 36  1  0
 35 45  1  0
 36 39  1  0
 37 41  1  0
 37 36  1  0
 38 37  2  0
 41 40  1  0
 43 44  1  0
 43 41  1  0
 43 42  1  0
 45 48  1  1
 45 46  1  0
 47 45  1  0
 49  2  1  0
 50 49  1  1
 50 55  1  0
 51 52  1  0
 52 50  1  0
 53 54  1  0
 54 50  1  0
 56 64  1  0
 57 62  1  0
 58 59  1  0
 58 57  1  0
 60 59  1  0
 60 69  1  0
 60 61  1  0
 62 56  1  0
 62 61  1  0
 63 56  2  0
 64 55  1  0
 64 65  1  0
 66 67  2  0
 67 86  1  0
 68 67  1  0
 68 71  1  0
 69 66  1  0
 69 70  1  0
 70 68  2  0
 71 72  1  0
 72 73  2  0
 74 77  1  0
 74 73  1  0
 75 74  2  0
 76 75  1  0
 76 71  2  0
 77 78  1  0
 78 79  1  0
 79 80  2  0
 81 80  1  0
 81 85  1  0
 82 81  2  0
 83 78  2  0
 83 82  1  0
 84 83  1  0
 86 87  1  0
 87 90  1  0
 87 89  1  0
 88 86  2  0
 91 92  1  0
 91 66  1  0
 93 91  1  0
M  ISO  4   7 101   8 101  56 100  64 100
M  END
>  <TORSDO>  (24) 
F 24

>  <SCORE>  (24) 
-12.378

>  <name>  (24) 
24

>  <ligand_id>  (24) 
24

>  <original_smiles>  (24) 
[H]c1c([H])c([H])c2c(c1[H])C([H])([H])C([H])([H])C([H])([H])C2([H])N([H])C(=O)C1([H])N(C(=O)C([H])(N([H])C(=O)C([H])(N([H])C([H])([H])[H])C([H])([H])[H])C(C([H])([H])[H])(C([H])([H])[H])C([H])([H])[H])C([H])([H])c2c([H])c(OC([H])([H])C([H])(C([H])([H])[H])C([H])([H])[N+]([H])(C([H])([H])[H])C([H])([H])C(C([H])([H])N([H])C(=O)N3C([H])([H])C([H])([H])C([H])([H])C([H])(n4nc(-c5c([H])c([H])c(Oc6c([H])c([H])c(F)c([H])c6F)c([H])c5[H])c(C(=O)N([H])[H])c4N([H])[H])C3([H])[H])(C([H])([H])C([H])([H])[H])C([H])([H])C([H])([H])[H])c([H])c([H])c2C1([H])[H]

>  <smiles>  (24) 
[H]c1c([H])c([H])c2c(c1[H])C([H])([H])C([H])([H])C([H])([H])C2([H])N([H])C(=O)C1([H])N(C(=O)C([H])(N([H])C(=O)C([H])(N([H])C([H])([H])[H])C([H])([H])[H])C(C([H])([H])[H])(C([H])([H])[H])C([H])([H])[H])C([H])([H])c2c([H])c(OC([H])([H])C([H])(C([H])([H])[H])C([H])([H])[N+]([H])(C([H])([H])[H])C([H])([H])C(C([H])([H])N([H])C(=O)N3C([H])([H])C([H])([H])C([H])([H])C([H])(n4nc(-c5c([H])c([H])c(Oc6c([H])c([H])c(F)c([H])c6F)c([H])c5[H])c(C(=O)N([H])[H])c4N([H])[H])C3([H])[H])(C([H])([H])C([H])([H])[H])C([H])([H])C([H])([H])[H])c([H])c([H])c2C1([H])[H]

$$$$
25:0:0
     RDKit          3D

 92100  0  0  1  0  0  0  0  0999 V2000
  -29.7910  -19.1080   19.1660 C   0  0  0  0  0  3  0  0  0  0  0  0
  -29.4620  -19.8020   21.2170 C   0  0  0  0  0  3  0  0  0  0  0  0
  -29.8530  -18.6590   20.5180 C   0  0  0  0  0  0  0  0  0  0  0  0
  -29.4330  -20.4440   19.0890 C   0  0  0  0  0  0  0  0  0  0  0  0
  -29.2020  -20.9240   20.3850 N   0  0  0  0  0  0  0  0  0  0  0  0
  -27.8430  -21.5990   17.4920 C   0  0  0  0  0  1  0  0  0  0  0  0
  -30.0170  -20.6850   16.6380 C   0  0  0  0  0  1  0  0  0  0  0  0
  -29.3060  -21.2990   17.8560 C   0  0  0  0  0  3  0  0  0  0  0  0
  -30.3870  -17.2600   21.0710 C   0  0  0  0  0  2  0  0  0  0  0  0
  -30.6330  -14.7530   20.3560 C   0  0  0  0  0  0  0  0  0  0  0  0
  -30.4050  -12.5050   19.2820 C   0  0  0  0  0  2  0  0  0  0  0  0
  -29.4650  -12.6060   18.0620 C   0  0  0  0  0  2  0  0  0  0  0  0
  -27.9940  -12.4330   18.4910 C   0  0  0  0  0  2  0  0  0  0  0  0
  -27.6280  -13.3010   19.7250 C   0  0  0  0  0  3  0  0  0  0  0  0
  -28.6890  -13.1870   20.8400 C   0  0  0  0  0  2  0  0  0  0  0  0
  -29.9820  -13.5450   20.2470 N   0  0  0  0  0  0  0  0  0  0  0  0
  -31.8240  -14.8390   20.0480 O   0  0  0  0  0  0  0  0  0  0  0  0
  -29.8910  -15.8850   20.6450 N   0  0  0  0  0  0  0  0  0  0  0  0
  -28.9030  -15.7290   20.7740 H   0  0  0  0  0  0  0  0  0  0  0  0
  -25.2380  -13.8950   20.4400 C   0  0  0  0  0  0  0  0  0  0  0  0
  -24.1710  -13.1230   20.8120 C   0  0  0  0  0  0  0  0  0  0  0  0
  -24.6360  -11.7720   20.7920 C   0  0  0  0  0  0  0  0  0  0  0  0
  -26.2830  -13.0140   20.2130 N   0  0  0  0  0  0  0  0  0  0  0  0
  -25.9280  -11.7330   20.4880 N   0  0  0  0  0  0  0  0  0  0  0  0
  -23.9090  -10.5110   20.9850 C   0  0  0  0  0  0  0  0  0  0  0  0
  -24.3330   -9.5530   21.9330 C   0  0  0  0  0  3  0  0  0  0  0  0
  -23.6080   -8.3560   22.1150 C   0  0  0  0  0  3  0  0  0  0  0  0
  -22.4440   -8.1070   21.3500 C   0  0  0  0  0  0  0  0  0  0  0  0
  -22.0380   -9.0540   20.3930 C   0  0  0  0  0  3  0  0  0  0  0  0
  -22.7640  -10.2440   20.2080 C   0  0  0  0  0  3  0  0  0  0  0  0
  -21.6890   -6.9620   21.4410 O   0  0  0  0  0  0  0  0  0  0  0  0
  -21.6240   -6.2340   22.6020 C   0  0  0  0  0  0  0  0  0  0  0  0
  -21.1610   -6.7990   23.8110 C   0  0  0  0  0  3  0  0  0  0  0  0
  -21.0430   -5.9960   24.9630 C   0  0  0  0  0  3  0  0  0  0  0  0
  -21.3780   -4.6300   24.9080 C   0  0  0  0  0  0  0  0  0  0  0  0
  -21.8350   -4.0640   23.7040 C   0  0  0  0  0  3  0  0  0  0  0  0
  -21.9540   -4.8650   22.5540 C   0  0  0  0  0  0  0  0  0  0  0  0
  -22.3730   -4.3100   21.3910 F   0  0  0  0  0  0  0  0  0  0  0  0
  -21.2590   -3.8570   26.0120 F   0  0  0  0  0  0  0  0  0  0  0  0
  -22.7730  -13.6000   21.0740 C   0  0  0  0  0  0  0  0  0  0  0  0
  -22.0400  -12.9090   21.9400 N   0  0  0  0  0  0  0  0  0  0  0  0
  -22.3380  -14.6220   20.5460 O   0  0  0  0  0  0  0  0  0  0  0  0
  -22.4030  -12.0800   22.3890 H   0  0  0  0  0  0  0  0  0  0  0  0
  -21.1000  -13.2100   22.1540 H   0  0  0  0  0  0  0  0  0  0  0  0
  -25.4000  -15.2640   20.2510 N   0  0  0  0  0  0  0  0  0  0  0  0
  -24.6300  -15.9170   20.3460 H   0  0  0  0  0  0  0  0  0  0  0  0
  -26.2410  -15.6990   19.8920 H   0  0  0  0  0  0  0  0  0  0  0  0
  -28.6490  -22.2770   20.8710 C   0  0  0  0  0  3  0  0  0  0  0  0
  -29.0170  -23.7440   20.2700 C   0  0  0  0  0  3  0  0  0  0  0  0
  -28.4520  -25.1750   22.3600 C   0  0  0  0  0  1  0  0  0  0  0  0
  -28.2140  -25.0350   20.8470 C   0  0  0  0  0  3  0  0  0  0  0  0
  -28.4250  -26.4240   20.3060 O   0  0  0  0  0  0  0  0  0  0  0  0
  -24.6370  -31.8910   23.2390 C   0  0  0  0  0  0  0  0  0  0  0  0
  -27.3210  -27.3050   20.2590 C   0  0  0  0  0  0  0  0  0  0  0  0
  -23.4670  -30.4760   21.5890 C   0  0  0  0  0  3  0  0  0  0  0  0
  -24.9510  -28.9240   20.1910 C   0  0  0  0  0  0  0  0  0  0  0  0
  -26.0090  -30.8050   21.4400 C   0  0  0  0  0  2  0  0  0  0  0  0
  -26.1090  -29.4200   20.8040 C   0  0  0  0  0  0  0  0  0  0  0  0
  -27.2990  -28.6240   20.8250 C   0  0  0  0  0  3  0  0  0  0  0  0
  -26.1430  -26.8750   19.6110 C   0  0  0  0  0  3  0  0  0  0  0  0
  -24.9720  -27.6590   19.5820 C   0  0  0  0  0  3  0  0  0  0  0  0
  -23.7080  -29.7940   20.2160 C   0  0  0  0  0  2  0  0  0  0  0  0
  -24.7230  -31.0760   22.1460 N   0  0  0  0  0  0  0  0  0  0  0  0
  -23.5440  -32.1620   23.7570 O   0  0  0  0  0  0  0  0  0  0  0  0
  -22.7970  -29.4610   22.5460 C   0  0  0  0  0  0  0  0  0  0  0  0
  -21.4720  -29.2860   22.4130 N   0  0  0  0  0  0  0  0  0  0  0  0
  -23.4710  -28.8340   23.3680 O   0  0  0  0  0  0  0  0  0  0  0  0
  -20.9870  -29.8440   21.7240 H   0  0  0  0  0  0  0  0  0  0  0  0
  -18.0860  -28.1070   22.9150 C   0  0  0  0  0  0  0  0  0  0  0  0
  -20.6480  -28.3490   23.1800 C   0  0  0  0  0  3  0  0  0  0  0  0
  -20.7370  -26.9190   22.5960 C   0  0  0  0  0  2  0  0  0  0  0  0
  -19.6320  -26.6110   21.5810 C   0  0  0  0  0  2  0  0  0  0  0  0
  -18.2520  -26.7610   22.2300 C   0  0  0  0  0  2  0  0  0  0  0  0
  -19.2120  -28.8590   23.3470 C   0  0  0  0  0  0  0  0  0  0  0  0
  -19.0020  -30.1180   23.9490 C   0  0  0  0  0  3  0  0  0  0  0  0
  -17.7020  -30.6270   24.1210 C   0  0  0  0  0  3  0  0  0  0  0  0
  -16.5910  -29.8740   23.7060 C   0  0  0  0  0  3  0  0  0  0  0  0
  -16.7850  -28.6150   23.1080 C   0  0  0  0  0  3  0  0  0  0  0  0
  -25.9050  -32.5390   23.8770 C   0  0  0  0  0  3  0  0  0  0  0  0
  -25.5810  -33.9380   24.1910 N   0  0  0  0  0  0  0  0  0  0  0  0
  -25.9180  -34.9870   23.4290 C   0  0  0  0  0  0  0  0  0  0  0  0
  -26.6020  -34.8810   22.4070 O   0  0  0  0  0  0  0  0  0  0  0  0
  -24.9730  -34.0940   24.9810 H   0  0  0  0  0  0  0  0  0  0  0  0
  -24.1890  -36.7720   23.0350 C   0  0  0  0  0  1  0  0  0  0  0  0
  -25.4160  -36.3760   23.8700 C   0  0  0  0  0  3  0  0  0  0  0  0
  -27.5300  -37.2770   24.7370 C   0  0  0  0  0  1  0  0  0  0  0  0
  -26.4470  -37.4330   23.7700 N   0  0  0  0  0  0  0  0  0  0  0  0
  -26.0340  -38.3520   23.9020 H   0  0  0  0  0  0  0  0  0  0  0  0
  -26.4040  -31.7820   25.1690 C   0  0  1  0  0  0  0  0  0  0  0  0
  -25.2950  -31.5500   26.2220 C   0  0  0  0  0  1  0  0  0  0  0  0
  -27.0020  -30.4060   24.8010 C   0  0  0  0  0  1  0  0  0  0  0  0
  -27.5390  -32.5890   25.8410 C   0  0  0  0  0  1  0  0  0  0  0  0
  1  3  1  0
  3  9  1  0
  3  2  2  0
  4  1  2  0
  4  5  1  0
  5 48  1  0
  5  2  1  0
  6  8  1  0
  7  8  1  0
  8  4  1  0
 10 18  1  0
 11 16  1  0
 12 13  1  0
 12 11  1  0
 14 13  1  0
 14 23  1  0
 14 15  1  0
 16 10  1  0
 16 15  1  0
 17 10  2  0
 18 19  1  0
 18  9  1  0
 20 21  2  0
 21 40  1  0
 22 21  1  0
 22 25  1  0
 23 20  1  0
 23 24  1  0
 24 22  2  0
 25 26  1  0
 26 27  2  0
 28 31  1  0
 28 27  1  0
 29 28  2  0
 30 29  1  0
 30 25  2  0
 31 32  1  0
 32 33  1  0
 33 34  2  0
 35 34  1  0
 35 39  1  0
 36 35  2  0
 37 32  2  0
 37 36  1  0
 38 37  1  0
 40 41  1  0
 41 44  1  0
 41 43  1  0
 42 40  2  0
 45 46  1  0
 45 20  1  0
 47 45  1  0
 49 51  1  0
 49 48  2  0
 51 50  1  0
 52 51  1  0
 53 64  2  0
 54 52  1  0
 54 59  1  0
 55 63  1  0
 55 65  1  0
 56 62  1  0
 56 58  1  0
 57 63  1  0
 58 59  2  0
 58 57  1  0
 60 54  2  0
 61 60  1  0
 61 56  2  0
 62 55  1  0
 63 53  1  0
 65 67  2  0
 66 65  1  0
 68 66  1  0
 69 78  2  0
 69 74  1  0
 70 66  1  0
 70 74  1  0
 71 70  1  0
 72 73  1  0
 72 71  1  0
 73 69  1  0
 74 75  2  0
 75 76  1  0
 77 76  2  0
 78 77  1  0
 79 53  1  0
 79 80  1  0
 79 89  1  0
 80 83  1  0
 81 85  1  0
 81 80  1  0
 82 81  2  0
 85 84  1  0
 87 85  1  0
 87 88  1  0
 87 86  1  0
 89 92  1  1
 89 90  1  0
 91 89  1  0
M  ISO  4  10 100  18 100  51 101  52 101
M  END
>  <TORSDO>  (25) 
F 21

>  <SCORE>  (25) 
-13.392

>  <name>  (25) 
25

>  <ligand_id>  (25) 
25

>  <original_smiles>  (25) 
[H]c1c([H])c([H])c2c(c1[H])C([H])([H])C([H])([H])C([H])([H])C2([H])N([H])C(=O)C1([H])N(C(=O)C([H])(N([H])C(=O)C([H])(N([H])C([H])([H])[H])C([H])([H])[H])C(C([H])([H])[H])(C([H])([H])[H])C([H])([H])[H])C([H])([H])c2c([H])c(OC([H])(C([H])([H])[H])C([H])([H])C([H])([H])n3c([H])c(C([H])([H])N([H])C(=O)N4C([H])([H])C([H])([H])C([H])([H])C([H])(n5nc(-c6c([H])c([H])c(Oc7c([H])c([H])c(F)c([H])c7F)c([H])c6[H])c(C(=O)N([H])[H])c5N([H])[H])C4([H])[H])c([H])c3C([H])(C([H])([H])[H])C([H])([H])[H])c([H])c([H])c2C1([H])[H]

>  <smiles>  (25) 
[H]c1c([H])c([H])c2c(c1[H])C([H])([H])C([H])([H])C([H])([H])C2([H])N([H])C(=O)C1([H])N(C(=O)C([H])(N([H])C(=O)C([H])(N([H])C([H])([H])[H])C([H])([H])[H])C(C([H])([H])[H])(C([H])([H])[H])C([H])([H])[H])C([H])([H])c2c([H])c(OC([H])(C([H])([H])[H])C([H])([H])C([H])([H])n3c([H])c(C([H])([H])N([H])C(=O)N4C([H])([H])C([H])([H])C([H])([H])C([H])(n5nc(-c6c([H])c([H])c(Oc7c([H])c([H])c(F)c([H])c7F)c([H])c6[H])c(C(=O)N([H])[H])c5N([H])[H])C4([H])[H])c([H])c3C([H])(C([H])([H])[H])C([H])([H])[H])c([H])c([H])c2C1([H])[H]

$$$$
26:0:0
     RDKit          3D

 93101  0  0  1  0  0  0  0  0999 V2000
  -30.3150  -18.4220   22.1190 C   0  0  0  0  0  3  0  0  0  0  0  0
  -29.6150  -19.8590   20.5670 C   0  0  0  0  0  3  0  0  0  0  0  0
  -29.8060  -18.5050   20.7980 C   0  0  0  0  0  0  0  0  0  0  0  0
  -30.4500  -19.6810   22.6390 C   0  0  0  0  0  0  0  0  0  0  0  0
  -30.0090  -20.6040   21.6860 N   0  0  0  0  0  0  0  0  0  0  0  0
  -32.5010  -20.5020   23.8170 C   0  0  0  0  0  1  0  0  0  0  0  0
  -30.9140  -18.9310   25.0000 C   0  0  0  0  0  1  0  0  0  0  0  0
  -31.0380  -20.0640   23.9720 C   0  0  0  0  0  3  0  0  0  0  0  0
  -29.5830  -17.3110   19.8490 C   0  0  0  0  0  2  0  0  0  0  0  0
  -30.2750  -14.9310   20.3280 C   0  0  0  0  0  0  0  0  0  0  0  0
  -30.2640  -12.5670   19.6160 C   0  0  0  0  0  2  0  0  0  0  0  0
  -29.3370  -12.4440   18.3870 C   0  0  0  0  0  2  0  0  0  0  0  0
  -27.8800  -12.2060   18.8310 C   0  0  0  0  0  2  0  0  0  0  0  0
  -27.4180  -13.1990   19.9310 C   0  0  0  0  0  3  0  0  0  0  0  0
  -28.4670  -13.3220   21.0600 C   0  0  0  0  0  2  0  0  0  0  0  0
  -29.7530  -13.6740   20.4440 N   0  0  0  0  0  0  0  0  0  0  0  0
  -31.4160  -15.1240   19.9000 O   0  0  0  0  0  0  0  0  0  0  0  0
  -29.4080  -15.9660   20.4660 N   0  0  0  0  0  0  0  0  0  0  0  0
  -28.4870  -15.7440   20.8100 H   0  0  0  0  0  0  0  0  0  0  0  0
  -25.0620  -13.6880   20.8370 C   0  0  0  0  0  0  0  0  0  0  0  0
  -24.0200  -12.8650   21.1720 C   0  0  0  0  0  0  0  0  0  0  0  0
  -24.4870  -11.5310   20.9590 C   0  0  0  0  0  0  0  0  0  0  0  0
  -26.0980  -12.8510   20.4490 N   0  0  0  0  0  0  0  0  0  0  0  0
  -25.7590  -11.5430   20.5810 N   0  0  0  0  0  0  0  0  0  0  0  0
  -23.7790  -10.2470   21.0410 C   0  0  0  0  0  0  0  0  0  0  0  0
  -24.2560   -9.1910   21.8480 C   0  0  0  0  0  3  0  0  0  0  0  0
  -23.5460   -7.9730   21.9260 C   0  0  0  0  0  3  0  0  0  0  0  0
  -22.3470   -7.8030   21.1950 C   0  0  0  0  0  0  0  0  0  0  0  0
  -21.8880   -8.8500   20.3760 C   0  0  0  0  0  3  0  0  0  0  0  0
  -22.5980  -10.0590   20.2950 C   0  0  0  0  0  3  0  0  0  0  0  0
  -21.6050   -6.6460   21.1880 O   0  0  0  0  0  0  0  0  0  0  0  0
  -21.6290   -5.7690   22.2430 C   0  0  0  0  0  0  0  0  0  0  0  0
  -21.2450   -6.1580   23.5440 C   0  0  0  0  0  3  0  0  0  0  0  0
  -21.2180   -5.2080   24.5840 C   0  0  0  0  0  3  0  0  0  0  0  0
  -21.5670   -3.8690   24.3240 C   0  0  0  0  0  0  0  0  0  0  0  0
  -21.9430   -3.4790   23.0270 C   0  0  0  0  0  3  0  0  0  0  0  0
  -21.9730   -4.4260   21.9890 C   0  0  0  0  0  0  0  0  0  0  0  0
  -22.3180   -4.0400   20.7370 F   0  0  0  0  0  0  0  0  0  0  0  0
  -21.5330   -2.9540   25.3210 F   0  0  0  0  0  0  0  0  0  0  0  0
  -22.6380  -13.2920   21.5710 C   0  0  0  0  0  0  0  0  0  0  0  0
  -21.9690  -12.5020   22.4040 N   0  0  0  0  0  0  0  0  0  0  0  0
  -22.1600  -14.3570   21.1820 O   0  0  0  0  0  0  0  0  0  0  0  0
  -22.3710  -11.6390   22.7390 H   0  0  0  0  0  0  0  0  0  0  0  0
  -21.0430  -12.7650   22.7110 H   0  0  0  0  0  0  0  0  0  0  0  0
  -25.2070  -15.0720   20.8100 N   0  0  0  0  0  0  0  0  0  0  0  0
  -24.4420  -15.6970   21.0390 H   0  0  0  0  0  0  0  0  0  0  0  0
  -26.0330  -15.5610   20.4850 H   0  0  0  0  0  0  0  0  0  0  0  0
  -30.0470  -22.0820   21.9130 C   0  0  0  0  0  2  0  0  0  0  0  0
  -29.7130  -23.1380   20.7690 C   0  0  0  0  0  2  0  0  0  0  0  0
  -27.4630  -24.0330   21.7090 C   0  0  0  0  0  1  0  0  0  0  0  0
  -28.6540  -24.3480   20.7650 C   0  0  0  0  0  3  0  0  0  0  0  0
  -29.2040  -25.8140   21.0530 C   0  0  0  0  0  2  0  0  0  0  0  0
  -28.9370  -26.8870   20.1060 O   0  0  0  0  0  0  0  0  0  0  0  0
  -24.7010  -31.7770   23.2500 C   0  0  0  0  0  0  0  0  0  0  0  0
  -27.7270  -27.5590   20.1650 C   0  0  0  0  0  0  0  0  0  0  0  0
  -23.6380  -30.3140   21.5640 C   0  0  0  0  0  3  0  0  0  0  0  0
  -25.2310  -28.9150   20.1420 C   0  0  0  0  0  0  0  0  0  0  0  0
  -26.1360  -30.8580   21.4240 C   0  0  0  0  0  2  0  0  0  0  0  0
  -26.3380  -29.5020   20.7700 C   0  0  0  0  0  0  0  0  0  0  0  0
  -27.5890  -28.8320   20.7820 C   0  0  0  0  0  3  0  0  0  0  0  0
  -26.6130  -27.0150   19.5000 C   0  0  0  0  0  3  0  0  0  0  0  0
  -25.3660  -27.6710   19.5030 C   0  0  0  0  0  3  0  0  0  0  0  0
  -23.9250  -29.6790   20.1780 C   0  0  0  0  0  2  0  0  0  0  0  0
  -24.8410  -31.0010   22.1370 N   0  0  0  0  0  0  0  0  0  0  0  0
  -23.5930  -31.9540   23.7740 O   0  0  0  0  0  0  0  0  0  0  0  0
  -23.0510  -29.2290   22.4970 C   0  0  0  0  0  0  0  0  0  0  0  0
  -21.7640  -28.8980   22.2990 N   0  0  0  0  0  0  0  0  0  0  0  0
  -23.7530  -28.6880   23.3550 O   0  0  0  0  0  0  0  0  0  0  0  0
  -21.2540  -29.3940   21.5820 H   0  0  0  0  0  0  0  0  0  0  0  0
  -18.5370  -27.2960   22.5880 C   0  0  0  0  0  0  0  0  0  0  0  0
  -21.0170  -27.8740   23.0290 C   0  0  0  0  0  3  0  0  0  0  0  0
  -21.3360  -26.4600   22.4890 C   0  0  0  0  0  2  0  0  0  0  0  0
  -20.3570  -25.9910   21.4090 C   0  0  0  0  0  2  0  0  0  0  0  0
  -18.9260  -25.9720   21.9530 C   0  0  0  0  0  2  0  0  0  0  0  0
  -19.5200  -28.1960   23.0790 C   0  0  0  0  0  0  0  0  0  0  0  0
  -19.1060  -29.4300   23.6260 C   0  0  0  0  0  3  0  0  0  0  0  0
  -17.7410  -29.7670   23.6940 C   0  0  0  0  0  3  0  0  0  0  0  0
  -16.7720  -28.8640   23.2200 C   0  0  0  0  0  3  0  0  0  0  0  0
  -17.1700  -27.6320   22.6730 C   0  0  0  0  0  3  0  0  0  0  0  0
  -25.9230  -32.4960   23.9040 C   0  0  0  0  0  3  0  0  0  0  0  0
  -25.5140  -33.8740   24.2110 N   0  0  0  0  0  0  0  0  0  0  0  0
  -25.7980  -34.9390   23.4500 C   0  0  0  0  0  0  0  0  0  0  0  0
  -26.5010  -34.8700   22.4380 O   0  0  0  0  0  0  0  0  0  0  0  0
  -24.8920  -33.9970   24.9960 H   0  0  0  0  0  0  0  0  0  0  0  0
  -23.9550  -36.6010   23.0420 C   0  0  0  0  0  1  0  0  0  0  0  0
  -25.2070  -36.2960   23.8790 C   0  0  0  0  0  3  0  0  0  0  0  0
  -27.2600  -37.3390   24.7290 C   0  0  0  0  0  1  0  0  0  0  0  0
  -26.1650  -37.4170   23.7660 N   0  0  0  0  0  0  0  0  0  0  0  0
  -25.6940  -38.3090   23.8920 H   0  0  0  0  0  0  0  0  0  0  0  0
  -26.4510  -31.7700   25.2020 C   0  0  1  0  0  0  0  0  0  0  0  0
  -25.3430  -31.4590   26.2360 C   0  0  0  0  0  1  0  0  0  0  0  0
  -27.1440  -30.4370   24.8400 C   0  0  0  0  0  1  0  0  0  0  0  0
  -27.5170  -32.6490   25.8970 C   0  0  0  0  0  1  0  0  0  0  0  0
  1  4  2  0
  2  3  2  0
  2  5  1  0
  3  1  1  0
  4  8  1  0
  5 48  1  0
  5  4  1  0
  6  8  1  0
  8  7  1  0
  9 18  1  0
  9  3  1  0
 10 16  1  0
 10 18  1  0
 11 16  1  0
 12 13  1  0
 12 11  1  0
 14 13  1  0
 14 23  1  0
 14 15  1  0
 16 15  1  0
 17 10  2  0
 18 19  1  0
 20 21  2  0
 21 40  1  0
 22 25  1  0
 22 21  1  0
 23 24  1  0
 23 20  1  0
 24 22  2  0
 25 26  1  0
 26 27  2  0
 28 27  1  0
 29 28  2  0
 30 29  1  0
 30 25  2  0
 31 28  1  0
 31 32  1  0
 32 33  1  0
 33 34  2  0
 35 34  1  0
 35 39  1  0
 36 35  2  0
 37 32  2  0
 37 36  1  0
 38 37  1  0
 40 41  1  0
 41 44  1  0
 41 43  1  0
 42 40  2  0
 45 20  1  0
 45 46  1  0
 47 45  1  0
 49 48  1  0
 51 49  1  0
 51 52  1  0
 51 50  1  0
 53 55  1  0
 53 52  1  0
 54 65  2  0
 55 60  1  0
 56 64  1  0
 56 66  1  0
 57 63  1  0
 57 59  1  0
 58 64  1  0
 59 60  2  0
 59 58  1  0
 61 62  1  0
 61 55  2  0
 62 57  2  0
 63 56  1  0
 64 54  1  0
 66 68  2  0
 67 66  1  0
 69 67  1  0
 70 79  2  0
 70 75  1  0
 71 67  1  0
 71 75  1  0
 72 71  1  0
 73 74  1  0
 73 72  1  0
 74 70  1  0
 75 76  2  0
 76 77  1  0
 78 77  2  0
 79 78  1  0
 80 54  1  0
 80 81  1  0
 80 90  1  0
 81 84  1  0
 82 86  1  0
 82 81  1  0
 83 82  2  0
 86 85  1  0
 88 86  1  0
 88 89  1  0
 88 87  1  0
 90 93  1  1
 90 91  1  0
 92 90  1  0
M  ISO  4  10 100  18 100  52 101  53 101
M  END
>  <TORSDO>  (26) 
F 22

>  <SCORE>  (26) 
-9.908

>  <name>  (26) 
26

>  <ligand_id>  (26) 
26

>  <original_smiles>  (26) 
[H]c1c([H])c([H])c2c(c1[H])C([H])([H])C([H])([H])C([H])([H])C2([H])N([H])C(=O)C1([H])N(C(=O)C([H])(N([H])C(=O)C([H])(N([H])C([H])([H])[H])C([H])([H])[H])C(C([H])([H])[H])(C([H])([H])[H])C([H])([H])[H])C([H])([H])c2c([H])c(OC([H])([H])C([H])(C([H])([H])[H])C([H])([H])C([H])([H])n3c([H])c(C([H])([H])N([H])C(=O)N4C([H])([H])C([H])([H])C([H])([H])C([H])(n5nc(-c6c([H])c([H])c(Oc7c([H])c([H])c(F)c([H])c7F)c([H])c6[H])c(C(=O)N([H])[H])c5N([H])[H])C4([H])[H])c([H])c3C([H])(C([H])([H])[H])C([H])([H])[H])c([H])c([H])c2C1([H])[H]

>  <smiles>  (26) 
[H]c1c([H])c([H])c2c(c1[H])C([H])([H])C([H])([H])C([H])([H])C2([H])N([H])C(=O)C1([H])N(C(=O)C([H])(N([H])C(=O)C([H])(N([H])C([H])([H])[H])C([H])([H])[H])C(C([H])([H])[H])(C([H])([H])[H])C([H])([H])[H])C([H])([H])c2c([H])c(OC([H])([H])C([H])(C([H])([H])[H])C([H])([H])C([H])([H])n3c([H])c(C([H])([H])N([H])C(=O)N4C([H])([H])C([H])([H])C([H])([H])C([H])(n5nc(-c6c([H])c([H])c(Oc7c([H])c([H])c(F)c([H])c7F)c([H])c6[H])c(C(=O)N([H])[H])c5N([H])[H])C4([H])[H])c([H])c3C([H])(C([H])([H])[H])C([H])([H])[H])c([H])c([H])c2C1([H])[H]

$$$$
27:0:0
     RDKit          3D

 92100  0  0  1  0  0  0  0  0999 V2000
  -28.7940  -22.4120   19.2090 C   0  0  0  0  0  2  0  0  0  0  0  0
  -29.9210  -20.0000   19.2580 C   0  0  0  0  0  3  0  0  0  0  0  0
  -29.6060  -18.6650   19.5440 C   0  0  0  0  0  0  0  0  0  0  0  0
  -28.3180  -18.7660   20.1550 C   0  0  0  0  0  0  0  0  0  0  0  0
  -27.8800  -20.0780   20.0950 C   0  0  0  0  0  0  0  0  0  0  0  0
  -27.5280  -17.6200   20.7350 C   0  0  0  0  0  1  0  0  0  0  0  0
  -26.5100  -20.5640   20.4520 C   0  0  0  0  0  1  0  0  0  0  0  0
  -28.8810  -20.9120   19.5830 N   0  0  0  0  0  0  0  0  0  0  0  0
  -30.4850  -17.3570   19.2840 C   0  0  0  0  0  2  0  0  0  0  0  0
  -30.7710  -14.7850   19.4090 C   0  0  0  0  0  0  0  0  0  0  0  0
  -30.4400  -12.4940   18.4840 C   0  0  0  0  0  2  0  0  0  0  0  0
  -29.3690  -12.5610   17.3740 C   0  0  0  0  0  2  0  0  0  0  0  0
  -27.9600  -12.4020   17.9760 C   0  0  0  0  0  2  0  0  0  0  0  0
  -27.7310  -13.2990   19.2230 C   0  0  0  0  0  3  0  0  0  0  0  0
  -28.9190  -13.2310   20.2100 C   0  0  0  0  0  2  0  0  0  0  0  0
  -30.1310  -13.5660   19.4550 N   0  0  0  0  0  0  0  0  0  0  0  0
  -31.9140  -14.8580   18.9490 O   0  0  0  0  0  0  0  0  0  0  0  0
  -30.0520  -15.9390   19.6480 N   0  0  0  0  0  0  0  0  0  0  0  0
  -29.1060  -15.8260   19.9760 H   0  0  0  0  0  0  0  0  0  0  0  0
  -25.4690  -13.8960   20.2830 C   0  0  0  0  0  0  0  0  0  0  0  0
  -24.4430  -13.1260   20.7560 C   0  0  0  0  0  0  0  0  0  0  0  0
  -24.8670  -11.7700   20.6080 C   0  0  0  0  0  0  0  0  0  0  0  0
  -26.4550  -13.0120   19.8740 N   0  0  0  0  0  0  0  0  0  0  0  0
  -26.1050  -11.7240   20.1290 N   0  0  0  0  0  0  0  0  0  0  0  0
  -24.1410  -10.5130   20.8360 C   0  0  0  0  0  0  0  0  0  0  0  0
  -24.6130   -9.5410   21.7450 C   0  0  0  0  0  3  0  0  0  0  0  0
  -23.8860   -8.3500   21.9620 C   0  0  0  0  0  3  0  0  0  0  0  0
  -22.6740   -8.1210   21.2700 C   0  0  0  0  0  0  0  0  0  0  0  0
  -22.2200   -9.0810   20.3480 C   0  0  0  0  0  3  0  0  0  0  0  0
  -22.9470  -10.2650   20.1290 C   0  0  0  0  0  3  0  0  0  0  0  0
  -21.9140   -6.9820   21.3990 O   0  0  0  0  0  0  0  0  0  0  0  0
  -21.8440   -6.2960   22.5850 C   0  0  0  0  0  0  0  0  0  0  0  0
  -21.3980   -6.9090   23.7760 C   0  0  0  0  0  3  0  0  0  0  0  0
  -21.2710   -6.1480   24.9540 C   0  0  0  0  0  3  0  0  0  0  0  0
  -21.5820   -4.7740   24.9460 C   0  0  0  0  0  0  0  0  0  0  0  0
  -22.0230   -4.1620   23.7590 C   0  0  0  0  0  3  0  0  0  0  0  0
  -22.1510   -4.9200   22.5830 C   0  0  0  0  0  0  0  0  0  0  0  0
  -22.5540   -4.3200   21.4360 F   0  0  0  0  0  0  0  0  0  0  0  0
  -21.4540   -4.0410   26.0750 F   0  0  0  0  0  0  0  0  0  0  0  0
  -23.1040  -13.6170   21.2240 C   0  0  0  0  0  0  0  0  0  0  0  0
  -22.4860  -12.9140   22.1660 N   0  0  0  0  0  0  0  0  0  0  0  0
  -22.6180  -14.6600   20.7880 O   0  0  0  0  0  0  0  0  0  0  0  0
  -22.8950  -12.0760   22.5500 H   0  0  0  0  0  0  0  0  0  0  0  0
  -21.5900  -13.2260   22.5130 H   0  0  0  0  0  0  0  0  0  0  0  0
  -25.6300  -15.2710   20.1380 N   0  0  0  0  0  0  0  0  0  0  0  0
  -24.8760  -15.9160   20.3450 H   0  0  0  0  0  0  0  0  0  0  0  0
  -26.4000  -15.7100   19.6520 H   0  0  0  0  0  0  0  0  0  0  0  0
  -27.5930  -23.6930   21.1700 C   0  0  0  0  0  1  0  0  0  0  0  0
  -30.0840  -23.5870   21.1000 C   0  0  0  0  0  1  0  0  0  0  0  0
  -28.8150  -23.6940   20.2310 C   0  0  1  0  0  0  0  0  0  0  0  0
  -28.8030  -25.1420   19.4830 C   0  0  0  0  0  2  0  0  0  0  0  0
  -28.5700  -26.4550   20.1860 O   0  0  0  0  0  0  0  0  0  0  0  0
  -24.3950  -31.6220   23.0840 C   0  0  0  0  0  0  0  0  0  0  0  0
  -27.3940  -27.2360   20.0740 C   0  0  0  0  0  0  0  0  0  0  0  0
  -23.3430  -30.1800   21.3790 C   0  0  0  0  0  3  0  0  0  0  0  0
  -24.9390  -28.7380   19.9890 C   0  0  0  0  0  0  0  0  0  0  0  0
  -25.8670  -30.6430   21.3020 C   0  0  0  0  0  2  0  0  0  0  0  0
  -26.0550  -29.2800   20.6370 C   0  0  0  0  0  0  0  0  0  0  0  0
  -27.2820  -28.5390   20.6680 C   0  0  0  0  0  3  0  0  0  0  0  0
  -26.2410  -26.7550   19.4090 C   0  0  0  0  0  3  0  0  0  0  0  0
  -25.0380  -27.4850   19.3670 C   0  0  0  0  0  3  0  0  0  0  0  0
  -23.6500  -29.5350   20.0020 C   0  0  0  0  0  2  0  0  0  0  0  0
  -24.5500  -30.8340   21.9780 N   0  0  0  0  0  0  0  0  0  0  0  0
  -23.2760  -31.8260   23.5790 O   0  0  0  0  0  0  0  0  0  0  0  0
  -22.7010  -29.1140   22.3000 C   0  0  0  0  0  0  0  0  0  0  0  0
  -21.3920  -28.8630   22.1210 N   0  0  0  0  0  0  0  0  0  0  0  0
  -23.3820  -28.5150   23.1360 O   0  0  0  0  0  0  0  0  0  0  0  0
  -20.8960  -29.3970   21.4200 H   0  0  0  0  0  0  0  0  0  0  0  0
  -18.0740  -27.4790   22.5030 C   0  0  0  0  0  0  0  0  0  0  0  0
  -20.6050  -27.8650   22.8480 C   0  0  0  0  0  3  0  0  0  0  0  0
  -20.7990  -26.4540   22.2420 C   0  0  0  0  0  2  0  0  0  0  0  0
  -19.7450  -26.0980   21.1890 C   0  0  0  0  0  2  0  0  0  0  0  0
  -18.3420  -26.1550   21.8020 C   0  0  0  0  0  2  0  0  0  0  0  0
  -19.1380  -28.2870   22.9810 C   0  0  0  0  0  0  0  0  0  0  0  0
  -18.8370  -29.5210   23.5980 C   0  0  0  0  0  3  0  0  0  0  0  0
  -17.5050  -29.9510   23.7390 C   0  0  0  0  0  3  0  0  0  0  0  0
  -16.4540  -29.1390   23.2780 C   0  0  0  0  0  3  0  0  0  0  0  0
  -16.7380  -27.9040   22.6680 C   0  0  0  0  0  3  0  0  0  0  0  0
  -25.6100  -32.3220   23.7660 C   0  0  0  0  0  3  0  0  0  0  0  0
  -26.0670  -31.6130   25.1010 C   0  0  1  0  0  0  0  0  0  0  0  0
  -24.9130  -31.3580   26.1000 C   0  0  0  0  0  1  0  0  0  0  0  0
  -26.7360  -30.2530   24.7960 C   0  0  0  0  0  1  0  0  0  0  0  0
  -27.1360  -32.4750   25.8140 C   0  0  0  0  0  1  0  0  0  0  0  0
  -25.2290  -33.7160   24.0340 N   0  0  0  0  0  0  0  0  0  0  0  0
  -25.5490  -34.7590   23.2560 C   0  0  0  0  0  0  0  0  0  0  0  0
  -26.2710  -34.6510   22.2610 O   0  0  0  0  0  0  0  0  0  0  0  0
  -24.5950  -33.8680   24.8060 H   0  0  0  0  0  0  0  0  0  0  0  0
  -23.7720  -36.4670   22.7600 C   0  0  0  0  0  1  0  0  0  0  0  0
  -24.9860  -36.1400   23.6450 C   0  0  0  0  0  3  0  0  0  0  0  0
  -27.0390  -37.1390   24.5500 C   0  0  0  0  0  1  0  0  0  0  0  0
  -25.9830  -37.2300   23.5450 N   0  0  0  0  0  0  0  0  0  0  0  0
  -25.5340  -38.1390   23.6400 H   0  0  0  0  0  0  0  0  0  0  0  0
  1  8  1  0
  1 50  1  0
  2  3  2  0
  2  8  1  0
  3  4  1  0
  4  6  1  0
  5  4  2  0
  5  7  1  0
  8  5  1  0
  9  3  1  0
  9 18  1  0
 10 16  1  0
 10 18  1  0
 11 16  1  0
 12 13  1  0
 12 11  1  0
 14 13  1  0
 14 23  1  0
 14 15  1  0
 16 15  1  0
 17 10  2  0
 18 19  1  0
 20 21  2  0
 21 40  1  0
 22 21  1  0
 22 25  1  0
 23 24  1  0
 23 20  1  0
 24 22  2  0
 25 26  1  0
 26 27  2  0
 28 31  1  0
 28 27  1  0
 29 28  2  0
 30 29  1  0
 30 25  2  0
 31 32  1  0
 32 33  1  0
 33 34  2  0
 35 34  1  0
 35 39  1  0
 36 35  2  0
 37 32  2  0
 37 36  1  0
 38 37  1  0
 40 41  1  0
 41 44  1  0
 41 43  1  0
 42 40  2  0
 45 20  1  0
 45 46  1  0
 47 45  1  0
 50 49  1  1
 50 48  1  0
 51 52  1  0
 51 50  1  0
 53 64  2  0
 54 52  1  0
 54 59  1  0
 55 63  1  0
 55 65  1  0
 56 62  1  0
 56 58  1  0
 57 63  1  0
 58 59  2  0
 58 57  1  0
 60 54  2  0
 61 60  1  0
 61 56  2  0
 62 55  1  0
 63 53  1  0
 65 67  2  0
 66 65  1  0
 68 66  1  0
 69 78  2  0
 69 74  1  0
 70 66  1  0
 70 74  1  0
 71 70  1  0
 72 73  1  0
 72 71  1  0
 73 69  1  0
 74 75  2  0
 75 76  1  0
 77 76  2  0
 78 77  1  0
 79 53  1  0
 79 84  1  0
 79 80  1  0
 80 83  1  1
 80 81  1  0
 82 80  1  0
 84 87  1  0
 85 89  1  0
 85 84  1  0
 86 85  2  0
 89 88  1  0
 91 92  1  0
 91 89  1  0
 91 90  1  0
M  ISO  4  10 100  18 100  51 101  52 101
M  END
>  <TORSDO>  (27) 
F 20

>  <SCORE>  (27) 
-10.562

>  <name>  (27) 
27

>  <ligand_id>  (27) 
27

>  <original_smiles>  (27) 
[H]c1c([H])c([H])c2c(c1[H])C([H])([H])C([H])([H])C([H])([H])C2([H])N([H])C(=O)C1([H])N(C(=O)C([H])(N([H])C(=O)C([H])(N([H])C([H])([H])[H])C([H])([H])[H])C(C([H])([H])[H])(C([H])([H])[H])C([H])([H])[H])C([H])([H])c2c([H])c(OC([H])([H])C(C([H])([H])[H])(C([H])([H])[H])C([H])([H])n3c([H])c(C([H])([H])N([H])C(=O)N4C([H])([H])C([H])([H])C([H])([H])C([H])(n5nc(-c6c([H])c([H])c(Oc7c([H])c([H])c(F)c([H])c7F)c([H])c6[H])c(C(=O)N([H])[H])c5N([H])[H])C4([H])[H])c(C([H])([H])[H])c3C([H])([H])[H])c([H])c([H])c2C1([H])[H]

>  <smiles>  (27) 
[H]c1c([H])c([H])c2c(c1[H])C([H])([H])C([H])([H])C([H])([H])C2([H])N([H])C(=O)C1([H])N(C(=O)C([H])(N([H])C(=O)C([H])(N([H])C([H])([H])[H])C([H])([H])[H])C(C([H])([H])[H])(C([H])([H])[H])C([H])([H])[H])C([H])([H])c2c([H])c(OC([H])([H])C(C([H])([H])[H])(C([H])([H])[H])C([H])([H])n3c([H])c(C([H])([H])N([H])C(=O)N4C([H])([H])C([H])([H])C([H])([H])C([H])(n5nc(-c6c([H])c([H])c(Oc7c([H])c([H])c(F)c([H])c7F)c([H])c6[H])c(C(=O)N([H])[H])c5N([H])[H])C4([H])[H])c(C([H])([H])[H])c3C([H])([H])[H])c([H])c([H])c2C1([H])[H]

$$$$
28:0:0
     RDKit          3D

100108  0  0  1  0  0  0  0  0999 V2000
  -27.0050  -17.1260   20.7530 C   0  0  0  0  0  3  0  0  0  0  0  0
  -27.5090  -16.6670   19.5190 C   0  0  0  0  0  0  0  0  0  0  0  0
  -27.7770  -17.0050   21.9240 C   0  0  0  0  0  0  0  0  0  0  0  0
  -28.7770  -16.0300   19.5200 C   0  0  0  0  0  0  0  0  0  0  0  0
  -29.0570  -16.4150   21.8080 C   0  0  0  0  0  0  0  0  0  0  0  0
  -30.0030  -16.2620   22.9840 C   0  0  0  0  0  1  0  0  0  0  0  0
  -29.5260  -15.9370   20.6390 N   0  0  0  0  0  0  0  0  0  0  0  0
  -26.4540  -16.3520   23.9830 C   0  0  0  0  0  1  0  0  0  0  0  0
  -26.3500  -18.7400   23.1200 C   0  0  0  0  0  1  0  0  0  0  0  0
  -27.2120  -17.4780   23.2650 C   0  0  0  0  0  3  0  0  0  0  0  0
  -29.3710  -15.2820   18.3230 C   0  0  0  0  0  2  0  0  0  0  0  0
  -29.8730  -13.8960   18.7660 C   0  0  0  0  0  2  0  0  0  0  0  0
  -31.9490  -12.8150   19.7290 C   0  0  0  0  0  0  0  0  0  0  0  0
  -32.1230  -10.8870   21.2770 C   0  0  0  0  0  2  0  0  0  0  0  0
  -31.4940   -9.6110   20.6780 C   0  0  0  0  0  2  0  0  0  0  0  0
  -29.9670   -9.5600   20.8940 C   0  0  0  0  0  2  0  0  0  0  0  0
  -29.2790  -10.8960   20.5220 C   0  0  0  0  0  3  0  0  0  0  0  0
  -30.0260  -12.0570   21.2130 C   0  0  0  0  0  2  0  0  0  0  0  0
  -31.4130  -12.0570   20.7300 N   0  0  0  0  0  0  0  0  0  0  0  0
  -33.1040  -12.6480   19.3260 O   0  0  0  0  0  0  0  0  0  0  0  0
  -31.2500  -13.8780   19.2870 N   0  0  0  0  0  0  0  0  0  0  0  0
  -31.8450  -14.5620   18.8420 H   0  0  0  0  0  0  0  0  0  0  0  0
  -26.9490  -11.9380   20.8650 C   0  0  0  0  0  0  0  0  0  0  0  0
  -25.7400  -11.3830   21.1760 C   0  0  0  0  0  0  0  0  0  0  0  0
  -25.9840   -9.9840   21.3430 C   0  0  0  0  0  0  0  0  0  0  0  0
  -27.8580  -10.8920   20.8510 N   0  0  0  0  0  0  0  0  0  0  0  0
  -27.2740   -9.7170   21.1920 N   0  0  0  0  0  0  0  0  0  0  0  0
  -25.0580   -8.8710   21.5640 C   0  0  0  0  0  0  0  0  0  0  0  0
  -24.8520   -8.3300   22.8530 C   0  0  0  0  0  3  0  0  0  0  0  0
  -23.9380   -7.2730   23.0450 C   0  0  0  0  0  3  0  0  0  0  0  0
  -23.2180   -6.7490   21.9440 C   0  0  0  0  0  0  0  0  0  0  0  0
  -23.4490   -7.2730   20.6610 C   0  0  0  0  0  3  0  0  0  0  0  0
  -24.3640   -8.3200   20.4700 C   0  0  0  0  0  3  0  0  0  0  0  0
  -22.3280   -5.7060   22.0340 O   0  0  0  0  0  0  0  0  0  0  0  0
  -21.3370   -5.6860   22.9820 C   0  0  0  0  0  0  0  0  0  0  0  0
  -20.2990   -6.6440   23.0020 C   0  0  0  0  0  3  0  0  0  0  0  0
  -19.2640   -6.5420   23.9550 C   0  0  0  0  0  3  0  0  0  0  0  0
  -19.2600   -5.4820   24.8820 C   0  0  0  0  0  0  0  0  0  0  0  0
  -20.2930   -4.5260   24.8610 C   0  0  0  0  0  3  0  0  0  0  0  0
  -21.3250   -4.6280   23.9130 C   0  0  0  0  0  0  0  0  0  0  0  0
  -22.3080   -3.6950   23.8880 F   0  0  0  0  0  0  0  0  0  0  0  0
  -18.2630   -5.3760   25.7890 F   0  0  0  0  0  0  0  0  0  0  0  0
  -24.4170  -12.0870   21.2210 C   0  0  0  0  0  0  0  0  0  0  0  0
  -23.5080  -11.6300   22.0750 N   0  0  0  0  0  0  0  0  0  0  0  0
  -24.1970  -13.0780   20.5230 O   0  0  0  0  0  0  0  0  0  0  0  0
  -23.6910  -10.8300   22.6640 H   0  0  0  0  0  0  0  0  0  0  0  0
  -22.6090  -12.0830   22.1370 H   0  0  0  0  0  0  0  0  0  0  0  0
  -27.3470  -13.2390   20.5750 N   0  0  0  0  0  0  0  0  0  0  0  0
  -26.6990  -14.0140   20.6300 H   0  0  0  0  0  0  0  0  0  0  0  0
  -28.2850  -13.5240   20.3340 H   0  0  0  0  0  0  0  0  0  0  0  0
  -26.6610  -16.8700   18.2630 C   0  0  0  0  0  2  0  0  0  0  0  0
  -27.1100  -18.0770   17.4110 C   0  0  0  0  0  2  0  0  0  0  0  0
  -28.6490  -18.2660   17.3780 C   0  0  0  0  0  2  0  0  0  0  0  0
  -28.0920  -20.6820   17.5630 C   0  0  0  0  0  1  0  0  0  0  0  0
  -29.1050  -19.6660   17.1840 N   0  0  2  0  0  4  0  0  0  0  0  0
  -29.8610  -19.7710   17.8450 H   0  0  0  0  0  0  0  0  0  0  0  0
  -29.7280  -19.9180   15.8620 C   0  0  0  0  0  2  0  0  0  0  0  0
  -30.7700  -21.0420   15.9580 C   0  0  0  0  0  2  0  0  0  0  0  0
  -30.9190  -21.8390   14.6540 C   0  0  0  0  0  2  0  0  0  0  0  0
  -31.1260  -23.2160   14.9660 O   0  0  0  0  0  0  0  0  0  0  0  0
  -27.7530  -25.8630   20.6300 C   0  0  0  0  0  0  0  0  0  0  0  0
  -30.0610  -23.9780   15.4030 C   0  0  0  0  0  0  0  0  0  0  0  0
  -26.5870  -26.1490   18.4660 C   0  0  0  0  0  3  0  0  0  0  0  0
  -27.9570  -25.5860   16.3960 C   0  0  0  0  0  0  0  0  0  0  0  0
  -29.1380  -25.9620   18.5650 C   0  0  0  0  0  2  0  0  0  0  0  0
  -29.0860  -25.3450   17.1850 C   0  0  0  0  0  0  0  0  0  0  0  0
  -30.1410  -24.5480   16.6920 C   0  0  0  0  0  3  0  0  0  0  0  0
  -28.9010  -24.2200   14.6260 C   0  0  0  0  0  3  0  0  0  0  0  0
  -27.8520  -25.0110   15.1190 C   0  0  0  0  0  3  0  0  0  0  0  0
  -26.8870  -26.4750   16.9790 C   0  0  0  0  0  2  0  0  0  0  0  0
  -27.8370  -25.9650   19.2730 N   0  0  0  0  0  0  0  0  0  0  0  0
  -26.6640  -25.9700   21.2130 O   0  0  0  0  0  0  0  0  0  0  0  0
  -25.6340  -24.9360   18.5230 C   0  0  0  0  0  0  0  0  0  0  0  0
  -24.3930  -25.1330   18.0520 N   0  0  0  0  0  0  0  0  0  0  0  0
  -26.0200  -23.8460   18.9580 O   0  0  0  0  0  0  0  0  0  0  0  0
  -24.1580  -26.0530   17.7070 H   0  0  0  0  0  0  0  0  0  0  0  0
  -21.0470  -24.5120   16.8430 C   0  0  0  0  0  0  0  0  0  0  0  0
  -23.3350  -24.1270   17.9840 C   0  0  0  0  0  3  0  0  0  0  0  0
  -23.6140  -23.1080   16.8590 C   0  0  0  0  0  2  0  0  0  0  0  0
  -22.9600  -23.4920   15.5280 C   0  0  0  0  0  2  0  0  0  0  0  0
  -21.4400  -23.6090   15.6820 C   0  0  0  0  0  2  0  0  0  0  0  0
  -21.9450  -24.7720   17.9130 C   0  0  0  0  0  0  0  0  0  0  0  0
  -21.5530  -25.6560   18.9420 C   0  0  0  0  0  3  0  0  0  0  0  0
  -20.2860  -26.2690   18.9170 C   0  0  0  0  0  3  0  0  0  0  0  0
  -19.3940  -25.9960   17.8680 C   0  0  0  0  0  3  0  0  0  0  0  0
  -19.7710  -25.1180   16.8330 C   0  0  0  0  0  3  0  0  0  0  0  0
  -29.0210  -25.6420   21.5110 C   0  0  0  0  0  3  0  0  0  0  0  0
  -29.3000  -24.1210   21.8310 C   0  0  1  0  0  0  0  0  0  0  0  0
  -28.0780  -23.3810   22.4210 C   0  0  0  0  0  1  0  0  0  0  0  0
  -29.7380  -23.3620   20.5540 C   0  0  0  0  0  1  0  0  0  0  0  0
  -30.4630  -24.0010   22.8420 C   0  0  0  0  0  1  0  0  0  0  0  0
  -28.8390  -26.4090   22.7500 N   0  0  0  0  0  0  0  0  0  0  0  0
  -29.4470  -27.5730   23.0200 C   0  0  0  0  0  0  0  0  0  0  0  0
  -30.2870  -28.0810   22.2710 O   0  0  0  0  0  0  0  0  0  0  0  0
  -28.1310  -26.0750   23.3860 H   0  0  0  0  0  0  0  0  0  0  0  0
  -28.1090  -29.4550   24.0170 C   0  0  0  0  0  1  0  0  0  0  0  0
  -29.0610  -28.2890   24.3290 C   0  0  0  0  0  3  0  0  0  0  0  0
  -31.0280  -27.7180   25.6820 C   0  0  0  0  0  1  0  0  0  0  0  0
  -30.2240  -28.7880   25.0950 N   0  0  0  0  0  0  0  0  0  0  0  0
  -29.9230  -29.4040   25.8440 H   0  0  0  0  0  0  0  0  0  0  0  0
  1  3  1  0
  2  4  1  0
  2  1  2  0
  3 10  1  0
  4  7  2  0
  5  3  2  0
  5  6  1  0
  7  5  1  0
  9 10  1  0
 10  8  1  0
 11 12  1  0
 11  4  1  0
 12 21  1  0
 13 19  1  0
 15 16  1  0
 15 14  1  0
 17 26  1  0
 17 16  1  0
 17 18  1  0
 19 18  1  0
 19 14  1  0
 20 13  2  0
 21 13  1  0
 22 21  1  0
 23 24  2  0
 24 43  1  0
 24 25  1  0
 25 28  1  0
 26 23  1  0
 26 27  1  0
 27 25  2  0
 28 29  1  0
 29 30  2  0
 31 34  1  0
 31 30  1  0
 32 31  2  0
 33 32  1  0
 33 28  2  0
 34 35  1  0
 35 36  2  0
 35 40  1  0
 36 37  1  0
 37 38  2  0
 38 42  1  0
 39 38  1  0
 40 39  2  0
 41 40  1  0
 43 44  1  0
 44 47  1  0
 44 46  1  0
 45 43  2  0
 48 49  1  0
 48 23  1  0
 50 48  1  0
 51  2  1  0
 52 51  1  0
 53 52  1  0
 55 53  1  0
 55 54  1  0
 55 56  1  1
 57 58  1  0
 57 55  1  0
 59 60  1  0
 59 58  1  0
 60 62  1  0
 61 72  2  0
 62 67  1  0
 63 73  1  0
 63 71  1  0
 64 70  1  0
 64 66  1  0
 65 71  1  0
 66 65  1  0
 67 66  2  0
 68 69  1  0
 68 62  2  0
 69 64  2  0
 70 63  1  0
 71 61  1  0
 73 75  2  0
 74 73  1  0
 76 74  1  0
 77 82  1  0
 78 74  1  0
 79 78  1  0
 80 81  1  0
 80 79  1  0
 81 77  1  0
 82 78  1  0
 82 83  2  0
 84 83  1  0
 85 84  2  0
 86 77  2  0
 86 85  1  0
 87 61  1  0
 87 88  1  0
 87 92  1  0
 88 89  1  1
 88 91  1  0
 90 88  1  0
 92 93  1  0
 92 95  1  0
 93 97  1  0
 94 93  2  0
 97 96  1  0
 97 99  1  0
 99 98  1  0
 99100  1  0
M  ISO  4  13 100  21 100  59 101  60 101
M  END
>  <TORSDO>  (28) 
F 26

>  <SCORE>  (28) 
31.870

>  <name>  (28) 
28

>  <ligand_id>  (28) 
28

>  <original_smiles>  (28) 
[H]c1c([H])c([H])c2c(c1[H])C([H])([H])C([H])([H])C([H])([H])C2([H])N([H])C(=O)C1([H])N(C(=O)C([H])(N([H])C(=O)C([H])(N([H])C([H])([H])[H])C([H])([H])[H])C(C([H])([H])[H])(C([H])([H])[H])C([H])([H])[H])C([H])([H])c2c([H])c(OC([H])([H])C([H])([H])C([H])([H])[N+]([H])(C([H])([H])[H])C([H])([H])C([H])([H])C([H])([H])c3c(C([H])([H])C([H])([H])N([H])C(=O)N4C([H])([H])C([H])([H])C([H])([H])C([H])(n5nc(-c6c([H])c([H])c(Oc7c([H])c([H])c(F)c([H])c7F)c([H])c6[H])c(C(=O)N([H])[H])c5N([H])[H])C4([H])[H])nc(C([H])([H])[H])c(C([H])(C([H])([H])[H])C([H])([H])[H])c3[H])c([H])c([H])c2C1([H])[H]

>  <smiles>  (28) 
[H]c1c([H])c([H])c2c(c1[H])C([H])([H])C([H])([H])C([H])([H])C2([H])N([H])C(=O)C1([H])N(C(=O)C([H])(N([H])C(=O)C([H])(N([H])C([H])([H])[H])C([H])([H])[H])C(C([H])([H])[H])(C([H])([H])[H])C([H])([H])[H])C([H])([H])c2c([H])c(OC([H])([H])C([H])([H])C([H])([H])[N+]([H])(C([H])([H])[H])C([H])([H])C([H])([H])C([H])([H])c3c(C([H])([H])C([H])([H])N([H])C(=O)N4C([H])([H])C([H])([H])C([H])([H])C([H])(n5nc(-c6c([H])c([H])c(Oc7c([H])c([H])c(F)c([H])c7F)c([H])c6[H])c(C(=O)N([H])[H])c5N([H])[H])C4([H])[H])nc(C([H])([H])[H])c(C([H])(C([H])([H])[H])C([H])([H])[H])c3[H])c([H])c([H])c2C1([H])[H]

$$$$
29:0:0
     RDKit          3D

 99107  0  0  1  0  0  0  0  0999 V2000
  -31.3900  -20.0440   17.9940 C   0  0  0  0  0  3  0  0  0  0  0  0
  -31.7750  -19.9660   19.3560 C   0  0  0  0  0  0  0  0  0  0  0  0
  -30.4400  -22.1510   18.3120 C   0  0  0  0  0  0  0  0  0  0  0  0
  -30.7950  -22.0640   19.6920 C   0  0  0  0  0  0  0  0  0  0  0  0
  -30.7550  -21.1290   17.4730 N   0  0  0  0  0  0  0  0  0  0  0  0
  -31.5020  -21.0060   20.1890 N   0  0  0  0  0  0  0  0  0  0  0  0
  -29.6040  -23.2940   17.6820 C   0  0  0  0  0  3  0  0  0  0  0  0
  -29.9530  -24.7820   18.0350 C   0  0  0  0  0  3  0  0  0  0  0  0
  -29.4220  -25.8560   17.0280 C   0  0  0  0  0  2  0  0  0  0  0  0
  -29.1550  -27.1700   17.5900 O   0  0  0  0  0  0  0  0  0  0  0  0
  -25.0870  -30.1430   22.6680 C   0  0  0  0  0  0  0  0  0  0  0  0
  -27.8750  -27.5690   17.9580 C   0  0  0  0  0  0  0  0  0  0  0  0
  -23.8700  -29.0900   20.7940 C   0  0  0  0  0  3  0  0  0  0  0  0
  -25.2890  -28.4430   18.7730 C   0  0  0  0  0  0  0  0  0  0  0  0
  -26.2210  -30.0450   20.4450 C   0  0  0  0  0  2  0  0  0  0  0  0
  -26.4290  -28.9970   19.3650 C   0  0  0  0  0  0  0  0  0  0  0  0
  -27.7190  -28.5700   18.9550 C   0  0  0  0  0  3  0  0  0  0  0  0
  -26.6990  -27.0230   17.3870 C   0  0  0  0  0  3  0  0  0  0  0  0
  -25.4220  -27.4570   17.7830 C   0  0  0  0  0  3  0  0  0  0  0  0
  -23.9410  -28.9360   19.2530 C   0  0  0  0  0  2  0  0  0  0  0  0
  -25.0860  -29.7590   21.3590 N   0  0  0  0  0  0  0  0  0  0  0  0
  -24.0890  -29.9840   23.3870 O   0  0  0  0  0  0  0  0  0  0  0  0
  -23.5920  -27.7010   21.4140 C   0  0  0  0  0  0  0  0  0  0  0  0
  -22.3460  -27.2200   21.2730 N   0  0  0  0  0  0  0  0  0  0  0  0
  -24.4900  -27.0720   21.9790 O   0  0  0  0  0  0  0  0  0  0  0  0
  -21.6650  -27.8010   20.8060 H   0  0  0  0  0  0  0  0  0  0  0  0
  -19.4700  -25.0340   21.3600 C   0  0  0  0  0  0  0  0  0  0  0  0
  -21.8700  -25.9170   21.7370 C   0  0  0  0  0  3  0  0  0  0  0  0
  -22.3260  -24.7850   20.7880 C   0  0  0  0  0  2  0  0  0  0  0  0
  -21.2940  -24.4520   19.7050 C   0  0  0  0  0  2  0  0  0  0  0  0
  -19.9690  -24.0230   20.3410 C   0  0  0  0  0  2  0  0  0  0  0  0
  -20.3610  -25.9330   22.0040 C   0  0  0  0  0  0  0  0  0  0  0  0
  -19.8400  -26.8760   22.9170 C   0  0  0  0  0  3  0  0  0  0  0  0
  -18.4610  -26.9270   23.1930 C   0  0  0  0  0  3  0  0  0  0  0  0
  -17.5860  -26.0220   22.5660 C   0  0  0  0  0  3  0  0  0  0  0  0
  -18.0910  -25.0760   21.6560 C   0  0  0  0  0  3  0  0  0  0  0  0
  -26.3310  -30.8210   23.3210 C   0  0  0  0  0  3  0  0  0  0  0  0
  -27.1200  -29.8670   24.3010 C   0  0  1  0  0  0  0  0  0  0  0  0
  -26.2240  -29.1860   25.3620 C   0  0  0  0  0  1  0  0  0  0  0  0
  -27.8470  -28.7540   23.5130 C   0  0  0  0  0  1  0  0  0  0  0  0
  -28.2160  -30.6700   25.0420 C   0  0  0  0  0  1  0  0  0  0  0  0
  -25.8610  -32.0210   24.0290 N   0  0  0  0  0  0  0  0  0  0  0  0
  -26.0330  -33.2760   23.5960 C   0  0  0  0  0  0  0  0  0  0  0  0
  -26.6760  -33.5510   22.5790 O   0  0  0  0  0  0  0  0  0  0  0  0
  -25.2760  -31.8680   24.8390 H   0  0  0  0  0  0  0  0  0  0  0  0
  -24.1170  -34.9020   23.7210 C   0  0  0  0  0  1  0  0  0  0  0  0
  -25.3920  -34.4070   24.4220 C   0  0  0  0  0  3  0  0  0  0  0  0
  -27.4040  -35.2320   25.5650 C   0  0  0  0  0  1  0  0  0  0  0  0
  -26.3020  -35.5490   24.6610 N   0  0  0  0  0  0  0  0  0  0  0  0
  -25.7920  -36.3400   25.0450 H   0  0  0  0  0  0  0  0  0  0  0  0
  -30.3730  -23.1050   20.7200 C   0  0  0  0  0  2  0  0  0  0  0  0
  -29.7090  -22.5050   21.9800 C   0  0  0  0  0  2  0  0  0  0  0  0
  -31.5970  -21.7300   23.5400 C   0  0  0  0  0  1  0  0  0  0  0  0
  -29.4290  -20.4370   23.4150 C   0  0  0  0  0  1  0  0  0  0  0  0
  -30.4290  -21.2990   22.6330 C   0  0  0  0  0  3  0  0  0  0  0  0
  -32.7550  -18.8760   19.8580 C   0  0  0  0  0  3  0  0  0  0  0  0
  -33.8490  -19.6230   20.4930 N   0  0  0  0  0  4  0  0  0  0  0  0
  -33.4760  -20.1610   21.2540 H   0  0  0  0  0  0  0  0  0  0  0  0
  -34.2650  -20.2530   19.8340 H   0  0  0  0  0  0  0  0  0  0  0  0
  -34.5560  -18.9970   20.8330 H   0  0  0  0  0  0  0  0  0  0  0  0
  -32.2140  -17.8170   20.8900 C   0  0  0  0  0  2  0  0  0  0  0  0
  -32.2790  -15.4630   20.0050 C   0  0  0  0  0  0  0  0  0  0  0  0
  -31.9670  -13.1400   19.2030 C   0  0  0  0  0  2  0  0  0  0  0  0
  -31.0140  -13.1240   17.9900 C   0  0  0  0  0  2  0  0  0  0  0  0
  -29.5420  -13.0710   18.4470 C   0  0  0  0  0  2  0  0  0  0  0  0
  -29.2150  -14.1150   19.5460 C   0  0  0  0  0  3  0  0  0  0  0  0
  -30.2740  -14.0820   20.6690 C   0  0  0  0  0  2  0  0  0  0  0  0
  -31.5900  -14.2890   20.0430 N   0  0  0  0  0  0  0  0  0  0  0  0
  -33.4210  -15.5590   19.5530 O   0  0  0  0  0  0  0  0  0  0  0  0
  -31.6020  -16.5600   20.4070 N   0  0  0  0  0  0  0  0  0  0  0  0
  -30.6340  -16.4150   20.6500 H   0  0  0  0  0  0  0  0  0  0  0  0
  -26.9190  -14.8990   20.4050 C   0  0  0  0  0  0  0  0  0  0  0  0
  -25.7950  -14.2080   20.7680 C   0  0  0  0  0  0  0  0  0  0  0  0
  -26.1190  -12.8240   20.6280 C   0  0  0  0  0  0  0  0  0  0  0  0
  -27.8630  -13.9390   20.0690 N   0  0  0  0  0  0  0  0  0  0  0  0
  -27.3860  -12.6820   20.2630 N   0  0  0  0  0  0  0  0  0  0  0  0
  -25.2800  -11.6260   20.7650 C   0  0  0  0  0  0  0  0  0  0  0  0
  -25.5910  -10.6070   21.6910 C   0  0  0  0  0  3  0  0  0  0  0  0
  -24.7570   -9.4750   21.8160 C   0  0  0  0  0  3  0  0  0  0  0  0
  -23.5970   -9.3550   21.0140 C   0  0  0  0  0  0  0  0  0  0  0  0
  -23.3050  -10.3620   20.0760 C   0  0  0  0  0  3  0  0  0  0  0  0
  -24.1400  -11.4860   19.9490 C   0  0  0  0  0  3  0  0  0  0  0  0
  -22.7440   -8.2790   21.0480 O   0  0  0  0  0  0  0  0  0  0  0  0
  -22.4770   -7.6080   22.2150 C   0  0  0  0  0  0  0  0  0  0  0  0
  -21.8870   -8.2520   23.3260 C   0  0  0  0  0  3  0  0  0  0  0  0
  -21.5660   -7.5100   24.4800 C   0  0  0  0  0  3  0  0  0  0  0  0
  -21.8250   -6.1270   24.5240 C   0  0  0  0  0  0  0  0  0  0  0  0
  -22.4080   -5.4850   23.4180 C   0  0  0  0  0  3  0  0  0  0  0  0
  -22.7300   -6.2230   22.2650 C   0  0  0  0  0  0  0  0  0  0  0  0
  -23.2720   -5.5950   21.1940 F   0  0  0  0  0  0  0  0  0  0  0  0
  -21.5110   -5.4130   25.6290 F   0  0  0  0  0  0  0  0  0  0  0  0
  -24.4620  -14.7970   21.1300 C   0  0  0  0  0  0  0  0  0  0  0  0
  -23.7040  -14.1190   21.9840 N   0  0  0  0  0  0  0  0  0  0  0  0
  -24.1070  -15.8910   20.6920 O   0  0  0  0  0  0  0  0  0  0  0  0
  -24.0050  -13.2300   22.3570 H   0  0  0  0  0  0  0  0  0  0  0  0
  -22.8090  -14.4920   22.2680 H   0  0  0  0  0  0  0  0  0  0  0  0
  -27.2130  -16.2560   20.3110 N   0  0  0  0  0  0  0  0  0  0  0  0
  -26.5250  -16.9730   20.5090 H   0  0  0  0  0  0  0  0  0  0  0  0
  -28.0860  -16.6320   19.9630 H   0  0  0  0  0  0  0  0  0  0  0  0
  1  2  1  0
  2 56  1  0
  2  6  2  0
  3  4  2  0
  4  6  1  0
  4 51  1  0
  5  1  2  0
  5  3  1  0
  7  8  2  0
  7  3  1  0
  9 10  1  0
  9  8  1  0
 10 12  1  0
 11 22  2  0
 12 17  1  0
 13 21  1  0
 13 23  1  0
 14 20  1  0
 14 16  1  0
 15 21  1  0
 16 15  1  0
 17 16  2  0
 18 19  1  0
 18 12  2  0
 19 14  2  0
 20 13  1  0
 21 11  1  0
 23 25  2  0
 24 23  1  0
 26 24  1  0
 27 36  2  0
 27 32  1  0
 28 24  1  0
 28 32  1  0
 29 28  1  0
 30 31  1  0
 30 29  1  0
 31 27  1  0
 32 33  2  0
 33 34  1  0
 35 34  2  0
 36 35  1  0
 37 11  1  0
 37 42  1  0
 37 38  1  0
 38 41  1  1
 38 39  1  0
 40 38  1  0
 42 45  1  0
 43 42  1  0
 43 47  1  0
 44 43  2  0
 47 46  1  0
 47 49  1  0
 49 50  1  0
 49 48  1  0
 51 52  1  0
 52 55  1  0
 55 54  1  0
 55 53  1  0
 56 57  1  0
 56 61  1  0
 57 60  1  0
 57 58  1  0
 59 57  1  0
 62 68  1  0
 62 70  1  0
 63 68  1  0
 64 65  1  0
 64 63  1  0
 66 65  1  0
 66 75  1  0
 66 67  1  0
 68 67  1  0
 69 62  2  0
 70 71  1  0
 70 61  1  0
 72 73  2  0
 73 92  1  0
 74 77  1  0
 74 73  1  0
 75 76  1  0
 75 72  1  0
 76 74  2  0
 77 78  1  0
 78 79  2  0
 80 83  1  0
 80 79  1  0
 81 80  2  0
 82 81  1  0
 82 77  2  0
 83 84  1  0
 84 89  2  0
 84 85  1  0
 85 86  2  0
 86 87  1  0
 87 91  1  0
 88 87  2  0
 89 88  1  0
 90 89  1  0
 92 93  1  0
 93 96  1  0
 93 95  1  0
 94 92  2  0
 97 72  1  0
 97 98  1  0
 99 97  1  0
M  ISO  4   9 101  10 101  62 100  70 100
M  END
>  <TORSDO>  (29) 
F 25

>  <SCORE>  (29) 
-4.471

>  <name>  (29) 
29

>  <ligand_id>  (29) 
29

>  <original_smiles>  (29) 
[H]c1nc(C([H])([H])C([H])([H])C([H])([H])Oc2c([H])c([H])c3c(c2[H])C([H])([H])N(C(=O)C([H])(N([H])C(=O)C([H])(N([H])C([H])([H])[H])C([H])([H])[H])C(C([H])([H])[H])(C([H])([H])[H])C([H])([H])[H])C([H])(C(=O)N([H])C2([H])c4c([H])c([H])c([H])c([H])c4C([H])([H])C([H])([H])C2([H])[H])C3([H])[H])c(C([H])([H])C([H])([H])C([H])(C([H])([H])[H])C([H])([H])[H])nc1C([H])(C([H])([H])N([H])C(=O)N1C([H])([H])C([H])([H])C([H])([H])C([H])(n2nc(-c3c([H])c([H])c(Oc4c([H])c([H])c(F)c([H])c4F)c([H])c3[H])c(C(=O)N([H])[H])c2N([H])[H])C1([H])[H])[N+]([H])([H])[H]

>  <smiles>  (29) 
[H]c1nc(C([H])([H])C([H])([H])C([H])([H])Oc2c([H])c([H])c3c(c2[H])C([H])([H])N(C(=O)C([H])(N([H])C(=O)C([H])(N([H])C([H])([H])[H])C([H])([H])[H])C(C([H])([H])[H])(C([H])([H])[H])C([H])([H])[H])C([H])(C(=O)N([H])C2([H])c4c([H])c([H])c([H])c([H])c4C([H])([H])C([H])([H])C2([H])[H])C3([H])[H])c(C([H])([H])C([H])([H])C([H])(C([H])([H])[H])C([H])([H])[H])nc1C([H])(C([H])([H])N([H])C(=O)N1C([H])([H])C([H])([H])C([H])([H])C([H])(n2nc(-c3c([H])c([H])c(Oc4c([H])c([H])c(F)c([H])c4F)c([H])c3[H])c(C(=O)N([H])[H])c2N([H])[H])C1([H])[H])[N+]([H])([H])[H]

$$$$
30:0:0
     RDKit          3D

 90 98  0  0  1  0  0  0  0  0999 V2000
  -29.1320  -19.1860   21.2660 C   0  0  0  0  0  3  0  0  0  0  0  0
  -28.8080  -20.5780   21.2930 C   0  0  0  0  0  3  0  0  0  0  0  0
  -30.4350  -19.5530   19.2810 C   0  0  0  0  0  3  0  0  0  0  0  0
  -30.0020  -18.6460   20.2860 C   0  0  0  0  0  0  0  0  0  0  0  0
  -29.3370  -21.5050   20.3510 C   0  0  0  0  0  0  0  0  0  0  0  0
  -30.1230  -20.9450   19.3050 C   0  0  0  0  0  0  0  0  0  0  0  0
  -30.7450  -21.8400   18.2460 C   0  0  0  0  0  1  0  0  0  0  0  0
  -29.2700  -23.0620   20.5940 C   0  0  0  0  0  2  0  0  0  0  0  0
  -28.2060  -23.9790   19.8660 C   0  0  0  0  0  2  0  0  0  0  0  0
  -28.6340  -25.4460   19.4020 C   0  0  0  0  0  2  0  0  0  0  0  0
  -28.4610  -26.6550   20.2230 O   0  0  0  0  0  0  0  0  0  0  0  0
  -24.6400  -31.9320   23.2570 C   0  0  0  0  0  0  0  0  0  0  0  0
  -27.3070  -27.4430   20.1610 C   0  0  0  0  0  0  0  0  0  0  0  0
  -23.4500  -30.5300   21.6100 C   0  0  0  0  0  3  0  0  0  0  0  0
  -24.9160  -29.0070   20.1710 C   0  0  0  0  0  0  0  0  0  0  0  0
  -25.9820  -30.8860   21.4250 C   0  0  0  0  0  2  0  0  0  0  0  0
  -26.0770  -29.5150   20.7670 C   0  0  0  0  0  0  0  0  0  0  0  0
  -27.2710  -28.7390   20.7610 C   0  0  0  0  0  3  0  0  0  0  0  0
  -26.1210  -26.9760   19.5550 C   0  0  0  0  0  3  0  0  0  0  0  0
  -24.9390  -27.7420   19.5630 C   0  0  0  0  0  3  0  0  0  0  0  0
  -23.6670  -29.8630   20.2270 C   0  0  0  0  0  2  0  0  0  0  0  0
  -24.7090  -31.1320   22.1540 N   0  0  0  0  0  0  0  0  0  0  0  0
  -23.5540  -32.1930   23.7940 O   0  0  0  0  0  0  0  0  0  0  0  0
  -22.8010  -29.4980   22.5620 C   0  0  0  0  0  0  0  0  0  0  0  0
  -21.4780  -29.3050   22.4290 N   0  0  0  0  0  0  0  0  0  0  0  0
  -23.4850  -28.8760   23.3780 O   0  0  0  0  0  0  0  0  0  0  0  0
  -20.9840  -29.8520   21.7380 H   0  0  0  0  0  0  0  0  0  0  0  0
  -18.1130  -28.0750   22.9100 C   0  0  0  0  0  0  0  0  0  0  0  0
  -20.6680  -28.3530   23.1900 C   0  0  0  0  0  3  0  0  0  0  0  0
  -20.7870  -26.9280   22.6010 C   0  0  0  0  0  2  0  0  0  0  0  0
  -19.6900  -26.6060   21.5820 C   0  0  0  0  0  2  0  0  0  0  0  0
  -18.3040  -26.7330   22.2240 C   0  0  0  0  0  2  0  0  0  0  0  0
  -19.2250  -28.8430   23.3500 C   0  0  0  0  0  0  0  0  0  0  0  0
  -18.9920  -30.0990   23.9500 C   0  0  0  0  0  3  0  0  0  0  0  0
  -17.6830  -30.5900   24.1140 C   0  0  0  0  0  3  0  0  0  0  0  0
  -16.5870  -29.8170   23.6950 C   0  0  0  0  0  3  0  0  0  0  0  0
  -16.8020  -28.5630   23.0980 C   0  0  0  0  0  3  0  0  0  0  0  0
  -25.9180  -32.5730   23.8860 C   0  0  0  0  0  3  0  0  0  0  0  0
  -26.4190  -31.8190   25.1780 C   0  0  1  0  0  0  0  0  0  0  0  0
  -25.3090  -31.5910   26.2310 C   0  0  0  0  0  1  0  0  0  0  0  0
  -27.0120  -30.4400   24.8100 C   0  0  0  0  0  1  0  0  0  0  0  0
  -27.5570  -32.6210   25.8500 C   0  0  0  0  0  1  0  0  0  0  0  0
  -25.6030  -33.9740   24.1990 N   0  0  0  0  0  0  0  0  0  0  0  0
  -25.9370  -35.0200   23.4320 C   0  0  0  0  0  0  0  0  0  0  0  0
  -26.6150  -34.9090   22.4080 O   0  0  0  0  0  0  0  0  0  0  0  0
  -24.9980  -34.1350   24.9900 H   0  0  0  0  0  0  0  0  0  0  0  0
  -24.2100  -36.8070   23.0450 C   0  0  0  0  0  1  0  0  0  0  0  0
  -25.4420  -36.4100   23.8750 C   0  0  0  0  0  3  0  0  0  0  0  0
  -27.5550  -37.3070   24.7380 C   0  0  0  0  0  1  0  0  0  0  0  0
  -26.4730  -37.4640   23.7710 N   0  0  0  0  0  0  0  0  0  0  0  0
  -26.0610  -38.3840   23.9070 H   0  0  0  0  0  0  0  0  0  0  0  0
  -30.7160  -17.2500   20.4250 C   0  0  0  0  0  2  0  0  0  0  0  0
  -30.7010  -14.7420   20.1240 C   0  0  0  0  0  0  0  0  0  0  0  0
  -30.3520  -12.5420   19.0400 C   0  0  0  0  0  2  0  0  0  0  0  0
  -29.3760  -12.7040   17.8570 C   0  0  0  0  0  2  0  0  0  0  0  0
  -27.9250  -12.5410   18.3450 C   0  0  0  0  0  2  0  0  0  0  0  0
  -27.6170  -13.4000   19.6020 C   0  0  0  0  0  3  0  0  0  0  0  0
  -28.7160  -13.2640   20.6810 C   0  0  0  0  0  2  0  0  0  0  0  0
  -30.0000  -13.5700   20.0430 N   0  0  0  0  0  0  0  0  0  0  0  0
  -31.8700  -14.7950   19.7390 O   0  0  0  0  0  0  0  0  0  0  0  0
  -30.0390  -15.9060   20.4350 N   0  0  0  0  0  0  0  0  0  0  0  0
  -29.0670  -15.8560   20.7040 H   0  0  0  0  0  0  0  0  0  0  0  0
  -25.2570  -13.9870   20.4240 C   0  0  0  0  0  0  0  0  0  0  0  0
  -24.2040  -13.2080   20.8210 C   0  0  0  0  0  0  0  0  0  0  0  0
  -24.6640  -11.8590   20.7560 C   0  0  0  0  0  0  0  0  0  0  0  0
  -26.2910  -13.1110   20.1390 N   0  0  0  0  0  0  0  0  0  0  0  0
  -25.9450  -11.8250   20.4030 N   0  0  0  0  0  0  0  0  0  0  0  0
  -23.9430  -10.5940   20.9550 C   0  0  0  0  0  0  0  0  0  0  0  0
  -24.3930   -9.6230   21.8770 C   0  0  0  0  0  3  0  0  0  0  0  0
  -23.6730   -8.4230   22.0620 C   0  0  0  0  0  3  0  0  0  0  0  0
  -22.4860   -8.1870   21.3270 C   0  0  0  0  0  0  0  0  0  0  0  0
  -22.0560   -9.1470   20.3930 C   0  0  0  0  0  3  0  0  0  0  0  0
  -22.7760  -10.3370   20.2070 C   0  0  0  0  0  3  0  0  0  0  0  0
  -21.7330   -7.0430   21.4250 O   0  0  0  0  0  0  0  0  0  0  0  0
  -21.6910   -6.3050   22.5810 C   0  0  0  0  0  0  0  0  0  0  0  0
  -21.2390   -6.8540   23.8000 C   0  0  0  0  0  3  0  0  0  0  0  0
  -21.1480   -6.0410   24.9470 C   0  0  0  0  0  3  0  0  0  0  0  0
  -21.4990   -4.6800   24.8760 C   0  0  0  0  0  0  0  0  0  0  0  0
  -21.9430   -4.1300   23.6610 C   0  0  0  0  0  3  0  0  0  0  0  0
  -22.0370   -4.9390   22.5160 C   0  0  0  0  0  0  0  0  0  0  0  0
  -22.4470   -4.4000   21.3430 F   0  0  0  0  0  0  0  0  0  0  0  0
  -21.4010   -3.8960   25.9760 F   0  0  0  0  0  0  0  0  0  0  0  0
  -22.8180  -13.6840   21.1460 C   0  0  0  0  0  0  0  0  0  0  0  0
  -22.1190  -12.9750   22.0270 N   0  0  0  0  0  0  0  0  0  0  0  0
  -22.3670  -14.7190   20.6580 O   0  0  0  0  0  0  0  0  0  0  0  0
  -22.5000  -12.1380   22.4430 H   0  0  0  0  0  0  0  0  0  0  0  0
  -21.1910  -13.2750   22.2930 H   0  0  0  0  0  0  0  0  0  0  0  0
  -25.4130  -15.3580   20.2560 N   0  0  0  0  0  0  0  0  0  0  0  0
  -24.6450  -16.0050   20.3930 H   0  0  0  0  0  0  0  0  0  0  0  0
  -26.2430  -15.8070   19.8900 H   0  0  0  0  0  0  0  0  0  0  0  0
  1  2  1  0
  3  6  2  0
  3  4  1  0
  4 52  1  0
  4  1  2  0
  5  8  1  0
  5  2  2  0
  6  5  1  0
  7  6  1  0
  9  8  1  0
 10  9  1  0
 10 11  1  0
 12 23  2  0
 13 11  1  0
 13 18  1  0
 14 22  1  0
 14 24  1  0
 15 21  1  0
 15 17  1  0
 16 22  1  0
 17 16  1  0
 18 17  2  0
 19 20  1  0
 19 13  2  0
 20 15  2  0
 21 14  1  0
 22 12  1  0
 24 26  2  0
 25 24  1  0
 27 25  1  0
 28 37  2  0
 28 33  1  0
 29 25  1  0
 29 33  1  0
 30 29  1  0
 31 32  1  0
 31 30  1  0
 32 28  1  0
 33 34  2  0
 34 35  1  0
 36 35  2  0
 37 36  1  0
 38 12  1  0
 38 43  1  0
 38 39  1  0
 39 42  1  1
 39 40  1  0
 41 39  1  0
 43 46  1  0
 44 48  1  0
 44 43  1  0
 45 44  2  0
 48 47  1  0
 50 48  1  0
 50 51  1  0
 50 49  1  0
 52 61  1  0
 53 61  1  0
 54 59  1  0
 55 56  1  0
 55 54  1  0
 57 56  1  0
 57 66  1  0
 57 58  1  0
 59 53  1  0
 59 58  1  0
 60 53  2  0
 61 62  1  0
 63 64  2  0
 64 83  1  0
 65 64  1  0
 65 68  1  0
 66 67  1  0
 66 63  1  0
 67 65  2  0
 68 69  1  0
 69 70  2  0
 71 74  1  0
 71 70  1  0
 72 71  2  0
 73 72  1  0
 73 68  2  0
 74 75  1  0
 75 76  1  0
 76 77  2  0
 78 77  1  0
 78 82  1  0
 79 78  2  0
 80 75  2  0
 80 79  1  0
 81 80  1  0
 83 84  1  0
 84 87  1  0
 84 86  1  0
 85 83  2  0
 88 89  1  0
 88 63  1  0
 90 88  1  0
M  ISO  4  10 101  11 101  53 100  61 100
M  END
>  <TORSDO>  (30) 
F 20

>  <SCORE>  (30) 
-13.204

>  <name>  (30) 
30

>  <ligand_id>  (30) 
30

>  <original_smiles>  (30) 
[H]c1c([H])c([H])c2c(c1[H])C([H])([H])C([H])([H])C([H])([H])C2([H])N([H])C(=O)C1([H])N(C(=O)C([H])(N([H])C(=O)C([H])(N([H])C([H])([H])[H])C([H])([H])[H])C(C([H])([H])[H])(C([H])([H])[H])C([H])([H])[H])C([H])([H])c2c([H])c(OC([H])([H])C([H])([H])C([H])([H])c3c([H])c([H])c(C([H])([H])N([H])C(=O)N4C([H])([H])C([H])([H])C([H])([H])C([H])(n5nc(-c6c([H])c([H])c(Oc7c([H])c([H])c(F)c([H])c7F)c([H])c6[H])c(C(=O)N([H])[H])c5N([H])[H])C4([H])[H])c([H])c3C([H])([H])[H])c([H])c([H])c2C1([H])[H]

>  <smiles>  (30) 
[H]c1c([H])c([H])c2c(c1[H])C([H])([H])C([H])([H])C([H])([H])C2([H])N([H])C(=O)C1([H])N(C(=O)C([H])(N([H])C(=O)C([H])(N([H])C([H])([H])[H])C([H])([H])[H])C(C([H])([H])[H])(C([H])([H])[H])C([H])([H])[H])C([H])([H])c2c([H])c(OC([H])([H])C([H])([H])C([H])([H])c3c([H])c([H])c(C([H])([H])N([H])C(=O)N4C([H])([H])C([H])([H])C([H])([H])C([H])(n5nc(-c6c([H])c([H])c(Oc7c([H])c([H])c(F)c([H])c7F)c([H])c6[H])c(C(=O)N([H])[H])c5N([H])[H])C4([H])[H])c([H])c3C([H])([H])[H])c([H])c([H])c2C1([H])[H]

$$$$
31:0:0
     RDKit          3D

 90 98  0  0  1  0  0  0  0  0999 V2000
  -28.5590  -21.1620   20.7300 C   0  0  0  0  0  3  0  0  0  0  0  0
  -29.3840  -20.0990   20.3490 C   0  0  0  0  0  0  0  0  0  0  0  0
  -30.5110  -20.7720   19.7650 C   0  0  0  0  0  0  0  0  0  0  0  0
  -30.3450  -22.1430   19.8720 C   0  0  0  0  0  0  0  0  0  0  0  0
  -31.7060  -20.0880   19.1470 C   0  0  0  0  0  1  0  0  0  0  0  0
  -31.2970  -23.2360   19.4880 C   0  0  0  0  0  1  0  0  0  0  0  0
  -29.1080  -22.4380   20.4430 N   0  0  0  0  0  0  0  0  0  0  0  0
  -29.1010  -18.5270   20.4940 C   0  0  0  0  0  3  0  0  0  0  0  0
  -30.2540  -17.3880   20.4470 C   0  0  0  0  0  3  0  0  0  0  0  0
  -30.6390  -14.7880   20.3360 C   0  0  0  0  0  0  0  0  0  0  0  0
  -30.4300  -12.5300   19.2930 C   0  0  0  0  0  2  0  0  0  0  0  0
  -29.4740  -12.6260   18.0830 C   0  0  0  0  0  2  0  0  0  0  0  0
  -28.0110  -12.4410   18.5310 C   0  0  0  0  0  2  0  0  0  0  0  0
  -27.6540  -13.3080   19.7690 C   0  0  0  0  0  3  0  0  0  0  0  0
  -28.7280  -13.2020   20.8740 C   0  0  0  0  0  2  0  0  0  0  0  0
  -30.0140  -13.5640   20.2680 N   0  0  0  0  0  0  0  0  0  0  0  0
  -31.8150  -14.9030   19.9790 O   0  0  0  0  0  0  0  0  0  0  0  0
  -29.8710  -15.9120   20.5940 N   0  0  0  0  0  0  0  0  0  0  0  0
  -28.9140  -15.7260   20.8510 H   0  0  0  0  0  0  0  0  0  0  0  0
  -25.2710  -13.8790   20.5300 C   0  0  0  0  0  0  0  0  0  0  0  0
  -24.2150  -13.0960   20.9070 C   0  0  0  0  0  0  0  0  0  0  0  0
  -24.6840  -11.7480   20.8580 C   0  0  0  0  0  0  0  0  0  0  0  0
  -26.3160  -13.0070   20.2730 N   0  0  0  0  0  0  0  0  0  0  0  0
  -25.9710  -11.7200   20.5340 N   0  0  0  0  0  0  0  0  0  0  0  0
  -23.9680  -10.4800   21.0450 C   0  0  0  0  0  0  0  0  0  0  0  0
  -24.4070   -9.5120   21.9740 C   0  0  0  0  0  3  0  0  0  0  0  0
  -23.6900   -8.3090   22.1500 C   0  0  0  0  0  3  0  0  0  0  0  0
  -22.5180   -8.0650   21.3940 C   0  0  0  0  0  0  0  0  0  0  0  0
  -22.0980   -9.0210   20.4530 C   0  0  0  0  0  3  0  0  0  0  0  0
  -22.8160  -10.2160   20.2760 C   0  0  0  0  0  3  0  0  0  0  0  0
  -21.7710   -6.9150   21.4790 O   0  0  0  0  0  0  0  0  0  0  0  0
  -21.7180   -6.1750   22.6330 C   0  0  0  0  0  0  0  0  0  0  0  0
  -21.2550   -6.7230   23.8490 C   0  0  0  0  0  3  0  0  0  0  0  0
  -21.1500   -5.9080   24.9940 C   0  0  0  0  0  3  0  0  0  0  0  0
  -21.4980   -4.5460   24.9230 C   0  0  0  0  0  0  0  0  0  0  0  0
  -21.9550   -3.9980   23.7120 C   0  0  0  0  0  3  0  0  0  0  0  0
  -22.0610   -4.8100   22.5700 C   0  0  0  0  0  0  0  0  0  0  0  0
  -22.4810   -4.2710   21.4000 F   0  0  0  0  0  0  0  0  0  0  0  0
  -21.3920   -3.7610   26.0210 F   0  0  0  0  0  0  0  0  0  0  0  0
  -22.8180  -13.5620   21.1990 C   0  0  0  0  0  0  0  0  0  0  0  0
  -22.1000  -12.8480   22.0580 N   0  0  0  0  0  0  0  0  0  0  0  0
  -22.3720  -14.5950   20.7010 O   0  0  0  0  0  0  0  0  0  0  0  0
  -22.4730  -12.0120   22.4840 H   0  0  0  0  0  0  0  0  0  0  0  0
  -21.1630  -13.1420   22.2970 H   0  0  0  0  0  0  0  0  0  0  0  0
  -25.4250  -15.2530   20.3610 N   0  0  0  0  0  0  0  0  0  0  0  0
  -24.6520  -15.8990   20.4800 H   0  0  0  0  0  0  0  0  0  0  0  0
  -26.2570  -15.6960   19.9920 H   0  0  0  0  0  0  0  0  0  0  0  0
  -28.5580  -23.8180   20.8490 C   0  0  0  0  0  2  0  0  0  0  0  0
  -28.4230  -25.0550   19.8140 C   0  0  0  0  0  2  0  0  0  0  0  0
  -28.3430  -26.4770   20.3060 O   0  0  0  0  0  0  0  0  0  0  0  0
  -24.5650  -31.9070   23.2490 C   0  0  0  0  0  0  0  0  0  0  0  0
  -27.2020  -27.3080   20.2270 C   0  0  0  0  0  0  0  0  0  0  0  0
  -23.3750  -30.4990   21.6070 C   0  0  0  0  0  3  0  0  0  0  0  0
  -24.8360  -28.9420   20.1950 C   0  0  0  0  0  0  0  0  0  0  0  0
  -25.9170  -30.8130   21.4400 C   0  0  0  0  0  2  0  0  0  0  0  0
  -26.0010  -29.4300   20.7980 C   0  0  0  0  0  0  0  0  0  0  0  0
  -27.1820  -28.6230   20.8020 C   0  0  0  0  0  3  0  0  0  0  0  0
  -26.0070  -26.8800   19.6040 C   0  0  0  0  0  3  0  0  0  0  0  0
  -24.8440  -27.6760   19.5900 C   0  0  0  0  0  3  0  0  0  0  0  0
  -23.5980  -29.8180   20.2310 C   0  0  0  0  0  2  0  0  0  0  0  0
  -24.6380  -31.0920   22.1550 N   0  0  0  0  0  0  0  0  0  0  0  0
  -23.4780  -32.1850   23.7750 O   0  0  0  0  0  0  0  0  0  0  0  0
  -22.7080  -29.4870   22.5690 C   0  0  0  0  0  0  0  0  0  0  0  0
  -21.3810  -29.3100   22.4370 N   0  0  0  0  0  0  0  0  0  0  0  0
  -23.3820  -28.8630   23.3920 O   0  0  0  0  0  0  0  0  0  0  0  0
  -20.8960  -29.8670   21.7470 H   0  0  0  0  0  0  0  0  0  0  0  0
  -17.9970  -28.1340   22.9470 C   0  0  0  0  0  0  0  0  0  0  0  0
  -20.5580  -28.3750   23.2070 C   0  0  0  0  0  3  0  0  0  0  0  0
  -20.6490  -26.9450   22.6250 C   0  0  0  0  0  2  0  0  0  0  0  0
  -19.5400  -26.6340   21.6130 C   0  0  0  0  0  2  0  0  0  0  0  0
  -18.1620  -26.7860   22.2630 C   0  0  0  0  0  2  0  0  0  0  0  0
  -19.1220  -28.8870   23.3750 C   0  0  0  0  0  0  0  0  0  0  0  0
  -18.9140  -30.1480   23.9740 C   0  0  0  0  0  3  0  0  0  0  0  0
  -17.6130  -30.6560   24.1480 C   0  0  0  0  0  3  0  0  0  0  0  0
  -16.5030  -29.9010   23.7340 C   0  0  0  0  0  3  0  0  0  0  0  0
  -16.6950  -28.6410   23.1390 C   0  0  0  0  0  3  0  0  0  0  0  0
  -25.8410  -32.5450   23.8780 C   0  0  0  0  0  3  0  0  0  0  0  0
  -26.3410  -31.7910   25.1710 C   0  0  1  0  0  0  0  0  0  0  0  0
  -25.2340  -31.5680   26.2280 C   0  0  0  0  0  1  0  0  0  0  0  0
  -26.9280  -30.4070   24.8060 C   0  0  0  0  0  1  0  0  0  0  0  0
  -27.4830  -32.5930   25.8380 C   0  0  0  0  0  1  0  0  0  0  0  0
  -25.5300  -33.9480   24.1880 N   0  0  0  0  0  0  0  0  0  0  0  0
  -25.8780  -34.9940   23.4250 C   0  0  0  0  0  0  0  0  0  0  0  0
  -26.5620  -34.8780   22.4050 O   0  0  0  0  0  0  0  0  0  0  0  0
  -24.9230  -34.1130   24.9790 H   0  0  0  0  0  0  0  0  0  0  0  0
  -24.1730  -36.7980   23.0150 C   0  0  0  0  0  1  0  0  0  0  0  0
  -25.3890  -36.3890   23.8620 C   0  0  0  0  0  3  0  0  0  0  0  0
  -27.5050  -37.2660   24.7490 C   0  0  0  0  0  1  0  0  0  0  0  0
  -26.4320  -37.4330   23.7710 N   0  0  0  0  0  0  0  0  0  0  0  0
  -26.0290  -38.3570   23.8970 H   0  0  0  0  0  0  0  0  0  0  0  0
  2  8  1  0
  2  1  2  0
  3  4  2  0
  3  2  1  0
  4  7  1  0
  5  3  1  0
  6  4  1  0
  7  1  1  0
  7 48  1  0
  9  8  2  0
  9 18  1  0
 10 18  1  0
 11 16  1  0
 12 13  1  0
 12 11  1  0
 14 13  1  0
 14 23  1  0
 14 15  1  0
 16 10  1  0
 16 15  1  0
 17 10  2  0
 18 19  1  0
 20 21  2  0
 21 40  1  0
 22 21  1  0
 22 25  1  0
 23 20  1  0
 23 24  1  0
 24 22  2  0
 25 26  1  0
 26 27  2  0
 28 31  1  0
 28 27  1  0
 29 28  2  0
 30 29  1  0
 30 25  2  0
 31 32  1  0
 32 33  1  0
 33 34  2  0
 35 34  1  0
 35 39  1  0
 36 35  2  0
 37 32  2  0
 37 36  1  0
 38 37  1  0
 40 41  1  0
 41 44  1  0
 41 43  1  0
 42 40  2  0
 45 46  1  0
 45 20  1  0
 47 45  1  0
 49 50  1  0
 49 48  1  0
 51 62  2  0
 52 50  1  0
 52 57  1  0
 53 61  1  0
 53 63  1  0
 54 60  1  0
 54 56  1  0
 55 61  1  0
 56 57  2  0
 56 55  1  0
 58 52  2  0
 59 58  1  0
 59 54  2  0
 60 53  1  0
 61 51  1  0
 63 65  2  0
 64 63  1  0
 66 64  1  0
 67 76  2  0
 67 72  1  0
 68 64  1  0
 68 72  1  0
 69 68  1  0
 70 71  1  0
 70 69  1  0
 71 67  1  0
 72 73  2  0
 73 74  1  0
 75 74  2  0
 76 75  1  0
 77 51  1  0
 77 82  1  0
 77 78  1  0
 78 81  1  1
 78 79  1  0
 80 78  1  0
 82 85  1  0
 83 87  1  0
 83 82  1  0
 84 83  2  0
 87 86  1  0
 89 87  1  0
 89 90  1  0
 89 88  1  0
M  ISO  4  10 100  18 100  49 101  50 101
M  END
>  <TORSDO>  (31) 
F 20

>  <SCORE>  (31) 
-13.894

>  <name>  (31) 
31

>  <ligand_id>  (31) 
31

>  <original_smiles>  (31) 
[H]c1c([H])c([H])c2c(c1[H])C([H])([H])C([H])([H])C([H])([H])C2([H])N([H])C(=O)C1([H])N(C(=O)C([H])(N([H])C(=O)C([H])(N([H])C([H])([H])[H])C([H])([H])[H])C(C([H])([H])[H])(C([H])([H])[H])C([H])([H])[H])C([H])([H])c2c([H])c(OC([H])([H])C([H])([H])n3c([H])c(C([H])([H])C([H])([H])N([H])C(=O)N4C([H])([H])C([H])([H])C([H])([H])C([H])(n5nc(-c6c([H])c([H])c(Oc7c([H])c([H])c(F)c([H])c7F)c([H])c6[H])c(C(=O)N([H])[H])c5N([H])[H])C4([H])[H])c(C([H])([H])[H])c3C([H])([H])[H])c([H])c([H])c2C1([H])[H]

>  <smiles>  (31) 
[H]c1c([H])c([H])c2c(c1[H])C([H])([H])C([H])([H])C([H])([H])C2([H])N([H])C(=O)C1([H])N(C(=O)C([H])(N([H])C(=O)C([H])(N([H])C([H])([H])[H])C([H])([H])[H])C(C([H])([H])[H])(C([H])([H])[H])C([H])([H])[H])C([H])([H])c2c([H])c(OC([H])([H])C([H])([H])n3c([H])c(C([H])([H])C([H])([H])N([H])C(=O)N4C([H])([H])C([H])([H])C([H])([H])C([H])(n5nc(-c6c([H])c([H])c(Oc7c([H])c([H])c(F)c([H])c7F)c([H])c6[H])c(C(=O)N([H])[H])c5N([H])[H])C4([H])[H])c(C([H])([H])[H])c3C([H])([H])[H])c([H])c([H])c2C1([H])[H]

$$$$
32:0:0
     RDKit          3D

 94102  0  0  1  0  0  0  0  0999 V2000
  -31.9810  -22.5620   21.0320 C   0  0  0  0  0  3  0  0  0  0  0  0
  -30.6430  -22.9550   20.9810 C   0  0  0  0  0  3  0  0  0  0  0  0
  -32.3700  -21.4500   20.2860 C   0  0  0  0  0  3  0  0  0  0  0  0
  -29.6290  -22.1530   20.4090 C   0  0  0  0  0  0  0  0  0  0  0  0
  -31.4130  -20.6300   19.6460 C   0  0  0  0  0  0  0  0  0  0  0  0
  -30.0350  -20.7170   20.0520 C   0  0  0  0  0  0  0  0  0  0  0  0
  -32.4610  -21.0310   17.4180 C   0  0  0  0  0  1  0  0  0  0  0  0
  -30.8480  -19.2020   17.5010 C   0  0  0  0  0  1  0  0  0  0  0  0
  -33.1100  -18.9630   18.6340 C   0  0  0  0  0  1  0  0  0  0  0  0
  -31.9230  -19.9190   18.3550 C   0  0  2  0  0  0  0  0  0  0  0  0
  -27.4460  -23.0140   21.5310 C   0  0  0  0  0  1  0  0  0  0  0  0
  -28.2990  -23.0990   20.2610 C   0  0  0  0  0  3  0  0  0  0  0  0
  -28.3160  -24.7200   19.6740 C   0  0  0  0  0  2  0  0  0  0  0  0
  -28.2510  -26.1620   20.3030 O   0  0  0  0  0  0  0  0  0  0  0  0
  -24.6110  -31.8870   23.2240 C   0  0  0  0  0  0  0  0  0  0  0  0
  -27.1850  -27.1430   20.1910 C   0  0  0  0  0  0  0  0  0  0  0  0
  -23.4090  -30.4860   21.5920 C   0  0  0  0  0  3  0  0  0  0  0  0
  -24.8530  -28.9080   20.1610 C   0  0  0  0  0  0  0  0  0  0  0  0
  -25.9630  -30.7460   21.4210 C   0  0  0  0  0  2  0  0  0  0  0  0
  -26.0340  -29.3490   20.7710 C   0  0  0  0  0  0  0  0  0  0  0  0
  -27.1950  -28.4820   20.7700 C   0  0  0  0  0  3  0  0  0  0  0  0
  -25.9690  -26.8070   19.5520 C   0  0  0  0  0  3  0  0  0  0  0  0
  -24.8350  -27.6510   19.5400 C   0  0  0  0  0  3  0  0  0  0  0  0
  -23.6250  -29.8080   20.2130 C   0  0  0  0  0  2  0  0  0  0  0  0
  -24.6810  -31.0620   22.1340 N   0  0  0  0  0  0  0  0  0  0  0  0
  -23.5260  -32.1730   23.7540 O   0  0  0  0  0  0  0  0  0  0  0  0
  -22.7330  -29.4800   22.5580 C   0  0  0  0  0  0  0  0  0  0  0  0
  -21.4040  -29.3060   22.4330 N   0  0  0  0  0  0  0  0  0  0  0  0
  -23.4060  -28.8590   23.3840 O   0  0  0  0  0  0  0  0  0  0  0  0
  -20.9160  -29.8610   21.7450 H   0  0  0  0  0  0  0  0  0  0  0  0
  -18.0290  -28.0850   22.9340 C   0  0  0  0  0  0  0  0  0  0  0  0
  -20.5850  -28.3700   23.2100 C   0  0  0  0  0  3  0  0  0  0  0  0
  -20.7010  -26.9330   22.6490 C   0  0  0  0  0  2  0  0  0  0  0  0
  -19.6050  -26.5930   21.6320 C   0  0  0  0  0  2  0  0  0  0  0  0
  -18.2190  -26.7320   22.2690 C   0  0  0  0  0  2  0  0  0  0  0  0
  -19.1410  -28.8600   23.3630 C   0  0  0  0  0  0  0  0  0  0  0  0
  -18.9080  -30.1250   23.9460 C   0  0  0  0  0  3  0  0  0  0  0  0
  -17.5980  -30.6150   24.1050 C   0  0  0  0  0  3  0  0  0  0  0  0
  -16.5020  -29.8370   23.6940 C   0  0  0  0  0  3  0  0  0  0  0  0
  -16.7190  -28.5750   23.1140 C   0  0  0  0  0  3  0  0  0  0  0  0
  -25.8880  -32.5270   23.8460 C   0  0  0  0  0  3  0  0  0  0  0  0
  -25.5750  -33.9270   24.1780 N   0  0  0  0  0  0  0  0  0  0  0  0
  -25.8970  -34.9840   23.4200 C   0  0  0  0  0  0  0  0  0  0  0  0
  -26.5560  -34.8820   22.3820 O   0  0  0  0  0  0  0  0  0  0  0  0
  -24.9840  -34.0770   24.9830 H   0  0  0  0  0  0  0  0  0  0  0  0
  -24.1590  -36.7750   23.0940 C   0  0  0  0  0  1  0  0  0  0  0  0
  -25.4140  -36.3730   23.8860 C   0  0  0  0  0  3  0  0  0  0  0  0
  -27.5590  -37.2640   24.6820 C   0  0  0  0  0  1  0  0  0  0  0  0
  -26.4430  -37.4290   23.7560 N   0  0  0  0  0  0  0  0  0  0  0  0
  -26.0370  -38.3480   23.9070 H   0  0  0  0  0  0  0  0  0  0  0  0
  -26.4030  -31.7640   25.1290 C   0  0  1  0  0  0  0  0  0  0  0  0
  -25.3070  -31.5310   26.1970 C   0  0  0  0  0  1  0  0  0  0  0  0
  -26.9860  -30.3830   24.7500 C   0  0  0  0  0  1  0  0  0  0  0  0
  -27.5540  -32.5600   25.7860 C   0  0  0  0  0  1  0  0  0  0  0  0
  -29.3030  -19.2250   20.1640 C   0  0  0  0  0  3  0  0  0  0  0  0
  -30.1680  -17.7860   20.5570 C   0  0  0  0  0  3  0  0  0  0  0  0
  -30.4720  -15.0380   20.3190 C   0  0  0  0  0  0  0  0  0  0  0  0
  -30.3360  -12.6800   19.3700 C   0  0  0  0  0  2  0  0  0  0  0  0
  -29.3940  -12.6140   18.1460 C   0  0  0  0  0  2  0  0  0  0  0  0
  -27.9410  -12.3800   18.5990 C   0  0  0  0  0  2  0  0  0  0  0  0
  -27.5340  -13.3110   19.7720 C   0  0  0  0  0  3  0  0  0  0  0  0
  -28.6030  -13.3560   20.8870 C   0  0  0  0  0  2  0  0  0  0  0  0
  -29.8580  -13.7820   20.2560 N   0  0  0  0  0  0  0  0  0  0  0  0
  -31.6790  -15.0720   20.0580 O   0  0  0  0  0  0  0  0  0  0  0  0
  -29.7260  -16.2520   20.4710 N   0  0  0  0  0  0  0  0  0  0  0  0
  -28.7360  -16.1000   20.5960 H   0  0  0  0  0  0  0  0  0  0  0  0
  -25.1630  -13.8740   20.5440 C   0  0  0  0  0  0  0  0  0  0  0  0
  -24.1080  -13.0910   20.9240 C   0  0  0  0  0  0  0  0  0  0  0  0
  -24.5790  -11.7430   20.8820 C   0  0  0  0  0  0  0  0  0  0  0  0
  -26.2070  -13.0010   20.2890 N   0  0  0  0  0  0  0  0  0  0  0  0
  -25.8670  -11.7140   20.5600 N   0  0  0  0  0  0  0  0  0  0  0  0
  -23.8590  -10.4750   21.0720 C   0  0  0  0  0  0  0  0  0  0  0  0
  -24.3060   -9.5030   21.9940 C   0  0  0  0  0  3  0  0  0  0  0  0
  -23.5850   -8.3030   22.1750 C   0  0  0  0  0  3  0  0  0  0  0  0
  -22.4030   -8.0650   21.4320 C   0  0  0  0  0  0  0  0  0  0  0  0
  -21.9740   -9.0270   20.5010 C   0  0  0  0  0  3  0  0  0  0  0  0
  -22.6950  -10.2190   20.3180 C   0  0  0  0  0  3  0  0  0  0  0  0
  -21.6530   -6.9160   21.5220 O   0  0  0  0  0  0  0  0  0  0  0  0
  -21.6310   -6.1600   22.6660 C   0  0  0  0  0  0  0  0  0  0  0  0
  -21.2250   -6.6980   23.9060 C   0  0  0  0  0  3  0  0  0  0  0  0
  -21.1480   -5.8670   25.0420 C   0  0  0  0  0  3  0  0  0  0  0  0
  -21.4680   -4.4990   24.9390 C   0  0  0  0  0  0  0  0  0  0  0  0
  -21.8660   -3.9620   23.7020 C   0  0  0  0  0  3  0  0  0  0  0  0
  -21.9450   -4.7890   22.5690 C   0  0  0  0  0  0  0  0  0  0  0  0
  -22.3090   -4.2610   21.3750 F   0  0  0  0  0  0  0  0  0  0  0  0
  -21.3870   -3.7000   26.0280 F   0  0  0  0  0  0  0  0  0  0  0  0
  -22.7110  -13.5610   21.2060 C   0  0  0  0  0  0  0  0  0  0  0  0
  -21.9920  -12.8570   22.0740 N   0  0  0  0  0  0  0  0  0  0  0  0
  -22.2650  -14.5870   20.6950 O   0  0  0  0  0  0  0  0  0  0  0  0
  -22.3630  -12.0250   22.5060 H   0  0  0  0  0  0  0  0  0  0  0  0
  -21.0570  -13.1580   22.3110 H   0  0  0  0  0  0  0  0  0  0  0  0
  -25.3160  -15.2450   20.3690 N   0  0  0  0  0  0  0  0  0  0  0  0
  -24.5400  -15.8900   20.4760 H   0  0  0  0  0  0  0  0  0  0  0  0
  -26.1450  -15.6830   19.9860 H   0  0  0  0  0  0  0  0  0  0  0  0
  2  1  1  0
  3  1  2  0
  4  2  2  0
  5  6  2  0
  5  3  1  0
  6 55  1  0
  6  4  1  0
 10  7  1  6
  8 10  1  0
 10  9  1  0
 10  5  1  0
 12  4  1  0
 12 11  1  0
 13 12  1  0
 13 14  1  0
 15 26  2  0
 16 14  1  0
 16 21  1  0
 17 25  1  0
 17 27  1  0
 18 24  1  0
 18 20  1  0
 19 25  1  0
 20 19  1  0
 21 20  2  0
 22 16  2  0
 23 22  1  0
 23 18  2  0
 24 17  1  0
 25 15  1  0
 27 29  2  0
 28 27  1  0
 30 28  1  0
 31 40  2  0
 31 36  1  0
 32 28  1  0
 32 36  1  0
 33 32  1  0
 34 35  1  0
 34 33  1  0
 35 31  1  0
 36 37  2  0
 37 38  1  0
 39 38  2  0
 40 39  1  0
 41 15  1  0
 41 42  1  0
 41 51  1  0
 42 45  1  0
 43 47  1  0
 43 42  1  0
 44 43  2  0
 47 46  1  0
 49 47  1  0
 49 50  1  0
 49 48  1  0
 51 54  1  1
 51 52  1  0
 53 51  1  0
 55 56  2  0
 57 65  1  0
 58 63  1  0
 59 60  1  0
 59 58  1  0
 61 60  1  0
 61 70  1  0
 61 62  1  0
 63 57  1  0
 63 62  1  0
 64 57  2  0
 65 56  1  0
 65 66  1  0
 67 68  2  0
 68 87  1  0
 69 68  1  0
 69 72  1  0
 70 67  1  0
 70 71  1  0
 71 69  2  0
 72 73  1  0
 73 74  2  0
 75 78  1  0
 75 74  1  0
 76 75  2  0
 77 76  1  0
 77 72  2  0
 78 79  1  0
 79 80  1  0
 80 81  2  0
 82 81  1  0
 82 86  1  0
 83 82  2  0
 84 79  2  0
 84 83  1  0
 85 84  1  0
 87 88  1  0
 88 91  1  0
 88 90  1  0
 89 87  2  0
 92 93  1  0
 92 67  1  0
 94 92  1  0
M  ISO  4  13 101  14 101  57 100  65 100
M  END
>  <TORSDO>  (32) 
F 21

>  <SCORE>  (32) 
-14.859

>  <name>  (32) 
32

>  <ligand_id>  (32) 
32

>  <original_smiles>  (32) 
[H]c1c([H])c([H])c2c(c1[H])C([H])([H])C([H])([H])C([H])([H])C2([H])N([H])C(=O)C1([H])N(C(=O)C([H])(N([H])C(=O)C([H])(N([H])C([H])([H])[H])C([H])([H])[H])C(C([H])([H])[H])(C([H])([H])[H])C([H])([H])[H])C([H])([H])c2c([H])c(OC([H])([H])C([H])(c3c([H])c([H])c([H])c(C(C([H])([H])[H])(C([H])([H])[H])C([H])([H])[H])c3C([H])([H])C([H])([H])N([H])C(=O)N3C([H])([H])C([H])([H])C([H])([H])C([H])(n4nc(-c5c([H])c([H])c(Oc6c([H])c([H])c(F)c([H])c6F)c([H])c5[H])c(C(=O)N([H])[H])c4N([H])[H])C3([H])[H])C([H])([H])[H])c([H])c([H])c2C1([H])[H]

>  <smiles>  (32) 
[H]c1c([H])c([H])c2c(c1[H])C([H])([H])C([H])([H])C([H])([H])C2([H])N([H])C(=O)C1([H])N(C(=O)C([H])(N([H])C(=O)C([H])(N([H])C([H])([H])[H])C([H])([H])[H])C(C([H])([H])[H])(C([H])([H])[H])C([H])([H])[H])C([H])([H])c2c([H])c(OC([H])([H])C([H])(c3c([H])c([H])c([H])c(C(C([H])([H])[H])(C([H])([H])[H])C([H])([H])[H])c3C([H])([H])C([H])([H])N([H])C(=O)N3C([H])([H])C([H])([H])C([H])([H])C([H])(n4nc(-c5c([H])c([H])c(Oc6c([H])c([H])c(F)c([H])c6F)c([H])c5[H])c(C(=O)N([H])[H])c4N([H])[H])C3([H])[H])C([H])([H])[H])c([H])c([H])c2C1([H])[H]

$$$$
33:0:0
     RDKit          3D

 95103  0  0  1  0  0  0  0  0999 V2000
  -30.2540  -19.3450   19.9120 C   0  0  0  0  0  3  0  0  0  0  0  0
  -30.4070  -21.4960   21.0030 C   0  0  0  0  0  3  0  0  0  0  0  0
  -29.9680  -20.7560   19.8950 C   0  0  0  0  0  0  0  0  0  0  0  0
  -30.9650  -18.7530   21.0110 C   0  0  0  0  0  0  0  0  0  0  0  0
  -31.3760  -19.6470   22.0370 C   0  0  0  0  0  0  0  0  0  0  0  0
  -31.0820  -20.9630   22.0320 N   0  0  0  0  0  0  0  0  0  0  0  0
  -31.1620  -19.2050   24.5230 C   0  0  0  0  0  1  0  0  0  0  0  0
  -33.4100  -19.9610   23.5500 C   0  0  0  0  0  1  0  0  0  0  0  0
  -32.1020  -19.1860   23.3090 C   0  0  0  0  0  3  0  0  0  0  0  0
  -29.0840  -21.4460   18.8070 C   0  0  0  0  0  2  0  0  0  0  0  0
  -29.1150  -23.0340   18.5570 C   0  0  0  0  0  2  0  0  0  0  0  0
  -26.6770  -23.3550   19.1610 C   0  0  0  0  0  1  0  0  0  0  0  0
  -27.3210  -23.0870   16.7690 C   0  0  0  0  0  1  0  0  0  0  0  0
  -27.7490  -23.7300   18.1180 C   0  0  2  0  0  0  0  0  0  0  0  0
  -27.7400  -25.3120   17.7920 C   0  0  0  0  0  2  0  0  0  0  0  0
  -27.8120  -26.4450   18.7210 O   0  0  0  0  0  0  0  0  0  0  0  0
  -24.9990  -31.4200   23.0690 C   0  0  0  0  0  0  0  0  0  0  0  0
  -26.7650  -27.3540   18.9150 C   0  0  0  0  0  0  0  0  0  0  0  0
  -23.4610  -30.4250   21.4100 C   0  0  0  0  0  3  0  0  0  0  0  0
  -24.5640  -29.0690   19.5400 C   0  0  0  0  0  0  0  0  0  0  0  0
  -25.9690  -30.6020   20.9140 C   0  0  0  0  0  2  0  0  0  0  0  0
  -25.8330  -29.3590   20.0480 C   0  0  0  0  0  0  0  0  0  0  0  0
  -26.9270  -28.4970   19.7500 C   0  0  0  0  0  3  0  0  0  0  0  0
  -25.4800  -27.1370   18.3710 C   0  0  0  0  0  3  0  0  0  0  0  0
  -24.3840  -27.9580   18.6990 C   0  0  0  0  0  3  0  0  0  0  0  0
  -23.4240  -29.9900   19.9210 C   0  0  0  0  0  2  0  0  0  0  0  0
  -24.8370  -30.8210   21.8530 N   0  0  0  0  0  0  0  0  0  0  0  0
  -24.0270  -31.6650   23.7990 O   0  0  0  0  0  0  0  0  0  0  0  0
  -22.8410  -29.3020   22.2740 C   0  0  0  0  0  0  0  0  0  0  0  0
  -21.5050  -29.1620   22.2090 N   0  0  0  0  0  0  0  0  0  0  0  0
  -23.5570  -28.5650   22.9560 O   0  0  0  0  0  0  0  0  0  0  0  0
  -20.9900  -29.8080   21.6280 H   0  0  0  0  0  0  0  0  0  0  0  0
  -18.1660  -27.8450   22.6310 C   0  0  0  0  0  0  0  0  0  0  0  0
  -20.7170  -28.1420   22.9030 C   0  0  0  0  0  3  0  0  0  0  0  0
  -20.8510  -26.7690   22.2070 C   0  0  0  0  0  2  0  0  0  0  0  0
  -19.7490  -26.5040   21.1740 C   0  0  0  0  0  2  0  0  0  0  0  0
  -18.3700  -26.5620   21.8390 C   0  0  0  0  0  2  0  0  0  0  0  0
  -19.2700  -28.5930   23.1160 C   0  0  0  0  0  0  0  0  0  0  0  0
  -19.0290  -29.7960   23.8180 C   0  0  0  0  0  3  0  0  0  0  0  0
  -17.7150  -30.2520   24.0300 C   0  0  0  0  0  3  0  0  0  0  0  0
  -16.6250  -29.4970   23.5670 C   0  0  0  0  0  3  0  0  0  0  0  0
  -16.8520  -28.2920   22.8760 C   0  0  0  0  0  3  0  0  0  0  0  0
  -26.4070  -31.8400   23.5930 C   0  0  0  0  0  3  0  0  0  0  0  0
  -26.2660  -33.1460   24.2520 N   0  0  0  0  0  0  0  0  0  0  0  0
  -26.5930  -34.3190   23.6930 C   0  0  0  0  0  0  0  0  0  0  0  0
  -27.1200  -34.4080   22.5800 O   0  0  0  0  0  0  0  0  0  0  0  0
  -25.7970  -33.1570   25.1460 H   0  0  0  0  0  0  0  0  0  0  0  0
  -25.0010  -36.2480   23.9670 C   0  0  0  0  0  1  0  0  0  0  0  0
  -26.2900  -35.5980   24.4960 C   0  0  0  0  0  3  0  0  0  0  0  0
  -28.5720  -36.1530   25.2130 C   0  0  0  0  0  1  0  0  0  0  0  0
  -27.3910  -36.5850   24.4700 N   0  0  0  0  0  0  0  0  0  0  0  0
  -27.0840  -37.4750   24.8520 H   0  0  0  0  0  0  0  0  0  0  0  0
  -27.0440  -30.7860   24.5810 C   0  0  1  0  0  0  0  0  0  0  0  0
  -26.1100  -30.3770   25.7420 C   0  0  0  0  0  1  0  0  0  0  0  0
  -27.4390  -29.4980   23.8230 C   0  0  0  0  0  1  0  0  0  0  0  0
  -28.3480  -31.3560   25.1900 C   0  0  0  0  0  1  0  0  0  0  0  0
  -31.3210  -17.2320   21.2020 C   0  0  0  0  0  2  0  0  0  0  0  0
  -32.5530  -15.2140   20.3270 C   0  0  0  0  0  0  0  0  0  0  0  0
  -32.1870  -12.8990   19.5400 C   0  0  0  0  0  2  0  0  0  0  0  0
  -31.3350  -12.9210   18.2560 C   0  0  0  0  0  2  0  0  0  0  0  0
  -29.8340  -12.9320   18.6020 C   0  0  0  0  0  2  0  0  0  0  0  0
  -29.4660  -13.9750   19.6950 C   0  0  0  0  0  3  0  0  0  0  0  0
  -30.4420  -13.9020   20.8850 C   0  0  0  0  0  2  0  0  0  0  0  0
  -31.7980  -14.0730   20.3470 N   0  0  0  0  0  0  0  0  0  0  0  0
  -33.7510  -15.1860   20.0450 O   0  0  0  0  0  0  0  0  0  0  0  0
  -31.9210  -16.4070   20.1420 N   0  0  0  0  0  0  0  0  0  0  0  0
  -32.4840  -16.9800   19.5330 H   0  0  0  0  0  0  0  0  0  0  0  0
  -27.1280  -14.8210   20.3370 C   0  0  0  0  0  0  0  0  0  0  0  0
  -25.9670  -14.1660   20.6370 C   0  0  0  0  0  0  0  0  0  0  0  0
  -26.2730  -12.7710   20.5780 C   0  0  0  0  0  0  0  0  0  0  0  0
  -28.0770  -13.8350   20.1180 N   0  0  0  0  0  0  0  0  0  0  0  0
  -27.5640  -12.5940   20.3270 N   0  0  0  0  0  0  0  0  0  0  0  0
  -25.4030  -11.5950   20.6920 C   0  0  0  0  0  0  0  0  0  0  0  0
  -25.6670  -10.5680   21.6260 C   0  0  0  0  0  3  0  0  0  0  0  0
  -24.8020   -9.4570   21.7340 C   0  0  0  0  0  3  0  0  0  0  0  0
  -23.6570   -9.3660   20.9070 C   0  0  0  0  0  0  0  0  0  0  0  0
  -23.4120  -10.3780   19.9610 C   0  0  0  0  0  3  0  0  0  0  0  0
  -24.2770  -11.4800   19.8500 C   0  0  0  0  0  3  0  0  0  0  0  0
  -22.7760   -8.3120   20.9230 O   0  0  0  0  0  0  0  0  0  0  0  0
  -22.4620   -7.6520   22.0830 C   0  0  0  0  0  0  0  0  0  0  0  0
  -21.8930   -8.3230   23.1880 C   0  0  0  0  0  3  0  0  0  0  0  0
  -21.5210   -7.5970   24.3370 C   0  0  0  0  0  3  0  0  0  0  0  0
  -21.7080   -6.2020   24.3790 C   0  0  0  0  0  0  0  0  0  0  0  0
  -22.2670   -5.5310   23.2780 C   0  0  0  0  0  3  0  0  0  0  0  0
  -22.6380   -6.2540   22.1300 C   0  0  0  0  0  0  0  0  0  0  0  0
  -23.1600   -5.6020   21.0630 F   0  0  0  0  0  0  0  0  0  0  0  0
  -21.3440   -5.5010   25.4780 F   0  0  0  0  0  0  0  0  0  0  0  0
  -24.6200  -14.7890   20.8680 C   0  0  0  0  0  0  0  0  0  0  0  0
  -23.7990  -14.1810   21.7160 N   0  0  0  0  0  0  0  0  0  0  0  0
  -24.3030  -15.8500   20.3300 O   0  0  0  0  0  0  0  0  0  0  0  0
  -24.0630  -13.3200   22.1740 H   0  0  0  0  0  0  0  0  0  0  0  0
  -22.8940  -14.5830   21.9140 H   0  0  0  0  0  0  0  0  0  0  0  0
  -27.4570  -16.1670   20.2110 N   0  0  0  0  0  0  0  0  0  0  0  0
  -26.7690  -16.9020   20.3250 H   0  0  0  0  0  0  0  0  0  0  0  0
  -28.3730  -16.5160   19.9580 H   0  0  0  0  0  0  0  0  0  0  0  0
  1  4  1  0
  2  6  2  0
  3  1  2  0
  3  2  1  0
  4 57  1  0
  4  5  2  0
  5  9  1  0
  6  5  1  0
  9  8  1  0
  9  7  1  0
 10  3  1  0
 11 10  1  0
 14 13  1  6
 14 11  1  0
 14 12  1  0
 15 14  1  0
 15 16  1  0
 16 18  1  0
 17 28  2  0
 18 23  1  0
 19 27  1  0
 19 29  1  0
 20 26  1  0
 20 22  1  0
 21 27  1  0
 22 21  1  0
 23 22  2  0
 24 25  1  0
 24 18  2  0
 25 20  2  0
 26 19  1  0
 27 17  1  0
 29 31  2  0
 30 29  1  0
 32 30  1  0
 33 42  2  0
 33 38  1  0
 34 30  1  0
 34 38  1  0
 35 34  1  0
 36 37  1  0
 36 35  1  0
 37 33  1  0
 38 39  2  0
 39 40  1  0
 41 40  2  0
 42 41  1  0
 43 17  1  0
 43 44  1  0
 43 53  1  0
 44 47  1  0
 45 44  1  0
 45 49  1  0
 46 45  2  0
 49 48  1  0
 51 49  1  0
 51 52  1  0
 51 50  1  0
 53 56  1  1
 53 54  1  0
 55 53  1  0
 58 64  1  0
 59 64  1  0
 60 61  1  0
 60 59  1  0
 62 61  1  0
 62 71  1  0
 62 63  1  0
 64 63  1  0
 65 58  2  0
 66 58  1  0
 66 57  1  0
 67 66  1  0
 68 69  2  0
 69 88  1  0
 70 69  1  0
 70 73  1  0
 71 72  1  0
 71 68  1  0
 72 70  2  0
 73 74  1  0
 74 75  2  0
 76 79  1  0
 76 75  1  0
 77 76  2  0
 78 77  1  0
 78 73  2  0
 79 80  1  0
 80 85  2  0
 80 81  1  0
 81 82  2  0
 82 83  1  0
 83 87  1  0
 84 83  2  0
 85 84  1  0
 86 85  1  0
 88 89  1  0
 89 92  1  0
 89 91  1  0
 90 88  2  0
 93 94  1  0
 93 68  1  0
 95 93  1  0
M  ISO  4  15 101  16 101  58 100  66 100
M  END
>  <TORSDO>  (33) 
F 22

>  <SCORE>  (33) 
-6.667

>  <name>  (33) 
33

>  <ligand_id>  (33) 
33

>  <original_smiles>  (33) 
[H]c1nc(C([H])(C([H])([H])[H])C([H])([H])[H])c(C([H])([H])N([H])C(=O)N2C([H])([H])C([H])([H])C([H])([H])C([H])(n3nc(-c4c([H])c([H])c(Oc5c([H])c([H])c(F)c([H])c5F)c([H])c4[H])c(C(=O)N([H])[H])c3N([H])[H])C2([H])[H])c([H])c1C([H])([H])C([H])([H])C(C([H])([H])[H])(C([H])([H])[H])C([H])([H])Oc1c([H])c([H])c2c(c1[H])C([H])([H])N(C(=O)C([H])(N([H])C(=O)C([H])(N([H])C([H])([H])[H])C([H])([H])[H])C(C([H])([H])[H])(C([H])([H])[H])C([H])([H])[H])C([H])(C(=O)N([H])C1([H])c3c([H])c([H])c([H])c([H])c3C([H])([H])C([H])([H])C1([H])[H])C2([H])[H]

>  <smiles>  (33) 
[H]c1nc(C([H])(C([H])([H])[H])C([H])([H])[H])c(C([H])([H])N([H])C(=O)N2C([H])([H])C([H])([H])C([H])([H])C([H])(n3nc(-c4c([H])c([H])c(Oc5c([H])c([H])c(F)c([H])c5F)c([H])c4[H])c(C(=O)N([H])[H])c3N([H])[H])C2([H])[H])c([H])c1C([H])([H])C([H])([H])C(C([H])([H])[H])(C([H])([H])[H])C([H])([H])Oc1c([H])c([H])c2c(c1[H])C([H])([H])N(C(=O)C([H])(N([H])C(=O)C([H])(N([H])C([H])([H])[H])C([H])([H])[H])C(C([H])([H])[H])(C([H])([H])[H])C([H])([H])[H])C([H])(C(=O)N([H])C1([H])c3c([H])c([H])c([H])c([H])c3C([H])([H])C([H])([H])C1([H])[H])C2([H])[H]

$$$$
34:0:0
     RDKit          3D

 97105  0  0  1  0  0  0  0  0999 V2000
  -30.6890  -23.0980   18.7900 C   0  0  0  0  0  3  0  0  0  0  0  0
  -31.5850  -24.6970   20.3580 C   0  0  0  0  0  3  0  0  0  0  0  0
  -30.7580  -24.4240   19.2600 C   0  0  0  0  0  0  0  0  0  0  0  0
  -31.5070  -22.1020   19.3650 C   0  0  0  0  0  0  0  0  0  0  0  0
  -32.3460  -22.4940   20.4440 C   0  0  0  0  0  0  0  0  0  0  0  0
  -32.3510  -23.7540   20.9410 N   0  0  0  0  0  0  0  0  0  0  0  0
  -31.4010  -20.6930   17.2290 C   0  0  0  0  0  1  0  0  0  0  0  0
  -31.5010  -20.6870   18.7650 C   0  0  0  0  0  3  0  0  0  0  0  0
  -30.4070  -19.9000   19.2350 O   0  0  0  0  0  0  0  0  0  0  0  0
  -30.6990  -18.9930   20.3050 C   0  0  0  0  0  2  0  0  0  0  0  0
  -28.5470  -17.6850   20.1720 C   0  0  0  0  0  1  0  0  0  0  0  0
  -30.4470  -17.1120   18.6350 C   0  0  0  0  0  1  0  0  0  0  0  0
  -30.0780  -17.5910   20.0570 C   0  0  1  0  0  0  0  0  0  0  0  0
  -30.6340  -16.6080   21.1340 C   0  0  0  0  0  2  0  0  0  0  0  0
  -30.8340  -14.2330   20.3830 C   0  0  0  0  0  0  0  0  0  0  0  0
  -30.5560  -12.0480   19.2830 C   0  0  0  0  0  2  0  0  0  0  0  0
  -29.5970  -12.1880   18.0820 C   0  0  0  0  0  2  0  0  0  0  0  0
  -28.1300  -12.0350   18.5310 C   0  0  0  0  0  2  0  0  0  0  0  0
  -27.7860  -12.9100   19.7660 C   0  0  0  0  0  3  0  0  0  0  0  0
  -28.8540  -12.7480   20.8720 C   0  0  0  0  0  2  0  0  0  0  0  0
  -30.1690  -13.0530   20.2830 N   0  0  0  0  0  0  0  0  0  0  0  0
  -31.9310  -14.4320   19.8560 O   0  0  0  0  0  0  0  0  0  0  0  0
  -30.1690  -15.2200   21.0000 N   0  0  0  0  0  0  0  0  0  0  0  0
  -29.2670  -14.9900   21.3880 H   0  0  0  0  0  0  0  0  0  0  0  0
  -25.3970  -13.4980   20.5230 C   0  0  0  0  0  0  0  0  0  0  0  0
  -24.3380  -12.7170   20.9010 C   0  0  0  0  0  0  0  0  0  0  0  0
  -24.8040  -11.3670   20.8450 C   0  0  0  0  0  0  0  0  0  0  0  0
  -26.4420  -12.6240   20.2650 N   0  0  0  0  0  0  0  0  0  0  0  0
  -26.0880  -11.3370   20.5130 N   0  0  0  0  0  0  0  0  0  0  0  0
  -24.0850  -10.1000   21.0330 C   0  0  0  0  0  0  0  0  0  0  0  0
  -24.5000   -9.1540   21.9940 C   0  0  0  0  0  3  0  0  0  0  0  0
  -23.7860   -7.9500   22.1690 C   0  0  0  0  0  3  0  0  0  0  0  0
  -22.6400   -7.6850   21.3810 C   0  0  0  0  0  0  0  0  0  0  0  0
  -22.2450   -8.6200   20.4080 C   0  0  0  0  0  3  0  0  0  0  0  0
  -22.9610   -9.8150   20.2340 C   0  0  0  0  0  3  0  0  0  0  0  0
  -21.8990   -6.5300   21.4620 O   0  0  0  0  0  0  0  0  0  0  0  0
  -21.7950   -5.8210   22.6320 C   0  0  0  0  0  0  0  0  0  0  0  0
  -21.2330   -6.3850   23.7980 C   0  0  0  0  0  3  0  0  0  0  0  0
  -21.0840   -5.5990   24.9580 C   0  0  0  0  0  3  0  0  0  0  0  0
  -21.4850   -4.2490   24.9510 C   0  0  0  0  0  0  0  0  0  0  0  0
  -22.0370   -3.6830   23.7880 C   0  0  0  0  0  3  0  0  0  0  0  0
  -22.1890   -4.4670   22.6310 C   0  0  0  0  0  0  0  0  0  0  0  0
  -22.7040   -3.9120   21.5070 F   0  0  0  0  0  0  0  0  0  0  0  0
  -21.3340   -3.4920   26.0620 F   0  0  0  0  0  0  0  0  0  0  0  0
  -22.9450  -13.1850   21.2080 C   0  0  0  0  0  0  0  0  0  0  0  0
  -22.2340  -12.4710   22.0710 N   0  0  0  0  0  0  0  0  0  0  0  0
  -22.4960  -14.2210   20.7180 O   0  0  0  0  0  0  0  0  0  0  0  0
  -22.6120  -11.6350   22.4930 H   0  0  0  0  0  0  0  0  0  0  0  0
  -21.2990  -12.7630   22.3140 H   0  0  0  0  0  0  0  0  0  0  0  0
  -25.5560  -14.8710   20.3600 N   0  0  0  0  0  0  0  0  0  0  0  0
  -24.7910  -15.5260   20.4850 H   0  0  0  0  0  0  0  0  0  0  0  0
  -26.4030  -15.3130   20.0240 H   0  0  0  0  0  0  0  0  0  0  0  0
  -32.6650  -20.7760   22.2990 C   0  0  0  0  0  1  0  0  0  0  0  0
  -33.3220  -21.5620   21.1570 C   0  0  0  0  0  2  0  0  0  0  0  0
  -30.0300  -25.5400   18.5260 C   0  0  0  0  0  2  0  0  0  0  0  0
  -28.5660  -25.7480   18.9330 C   0  0  0  0  0  2  0  0  0  0  0  0
  -28.4040  -26.6630   20.0260 O   0  0  0  0  0  0  0  0  0  0  0  0
  -24.4580  -31.7540   23.1270 C   0  0  0  0  0  0  0  0  0  0  0  0
  -27.1960  -27.3350   20.0770 C   0  0  0  0  0  0  0  0  0  0  0  0
  -23.2870  -30.3350   21.4740 C   0  0  0  0  0  3  0  0  0  0  0  0
  -24.7730  -28.8030   20.0840 C   0  0  0  0  0  0  0  0  0  0  0  0
  -25.8140  -30.7140   21.3140 C   0  0  0  0  0  2  0  0  0  0  0  0
  -25.9200  -29.3390   20.6850 C   0  0  0  0  0  0  0  0  0  0  0  0
  -27.1300  -28.6080   20.6900 C   0  0  0  0  0  3  0  0  0  0  0  0
  -26.0130  -26.7980   19.5110 C   0  0  0  0  0  3  0  0  0  0  0  0
  -24.8130  -27.5270   19.5050 C   0  0  0  0  0  3  0  0  0  0  0  0
  -23.5240  -29.6520   20.1020 C   0  0  0  0  0  2  0  0  0  0  0  0
  -24.5370  -30.9490   22.0290 N   0  0  0  0  0  0  0  0  0  0  0  0
  -23.3660  -32.0200   23.6480 O   0  0  0  0  0  0  0  0  0  0  0  0
  -22.6330  -29.3100   22.4270 C   0  0  0  0  0  0  0  0  0  0  0  0
  -21.3150  -29.1030   22.2700 N   0  0  0  0  0  0  0  0  0  0  0  0
  -23.3080  -28.7040   23.2630 O   0  0  0  0  0  0  0  0  0  0  0  0
  -20.8330  -29.6460   21.5680 H   0  0  0  0  0  0  0  0  0  0  0  0
  -17.9530  -27.8490   22.6860 C   0  0  0  0  0  0  0  0  0  0  0  0
  -20.4960  -28.1590   23.0290 C   0  0  0  0  0  3  0  0  0  0  0  0
  -20.6420  -26.7240   22.4730 C   0  0  0  0  0  2  0  0  0  0  0  0
  -19.5760  -26.3670   21.4320 C   0  0  0  0  0  2  0  0  0  0  0  0
  -18.1730  -26.4950   22.0340 C   0  0  0  0  0  2  0  0  0  0  0  0
  -19.0440  -28.6380   23.1390 C   0  0  0  0  0  0  0  0  0  0  0  0
  -18.7860  -29.9050   23.7040 C   0  0  0  0  0  3  0  0  0  0  0  0
  -17.4680  -30.3840   23.8250 C   0  0  0  0  0  3  0  0  0  0  0  0
  -16.3900  -29.5930   23.3920 C   0  0  0  0  0  3  0  0  0  0  0  0
  -16.6330  -28.3280   22.8280 C   0  0  0  0  0  3  0  0  0  0  0  0
  -25.7290  -32.3980   23.7620 C   0  0  0  0  0  3  0  0  0  0  0  0
  -25.3890  -33.7790   24.1260 N   0  0  0  0  0  0  0  0  0  0  0  0
  -25.6810  -34.8550   23.3820 C   0  0  0  0  0  0  0  0  0  0  0  0
  -26.3370  -34.7910   22.3380 O   0  0  0  0  0  0  0  0  0  0  0  0
  -24.8050  -33.9020   24.9390 H   0  0  0  0  0  0  0  0  0  0  0  0
  -23.8990  -36.6040   23.0890 C   0  0  0  0  0  1  0  0  0  0  0  0
  -25.1620  -36.2200   23.8750 C   0  0  0  0  0  3  0  0  0  0  0  0
  -27.2770  -37.1510   24.7030 C   0  0  0  0  0  1  0  0  0  0  0  0
  -26.1640  -37.3020   23.7700 N   0  0  0  0  0  0  0  0  0  0  0  0
  -25.7350  -38.2080   23.9320 H   0  0  0  0  0  0  0  0  0  0  0  0
  -26.2680  -31.6050   25.0140 C   0  0  1  0  0  0  0  0  0  0  0  0
  -25.1820  -31.3060   26.0740 C   0  0  0  0  0  1  0  0  0  0  0  0
  -26.8880  -30.2550   24.5810 C   0  0  0  0  0  1  0  0  0  0  0  0
  -27.3970  -32.4100   25.6990 C   0  0  0  0  0  1  0  0  0  0  0  0
  1  3  2  0
  1  4  1  0
  2  6  2  0
  3  2  1  0
  4  5  2  0
  5  6  1  0
  5 54  1  0
  8  7  1  0
  8  9  1  0
  8  4  1  0
  9 10  1  0
 13 12  1  6
 13 11  1  0
 13 10  1  0
 13 14  1  0
 15 23  1  0
 16 21  1  0
 17 18  1  0
 17 16  1  0
 19 18  1  0
 19 28  1  0
 19 20  1  0
 21 15  1  0
 21 20  1  0
 22 15  2  0
 23 14  1  0
 23 24  1  0
 25 26  2  0
 26 45  1  0
 27 26  1  0
 27 30  1  0
 28 29  1  0
 28 25  1  0
 29 27  2  0
 30 31  1  0
 31 32  2  0
 33 36  1  0
 33 32  1  0
 34 33  2  0
 35 34  1  0
 35 30  2  0
 36 37  1  0
 37 38  1  0
 38 39  2  0
 40 39  1  0
 40 44  1  0
 41 40  2  0
 42 37  2  0
 42 41  1  0
 43 42  1  0
 45 46  1  0
 46 49  1  0
 46 48  1  0
 47 45  2  0
 50 51  1  0
 50 25  1  0
 52 50  1  0
 54 53  1  0
 55 56  1  0
 55  3  1  0
 56 57  1  0
 57 59  1  0
 58 69  2  0
 59 64  1  0
 60 68  1  0
 60 70  1  0
 61 67  1  0
 61 63  1  0
 62 68  1  0
 63 64  2  0
 63 62  1  0
 65 59  2  0
 66 65  1  0
 66 61  2  0
 67 60  1  0
 68 58  1  0
 70 72  2  0
 71 70  1  0
 73 71  1  0
 74 83  2  0
 74 79  1  0
 75 71  1  0
 75 79  1  0
 76 75  1  0
 77 78  1  0
 77 76  1  0
 78 74  1  0
 79 80  2  0
 80 81  1  0
 82 81  2  0
 83 82  1  0
 84 58  1  0
 84 85  1  0
 84 94  1  0
 85 88  1  0
 86 90  1  0
 86 85  1  0
 87 86  2  0
 90 89  1  0
 92 90  1  0
 92 93  1  0
 92 91  1  0
 94 97  1  1
 94 95  1  0
 96 94  1  0
M  ISO  4  15 100  23 100  56 101  57 101
M  END
>  <TORSDO>  (34) 
F 24

>  <SCORE>  (34) 
-11.547

>  <name>  (34) 
34

>  <ligand_id>  (34) 
34

>  <original_smiles>  (34) 
[H]c1nc(C([H])([H])C([H])([H])[H])c(C([H])(OC([H])([H])C(C([H])([H])[H])(C([H])([H])[H])C([H])([H])N([H])C(=O)N2C([H])([H])C([H])([H])C([H])([H])C([H])(n3nc(-c4c([H])c([H])c(Oc5c([H])c([H])c(F)c([H])c5F)c([H])c4[H])c(C(=O)N([H])[H])c3N([H])[H])C2([H])[H])C([H])([H])[H])c([H])c1C([H])([H])C([H])([H])Oc1c([H])c([H])c2c(c1[H])C([H])([H])N(C(=O)C([H])(N([H])C(=O)C([H])(N([H])C([H])([H])[H])C([H])([H])[H])C(C([H])([H])[H])(C([H])([H])[H])C([H])([H])[H])C([H])(C(=O)N([H])C1([H])c3c([H])c([H])c([H])c([H])c3C([H])([H])C([H])([H])C1([H])[H])C2([H])[H]

>  <smiles>  (34) 
[H]c1nc(C([H])([H])C([H])([H])[H])c(C([H])(OC([H])([H])C(C([H])([H])[H])(C([H])([H])[H])C([H])([H])N([H])C(=O)N2C([H])([H])C([H])([H])C([H])([H])C([H])(n3nc(-c4c([H])c([H])c(Oc5c([H])c([H])c(F)c([H])c5F)c([H])c4[H])c(C(=O)N([H])[H])c3N([H])[H])C2([H])[H])C([H])([H])[H])c([H])c1C([H])([H])C([H])([H])Oc1c([H])c([H])c2c(c1[H])C([H])([H])N(C(=O)C([H])(N([H])C(=O)C([H])(N([H])C([H])([H])[H])C([H])([H])[H])C(C([H])([H])[H])(C([H])([H])[H])C([H])([H])[H])C([H])(C(=O)N([H])C1([H])c3c([H])c([H])c([H])c([H])c3C([H])([H])C([H])([H])C1([H])[H])C2([H])[H]

$$$$
35:0:0
     RDKit          3D

 90 98  0  0  1  0  0  0  0  0999 V2000
  -28.7420  -22.3740   20.9880 C   0  0  0  0  0  2  0  0  0  0  0  0
  -28.5570  -18.9360   19.4730 C   0  0  0  0  0  3  0  0  0  0  0  0
  -28.1820  -20.2680   19.5180 C   0  0  0  0  0  3  0  0  0  0  0  0
  -29.7480  -19.9240   21.0370 C   0  0  0  0  0  3  0  0  0  0  0  0
  -29.5730  -18.6700   20.4440 C   0  0  0  0  0  0  0  0  0  0  0  0
  -28.9150  -20.9330   20.4920 N   0  0  0  0  0  0  0  0  0  0  0  0
  -30.3840  -17.3270   20.7440 C   0  0  0  0  0  2  0  0  0  0  0  0
  -30.5900  -14.7610   20.3470 C   0  0  0  0  0  0  0  0  0  0  0  0
  -30.3750  -12.4930   19.3260 C   0  0  0  0  0  2  0  0  0  0  0  0
  -29.4380  -12.5630   18.1020 C   0  0  0  0  0  2  0  0  0  0  0  0
  -27.9670  -12.3950   18.5350 C   0  0  0  0  0  2  0  0  0  0  0  0
  -27.5940  -13.2870   19.7490 C   0  0  0  0  0  3  0  0  0  0  0  0
  -28.6520  -13.2020   20.8690 C   0  0  0  0  0  2  0  0  0  0  0  0
  -29.9450  -13.5490   20.2700 N   0  0  0  0  0  0  0  0  0  0  0  0
  -31.7840  -14.8390   20.0450 O   0  0  0  0  0  0  0  0  0  0  0  0
  -29.8480  -15.9100   20.5760 N   0  0  0  0  0  0  0  0  0  0  0  0
  -28.8610  -15.7830   20.7390 H   0  0  0  0  0  0  0  0  0  0  0  0
  -25.2100  -13.8800   20.4810 C   0  0  0  0  0  0  0  0  0  0  0  0
  -24.1430  -13.1080   20.8520 C   0  0  0  0  0  0  0  0  0  0  0  0
  -24.6060  -11.7570   20.8240 C   0  0  0  0  0  0  0  0  0  0  0  0
  -26.2510  -13.0000   20.2430 N   0  0  0  0  0  0  0  0  0  0  0  0
  -25.8960  -11.7170   20.5140 N   0  0  0  0  0  0  0  0  0  0  0  0
  -23.8790  -10.4940   21.0150 C   0  0  0  0  0  0  0  0  0  0  0  0
  -24.3040   -9.5320   21.9560 C   0  0  0  0  0  3  0  0  0  0  0  0
  -23.5760   -8.3360   22.1350 C   0  0  0  0  0  3  0  0  0  0  0  0
  -22.4080   -8.0940   21.3730 C   0  0  0  0  0  0  0  0  0  0  0  0
  -22.0020   -9.0460   20.4210 C   0  0  0  0  0  3  0  0  0  0  0  0
  -22.7310  -10.2330   20.2400 C   0  0  0  0  0  3  0  0  0  0  0  0
  -21.6530   -6.9500   21.4610 O   0  0  0  0  0  0  0  0  0  0  0  0
  -21.5900   -6.2160   22.6180 C   0  0  0  0  0  0  0  0  0  0  0  0
  -21.1390   -6.7780   23.8330 C   0  0  0  0  0  3  0  0  0  0  0  0
  -21.0230   -5.9700   24.9820 C   0  0  0  0  0  3  0  0  0  0  0  0
  -21.3490   -4.6010   24.9180 C   0  0  0  0  0  0  0  0  0  0  0  0
  -21.7940   -4.0400   23.7070 C   0  0  0  0  0  3  0  0  0  0  0  0
  -21.9100   -4.8450   22.5600 C   0  0  0  0  0  0  0  0  0  0  0  0
  -22.3190   -4.2940   21.3920 F   0  0  0  0  0  0  0  0  0  0  0  0
  -21.2300   -3.8240   26.0190 F   0  0  0  0  0  0  0  0  0  0  0  0
  -22.7460  -13.5870   21.1200 C   0  0  0  0  0  0  0  0  0  0  0  0
  -22.0130  -12.8930   21.9830 N   0  0  0  0  0  0  0  0  0  0  0  0
  -22.3120  -14.6130   20.5980 O   0  0  0  0  0  0  0  0  0  0  0  0
  -22.3780  -12.0650   22.4310 H   0  0  0  0  0  0  0  0  0  0  0  0
  -21.0760  -13.1970   22.2020 H   0  0  0  0  0  0  0  0  0  0  0  0
  -25.3720  -15.2510   20.3030 N   0  0  0  0  0  0  0  0  0  0  0  0
  -24.6040  -15.9040   20.4150 H   0  0  0  0  0  0  0  0  0  0  0  0
  -26.2140  -15.6900   19.9520 H   0  0  0  0  0  0  0  0  0  0  0  0
  -28.5120  -23.6570   20.0190 C   0  0  0  0  0  3  0  0  0  0  0  0
  -29.3370  -24.5260   17.7300 C   0  0  0  0  0  1  0  0  0  0  0  0
  -29.6870  -23.7830   19.0280 C   0  0  0  0  0  2  0  0  0  0  0  0
  -28.1970  -25.0620   20.7850 C   0  0  0  0  0  2  0  0  0  0  0  0
  -28.3330  -26.4380   20.1990 O   0  0  0  0  0  0  0  0  0  0  0  0
  -24.5730  -31.8800   23.2190 C   0  0  0  0  0  0  0  0  0  0  0  0
  -27.2230  -27.3040   20.1960 C   0  0  0  0  0  0  0  0  0  0  0  0
  -23.3920  -30.4780   21.5650 C   0  0  0  0  0  3  0  0  0  0  0  0
  -24.8620  -28.9270   20.1550 C   0  0  0  0  0  0  0  0  0  0  0  0
  -25.9330  -30.8000   21.4070 C   0  0  0  0  0  2  0  0  0  0  0  0
  -26.0250  -29.4190   20.7620 C   0  0  0  0  0  0  0  0  0  0  0  0
  -27.2130  -28.6200   20.7650 C   0  0  0  0  0  3  0  0  0  0  0  0
  -26.0390  -26.8680   19.5700 C   0  0  0  0  0  3  0  0  0  0  0  0
  -24.8730  -27.6600   19.5480 C   0  0  0  0  0  3  0  0  0  0  0  0
  -23.6240  -29.8020   20.1870 C   0  0  0  0  0  2  0  0  0  0  0  0
  -24.6520  -31.0710   22.1210 N   0  0  0  0  0  0  0  0  0  0  0  0
  -23.4840  -32.1520   23.7430 O   0  0  0  0  0  0  0  0  0  0  0  0
  -22.7230  -29.4590   22.5190 C   0  0  0  0  0  0  0  0  0  0  0  0
  -21.3980  -29.2810   22.3830 N   0  0  0  0  0  0  0  0  0  0  0  0
  -23.3950  -28.8330   23.3420 O   0  0  0  0  0  0  0  0  0  0  0  0
  -20.9130  -29.8410   21.6950 H   0  0  0  0  0  0  0  0  0  0  0  0
  -18.0150  -28.0900   22.8680 C   0  0  0  0  0  0  0  0  0  0  0  0
  -20.5730  -28.3400   23.1450 C   0  0  0  0  0  3  0  0  0  0  0  0
  -20.6720  -26.9120   22.5600 C   0  0  0  0  0  2  0  0  0  0  0  0
  -19.5720  -26.6010   21.5400 C   0  0  0  0  0  2  0  0  0  0  0  0
  -18.1890  -26.7450   22.1820 C   0  0  0  0  0  2  0  0  0  0  0  0
  -19.1350  -28.8460   23.3060 C   0  0  0  0  0  0  0  0  0  0  0  0
  -18.9180  -30.1050   23.9070 C   0  0  0  0  0  3  0  0  0  0  0  0
  -17.6140  -30.6080   24.0740 C   0  0  0  0  0  3  0  0  0  0  0  0
  -16.5090  -29.8490   23.6530 C   0  0  0  0  0  3  0  0  0  0  0  0
  -16.7090  -28.5910   23.0550 C   0  0  0  0  0  3  0  0  0  0  0  0
  -25.8470  -32.5180   23.8550 C   0  0  0  0  0  3  0  0  0  0  0  0
  -25.5310  -33.9180   24.1770 N   0  0  0  0  0  0  0  0  0  0  0  0
  -25.8740  -34.9690   23.4190 C   0  0  0  0  0  0  0  0  0  0  0  0
  -26.5570  -34.8620   22.3970 O   0  0  0  0  0  0  0  0  0  0  0  0
  -24.9260  -34.0750   24.9680 H   0  0  0  0  0  0  0  0  0  0  0  0
  -24.1570  -36.7660   23.0280 C   0  0  0  0  0  1  0  0  0  0  0  0
  -25.3810  -36.3590   23.8660 C   0  0  0  0  0  3  0  0  0  0  0  0
  -27.4980  -37.2410   24.7400 C   0  0  0  0  0  1  0  0  0  0  0  0
  -26.4160  -37.4100   23.7740 N   0  0  0  0  0  0  0  0  0  0  0  0
  -26.0100  -38.3310   23.9100 H   0  0  0  0  0  0  0  0  0  0  0  0
  -26.3460  -31.7550   25.1440 C   0  0  1  0  0  0  0  0  0  0  0  0
  -25.2390  -31.5240   26.1990 C   0  0  0  0  0  1  0  0  0  0  0  0
  -26.9360  -30.3760   24.7690 C   0  0  0  0  0  1  0  0  0  0  0  0
  -27.4860  -32.5550   25.8180 C   0  0  0  0  0  1  0  0  0  0  0  0
  2  3  2  0
  2  5  1  0
  3  6  1  0
  5  7  1  0
  5  4  2  0
  6  1  1  0
  6  4  1  0
  8 16  1  0
  9 14  1  0
 10 11  1  0
 10  9  1  0
 12 11  1  0
 12 21  1  0
 12 13  1  0
 14  8  1  0
 14 13  1  0
 15  8  2  0
 16 17  1  0
 16  7  1  0
 18 19  2  0
 19 38  1  0
 20 19  1  0
 20 23  1  0
 21 18  1  0
 21 22  1  0
 22 20  2  0
 23 24  1  0
 24 25  2  0
 26 29  1  0
 26 25  1  0
 27 26  2  0
 28 27  1  0
 28 23  2  0
 29 30  1  0
 30 31  1  0
 31 32  2  0
 33 32  1  0
 33 37  1  0
 34 33  2  0
 35 30  2  0
 35 34  1  0
 36 35  1  0
 38 39  1  0
 39 42  1  0
 39 41  1  0
 40 38  2  0
 43 44  1  0
 43 18  1  0
 45 43  1  0
 46 48  1  0
 46 49  1  0
 46  1  1  0
 47 48  1  0
 50 49  1  0
 51 62  2  0
 52 50  1  0
 52 57  1  0
 53 61  1  0
 53 63  1  0
 54 60  1  0
 54 56  1  0
 55 61  1  0
 56 57  2  0
 56 55  1  0
 58 52  2  0
 59 58  1  0
 59 54  2  0
 60 53  1  0
 61 51  1  0
 63 65  2  0
 64 63  1  0
 66 64  1  0
 67 76  2  0
 67 72  1  0
 68 64  1  0
 68 72  1  0
 69 68  1  0
 70 71  1  0
 70 69  1  0
 71 67  1  0
 72 73  2  0
 73 74  1  0
 75 74  2  0
 76 75  1  0
 77 51  1  0
 77 78  1  0
 77 87  1  0
 78 81  1  0
 79 83  1  0
 79 78  1  0
 80 79  2  0
 83 82  1  0
 85 83  1  0
 85 86  1  0
 85 84  1  0
 87 90  1  1
 87 88  1  0
 89 87  1  0
M  ISO  4   8 100  16 100  49 101  50 101
M  END
>  <TORSDO>  (35) 
F 21

>  <SCORE>  (35) 
-13.502

>  <name>  (35) 
35

>  <ligand_id>  (35) 
35

>  <original_smiles>  (35) 
[H]c1c([H])c([H])c2c(c1[H])C([H])([H])C([H])([H])C([H])([H])C2([H])N([H])C(=O)C1([H])N(C(=O)C([H])(N([H])C(=O)C([H])(N([H])C([H])([H])[H])C([H])([H])[H])C(C([H])([H])[H])(C([H])([H])[H])C([H])([H])[H])C([H])([H])c2c([H])c(OC([H])([H])C([H])(C([H])([H])n3c([H])c([H])c(C([H])([H])N([H])C(=O)N4C([H])([H])C([H])([H])C([H])([H])C([H])(n5nc(-c6c([H])c([H])c(Oc7c([H])c([H])c(F)c([H])c7F)c([H])c6[H])c(C(=O)N([H])[H])c5N([H])[H])C4([H])[H])c3[H])C([H])([H])C([H])([H])[H])c([H])c([H])c2C1([H])[H]

>  <smiles>  (35) 
[H]c1c([H])c([H])c2c(c1[H])C([H])([H])C([H])([H])C([H])([H])C2([H])N([H])C(=O)C1([H])N(C(=O)C([H])(N([H])C(=O)C([H])(N([H])C([H])([H])[H])C([H])([H])[H])C(C([H])([H])[H])(C([H])([H])[H])C([H])([H])[H])C([H])([H])c2c([H])c(OC([H])([H])C([H])(C([H])([H])n3c([H])c([H])c(C([H])([H])N([H])C(=O)N4C([H])([H])C([H])([H])C([H])([H])C([H])(n5nc(-c6c([H])c([H])c(Oc7c([H])c([H])c(F)c([H])c7F)c([H])c6[H])c(C(=O)N([H])[H])c5N([H])[H])C4([H])[H])c3[H])C([H])([H])C([H])([H])[H])c([H])c([H])c2C1([H])[H]

$$$$
36:0:0
     RDKit          3D

 85 89  0  0  1  0  0  0  0  0999 V2000
  -28.2830  -23.2920   21.9790 C   0  0  0  0  0  1  0  0  0  0  0  0
  -28.1810  -23.3200   20.4540 C   0  0  0  0  0  1  0  0  0  0  0  0
  -30.4090  -21.8350   19.6600 C   0  0  0  0  0  1  0  0  0  0  0  0
  -28.2570  -21.1770   18.5860 C   0  0  0  0  0  1  0  0  0  0  0  0
  -28.9560  -21.4250   19.9290 C   0  0  0  0  0  2  0  0  0  0  0  0
  -29.3130  -19.4430   20.5360 C   0  0  0  0  0  1  0  0  0  0  0  0
  -30.2200  -16.1180   20.1040 C   0  0  0  0  0  0  0  0  0  0  0  0
  -30.4260  -13.4970   19.2600 C   0  0  0  0  0  2  0  0  0  0  0  0
  -29.5580  -12.9100   18.1000 C   0  0  0  0  0  2  0  0  0  0  0  0
  -28.1780  -12.4610   18.5990 C   0  0  0  0  0  2  0  0  0  0  0  0
  -27.6260  -13.4700   19.6250 C   0  0  0  0  0  3  0  0  0  0  0  0
  -28.6520  -13.9400   20.6900 C   0  0  0  0  0  2  0  0  0  0  0  0
  -29.7320  -14.6960   19.9760 N   0  0  0  0  0  0  0  0  0  0  0  0
  -31.4640  -15.9880   20.0350 O   0  0  0  0  0  0  0  0  0  0  0  0
  -29.4570  -17.5790   20.1180 N   0  0  0  0  0  0  0  0  0  0  0  0
  -28.5010  -17.3020   19.9440 H   0  0  0  0  0  0  0  0  0  0  0  0
  -25.2850  -13.9380   20.4650 C   0  0  0  0  0  0  0  0  0  0  0  0
  -24.2480  -13.1400   20.8480 C   0  0  0  0  0  0  0  0  0  0  0  0
  -24.7370  -11.7980   20.7920 C   0  0  0  0  0  0  0  0  0  0  0  0
  -26.3360  -13.0880   20.1840 N   0  0  0  0  0  0  0  0  0  0  0  0
  -26.0230  -11.7900   20.4450 N   0  0  0  0  0  0  0  0  0  0  0  0
  -24.0260  -10.5250   20.9840 C   0  0  0  0  0  0  0  0  0  0  0  0
  -24.4700   -9.5610   21.9140 C   0  0  0  0  0  3  0  0  0  0  0  0
  -23.7520   -8.3590   22.1010 C   0  0  0  0  0  3  0  0  0  0  0  0
  -22.5730   -8.1120   21.3560 C   0  0  0  0  0  0  0  0  0  0  0  0
  -22.1480   -9.0650   20.4150 C   0  0  0  0  0  3  0  0  0  0  0  0
  -22.8690  -10.2560   20.2250 C   0  0  0  0  0  3  0  0  0  0  0  0
  -21.8280   -6.9610   21.4510 O   0  0  0  0  0  0  0  0  0  0  0  0
  -21.7770   -6.2280   22.6110 C   0  0  0  0  0  0  0  0  0  0  0  0
  -21.3300   -6.7880   23.8270 C   0  0  0  0  0  3  0  0  0  0  0  0
  -21.2270   -5.9810   24.9780 C   0  0  0  0  0  3  0  0  0  0  0  0
  -21.5630   -4.6160   24.9140 C   0  0  0  0  0  0  0  0  0  0  0  0
  -22.0050   -4.0560   23.7030 C   0  0  0  0  0  3  0  0  0  0  0  0
  -22.1090   -4.8590   22.5540 C   0  0  0  0  0  0  0  0  0  0  0  0
  -22.5150   -4.3090   21.3840 F   0  0  0  0  0  0  0  0  0  0  0  0
  -21.4580   -3.8390   26.0180 F   0  0  0  0  0  0  0  0  0  0  0  0
  -22.8500  -13.5980   21.1440 C   0  0  0  0  0  0  0  0  0  0  0  0
  -22.1430  -12.8880   22.0140 N   0  0  0  0  0  0  0  0  0  0  0  0
  -22.3960  -14.6240   20.6390 O   0  0  0  0  0  0  0  0  0  0  0  0
  -22.5250  -12.0600   22.4470 H   0  0  0  0  0  0  0  0  0  0  0  0
  -21.2050  -13.1770   22.2530 H   0  0  0  0  0  0  0  0  0  0  0  0
  -25.4180  -15.3140   20.2970 N   0  0  0  0  0  0  0  0  0  0  0  0
  -24.6390  -15.9520   20.4330 H   0  0  0  0  0  0  0  0  0  0  0  0
  -26.2450  -15.7680   19.9320 H   0  0  0  0  0  0  0  0  0  0  0  0
  -28.1940  -25.2100   20.2410 O   0  0  0  0  0  1  0  0  0  0  0  0
  -24.6570  -31.8300   23.1620 C   0  0  0  0  0  0  0  0  0  0  0  0
  -27.2210  -26.5210   20.2660 C   0  0  0  0  0  0  0  0  0  0  0  0
  -23.4940  -30.4010   21.5400 C   0  0  0  0  0  3  0  0  0  0  0  0
  -24.9590  -28.6980   20.1700 C   0  0  0  0  0  0  0  0  0  0  0  0
  -26.0840  -30.4910   21.4520 C   0  0  0  0  0  2  0  0  0  0  0  0
  -26.1580  -29.0230   20.8130 C   0  0  0  0  0  0  0  0  0  0  0  0
  -27.2630  -27.9740   20.8130 C   0  0  0  0  0  3  0  0  0  0  0  0
  -25.9780  -26.4740   19.5600 C   0  0  0  0  0  3  0  0  0  0  0  0
  -24.9230  -27.4520   19.5150 C   0  0  0  0  0  3  0  0  0  0  0  0
  -23.7570  -29.6730   20.1880 C   0  0  0  0  0  2  0  0  0  0  0  0
  -24.7720  -30.9490   22.1020 N   0  0  0  0  0  0  0  0  0  0  0  0
  -23.5540  -32.1360   23.6540 O   0  0  0  0  0  0  0  0  0  0  0  0
  -22.7590  -29.4500   22.5250 C   0  0  0  0  0  0  0  0  0  0  0  0
  -21.4230  -29.3060   22.4090 N   0  0  0  0  0  0  0  0  0  0  0  0
  -23.4080  -28.8360   23.3750 O   0  0  0  0  0  0  0  0  0  0  0  0
  -20.9460  -29.8530   21.7060 H   0  0  0  0  0  0  0  0  0  0  0  0
  -18.0340  -28.0890   22.9520 C   0  0  0  0  0  0  0  0  0  0  0  0
  -20.5960  -28.3730   23.1890 C   0  0  0  0  0  3  0  0  0  0  0  0
  -20.6950  -26.9360   22.6250 C   0  0  0  0  0  2  0  0  0  0  0  0
  -19.5890  -26.6040   21.6190 C   0  0  0  0  0  2  0  0  0  0  0  0
  -18.2120  -26.7410   22.2730 C   0  0  0  0  0  2  0  0  0  0  0  0
  -19.1520  -28.8630   23.3670 C   0  0  0  0  0  0  0  0  0  0  0  0
  -18.9270  -30.1170   23.9720 C   0  0  0  0  0  3  0  0  0  0  0  0
  -17.6180  -30.6040   24.1580 C   0  0  0  0  0  3  0  0  0  0  0  0
  -16.5160  -29.8310   23.7520 C   0  0  0  0  0  3  0  0  0  0  0  0
  -16.7250  -28.5750   23.1570 C   0  0  0  0  0  3  0  0  0  0  0  0
  -25.9010  -32.5110   23.8100 C   0  0  0  0  0  3  0  0  0  0  0  0
  -25.5540  -33.9130   24.1350 N   0  0  0  0  0  0  0  0  0  0  0  0
  -25.8870  -34.9860   23.4040 C   0  0  0  0  0  0  0  0  0  0  0  0
  -26.5680  -34.9010   22.3800 O   0  0  0  0  0  0  0  0  0  0  0  0
  -24.9460  -34.0490   24.9290 H   0  0  0  0  0  0  0  0  0  0  0  0
  -24.1510  -36.7870   23.0720 C   0  0  0  0  0  1  0  0  0  0  0  0
  -25.3920  -36.3710   23.8790 C   0  0  0  0  0  3  0  0  0  0  0  0
  -27.5170  -37.2690   24.7300 C   0  0  0  0  0  1  0  0  0  0  0  0
  -26.4180  -37.4340   23.7810 N   0  0  0  0  0  0  0  0  0  0  0  0
  -26.0050  -38.3500   23.9290 H   0  0  0  0  0  0  0  0  0  0  0  0
  -26.3920  -31.7770   25.1200 C   0  0  1  0  0  0  0  0  0  0  0  0
  -25.2780  -31.5580   26.1740 C   0  0  0  0  0  1  0  0  0  0  0  0
  -26.9920  -30.3940   24.7930 C   0  0  0  0  0  1  0  0  0  0  0  0
  -27.5250  -32.5950   25.7850 C   0  0  0  0  0  1  0  0  0  0  0  0
  2  1  1  0
  3  5  1  0
  4  5  1  0
  7 15  1  0
  8 13  1  0
  9 10  1  0
  9  8  1  0
 11 10  1  0
 11 20  1  0
 11 12  1  0
 13  7  1  0
 13 12  1  0
 14  7  2  0
 15  6  1  0
 16 15  1  0
 17 18  2  0
 18 37  1  0
 19 18  1  0
 19 22  1  0
 20 21  1  0
 20 17  1  0
 21 19  2  0
 22 23  1  0
 23 24  2  0
 25 28  1  0
 25 24  1  0
 26 25  2  0
 27 26  1  0
 27 22  2  0
 28 29  1  0
 29 30  1  0
 30 31  2  0
 32 31  1  0
 32 36  1  0
 33 32  2  0
 34 29  2  0
 34 33  1  0
 35 34  1  0
 37 38  1  0
 38 41  1  0
 38 40  1  0
 39 37  2  0
 42 43  1  0
 42 17  1  0
 44 42  1  0
 45 47  1  0
 46 57  2  0
 47 52  1  0
 48 56  1  0
 48 58  1  0
 49 55  1  0
 49 51  1  0
 50 56  1  0
 51 50  1  0
 52 51  2  0
 53 47  2  0
 54 53  1  0
 54 49  2  0
 55 48  1  0
 56 46  1  0
 58 60  2  0
 59 58  1  0
 61 59  1  0
 62 71  2  0
 62 67  1  0
 63 59  1  0
 63 67  1  0
 64 63  1  0
 65 66  1  0
 65 64  1  0
 66 62  1  0
 67 68  2  0
 68 69  1  0
 70 69  2  0
 71 70  1  0
 72 46  1  0
 72 73  1  0
 72 82  1  0
 73 76  1  0
 74 78  1  0
 74 73  1  0
 75 74  2  0
 78 77  1  0
 80 78  1  0
 80 81  1  0
 80 79  1  0
 82 85  1  1
 82 83  1  0
 84 82  1  0
M  ISO  4   2 101   7 100  15 100  45 101
M  END
>  <TORSDO>  (36) 
F 18

>  <SCORE>  (36) 
-16.202

>  <name>  (36) 
36

>  <ligand_id>  (36) 
36

>  <original_smiles>  (36) 
[H]c1c([H])c([H])c2c(c1[H])C([H])([H])C([H])([H])C([H])([H])C2([H])N([H])C(=O)C1([H])N(C(=O)C([H])(N([H])C(=O)C([H])(N([H])C([H])([H])[H])C([H])([H])[H])C(C([H])([H])[H])(C([H])([H])[H])C([H])([H])[H])C([H])([H])c2c([H])c(OC([H])(C([H])([H])[H])C(C([H])([H])[H])(C([H])([H])[H])C([H])([H])N([H])C(=O)N3C([H])([H])C([H])([H])C([H])([H])C([H])(n4nc(-c5c([H])c([H])c(Oc6c([H])c([H])c(F)c([H])c6F)c([H])c5[H])c(C(=O)N([H])[H])c4N([H])[H])C3([H])[H])c([H])c([H])c2C1([H])[H]

>  <smiles>  (36) 
[H]c1c([H])c([H])c2c(c1[H])C([H])([H])C([H])([H])C([H])([H])C2([H])N([H])C(=O)C1([H])N(C(=O)C([H])(N([H])C(=O)C([H])(N([H])C([H])([H])[H])C([H])([H])[H])C(C([H])([H])[H])(C([H])([H])[H])C([H])([H])[H])C([H])([H])c2c([H])c(OC([H])(C([H])([H])[H])C(C([H])([H])[H])(C([H])([H])[H])C([H])([H])N([H])C(=O)N3C([H])([H])C([H])([H])C([H])([H])C([H])(n4nc(-c5c([H])c([H])c(Oc6c([H])c([H])c(F)c([H])c6F)c([H])c5[H])c(C(=O)N([H])[H])c4N([H])[H])C3([H])[H])c([H])c([H])c2C1([H])[H]

$$$$
37:0:0
     RDKit          3D

 82 86  0  0  1  0  0  0  0  0999 V2000
  -28.2030  -25.2140   20.1870 O   0  0  0  0  0  1  0  0  0  0  0  0
  -24.6590  -31.8230   23.1160 C   0  0  0  0  0  0  0  0  0  0  0  0
  -27.2270  -26.5180   20.2190 C   0  0  0  0  0  0  0  0  0  0  0  0
  -23.5030  -30.4040   21.4840 C   0  0  0  0  0  3  0  0  0  0  0  0
  -24.9680  -28.6960   20.1210 C   0  0  0  0  0  0  0  0  0  0  0  0
  -26.0920  -30.4850   21.4080 C   0  0  0  0  0  2  0  0  0  0  0  0
  -26.1660  -29.0180   20.7700 C   0  0  0  0  0  0  0  0  0  0  0  0
  -27.2690  -27.9690   20.7710 C   0  0  0  0  0  3  0  0  0  0  0  0
  -25.9850  -26.4690   19.5130 C   0  0  0  0  0  3  0  0  0  0  0  0
  -24.9320  -27.4500   19.4670 C   0  0  0  0  0  3  0  0  0  0  0  0
  -23.7680  -29.6710   20.1330 C   0  0  0  0  0  2  0  0  0  0  0  0
  -24.7790  -30.9440   22.0540 N   0  0  0  0  0  0  0  0  0  0  0  0
  -23.5550  -32.1300   23.6020 O   0  0  0  0  0  0  0  0  0  0  0  0
  -22.7610  -29.4600   22.4680 C   0  0  0  0  0  0  0  0  0  0  0  0
  -21.4220  -29.3490   22.3610 N   0  0  0  0  0  0  0  0  0  0  0  0
  -23.4040  -28.8170   23.3000 O   0  0  0  0  0  0  0  0  0  0  0  0
  -20.9470  -29.9240   21.6780 H   0  0  0  0  0  0  0  0  0  0  0  0
  -18.0030  -28.1330   22.8590 C   0  0  0  0  0  0  0  0  0  0  0  0
  -20.5950  -28.3830   23.0970 C   0  0  0  0  0  0  0  0  0  0  0  0
  -20.7720  -26.9760   22.4620 C   0  0  0  0  0  3  0  0  0  0  0  0
  -19.5380  -26.4150   21.7220 C   0  0  0  0  0  3  0  0  0  0  0  0
  -18.0990  -26.8440   22.0560 C   0  0  0  0  0  3  0  0  0  0  0  0
  -19.1450  -28.8670   23.2920 C   0  0  0  0  0  0  0  0  0  0  0  0
  -18.9400  -30.1130   23.9270 C   0  0  0  0  0  3  0  0  0  0  0  0
  -17.6430  -30.6230   24.1300 C   0  0  0  0  0  3  0  0  0  0  0  0
  -16.5250  -29.8800   23.7210 C   0  0  0  0  0  3  0  0  0  0  0  0
  -16.7080  -28.6360   23.0960 C   0  0  0  0  0  3  0  0  0  0  0  0
  -25.9010  -32.4970   23.7720 C   0  0  0  0  0  3  0  0  0  0  0  0
  -25.5540  -33.8960   24.1020 N   0  0  0  0  0  0  0  0  0  0  0  0
  -25.8860  -34.9730   23.3740 C   0  0  0  0  0  0  0  0  0  0  0  0
  -26.5670  -34.8910   22.3500 O   0  0  0  0  0  0  0  0  0  0  0  0
  -24.9460  -34.0310   24.8960 H   0  0  0  0  0  0  0  0  0  0  0  0
  -24.1500  -36.7720   23.0460 C   0  0  0  0  0  1  0  0  0  0  0  0
  -25.3900  -36.3550   23.8530 C   0  0  0  0  0  3  0  0  0  0  0  0
  -27.5120  -37.2520   24.7100 C   0  0  0  0  0  1  0  0  0  0  0  0
  -26.4160  -37.4190   23.7590 N   0  0  0  0  0  0  0  0  0  0  0  0
  -26.0000  -38.3340   23.9110 H   0  0  0  0  0  0  0  0  0  0  0  0
  -26.3860  -31.7540   25.0790 C   0  0  1  0  0  0  0  0  0  0  0  0
  -25.2660  -31.5290   26.1240 C   0  0  0  0  0  1  0  0  0  0  0  0
  -26.9880  -30.3730   24.7440 C   0  0  0  0  0  1  0  0  0  0  0  0
  -27.5140  -32.5680   25.7560 C   0  0  0  0  0  1  0  0  0  0  0  0
  -28.2300  -23.3320   20.4390 C   0  0  0  0  0 15  0  0  0  0  0  0
  -28.7870  -21.3790   19.8640 C   0  0  0  0  0 15  0  0  0  0  0  0
  -29.3980  -19.4400   20.4120 C   0  0  0  0  0  1  0  0  0  0  0  0
  -30.1690  -16.0920   20.0360 C   0  0  0  0  0  0  0  0  0  0  0  0
  -30.3590  -13.4710   19.1990 C   0  0  0  0  0  2  0  0  0  0  0  0
  -29.4770  -12.8700   18.0550 C   0  0  0  0  0  2  0  0  0  0  0  0
  -28.1030  -12.4290   18.5740 C   0  0  0  0  0  2  0  0  0  0  0  0
  -27.5630  -13.4490   19.5940 C   0  0  0  0  0  3  0  0  0  0  0  0
  -28.6020  -13.9210   20.6470 C   0  0  0  0  0  2  0  0  0  0  0  0
  -29.6750  -14.6720   19.9180 N   0  0  0  0  0  0  0  0  0  0  0  0
  -31.4150  -15.9560   19.9590 O   0  0  0  0  0  0  0  0  0  0  0  0
  -29.4220  -17.5600   20.0550 N   0  0  0  0  0  0  0  0  0  0  0  0
  -28.4530  -17.3130   19.9040 H   0  0  0  0  0  0  0  0  0  0  0  0
  -25.2310  -13.9310   20.4500 C   0  0  0  0  0  0  0  0  0  0  0  0
  -24.1900  -13.1380   20.8360 C   0  0  0  0  0  0  0  0  0  0  0  0
  -24.6710  -11.7930   20.7770 C   0  0  0  0  0  0  0  0  0  0  0  0
  -26.2760  -13.0750   20.1660 N   0  0  0  0  0  0  0  0  0  0  0  0
  -25.9570  -11.7790   20.4270 N   0  0  0  0  0  0  0  0  0  0  0  0
  -23.9560  -10.5240   20.9740 C   0  0  0  0  0  0  0  0  0  0  0  0
  -24.4050   -9.5560   21.8990 C   0  0  0  0  0  3  0  0  0  0  0  0
  -23.6830   -8.3560   22.0890 C   0  0  0  0  0  3  0  0  0  0  0  0
  -22.4960   -8.1180   21.3550 C   0  0  0  0  0  0  0  0  0  0  0  0
  -22.0660   -9.0740   20.4200 C   0  0  0  0  0  3  0  0  0  0  0  0
  -22.7890  -10.2650   20.2280 C   0  0  0  0  0  3  0  0  0  0  0  0
  -21.7460   -6.9710   21.4550 O   0  0  0  0  0  0  0  0  0  0  0  0
  -21.7090   -6.2310   22.6100 C   0  0  0  0  0  0  0  0  0  0  0  0
  -21.2840   -6.7860   23.8360 C   0  0  0  0  0  3  0  0  0  0  0  0
  -21.1960   -5.9730   24.9840 C   0  0  0  0  0  3  0  0  0  0  0  0
  -21.5230   -4.6050   24.9060 C   0  0  0  0  0  0  0  0  0  0  0  0
  -21.9420   -4.0500   23.6840 C   0  0  0  0  0  3  0  0  0  0  0  0
  -22.0320   -4.8600   22.5390 C   0  0  0  0  0  0  0  0  0  0  0  0
  -22.4140   -4.3150   21.3590 F   0  0  0  0  0  0  0  0  0  0  0  0
  -21.4320   -3.8220   26.0060 F   0  0  0  0  0  0  0  0  0  0  0  0
  -22.7960  -13.6030   21.1400 C   0  0  0  0  0  0  0  0  0  0  0  0
  -22.0920  -12.8960   22.0160 N   0  0  0  0  0  0  0  0  0  0  0  0
  -22.3430  -14.6300   20.6380 O   0  0  0  0  0  0  0  0  0  0  0  0
  -22.4740  -12.0650   22.4440 H   0  0  0  0  0  0  0  0  0  0  0  0
  -21.1580  -13.1890   22.2630 H   0  0  0  0  0  0  0  0  0  0  0  0
  -25.3710  -15.3060   20.2780 N   0  0  0  0  0  0  0  0  0  0  0  0
  -24.5980  -15.9490   20.4140 H   0  0  0  0  0  0  0  0  0  0  0  0
  -26.2020  -15.7550   19.9170 H   0  0  0  0  0  0  0  0  0  0  0  0
  1  3  1  0
  2 13  2  0
  3  8  1  0
  4 12  1  0
  4 14  1  0
  5 11  1  0
  5  7  1  0
  6 12  1  0
  7  8  2  0
  7  6  1  0
  9  3  2  0
 10  9  1  0
 10  5  2  0
 11  4  1  0
 12  2  1  0
 14 16  2  0
 15 14  1  0
 15 19  1  0
 17 15  1  0
 18 27  2  0
 18 23  1  0
 19 23  1  0
 20 19  2  0
 21 22  2  0
 21 20  1  0
 22 18  1  0
 23 24  2  0
 24 25  1  0
 26 25  2  0
 27 26  1  0
 28  2  1  0
 28 29  1  0
 28 38  1  0
 29 32  1  0
 30 34  1  0
 30 29  1  0
 31 30  2  0
 34 33  1  0
 36 34  1  0
 36 37  1  0
 36 35  1  0
 38 41  1  1
 38 39  1  0
 40 38  1  0
 45 53  1  0
 46 51  1  0
 47 48  1  0
 47 46  1  0
 49 48  1  0
 49 58  1  0
 49 50  1  0
 51 45  1  0
 51 50  1  0
 52 45  2  0
 53 44  1  0
 54 53  1  0
 55 56  2  0
 56 75  1  0
 57 56  1  0
 57 60  1  0
 58 59  1  0
 58 55  1  0
 59 57  2  0
 60 61  1  0
 61 62  2  0
 63 66  1  0
 63 62  1  0
 64 63  2  0
 65 64  1  0
 65 60  2  0
 66 67  1  0
 67 68  1  0
 68 69  2  0
 70 69  1  0
 70 74  1  0
 71 70  2  0
 72 67  2  0
 72 71  1  0
 73 72  1  0
 75 76  1  0
 76 79  1  0
 76 78  1  0
 77 75  2  0
 80 81  1  0
 80 55  1  0
 82 80  1  0
M  ISO  4   1 101  42 101  45 100  53 100
M  END
>  <TORSDO>  (37) 
F 18

>  <SCORE>  (37) 
-16.165

>  <name>  (37) 
37

>  <ligand_id>  (37) 
37

>  <original_smiles>  (37) 
[H]c1c([H])c([H])c2c(c1[H])C([H])([H])C([H])([H])C([H])([H])C2([H])N([H])C(=O)C1([H])N(C(=O)C([H])(N([H])C(=O)C([H])(N([H])C([H])([H])[H])C([H])([H])[H])C(C([H])([H])[H])(C([H])([H])[H])C([H])([H])[H])C([H])([H])c2c([H])c(OC([H])([H])C([H])([H])C([H])([H])N([H])C(=O)N3C([H])([H])C([H])([H])C([H])([H])C([H])(n4nc(-c5c([H])c([H])c(Oc6c([H])c([H])c(F)c([H])c6F)c([H])c5[H])c(C(=O)N([H])[H])c4N([H])[H])C3([H])[H])c([H])c([H])c2C1([H])[H]

>  <smiles>  (37) 
[H]c1c([H])c([H])c2c(c1[H])C([H])([H])C([H])([H])C([H])([H])C2([H])N([H])C(=O)C1([H])N(C(=O)C([H])(N([H])C(=O)C([H])(N([H])C([H])([H])[H])C([H])([H])[H])C(C([H])([H])[H])(C([H])([H])[H])C([H])([H])[H])C([H])([H])c2c([H])c(OC([H])([H])C([H])([H])C([H])([H])N([H])C(=O)N3C([H])([H])C([H])([H])C([H])([H])C([H])(n4nc(-c5c([H])c([H])c(Oc6c([H])c([H])c(F)c([H])c6F)c([H])c5[H])c(C(=O)N([H])[H])c4N([H])[H])C3([H])[H])c([H])c([H])c2C1([H])[H]

$$$$
38:0:0
     RDKit          3D

 95103  0  0  1  0  0  0  0  0999 V2000
  -30.3750  -21.3020   21.6910 C   0  0  0  0  0  3  0  0  0  0  0  0
  -29.8220  -21.3060   20.3810 C   0  0  0  0  0  0  0  0  0  0  0  0
  -30.9280  -20.0800   21.9530 C   0  0  0  0  0  0  0  0  0  0  0  0
  -30.0840  -20.0590   19.8630 C   0  0  0  0  0  0  0  0  0  0  0  0
  -29.7360  -19.5140   18.5110 C   0  0  0  0  0  1  0  0  0  0  0  0
  -30.7350  -19.2810   20.8270 N   0  0  0  0  0  0  0  0  0  0  0  0
  -30.5330  -19.0540   24.2030 C   0  0  0  0  0  1  0  0  0  0  0  0
  -32.3850  -20.7350   23.9000 C   0  0  0  0  0  1  0  0  0  0  0  0
  -31.5790  -19.6160   23.2270 C   0  0  0  0  0  3  0  0  0  0  0  0
  -27.5490  -22.1800   19.8610 C   0  0  0  0  0  1  0  0  0  0  0  0
  -29.0580  -22.4490   19.7130 C   0  0  0  0  0  3  0  0  0  0  0  0
  -29.4620  -23.8410   20.2640 C   0  0  0  0  0  2  0  0  0  0  0  0
  -29.2130  -25.0740   19.3560 C   0  0  0  0  0  2  0  0  0  0  0  0
  -27.7580  -25.5730   19.2140 C   0  0  0  0  0  2  0  0  0  0  0  0
  -27.7840  -26.9940   19.0410 O   0  0  0  0  0  0  0  0  0  0  0  0
  -24.4220  -31.7440   23.1160 C   0  0  0  0  0  0  0  0  0  0  0  0
  -26.6130  -27.6860   19.2590 C   0  0  0  0  0  0  0  0  0  0  0  0
  -23.0040  -30.5420   21.4810 C   0  0  0  0  0  3  0  0  0  0  0  0
  -24.2540  -29.1770   19.7250 C   0  0  0  0  0  0  0  0  0  0  0  0
  -25.4970  -30.9120   21.0310 C   0  0  0  0  0  2  0  0  0  0  0  0
  -25.4800  -29.6290   20.2290 C   0  0  0  0  0  0  0  0  0  0  0  0
  -26.6600  -28.8900   19.9940 C   0  0  0  0  0  3  0  0  0  0  0  0
  -25.3690  -27.2430   18.7540 C   0  0  0  0  0  3  0  0  0  0  0  0
  -24.1940  -27.9840   18.9850 C   0  0  0  0  0  3  0  0  0  0  0  0
  -23.0370  -30.0230   20.0200 C   0  0  0  0  0  2  0  0  0  0  0  0
  -24.3310  -31.0750   21.9320 N   0  0  0  0  0  0  0  0  0  0  0  0
  -23.4180  -31.9590   23.8110 O   0  0  0  0  0  0  0  0  0  0  0  0
  -22.4550  -29.4190   22.3920 C   0  0  0  0  0  0  0  0  0  0  0  0
  -21.1430  -29.1520   22.2870 N   0  0  0  0  0  0  0  0  0  0  0  0
  -23.2050  -28.7940   23.1450 O   0  0  0  0  0  0  0  0  0  0  0  0
  -20.5920  -29.7110   21.6510 H   0  0  0  0  0  0  0  0  0  0  0  0
  -17.8950  -27.6310   22.7230 C   0  0  0  0  0  0  0  0  0  0  0  0
  -20.4170  -28.1110   23.0160 C   0  0  0  0  0  3  0  0  0  0  0  0
  -20.6550  -26.7220   22.3810 C   0  0  0  0  0  2  0  0  0  0  0  0
  -19.5860  -26.3390   21.3510 C   0  0  0  0  0  2  0  0  0  0  0  0
  -18.1950  -26.3320   21.9910 C   0  0  0  0  0  2  0  0  0  0  0  0
  -18.9380  -28.4750   23.1860 C   0  0  0  0  0  0  0  0  0  0  0  0
  -18.6040  -29.6910   23.8230 C   0  0  0  0  0  3  0  0  0  0  0  0
  -17.2600  -30.0640   24.0060 C   0  0  0  0  0  3  0  0  0  0  0  0
  -16.2320  -29.2160   23.5620 C   0  0  0  0  0  3  0  0  0  0  0  0
  -16.5480  -28.0020   22.9250 C   0  0  0  0  0  3  0  0  0  0  0  0
  -25.7850  -32.2940   23.6420 C   0  0  0  0  0  3  0  0  0  0  0  0
  -25.5720  -33.6900   24.0490 N   0  0  0  0  0  0  0  0  0  0  0  0
  -25.8960  -34.7570   23.3070 C   0  0  0  0  0  0  0  0  0  0  0  0
  -26.4800  -34.6670   22.2250 O   0  0  0  0  0  0  0  0  0  0  0  0
  -25.0650  -33.8390   24.9090 H   0  0  0  0  0  0  0  0  0  0  0  0
  -24.2340  -36.6380   23.1500 C   0  0  0  0  0  1  0  0  0  0  0  0
  -25.5080  -36.1450   23.8510 C   0  0  0  0  0  3  0  0  0  0  0  0
  -27.7280  -36.9060   24.5690 C   0  0  0  0  0  1  0  0  0  0  0  0
  -26.5770  -37.1540   23.7040 N   0  0  0  0  0  0  0  0  0  0  0  0
  -26.2230  -38.0860   23.9070 H   0  0  0  0  0  0  0  0  0  0  0  0
  -26.3820  -31.4490   24.8360 C   0  0  1  0  0  0  0  0  0  0  0  0
  -25.3670  -31.1760   25.9700 C   0  0  0  0  0  1  0  0  0  0  0  0
  -26.9070  -30.0830   24.3310 C   0  0  0  0  0  1  0  0  0  0  0  0
  -27.6010  -32.1880   25.4410 C   0  0  0  0  0  1  0  0  0  0  0  0
  -31.1780  -17.8840   20.6390 C   0  0  0  0  0  2  0  0  0  0  0  0
  -30.6110  -16.8770   21.6750 C   0  0  0  0  0  2  0  0  0  0  0  0
  -30.7400  -14.7400   20.2700 C   0  0  0  0  0  0  0  0  0  0  0  0
  -30.4830  -12.5520   19.1410 C   0  0  0  0  0  2  0  0  0  0  0  0
  -29.4870  -12.6310   17.9690 C   0  0  0  0  0  2  0  0  0  0  0  0
  -28.0360  -12.4450   18.4560 C   0  0  0  0  0  2  0  0  0  0  0  0
  -27.6980  -13.3450   19.6730 C   0  0  0  0  0  3  0  0  0  0  0  0
  -28.7890  -13.2110   20.7540 C   0  0  0  0  0  2  0  0  0  0  0  0
  -30.0920  -13.5520   20.1440 N   0  0  0  0  0  0  0  0  0  0  0  0
  -31.7540  -15.0350   19.6290 O   0  0  0  0  0  0  0  0  0  0  0  0
  -30.1800  -15.5700   21.1620 N   0  0  0  0  0  0  0  0  0  0  0  0
  -29.3540  -15.1930   21.6050 H   0  0  0  0  0  0  0  0  0  0  0  0
  -25.3300  -13.9120   20.5140 C   0  0  0  0  0  0  0  0  0  0  0  0
  -24.2900  -13.1200   20.9190 C   0  0  0  0  0  0  0  0  0  0  0  0
  -24.7580  -11.7750   20.8240 C   0  0  0  0  0  0  0  0  0  0  0  0
  -26.3710  -13.0470   20.2080 N   0  0  0  0  0  0  0  0  0  0  0  0
  -26.0300  -11.7550   20.4470 N   0  0  0  0  0  0  0  0  0  0  0  0
  -24.0550  -10.5010   21.0180 C   0  0  0  0  0  0  0  0  0  0  0  0
  -24.4490   -9.5830   22.0180 C   0  0  0  0  0  3  0  0  0  0  0  0
  -23.7480   -8.3720   22.1970 C   0  0  0  0  0  3  0  0  0  0  0  0
  -22.6380   -8.0680   21.3730 C   0  0  0  0  0  0  0  0  0  0  0  0
  -22.2620   -8.9740   20.3650 C   0  0  0  0  0  3  0  0  0  0  0  0
  -22.9650  -10.1770   20.1860 C   0  0  0  0  0  3  0  0  0  0  0  0
  -21.9110   -6.9050   21.4550 O   0  0  0  0  0  0  0  0  0  0  0  0
  -21.6860   -6.2800   22.6560 C   0  0  0  0  0  0  0  0  0  0  0  0
  -20.9840   -6.9110   23.7050 C   0  0  0  0  0  3  0  0  0  0  0  0
  -20.7170   -6.2080   24.8970 C   0  0  0  0  0  3  0  0  0  0  0  0
  -21.1420   -4.8740   25.0380 C   0  0  0  0  0  0  0  0  0  0  0  0
  -21.8340   -4.2400   23.9910 C   0  0  0  0  0  3  0  0  0  0  0  0
  -22.1040   -4.9420   22.8030 C   0  0  0  0  0  0  0  0  0  0  0  0
  -22.7550   -4.3190   21.7910 F   0  0  0  0  0  0  0  0  0  0  0  0
  -20.8770   -4.1960   26.1800 F   0  0  0  0  0  0  0  0  0  0  0  0
  -22.9040  -13.5740   21.2830 C   0  0  0  0  0  0  0  0  0  0  0  0
  -22.2300  -12.8420   22.1620 N   0  0  0  0  0  0  0  0  0  0  0  0
  -22.4310  -14.6130   20.8230 O   0  0  0  0  0  0  0  0  0  0  0  0
  -22.6240  -12.0000   22.5540 H   0  0  0  0  0  0  0  0  0  0  0  0
  -21.3030  -13.1270   22.4480 H   0  0  0  0  0  0  0  0  0  0  0  0
  -25.4740  -15.2880   20.3660 N   0  0  0  0  0  0  0  0  0  0  0  0
  -24.7160  -15.9380   20.5490 H   0  0  0  0  0  0  0  0  0  0  0  0
  -26.3100  -15.7410   20.0130 H   0  0  0  0  0  0  0  0  0  0  0  0
  1  3  2  0
  2  1  1  0
  3  9  1  0
  4  2  2  0
  4  6  1  0
  5  4  1  0
  6  3  1  0
  9  8  1  0
  9  7  1  0
 11 10  1  0
 11 12  1  0
 11  2  1  0
 13 12  1  0
 14 13  1  0
 15 14  1  0
 15 17  1  0
 16 27  2  0
 17 22  1  0
 18 26  1  0
 18 28  1  0
 19 25  1  0
 19 21  1  0
 20 26  1  0
 21 20  1  0
 22 21  2  0
 23 24  1  0
 23 17  2  0
 24 19  2  0
 25 18  1  0
 26 16  1  0
 28 30  2  0
 29 28  1  0
 31 29  1  0
 32 41  2  0
 32 37  1  0
 33 29  1  0
 33 37  1  0
 34 33  1  0
 35 36  1  0
 35 34  1  0
 36 32  1  0
 37 38  2  0
 38 39  1  0
 40 39  2  0
 41 40  1  0
 42 16  1  0
 42 43  1  0
 42 52  1  0
 43 46  1  0
 44 48  1  0
 44 43  1  0
 45 44  2  0
 48 47  1  0
 50 48  1  0
 50 51  1  0
 50 49  1  0
 52 55  1  1
 52 53  1  0
 54 52  1  0
 56  6  1  0
 56 57  1  0
 58 66  1  0
 59 64  1  0
 60 61  1  0
 60 59  1  0
 62 61  1  0
 62 71  1  0
 62 63  1  0
 64 58  1  0
 64 63  1  0
 65 58  2  0
 66 67  1  0
 66 57  1  0
 68 69  2  0
 69 88  1  0
 70 69  1  0
 70 73  1  0
 71 72  1  0
 71 68  1  0
 72 70  2  0
 73 74  1  0
 74 75  2  0
 76 79  1  0
 76 75  1  0
 77 76  2  0
 78 77  1  0
 78 73  2  0
 79 80  1  0
 80 85  2  0
 80 81  1  0
 81 82  2  0
 82 83  1  0
 83 87  1  0
 84 83  2  0
 85 84  1  0
 86 85  1  0
 88 89  1  0
 89 92  1  0
 89 91  1  0
 90 88  2  0
 93 68  1  0
 93 94  1  0
 95 93  1  0
M  ISO  4  14 101  15 101  58 100  66 100
M  END
>  <TORSDO>  (38) 
F 23

>  <SCORE>  (38) 
-11.774

>  <name>  (38) 
38

>  <ligand_id>  (38) 
38

>  <original_smiles>  (38) 
[H]c1c([H])c([H])c2c(c1[H])C([H])([H])C([H])([H])C([H])([H])C2([H])N([H])C(=O)C1([H])N(C(=O)C([H])(N([H])C(=O)C([H])(N([H])C([H])([H])[H])C([H])([H])[H])C(C([H])([H])[H])(C([H])([H])[H])C([H])([H])[H])C([H])([H])c2c([H])c(OC([H])([H])C([H])([H])C([H])([H])C([H])(c3c([H])c(C([H])(C([H])([H])[H])C([H])([H])[H])n(C([H])([H])C([H])([H])N([H])C(=O)N4C([H])([H])C([H])([H])C([H])([H])C([H])(n5nc(-c6c([H])c([H])c(Oc7c([H])c([H])c(F)c([H])c7F)c([H])c6[H])c(C(=O)N([H])[H])c5N([H])[H])C4([H])[H])c3C([H])([H])[H])C([H])([H])[H])c([H])c([H])c2C1([H])[H]

>  <smiles>  (38) 
[H]c1c([H])c([H])c2c(c1[H])C([H])([H])C([H])([H])C([H])([H])C2([H])N([H])C(=O)C1([H])N(C(=O)C([H])(N([H])C(=O)C([H])(N([H])C([H])([H])[H])C([H])([H])[H])C(C([H])([H])[H])(C([H])([H])[H])C([H])([H])[H])C([H])([H])c2c([H])c(OC([H])([H])C([H])([H])C([H])([H])C([H])(c3c([H])c(C([H])(C([H])([H])[H])C([H])([H])[H])n(C([H])([H])C([H])([H])N([H])C(=O)N4C([H])([H])C([H])([H])C([H])([H])C([H])(n5nc(-c6c([H])c([H])c(Oc7c([H])c([H])c(F)c([H])c7F)c([H])c6[H])c(C(=O)N([H])[H])c5N([H])[H])C4([H])[H])c3C([H])([H])[H])C([H])([H])[H])c([H])c([H])c2C1([H])[H]

$$$$
39:0:0
     RDKit          3D

 92100  0  0  1  0  0  0  0  0999 V2000
  -28.8960  -21.2920   20.0800 C   0  0  0  0  0  3  0  0  0  0  0  0
  -28.7820  -22.6090   20.8600 N   0  0  0  0  0  4  0  0  0  0  0  0
  -29.6180  -22.7080   21.4140 H   0  0  0  0  0  0  0  0  0  0  0  0
  -28.0220  -22.4890   21.5110 H   0  0  0  0  0  0  0  0  0  0  0  0
  -28.5570  -23.9310   20.1010 C   0  0  0  0  0  3  0  0  0  0  0  0
  -28.2980  -25.2630   20.9710 C   0  0  0  0  0  3  0  0  0  0  0  0
  -28.4160  -26.6340   20.3860 O   0  0  0  0  0  0  0  0  0  0  0  0
  -24.6020  -32.0240   23.3660 C   0  0  0  0  0  0  0  0  0  0  0  0
  -27.2900  -27.4710   20.3730 C   0  0  0  0  0  0  0  0  0  0  0  0
  -23.4270  -30.5960   21.7250 C   0  0  0  0  0  3  0  0  0  0  0  0
  -24.9080  -29.0540   20.3180 C   0  0  0  0  0  0  0  0  0  0  0  0
  -25.9610  -30.9500   21.5550 C   0  0  0  0  0  2  0  0  0  0  0  0
  -26.0650  -29.5670   20.9210 C   0  0  0  0  0  0  0  0  0  0  0  0
  -27.2640  -28.7910   20.9290 C   0  0  0  0  0  3  0  0  0  0  0  0
  -26.1140  -27.0090   19.7520 C   0  0  0  0  0  3  0  0  0  0  0  0
  -24.9370  -27.7830   19.7190 C   0  0  0  0  0  3  0  0  0  0  0  0
  -23.6580  -29.9110   20.3520 C   0  0  0  0  0  2  0  0  0  0  0  0
  -24.6820  -31.2090   22.2730 N   0  0  0  0  0  0  0  0  0  0  0  0
  -23.5120  -32.2890   23.8940 O   0  0  0  0  0  0  0  0  0  0  0  0
  -22.7750  -29.5780   22.6910 C   0  0  0  0  0  0  0  0  0  0  0  0
  -21.4590  -29.3550   22.5320 N   0  0  0  0  0  0  0  0  0  0  0  0
  -23.4500  -28.9930   23.5400 O   0  0  0  0  0  0  0  0  0  0  0  0
  -20.9700  -29.8790   21.8200 H   0  0  0  0  0  0  0  0  0  0  0  0
  -18.1140  -28.0370   22.9480 C   0  0  0  0  0  0  0  0  0  0  0  0
  -20.6500  -28.4040   23.2980 C   0  0  0  0  0  3  0  0  0  0  0  0
  -20.8280  -26.9640   22.7640 C   0  0  0  0  0  2  0  0  0  0  0  0
  -19.7740  -26.5730   21.7210 C   0  0  0  0  0  2  0  0  0  0  0  0
  -18.3650  -26.6790   22.3140 C   0  0  0  0  0  2  0  0  0  0  0  0
  -19.1880  -28.8530   23.3940 C   0  0  0  0  0  0  0  0  0  0  0  0
  -18.9000  -30.1220   23.9440 C   0  0  0  0  0  3  0  0  0  0  0  0
  -17.5720  -30.5730   24.0570 C   0  0  0  0  0  3  0  0  0  0  0  0
  -16.5130  -29.7530   23.6280 C   0  0  0  0  0  3  0  0  0  0  0  0
  -16.7850  -28.4880   23.0770 C   0  0  0  0  0  3  0  0  0  0  0  0
  -25.8730  -32.6780   23.9940 C   0  0  0  0  0  3  0  0  0  0  0  0
  -25.5580  -34.0880   24.2700 N   0  0  0  0  0  0  0  0  0  0  0  0
  -25.9090  -35.1160   23.4840 C   0  0  0  0  0  0  0  0  0  0  0  0
  -26.6010  -34.9780   22.4730 O   0  0  0  0  0  0  0  0  0  0  0  0
  -24.9550  -34.2700   25.0570 H   0  0  0  0  0  0  0  0  0  0  0  0
  -24.1950  -36.9020   23.0300 C   0  0  0  0  0  1  0  0  0  0  0  0
  -25.4130  -36.5180   23.8860 C   0  0  0  0  0  3  0  0  0  0  0  0
  -27.5210  -37.4290   24.7520 C   0  0  0  0  0  1  0  0  0  0  0  0
  -26.4490  -37.5660   23.7700 N   0  0  0  0  0  0  0  0  0  0  0  0
  -26.0400  -38.4920   23.8750 H   0  0  0  0  0  0  0  0  0  0  0  0
  -26.3630  -31.9510   25.3080 C   0  0  1  0  0  0  0  0  0  0  0  0
  -25.2460  -31.7370   26.3560 C   0  0  0  0  0  1  0  0  0  0  0  0
  -26.9690  -30.5680   24.9770 C   0  0  0  0  0  1  0  0  0  0  0  0
  -27.4920  -32.7760   25.9710 C   0  0  0  0  0  1  0  0  0  0  0  0
  -29.4870  -19.9860   20.8440 C   0  0  0  0  0  3  0  0  0  0  0  0
  -29.7180  -16.7710   18.8730 C   0  0  0  0  0  3  0  0  0  0  0  0
  -30.1880  -17.4530   20.9110 C   0  0  0  0  0  3  0  0  0  0  0  0
  -30.2350  -16.3100   20.1120 C   0  0  0  0  0  0  0  0  0  0  0  0
  -29.4210  -18.1150   18.9160 C   0  0  0  0  0  0  0  0  0  0  0  0
  -29.6720  -18.5910   20.2170 N   0  0  0  0  0  0  0  0  0  0  0  0
  -30.9490  -14.9600   20.3720 C   0  0  0  0  0  0  0  0  0  0  0  0
  -30.7160  -12.6560   19.4710 C   0  0  0  0  0  2  0  0  0  0  0  0
  -29.8330  -12.7370   18.2080 C   0  0  0  0  0  2  0  0  0  0  0  0
  -28.3440  -12.6030   18.5840 C   0  0  0  0  0  2  0  0  0  0  0  0
  -27.9400  -13.5220   19.7690 C   0  0  0  0  0  3  0  0  0  0  0  0
  -28.9630  -13.4820   20.9190 C   0  0  0  0  0  2  0  0  0  0  0  0
  -30.2910  -13.7530   20.3630 N   0  0  0  0  0  0  0  0  0  0  0  0
  -32.1750  -14.9710   20.2410 O   0  0  0  0  0  0  0  0  0  0  0  0
  -25.5480  -14.1500   20.4390 C   0  0  0  0  0  0  0  0  0  0  0  0
  -24.4620  -13.3940   20.7880 C   0  0  0  0  0  0  0  0  0  0  0  0
  -24.9070  -12.0370   20.7850 C   0  0  0  0  0  0  0  0  0  0  0  0
  -26.5840  -13.2540   20.2340 N   0  0  0  0  0  0  0  0  0  0  0  0
  -26.2050  -11.9790   20.5100 N   0  0  0  0  0  0  0  0  0  0  0  0
  -24.1590  -10.7870   20.9720 C   0  0  0  0  0  0  0  0  0  0  0  0
  -24.5430   -9.8330   21.9400 C   0  0  0  0  0  3  0  0  0  0  0  0
  -23.7940   -8.6470   22.1120 C   0  0  0  0  0  3  0  0  0  0  0  0
  -22.6480   -8.4090   21.3160 C   0  0  0  0  0  0  0  0  0  0  0  0
  -22.2840   -9.3510   20.3390 C   0  0  0  0  0  3  0  0  0  0  0  0
  -23.0330  -10.5270   20.1640 C   0  0  0  0  0  3  0  0  0  0  0  0
  -21.8760   -7.2740   21.3960 O   0  0  0  0  0  0  0  0  0  0  0  0
  -21.7580   -6.5650   22.5650 C   0  0  0  0  0  0  0  0  0  0  0  0
  -21.2570   -7.1520   23.7470 C   0  0  0  0  0  3  0  0  0  0  0  0
  -21.0910   -6.3670   24.9070 C   0  0  0  0  0  3  0  0  0  0  0  0
  -21.4100   -4.9960   24.8810 C   0  0  0  0  0  0  0  0  0  0  0  0
  -21.9030   -4.4090   23.7030 C   0  0  0  0  0  3  0  0  0  0  0  0
  -22.0740   -5.1910   22.5470 C   0  0  0  0  0  0  0  0  0  0  0  0
  -22.5280   -4.6150   21.4080 F   0  0  0  0  0  0  0  0  0  0  0  0
  -21.2430   -4.2400   25.9920 F   0  0  0  0  0  0  0  0  0  0  0  0
  -23.0660  -13.8940   21.0190 C   0  0  0  0  0  0  0  0  0  0  0  0
  -22.3100  -13.2230   21.8800 N   0  0  0  0  0  0  0  0  0  0  0  0
  -22.6540  -14.9140   20.4660 O   0  0  0  0  0  0  0  0  0  0  0  0
  -22.6560  -12.3980   22.3480 H   0  0  0  0  0  0  0  0  0  0  0  0
  -21.3710  -13.5380   22.0750 H   0  0  0  0  0  0  0  0  0  0  0  0
  -25.7390  -15.5170   20.2560 N   0  0  0  0  0  0  0  0  0  0  0  0
  -24.9900  -16.1930   20.3570 H   0  0  0  0  0  0  0  0  0  0  0  0
  -26.6230  -15.9400   19.9950 H   0  0  0  0  0  0  0  0  0  0  0  0
  -28.2130  -18.1610   16.6910 C   0  0  0  0  0  1  0  0  0  0  0  0
  -30.2080  -19.6270   17.0790 C   0  0  0  0  0  1  0  0  0  0  0  0
  -28.9930  -18.9610   17.7500 C   0  0  0  0  0  3  0  0  0  0  0  0
  1 48  2  0
  1  2  1  0
  2  3  1  0
  2  4  1  0
  5  2  1  0
  5  6  2  0
  7  6  1  0
  8 19  2  0
  9  7  1  0
  9 14  1  0
 10 18  1  0
 10 20  1  0
 11 17  1  0
 11 13  1  0
 12 18  1  0
 13 14  2  0
 13 12  1  0
 15  9  2  0
 16 15  1  0
 16 11  2  0
 17 10  1  0
 18  8  1  0
 20 22  2  0
 21 20  1  0
 23 21  1  0
 24 33  2  0
 24 29  1  0
 25 21  1  0
 25 29  1  0
 26 25  1  0
 27 28  1  0
 27 26  1  0
 28 24  1  0
 29 30  2  0
 30 31  1  0
 32 31  2  0
 33 32  1  0
 34  8  1  0
 34 35  1  0
 34 44  1  0
 35 38  1  0
 36 40  1  0
 36 35  1  0
 37 36  2  0
 40 39  1  0
 42 43  1  0
 42 40  1  0
 42 41  1  0
 44 47  1  1
 44 45  1  0
 46 44  1  0
 49 52  2  0
 49 51  1  0
 51 54  1  0
 51 50  2  0
 52 53  1  0
 53 48  1  0
 53 50  1  0
 55 60  1  0
 56 57  1  0
 56 55  1  0
 58 57  1  0
 58 65  1  0
 58 59  1  0
 60 54  1  0
 60 59  1  0
 61 54  2  0
 62 63  2  0
 63 82  1  0
 64 63  1  0
 64 67  1  0
 65 62  1  0
 65 66  1  0
 66 64  2  0
 67 68  1  0
 68 69  2  0
 70 73  1  0
 70 69  1  0
 71 70  2  0
 72 71  1  0
 72 67  2  0
 73 74  1  0
 74 75  1  0
 75 76  2  0
 77 76  1  0
 77 81  1  0
 78 77  2  0
 79 74  2  0
 79 78  1  0
 80 79  1  0
 82 83  1  0
 83 86  1  0
 83 85  1  0
 84 82  2  0
 87 88  1  0
 87 62  1  0
 89 87  1  0
 90 92  1  0
 91 92  1  0
 92 52  1  0
M  ISO  4   6 101   7 101  51 100  54 100
M  END
>  <TORSDO>  (39) 
F 22

>  <SCORE>  (39) 
-12.529

>  <name>  (39) 
39

>  <ligand_id>  (39) 
39

>  <original_smiles>  (39) 
[H]c1c([H])c([H])c2c(c1[H])C([H])([H])C([H])([H])C([H])([H])C2([H])N([H])C(=O)C1([H])N(C(=O)C([H])(N([H])C(=O)C([H])(N([H])C([H])([H])[H])C([H])([H])[H])C(C([H])([H])[H])(C([H])([H])[H])C([H])([H])[H])C([H])([H])c2c([H])c(OC([H])([H])C([H])([H])[N+]([H])([H])C([H])([H])C([H])([H])n3c([H])c(C(=O)N4C([H])([H])C([H])([H])C([H])([H])C([H])(n5nc(-c6c([H])c([H])c(Oc7c([H])c([H])c(F)c([H])c7F)c([H])c6[H])c(C(=O)N([H])[H])c5N([H])[H])C4([H])[H])c([H])c3C([H])(C([H])([H])[H])C([H])([H])[H])c([H])c([H])c2C1([H])[H]

>  <smiles>  (39) 
[H]c1c([H])c([H])c2c(c1[H])C([H])([H])C([H])([H])C([H])([H])C2([H])N([H])C(=O)C1([H])N(C(=O)C([H])(N([H])C(=O)C([H])(N([H])C([H])([H])[H])C([H])([H])[H])C(C([H])([H])[H])(C([H])([H])[H])C([H])([H])[H])C([H])([H])c2c([H])c(OC([H])([H])C([H])([H])[N+]([H])([H])C([H])([H])C([H])([H])n3c([H])c(C(=O)N4C([H])([H])C([H])([H])C([H])([H])C([H])(n5nc(-c6c([H])c([H])c(Oc7c([H])c([H])c(F)c([H])c7F)c([H])c6[H])c(C(=O)N([H])[H])c5N([H])[H])C4([H])[H])c([H])c3C([H])(C([H])([H])[H])C([H])([H])[H])c([H])c([H])c2C1([H])[H]

$$$$
40:0:0
     RDKit          3D

 91 99  0  0  1  0  0  0  0  0999 V2000
  -29.3320  -19.7440   20.8020 C   0  0  0  0  0  3  0  0  0  0  0  0
  -29.9320  -20.9930   18.8350 C   0  0  0  0  0  3  0  0  0  0  0  0
  -29.2960  -21.0020   20.0870 C   0  0  0  0  0  0  0  0  0  0  0  0
  -29.9850  -18.5650   20.2680 C   0  0  0  0  0  0  0  0  0  0  0  0
  -30.5870  -18.7440   19.0000 C   0  0  0  0  0  0  0  0  0  0  0  0
  -31.3790  -17.6410   18.3260 C   0  0  0  0  0  1  0  0  0  0  0  0
  -30.5490  -19.9100   18.3130 N   0  0  0  0  0  0  0  0  0  0  0  0
  -28.4810  -22.2900   20.5260 C   0  0  0  0  0  2  0  0  0  0  0  0
  -29.0750  -23.7960   20.4670 C   0  0  0  0  0  2  0  0  0  0  0  0
  -28.3120  -24.9100   18.3190 C   0  0  0  0  0  1  0  0  0  0  0  0
  -28.1510  -24.9680   19.8510 C   0  0  0  0  0  3  0  0  0  0  0  0
  -28.3100  -26.4130   20.2400 O   0  0  0  0  0  0  0  0  0  0  0  0
  -24.6190  -31.8990   23.2490 C   0  0  0  0  0  0  0  0  0  0  0  0
  -27.1980  -27.2940   20.1860 C   0  0  0  0  0  0  0  0  0  0  0  0
  -23.4040  -30.5020   21.6210 C   0  0  0  0  0  3  0  0  0  0  0  0
  -24.8420  -28.9490   20.1890 C   0  0  0  0  0  0  0  0  0  0  0  0
  -25.9480  -30.8030   21.4260 C   0  0  0  0  0  2  0  0  0  0  0  0
  -26.0210  -29.4210   20.7790 C   0  0  0  0  0  0  0  0  0  0  0  0
  -27.1990  -28.6080   20.7690 C   0  0  0  0  0  3  0  0  0  0  0  0
  -25.9860  -26.8910   19.5770 C   0  0  0  0  0  3  0  0  0  0  0  0
  -24.8290  -27.6890   19.5790 C   0  0  0  0  0  3  0  0  0  0  0  0
  -23.6110  -29.8300   20.2400 C   0  0  0  0  0  2  0  0  0  0  0  0
  -24.6770  -31.0850   22.1540 N   0  0  0  0  0  0  0  0  0  0  0  0
  -23.5380  -32.1800   23.7880 O   0  0  0  0  0  0  0  0  0  0  0  0
  -22.7450  -29.4850   22.5850 C   0  0  0  0  0  0  0  0  0  0  0  0
  -21.4190  -29.3050   22.4590 N   0  0  0  0  0  0  0  0  0  0  0  0
  -23.4240  -28.8640   23.4060 O   0  0  0  0  0  0  0  0  0  0  0  0
  -20.9270  -29.8570   21.7700 H   0  0  0  0  0  0  0  0  0  0  0  0
  -18.0440  -28.0960   22.9630 C   0  0  0  0  0  0  0  0  0  0  0  0
  -20.6020  -28.3710   23.2370 C   0  0  0  0  0  3  0  0  0  0  0  0
  -20.7120  -26.9340   22.6760 C   0  0  0  0  0  2  0  0  0  0  0  0
  -19.6150  -26.5970   21.6620 C   0  0  0  0  0  2  0  0  0  0  0  0
  -18.2300  -26.7420   22.3000 C   0  0  0  0  0  2  0  0  0  0  0  0
  -19.1590  -28.8680   23.3890 C   0  0  0  0  0  0  0  0  0  0  0  0
  -18.9320  -30.1350   23.9690 C   0  0  0  0  0  3  0  0  0  0  0  0
  -17.6250  -30.6300   24.1280 C   0  0  0  0  0  3  0  0  0  0  0  0
  -16.5250  -29.8560   23.7180 C   0  0  0  0  0  3  0  0  0  0  0  0
  -16.7360  -28.5910   23.1410 C   0  0  0  0  0  3  0  0  0  0  0  0
  -25.9050  -32.5320   23.8630 C   0  0  0  0  0  3  0  0  0  0  0  0
  -26.4250  -31.7630   25.1390 C   0  0  1  0  0  0  0  0  0  0  0  0
  -25.3370  -31.5310   26.2130 C   0  0  0  0  0  1  0  0  0  0  0  0
  -27.0040  -30.3830   24.7490 C   0  0  0  0  0  1  0  0  0  0  0  0
  -27.5810  -32.5570   25.7940 C   0  0  0  0  0  1  0  0  0  0  0  0
  -25.5960  -33.9310   24.1940 N   0  0  0  0  0  0  0  0  0  0  0  0
  -25.9250  -34.9840   23.4330 C   0  0  0  0  0  0  0  0  0  0  0  0
  -26.5870  -34.8790   22.3970 O   0  0  0  0  0  0  0  0  0  0  0  0
  -25.0080  -34.0860   24.9980 H   0  0  0  0  0  0  0  0  0  0  0  0
  -24.1940  -36.7770   23.0890 C   0  0  0  0  0  1  0  0  0  0  0  0
  -25.4400  -36.3720   23.8920 C   0  0  0  0  0  3  0  0  0  0  0  0
  -27.5810  -37.2560   24.7080 C   0  0  0  0  0  1  0  0  0  0  0  0
  -26.4720  -37.4260   23.7730 N   0  0  0  0  0  0  0  0  0  0  0  0
  -26.0670  -38.3460   23.9240 H   0  0  0  0  0  0  0  0  0  0  0  0
  -30.2060  -17.2260   21.1040 C   0  0  0  0  0  2  0  0  0  0  0  0
  -30.5900  -14.7110   20.4000 C   0  0  0  0  0  0  0  0  0  0  0  0
  -30.3660  -12.4690   19.3280 C   0  0  0  0  0  2  0  0  0  0  0  0
  -29.4220  -12.5720   18.1110 C   0  0  0  0  0  2  0  0  0  0  0  0
  -27.9500  -12.4160   18.5410 C   0  0  0  0  0  2  0  0  0  0  0  0
  -27.5880  -13.2930   19.7700 C   0  0  0  0  0  3  0  0  0  0  0  0
  -28.6460  -13.1600   20.8860 C   0  0  0  0  0  2  0  0  0  0  0  0
  -29.9460  -13.5040   20.2940 N   0  0  0  0  0  0  0  0  0  0  0  0
  -31.7830  -14.8150   20.1100 O   0  0  0  0  0  0  0  0  0  0  0  0
  -29.8160  -15.8270   20.6490 N   0  0  0  0  0  0  0  0  0  0  0  0
  -28.8360  -15.6130   20.7620 H   0  0  0  0  0  0  0  0  0  0  0  0
  -25.1970  -13.9040   20.4800 C   0  0  0  0  0  0  0  0  0  0  0  0
  -24.1250  -13.1390   20.8500 C   0  0  0  0  0  0  0  0  0  0  0  0
  -24.5820  -11.7850   20.8330 C   0  0  0  0  0  0  0  0  0  0  0  0
  -26.2390  -13.0180   20.2570 N   0  0  0  0  0  0  0  0  0  0  0  0
  -25.8740  -11.7390   20.5320 N   0  0  0  0  0  0  0  0  0  0  0  0
  -23.8490  -10.5270   21.0280 C   0  0  0  0  0  0  0  0  0  0  0  0
  -24.2800   -9.5590   21.9610 C   0  0  0  0  0  3  0  0  0  0  0  0
  -23.5480   -8.3660   22.1440 C   0  0  0  0  0  3  0  0  0  0  0  0
  -22.3700   -8.1330   21.3940 C   0  0  0  0  0  0  0  0  0  0  0  0
  -21.9580   -9.0900   20.4510 C   0  0  0  0  0  3  0  0  0  0  0  0
  -22.6900  -10.2740   20.2660 C   0  0  0  0  0  3  0  0  0  0  0  0
  -21.6090   -6.9920   21.4880 O   0  0  0  0  0  0  0  0  0  0  0  0
  -21.5700   -6.2440   22.6370 C   0  0  0  0  0  0  0  0  0  0  0  0
  -21.1760   -6.8010   23.8740 C   0  0  0  0  0  3  0  0  0  0  0  0
  -21.0840   -5.9820   25.0170 C   0  0  0  0  0  3  0  0  0  0  0  0
  -21.3740   -4.6070   24.9230 C   0  0  0  0  0  0  0  0  0  0  0  0
  -21.7610   -4.0500   23.6910 C   0  0  0  0  0  3  0  0  0  0  0  0
  -21.8550   -4.8670   22.5510 C   0  0  0  0  0  0  0  0  0  0  0  0
  -22.2080   -4.3230   21.3620 F   0  0  0  0  0  0  0  0  0  0  0  0
  -21.2780   -3.8160   26.0180 F   0  0  0  0  0  0  0  0  0  0  0  0
  -22.7280  -13.6230   21.1080 C   0  0  0  0  0  0  0  0  0  0  0  0
  -21.9910  -12.9370   21.9750 N   0  0  0  0  0  0  0  0  0  0  0  0
  -22.2970  -14.6460   20.5770 O   0  0  0  0  0  0  0  0  0  0  0  0
  -22.3530  -12.1090   22.4270 H   0  0  0  0  0  0  0  0  0  0  0  0
  -21.0520  -13.2420   22.1900 H   0  0  0  0  0  0  0  0  0  0  0  0
  -25.3660  -15.2720   20.2900 N   0  0  0  0  0  0  0  0  0  0  0  0
  -24.5920  -15.9230   20.3750 H   0  0  0  0  0  0  0  0  0  0  0  0
  -26.2010  -15.7030   19.9130 H   0  0  0  0  0  0  0  0  0  0  0  0
  2  3  1  0
  3  8  1  0
  3  1  2  0
  4  1  1  0
  4 53  1  0
  5  4  2  0
  6  5  1  0
  7  2  2  0
  7  5  1  0
  9  8  1  0
 11 10  1  0
 11 12  1  0
 11  9  1  0
 13 24  2  0
 14 12  1  0
 14 19  1  0
 15 23  1  0
 15 25  1  0
 16 22  1  0
 16 18  1  0
 17 23  1  0
 18 17  1  0
 19 18  2  0
 20 21  1  0
 20 14  2  0
 21 16  2  0
 22 15  1  0
 23 13  1  0
 25 27  2  0
 26 25  1  0
 28 26  1  0
 29 38  2  0
 29 34  1  0
 30 26  1  0
 30 34  1  0
 31 30  1  0
 32 33  1  0
 32 31  1  0
 33 29  1  0
 34 35  2  0
 35 36  1  0
 37 36  2  0
 38 37  1  0
 39 13  1  0
 39 44  1  0
 39 40  1  0
 40 43  1  1
 40 41  1  0
 42 40  1  0
 44 47  1  0
 45 49  1  0
 45 44  1  0
 46 45  2  0
 49 48  1  0
 51 49  1  0
 51 52  1  0
 51 50  1  0
 54 62  1  0
 55 60  1  0
 56 57  1  0
 56 55  1  0
 58 57  1  0
 58 67  1  0
 58 59  1  0
 60 54  1  0
 60 59  1  0
 61 54  2  0
 62 63  1  0
 62 53  1  0
 64 65  2  0
 65 84  1  0
 66 65  1  0
 66 69  1  0
 67 64  1  0
 67 68  1  0
 68 66  2  0
 69 70  1  0
 70 71  2  0
 72 75  1  0
 72 71  1  0
 73 72  2  0
 74 73  1  0
 74 69  2  0
 75 76  1  0
 76 77  1  0
 77 78  2  0
 79 78  1  0
 79 83  1  0
 80 79  2  0
 81 76  2  0
 81 80  1  0
 82 81  1  0
 84 85  1  0
 85 88  1  0
 85 87  1  0
 86 84  2  0
 89 90  1  0
 89 64  1  0
 91 89  1  0
M  ISO  4  11 101  12 101  54 100  62 100
M  END
>  <TORSDO>  (40) 
F 20

>  <SCORE>  (40) 
-13.863

>  <name>  (40) 
40

>  <ligand_id>  (40) 
40

>  <original_smiles>  (40) 
[H]c1nc(C([H])([H])[H])c(C([H])([H])N([H])C(=O)N2C([H])([H])C([H])([H])C([H])([H])C([H])(n3nc(-c4c([H])c([H])c(Oc5c([H])c([H])c(F)c([H])c5F)c([H])c4[H])c(C(=O)N([H])[H])c3N([H])[H])C2([H])[H])c([H])c1C([H])([H])C([H])([H])C([H])(Oc1c([H])c([H])c2c(c1[H])C([H])([H])N(C(=O)C([H])(N([H])C(=O)C([H])(N([H])C([H])([H])[H])C([H])([H])[H])C(C([H])([H])[H])(C([H])([H])[H])C([H])([H])[H])C([H])(C(=O)N([H])C1([H])c3c([H])c([H])c([H])c([H])c3C([H])([H])C([H])([H])C1([H])[H])C2([H])[H])C([H])([H])[H]

>  <smiles>  (40) 
[H]c1nc(C([H])([H])[H])c(C([H])([H])N([H])C(=O)N2C([H])([H])C([H])([H])C([H])([H])C([H])(n3nc(-c4c([H])c([H])c(Oc5c([H])c([H])c(F)c([H])c5F)c([H])c4[H])c(C(=O)N([H])[H])c3N([H])[H])C2([H])[H])c([H])c1C([H])([H])C([H])([H])C([H])(Oc1c([H])c([H])c2c(c1[H])C([H])([H])N(C(=O)C([H])(N([H])C(=O)C([H])(N([H])C([H])([H])[H])C([H])([H])[H])C(C([H])([H])[H])(C([H])([H])[H])C([H])([H])[H])C([H])(C(=O)N([H])C1([H])c3c([H])c([H])c([H])c([H])c3C([H])([H])C([H])([H])C1([H])[H])C2([H])[H])C([H])([H])[H]

$$$$
41:0:0
     RDKit          3D

 98106  0  0  1  0  0  0  0  0999 V2000
  -28.9280  -21.1590   20.1180 C   0  0  0  0  0  3  0  0  0  0  0  0
  -31.2920  -21.0540   20.6550 C   0  0  0  0  0  3  0  0  0  0  0  0
  -30.1670  -19.0530   19.8760 C   0  0  0  0  0  3  0  0  0  0  0  0
  -30.0830  -21.8060   20.6000 C   0  0  0  0  0  0  0  0  0  0  0  0
  -28.9670  -19.7920   19.7530 C   0  0  0  0  0  0  0  0  0  0  0  0
  -31.3530  -19.6540   20.3590 C   0  0  0  0  0  0  0  0  0  0  0  0
  -27.7880  -18.7520   17.7810 C   0  0  0  0  0  1  0  0  0  0  0  0
  -26.4340  -19.9140   19.5960 C   0  0  0  0  0  1  0  0  0  0  0  0
  -27.6970  -19.0950   19.2740 C   0  0  0  0  0  3  0  0  0  0  0  0
  -29.9990  -23.2140   21.2470 C   0  0  0  0  0  2  0  0  0  0  0  0
  -29.0400  -24.3250   20.6760 C   0  0  0  0  0  2  0  0  0  0  0  0
  -28.1920  -25.6090   22.7680 C   0  0  0  0  0  1  0  0  0  0  0  0
  -29.0770  -25.6620   21.5080 C   0  0  0  0  0  3  0  0  0  0  0  0
  -28.9330  -26.9190   20.7980 O   0  0  0  0  0  0  0  0  0  0  0  0
  -25.0280  -31.9980   24.0490 C   0  0  0  0  0  0  0  0  0  0  0  0
  -27.7660  -27.6600   20.8690 C   0  0  0  0  0  0  0  0  0  0  0  0
  -23.9080  -30.7470   22.2350 C   0  0  0  0  0  3  0  0  0  0  0  0
  -25.4170  -29.2480   20.8200 C   0  0  0  0  0  0  0  0  0  0  0  0
  -26.4500  -31.0310   22.2380 C   0  0  0  0  0  2  0  0  0  0  0  0
  -26.5480  -29.6970   21.5160 C   0  0  0  0  0  0  0  0  0  0  0  0
  -27.7290  -28.9150   21.5300 C   0  0  0  0  0  3  0  0  0  0  0  0
  -26.6180  -27.2230   20.1800 C   0  0  0  0  0  3  0  0  0  0  0  0
  -25.4470  -28.0100   20.1520 C   0  0  0  0  0  3  0  0  0  0  0  0
  -24.1980  -30.1460   20.8320 C   0  0  0  0  0  2  0  0  0  0  0  0
  -25.1440  -31.2690   22.9020 N   0  0  0  0  0  0  0  0  0  0  0  0
  -23.9180  -32.2690   24.5310 O   0  0  0  0  0  0  0  0  0  0  0  0
  -23.1580  -29.6890   23.0760 C   0  0  0  0  0  0  0  0  0  0  0  0
  -21.8700  -29.4720   22.7590 N   0  0  0  0  0  0  0  0  0  0  0  0
  -23.7360  -29.0660   23.9700 O   0  0  0  0  0  0  0  0  0  0  0  0
  -21.4660  -30.0280   22.0170 H   0  0  0  0  0  0  0  0  0  0  0  0
  -18.5070  -28.1470   22.7360 C   0  0  0  0  0  0  0  0  0  0  0  0
  -20.9860  -28.4920   23.3870 C   0  0  0  0  0  3  0  0  0  0  0  0
  -21.2270  -27.0770   22.8130 C   0  0  0  0  0  2  0  0  0  0  0  0
  -20.3000  -26.7340   21.6430 C   0  0  0  0  0  2  0  0  0  0  0  0
  -18.8330  -26.8180   22.0770 C   0  0  0  0  0  2  0  0  0  0  0  0
  -19.5210  -28.9400   23.3380 C   0  0  0  0  0  0  0  0  0  0  0  0
  -19.1710  -30.1830   23.9080 C   0  0  0  0  0  3  0  0  0  0  0  0
  -17.8400  -30.6370   23.8840 C   0  0  0  0  0  3  0  0  0  0  0  0
  -16.8370  -29.8420   23.3020 C   0  0  0  0  0  3  0  0  0  0  0  0
  -17.1700  -28.5990   22.7360 C   0  0  0  0  0  3  0  0  0  0  0  0
  -26.2820  -32.5450   24.8000 C   0  0  0  0  0  3  0  0  0  0  0  0
  -26.0240  -33.9540   25.1230 N   0  0  0  0  0  0  0  0  0  0  0  0
  -26.4930  -34.9960   24.4220 C   0  0  0  0  0  0  0  0  0  0  0  0
  -27.2580  -34.8660   23.4620 O   0  0  0  0  0  0  0  0  0  0  0  0
  -25.3570  -34.1350   25.8600 H   0  0  0  0  0  0  0  0  0  0  0  0
  -24.9190  -36.8960   23.9310 C   0  0  0  0  0  1  0  0  0  0  0  0
  -26.0440  -36.4040   24.8540 C   0  0  0  0  0  3  0  0  0  0  0  0
  -28.1400  -37.1390   25.9040 C   0  0  0  0  0  1  0  0  0  0  0  0
  -27.1440  -37.3940   24.8680 N   0  0  0  0  0  0  0  0  0  0  0  0
  -26.7790  -38.3330   25.0020 H   0  0  0  0  0  0  0  0  0  0  0  0
  -26.6330  -31.7290   26.1050 C   0  0  1  0  0  0  0  0  0  0  0  0
  -25.4140  -31.4650   27.0210 C   0  0  0  0  0  1  0  0  0  0  0  0
  -27.2540  -30.3580   25.7440 C   0  0  0  0  0  1  0  0  0  0  0  0
  -27.6970  -32.4900   26.9310 C   0  0  0  0  0  1  0  0  0  0  0  0
  -32.6460  -18.8070   20.6550 C   0  0  0  0  0  3  0  0  0  0  0  0
  -34.7400  -20.2170   20.5100 C   0  0  0  0  0  1  0  0  0  0  0  0
  -33.1790  -20.5620   22.4110 C   0  0  0  0  0  1  0  0  0  0  0  0
  -33.6770  -19.6330   21.3630 N   0  0  1  0  0  4  0  0  0  0  0  0
  -34.1810  -18.9280   21.8800 H   0  0  0  0  0  0  0  0  0  0  0  0
  -32.4990  -17.5100   21.5590 C   0  0  0  0  0  2  0  0  0  0  0  0
  -32.4400  -15.2190   20.5170 C   0  0  0  0  0  0  0  0  0  0  0  0
  -32.1050  -12.9490   19.5730 C   0  0  0  0  0  2  0  0  0  0  0  0
  -31.1920  -13.0120   18.3320 C   0  0  0  0  0  2  0  0  0  0  0  0
  -29.7070  -12.9630   18.7410 C   0  0  0  0  0  2  0  0  0  0  0  0
  -29.3680  -13.9550   19.8860 C   0  0  0  0  0  3  0  0  0  0  0  0
  -30.3880  -13.8420   21.0360 C   0  0  0  0  0  2  0  0  0  0  0  0
  -31.7260  -14.0590   20.4660 N   0  0  0  0  0  0  0  0  0  0  0  0
  -33.5820  -15.3130   20.0610 O   0  0  0  0  0  0  0  0  0  0  0  0
  -31.8120  -16.3020   21.0390 N   0  0  0  0  0  0  0  0  0  0  0  0
  -30.8510  -16.1690   21.3170 H   0  0  0  0  0  0  0  0  0  0  0  0
  -27.0570  -14.7460   20.6860 C   0  0  0  0  0  0  0  0  0  0  0  0
  -25.9120  -14.0620   20.9990 C   0  0  0  0  0  0  0  0  0  0  0  0
  -26.2250  -12.6770   20.8380 C   0  0  0  0  0  0  0  0  0  0  0  0
  -27.9970  -13.7830   20.3580 N   0  0  0  0  0  0  0  0  0  0  0  0
  -27.5010  -12.5270   20.5080 N   0  0  0  0  0  0  0  0  0  0  0  0
  -25.3660  -11.4880   20.9220 C   0  0  0  0  0  0  0  0  0  0  0  0
  -25.6520  -10.4340   21.8170 C   0  0  0  0  0  3  0  0  0  0  0  0
  -24.8020   -9.3090   21.8920 C   0  0  0  0  0  3  0  0  0  0  0  0
  -23.6520   -9.2330   21.0720 C   0  0  0  0  0  0  0  0  0  0  0  0
  -23.3850  -10.2750   20.1670 C   0  0  0  0  0  3  0  0  0  0  0  0
  -24.2330  -11.3910   20.0890 C   0  0  0  0  0  3  0  0  0  0  0  0
  -22.7840   -8.1680   21.0580 O   0  0  0  0  0  0  0  0  0  0  0  0
  -22.4630   -7.4860   22.2050 C   0  0  0  0  0  0  0  0  0  0  0  0
  -21.8680   -8.1280   23.3120 C   0  0  0  0  0  3  0  0  0  0  0  0
  -21.4920   -7.3760   24.4430 C   0  0  0  0  0  3  0  0  0  0  0  0
  -21.7000   -5.9840   24.4660 C   0  0  0  0  0  0  0  0  0  0  0  0
  -22.2890   -5.3420   23.3620 C   0  0  0  0  0  3  0  0  0  0  0  0
  -22.6660   -6.0910   22.2330 C   0  0  0  0  0  0  0  0  0  0  0  0
  -23.2120   -5.4640   21.1630 F   0  0  0  0  0  0  0  0  0  0  0  0
  -21.3320   -5.2600   25.5480 F   0  0  0  0  0  0  0  0  0  0  0  0
  -24.5770  -14.6600   21.3340 C   0  0  0  0  0  0  0  0  0  0  0  0
  -23.7890  -13.9770   22.1560 N   0  0  0  0  0  0  0  0  0  0  0  0
  -24.2440  -15.7640   20.9030 O   0  0  0  0  0  0  0  0  0  0  0  0
  -24.0700  -13.0820   22.5260 H   0  0  0  0  0  0  0  0  0  0  0  0
  -22.8910  -14.3560   22.4220 H   0  0  0  0  0  0  0  0  0  0  0  0
  -27.3710  -16.1000   20.6330 N   0  0  0  0  0  0  0  0  0  0  0  0
  -26.6840  -16.8240   20.8050 H   0  0  0  0  0  0  0  0  0  0  0  0
  -28.2620  -16.4690   20.3210 H   0  0  0  0  0  0  0  0  0  0  0  0
  1  4  1  0
  3  6  2  0
  4  2  2  0
  4 10  1  0
  5  3  1  0
  5  1  2  0
  6  2  1  0
  6 55  1  0
  7  9  1  0
  9  8  1  0
  9  5  1  0
 11 10  1  0
 11 13  1  0
 13 12  1  0
 14 16  1  0
 14 13  1  0
 15 26  2  0
 16 21  1  0
 17 25  1  0
 17 27  1  0
 18 24  1  0
 18 20  1  0
 19 25  1  0
 20 21  2  0
 20 19  1  0
 22 16  2  0
 23 22  1  0
 23 18  2  0
 24 17  1  0
 25 15  1  0
 27 29  2  0
 28 27  1  0
 30 28  1  0
 31 40  2  0
 31 36  1  0
 32 28  1  0
 33 32  1  0
 34 35  1  0
 34 33  1  0
 35 31  1  0
 36 32  1  0
 36 37  2  0
 38 37  1  0
 39 38  2  0
 40 39  1  0
 41 15  1  0
 41 42  1  0
 41 51  1  0
 42 45  1  0
 43 47  1  0
 43 42  1  0
 44 43  2  0
 47 46  1  0
 47 49  1  0
 49 50  1  0
 49 48  1  0
 51 54  1  1
 51 52  1  0
 53 51  1  0
 55 58  1  0
 55 60  1  0
 56 58  1  0
 58 59  1  1
 58 57  1  0
 61 69  1  0
 62 67  1  0
 63 64  1  0
 63 62  1  0
 65 64  1  0
 65 74  1  0
 65 66  1  0
 67 61  1  0
 67 66  1  0
 68 61  2  0
 69 70  1  0
 69 60  1  0
 71 72  2  0
 72 91  1  0
 73 76  1  0
 73 72  1  0
 74 75  1  0
 74 71  1  0
 75 73  2  0
 76 77  1  0
 77 78  2  0
 79 78  1  0
 80 79  2  0
 81 80  1  0
 81 76  2  0
 82 79  1  0
 82 83  1  0
 83 88  2  0
 83 84  1  0
 84 85  2  0
 85 86  1  0
 86 90  1  0
 87 86  2  0
 88 87  1  0
 89 88  1  0
 91 92  1  0
 92 95  1  0
 92 94  1  0
 93 91  2  0
 96 71  1  0
 96 97  1  0
 98 96  1  0
M  ISO  4  13 101  14 101  61 100  69 100
M  END
>  <TORSDO>  (41) 
F 23

>  <SCORE>  (41) 
-7.634

>  <name>  (41) 
41

>  <ligand_id>  (41) 
41

>  <original_smiles>  (41) 
[H]c1c([H])c([H])c2c(c1[H])C([H])([H])C([H])([H])C([H])([H])C2([H])N([H])C(=O)C1([H])N(C(=O)C([H])(N([H])C(=O)C([H])(N([H])C([H])([H])[H])C([H])([H])[H])C(C([H])([H])[H])(C([H])([H])[H])C([H])([H])[H])C([H])([H])c2c([H])c(OC([H])(C([H])([H])[H])C([H])([H])C([H])([H])c3c([H])c(C([H])(C([H])([H])[H])C([H])([H])[H])c([H])c(C([H])(C([H])([H])N([H])C(=O)N4C([H])([H])C([H])([H])C([H])([H])C([H])(n5nc(-c6c([H])c([H])c(Oc7c([H])c([H])c(F)c([H])c7F)c([H])c6[H])c(C(=O)N([H])[H])c5N([H])[H])C4([H])[H])[N+]([H])(C([H])([H])[H])C([H])([H])[H])c3[H])c([H])c([H])c2C1([H])[H]

>  <smiles>  (41) 
[H]c1c([H])c([H])c2c(c1[H])C([H])([H])C([H])([H])C([H])([H])C2([H])N([H])C(=O)C1([H])N(C(=O)C([H])(N([H])C(=O)C([H])(N([H])C([H])([H])[H])C([H])([H])[H])C(C([H])([H])[H])(C([H])([H])[H])C([H])([H])[H])C([H])([H])c2c([H])c(OC([H])(C([H])([H])[H])C([H])([H])C([H])([H])c3c([H])c(C([H])(C([H])([H])[H])C([H])([H])[H])c([H])c(C([H])(C([H])([H])N([H])C(=O)N4C([H])([H])C([H])([H])C([H])([H])C([H])(n5nc(-c6c([H])c([H])c(Oc7c([H])c([H])c(F)c([H])c7F)c([H])c6[H])c(C(=O)N([H])[H])c5N([H])[H])C4([H])[H])[N+]([H])(C([H])([H])[H])C([H])([H])[H])c3[H])c([H])c([H])c2C1([H])[H]

$$$$
42:0:0
     RDKit          3D

 92100  0  0  1  0  0  0  0  0999 V2000
  -29.9950  -21.2840   21.6140 C   0  0  0  0  0  1  0  0  0  0  0  0
  -29.7230  -20.7390   20.2060 C   0  0  0  0  0  3  0  0  0  0  0  0
  -32.2810  -17.3480   19.8120 C   0  0  0  0  0  3  0  0  0  0  0  0
  -32.6350  -18.6520   19.4790 C   0  0  0  0  0  3  0  0  0  0  0  0
  -30.0600  -18.1230   20.3350 C   0  0  0  0  0  0  0  0  0  0  0  0
  -30.9760  -17.0210   20.2710 C   0  0  0  0  0  0  0  0  0  0  0  0
  -30.5220  -19.4370   20.0000 C   0  0  0  0  0  0  0  0  0  0  0  0
  -28.6160  -17.9060   20.7850 C   0  0  0  0  0  1  0  0  0  0  0  0
  -31.7890  -19.6750   19.6010 N   0  0  0  0  0  0  0  0  0  0  0  0
  -31.0850  -14.5290   20.1640 C   0  0  0  0  0  0  0  0  0  0  0  0
  -30.5130  -12.4760   18.9210 C   0  0  0  0  0  2  0  0  0  0  0  0
  -29.5330  -12.7800   17.7770 C   0  0  0  0  0  2  0  0  0  0  0  0
  -28.0850  -12.6570   18.2820 C   0  0  0  0  0  2  0  0  0  0  0  0
  -27.8450  -13.4370   19.6030 C   0  0  0  0  0  3  0  0  0  0  0  0
  -28.9580  -13.1640   20.6370 C   0  0  0  0  0  2  0  0  0  0  0  0
  -30.2510  -13.4540   20.0010 N   0  0  0  0  0  0  0  0  0  0  0  0
  -32.1890  -14.4940   19.6320 O   0  0  0  0  0  0  0  0  0  0  0  0
  -30.4020  -15.6070   22.2240 C   0  0  0  0  0  1  0  0  0  0  0  0
  -30.6500  -15.6790   20.7740 N   0  0  0  0  0  0  0  0  0  0  0  0
  -25.5030  -14.0300   20.4730 C   0  0  0  0  0  0  0  0  0  0  0  0
  -24.4490  -13.2530   20.8670 C   0  0  0  0  0  0  0  0  0  0  0  0
  -24.8900  -11.8980   20.7570 C   0  0  0  0  0  0  0  0  0  0  0  0
  -26.5240  -13.1500   20.1520 N   0  0  0  0  0  0  0  0  0  0  0  0
  -26.1640  -11.8590   20.3800 N   0  0  0  0  0  0  0  0  0  0  0  0
  -24.1550  -10.6390   20.9310 C   0  0  0  0  0  0  0  0  0  0  0  0
  -24.6030   -9.6370   21.8220 C   0  0  0  0  0  3  0  0  0  0  0  0
  -23.8700   -8.4420   21.9850 C   0  0  0  0  0  3  0  0  0  0  0  0
  -22.6730   -8.2410   21.2570 C   0  0  0  0  0  0  0  0  0  0  0  0
  -22.2430   -9.2290   20.3530 C   0  0  0  0  0  3  0  0  0  0  0  0
  -22.9780  -10.4160   20.1890 C   0  0  0  0  0  3  0  0  0  0  0  0
  -21.9090   -7.1010   21.3340 O   0  0  0  0  0  0  0  0  0  0  0  0
  -21.8620   -6.3410   22.4740 C   0  0  0  0  0  0  0  0  0  0  0  0
  -21.4620   -6.8810   23.7170 C   0  0  0  0  0  3  0  0  0  0  0  0
  -21.3620   -6.0490   24.8470 C   0  0  0  0  0  3  0  0  0  0  0  0
  -21.6510   -4.6750   24.7410 C   0  0  0  0  0  0  0  0  0  0  0  0
  -22.0420   -4.1330   23.5030 C   0  0  0  0  0  3  0  0  0  0  0  0
  -22.1440   -4.9630   22.3730 C   0  0  0  0  0  0  0  0  0  0  0  0
  -22.5020   -4.4310   21.1800 F   0  0  0  0  0  0  0  0  0  0  0  0
  -21.5460   -3.8730   25.8240 F   0  0  0  0  0  0  0  0  0  0  0  0
  -23.0750  -13.7340   21.2340 C   0  0  0  0  0  0  0  0  0  0  0  0
  -22.3880  -13.0170   22.1160 N   0  0  0  0  0  0  0  0  0  0  0  0
  -22.6180  -14.7800   20.7740 O   0  0  0  0  0  0  0  0  0  0  0  0
  -22.7660  -12.1680   22.5120 H   0  0  0  0  0  0  0  0  0  0  0  0
  -21.4710  -13.3240   22.4070 H   0  0  0  0  0  0  0  0  0  0  0  0
  -25.6750  -15.4050   20.3400 N   0  0  0  0  0  0  0  0  0  0  0  0
  -24.9150  -16.0610   20.4870 H   0  0  0  0  0  0  0  0  0  0  0  0
  -26.5100  -15.8420   19.9760 H   0  0  0  0  0  0  0  0  0  0  0  0
  -30.0090  -21.7840   19.0890 C   0  0  0  0  0  2  0  0  0  0  0  0
  -29.0780  -23.0160   19.0280 C   0  0  0  0  0  2  0  0  0  0  0  0
  -29.5690  -24.3440   19.6730 C   0  0  0  0  0  2  0  0  0  0  0  0
  -28.4230  -25.3660   19.5840 C   0  0  0  0  0  2  0  0  0  0  0  0
  -28.5870  -26.7210   20.0450 O   0  0  0  0  0  0  0  0  0  0  0  0
  -24.7270  -31.8550   23.2280 C   0  0  0  0  0  0  0  0  0  0  0  0
  -27.4120  -27.4680   20.0580 C   0  0  0  0  0  0  0  0  0  0  0  0
  -23.5370  -30.4570   21.5800 C   0  0  0  0  0  3  0  0  0  0  0  0
  -25.0020  -28.9710   20.1240 C   0  0  0  0  0  0  0  0  0  0  0  0
  -26.0670  -30.8420   21.3830 C   0  0  0  0  0  2  0  0  0  0  0  0
  -26.1640  -29.4860   20.7120 C   0  0  0  0  0  0  0  0  0  0  0  0
  -27.3720  -28.7440   20.6740 C   0  0  0  0  0  3  0  0  0  0  0  0
  -26.2120  -26.9820   19.4720 C   0  0  0  0  0  3  0  0  0  0  0  0
  -25.0220  -27.7190   19.5010 C   0  0  0  0  0  3  0  0  0  0  0  0
  -23.7450  -29.8030   20.1920 C   0  0  0  0  0  2  0  0  0  0  0  0
  -24.7960  -31.0660   22.1190 N   0  0  0  0  0  0  0  0  0  0  0  0
  -23.6420  -32.1150   23.7670 O   0  0  0  0  0  0  0  0  0  0  0  0
  -22.9000  -29.4140   22.5270 C   0  0  0  0  0  0  0  0  0  0  0  0
  -21.5810  -29.2110   22.3880 N   0  0  0  0  0  0  0  0  0  0  0  0
  -23.5910  -28.7920   23.3370 O   0  0  0  0  0  0  0  0  0  0  0  0
  -21.0890  -29.7660   21.7040 H   0  0  0  0  0  0  0  0  0  0  0  0
  -18.2170  -27.9710   22.8700 C   0  0  0  0  0  0  0  0  0  0  0  0
  -20.7730  -28.2530   23.1420 C   0  0  0  0  0  3  0  0  0  0  0  0
  -20.8880  -26.8330   22.5410 C   0  0  0  0  0  2  0  0  0  0  0  0
  -19.7860  -26.5150   21.5240 C   0  0  0  0  0  2  0  0  0  0  0  0
  -18.4050  -26.6350   22.1750 C   0  0  0  0  0  2  0  0  0  0  0  0
  -19.3280  -28.7390   23.3100 C   0  0  0  0  0  0  0  0  0  0  0  0
  -19.0980  -29.9910   23.9180 C   0  0  0  0  0  3  0  0  0  0  0  0
  -17.7890  -30.4790   24.0900 C   0  0  0  0  0  3  0  0  0  0  0  0
  -16.6920  -29.7070   23.6670 C   0  0  0  0  0  3  0  0  0  0  0  0
  -16.9050  -28.4550   23.0660 C   0  0  0  0  0  3  0  0  0  0  0  0
  -26.0050  -32.4900   23.8580 C   0  0  0  0  0  3  0  0  0  0  0  0
  -25.6870  -33.8900   24.1770 N   0  0  0  0  0  0  0  0  0  0  0  0
  -26.0340  -34.9390   23.4190 C   0  0  0  0  0  0  0  0  0  0  0  0
  -26.7260  -34.8320   22.4050 O   0  0  0  0  0  0  0  0  0  0  0  0
  -25.0660  -34.0480   24.9580 H   0  0  0  0  0  0  0  0  0  0  0  0
  -24.3150  -36.7280   23.0180 C   0  0  0  0  0  1  0  0  0  0  0  0
  -25.5360  -36.3270   23.8620 C   0  0  0  0  0  3  0  0  0  0  0  0
  -27.6520  -37.2090   24.7420 C   0  0  0  0  0  1  0  0  0  0  0  0
  -26.5730  -37.3780   23.7710 N   0  0  0  0  0  0  0  0  0  0  0  0
  -26.1690  -38.3030   23.8960 H   0  0  0  0  0  0  0  0  0  0  0  0
  -26.5130  -31.7240   25.1410 C   0  0  1  0  0  0  0  0  0  0  0  0
  -25.4040  -31.4810   26.1930 C   0  0  0  0  0  1  0  0  0  0  0  0
  -27.1140  -30.3500   24.7590 C   0  0  0  0  0  1  0  0  0  0  0  0
  -27.6480  -32.5320   25.8110 C   0  0  0  0  0  1  0  0  0  0  0  0
  2  1  1  0
  3  6  1  0
  4  9  1  0
  4  3  2  0
  5  8  1  0
  6  5  2  0
  6 19  1  0
  7  2  1  0
  7  5  1  0
  9  7  2  0
 10 19  1  0
 11 16  1  0
 12 13  1  0
 12 11  1  0
 14 13  1  0
 14 23  1  0
 14 15  1  0
 16 10  1  0
 16 15  1  0
 17 10  2  0
 19 18  1  0
 20 21  2  0
 21 40  1  0
 22 21  1  0
 22 25  1  0
 23 24  1  0
 23 20  1  0
 24 22  2  0
 25 26  1  0
 26 27  2  0
 28 31  1  0
 28 27  1  0
 29 28  2  0
 30 29  1  0
 30 25  2  0
 31 32  1  0
 32 33  1  0
 33 34  2  0
 35 34  1  0
 35 39  1  0
 36 35  2  0
 37 32  2  0
 37 36  1  0
 38 37  1  0
 40 41  1  0
 41 44  1  0
 41 43  1  0
 42 40  2  0
 45 20  1  0
 45 46  1  0
 47 45  1  0
 48  2  1  0
 49 48  1  0
 49 50  1  0
 51 50  1  0
 51 52  1  0
 52 54  1  0
 53 64  2  0
 54 59  1  0
 55 63  1  0
 55 65  1  0
 56 62  1  0
 56 58  1  0
 57 63  1  0
 58 57  1  0
 59 58  2  0
 60 61  1  0
 60 54  2  0
 61 56  2  0
 62 55  1  0
 63 53  1  0
 65 67  2  0
 66 65  1  0
 68 66  1  0
 69 78  2  0
 69 74  1  0
 70 66  1  0
 70 74  1  0
 71 70  1  0
 72 73  1  0
 72 71  1  0
 73 69  1  0
 74 75  2  0
 75 76  1  0
 77 76  2  0
 78 77  1  0
 79 53  1  0
 79 80  1  0
 79 89  1  0
 80 83  1  0
 81 85  1  0
 81 80  1  0
 82 81  2  0
 85 84  1  0
 87 85  1  0
 87 88  1  0
 87 86  1  0
 89 92  1  1
 89 90  1  0
 91 89  1  0
M  ISO  4  10 100  19 100  51 101  52 101
M  END
>  <TORSDO>  (42) 
F 21

>  <SCORE>  (42) 
-12.691

>  <name>  (42) 
42

>  <ligand_id>  (42) 
42

>  <original_smiles>  (42) 
[H]c1nc(C([H])(C([H])([H])[H])C([H])([H])C([H])([H])C([H])([H])C([H])([H])Oc2c([H])c([H])c3c(c2[H])C([H])([H])N(C(=O)C([H])(N([H])C(=O)C([H])(N([H])C([H])([H])[H])C([H])([H])[H])C(C([H])([H])[H])(C([H])([H])[H])C([H])([H])[H])C([H])(C(=O)N([H])C2([H])c4c([H])c([H])c([H])c([H])c4C([H])([H])C([H])([H])C2([H])[H])C3([H])[H])c(C([H])([H])[H])c(N(C(=O)N2C([H])([H])C([H])([H])C([H])([H])C([H])(n3nc(-c4c([H])c([H])c(Oc5c([H])c([H])c(F)c([H])c5F)c([H])c4[H])c(C(=O)N([H])[H])c3N([H])[H])C2([H])[H])C([H])([H])[H])c1[H]

>  <smiles>  (42) 
[H]c1nc(C([H])(C([H])([H])[H])C([H])([H])C([H])([H])C([H])([H])C([H])([H])Oc2c([H])c([H])c3c(c2[H])C([H])([H])N(C(=O)C([H])(N([H])C(=O)C([H])(N([H])C([H])([H])[H])C([H])([H])[H])C(C([H])([H])[H])(C([H])([H])[H])C([H])([H])[H])C([H])(C(=O)N([H])C2([H])c4c([H])c([H])c([H])c([H])c4C([H])([H])C([H])([H])C2([H])[H])C3([H])[H])c(C([H])([H])[H])c(N(C(=O)N2C([H])([H])C([H])([H])C([H])([H])C([H])(n3nc(-c4c([H])c([H])c(Oc5c([H])c([H])c(F)c([H])c5F)c([H])c4[H])c(C(=O)N([H])[H])c3N([H])[H])C2([H])[H])C([H])([H])[H])c1[H]

$$$$
43:0:0
     RDKit          3D

 91 99  0  0  1  0  0  0  0  0999 V2000
  -28.6300  -23.3070   20.8550 C   0  0  0  0  0  3  0  0  0  0  0  0
  -28.8610  -19.2040   18.8220 C   0  0  0  0  0  3  0  0  0  0  0  0
  -29.3280  -20.4670   20.8030 C   0  0  0  0  0  3  0  0  0  0  0  0
  -28.4000  -20.4300   18.2800 C   0  0  0  0  0  3  0  0  0  0  0  0
  -29.3800  -19.1420   20.1300 C   0  0  0  0  0  0  0  0  0  0  0  0
  -28.8460  -21.7570   20.2030 C   0  0  0  0  0  0  0  0  0  0  0  0
  -28.3890  -21.6330   18.9310 N   0  0  0  0  0  0  0  0  0  0  0  0
  -30.0820  -17.7360   20.6730 C   0  0  0  0  0  2  0  0  0  0  0  0
  -30.4890  -15.0310   20.2790 C   0  0  0  0  0  0  0  0  0  0  0  0
  -30.3820  -12.6730   19.3420 C   0  0  0  0  0  2  0  0  0  0  0  0
  -29.4530  -12.6360   18.1060 C   0  0  0  0  0  2  0  0  0  0  0  0
  -27.9860  -12.4300   18.5300 C   0  0  0  0  0  2  0  0  0  0  0  0
  -27.5820  -13.3300   19.7270 C   0  0  0  0  0  3  0  0  0  0  0  0
  -28.6400  -13.3440   20.8480 C   0  0  0  0  0  2  0  0  0  0  0  0
  -29.8990  -13.7700   20.2260 N   0  0  0  0  0  0  0  0  0  0  0  0
  -31.7040  -15.0830   20.0560 O   0  0  0  0  0  0  0  0  0  0  0  0
  -29.7110  -16.2220   20.3910 N   0  0  0  0  0  0  0  0  0  0  0  0
  -28.7190  -16.0500   20.4220 H   0  0  0  0  0  0  0  0  0  0  0  0
  -25.2090  -13.8990   20.4900 C   0  0  0  0  0  0  0  0  0  0  0  0
  -24.1500  -13.1200   20.8660 C   0  0  0  0  0  0  0  0  0  0  0  0
  -24.6180  -11.7680   20.8230 C   0  0  0  0  0  0  0  0  0  0  0  0
  -26.2510  -13.0240   20.2340 N   0  0  0  0  0  0  0  0  0  0  0  0
  -25.9080  -11.7390   20.5030 N   0  0  0  0  0  0  0  0  0  0  0  0
  -23.8930  -10.5050   21.0090 C   0  0  0  0  0  0  0  0  0  0  0  0
  -24.3200   -9.5410   21.9490 C   0  0  0  0  0  3  0  0  0  0  0  0
  -23.5950   -8.3430   22.1230 C   0  0  0  0  0  3  0  0  0  0  0  0
  -22.4290   -8.1000   21.3580 C   0  0  0  0  0  0  0  0  0  0  0  0
  -22.0210   -9.0540   20.4090 C   0  0  0  0  0  3  0  0  0  0  0  0
  -22.7460  -10.2450   20.2330 C   0  0  0  0  0  3  0  0  0  0  0  0
  -21.6740   -6.9540   21.4410 O   0  0  0  0  0  0  0  0  0  0  0  0
  -21.6080   -6.2190   22.5970 C   0  0  0  0  0  0  0  0  0  0  0  0
  -21.1400   -6.7760   23.8070 C   0  0  0  0  0  3  0  0  0  0  0  0
  -21.0200   -5.9670   24.9530 C   0  0  0  0  0  3  0  0  0  0  0  0
  -21.3570   -4.6020   24.8910 C   0  0  0  0  0  0  0  0  0  0  0  0
  -21.8160   -4.0440   23.6850 C   0  0  0  0  0  3  0  0  0  0  0  0
  -21.9370   -4.8490   22.5390 C   0  0  0  0  0  0  0  0  0  0  0  0
  -22.3600   -4.3010   21.3760 F   0  0  0  0  0  0  0  0  0  0  0  0
  -21.2340   -3.8220   25.9920 F   0  0  0  0  0  0  0  0  0  0  0  0
  -22.7540  -13.5920   21.1460 C   0  0  0  0  0  0  0  0  0  0  0  0
  -22.0270  -12.8860   22.0050 N   0  0  0  0  0  0  0  0  0  0  0  0
  -22.3140  -14.6260   20.6390 O   0  0  0  0  0  0  0  0  0  0  0  0
  -22.3960  -12.0500   22.4360 H   0  0  0  0  0  0  0  0  0  0  0  0
  -21.0910  -13.1850   22.2380 H   0  0  0  0  0  0  0  0  0  0  0  0
  -25.3720  -15.2690   20.3140 N   0  0  0  0  0  0  0  0  0  0  0  0
  -24.6060  -15.9240   20.4240 H   0  0  0  0  0  0  0  0  0  0  0  0
  -26.2020  -15.7040   19.9360 H   0  0  0  0  0  0  0  0  0  0  0  0
  -29.0480  -24.7940   22.9850 C   0  0  0  0  0  1  0  0  0  0  0  0
  -30.1950  -22.6390   22.9110 C   0  0  0  0  0  1  0  0  0  0  0  0
  -29.6260  -23.7430   22.0020 C   0  0  0  0  0  3  0  0  0  0  0  0
  -28.3260  -24.7040   19.9090 C   0  0  0  0  0  2  0  0  0  0  0  0
  -28.3010  -26.2310   20.3040 O   0  0  0  0  0  0  0  0  0  0  0  0
  -24.6250  -31.9080   23.2040 C   0  0  0  0  0  0  0  0  0  0  0  0
  -27.2170  -27.1840   20.1990 C   0  0  0  0  0  0  0  0  0  0  0  0
  -23.4240  -30.5090   21.5620 C   0  0  0  0  0  3  0  0  0  0  0  0
  -24.8820  -28.9310   20.1410 C   0  0  0  0  0  0  0  0  0  0  0  0
  -25.9760  -30.7870   21.3860 C   0  0  0  0  0  2  0  0  0  0  0  0
  -26.0540  -29.3820   20.7540 C   0  0  0  0  0  0  0  0  0  0  0  0
  -27.2140  -28.5230   20.7690 C   0  0  0  0  0  3  0  0  0  0  0  0
  -26.0160  -26.8370   19.5370 C   0  0  0  0  0  3  0  0  0  0  0  0
  -24.8770  -27.6740   19.5130 C   0  0  0  0  0  3  0  0  0  0  0  0
  -23.6490  -29.8230   20.1840 C   0  0  0  0  0  2  0  0  0  0  0  0
  -24.6960  -31.0900   22.1090 N   0  0  0  0  0  0  0  0  0  0  0  0
  -23.5370  -32.1900   23.7320 O   0  0  0  0  0  0  0  0  0  0  0  0
  -22.7480  -29.5040   22.5290 C   0  0  0  0  0  0  0  0  0  0  0  0
  -21.4190  -29.3340   22.4070 N   0  0  0  0  0  0  0  0  0  0  0  0
  -23.4180  -28.8780   23.3530 O   0  0  0  0  0  0  0  0  0  0  0  0
  -20.9240  -29.9010   21.7320 H   0  0  0  0  0  0  0  0  0  0  0  0
  -18.0400  -28.1390   22.9170 C   0  0  0  0  0  0  0  0  0  0  0  0
  -20.5990  -28.3970   23.1820 C   0  0  0  0  0  3  0  0  0  0  0  0
  -20.6970  -26.9610   22.6110 C   0  0  0  0  0  2  0  0  0  0  0  0
  -19.5930  -26.6440   21.5980 C   0  0  0  0  0  2  0  0  0  0  0  0
  -18.2130  -26.7910   22.2440 C   0  0  0  0  0  2  0  0  0  0  0  0
  -19.1580  -28.8980   23.3480 C   0  0  0  0  0  0  0  0  0  0  0  0
  -18.9400  -30.1590   23.9430 C   0  0  0  0  0  3  0  0  0  0  0  0
  -17.6340  -30.6590   24.1090 C   0  0  0  0  0  3  0  0  0  0  0  0
  -16.5300  -29.8950   23.6940 C   0  0  0  0  0  3  0  0  0  0  0  0
  -16.7330  -28.6340   23.1020 C   0  0  0  0  0  3  0  0  0  0  0  0
  -25.9010  -32.5460   23.8350 C   0  0  0  0  0  3  0  0  0  0  0  0
  -26.4090  -31.7690   25.1090 C   0  0  1  0  0  0  0  0  0  0  0  0
  -25.3140  -31.5260   26.1720 C   0  0  0  0  0  1  0  0  0  0  0  0
  -26.9800  -30.3890   24.7090 C   0  0  0  0  0  1  0  0  0  0  0  0
  -27.5660  -32.5430   25.7780 C   0  0  0  0  0  1  0  0  0  0  0  0
  -25.5940  -33.9460   24.1780 N   0  0  0  0  0  0  0  0  0  0  0  0
  -25.9160  -35.0050   23.4240 C   0  0  0  0  0  0  0  0  0  0  0  0
  -26.5800  -34.9060   22.3900 O   0  0  0  0  0  0  0  0  0  0  0  0
  -25.0010  -34.0990   24.9810 H   0  0  0  0  0  0  0  0  0  0  0  0
  -24.1840  -36.7990   23.0890 C   0  0  0  0  0  1  0  0  0  0  0  0
  -25.4310  -36.3930   23.8900 C   0  0  0  0  0  3  0  0  0  0  0  0
  -27.5690  -37.2780   24.7080 C   0  0  0  0  0  1  0  0  0  0  0  0
  -26.4600  -37.4470   23.7720 N   0  0  0  0  0  0  0  0  0  0  0  0
  -26.0520  -38.3670   23.9220 H   0  0  0  0  0  0  0  0  0  0  0  0
  1 50  1  0
  1 49  1  0
  2  5  1  0
  4  2  2  0
  4  7  1  0
  5  8  1  0
  5  3  2  0
  6  3  1  0
  6  1  1  0
  7  6  2  0
  9 17  1  0
 10 15  1  0
 11 12  1  0
 11 10  1  0
 13 12  1  0
 13 22  1  0
 13 14  1  0
 15  9  1  0
 15 14  1  0
 16  9  2  0
 17 18  1  0
 17  8  1  0
 19 20  2  0
 20 39  1  0
 21 20  1  0
 21 24  1  0
 22 19  1  0
 22 23  1  0
 23 21  2  0
 24 25  1  0
 25 26  2  0
 27 30  1  0
 27 26  1  0
 28 27  2  0
 29 28  1  0
 29 24  2  0
 30 31  1  0
 31 32  1  0
 32 33  2  0
 34 33  1  0
 34 38  1  0
 35 34  2  0
 36 31  2  0
 36 35  1  0
 37 36  1  0
 39 40  1  0
 40 43  1  0
 40 42  1  0
 41 39  2  0
 44 45  1  0
 44 19  1  0
 46 44  1  0
 49 48  1  0
 49 47  1  0
 50 51  1  0
 52 63  2  0
 53 51  1  0
 53 58  1  0
 54 62  1  0
 54 64  1  0
 55 61  1  0
 55 57  1  0
 56 62  1  0
 57 58  2  0
 57 56  1  0
 59 53  2  0
 60 59  1  0
 60 55  2  0
 61 54  1  0
 62 52  1  0
 64 66  2  0
 65 64  1  0
 67 65  1  0
 68 77  2  0
 68 73  1  0
 69 65  1  0
 69 73  1  0
 70 69  1  0
 71 72  1  0
 71 70  1  0
 72 68  1  0
 73 74  2  0
 74 75  1  0
 76 75  2  0
 77 76  1  0
 78 52  1  0
 78 83  1  0
 78 79  1  0
 79 82  1  1
 79 80  1  0
 81 79  1  0
 83 86  1  0
 84 88  1  0
 84 83  1  0
 85 84  2  0
 88 87  1  0
 90 88  1  0
 90 91  1  0
 90 89  1  0
M  ISO  4   9 100  17 100  50 101  51 101
M  END
>  <TORSDO>  (43) 
F 20

>  <SCORE>  (43) 
-15.378

>  <name>  (43) 
43

>  <ligand_id>  (43) 
43

>  <original_smiles>  (43) 
[H]c1nc(C([H])(C([H])([H])Oc2c([H])c([H])c3c(c2[H])C([H])([H])N(C(=O)C([H])(N([H])C(=O)C([H])(N([H])C([H])([H])[H])C([H])([H])[H])C(C([H])([H])[H])(C([H])([H])[H])C([H])([H])[H])C([H])(C(=O)N([H])C2([H])c4c([H])c([H])c([H])c([H])c4C([H])([H])C([H])([H])C2([H])[H])C3([H])[H])C([H])(C([H])([H])[H])C([H])([H])[H])c([H])c(C([H])([H])N([H])C(=O)N2C([H])([H])C([H])([H])C([H])([H])C([H])(n3nc(-c4c([H])c([H])c(Oc5c([H])c([H])c(F)c([H])c5F)c([H])c4[H])c(C(=O)N([H])[H])c3N([H])[H])C2([H])[H])c1[H]

>  <smiles>  (43) 
[H]c1nc(C([H])(C([H])([H])Oc2c([H])c([H])c3c(c2[H])C([H])([H])N(C(=O)C([H])(N([H])C(=O)C([H])(N([H])C([H])([H])[H])C([H])([H])[H])C(C([H])([H])[H])(C([H])([H])[H])C([H])([H])[H])C([H])(C(=O)N([H])C2([H])c4c([H])c([H])c([H])c([H])c4C([H])([H])C([H])([H])C2([H])[H])C3([H])[H])C([H])(C([H])([H])[H])C([H])([H])[H])c([H])c(C([H])([H])N([H])C(=O)N2C([H])([H])C([H])([H])C([H])([H])C([H])(n3nc(-c4c([H])c([H])c(Oc5c([H])c([H])c(F)c([H])c5F)c([H])c4[H])c(C(=O)N([H])[H])c3N([H])[H])C2([H])[H])c1[H]

$$$$
44:0:0
     RDKit          3D

 89 96  0  0  1  0  0  0  0  0999 V2000
  -28.1010  -21.5220   19.6000 C   0  0  0  0  0  2  0  0  0  0  0  0
  -28.4750  -19.6560   18.0540 C   0  0  0  0  0  1  0  0  0  0  0  0
  -28.9780  -20.3320   19.2830 N   0  0  2  0  0  4  0  0  0  0  0  0
  -29.8730  -20.7090   19.0070 H   0  0  0  0  0  0  0  0  0  0  0  0
  -29.2540  -19.3780   20.4230 C   0  0  0  0  0  3  0  0  0  0  0  0
  -29.6170  -17.8890   20.0270 C   0  0  0  0  0  3  0  0  0  0  0  0
  -30.1260  -16.9500   21.1690 C   0  0  0  0  0  2  0  0  0  0  0  0
  -30.6190  -14.5200   20.4520 C   0  0  0  0  0  0  0  0  0  0  0  0
  -30.3660  -12.3570   19.2770 C   0  0  0  0  0  2  0  0  0  0  0  0
  -29.4040  -12.5500   18.0840 C   0  0  0  0  0  2  0  0  0  0  0  0
  -27.9330  -12.4010   18.5250 C   0  0  0  0  0  2  0  0  0  0  0  0
  -27.6030  -13.2330   19.7930 C   0  0  0  0  0  3  0  0  0  0  0  0
  -28.6650  -12.9910   20.8900 C   0  0  0  0  0  2  0  0  0  0  0  0
  -29.9820  -13.3220   20.3180 N   0  0  0  0  0  0  0  0  0  0  0  0
  -31.7520  -14.7310   20.0110 O   0  0  0  0  0  0  0  0  0  0  0  0
  -29.8460  -15.5090   20.9580 N   0  0  0  0  0  0  0  0  0  0  0  0
  -28.9340  -15.1990   21.2570 H   0  0  0  0  0  0  0  0  0  0  0  0
  -25.2100  -13.8560   20.5020 C   0  0  0  0  0  0  0  0  0  0  0  0
  -24.1390  -13.0910   20.8780 C   0  0  0  0  0  0  0  0  0  0  0  0
  -24.5940  -11.7370   20.8540 C   0  0  0  0  0  0  0  0  0  0  0  0
  -26.2500  -12.9680   20.2760 N   0  0  0  0  0  0  0  0  0  0  0  0
  -25.8830  -11.6890   20.5440 N   0  0  0  0  0  0  0  0  0  0  0  0
  -23.8650  -10.4800   21.0520 C   0  0  0  0  0  0  0  0  0  0  0  0
  -24.3100   -9.5040   21.9730 C   0  0  0  0  0  3  0  0  0  0  0  0
  -23.5810   -8.3100   22.1590 C   0  0  0  0  0  3  0  0  0  0  0  0
  -22.3940   -8.0820   21.4230 C   0  0  0  0  0  0  0  0  0  0  0  0
  -21.9680   -9.0460   20.4910 C   0  0  0  0  0  3  0  0  0  0  0  0
  -22.6970  -10.2320   20.3050 C   0  0  0  0  0  3  0  0  0  0  0  0
  -21.6330   -6.9420   21.5200 O   0  0  0  0  0  0  0  0  0  0  0  0
  -21.6170   -6.1820   22.6630 C   0  0  0  0  0  0  0  0  0  0  0  0
  -21.2460   -6.7260   23.9120 C   0  0  0  0  0  3  0  0  0  0  0  0
  -21.1750   -5.8940   25.0480 C   0  0  0  0  0  3  0  0  0  0  0  0
  -21.4640   -4.5210   24.9360 C   0  0  0  0  0  0  0  0  0  0  0  0
  -21.8270   -3.9780   23.6910 C   0  0  0  0  0  3  0  0  0  0  0  0
  -21.9010   -4.8060   22.5580 C   0  0  0  0  0  0  0  0  0  0  0  0
  -22.2320   -4.2730   21.3570 F   0  0  0  0  0  0  0  0  0  0  0  0
  -21.3890   -3.7210   26.0240 F   0  0  0  0  0  0  0  0  0  0  0  0
  -22.7450  -13.5760   21.1500 C   0  0  0  0  0  0  0  0  0  0  0  0
  -22.0170  -12.8880   22.0230 N   0  0  0  0  0  0  0  0  0  0  0  0
  -22.3080  -14.5990   20.6250 O   0  0  0  0  0  0  0  0  0  0  0  0
  -22.3810  -12.0590   22.4680 H   0  0  0  0  0  0  0  0  0  0  0  0
  -21.0810  -13.1930   22.2480 H   0  0  0  0  0  0  0  0  0  0  0  0
  -25.3830  -15.2250   20.3160 N   0  0  0  0  0  0  0  0  0  0  0  0
  -24.6200  -15.8870   20.4170 H   0  0  0  0  0  0  0  0  0  0  0  0
  -26.2310  -15.6520   19.9650 H   0  0  0  0  0  0  0  0  0  0  0  0
  -28.7670  -22.7700   20.2660 C   0  0  0  0  0  2  0  0  0  0  0  0
  -28.1440  -24.1410   19.8160 C   0  0  0  0  0  2  0  0  0  0  0  0
  -28.4240  -25.3660   20.7410 C   0  0  0  0  0  2  0  0  0  0  0  0
  -28.3930  -26.6740   20.1200 O   0  0  0  0  0  0  0  0  0  0  0  0
  -24.5990  -31.8760   23.2490 C   0  0  0  0  0  0  0  0  0  0  0  0
  -27.2180  -27.4010   20.1700 C   0  0  0  0  0  0  0  0  0  0  0  0
  -23.3820  -30.4740   21.6150 C   0  0  0  0  0  3  0  0  0  0  0  0
  -24.8270  -28.9260   20.1860 C   0  0  0  0  0  0  0  0  0  0  0  0
  -25.9080  -30.8240   21.4020 C   0  0  0  0  0  2  0  0  0  0  0  0
  -25.9900  -29.4470   20.7670 C   0  0  0  0  0  0  0  0  0  0  0  0
  -27.1900  -28.6940   20.7500 C   0  0  0  0  0  3  0  0  0  0  0  0
  -26.0380  -26.8980   19.5850 C   0  0  0  0  0  3  0  0  0  0  0  0
  -24.8470  -27.6520   19.5910 C   0  0  0  0  0  3  0  0  0  0  0  0
  -23.5850  -29.7910   20.2350 C   0  0  0  0  0  2  0  0  0  0  0  0
  -24.6490  -31.0740   22.1460 N   0  0  0  0  0  0  0  0  0  0  0  0
  -23.5210  -32.1490   23.7960 O   0  0  0  0  0  0  0  0  0  0  0  0
  -22.7340  -29.4550   22.5790 C   0  0  0  0  0  0  0  0  0  0  0  0
  -21.4090  -29.2740   22.4600 N   0  0  0  0  0  0  0  0  0  0  0  0
  -23.4220  -28.8300   23.3910 O   0  0  0  0  0  0  0  0  0  0  0  0
  -20.9160  -29.8310   21.7770 H   0  0  0  0  0  0  0  0  0  0  0  0
  -18.0390  -28.0720   22.9650 C   0  0  0  0  0  0  0  0  0  0  0  0
  -20.5960  -28.3360   23.2330 C   0  0  0  0  0  3  0  0  0  0  0  0
  -20.7010  -26.9030   22.6590 C   0  0  0  0  0  2  0  0  0  0  0  0
  -19.5980  -26.5760   21.6480 C   0  0  0  0  0  2  0  0  0  0  0  0
  -18.2170  -26.7210   22.2930 C   0  0  0  0  0  2  0  0  0  0  0  0
  -19.1570  -28.8360   23.3930 C   0  0  0  0  0  0  0  0  0  0  0  0
  -18.9370  -30.1020   23.9810 C   0  0  0  0  0  3  0  0  0  0  0  0
  -17.6310  -30.6020   24.1460 C   0  0  0  0  0  3  0  0  0  0  0  0
  -16.5290  -29.8340   23.7360 C   0  0  0  0  0  3  0  0  0  0  0  0
  -16.7330  -28.5710   23.1520 C   0  0  0  0  0  3  0  0  0  0  0  0
  -25.8890  -32.5060   23.8630 C   0  0  0  0  0  3  0  0  0  0  0  0
  -25.5860  -33.9040   24.1950 N   0  0  0  0  0  0  0  0  0  0  0  0
  -25.9130  -34.9560   23.4320 C   0  0  0  0  0  0  0  0  0  0  0  0
  -26.5750  -34.8500   22.3960 O   0  0  0  0  0  0  0  0  0  0  0  0
  -25.0050  -34.0620   25.0060 H   0  0  0  0  0  0  0  0  0  0  0  0
  -24.1840  -36.7470   23.0850 C   0  0  0  0  0  1  0  0  0  0  0  0
  -25.4290  -36.3440   23.8910 C   0  0  0  0  0  3  0  0  0  0  0  0
  -27.5690  -37.2250   24.7080 C   0  0  0  0  0  1  0  0  0  0  0  0
  -26.4610  -37.3970   23.7720 N   0  0  0  0  0  0  0  0  0  0  0  0
  -26.0570  -38.3160   23.9260 H   0  0  0  0  0  0  0  0  0  0  0  0
  -26.4150  -31.7330   25.1340 C   0  0  1  0  0  0  0  0  0  0  0  0
  -25.3300  -31.4930   26.2110 C   0  0  0  0  0  1  0  0  0  0  0  0
  -26.9910  -30.3560   24.7310 C   0  0  0  0  0  1  0  0  0  0  0  0
  -27.5740  -32.5230   25.7870 C   0  0  0  0  0  1  0  0  0  0  0  0
  1 46  1  0
  2  3  1  0
  3  1  1  0
  3  5  1  0
  3  4  1  6
  6  5  2  0
  6  7  1  0
  8 16  1  0
  9 14  1  0
 10 11  1  0
 10  9  1  0
 12 11  1  0
 12 21  1  0
 12 13  1  0
 14  8  1  0
 14 13  1  0
 15  8  2  0
 16  7  1  0
 16 17  1  0
 18 19  2  0
 19 38  1  0
 20 19  1  0
 20 23  1  0
 21 18  1  0
 21 22  1  0
 22 20  2  0
 23 24  1  0
 24 25  2  0
 26 29  1  0
 26 25  1  0
 27 26  2  0
 28 27  1  0
 28 23  2  0
 29 30  1  0
 30 31  1  0
 31 32  2  0
 33 32  1  0
 33 37  1  0
 34 33  2  0
 35 30  2  0
 35 34  1  0
 36 35  1  0
 38 39  1  0
 39 42  1  0
 39 41  1  0
 40 38  2  0
 43 44  1  0
 43 18  1  0
 45 43  1  0
 47 46  1  0
 47 48  1  0
 49 51  1  0
 49 48  1  0
 50 61  2  0
 51 56  1  0
 52 60  1  0
 52 62  1  0
 53 59  1  0
 53 55  1  0
 54 60  1  0
 55 54  1  0
 56 55  2  0
 57 58  1  0
 57 51  2  0
 58 53  2  0
 59 52  1  0
 60 50  1  0
 62 64  2  0
 63 62  1  0
 65 63  1  0
 66 75  2  0
 66 71  1  0
 67 63  1  0
 67 71  1  0
 68 67  1  0
 69 70  1  0
 69 68  1  0
 70 66  1  0
 71 72  2  0
 72 73  1  0
 74 73  2  0
 75 74  1  0
 76 50  1  0
 76 77  1  0
 76 86  1  0
 77 80  1  0
 78 82  1  0
 78 77  1  0
 79 78  2  0
 82 81  1  0
 84 82  1  0
 84 85  1  0
 84 83  1  0
 86 89  1  1
 86 87  1  0
 88 86  1  0
M  ISO  4   8 100  16 100  48 101  49 101
M  END
>  <TORSDO>  (44) 
F 23

>  <SCORE>  (44) 
-12.707

>  <name>  (44) 
44

>  <ligand_id>  (44) 
44

>  <original_smiles>  (44) 
[H]c1c([H])c([H])c2c(c1[H])C([H])([H])C([H])([H])C([H])([H])C2([H])N([H])C(=O)C1([H])N(C(=O)C([H])(N([H])C(=O)C([H])(N([H])C([H])([H])[H])C([H])([H])[H])C(C([H])([H])[H])(C([H])([H])[H])C([H])([H])[H])C([H])([H])c2c([H])c(OC([H])([H])C([H])([H])C([H])([H])C([H])([H])[N+]([H])(C([H])([H])[H])C([H])([H])C([H])([H])C([H])([H])N([H])C(=O)N3C([H])([H])C([H])([H])C([H])([H])C([H])(n4nc(-c5c([H])c([H])c(Oc6c([H])c([H])c(F)c([H])c6F)c([H])c5[H])c(C(=O)N([H])[H])c4N([H])[H])C3([H])[H])c([H])c([H])c2C1([H])[H]

>  <smiles>  (44) 
[H]c1c([H])c([H])c2c(c1[H])C([H])([H])C([H])([H])C([H])([H])C2([H])N([H])C(=O)C1([H])N(C(=O)C([H])(N([H])C(=O)C([H])(N([H])C([H])([H])[H])C([H])([H])[H])C(C([H])([H])[H])(C([H])([H])[H])C([H])([H])[H])C([H])([H])c2c([H])c(OC([H])([H])C([H])([H])C([H])([H])C([H])([H])[N+]([H])(C([H])([H])[H])C([H])([H])C([H])([H])C([H])([H])N([H])C(=O)N3C([H])([H])C([H])([H])C([H])([H])C([H])(n4nc(-c5c([H])c([H])c(Oc6c([H])c([H])c(F)c([H])c6F)c([H])c5[H])c(C(=O)N([H])[H])c4N([H])[H])C3([H])[H])c([H])c([H])c2C1([H])[H]

$$$$
45:0:0
     RDKit          3D

104112  0  0  1  0  0  0  0  0999 V2000
  -33.8220  -23.5650   20.5410 C   0  0  0  0  0  3  0  0  0  0  0  0
  -34.8100  -22.8760   19.7860 C   0  0  0  0  0  0  0  0  0  0  0  0
  -32.6330  -22.9080   20.4360 C   0  0  0  0  0  0  0  0  0  0  0  0
  -34.1820  -21.7880   19.2280 C   0  0  0  0  0  0  0  0  0  0  0  0
  -34.7310  -20.7070   18.3380 C   0  0  0  0  0  1  0  0  0  0  0  0
  -32.8450  -21.7950   19.6340 N   0  0  0  0  0  0  0  0  0  0  0  0
  -36.2650  -23.3090   19.6530 C   0  0  0  0  0  3  0  0  0  0  0  0
  -37.2160  -21.5880   21.1830 C   0  0  0  0  0  1  0  0  0  0  0  0
  -37.0060  -23.0220   20.8980 N   0  0  0  0  0  4  0  0  0  0  0  0
  -37.9100  -23.4590   20.8340 H   0  0  0  0  0  0  0  0  0  0  0  0
  -36.5170  -23.4400   21.6730 H   0  0  0  0  0  0  0  0  0  0  0  0
  -36.3820  -24.8030   19.2670 C   0  0  0  0  0  2  0  0  0  0  0  0
  -35.9060  -26.6040   17.5000 C   0  0  0  0  0  1  0  0  0  0  0  0
  -35.7760  -25.1250   17.8870 C   0  0  0  0  0  2  0  0  0  0  0  0
  -31.8400  -20.7880   19.2990 C   0  0  0  0  0  2  0  0  0  0  0  0
  -31.8090  -19.6800   20.3670 C   0  0  0  0  0  2  0  0  0  0  0  0
  -29.4550  -19.0070   20.6600 C   0  0  0  0  0  1  0  0  0  0  0  0
  -30.7760  -18.6480   20.0890 N   0  0  2  0  0  4  0  0  0  0  0  0
  -30.6530  -18.6470   19.0860 H   0  0  0  0  0  0  0  0  0  0  0  0
  -31.2530  -17.2800   20.4410 C   0  0  0  0  0  2  0  0  0  0  0  0
  -30.1300  -16.2210   20.5180 C   0  0  0  0  0  2  0  0  0  0  0  0
  -30.9040  -14.0610   19.6390 C   0  0  0  0  0  0  0  0  0  0  0  0
  -30.3410  -11.9500   18.4930 C   0  0  0  0  0  2  0  0  0  0  0  0
  -29.2670  -12.1460   17.4080 C   0  0  0  0  0  2  0  0  0  0  0  0
  -27.8510  -12.0680   18.0110 C   0  0  0  0  0  2  0  0  0  0  0  0
  -27.6880  -12.9720   19.2600 C   0  0  0  0  0  3  0  0  0  0  0  0
  -28.8480  -12.7400   20.2520 C   0  0  0  0  0  2  0  0  0  0  0  0
  -30.1310  -12.9490   19.5500 N   0  0  0  0  0  0  0  0  0  0  0  0
  -31.7800  -14.3570   18.8180 O   0  0  0  0  0  0  0  0  0  0  0  0
  -31.0740  -14.4750   22.0340 C   0  0  0  0  0  1  0  0  0  0  0  0
  -30.6270  -14.8550   20.6930 N   0  0  0  0  0  0  0  0  0  0  0  0
  -25.4400  -13.7180   20.2790 C   0  0  0  0  0  0  0  0  0  0  0  0
  -24.3780  -13.0050   20.7700 C   0  0  0  0  0  0  0  0  0  0  0  0
  -24.7390  -11.6290   20.6500 C   0  0  0  0  0  0  0  0  0  0  0  0
  -26.3870  -12.7760   19.8980 N   0  0  0  0  0  0  0  0  0  0  0  0
  -25.9740  -11.5130   20.1790 N   0  0  0  0  0  0  0  0  0  0  0  0
  -23.9610  -10.4090   20.9100 C   0  0  0  0  0  0  0  0  0  0  0  0
  -24.4310   -9.4130   21.7930 C   0  0  0  0  0  3  0  0  0  0  0  0
  -23.6630   -8.2550   22.0400 C   0  0  0  0  0  3  0  0  0  0  0  0
  -22.4080   -8.0880   21.4060 C   0  0  0  0  0  0  0  0  0  0  0  0
  -21.9550   -9.0730   20.5110 C   0  0  0  0  0  3  0  0  0  0  0  0
  -22.7230  -10.2230   20.2630 C   0  0  0  0  0  3  0  0  0  0  0  0
  -21.6040   -6.9850   21.5650 O   0  0  0  0  0  0  0  0  0  0  0  0
  -21.6140   -6.2470   22.7210 C   0  0  0  0  0  0  0  0  0  0  0  0
  -21.3350   -6.8260   23.9780 C   0  0  0  0  0  3  0  0  0  0  0  0
  -21.2880   -6.0160   25.1300 C   0  0  0  0  0  3  0  0  0  0  0  0
  -21.5100   -4.6310   25.0270 C   0  0  0  0  0  0  0  0  0  0  0  0
  -21.7820   -4.0520   23.7750 C   0  0  0  0  0  3  0  0  0  0  0  0
  -21.8300   -4.8570   22.6250 C   0  0  0  0  0  0  0  0  0  0  0  0
  -22.0700   -4.2920   21.4180 F   0  0  0  0  0  0  0  0  0  0  0  0
  -21.4590   -3.8510   26.1340 F   0  0  0  0  0  0  0  0  0  0  0  0
  -23.0610  -13.5610   21.2310 C   0  0  0  0  0  0  0  0  0  0  0  0
  -22.4120  -12.8970   22.1820 N   0  0  0  0  0  0  0  0  0  0  0  0
  -22.6190  -14.6180   20.7810 O   0  0  0  0  0  0  0  0  0  0  0  0
  -22.7830  -12.0430   22.5700 H   0  0  0  0  0  0  0  0  0  0  0  0
  -21.5290  -13.2480   22.5260 H   0  0  0  0  0  0  0  0  0  0  0  0
  -25.6760  -15.0790   20.1070 N   0  0  0  0  0  0  0  0  0  0  0  0
  -24.9890  -15.7890   20.3370 H   0  0  0  0  0  0  0  0  0  0  0  0
  -26.5080  -15.4610   19.6750 H   0  0  0  0  0  0  0  0  0  0  0  0
  -31.3220  -23.2840   21.0590 C   0  0  0  0  0  2  0  0  0  0  0  0
  -30.7000  -24.5390   20.4180 C   0  0  0  0  0  2  0  0  0  0  0  0
  -29.7190  -25.2520   21.3620 C   0  0  0  0  0  2  0  0  0  0  0  0
  -29.2530  -26.6310   20.8730 C   0  0  0  0  0  2  0  0  0  0  0  0
  -28.2900  -26.5000   19.8240 O   0  0  0  0  0  0  0  0  0  0  0  0
  -24.6390  -31.6800   23.0940 C   0  0  0  0  0  0  0  0  0  0  0  0
  -27.1640  -27.2950   19.8780 C   0  0  0  0  0  0  0  0  0  0  0  0
  -23.3700  -30.3380   21.4420 C   0  0  0  0  0  3  0  0  0  0  0  0
  -24.7710  -28.8070   19.9540 C   0  0  0  0  0  0  0  0  0  0  0  0
  -25.8890  -30.6700   21.1960 C   0  0  0  0  0  2  0  0  0  0  0  0
  -25.9400  -29.3130   20.5320 C   0  0  0  0  0  0  0  0  0  0  0  0
  -27.1370  -28.5730   20.4850 C   0  0  0  0  0  3  0  0  0  0  0  0
  -25.9830  -26.8040   19.2830 C   0  0  0  0  0  3  0  0  0  0  0  0
  -24.7860  -27.5490   19.3200 C   0  0  0  0  0  3  0  0  0  0  0  0
  -23.5370  -29.6770   20.0440 C   0  0  0  0  0  2  0  0  0  0  0  0
  -24.6510  -30.9090   21.9690 N   0  0  0  0  0  0  0  0  0  0  0  0
  -23.5770  -31.9590   23.6650 O   0  0  0  0  0  0  0  0  0  0  0  0
  -22.7180  -29.3120   22.3950 C   0  0  0  0  0  0  0  0  0  0  0  0
  -21.3850  -29.1760   22.3010 N   0  0  0  0  0  0  0  0  0  0  0  0
  -23.4050  -28.6430   23.1720 O   0  0  0  0  0  0  0  0  0  0  0  0
  -20.8940  -29.7650   21.6440 H   0  0  0  0  0  0  0  0  0  0  0  0
  -17.9890  -28.0840   22.8590 C   0  0  0  0  0  0  0  0  0  0  0  0
  -20.5600  -28.2410   23.0650 C   0  0  0  0  0  3  0  0  0  0  0  0
  -20.5950  -26.8270   22.4390 C   0  0  0  0  0  2  0  0  0  0  0  0
  -19.4530  -26.5780   21.4480 C   0  0  0  0  0  2  0  0  0  0  0  0
  -18.0950  -26.7520   22.1370 C   0  0  0  0  0  2  0  0  0  0  0  0
  -19.1470  -28.7900   23.2800 C   0  0  0  0  0  0  0  0  0  0  0  0
  -18.9940  -30.0400   23.9170 C   0  0  0  0  0  3  0  0  0  0  0  0
  -17.7140  -30.5850   24.1370 C   0  0  0  0  0  3  0  0  0  0  0  0
  -16.5710  -29.8740   23.7350 C   0  0  0  0  0  3  0  0  0  0  0  0
  -16.7100  -28.6250   23.1040 C   0  0  0  0  0  3  0  0  0  0  0  0
  -25.9520  -32.2660   23.7000 C   0  0  0  0  0  3  0  0  0  0  0  0
  -25.6820  -33.6570   24.0870 N   0  0  0  0  0  0  0  0  0  0  0  0
  -26.0160  -34.7250   23.3530 C   0  0  0  0  0  0  0  0  0  0  0  0
  -26.6590  -34.6410   22.3020 O   0  0  0  0  0  0  0  0  0  0  0  0
  -25.1160  -33.7970   24.9130 H   0  0  0  0  0  0  0  0  0  0  0  0
  -24.3160  -36.5560   23.0890 C   0  0  0  0  0  1  0  0  0  0  0  0
  -25.5660  -36.1080   23.8640 C   0  0  0  0  0  3  0  0  0  0  0  0
  -27.7370  -36.9210   24.6720 C   0  0  0  0  0  1  0  0  0  0  0  0
  -26.6170  -37.1450   23.7600 N   0  0  0  0  0  0  0  0  0  0  0  0
  -26.2330  -38.0670   23.9500 H   0  0  0  0  0  0  0  0  0  0  0  0
  -26.4920  -31.4400   24.9330 C   0  0  1  0  0  0  0  0  0  0  0  0
  -25.4280  -31.1910   26.0280 C   0  0  0  0  0  1  0  0  0  0  0  0
  -27.0300  -30.0650   24.4720 C   0  0  0  0  0  1  0  0  0  0  0  0
  -27.6790  -32.1870   25.5850 C   0  0  0  0  0  1  0  0  0  0  0  0
  2  1  1  0
  3  1  2  0
  3 60  1  0
  4  6  1  0
  4  2  2  0
  5  4  1  0
  6  3  1  0
  7 12  1  0
  7  2  1  0
  7  9  1  0
  9  8  1  0
  9 11  1  0
 10  9  1  0
 13 14  1  0
 14 12  1  0
 15  6  1  0
 15 16  1  0
 18 16  1  0
 18 20  1  0
 18 17  1  0
 18 19  1  6
 20 21  1  0
 21 31  1  0
 22 31  1  0
 23 28  1  0
 24 25  1  0
 24 23  1  0
 26 25  1  0
 26 35  1  0
 26 27  1  0
 28 22  1  0
 28 27  1  0
 29 22  2  0
 31 30  1  0
 32 33  2  0
 33 52  1  0
 34 33  1  0
 34 37  1  0
 35 36  1  0
 35 32  1  0
 36 34  2  0
 37 38  1  0
 38 39  2  0
 40 43  1  0
 40 39  1  0
 41 40  2  0
 42 41  1  0
 42 37  2  0
 43 44  1  0
 44 45  1  0
 45 46  2  0
 47 46  1  0
 47 51  1  0
 48 47  2  0
 49 44  2  0
 49 48  1  0
 50 49  1  0
 52 53  1  0
 53 56  1  0
 53 55  1  0
 54 52  2  0
 57 32  1  0
 57 58  1  0
 59 57  1  0
 61 60  1  0
 61 62  1  0
 63 62  1  0
 64 66  1  0
 64 63  1  0
 65 76  2  0
 66 71  1  0
 67 75  1  0
 67 77  1  0
 68 74  1  0
 68 70  1  0
 69 75  1  0
 70 69  1  0
 71 70  2  0
 72 73  1  0
 72 66  2  0
 73 68  2  0
 74 67  1  0
 75 65  1  0
 77 79  2  0
 78 77  1  0
 80 78  1  0
 81 90  2  0
 81 86  1  0
 82 78  1  0
 82 86  1  0
 83 82  1  0
 84 85  1  0
 84 83  1  0
 85 81  1  0
 86 87  2  0
 87 88  1  0
 89 88  2  0
 90 89  1  0
 91 65  1  0
 91 92  1  0
 91101  1  0
 92 95  1  0
 93 97  1  0
 93 92  1  0
 94 93  2  0
 97 96  1  0
 99 97  1  0
 99100  1  0
 99 98  1  0
101104  1  1
101102  1  0
103101  1  0
M  ISO  4  22 100  31 100  63 101  64 101
M  END
>  <TORSDO>  (45) 
F 29

>  <SCORE>  (45) 
-9.491

>  <name>  (45) 
45

>  <ligand_id>  (45) 
45

>  <original_smiles>  (45) 
[H]c1c([H])c([H])c2c(c1[H])C([H])([H])C([H])([H])C([H])([H])C2([H])N([H])C(=O)C1([H])N(C(=O)C([H])(N([H])C(=O)C([H])(N([H])C([H])([H])[H])C([H])([H])[H])C(C([H])([H])[H])(C([H])([H])[H])C([H])([H])[H])C([H])([H])c2c([H])c(OC([H])([H])C([H])([H])C([H])([H])C([H])([H])c3c([H])c(C([H])(C([H])([H])C([H])([H])C([H])([H])[H])[N+]([H])([H])C([H])([H])[H])c(C([H])([H])[H])n3C([H])([H])C([H])([H])[N+]([H])(C([H])([H])[H])C([H])([H])C([H])([H])N(C(=O)N3C([H])([H])C([H])([H])C([H])([H])C([H])(n4nc(-c5c([H])c([H])c(Oc6c([H])c([H])c(F)c([H])c6F)c([H])c5[H])c(C(=O)N([H])[H])c4N([H])[H])C3([H])[H])C([H])([H])[H])c([H])c([H])c2C1([H])[H]

>  <smiles>  (45) 
[H]c1c([H])c([H])c2c(c1[H])C([H])([H])C([H])([H])C([H])([H])C2([H])N([H])C(=O)C1([H])N(C(=O)C([H])(N([H])C(=O)C([H])(N([H])C([H])([H])[H])C([H])([H])[H])C(C([H])([H])[H])(C([H])([H])[H])C([H])([H])[H])C([H])([H])c2c([H])c(OC([H])([H])C([H])([H])C([H])([H])C([H])([H])c3c([H])c(C([H])(C([H])([H])C([H])([H])C([H])([H])[H])[N+]([H])([H])C([H])([H])[H])c(C([H])([H])[H])n3C([H])([H])C([H])([H])[N+]([H])(C([H])([H])[H])C([H])([H])C([H])([H])N(C(=O)N3C([H])([H])C([H])([H])C([H])([H])C([H])(n4nc(-c5c([H])c([H])c(Oc6c([H])c([H])c(F)c([H])c6F)c([H])c5[H])c(C(=O)N([H])[H])c4N([H])[H])C3([H])[H])C([H])([H])[H])c([H])c([H])c2C1([H])[H]

$$$$
46:0:0
     RDKit          3D

 98106  0  0  1  0  0  0  0  0999 V2000
  -30.6100  -24.0580   16.6260 C   0  0  0  0  0  3  0  0  0  0  0  0
  -29.3450  -24.4150   18.6940 C   0  0  0  0  0  3  0  0  0  0  0  0
  -29.0630  -25.9240   16.8150 C   0  0  0  0  0  3  0  0  0  0  0  0
  -30.2850  -23.6720   17.9470 C   0  0  0  0  0  0  0  0  0  0  0  0
  -30.0130  -25.1790   16.0060 C   0  0  0  0  0  0  0  0  0  0  0  0
  -28.7220  -25.5700   18.1840 C   0  0  0  0  0  0  0  0  0  0  0  0
  -32.4430  -22.3010   18.1580 C   0  0  0  0  0  1  0  0  0  0  0  0
  -30.9900  -22.4970   18.6270 C   0  0  0  0  0  3  0  0  0  0  0  0
  -29.5190  -23.0280   20.6960 C   0  0  0  0  0  1  0  0  0  0  0  0
  -30.8970  -22.5840   20.1660 C   0  0  0  0  0  2  0  0  0  0  0  0
  -31.9580  -25.4300   14.3470 C   0  0  0  0  0  1  0  0  0  0  0  0
  -30.4370  -25.5560   14.5130 C   0  0  0  0  0  3  0  0  0  0  0  0
  -29.7090  -24.8020   13.2800 C   0  0  0  0  0  2  0  0  0  0  0  0
  -30.3910  -23.7410   12.4750 O   0  0  0  0  0  0  0  0  0  0  0  0
  -32.6800  -23.0170    5.6210 C   0  0  0  0  0  0  0  0  0  0  0  0
  -31.2450  -24.1470   11.4310 C   0  0  0  0  0  0  0  0  0  0  0  0
  -34.1640  -24.2310    7.1740 C   0  0  0  0  0  3  0  0  0  0  0  0
  -33.1220  -24.9220    9.4090 C   0  0  0  0  0  0  0  0  0  0  0  0
  -31.6200  -24.2390    7.5370 C   0  0  0  0  0  2  0  0  0  0  0  0
  -31.8770  -24.3980    9.0330 C   0  0  0  0  0  0  0  0  0  0  0  0
  -30.9300  -24.0280   10.0380 C   0  0  0  0  0  3  0  0  0  0  0  0
  -32.4960  -24.7180   11.7560 C   0  0  0  0  0  3  0  0  0  0  0  0
  -33.4260  -25.0900   10.7680 C   0  0  0  0  0  3  0  0  0  0  0  0
  -34.0980  -25.2880    8.3080 C   0  0  0  0  0  2  0  0  0  0  0  0
  -32.7990  -23.7800    6.7490 N   0  0  0  0  0  0  0  0  0  0  0  0
  -33.6680  -22.7220    4.9330 O   0  0  0  0  0  0  0  0  0  0  0  0
  -35.0820  -23.0690    7.6230 C   0  0  0  0  0  0  0  0  0  0  0  0
  -36.3220  -23.0430    7.1060 N   0  0  0  0  0  0  0  0  0  0  0  0
  -34.6840  -22.2310    8.4370 O   0  0  0  0  0  0  0  0  0  0  0  0
  -36.5680  -23.7600    6.4380 H   0  0  0  0  0  0  0  0  0  0  0  0
  -39.6120  -21.8710    6.1570 C   0  0  0  0  0  0  0  0  0  0  0  0
  -37.3660  -22.0670    7.4220 C   0  0  0  0  0  3  0  0  0  0  0  0
  -38.2080  -22.5250    8.6350 C   0  0  0  0  0  2  0  0  0  0  0  0
  -39.4650  -23.3050    8.2380 C   0  0  0  0  0  2  0  0  0  0  0  0
  -40.3670  -22.4490    7.3430 C   0  0  0  0  0  2  0  0  0  0  0  0
  -38.2020  -21.7080    6.1870 C   0  0  0  0  0  0  0  0  0  0  0  0
  -37.5480  -21.2000    5.0450 C   0  0  0  0  0  3  0  0  0  0  0  0
  -38.2750  -20.8560    3.8900 C   0  0  0  0  0  3  0  0  0  0  0  0
  -39.6720  -21.0050    3.8700 C   0  0  0  0  0  3  0  0  0  0  0  0
  -40.3390  -21.5080    5.0020 C   0  0  0  0  0  3  0  0  0  0  0  0
  -31.2930  -22.5020    5.1300 C   0  0  0  0  0  3  0  0  0  0  0  0
  -31.3610  -21.7600    3.7380 C   0  0  1  0  0  0  0  0  0  0  0  0
  -31.8740  -22.6500    2.5810 C   0  0  0  0  0  1  0  0  0  0  0  0
  -32.2810  -20.5210    3.8200 C   0  0  0  0  0  1  0  0  0  0  0  0
  -29.9540  -21.2360    3.3570 C   0  0  0  0  0  1  0  0  0  0  0  0
  -30.3920  -23.6600    5.0520 N   0  0  0  0  0  0  0  0  0  0  0  0
  -29.4610  -23.9640    5.9660 C   0  0  0  0  0  0  0  0  0  0  0  0
  -29.2260  -23.2500    6.9440 O   0  0  0  0  0  0  0  0  0  0  0  0
  -30.5680  -24.3210    4.3080 H   0  0  0  0  0  0  0  0  0  0  0  0
  -29.6100  -26.4750    5.8980 C   0  0  0  0  0  1  0  0  0  0  0  0
  -28.6670  -25.2700    5.7640 C   0  0  0  0  0  3  0  0  0  0  0  0
  -26.4460  -24.4750    6.4470 C   0  0  0  0  0  1  0  0  0  0  0  0
  -27.5310  -25.4180    6.7010 N   0  0  0  0  0  0  0  0  0  0  0  0
  -27.1490  -26.3590    6.6550 H   0  0  0  0  0  0  0  0  0  0  0  0
  -27.8790  -26.4320   19.2280 C   0  0  0  0  0  3  0  0  0  0  0  0
  -27.5680  -25.6690   20.4450 N   0  0  0  0  0  4  0  0  0  0  0  0
  -28.4020  -25.4810   20.9700 H   0  0  0  0  0  0  0  0  0  0  0  0
  -27.1280  -24.7990   20.2090 H   0  0  0  0  0  0  0  0  0  0  0  0
  -26.9360  -26.1930   21.0220 H   0  0  0  0  0  0  0  0  0  0  0  0
  -28.3560  -27.9220   19.6070 C   0  0  0  0  0  2  0  0  0  0  0  0
  -30.8070  -28.7930   20.0460 C   0  0  0  0  0  0  0  0  0  0  0  0
  -32.8790  -30.1560   19.8010 C   0  0  0  0  0  2  0  0  0  0  0  0
  -32.6080  -31.3100   18.8120 C   0  0  0  0  0  2  0  0  0  0  0  0
  -32.8340  -30.8530   17.3570 C   0  0  0  0  0  2  0  0  0  0  0  0
  -32.1470  -29.4990   17.0380 C   0  0  0  0  0  3  0  0  0  0  0  0
  -32.4310  -28.4510   18.1370 C   0  0  0  0  0  2  0  0  0  0  0  0
  -32.0010  -29.0320   19.4160 N   0  0  0  0  0  0  0  0  0  0  0  0
  -30.6220  -29.1300   21.2170 O   0  0  0  0  0  0  0  0  0  0  0  0
  -29.7690  -28.3580   19.2590 N   0  0  0  0  0  0  0  0  0  0  0  0
  -30.0380  -28.1880   18.3030 H   0  0  0  0  0  0  0  0  0  0  0  0
  -31.6980  -28.8910   14.5840 C   0  0  0  0  0  0  0  0  0  0  0  0
  -32.5230  -28.4690   13.5770 C   0  0  0  0  0  0  0  0  0  0  0  0
  -33.8240  -28.3520   14.1570 C   0  0  0  0  0  0  0  0  0  0  0  0
  -32.4990  -29.0110   15.7070 N   0  0  0  0  0  0  0  0  0  0  0  0
  -33.7770  -28.6250   15.4550 N   0  0  0  0  0  0  0  0  0  0  0  0
  -35.1220  -28.0520   13.5380 C   0  0  0  0  0  0  0  0  0  0  0  0
  -35.2700  -27.0050   12.6020 C   0  0  0  0  0  3  0  0  0  0  0  0
  -36.5230  -26.7480   12.0070 C   0  0  0  0  0  3  0  0  0  0  0  0
  -37.6450  -27.5440   12.3430 C   0  0  0  0  0  0  0  0  0  0  0  0
  -37.4970  -28.5700   13.2920 C   0  0  0  0  0  3  0  0  0  0  0  0
  -36.2490  -28.8200   13.8870 C   0  0  0  0  0  3  0  0  0  0  0  0
  -38.9070  -27.3510   11.8340 O   0  0  0  0  0  0  0  0  0  0  0  0
  -39.4570  -28.2210   10.9270 C   0  0  0  0  0  0  0  0  0  0  0  0
  -39.5530  -29.6070   11.1850 C   0  0  0  0  0  3  0  0  0  0  0  0
  -40.1890  -30.4540   10.2560 C   0  0  0  0  0  3  0  0  0  0  0  0
  -40.7340  -29.9190    9.0720 C   0  0  0  0  0  0  0  0  0  0  0  0
  -40.6450  -28.5400    8.8170 C   0  0  0  0  0  3  0  0  0  0  0  0
  -40.0090  -27.6940    9.7420 C   0  0  0  0  0  0  0  0  0  0  0  0
  -39.9430  -26.3610    9.5000 F   0  0  0  0  0  0  0  0  0  0  0  0
  -41.3520  -30.7300    8.1820 F   0  0  0  0  0  0  0  0  0  0  0  0
  -32.1490  -28.2810   12.1350 C   0  0  0  0  0  0  0  0  0  0  0  0
  -32.8890  -27.4480   11.4140 N   0  0  0  0  0  0  0  0  0  0  0  0
  -31.1660  -28.8410   11.6520 O   0  0  0  0  0  0  0  0  0  0  0  0
  -33.6860  -26.9750   11.8150 H   0  0  0  0  0  0  0  0  0  0  0  0
  -32.6550  -27.2790   10.4470 H   0  0  0  0  0  0  0  0  0  0  0  0
  -30.3430  -29.2060   14.6310 N   0  0  0  0  0  0  0  0  0  0  0  0
  -29.7630  -29.1840   13.8010 H   0  0  0  0  0  0  0  0  0  0  0  0
  -29.8760  -29.6140   15.4290 H   0  0  0  0  0  0  0  0  0  0  0  0
  1  4  1  0
  3  6  2  0
  4  8  1  0
  4  2  2  0
  5  1  2  0
  5  3  1  0
  6  2  1  0
  6 55  1  0
  8  7  1  0
  8 10  1  0
 10  9  1  0
 12 11  1  0
 12  5  1  0
 13 12  1  0
 14 13  1  0
 15 25  1  0
 16 22  1  0
 16 14  1  0
 17 27  1  0
 17 24  1  0
 18 23  1  0
 19 20  1  0
 20 18  2  0
 20 21  1  0
 21 16  2  0
 23 22  2  0
 24 18  1  0
 25 17  1  0
 25 19  1  0
 26 15  2  0
 27 29  2  0
 28 27  1  0
 30 28  1  0
 31 36  1  0
 31 35  1  0
 32 28  1  0
 32 33  1  0
 34 33  1  0
 35 34  1  0
 36 32  1  0
 37 36  2  0
 38 37  1  0
 39 38  2  0
 39 40  1  0
 40 31  2  0
 41 15  1  0
 42 44  1  1
 42 41  1  0
 43 42  1  0
 45 42  1  0
 46 41  1  0
 46 47  1  0
 47 48  2  0
 49 46  1  0
 51 50  1  0
 51 47  1  0
 51 53  1  0
 52 53  1  0
 54 53  1  0
 55 60  1  0
 55 56  1  0
 56 57  1  0
 56 59  1  0
 58 56  1  0
 61 68  2  0
 63 62  1  0
 64 63  1  0
 65 74  1  0
 65 64  1  0
 65 66  1  0
 66 67  1  0
 67 62  1  0
 67 61  1  0
 69 60  1  0
 69 61  1  0
 70 69  1  0
 71 96  1  0
 71 74  1  0
 72 73  1  0
 72 71  2  0
 73 75  2  0
 75 74  1  0
 76 81  1  0
 76 73  1  0
 77 76  2  0
 78 79  2  0
 78 77  1  0
 79 80  1  0
 80 81  2  0
 82 79  1  0
 83 84  1  0
 83 82  1  0
 85 84  2  0
 86 85  1  0
 87 86  2  0
 87 88  1  0
 88 83  2  0
 89 88  1  0
 90 86  1  0
 91 72  1  0
 92 94  1  0
 92 91  1  0
 93 91  2  0
 95 92  1  0
 96 98  1  0
 97 96  1  0
M  ISO  4  13 101  14 101  61 100  69 100
M  END
>  <TORSDO>  (46) 
F 23

>  <SCORE>  (46) 
-0.414

>  <name>  (46) 
46

>  <ligand_id>  (46) 
46

>  <original_smiles>  (46) 
[H]c1c([H])c([H])c2c(c1[H])C([H])([H])C([H])([H])C([H])([H])C2([H])N([H])C(=O)C1([H])N(C(=O)C([H])(N([H])C(=O)C([H])(N([H])C([H])([H])[H])C([H])([H])[H])C(C([H])([H])[H])(C([H])([H])[H])C([H])([H])[H])C([H])([H])c2c([H])c(OC([H])([H])C([H])(c3c([H])c(C([H])(C([H])([H])[H])C([H])([H])C([H])([H])[H])c([H])c(C([H])(C([H])([H])N([H])C(=O)N4C([H])([H])C([H])([H])C([H])([H])C([H])(n5nc(-c6c([H])c([H])c(Oc7c([H])c([H])c(F)c([H])c7F)c([H])c6[H])c(C(=O)N([H])[H])c5N([H])[H])C4([H])[H])[N+]([H])([H])[H])c3[H])C([H])([H])[H])c([H])c([H])c2C1([H])[H]

>  <smiles>  (46) 
[H]c1c([H])c([H])c2c(c1[H])C([H])([H])C([H])([H])C([H])([H])C2([H])N([H])C(=O)C1([H])N(C(=O)C([H])(N([H])C(=O)C([H])(N([H])C([H])([H])[H])C([H])([H])[H])C(C([H])([H])[H])(C([H])([H])[H])C([H])([H])[H])C([H])([H])c2c([H])c(OC([H])([H])C([H])(c3c([H])c(C([H])(C([H])([H])[H])C([H])([H])C([H])([H])[H])c([H])c(C([H])(C([H])([H])N([H])C(=O)N4C([H])([H])C([H])([H])C([H])([H])C([H])(n5nc(-c6c([H])c([H])c(Oc7c([H])c([H])c(F)c([H])c7F)c([H])c6[H])c(C(=O)N([H])[H])c5N([H])[H])C4([H])[H])[N+]([H])([H])[H])c3[H])C([H])([H])[H])c([H])c([H])c2C1([H])[H]

$$$$
47:0:0
     RDKit          3D

 92100  0  0  1  0  0  0  0  0999 V2000
  -28.7220  -21.1930   20.4480 C   0  0  0  0  0  3  0  0  0  0  0  0
  -29.8340  -22.7970   19.0490 C   0  0  0  0  0  3  0  0  0  0  0  0
  -28.8530  -22.5710   20.0140 C   0  0  0  0  0  0  0  0  0  0  0  0
  -29.5200  -20.1060   19.9050 C   0  0  0  0  0  0  0  0  0  0  0  0
  -30.4570  -20.5230   18.9100 C   0  0  0  0  0  0  0  0  0  0  0  0
  -30.5780  -21.8160   18.5120 N   0  0  0  0  0  0  0  0  0  0  0  0
  -32.5510  -20.2100   17.4290 C   0  0  0  0  0  1  0  0  0  0  0  0
  -30.4550  -18.8700   16.9860 C   0  0  0  0  0  1  0  0  0  0  0  0
  -31.3040  -19.5600   18.0690 C   0  0  0  0  0  3  0  0  0  0  0  0
  -27.8810  -23.7670   20.3840 C   0  0  0  0  0  2  0  0  0  0  0  0
  -28.3820  -25.2020   20.9330 C   0  0  0  0  0  2  0  0  0  0  0  0
  -28.3740  -26.4910   20.1850 O   0  0  0  0  0  0  0  0  0  0  0  0
  -24.6150  -31.9190   23.2290 C   0  0  0  0  0  0  0  0  0  0  0  0
  -27.2500  -27.3310   20.2260 C   0  0  0  0  0  0  0  0  0  0  0  0
  -23.4270  -30.5120   21.5830 C   0  0  0  0  0  3  0  0  0  0  0  0
  -24.8880  -28.9480   20.1840 C   0  0  0  0  0  0  0  0  0  0  0  0
  -25.9680  -30.8280   21.4200 C   0  0  0  0  0  2  0  0  0  0  0  0
  -26.0520  -29.4430   20.7860 C   0  0  0  0  0  0  0  0  0  0  0  0
  -27.2400  -28.6470   20.7900 C   0  0  0  0  0  3  0  0  0  0  0  0
  -26.0640  -26.8850   19.6120 C   0  0  0  0  0  3  0  0  0  0  0  0
  -24.8960  -27.6740   19.5880 C   0  0  0  0  0  3  0  0  0  0  0  0
  -23.6530  -29.8260   20.2090 C   0  0  0  0  0  2  0  0  0  0  0  0
  -24.6880  -31.1080   22.1330 N   0  0  0  0  0  0  0  0  0  0  0  0
  -23.5250  -32.1990   23.7530 O   0  0  0  0  0  0  0  0  0  0  0  0
  -22.7560  -29.5020   22.5450 C   0  0  0  0  0  0  0  0  0  0  0  0
  -21.4290  -29.3330   22.4140 N   0  0  0  0  0  0  0  0  0  0  0  0
  -23.4280  -28.8730   23.3660 O   0  0  0  0  0  0  0  0  0  0  0  0
  -20.9470  -29.8920   21.7240 H   0  0  0  0  0  0  0  0  0  0  0  0
  -18.0370  -28.1780   22.9290 C   0  0  0  0  0  0  0  0  0  0  0  0
  -20.6010  -28.4000   23.1830 C   0  0  0  0  0  3  0  0  0  0  0  0
  -20.6780  -26.9720   22.5940 C   0  0  0  0  0  2  0  0  0  0  0  0
  -19.5640  -26.6750   21.5840 C   0  0  0  0  0  2  0  0  0  0  0  0
  -18.1890  -26.8340   22.2380 C   0  0  0  0  0  2  0  0  0  0  0  0
  -19.1710  -28.9210   23.3580 C   0  0  0  0  0  0  0  0  0  0  0  0
  -18.9730  -30.1800   23.9650 C   0  0  0  0  0  3  0  0  0  0  0  0
  -17.6770  -30.6970   24.1470 C   0  0  0  0  0  3  0  0  0  0  0  0
  -16.5590  -29.9530   23.7330 C   0  0  0  0  0  3  0  0  0  0  0  0
  -16.7400  -28.6960   23.1290 C   0  0  0  0  0  3  0  0  0  0  0  0
  -25.8910  -32.5530   23.8650 C   0  0  0  0  0  3  0  0  0  0  0  0
  -25.5820  -33.9570   24.1730 N   0  0  0  0  0  0  0  0  0  0  0  0
  -25.9280  -35.0000   23.4070 C   0  0  0  0  0  0  0  0  0  0  0  0
  -26.6100  -34.8820   22.3850 O   0  0  0  0  0  0  0  0  0  0  0  0
  -24.9770  -34.1220   24.9640 H   0  0  0  0  0  0  0  0  0  0  0  0
  -24.2240  -36.8080   23.0010 C   0  0  0  0  0  1  0  0  0  0  0  0
  -25.4420  -36.3960   23.8430 C   0  0  0  0  0  3  0  0  0  0  0  0
  -27.5610  -37.2750   24.7210 C   0  0  0  0  0  1  0  0  0  0  0  0
  -26.4860  -37.4400   23.7460 N   0  0  0  0  0  0  0  0  0  0  0  0
  -26.0820  -38.3630   23.8730 H   0  0  0  0  0  0  0  0  0  0  0  0
  -26.3830  -31.7970   25.1600 C   0  0  1  0  0  0  0  0  0  0  0  0
  -25.2730  -31.5810   26.2150 C   0  0  0  0  0  1  0  0  0  0  0  0
  -26.9680  -30.4120   24.7960 C   0  0  0  0  0  1  0  0  0  0  0  0
  -27.5270  -32.5970   25.8280 C   0  0  0  0  0  1  0  0  0  0  0  0
  -29.2100  -18.5730   20.2980 C   0  0  0  0  0  3  0  0  0  0  0  0
  -30.2800  -17.3450   20.2680 C   0  0  0  0  0  3  0  0  0  0  0  0
  -30.5980  -14.7670   20.3750 C   0  0  0  0  0  0  0  0  0  0  0  0
  -30.3810  -12.5110   19.3540 C   0  0  0  0  0  2  0  0  0  0  0  0
  -29.4440  -12.6230   18.1310 C   0  0  0  0  0  2  0  0  0  0  0  0
  -27.9740  -12.4430   18.5570 C   0  0  0  0  0  2  0  0  0  0  0  0
  -27.6010  -13.3110   19.7900 C   0  0  0  0  0  3  0  0  0  0  0  0
  -28.6620  -13.2050   20.9090 C   0  0  0  0  0  2  0  0  0  0  0  0
  -29.9600  -13.5500   20.3190 N   0  0  0  0  0  0  0  0  0  0  0  0
  -31.7820  -14.8610   20.0400 O   0  0  0  0  0  0  0  0  0  0  0  0
  -29.8440  -15.9130   20.5680 N   0  0  0  0  0  0  0  0  0  0  0  0
  -28.8750  -15.7750   20.8120 H   0  0  0  0  0  0  0  0  0  0  0  0
  -25.2120  -13.8940   20.5230 C   0  0  0  0  0  0  0  0  0  0  0  0
  -24.1490  -13.1170   20.8900 C   0  0  0  0  0  0  0  0  0  0  0  0
  -24.6130  -11.7660   20.8520 C   0  0  0  0  0  0  0  0  0  0  0  0
  -26.2580  -13.0190   20.2800 N   0  0  0  0  0  0  0  0  0  0  0  0
  -25.9040  -11.7320   20.5400 N   0  0  0  0  0  0  0  0  0  0  0  0
  -23.8900  -10.5010   21.0360 C   0  0  0  0  0  0  0  0  0  0  0  0
  -24.3150   -9.5390   21.9810 C   0  0  0  0  0  3  0  0  0  0  0  0
  -23.5900   -8.3390   22.1540 C   0  0  0  0  0  3  0  0  0  0  0  0
  -22.4310   -8.0920   21.3830 C   0  0  0  0  0  0  0  0  0  0  0  0
  -22.0270   -9.0430   20.4270 C   0  0  0  0  0  3  0  0  0  0  0  0
  -22.7520  -10.2320   20.2520 C   0  0  0  0  0  3  0  0  0  0  0  0
  -21.6790   -6.9450   21.4620 O   0  0  0  0  0  0  0  0  0  0  0  0
  -21.6000   -6.2170   22.6220 C   0  0  0  0  0  0  0  0  0  0  0  0
  -21.1070   -6.7740   23.8230 C   0  0  0  0  0  3  0  0  0  0  0  0
  -20.9810   -5.9700   24.9720 C   0  0  0  0  0  3  0  0  0  0  0  0
  -21.3380   -4.6100   24.9220 C   0  0  0  0  0  0  0  0  0  0  0  0
  -21.8260   -4.0520   23.7270 C   0  0  0  0  0  3  0  0  0  0  0  0
  -21.9540   -4.8540   22.5810 C   0  0  0  0  0  0  0  0  0  0  0  0
  -22.4050   -4.3070   21.4260 F   0  0  0  0  0  0  0  0  0  0  0  0
  -21.2080   -3.8340   26.0250 F   0  0  0  0  0  0  0  0  0  0  0  0
  -22.7500  -13.5910   21.1620 C   0  0  0  0  0  0  0  0  0  0  0  0
  -22.0200  -12.8870   22.0190 N   0  0  0  0  0  0  0  0  0  0  0  0
  -22.3150  -14.6200   20.6490 O   0  0  0  0  0  0  0  0  0  0  0  0
  -22.3870  -12.0580   22.4610 H   0  0  0  0  0  0  0  0  0  0  0  0
  -21.0810  -13.1850   22.2370 H   0  0  0  0  0  0  0  0  0  0  0  0
  -25.3680  -15.2650   20.3520 N   0  0  0  0  0  0  0  0  0  0  0  0
  -24.5900  -15.9060   20.4700 H   0  0  0  0  0  0  0  0  0  0  0  0
  -26.2000  -15.7140   19.9910 H   0  0  0  0  0  0  0  0  0  0  0  0
  2  3  2  0
  3 10  1  0
  3  1  1  0
  4 53  1  0
  4  1  2  0
  5  4  1  0
  6  5  2  0
  6  2  1  0
  7  9  1  0
  8  9  1  0
  9  5  1  0
 10 11  1  0
 12 14  1  0
 12 11  1  0
 13 24  2  0
 14 19  1  0
 15 23  1  0
 15 25  1  0
 16 22  1  0
 16 18  1  0
 17 23  1  0
 18 19  2  0
 18 17  1  0
 20 14  2  0
 21 20  1  0
 21 16  2  0
 22 15  1  0
 23 13  1  0
 25 27  2  0
 26 25  1  0
 28 26  1  0
 29 38  2  0
 29 34  1  0
 30 26  1  0
 30 34  1  0
 31 30  1  0
 32 33  1  0
 32 31  1  0
 33 29  1  0
 34 35  2  0
 35 36  1  0
 37 36  2  0
 38 37  1  0
 39 13  1  0
 39 40  1  0
 39 49  1  0
 40 43  1  0
 41 45  1  0
 41 40  1  0
 42 41  2  0
 45 44  1  0
 47 45  1  0
 47 48  1  0
 47 46  1  0
 49 52  1  1
 49 50  1  0
 51 49  1  0
 54 53  2  0
 54 63  1  0
 55 63  1  0
 56 61  1  0
 57 58  1  0
 57 56  1  0
 59 58  1  0
 59 68  1  0
 59 60  1  0
 61 55  1  0
 61 60  1  0
 62 55  2  0
 63 64  1  0
 65 66  2  0
 66 85  1  0
 67 66  1  0
 67 70  1  0
 68 65  1  0
 68 69  1  0
 69 67  2  0
 70 71  1  0
 71 72  2  0
 73 76  1  0
 73 72  1  0
 74 73  2  0
 75 74  1  0
 75 70  2  0
 76 77  1  0
 77 78  1  0
 78 79  2  0
 80 79  1  0
 80 84  1  0
 81 80  2  0
 82 77  2  0
 82 81  1  0
 83 82  1  0
 85 86  1  0
 86 89  1  0
 86 88  1  0
 87 85  2  0
 90 91  1  0
 90 65  1  0
 92 90  1  0
M  ISO  4  11 101  12 101  55 100  63 100
M  END
>  <TORSDO>  (47) 
F 21

>  <SCORE>  (47) 
-13.523

>  <name>  (47) 
47

>  <ligand_id>  (47) 
47

>  <original_smiles>  (47) 
[H]c1nc(C([H])(C([H])([H])[H])C([H])([H])[H])c(C([H])([H])C([H])([H])N([H])C(=O)N2C([H])([H])C([H])([H])C([H])([H])C([H])(n3nc(-c4c([H])c([H])c(Oc5c([H])c([H])c(F)c([H])c5F)c([H])c4[H])c(C(=O)N([H])[H])c3N([H])[H])C2([H])[H])c([H])c1C([H])([H])C([H])([H])Oc1c([H])c([H])c2c(c1[H])C([H])([H])N(C(=O)C([H])(N([H])C(=O)C([H])(N([H])C([H])([H])[H])C([H])([H])[H])C(C([H])([H])[H])(C([H])([H])[H])C([H])([H])[H])C([H])(C(=O)N([H])C1([H])c3c([H])c([H])c([H])c([H])c3C([H])([H])C([H])([H])C1([H])[H])C2([H])[H]

>  <smiles>  (47) 
[H]c1nc(C([H])(C([H])([H])[H])C([H])([H])[H])c(C([H])([H])C([H])([H])N([H])C(=O)N2C([H])([H])C([H])([H])C([H])([H])C([H])(n3nc(-c4c([H])c([H])c(Oc5c([H])c([H])c(F)c([H])c5F)c([H])c4[H])c(C(=O)N([H])[H])c3N([H])[H])C2([H])[H])c([H])c1C([H])([H])C([H])([H])Oc1c([H])c([H])c2c(c1[H])C([H])([H])N(C(=O)C([H])(N([H])C(=O)C([H])(N([H])C([H])([H])[H])C([H])([H])[H])C(C([H])([H])[H])(C([H])([H])[H])C([H])([H])[H])C([H])(C(=O)N([H])C1([H])c3c([H])c([H])c([H])c([H])c3C([H])([H])C([H])([H])C1([H])[H])C2([H])[H]

$$$$
48:0:0
     RDKit          3D

102110  0  0  1  0  0  0  0  0999 V2000
  -29.4240  -19.2460   20.9900 C   0  0  0  0  0  2  0  0  0  0  0  0
  -29.5280  -20.4960   21.6670 C   0  0  0  0  0  0  0  0  0  0  0  0
  -30.6500  -18.6410   20.9350 C   0  0  0  0  0  3  0  0  0  0  0  0
  -30.7980  -20.5330   22.2030 C   0  0  0  0  0  0  0  0  0  0  0  0
  -32.9720  -19.2680   21.7510 C   0  0  0  0  0  1  0  0  0  0  0  0
  -31.5240  -19.4790   21.6300 N   0  0  0  0  0  0  0  0  0  0  0  0
  -30.6030  -21.6270   24.5000 C   0  0  0  0  0  1  0  0  0  0  0  0
  -31.8560  -22.8220   22.6530 C   0  0  0  0  0  1  0  0  0  0  0  0
  -31.4370  -21.4600   23.2220 C   0  0  0  0  0  3  0  0  0  0  0  0
  -28.3790  -21.4920   21.8080 C   0  0  0  0  0  3  0  0  0  0  0  0
  -28.4550  -22.7700   20.9100 C   0  0  0  0  0  3  0  0  0  0  0  0
  -26.0400  -23.3950   20.4090 C   0  0  0  0  0  1  0  0  0  0  0  0
  -27.0000  -23.9820   22.6300 C   0  0  0  0  0  1  0  0  0  0  0  0
  -27.3310  -23.8430   21.1270 C   0  0  1  0  0  0  0  0  0  0  0  0
  -27.7460  -25.2810   20.6560 C   0  0  0  0  0  2  0  0  0  0  0  0
  -27.9030  -25.5710   19.1400 C   0  0  0  0  0  2  0  0  0  0  0  0
  -27.9270  -26.9900   18.8630 O   0  0  0  0  0  0  0  0  0  0  0  0
  -24.5260  -31.7270   22.9490 C   0  0  0  0  0  0  0  0  0  0  0  0
  -26.7630  -27.7140   19.0540 C   0  0  0  0  0  0  0  0  0  0  0  0
  -23.1310  -30.5390   21.2890 C   0  0  0  0  0  3  0  0  0  0  0  0
  -24.4000  -29.2080   19.5200 C   0  0  0  0  0  0  0  0  0  0  0  0
  -25.6240  -30.9340   20.8540 C   0  0  0  0  0  2  0  0  0  0  0  0
  -25.6240  -29.6610   20.0270 C   0  0  0  0  0  0  0  0  0  0  0  0
  -26.8070  -28.9260   19.7860 C   0  0  0  0  0  3  0  0  0  0  0  0
  -25.5180  -27.2790   18.5430 C   0  0  0  0  0  3  0  0  0  0  0  0
  -24.3420  -28.0160   18.7760 C   0  0  0  0  0  3  0  0  0  0  0  0
  -23.1770  -30.0480   19.8190 C   0  0  0  0  0  2  0  0  0  0  0  0
  -24.4510  -31.0740   21.7530 N   0  0  0  0  0  0  0  0  0  0  0  0
  -23.5150  -31.9210   23.6380 O   0  0  0  0  0  0  0  0  0  0  0  0
  -22.5870  -29.3960   22.1760 C   0  0  0  0  0  0  0  0  0  0  0  0
  -21.2610  -29.1860   22.1320 N   0  0  0  0  0  0  0  0  0  0  0  0
  -23.3500  -28.7090   22.8600 O   0  0  0  0  0  0  0  0  0  0  0  0
  -20.7070  -29.7960   21.5490 H   0  0  0  0  0  0  0  0  0  0  0  0
  -17.9740  -27.7810   22.6880 C   0  0  0  0  0  0  0  0  0  0  0  0
  -20.5280  -28.1420   22.8520 C   0  0  0  0  0  3  0  0  0  0  0  0
  -20.6650  -26.7760   22.1430 C   0  0  0  0  0  2  0  0  0  0  0  0
  -19.5250  -26.4900   21.1600 C   0  0  0  0  0  2  0  0  0  0  0  0
  -18.1750  -26.5070   21.8840 C   0  0  0  0  0  2  0  0  0  0  0  0
  -19.0790  -28.5570   23.1280 C   0  0  0  0  0  0  0  0  0  0  0  0
  -18.8370  -29.7500   23.8430 C   0  0  0  0  0  3  0  0  0  0  0  0
  -17.5220  -30.1730   24.1160 C   0  0  0  0  0  3  0  0  0  0  0  0
  -16.4340  -29.3910   23.6940 C   0  0  0  0  0  3  0  0  0  0  0  0
  -16.6610  -28.1950   22.9890 C   0  0  0  0  0  3  0  0  0  0  0  0
  -25.8800  -32.2800   23.4930 C   0  0  0  0  0  3  0  0  0  0  0  0
  -26.5270  -31.3610   24.6010 C   0  0  1  0  0  0  0  0  0  0  0  0
  -25.5580  -30.9940   25.7520 C   0  0  0  0  0  1  0  0  0  0  0  0
  -27.0460  -30.0410   23.9830 C   0  0  0  0  0  1  0  0  0  0  0  0
  -27.7610  -32.0680   25.2110 C   0  0  0  0  0  1  0  0  0  0  0  0
  -25.6240  -33.6260   24.0220 N   0  0  0  0  0  0  0  0  0  0  0  0
  -25.9040  -34.7640   23.3720 C   0  0  0  0  0  0  0  0  0  0  0  0
  -26.4810  -34.7870   22.2820 O   0  0  0  0  0  0  0  0  0  0  0  0
  -25.1030  -33.6800   24.8860 H   0  0  0  0  0  0  0  0  0  0  0  0
  -24.1790  -36.5920   23.3960 C   0  0  0  0  0  1  0  0  0  0  0  0
  -25.4810  -36.0890   24.0380 C   0  0  0  0  0  3  0  0  0  0  0  0
  -27.6960  -36.8520   24.7750 C   0  0  0  0  0  1  0  0  0  0  0  0
  -26.5170  -37.1420   23.9610 N   0  0  0  0  0  0  0  0  0  0  0  0
  -26.1440  -38.0390   24.2560 H   0  0  0  0  0  0  0  0  0  0  0  0
  -31.1080  -17.3750   20.2240 C   0  0  0  0  0  3  0  0  0  0  0  0
  -31.1600  -14.9230   20.5630 C   0  0  0  0  0  0  0  0  0  0  0  0
  -30.8690  -12.6300   19.7440 C   0  0  0  0  0  2  0  0  0  0  0  0
  -30.0380  -12.6670   18.4480 C   0  0  0  0  0  2  0  0  0  0  0  0
  -28.5390  -12.5700   18.7800 C   0  0  0  0  0  2  0  0  0  0  0  0
  -28.1010  -13.5700   19.8870 C   0  0  0  0  0  3  0  0  0  0  0  0
  -29.0770  -13.5730   21.0880 C   0  0  0  0  0  2  0  0  0  0  0  0
  -30.4380  -13.7700   20.5720 N   0  0  0  0  0  0  0  0  0  0  0  0
  -32.3440  -14.9330   20.2200 O   0  0  0  0  0  0  0  0  0  0  0  0
  -30.5000  -16.0980   20.6810 N   0  0  0  0  0  0  0  0  0  0  0  0
  -29.5370  -16.0930   20.9800 H   0  0  0  0  0  0  0  0  0  0  0  0
  -25.6930  -14.2340   20.4940 C   0  0  0  0  0  0  0  0  0  0  0  0
  -24.5860  -13.4900   20.8010 C   0  0  0  0  0  0  0  0  0  0  0  0
  -25.0080  -12.1250   20.7770 C   0  0  0  0  0  0  0  0  0  0  0  0
  -26.7220  -13.3240   20.3040 N   0  0  0  0  0  0  0  0  0  0  0  0
  -26.3100  -12.0490   20.5330 N   0  0  0  0  0  0  0  0  0  0  0  0
  -24.2340  -10.8830   20.9170 C   0  0  0  0  0  0  0  0  0  0  0  0
  -24.6050   -9.8800   21.8390 C   0  0  0  0  0  3  0  0  0  0  0  0
  -23.8350   -8.7040   21.9680 C   0  0  0  0  0  3  0  0  0  0  0  0
  -22.6770   -8.5250   21.1740 C   0  0  0  0  0  0  0  0  0  0  0  0
  -22.3250   -9.5150   20.2400 C   0  0  0  0  0  3  0  0  0  0  0  0
  -23.0970  -10.6820   20.1090 C   0  0  0  0  0  3  0  0  0  0  0  0
  -21.8820   -7.4050   21.2140 O   0  0  0  0  0  0  0  0  0  0  0  0
  -21.7880   -6.6280   22.3400 C   0  0  0  0  0  0  0  0  0  0  0  0
  -21.3730   -7.1600   23.5800 C   0  0  0  0  0  3  0  0  0  0  0  0
  -21.2230   -6.3120   24.6970 C   0  0  0  0  0  3  0  0  0  0  0  0
  -21.4790   -4.9340   24.5730 C   0  0  0  0  0  0  0  0  0  0  0  0
  -21.8870   -4.4010   23.3370 C   0  0  0  0  0  3  0  0  0  0  0  0
  -22.0380   -5.2450   22.2240 C   0  0  0  0  0  0  0  0  0  0  0  0
  -22.4110   -4.7230   21.0310 F   0  0  0  0  0  0  0  0  0  0  0  0
  -21.3270   -4.1180   25.6430 F   0  0  0  0  0  0  0  0  0  0  0  0
  -23.1940  -14.0070   21.0130 C   0  0  0  0  0  0  0  0  0  0  0  0
  -22.4130  -13.3340   21.8520 N   0  0  0  0  0  0  0  0  0  0  0  0
  -22.8060  -15.0410   20.4710 O   0  0  0  0  0  0  0  0  0  0  0  0
  -22.7400  -12.4970   22.3100 H   0  0  0  0  0  0  0  0  0  0  0  0
  -21.4750  -13.6610   22.0370 H   0  0  0  0  0  0  0  0  0  0  0  0
  -25.9090  -15.6000   20.3380 N   0  0  0  0  0  0  0  0  0  0  0  0
  -25.1590  -16.2780   20.4260 H   0  0  0  0  0  0  0  0  0  0  0  0
  -26.7910  -16.0180   20.0800 H   0  0  0  0  0  0  0  0  0  0  0  0
  -31.1140  -17.5050   18.6760 C   0  0  0  0  0  2  0  0  0  0  0  0
  -29.8940  -18.1880   18.0170 C   0  0  0  0  0  2  0  0  0  0  0  0
  -28.8530  -18.9540   15.9180 C   0  0  0  0  0  1  0  0  0  0  0  0
  -31.2470  -19.3300   16.2720 C   0  0  0  0  0  1  0  0  0  0  0  0
  -30.0870  -18.4510   16.5650 N   0  0  1  0  0  4  0  0  0  0  0  0
  -30.2800  -17.5650   16.1230 H   0  0  0  0  0  0  0  0  0  0  0  0
  1  2  1  0
  2 10  1  0
  2  4  2  0
  3 58  1  0
  3  1  1  0
  3  6  1  0
  4  9  1  0
  6  5  1  0
  6  4  1  0
  8  9  1  0
  9  7  1  0
 11 14  1  0
 11 10  2  0
 14 12  1  6
 14 13  1  0
 15 14  1  0
 16 15  1  0
 17 19  1  0
 17 16  1  0
 18 29  2  0
 19 24  1  0
 20 28  1  0
 20 30  1  0
 21 27  1  0
 21 23  1  0
 22 28  1  0
 23 22  1  0
 24 23  2  0
 25 26  1  0
 25 19  2  0
 26 21  2  0
 27 20  1  0
 28 18  1  0
 30 32  2  0
 31 30  1  0
 33 31  1  0
 34 43  2  0
 34 39  1  0
 35 31  1  0
 35 39  1  0
 36 35  1  0
 37 38  1  0
 37 36  1  0
 38 34  1  0
 39 40  2  0
 40 41  1  0
 42 41  2  0
 43 42  1  0
 44 18  1  0
 44 49  1  0
 44 45  1  0
 45 48  1  1
 45 46  1  0
 47 45  1  0
 49 52  1  0
 50 49  1  0
 50 54  1  0
 51 50  2  0
 54 53  1  0
 56 54  1  0
 56 57  1  0
 56 55  1  0
 58 97  1  0
 58 67  1  0
 59 65  1  0
 59 67  1  0
 60 65  1  0
 61 62  1  0
 61 60  1  0
 63 62  1  0
 63 72  1  0
 63 64  1  0
 65 64  1  0
 66 59  2  0
 67 68  1  0
 69 70  2  0
 70 89  1  0
 71 70  1  0
 71 74  1  0
 72 69  1  0
 72 73  1  0
 73 71  2  0
 74 75  1  0
 75 76  2  0
 77 80  1  0
 77 76  1  0
 78 77  2  0
 79 78  1  0
 79 74  2  0
 80 81  1  0
 81 82  1  0
 82 83  2  0
 84 83  1  0
 84 88  1  0
 85 84  2  0
 86 81  2  0
 86 85  1  0
 87 86  1  0
 89 90  1  0
 90 93  1  0
 90 92  1  0
 91 89  2  0
 94 95  1  0
 94 69  1  0
 96 94  1  0
 98 97  1  0
 99101  1  0
100101  1  0
101 98  1  0
101102  1  6
M  ISO  4  16 101  17 101  59 100  67 100
M  END
>  <TORSDO>  (48) 
F 26

>  <SCORE>  (48) 
-9.299

>  <name>  (48) 
48

>  <ligand_id>  (48) 
48

>  <original_smiles>  (48) 
[H]c1c([H])c([H])c2c(c1[H])C([H])([H])C([H])([H])C([H])([H])C2([H])N([H])C(=O)C1([H])N(C(=O)C([H])(N([H])C(=O)C([H])(N([H])C([H])([H])[H])C([H])([H])[H])C(C([H])([H])[H])(C([H])([H])[H])C([H])([H])[H])C([H])([H])c2c([H])c(OC([H])([H])C([H])([H])C(C([H])([H])[H])(C([H])([H])[H])C([H])([H])C([H])([H])c3c([H])c(C([H])(N([H])C(=O)N4C([H])([H])C([H])([H])C([H])([H])C([H])(n5nc(-c6c([H])c([H])c(Oc7c([H])c([H])c(F)c([H])c7F)c([H])c6[H])c(C(=O)N([H])[H])c5N([H])[H])C4([H])[H])C([H])([H])C([H])([H])[N+]([H])(C([H])([H])[H])C([H])([H])[H])n(C([H])([H])[H])c3C([H])(C([H])([H])[H])C([H])([H])[H])c([H])c([H])c2C1([H])[H]

>  <smiles>  (48) 
[H]c1c([H])c([H])c2c(c1[H])C([H])([H])C([H])([H])C([H])([H])C2([H])N([H])C(=O)C1([H])N(C(=O)C([H])(N([H])C(=O)C([H])(N([H])C([H])([H])[H])C([H])([H])[H])C(C([H])([H])[H])(C([H])([H])[H])C([H])([H])[H])C([H])([H])c2c([H])c(OC([H])([H])C([H])([H])C(C([H])([H])[H])(C([H])([H])[H])C([H])([H])C([H])([H])c3c([H])c(C([H])(N([H])C(=O)N4C([H])([H])C([H])([H])C([H])([H])C([H])(n5nc(-c6c([H])c([H])c(Oc7c([H])c([H])c(F)c([H])c7F)c([H])c6[H])c(C(=O)N([H])[H])c5N([H])[H])C4([H])[H])C([H])([H])C([H])([H])[N+]([H])(C([H])([H])[H])C([H])([H])[H])n(C([H])([H])[H])c3C([H])(C([H])([H])[H])C([H])([H])[H])c([H])c([H])c2C1([H])[H]

$$$$
49:0:0
     RDKit          3D

 92100  0  0  1  0  0  0  0  0999 V2000
  -29.9620  -21.1880   20.2030 C   0  0  0  0  0  3  0  0  0  0  0  0
  -27.8080  -21.9700   19.4720 C   0  0  0  0  0  3  0  0  0  0  0  0
  -29.0790  -22.3160   19.9670 C   0  0  0  0  0  0  0  0  0  0  0  0
  -29.5410  -19.8130   19.9920 C   0  0  0  0  0  0  0  0  0  0  0  0
  -28.2030  -19.6670   19.5530 C   0  0  0  0  0  0  0  0  0  0  0  0
  -27.5140  -18.3170   19.4550 C   0  0  0  0  0  1  0  0  0  0  0  0
  -27.3920  -20.7050   19.2750 N   0  0  0  0  0  0  0  0  0  0  0  0
  -30.3820  -18.5220   20.4050 C   0  0  0  0  0  2  0  0  0  0  0  0
  -30.3170  -17.1480   19.5660 C   0  0  0  0  0  2  0  0  0  0  0  0
  -31.0330  -14.6590   19.9790 C   0  0  0  0  0  0  0  0  0  0  0  0
  -30.7300  -12.3560   19.0740 C   0  0  0  0  0  2  0  0  0  0  0  0
  -29.7620  -12.4390   17.8730 C   0  0  0  0  0  2  0  0  0  0  0  0
  -28.3060  -12.3140   18.3560 C   0  0  0  0  0  2  0  0  0  0  0  0
  -27.9940  -13.2580   19.5490 C   0  0  0  0  0  3  0  0  0  0  0  0
  -29.0830  -13.1710   20.6440 C   0  0  0  0  0  2  0  0  0  0  0  0
  -30.3820  -13.4480   20.0130 N   0  0  0  0  0  0  0  0  0  0  0  0
  -32.1690  -14.7470   19.5050 O   0  0  0  0  0  0  0  0  0  0  0  0
  -30.3010  -15.7920   20.2630 N   0  0  0  0  0  0  0  0  0  0  0  0
  -29.4480  -15.5960   20.7680 H   0  0  0  0  0  0  0  0  0  0  0  0
  -25.6610  -13.9480   20.3730 C   0  0  0  0  0  0  0  0  0  0  0  0
  -24.5780  -13.2220   20.7800 C   0  0  0  0  0  0  0  0  0  0  0  0
  -24.9760  -11.8500   20.7160 C   0  0  0  0  0  0  0  0  0  0  0  0
  -26.6560  -13.0270   20.0890 N   0  0  0  0  0  0  0  0  0  0  0  0
  -26.2500  -11.7580   20.3560 N   0  0  0  0  0  0  0  0  0  0  0  0
  -24.2010  -10.6200   20.9200 C   0  0  0  0  0  0  0  0  0  0  0  0
  -24.6020   -9.6410   21.8580 C   0  0  0  0  0  3  0  0  0  0  0  0
  -23.8290   -8.4750   22.0490 C   0  0  0  0  0  3  0  0  0  0  0  0
  -22.6410   -8.2790   21.3060 C   0  0  0  0  0  0  0  0  0  0  0  0
  -22.2590   -9.2460   20.3600 C   0  0  0  0  0  3  0  0  0  0  0  0
  -23.0290  -10.4030   20.1650 C   0  0  0  0  0  3  0  0  0  0  0  0
  -21.8420   -7.1660   21.4070 O   0  0  0  0  0  0  0  0  0  0  0  0
  -21.7410   -6.4560   22.5760 C   0  0  0  0  0  0  0  0  0  0  0  0
  -21.2960   -7.0520   23.7770 C   0  0  0  0  0  3  0  0  0  0  0  0
  -21.1460   -6.2690   24.9380 C   0  0  0  0  0  3  0  0  0  0  0  0
  -21.4280   -4.8910   24.9010 C   0  0  0  0  0  0  0  0  0  0  0  0
  -21.8650   -4.2940   23.7050 C   0  0  0  0  0  3  0  0  0  0  0  0
  -22.0200   -5.0740   22.5450 C   0  0  0  0  0  0  0  0  0  0  0  0
  -22.4220   -4.4890   21.3910 F   0  0  0  0  0  0  0  0  0  0  0  0
  -21.2730   -4.1380   26.0140 F   0  0  0  0  0  0  0  0  0  0  0  0
  -23.2140  -13.7590   21.1120 C   0  0  0  0  0  0  0  0  0  0  0  0
  -22.4990  -13.0990   22.0150 N   0  0  0  0  0  0  0  0  0  0  0  0
  -22.7970  -14.8000   20.6050 O   0  0  0  0  0  0  0  0  0  0  0  0
  -22.8530  -12.2590   22.4470 H   0  0  0  0  0  0  0  0  0  0  0  0
  -21.5850  -13.4390   22.2820 H   0  0  0  0  0  0  0  0  0  0  0  0
  -25.8750  -15.3120   20.1960 N   0  0  0  0  0  0  0  0  0  0  0  0
  -25.1240  -15.9830   20.3140 H   0  0  0  0  0  0  0  0  0  0  0  0
  -26.7030  -15.7100   19.7750 H   0  0  0  0  0  0  0  0  0  0  0  0
  -29.3970  -23.8520   20.2670 C   0  0  0  0  0  3  0  0  0  0  0  0
  -30.8130  -24.0630   18.1230 C   0  0  0  0  0  1  0  0  0  0  0  0
  -30.7360  -24.2870   19.6430 C   0  0  0  0  0  2  0  0  0  0  0  0
  -28.2730  -24.9520   19.9070 C   0  0  0  0  0  2  0  0  0  0  0  0
  -28.4920  -26.4210   20.0770 O   0  0  0  0  0  0  0  0  0  0  0  0
  -24.5590  -31.7020   23.0870 C   0  0  0  0  0  0  0  0  0  0  0  0
  -27.3590  -27.2600   20.0050 C   0  0  0  0  0  0  0  0  0  0  0  0
  -23.4310  -30.3000   21.4010 C   0  0  0  0  0  3  0  0  0  0  0  0
  -24.9530  -28.8190   19.9740 C   0  0  0  0  0  0  0  0  0  0  0  0
  -25.9670  -30.6870   21.2780 C   0  0  0  0  0  2  0  0  0  0  0  0
  -26.0970  -29.3260   20.6030 C   0  0  0  0  0  0  0  0  0  0  0  0
  -27.3040  -28.5590   20.6050 C   0  0  0  0  0  3  0  0  0  0  0  0
  -26.1880  -26.8200   19.3430 C   0  0  0  0  0  3  0  0  0  0  0  0
  -25.0030  -27.5760   19.3350 C   0  0  0  0  0  3  0  0  0  0  0  0
  -23.6870  -29.6490   20.0180 C   0  0  0  0  0  2  0  0  0  0  0  0
  -24.6710  -30.9110   21.9800 N   0  0  0  0  0  0  0  0  0  0  0  0
  -23.4550  -31.9400   23.5990 O   0  0  0  0  0  0  0  0  0  0  0  0
  -22.7730  -29.2520   22.3310 C   0  0  0  0  0  0  0  0  0  0  0  0
  -21.4500  -29.0650   22.1960 N   0  0  0  0  0  0  0  0  0  0  0  0
  -23.4560  -28.6080   23.1310 O   0  0  0  0  0  0  0  0  0  0  0  0
  -20.9510  -29.6410   21.5320 H   0  0  0  0  0  0  0  0  0  0  0  0
  -18.0870  -27.8430   22.6800 C   0  0  0  0  0  0  0  0  0  0  0  0
  -20.6470  -28.0940   22.9380 C   0  0  0  0  0  3  0  0  0  0  0  0
  -20.7480  -26.6870   22.3030 C   0  0  0  0  0  2  0  0  0  0  0  0
  -19.6400  -26.4040   21.2870 C   0  0  0  0  0  2  0  0  0  0  0  0
  -18.2590  -26.5260   21.9400 C   0  0  0  0  0  2  0  0  0  0  0  0
  -19.2090  -28.5870   23.1310 C   0  0  0  0  0  0  0  0  0  0  0  0
  -18.9980  -29.8240   23.7740 C   0  0  0  0  0  3  0  0  0  0  0  0
  -17.6950  -30.3170   23.9750 C   0  0  0  0  0  3  0  0  0  0  0  0
  -16.5860  -29.5700   23.5430 C   0  0  0  0  0  3  0  0  0  0  0  0
  -16.7830  -28.3330   22.8990 C   0  0  0  0  0  3  0  0  0  0  0  0
  -25.8080  -32.3600   23.7480 C   0  0  0  0  0  3  0  0  0  0  0  0
  -25.4540  -33.7460   24.0940 N   0  0  0  0  0  0  0  0  0  0  0  0
  -25.7750  -34.8190   23.3620 C   0  0  0  0  0  0  0  0  0  0  0  0
  -26.4710  -34.7510   22.3440 O   0  0  0  0  0  0  0  0  0  0  0  0
  -24.8360  -33.8750   24.8830 H   0  0  0  0  0  0  0  0  0  0  0  0
  -24.0100  -36.5710   22.9950 C   0  0  0  0  0  1  0  0  0  0  0  0
  -25.2410  -36.1860   23.8300 C   0  0  0  0  0  3  0  0  0  0  0  0
  -27.3270  -37.1120   24.7330 C   0  0  0  0  0  1  0  0  0  0  0  0
  -26.2490  -37.2650   23.7580 N   0  0  0  0  0  0  0  0  0  0  0  0
  -25.8160  -38.1740   23.9030 H   0  0  0  0  0  0  0  0  0  0  0  0
  -26.3200  -31.5830   25.0210 C   0  0  1  0  0  0  0  0  0  0  0  0
  -25.2110  -31.2870   26.0580 C   0  0  0  0  0  1  0  0  0  0  0  0
  -26.9570  -30.2330   24.6200 C   0  0  0  0  0  1  0  0  0  0  0  0
  -27.4290  -32.4020   25.7230 C   0  0  0  0  0  1  0  0  0  0  0  0
  2  3  1  0
  3  1  2  0
  3 48  1  0
  4  1  1  0
  4  8  1  0
  5  4  2  0
  6  5  1  0
  7  2  2  0
  7  5  1  0
  9 18  1  0
  9  8  1  0
 10 16  1  0
 10 18  1  0
 11 16  1  0
 12 13  1  0
 12 11  1  0
 14 13  1  0
 14 23  1  0
 14 15  1  0
 16 15  1  0
 17 10  2  0
 18 19  1  0
 20 21  2  0
 21 40  1  0
 22 21  1  0
 22 25  1  0
 23 24  1  0
 23 20  1  0
 24 22  2  0
 25 26  1  0
 26 27  2  0
 28 31  1  0
 28 27  1  0
 29 28  2  0
 30 29  1  0
 30 25  2  0
 31 32  1  0
 32 33  1  0
 33 34  2  0
 35 34  1  0
 35 39  1  0
 36 35  2  0
 37 32  2  0
 37 36  1  0
 38 37  1  0
 40 41  1  0
 41 44  1  0
 41 43  1  0
 42 40  2  0
 45 46  1  0
 45 20  1  0
 47 45  1  0
 48 50  1  0
 49 50  1  0
 51 52  1  0
 51 48  1  0
 53 64  2  0
 54 52  1  0
 54 59  1  0
 55 63  1  0
 55 65  1  0
 56 62  1  0
 56 58  1  0
 57 63  1  0
 58 59  2  0
 58 57  1  0
 60 54  2  0
 61 60  1  0
 61 56  2  0
 62 55  1  0
 63 53  1  0
 65 67  2  0
 66 65  1  0
 68 66  1  0
 69 78  2  0
 69 74  1  0
 70 66  1  0
 70 74  1  0
 71 70  1  0
 72 73  1  0
 72 71  1  0
 73 69  1  0
 74 75  2  0
 75 76  1  0
 77 76  2  0
 78 77  1  0
 79 53  1  0
 79 80  1  0
 79 89  1  0
 80 83  1  0
 81 85  1  0
 81 80  1  0
 82 81  2  0
 85 84  1  0
 87 85  1  0
 87 88  1  0
 87 86  1  0
 89 92  1  1
 89 90  1  0
 91 89  1  0
M  ISO  4  10 100  18 100  51 101  52 101
M  END
>  <TORSDO>  (49) 
F 21

>  <SCORE>  (49) 
-13.321

>  <name>  (49) 
49

>  <ligand_id>  (49) 
49

>  <original_smiles>  (49) 
[H]c1nc(C([H])([H])[H])c(C([H])([H])C([H])([H])N([H])C(=O)N2C([H])([H])C([H])([H])C([H])([H])C([H])(n3nc(-c4c([H])c([H])c(Oc5c([H])c([H])c(F)c([H])c5F)c([H])c4[H])c(C(=O)N([H])[H])c3N([H])[H])C2([H])[H])c([H])c1C([H])(C([H])([H])Oc1c([H])c([H])c2c(c1[H])C([H])([H])N(C(=O)C([H])(N([H])C(=O)C([H])(N([H])C([H])([H])[H])C([H])([H])[H])C(C([H])([H])[H])(C([H])([H])[H])C([H])([H])[H])C([H])(C(=O)N([H])C1([H])c3c([H])c([H])c([H])c([H])c3C([H])([H])C([H])([H])C1([H])[H])C2([H])[H])C([H])([H])C([H])([H])[H]

>  <smiles>  (49) 
[H]c1nc(C([H])([H])[H])c(C([H])([H])C([H])([H])N([H])C(=O)N2C([H])([H])C([H])([H])C([H])([H])C([H])(n3nc(-c4c([H])c([H])c(Oc5c([H])c([H])c(F)c([H])c5F)c([H])c4[H])c(C(=O)N([H])[H])c3N([H])[H])C2([H])[H])c([H])c1C([H])(C([H])([H])Oc1c([H])c([H])c2c(c1[H])C([H])([H])N(C(=O)C([H])(N([H])C(=O)C([H])(N([H])C([H])([H])[H])C([H])([H])[H])C(C([H])([H])[H])(C([H])([H])[H])C([H])([H])[H])C([H])(C(=O)N([H])C1([H])c3c([H])c([H])c([H])c([H])c3C([H])([H])C([H])([H])C1([H])[H])C2([H])[H])C([H])([H])C([H])([H])[H]

$$$$
50:0:0
     RDKit          3D

 91 98  0  0  1  0  0  0  0  0999 V2000
  -25.4700  -22.9320   18.4900 C   0  0  0  0  0  3  0  0  0  0  0  0
  -26.0940  -21.6820   18.8260 C   0  0  0  0  0  3  0  0  0  0  0  0
  -25.0000  -22.0190   20.9020 C   0  0  0  0  0  3  0  0  0  0  0  0
  -24.7990  -23.8770   19.3410 C   0  0  0  0  0  3  0  0  0  0  0  0
  -24.2300  -23.3100   20.5050 C   0  0  0  0  0  0  0  0  0  0  0  0
  -26.1530  -21.0600   20.1690 C   0  0  0  0  0  2  0  0  0  0  0  0
  -23.0080  -24.4260   20.9450 C   0  0  0  0  0  2  0  0  0  0  0  0
  -22.4270  -25.2290   19.6880 C   0  0  0  0  0  2  0  0  0  0  0  0
  -23.3480  -26.1750   18.8540 C   0  0  0  0  0  2  0  0  0  0  0  0
  -24.5780  -25.3680   18.7170 C   0  0  0  0  0  3  0  0  0  0  0  0
  -27.6320  -19.6550   20.3610 C   0  0  0  0  0 15  0  0  0  0  0  0
  -29.8400  -16.8300   19.8360 C   0  0  0  0  0  0  0  0  0  0  0  0
  -30.8680  -14.3320   18.9260 C   0  0  0  0  0  2  0  0  0  0  0  0
  -30.1940  -13.3600   17.8350 C   0  0  0  0  0  2  0  0  0  0  0  0
  -28.8680  -12.8010   18.3440 C   0  0  0  0  0  2  0  0  0  0  0  0
  -28.2530  -13.8930   19.2040 C   0  0  0  0  0  3  0  0  0  0  0  0
  -29.1240  -14.3540   20.3510 C   0  0  0  0  0  2  0  0  0  0  0  0
  -29.8960  -15.3360   19.6510 N   0  0  0  0  0  0  0  0  0  0  0  0
  -31.0930  -17.0270   19.6500 O   0  0  0  0  0  0  0  0  0  0  0  0
  -28.5980  -17.9640   19.9140 N   0  0  0  0  0  2  0  0  0  0  0  0
  -28.6290  -18.2410   18.9440 H   0  0  0  0  0  0  0  0  0  0  0  0
  -26.0200  -14.5490   20.0570 C   0  0  0  0  0  0  0  0  0  0  0  0
  -24.9540  -13.8190   20.4980 C   0  0  0  0  0  0  0  0  0  0  0  0
  -25.3680  -12.4540   20.4440 C   0  0  0  0  0  0  0  0  0  0  0  0
  -26.9650  -13.6030   19.7150 N   0  0  0  0  0  0  0  0  0  0  0  0
  -26.6160  -12.3380   20.0270 N   0  0  0  0  0  0  0  0  0  0  0  0
  -24.6310  -11.2220   20.6720 C   0  0  0  0  0  0  0  0  0  0  0  0
  -25.0110  -10.3170   21.6820 C   0  0  0  0  0  3  0  0  0  0  0  0
  -24.2690   -9.1380   21.8780 C   0  0  0  0  0  3  0  0  0  0  0  0
  -23.1370   -8.8720   21.0710 C   0  0  0  0  0  0  0  0  0  0  0  0
  -22.7830   -9.7740   20.0550 C   0  0  0  0  0  3  0  0  0  0  0  0
  -23.5230  -10.9470   19.8550 C   0  0  0  0  0  3  0  0  0  0  0  0
  -22.3660   -7.7400   21.1770 O   0  0  0  0  0  0  0  0  0  0  0  0
  -22.0860   -7.1830   22.3960 C   0  0  0  0  0  0  0  0  0  0  0  0
  -21.4430   -7.9100   23.4210 C   0  0  0  0  0  3  0  0  0  0  0  0
  -21.1190   -7.2750   24.6360 C   0  0  0  0  0  3  0  0  0  0  0  0
  -21.4200   -5.9120   24.8190 C   0  0  0  0  0  0  0  0  0  0  0  0
  -22.0520   -5.1830   23.7950 C   0  0  0  0  0  3  0  0  0  0  0  0
  -22.3830   -5.8190   22.5860 C   0  0  0  0  0  0  0  0  0  0  0  0
  -22.9810   -5.1100   21.5970 F   0  0  0  0  0  0  0  0  0  0  0  0
  -21.0960   -5.2990   25.9820 F   0  0  0  0  0  0  0  0  0  0  0  0
  -23.6100  -14.3740   20.8300 C   0  0  0  0  0  0  0  0  0  0  0  0
  -22.9130  -13.7300   21.7620 N   0  0  0  0  0  0  0  0  0  0  0  0
  -23.1990  -15.4120   20.3180 O   0  0  0  0  0  0  0  0  0  0  0  0
  -23.2900  -12.8990   22.1880 H   0  0  0  0  0  0  0  0  0  0  0  0
  -22.0100  -14.0710   22.0630 H   0  0  0  0  0  0  0  0  0  0  0  0
  -26.2500  -15.9060   19.8630 N   0  0  0  0  0  0  0  0  0  0  0  0
  -25.5640  -16.6550   19.9820 H   0  0  0  0  0  0  0  0  0  0  0  0
  -27.1240  -16.1940   19.4330 H   0  0  0  0  0  0  0  0  0  0  0  0
  -25.7350  -26.4100   19.0470 C   0  0  0  0  0  2  0  0  0  0  0  0
  -27.2060  -26.8530   19.0520 O   0  0  0  0  0  0  0  0  0  0  0  0
  -24.4550  -31.7550   23.0970 C   0  0  0  0  0  0  0  0  0  0  0  0
  -27.2400  -28.2230   19.0610 C   0  0  0  0  0  0  0  0  0  0  0  0
  -23.3810  -30.6200   21.1930 C   0  0  0  0  0  3  0  0  0  0  0  0
  -24.9970  -29.7550   19.3630 C   0  0  0  0  0  0  0  0  0  0  0  0
  -25.9070  -31.0750   21.1970 C   0  0  0  0  0  2  0  0  0  0  0  0
  -26.0290  -29.8900   20.2770 C   0  0  0  0  0  0  0  0  0  0  0  0
  -27.1320  -29.0100   20.2230 C   0  0  0  0  0  3  0  0  0  0  0  0
  -26.5830  -28.6740   17.9300 C   0  0  0  0  0  3  0  0  0  0  0  0
  -25.3040  -29.2020   18.1250 C   0  0  0  0  0  3  0  0  0  0  0  0
  -23.6950  -30.4610   19.6620 C   0  0  0  0  0  2  0  0  0  0  0  0
  -24.5920  -31.1640   21.8830 N   0  0  0  0  0  0  0  0  0  0  0  0
  -23.3370  -31.8820   23.6230 O   0  0  0  0  0  0  0  0  0  0  0  0
  -22.8610  -29.3070   21.8090 C   0  0  0  0  0  0  0  0  0  0  0  0
  -21.5070  -29.1680   21.8310 N   0  0  0  0  0  0  0  0  0  0  0  0
  -23.5850  -28.4660   22.3290 O   0  0  0  0  0  0  0  0  0  0  0  0
  -20.9580  -30.0070   21.6020 H   0  0  0  0  0  0  0  0  0  0  0  0
  -18.0940  -27.7430   22.4370 C   0  0  0  0  0  0  0  0  0  0  0  0
  -20.6950  -28.0550   22.4610 C   0  0  0  0  0  3  0  0  0  0  0  0
  -20.7200  -26.7720   21.7110 C   0  0  0  0  0  2  0  0  0  0  0  0
  -19.5320  -26.2600   20.9960 C   0  0  0  0  0  2  0  0  0  0  0  0
  -18.2160  -26.5370   21.6020 C   0  0  0  0  0  2  0  0  0  0  0  0
  -19.2600  -28.4260   22.8840 C   0  0  0  0  0  0  0  0  0  0  0  0
  -19.0670  -29.5000   23.7980 C   0  0  0  0  0  3  0  0  0  0  0  0
  -17.7400  -29.9170   24.1360 C   0  0  0  0  0  3  0  0  0  0  0  0
  -16.6230  -29.2430   23.5690 C   0  0  0  0  0  3  0  0  0  0  0  0
  -16.7590  -28.1180   22.7310 C   0  0  0  0  0  3  0  0  0  0  0  0
  -25.7030  -32.3160   23.8410 C   0  0  0  0  0  3  0  0  0  0  0  0
  -25.4110  -33.7150   24.1790 N   0  0  0  0  0  0  0  0  0  0  0  0
  -25.8730  -34.7710   23.5030 C   0  0  0  0  0  0  0  0  0  0  0  0
  -26.6680  -34.6720   22.5670 O   0  0  0  0  0  0  0  0  0  0  0  0
  -24.7430  -33.8810   24.9150 H   0  0  0  0  0  0  0  0  0  0  0  0
  -24.2910  -36.6500   22.9410 C   0  0  0  0  0  1  0  0  0  0  0  0
  -25.3610  -36.1610   23.9330 C   0  0  0  0  0  3  0  0  0  0  0  0
  -27.3640  -36.8970   25.1470 C   0  0  0  0  0  1  0  0  0  0  0  0
  -26.4270  -37.1790   24.0610 N   0  0  0  0  0  0  0  0  0  0  0  0
  -26.0200  -38.0960   24.2340 H   0  0  0  0  0  0  0  0  0  0  0  0
  -26.0780  -31.4960   25.1360 C   0  0  1  0  0  0  0  0  0  0  0  0
  -24.8820  -31.2620   26.0810 C   0  0  0  0  0  1  0  0  0  0  0  0
  -26.6600  -30.1090   24.7800 C   0  0  0  0  0  1  0  0  0  0  0  0
  -27.1760  -32.2430   25.9280 C   0  0  0  0  0  1  0  0  0  0  0  0
  1  2  2  0
  2  6  1  0
  4  1  1  0
  4  5  1  0
  5  3  2  0
  5  7  1  0
  6  3  1  0
  8  7  1  0
  9  8  1  0
 10  9  1  0
 10 50  1  0
 10  4  1  0
 12 20  1  0
 13 18  1  0
 14 15  1  0
 14 13  1  0
 16 15  1  0
 16 25  1  0
 16 17  1  0
 18 12  1  0
 18 17  1  0
 19 12  2  0
 21 20  1  0
 22 23  2  0
 23 42  1  0
 24 23  1  0
 24 27  1  0
 25 26  1  0
 25 22  1  0
 26 24  2  0
 27 28  1  0
 28 29  2  0
 30 33  1  0
 30 29  1  0
 31 30  2  0
 32 31  1  0
 32 27  2  0
 33 34  1  0
 34 39  2  0
 34 35  1  0
 35 36  2  0
 36 37  1  0
 37 41  1  0
 38 37  2  0
 39 38  1  0
 40 39  1  0
 42 43  1  0
 43 46  1  0
 43 45  1  0
 44 42  2  0
 47 48  1  0
 47 22  1  0
 49 47  1  0
 50 51  1  0
 51 53  1  0
 52 63  2  0
 53 58  1  0
 54 64  1  0
 54 62  1  0
 55 61  1  0
 55 57  1  0
 56 62  1  0
 57 56  1  0
 58 57  2  0
 59 60  1  0
 59 53  2  0
 60 55  2  0
 61 54  1  0
 62 52  1  0
 64 65  1  0
 64 66  2  0
 67 65  1  0
 68 77  2  0
 68 73  1  0
 69 65  1  0
 69 73  1  0
 70 69  1  0
 71 72  1  0
 71 70  1  0
 72 68  1  0
 73 74  2  0
 74 75  1  0
 76 75  2  0
 77 76  1  0
 78 52  1  0
 78 79  1  0
 78 88  1  0
 79 82  1  0
 80 84  1  0
 80 79  1  0
 81 80  2  0
 84 83  1  0
 84 86  1  0
 86 87  1  0
 86 85  1  0
 88 91  1  1
 88 89  1  0
 90 88  1  0
M  ISO  4  12 100  20 100  50 101  51 101
M  END
>  <TORSDO>  (50) 
F 18

>  <SCORE>  (50) 
-7.580

>  <name>  (50) 
50

>  <ligand_id>  (50) 
50

>  <original_smiles>  (50) 
[H]c1c([H])c([H])c2c(c1[H])C([H])([H])C([H])([H])C([H])([H])C2([H])N([H])C(=O)C1([H])N(C(=O)C([H])(N([H])C(=O)C([H])(N([H])C([H])([H])[H])C([H])([H])[H])C(C([H])([H])[H])(C([H])([H])[H])C([H])([H])[H])C([H])([H])c2c([H])c(OC([H])([H])C3([H])c4c([H])c([H])c(C([H])([H])N([H])C(=O)N5C([H])([H])C([H])([H])C([H])([H])C([H])(n6nc(-c7c([H])c([H])c(Oc8c([H])c([H])c(F)c([H])c8F)c([H])c7[H])c(C(=O)N([H])[H])c6N([H])[H])C5([H])[H])c([H])c4C([H])([H])C([H])([H])C3([H])[H])c([H])c([H])c2C1([H])[H]

>  <smiles>  (50) 
[H]c1c([H])c([H])c2c(c1[H])C([H])([H])C([H])([H])C([H])([H])C2([H])N([H])C(=O)C1([H])N(C(=O)C([H])(N([H])C(=O)C([H])(N([H])C([H])([H])[H])C([H])([H])[H])C(C([H])([H])[H])(C([H])([H])[H])C([H])([H])[H])C([H])([H])c2c([H])c(OC([H])([H])C3([H])c4c([H])c([H])c(C([H])([H])N([H])C(=O)N5C([H])([H])C([H])([H])C([H])([H])C([H])(n6nc(-c7c([H])c([H])c(Oc8c([H])c([H])c(F)c([H])c8F)c([H])c7[H])c(C(=O)N([H])[H])c6N([H])[H])C5([H])[H])c([H])c4C([H])([H])C([H])([H])C3([H])[H])c([H])c([H])c2C1([H])[H]

$$$$
51:0:0
     RDKit          3D

101109  0  0  1  0  0  0  0  0999 V2000
  -29.9140  -23.8120   21.6330 C   0  0  0  0  0  3  0  0  0  0  0  0
  -29.1260  -24.5240   20.6810 C   0  0  0  0  0  0  0  0  0  0  0  0
  -30.6980  -22.8980   20.9930 C   0  0  0  0  0  0  0  0  0  0  0  0
  -29.5230  -24.0740   19.4390 C   0  0  0  0  0  0  0  0  0  0  0  0
  -30.4430  -23.0370   19.6350 N   0  0  0  0  0  0  0  0  0  0  0  0
  -31.5850  -21.8100   23.0930 C   0  0  0  0  0  1  0  0  0  0  0  0
  -33.0920  -22.0760   21.0920 C   0  0  0  0  0  1  0  0  0  0  0  0
  -31.6410  -21.8650   21.5550 C   0  0  0  0  0  3  0  0  0  0  0  0
  -29.0670  -25.9450   17.7310 C   0  0  0  0  0  1  0  0  0  0  0  0
  -27.7220  -23.8080   17.6830 C   0  0  0  0  0  1  0  0  0  0  0  0
  -29.0730  -24.4420   18.0370 C   0  0  0  0  0  3  0  0  0  0  0  0
  -27.3470  -25.0670   22.3650 C   0  0  0  0  0  1  0  0  0  0  0  0
  -27.9870  -25.4830   21.0180 C   0  0  0  0  0  3  0  0  0  0  0  0
  -28.3440  -27.0100   20.9830 C   0  0  0  0  0  2  0  0  0  0  0  0
  -27.8930  -27.7600   19.8270 O   0  0  0  0  0  0  0  0  0  0  0  0
  -24.7430  -32.2630   24.3210 C   0  0  0  0  0  0  0  0  0  0  0  0
  -26.8220  -28.5880   20.0570 C   0  0  0  0  0  0  0  0  0  0  0  0
  -23.3010  -31.2740   22.5710 C   0  0  0  0  0  3  0  0  0  0  0  0
  -24.5180  -30.0950   20.6630 C   0  0  0  0  0  0  0  0  0  0  0  0
  -25.7960  -31.6420   22.1530 C   0  0  0  0  0  2  0  0  0  0  0  0
  -25.7550  -30.4490   21.2240 C   0  0  0  0  0  0  0  0  0  0  0  0
  -26.9140  -29.6930   20.9310 C   0  0  0  0  0  3  0  0  0  0  0  0
  -25.5900  -28.2960   19.4360 C   0  0  0  0  0  3  0  0  0  0  0  0
  -24.4290  -29.0180   19.7650 C   0  0  0  0  0  3  0  0  0  0  0  0
  -23.3190  -30.9230   21.0580 C   0  0  0  0  0  2  0  0  0  0  0  0
  -24.6370  -31.7280   23.0710 N   0  0  0  0  0  0  0  0  0  0  0  0
  -23.7450  -32.4200   25.0360 O   0  0  0  0  0  0  0  0  0  0  0  0
  -22.7300  -30.0700   23.3550 C   0  0  0  0  0  0  0  0  0  0  0  0
  -21.4770  -29.6960   23.0450 N   0  0  0  0  0  0  0  0  0  0  0  0
  -23.4110  -29.4810   24.1980 O   0  0  0  0  0  0  0  0  0  0  0  0
  -20.9830  -30.2350   22.3490 H   0  0  0  0  0  0  0  0  0  0  0  0
  -18.5300  -27.6370   22.6770 C   0  0  0  0  0  0  0  0  0  0  0  0
  -20.7460  -28.5720   23.6270 C   0  0  0  0  0  3  0  0  0  0  0  0
  -21.3750  -27.2240   23.2110 C   0  0  0  0  0  2  0  0  0  0  0  0
  -20.7320  -26.6180   21.9590 C   0  0  0  0  0  2  0  0  0  0  0  0
  -19.2340  -26.3850   22.1810 C   0  0  0  0  0  2  0  0  0  0  0  0
  -19.2420  -28.6700   23.3420 C   0  0  0  0  0  0  0  0  0  0  0  0
  -18.5450  -29.8270   23.7520 C   0  0  0  0  0  3  0  0  0  0  0  0
  -17.1640  -29.9600   23.5150 C   0  0  0  0  0  3  0  0  0  0  0  0
  -16.4600  -28.9250   22.8720 C   0  0  0  0  0  3  0  0  0  0  0  0
  -17.1430  -27.7680   22.4560 C   0  0  0  0  0  3  0  0  0  0  0  0
  -26.1160  -32.7260   24.9000 C   0  0  0  0  0  3  0  0  0  0  0  0
  -26.6070  -31.8470   26.1160 C   0  0  1  0  0  0  0  0  0  0  0  0
  -25.5250  -31.6250   27.1980 C   0  0  0  0  0  1  0  0  0  0  0  0
  -27.0780  -30.4570   25.6300 C   0  0  0  0  0  1  0  0  0  0  0  0
  -27.8280  -32.5150   26.7880 C   0  0  0  0  0  1  0  0  0  0  0  0
  -25.9790  -34.1340   25.2980 N   0  0  0  0  0  0  0  0  0  0  0  0
  -26.5600  -35.1630   24.6650 C   0  0  0  0  0  0  0  0  0  0  0  0
  -27.3390  -35.0150   23.7200 O   0  0  0  0  0  0  0  0  0  0  0  0
  -25.3130  -34.3310   26.0310 H   0  0  0  0  0  0  0  0  0  0  0  0
  -25.2620  -37.2590   24.1740 C   0  0  0  0  0  1  0  0  0  0  0  0
  -26.2250  -36.5830   25.1610 C   0  0  0  0  0  3  0  0  0  0  0  0
  -28.2620  -36.9980   26.4660 C   0  0  0  0  0  1  0  0  0  0  0  0
  -27.4180  -37.4320   25.3560 N   0  0  0  0  0  0  0  0  0  0  0  0
  -27.1490  -38.3970   25.5250 H   0  0  0  0  0  0  0  0  0  0  0  0
  -31.0480  -22.2300   18.5720 C   0  0  0  0  0  2  0  0  0  0  0  0
  -32.4690  -22.7070   18.2390 C   0  0  0  0  0  2  0  0  0  0  0  0
  -33.1370  -21.8560   17.1400 C   0  0  0  0  0  2  0  0  0  0  0  0
  -35.1460  -20.8670   16.0280 C   0  0  0  0  0  1  0  0  0  0  0  0
  -34.6880  -21.8050   17.1710 C   0  0  1  0  0  0  0  0  0  0  0  0
  -35.0430  -23.8500   15.5560 C   0  0  0  0  0  1  0  0  0  0  0  0
  -35.3280  -23.2030   16.9260 C   0  0  0  0  0  2  0  0  0  0  0  0
  -35.1780  -21.3020   18.5700 C   0  0  0  0  0  2  0  0  0  0  0  0
  -35.6830  -18.9210   19.0330 C   0  0  0  0  0  0  0  0  0  0  0  0
  -35.9920  -16.4870   19.1520 C   0  0  0  0  0  2  0  0  0  0  0  0
  -35.4840  -15.8230   17.8600 C   0  0  0  0  0  2  0  0  0  0  0  0
  -33.9830  -15.4980   17.9800 C   0  0  0  0  0  2  0  0  0  0  0  0
  -33.1440  -16.7050   18.4800 C   0  0  0  0  0  3  0  0  0  0  0  0
  -33.7970  -17.3760   19.7110 C   0  0  0  0  0  2  0  0  0  0  0  0
  -35.1920  -17.7010   19.3720 N   0  0  0  0  0  0  0  0  0  0  0  0
  -36.8710  -19.1030   18.7630 O   0  0  0  0  0  0  0  0  0  0  0  0
  -34.8000  -19.9230   18.9190 N   0  0  0  0  0  0  0  0  0  0  0  0
  -33.8320  -19.7280   19.1260 H   0  0  0  0  0  0  0  0  0  0  0  0
  -30.6100  -17.0850   18.7210 C   0  0  0  0  0  0  0  0  0  0  0  0
  -29.5740  -16.2250   18.9690 C   0  0  0  0  0  0  0  0  0  0  0  0
  -30.1630  -14.9330   19.1280 C   0  0  0  0  0  0  0  0  0  0  0  0
  -31.7610  -16.3140   18.7470 N   0  0  0  0  0  0  0  0  0  0  0  0
  -31.4840  -15.0170   19.0460 N   0  0  0  0  0  0  0  0  0  0  0  0
  -29.5400  -13.6140   19.2990 C   0  0  0  0  0  0  0  0  0  0  0  0
  -29.5870  -12.9290   20.5330 C   0  0  0  0  0  3  0  0  0  0  0  0
  -28.9650  -11.6700   20.6770 C   0  0  0  0  0  3  0  0  0  0  0  0
  -28.2830  -11.0860   19.5840 C   0  0  0  0  0  0  0  0  0  0  0  0
  -28.2600  -11.7600   18.3510 C   0  0  0  0  0  3  0  0  0  0  0  0
  -28.8840  -13.0110   18.2070 C   0  0  0  0  0  3  0  0  0  0  0  0
  -27.6730   -9.8550   19.6240 O   0  0  0  0  0  0  0  0  0  0  0  0
  -26.8440   -9.4960   20.6570 C   0  0  0  0  0  0  0  0  0  0  0  0
  -25.6480  -10.1940   20.9300 C   0  0  0  0  0  3  0  0  0  0  0  0
  -24.7920   -9.7490   21.9560 C   0  0  0  0  0  3  0  0  0  0  0  0
  -25.1240   -8.6030   22.7040 C   0  0  0  0  0  0  0  0  0  0  0  0
  -26.3120   -7.9010   22.4290 C   0  0  0  0  0  3  0  0  0  0  0  0
  -27.1670   -8.3460   21.4050 C   0  0  0  0  0  0  0  0  0  0  0  0
  -28.3000   -7.6550   21.1310 F   0  0  0  0  0  0  0  0  0  0  0  0
  -24.2980   -8.1700   23.6850 F   0  0  0  0  0  0  0  0  0  0  0  0
  -28.1110  -16.5630   18.9640 C   0  0  0  0  0  0  0  0  0  0  0  0
  -27.3160  -15.8520   19.7560 N   0  0  0  0  0  0  0  0  0  0  0  0
  -27.6730  -17.4950   18.2910 O   0  0  0  0  0  0  0  0  0  0  0  0
  -27.6800  -15.1000   20.3220 H   0  0  0  0  0  0  0  0  0  0  0  0
  -26.3290  -16.0640   19.7960 H   0  0  0  0  0  0  0  0  0  0  0  0
  -30.6700  -18.4510   18.4580 N   0  0  0  0  0  0  0  0  0  0  0  0
  -29.8360  -19.0220   18.3770 H   0  0  0  0  0  0  0  0  0  0  0  0
  -31.5200  -18.9550   18.2400 H   0  0  0  0  0  0  0  0  0  0  0  0
  2 13  1  0
  2  1  1  0
  3  8  1  0
  3  1  2  0
  4  5  1  0
  4  2  2  0
  5  3  1  0
  7  8  1  0
  8  6  1  0
  9 11  1  0
 10 11  1  0
 11  4  1  0
 13 12  1  0
 14 13  1  0
 15 17  1  0
 15 14  1  0
 16 27  2  0
 17 22  1  0
 18 26  1  0
 18 28  1  0
 19 25  1  0
 19 21  1  0
 20 26  1  0
 21 20  1  0
 22 21  2  0
 23 24  1  0
 23 17  2  0
 24 19  2  0
 25 18  1  0
 26 16  1  0
 28 30  2  0
 29 28  1  0
 31 29  1  0
 32 37  1  0
 33 29  1  0
 34 33  1  0
 35 36  1  0
 35 34  1  0
 36 32  1  0
 37 33  1  0
 37 38  2  0
 39 38  1  0
 40 39  2  0
 41 32  2  0
 41 40  1  0
 42 16  1  0
 42 47  1  0
 42 43  1  0
 43 46  1  1
 43 44  1  0
 45 43  1  0
 47 50  1  0
 48 52  1  0
 48 47  1  0
 49 48  2  0
 52 51  1  0
 52 54  1  0
 54 55  1  0
 54 53  1  0
 56  5  1  0
 57 56  1  0
 58 60  1  0
 58 57  1  0
 60 59  1  6
 60 63  1  0
 61 62  1  0
 62 60  1  0
 63 72  1  0
 64 70  1  0
 65 70  1  0
 66 67  1  0
 66 65  1  0
 68 67  1  0
 68 77  1  0
 68 69  1  0
 70 69  1  0
 71 64  2  0
 72 64  1  0
 72 73  1  0
 74 77  1  0
 74 75  2  0
 75 76  1  0
 76 79  1  0
 77 78  1  0
 78 76  2  0
 79 80  1  0
 80 81  2  0
 82 85  1  0
 82 81  1  0
 83 82  2  0
 84 83  1  0
 84 79  2  0
 85 86  1  0
 86 87  2  0
 86 91  1  0
 87 88  1  0
 88 89  2  0
 89 93  1  0
 90 89  1  0
 91 90  2  0
 92 91  1  0
 94 75  1  0
 94 95  1  0
 95 98  1  0
 95 97  1  0
 96 94  2  0
 99 74  1  0
100 99  1  0
101 99  1  0
M  ISO  4  14 101  15 101  64 100  72 100
M  END
>  <TORSDO>  (51) 
F 26

>  <SCORE>  (51) 
-5.212

>  <name>  (51) 
51

>  <ligand_id>  (51) 
51

>  <original_smiles>  (51) 
[H]c1c([H])c([H])c2c(c1[H])C([H])([H])C([H])([H])C([H])([H])C2([H])N([H])C(=O)C1([H])N(C(=O)C([H])(N([H])C(=O)C([H])(N([H])C([H])([H])[H])C([H])([H])[H])C(C([H])([H])[H])(C([H])([H])[H])C([H])([H])[H])C([H])([H])c2c([H])c(OC([H])([H])C([H])(c3c([H])c(C([H])(C([H])([H])[H])C([H])([H])[H])n(C([H])([H])C([H])([H])C([H])([H])C(C([H])([H])[H])(C([H])([H])N([H])C(=O)N4C([H])([H])C([H])([H])C([H])([H])C([H])(n5nc(-c6c([H])c([H])c(Oc7c([H])c([H])c(F)c([H])c7F)c([H])c6[H])c(C(=O)N([H])[H])c5N([H])[H])C4([H])[H])C([H])([H])C([H])([H])[H])c3C([H])(C([H])([H])[H])C([H])([H])[H])C([H])([H])[H])c([H])c([H])c2C1([H])[H]

>  <smiles>  (51) 
[H]c1c([H])c([H])c2c(c1[H])C([H])([H])C([H])([H])C([H])([H])C2([H])N([H])C(=O)C1([H])N(C(=O)C([H])(N([H])C(=O)C([H])(N([H])C([H])([H])[H])C([H])([H])[H])C(C([H])([H])[H])(C([H])([H])[H])C([H])([H])[H])C([H])([H])c2c([H])c(OC([H])([H])C([H])(c3c([H])c(C([H])(C([H])([H])[H])C([H])([H])[H])n(C([H])([H])C([H])([H])C([H])([H])C(C([H])([H])[H])(C([H])([H])N([H])C(=O)N4C([H])([H])C([H])([H])C([H])([H])C([H])(n5nc(-c6c([H])c([H])c(Oc7c([H])c([H])c(F)c([H])c7F)c([H])c6[H])c(C(=O)N([H])[H])c5N([H])[H])C4([H])[H])C([H])([H])C([H])([H])[H])c3C([H])(C([H])([H])[H])C([H])([H])[H])C([H])([H])[H])c([H])c([H])c2C1([H])[H]

$$$$
52:0:0
     RDKit          3D

 91 98  0  0  1  0  0  0  0  0999 V2000
  -28.9430  -21.9610   19.7370 N   0  0  1  0  0  4  0  0  0  0  0  0
  -27.9510  -21.8090   19.8490 H   0  0  0  0  0  0  0  0  0  0  0  0
  -29.0470  -23.3080   17.5100 C   0  0  0  0  0  1  0  0  0  0  0  0
  -30.5970  -21.4480   17.8620 C   0  0  0  0  0  1  0  0  0  0  0  0
  -28.0750  -21.0660   17.5660 C   0  0  0  0  0  1  0  0  0  0  0  0
  -29.1680  -21.9330   18.2300 C   0  0  1  0  0  0  0  0  0  0  0  0
  -29.5850  -20.6850   20.4740 C   0  0  0  0  0  2  0  0  0  0  0  0
  -29.2960  -19.0470   20.0900 C   0  0  0  0  0  3  0  0  0  0  0  0
  -30.1760  -17.7090   20.6290 C   0  0  0  0  0  3  0  0  0  0  0  0
  -30.5240  -14.9890   20.3190 C   0  0  0  0  0  0  0  0  0  0  0  0
  -30.3660  -12.6590   19.3390 C   0  0  0  0  0  2  0  0  0  0  0  0
  -29.4050  -12.6150   18.1280 C   0  0  0  0  0  2  0  0  0  0  0  0
  -27.9500  -12.4080   18.5910 C   0  0  0  0  0  2  0  0  0  0  0  0
  -27.5670  -13.3090   19.7950 C   0  0  0  0  0  3  0  0  0  0  0  0
  -28.6540  -13.3250   20.8920 C   0  0  0  0  0  2  0  0  0  0  0  0
  -29.9030  -13.7430   20.2460 N   0  0  0  0  0  0  0  0  0  0  0  0
  -31.7300  -15.0370   20.0630 O   0  0  0  0  0  0  0  0  0  0  0  0
  -29.7710  -16.1850   20.4700 N   0  0  0  0  0  0  0  0  0  0  0  0
  -28.7830  -16.0110   20.5610 H   0  0  0  0  0  0  0  0  0  0  0  0
  -25.1960  -13.8630   20.5820 C   0  0  0  0  0  0  0  0  0  0  0  0
  -24.1420  -13.0760   20.9540 C   0  0  0  0  0  0  0  0  0  0  0  0
  -24.6110  -11.7280   20.8980 C   0  0  0  0  0  0  0  0  0  0  0  0
  -26.2410  -12.9950   20.3160 N   0  0  0  0  0  0  0  0  0  0  0  0
  -25.9000  -11.7050   20.5730 N   0  0  0  0  0  0  0  0  0  0  0  0
  -23.8920  -10.4610   21.0800 C   0  0  0  0  0  0  0  0  0  0  0  0
  -24.3360   -9.4870   22.0020 C   0  0  0  0  0  3  0  0  0  0  0  0
  -23.6170   -8.2840   22.1760 C   0  0  0  0  0  3  0  0  0  0  0  0
  -22.4400   -8.0460   21.4280 C   0  0  0  0  0  0  0  0  0  0  0  0
  -22.0130   -9.0090   20.4960 C   0  0  0  0  0  3  0  0  0  0  0  0
  -22.7320  -10.2040   20.3210 C   0  0  0  0  0  3  0  0  0  0  0  0
  -21.6930   -6.8960   21.5120 O   0  0  0  0  0  0  0  0  0  0  0  0
  -21.6520   -6.1460   22.6600 C   0  0  0  0  0  0  0  0  0  0  0  0
  -21.1950   -6.6810   23.8840 C   0  0  0  0  0  3  0  0  0  0  0  0
  -21.1050   -5.8550   25.0220 C   0  0  0  0  0  3  0  0  0  0  0  0
  -21.4610   -4.4960   24.9370 C   0  0  0  0  0  0  0  0  0  0  0  0
  -21.9090   -3.9600   23.7170 C   0  0  0  0  0  3  0  0  0  0  0  0
  -22.0020   -4.7830   22.5810 C   0  0  0  0  0  0  0  0  0  0  0  0
  -22.4140   -4.2560   21.4020 F   0  0  0  0  0  0  0  0  0  0  0  0
  -21.3650   -3.7000   26.0280 F   0  0  0  0  0  0  0  0  0  0  0  0
  -22.7460  -13.5440   21.2460 C   0  0  0  0  0  0  0  0  0  0  0  0
  -22.0300  -12.8300   22.1050 N   0  0  0  0  0  0  0  0  0  0  0  0
  -22.3020  -14.5770   20.7480 O   0  0  0  0  0  0  0  0  0  0  0  0
  -22.4080  -11.9950   22.5310 H   0  0  0  0  0  0  0  0  0  0  0  0
  -21.0920  -13.1200   22.3380 H   0  0  0  0  0  0  0  0  0  0  0  0
  -25.3470  -15.2360   20.4190 N   0  0  0  0  0  0  0  0  0  0  0  0
  -24.5770  -15.8800   20.5580 H   0  0  0  0  0  0  0  0  0  0  0  0
  -26.1760  -15.6840   20.0520 H   0  0  0  0  0  0  0  0  0  0  0  0
  -29.1490  -23.4210   20.3570 C   0  0  0  0  0  2  0  0  0  0  0  0
  -27.0740  -24.3840   21.5210 C   0  0  0  0  0  1  0  0  0  0  0  0
  -27.9910  -24.6540   20.3130 C   0  0  0  0  0  3  0  0  0  0  0  0
  -28.2600  -26.1970   20.3130 O   0  0  0  0  0  0  0  0  0  0  0  0
  -24.6080  -31.8910   23.2370 C   0  0  0  0  0  0  0  0  0  0  0  0
  -27.2010  -27.1770   20.2220 C   0  0  0  0  0  0  0  0  0  0  0  0
  -23.4110  -30.4820   21.6080 C   0  0  0  0  0  3  0  0  0  0  0  0
  -24.8640  -28.9090   20.1850 C   0  0  0  0  0  0  0  0  0  0  0  0
  -25.9640  -30.7550   21.4400 C   0  0  0  0  0  2  0  0  0  0  0  0
  -26.0410  -29.3600   20.7950 C   0  0  0  0  0  0  0  0  0  0  0  0
  -27.2080  -28.5080   20.8020 C   0  0  0  0  0  3  0  0  0  0  0  0
  -26.0030  -26.8390   19.5520 C   0  0  0  0  0  3  0  0  0  0  0  0
  -24.8590  -27.6630   19.5450 C   0  0  0  0  0  3  0  0  0  0  0  0
  -23.6300  -29.7950   20.2330 C   0  0  0  0  0  2  0  0  0  0  0  0
  -24.6810  -31.0650   22.1500 N   0  0  0  0  0  0  0  0  0  0  0  0
  -23.5210  -32.1770   23.7620 O   0  0  0  0  0  0  0  0  0  0  0  0
  -22.7360  -29.4780   22.5750 C   0  0  0  0  0  0  0  0  0  0  0  0
  -21.4110  -29.2930   22.4410 N   0  0  0  0  0  0  0  0  0  0  0  0
  -23.4080  -28.8660   23.4090 O   0  0  0  0  0  0  0  0  0  0  0  0
  -20.9260  -29.8400   21.7430 H   0  0  0  0  0  0  0  0  0  0  0  0
  -18.0350  -28.0720   22.9310 C   0  0  0  0  0  0  0  0  0  0  0  0
  -20.5910  -28.3580   23.2140 C   0  0  0  0  0  3  0  0  0  0  0  0
  -20.7060  -26.9200   22.6550 C   0  0  0  0  0  2  0  0  0  0  0  0
  -19.6140  -26.5790   21.6370 C   0  0  0  0  0  2  0  0  0  0  0  0
  -18.2270  -26.7190   22.2690 C   0  0  0  0  0  2  0  0  0  0  0  0
  -19.1450  -28.8500   23.3600 C   0  0  0  0  0  0  0  0  0  0  0  0
  -18.9090  -30.1160   23.9380 C   0  0  0  0  0  3  0  0  0  0  0  0
  -17.5980  -30.6060   24.0920 C   0  0  0  0  0  3  0  0  0  0  0  0
  -16.5050  -29.8260   23.6780 C   0  0  0  0  0  3  0  0  0  0  0  0
  -16.7240  -28.5620   23.1030 C   0  0  0  0  0  3  0  0  0  0  0  0
  -25.8840  -32.5330   23.8610 C   0  0  0  0  0  3  0  0  0  0  0  0
  -25.5710  -33.9350   24.1790 N   0  0  0  0  0  0  0  0  0  0  0  0
  -25.9010  -34.9840   23.4140 C   0  0  0  0  0  0  0  0  0  0  0  0
  -26.5690  -34.8730   22.3820 O   0  0  0  0  0  0  0  0  0  0  0  0
  -24.9770  -34.0960   24.9800 H   0  0  0  0  0  0  0  0  0  0  0  0
  -24.1790  -36.7830   23.0460 C   0  0  0  0  0  1  0  0  0  0  0  0
  -25.4180  -36.3780   23.8630 C   0  0  0  0  0  3  0  0  0  0  0  0
  -27.5500  -37.2670   24.6960 C   0  0  0  0  0  1  0  0  0  0  0  0
  -26.4540  -37.4290   23.7450 N   0  0  0  0  0  0  0  0  0  0  0  0
  -26.0490  -38.3510   23.8800 H   0  0  0  0  0  0  0  0  0  0  0  0
  -26.3890  -31.7770   25.1520 C   0  0  1  0  0  0  0  0  0  0  0  0
  -25.2880  -31.5530   26.2150 C   0  0  0  0  0  1  0  0  0  0  0  0
  -26.9740  -30.3940   24.7840 C   0  0  0  0  0  1  0  0  0  0  0  0
  -27.5350  -32.5800   25.8120 C   0  0  0  0  0  1  0  0  0  0  0  0
  1  2  1  6
  1 48  1  0
  1  7  1  0
  6  3  1  6
  4  6  1  0
  5  6  1  0
  6  1  1  0
  8  7  1  0
  8  9  2  0
 10 18  1  0
 11 16  1  0
 12 13  1  0
 12 11  1  0
 14 13  1  0
 14 23  1  0
 14 15  1  0
 16 10  1  0
 16 15  1  0
 17 10  2  0
 18 19  1  0
 18  9  1  0
 20 21  2  0
 21 40  1  0
 22 21  1  0
 22 25  1  0
 23 24  1  0
 23 20  1  0
 24 22  2  0
 25 26  1  0
 26 27  2  0
 28 31  1  0
 28 27  1  0
 29 28  2  0
 30 29  1  0
 30 25  2  0
 31 32  1  0
 32 33  1  0
 33 34  2  0
 35 34  1  0
 35 39  1  0
 36 35  2  0
 37 32  2  0
 37 36  1  0
 38 37  1  0
 40 41  1  0
 41 44  1  0
 41 43  1  0
 42 40  2  0
 45 46  1  0
 45 20  1  0
 47 45  1  0
 50 48  1  0
 50 49  1  0
 51 50  1  0
 52 63  2  0
 53 51  1  0
 53 58  1  0
 54 62  1  0
 54 64  1  0
 55 61  1  0
 55 57  1  0
 56 62  1  0
 57 58  2  0
 57 56  1  0
 59 53  2  0
 60 59  1  0
 60 55  2  0
 61 54  1  0
 62 52  1  0
 64 66  2  0
 65 64  1  0
 67 65  1  0
 68 77  2  0
 68 73  1  0
 69 65  1  0
 69 73  1  0
 70 69  1  0
 71 72  1  0
 71 70  1  0
 72 68  1  0
 73 74  2  0
 74 75  1  0
 76 75  2  0
 77 76  1  0
 78 52  1  0
 78 79  1  0
 78 88  1  0
 79 82  1  0
 80 84  1  0
 80 79  1  0
 81 80  2  0
 84 83  1  0
 86 84  1  0
 86 87  1  0
 86 85  1  0
 88 91  1  1
 88 89  1  0
 90 88  1  0
M  ISO  4  10 100  18 100  50 101  51 101
M  END
>  <TORSDO>  (52) 
F 22

>  <SCORE>  (52) 
-13.810

>  <name>  (52) 
52

>  <ligand_id>  (52) 
52

>  <original_smiles>  (52) 
[H]c1c([H])c([H])c2c(c1[H])C([H])([H])C([H])([H])C([H])([H])C2([H])N([H])C(=O)C1([H])N(C(=O)C([H])(N([H])C(=O)C([H])(N([H])C([H])([H])[H])C([H])([H])[H])C(C([H])([H])[H])(C([H])([H])[H])C([H])([H])[H])C([H])([H])c2c([H])c(OC([H])(C([H])([H])[H])C([H])([H])[N+]([H])(C([H])([H])C([H])([H])C([H])([H])N([H])C(=O)N3C([H])([H])C([H])([H])C([H])([H])C([H])(n4nc(-c5c([H])c([H])c(Oc6c([H])c([H])c(F)c([H])c6F)c([H])c5[H])c(C(=O)N([H])[H])c4N([H])[H])C3([H])[H])C(C([H])([H])[H])(C([H])([H])[H])C([H])([H])[H])c([H])c([H])c2C1([H])[H]

>  <smiles>  (52) 
[H]c1c([H])c([H])c2c(c1[H])C([H])([H])C([H])([H])C([H])([H])C2([H])N([H])C(=O)C1([H])N(C(=O)C([H])(N([H])C(=O)C([H])(N([H])C([H])([H])[H])C([H])([H])[H])C(C([H])([H])[H])(C([H])([H])[H])C([H])([H])[H])C([H])([H])c2c([H])c(OC([H])(C([H])([H])[H])C([H])([H])[N+]([H])(C([H])([H])C([H])([H])C([H])([H])N([H])C(=O)N3C([H])([H])C([H])([H])C([H])([H])C([H])(n4nc(-c5c([H])c([H])c(Oc6c([H])c([H])c(F)c([H])c6F)c([H])c5[H])c(C(=O)N([H])[H])c4N([H])[H])C3([H])[H])C(C([H])([H])[H])(C([H])([H])[H])C([H])([H])[H])c([H])c([H])c2C1([H])[H]

$$$$
53:0:0
     RDKit          3D

 95103  0  0  1  0  0  0  0  0999 V2000
  -32.0890  -21.4530   18.5370 C   0  0  0  0  0  2  0  0  0  0  0  0
  -32.5880  -19.1990   19.5020 C   0  0  0  0  0  3  0  0  0  0  0  0
  -31.5640  -20.5930   20.8900 C   0  0  0  0  0  3  0  0  0  0  0  0
  -32.2490  -18.4490   20.6060 C   0  0  0  0  0  0  0  0  0  0  0  0
  -31.6540  -19.3860   21.5340 C   0  0  0  0  0  0  0  0  0  0  0  0
  -32.1080  -20.4840   19.6290 N   0  0  0  0  0  0  0  0  0  0  0  0
  -29.7700  -19.7770   23.1840 C   0  0  0  0  0  1  0  0  0  0  0  0
  -32.1750  -19.6950   23.9630 C   0  0  0  0  0  1  0  0  0  0  0  0
  -31.1560  -19.1520   22.9530 C   0  0  0  0  0  3  0  0  0  0  0  0
  -32.4750  -16.9170   20.7070 C   0  0  0  0  0  2  0  0  0  0  0  0
  -31.9660  -14.6080   20.0110 C   0  0  0  0  0  0  0  0  0  0  0  0
  -31.4480  -12.3900   19.0490 C   0  0  0  0  0  2  0  0  0  0  0  0
  -30.5080  -12.5200   17.8350 C   0  0  0  0  0  2  0  0  0  0  0  0
  -29.0350  -12.4790   18.2880 C   0  0  0  0  0  2  0  0  0  0  0  0
  -28.7550  -13.4540   19.4590 C   0  0  0  0  0  3  0  0  0  0  0  0
  -29.8240  -13.3210   20.5770 C   0  0  0  0  0  2  0  0  0  0  0  0
  -31.1470  -13.5090   19.9630 N   0  0  0  0  0  0  0  0  0  0  0  0
  -33.1350  -14.5260   19.6220 O   0  0  0  0  0  0  0  0  0  0  0  0
  -30.1660  -16.3370   19.9390 C   0  0  0  0  0  1  0  0  0  0  0  0
  -31.4830  -15.8390   20.3920 N   0  0  0  0  0  0  0  0  0  0  0  0
  -26.4610  -14.3250   20.2240 C   0  0  0  0  0  0  0  0  0  0  0  0
  -25.3270  -13.6690   20.6220 C   0  0  0  0  0  0  0  0  0  0  0  0
  -25.6480  -12.2770   20.5880 C   0  0  0  0  0  0  0  0  0  0  0  0
  -27.4020  -13.3340   19.9780 N   0  0  0  0  0  0  0  0  0  0  0  0
  -26.9190  -12.1000   20.2570 N   0  0  0  0  0  0  0  0  0  0  0  0
  -24.8030  -11.0970   20.7930 C   0  0  0  0  0  0  0  0  0  0  0  0
  -25.1180  -10.1290   21.7690 C   0  0  0  0  0  3  0  0  0  0  0  0
  -24.2810   -9.0080   21.9580 C   0  0  0  0  0  3  0  0  0  0  0  0
  -23.1170   -8.8520   21.1680 C   0  0  0  0  0  0  0  0  0  0  0  0
  -22.8240   -9.8070   20.1790 C   0  0  0  0  0  3  0  0  0  0  0  0
  -23.6610  -10.9180   19.9890 C   0  0  0  0  0  3  0  0  0  0  0  0
  -22.2580   -7.7860   21.2660 O   0  0  0  0  0  0  0  0  0  0  0  0
  -22.0370   -7.1470   22.4600 C   0  0  0  0  0  0  0  0  0  0  0  0
  -21.5350   -7.8310   23.5890 C   0  0  0  0  0  3  0  0  0  0  0  0
  -21.2580   -7.1220   24.7740 C   0  0  0  0  0  3  0  0  0  0  0  0
  -21.4710   -5.7320   24.8310 C   0  0  0  0  0  0  0  0  0  0  0  0
  -21.9650   -5.0480   23.7050 C   0  0  0  0  0  3  0  0  0  0  0  0
  -22.2440   -5.7540   22.5220 C   0  0  0  0  0  0  0  0  0  0  0  0
  -22.7000   -5.0880   21.4350 F   0  0  0  0  0  0  0  0  0  0  0  0
  -21.1940   -5.0500   25.9660 F   0  0  0  0  0  0  0  0  0  0  0  0
  -23.9930  -14.2890   20.9150 C   0  0  0  0  0  0  0  0  0  0  0  0
  -23.2160  -13.6800   21.8030 N   0  0  0  0  0  0  0  0  0  0  0  0
  -23.6490  -15.3470   20.3910 O   0  0  0  0  0  0  0  0  0  0  0  0
  -23.5030  -12.8220   22.2510 H   0  0  0  0  0  0  0  0  0  0  0  0
  -22.3190  -14.0810   22.0430 H   0  0  0  0  0  0  0  0  0  0  0  0
  -26.7580  -15.6710   20.0320 N   0  0  0  0  0  0  0  0  0  0  0  0
  -26.0590  -16.3970   20.1500 H   0  0  0  0  0  0  0  0  0  0  0  0
  -27.6380  -16.0250   19.6780 H   0  0  0  0  0  0  0  0  0  0  0  0
  -31.6910  -22.9110   18.8810 C   0  0  0  0  0  2  0  0  0  0  0  0
  -30.8310  -23.5480   17.7660 C   0  0  0  0  0  2  0  0  0  0  0  0
  -30.3010  -25.5820   16.3440 C   0  0  0  0  0  1  0  0  0  0  0  0
  -30.8870  -25.0870   17.6780 C   0  0  0  0  0  3  0  0  0  0  0  0
  -30.2880  -25.8320   18.8930 C   0  0  0  0  0  2  0  0  0  0  0  0
  -28.7550  -25.8430   19.0210 C   0  0  0  0  0  2  0  0  0  0  0  0
  -28.4660  -26.7610   20.0690 O   0  0  0  0  0  0  0  0  0  0  0  0
  -24.5960  -31.8210   23.1710 C   0  0  0  0  0  0  0  0  0  0  0  0
  -27.2600  -27.4200   20.0620 C   0  0  0  0  0  0  0  0  0  0  0  0
  -23.3890  -30.4180   21.5280 C   0  0  0  0  0  3  0  0  0  0  0  0
  -24.8450  -28.8850   20.0980 C   0  0  0  0  0  0  0  0  0  0  0  0
  -25.9090  -30.7910   21.3230 C   0  0  0  0  0  2  0  0  0  0  0  0
  -25.9960  -29.4190   20.6880 C   0  0  0  0  0  0  0  0  0  0  0  0
  -27.2000  -28.6860   20.6810 C   0  0  0  0  0  3  0  0  0  0  0  0
  -26.0890  -26.8850   19.4780 C   0  0  0  0  0  3  0  0  0  0  0  0
  -24.8810  -27.6110   19.5010 C   0  0  0  0  0  3  0  0  0  0  0  0
  -23.5980  -29.7390   20.1470 C   0  0  0  0  0  2  0  0  0  0  0  0
  -24.6500  -31.0250   22.0660 N   0  0  0  0  0  0  0  0  0  0  0  0
  -23.5150  -32.0890   23.7150 O   0  0  0  0  0  0  0  0  0  0  0  0
  -22.7470  -29.3920   22.4880 C   0  0  0  0  0  0  0  0  0  0  0  0
  -21.4280  -29.1870   22.3460 N   0  0  0  0  0  0  0  0  0  0  0  0
  -23.4310  -28.7840   23.3150 O   0  0  0  0  0  0  0  0  0  0  0  0
  -20.9390  -29.7310   21.6490 H   0  0  0  0  0  0  0  0  0  0  0  0
  -18.0700  -27.9290   22.7900 C   0  0  0  0  0  0  0  0  0  0  0  0
  -20.6160  -28.2420   23.1110 C   0  0  0  0  0  3  0  0  0  0  0  0
  -20.7600  -26.8070   22.5560 C   0  0  0  0  0  2  0  0  0  0  0  0
  -19.6860  -26.4480   21.5240 C   0  0  0  0  0  2  0  0  0  0  0  0
  -18.2890  -26.5740   22.1380 C   0  0  0  0  0  2  0  0  0  0  0  0
  -19.1640  -28.7180   23.2330 C   0  0  0  0  0  0  0  0  0  0  0  0
  -18.9080  -29.9860   23.8010 C   0  0  0  0  0  3  0  0  0  0  0  0
  -17.5900  -30.4630   23.9320 C   0  0  0  0  0  3  0  0  0  0  0  0
  -16.5110  -29.6700   23.5060 C   0  0  0  0  0  3  0  0  0  0  0  0
  -16.7510  -28.4050   22.9410 C   0  0  0  0  0  3  0  0  0  0  0  0
  -25.8830  -32.4540   23.7880 C   0  0  0  0  0  3  0  0  0  0  0  0
  -25.5670  -33.8450   24.1410 N   0  0  0  0  0  0  0  0  0  0  0  0
  -25.8790  -34.9090   23.3880 C   0  0  0  0  0  0  0  0  0  0  0  0
  -26.5340  -34.8240   22.3470 O   0  0  0  0  0  0  0  0  0  0  0  0
  -24.9810  -33.9840   24.9500 H   0  0  0  0  0  0  0  0  0  0  0  0
  -24.1210  -36.6830   23.0850 C   0  0  0  0  0  1  0  0  0  0  0  0
  -25.3830  -36.2860   23.8690 C   0  0  0  0  0  3  0  0  0  0  0  0
  -27.5210  -37.1910   24.6680 C   0  0  0  0  0  1  0  0  0  0  0  0
  -26.3990  -37.3530   23.7470 N   0  0  0  0  0  0  0  0  0  0  0  0
  -25.9850  -38.2680   23.9110 H   0  0  0  0  0  0  0  0  0  0  0  0
  -26.4220  -31.6680   25.0440 C   0  0  1  0  0  0  0  0  0  0  0  0
  -25.3440  -31.3940   26.1190 C   0  0  0  0  0  1  0  0  0  0  0  0
  -27.0200  -30.3060   24.6180 C   0  0  0  0  0  1  0  0  0  0  0  0
  -27.5690  -32.4660   25.7110 C   0  0  0  0  0  1  0  0  0  0  0  0
  1 49  1  0
  1  6  1  0
  2  6  1  0
  2  4  2  0
  3  5  2  0
  4 10  1  0
  4  5  1  0
  5  9  1  0
  6  3  1  0
  9  7  1  0
  9  8  1  0
 11 20  1  0
 12 17  1  0
 13 14  1  0
 13 12  1  0
 15 14  1  0
 15 24  1  0
 15 16  1  0
 17 11  1  0
 17 16  1  0
 18 11  2  0
 19 20  1  0
 20 10  1  0
 21 22  2  0
 22 41  1  0
 23 22  1  0
 23 26  1  0
 24 21  1  0
 24 25  1  0
 25 23  2  0
 26 27  1  0
 27 28  2  0
 29 32  1  0
 29 28  1  0
 30 29  2  0
 31 30  1  0
 31 26  2  0
 32 33  1  0
 33 38  2  0
 33 34  1  0
 34 35  2  0
 35 36  1  0
 36 40  1  0
 37 36  2  0
 38 37  1  0
 39 38  1  0
 41 42  1  0
 42 45  1  0
 42 44  1  0
 43 41  2  0
 46 47  1  0
 46 21  1  0
 48 46  1  0
 50 49  1  0
 52 51  1  0
 52 50  1  0
 52 53  1  0
 53 54  1  0
 54 55  1  0
 56 67  2  0
 57 55  1  0
 57 62  1  0
 58 66  1  0
 58 68  1  0
 59 65  1  0
 59 61  1  0
 60 66  1  0
 61 60  1  0
 62 61  2  0
 63 64  1  0
 63 57  2  0
 64 59  2  0
 65 58  1  0
 66 56  1  0
 68 70  2  0
 69 68  1  0
 71 69  1  0
 72 81  2  0
 72 77  1  0
 73 69  1  0
 73 77  1  0
 74 73  1  0
 75 76  1  0
 75 74  1  0
 76 72  1  0
 77 78  2  0
 78 79  1  0
 80 79  2  0
 81 80  1  0
 82 56  1  0
 82 83  1  0
 82 92  1  0
 83 86  1  0
 84 88  1  0
 84 83  1  0
 85 84  2  0
 88 87  1  0
 90 88  1  0
 90 91  1  0
 90 89  1  0
 92 95  1  1
 92 93  1  0
 94 92  1  0
M  ISO  4  11 100  20 100  54 101  55 101
M  END
>  <TORSDO>  (53) 
F 24

>  <SCORE>  (53) 
-8.948

>  <name>  (53) 
53

>  <ligand_id>  (53) 
53

>  <original_smiles>  (53) 
[H]c1c([H])c([H])c2c(c1[H])C([H])([H])C([H])([H])C([H])([H])C2([H])N([H])C(=O)C1([H])N(C(=O)C([H])(N([H])C(=O)C([H])(N([H])C([H])([H])[H])C([H])([H])[H])C(C([H])([H])[H])(C([H])([H])[H])C([H])([H])[H])C([H])([H])c2c([H])c(OC([H])([H])C([H])([H])C([H])(C([H])([H])[H])C([H])([H])C([H])([H])C([H])([H])n3c([H])c(C([H])([H])N(C(=O)N4C([H])([H])C([H])([H])C([H])([H])C([H])(n5nc(-c6c([H])c([H])c(Oc7c([H])c([H])c(F)c([H])c7F)c([H])c6[H])c(C(=O)N([H])[H])c5N([H])[H])C4([H])[H])C([H])([H])[H])c(C([H])(C([H])([H])[H])C([H])([H])[H])c3[H])c([H])c([H])c2C1([H])[H]

>  <smiles>  (53) 
[H]c1c([H])c([H])c2c(c1[H])C([H])([H])C([H])([H])C([H])([H])C2([H])N([H])C(=O)C1([H])N(C(=O)C([H])(N([H])C(=O)C([H])(N([H])C([H])([H])[H])C([H])([H])[H])C(C([H])([H])[H])(C([H])([H])[H])C([H])([H])[H])C([H])([H])c2c([H])c(OC([H])([H])C([H])([H])C([H])(C([H])([H])[H])C([H])([H])C([H])([H])C([H])([H])n3c([H])c(C([H])([H])N(C(=O)N4C([H])([H])C([H])([H])C([H])([H])C([H])(n5nc(-c6c([H])c([H])c(Oc7c([H])c([H])c(F)c([H])c7F)c([H])c6[H])c(C(=O)N([H])[H])c5N([H])[H])C4([H])[H])C([H])([H])[H])c(C([H])(C([H])([H])[H])C([H])([H])[H])c3[H])c([H])c([H])c2C1([H])[H]

$$$$
54:0:0
     RDKit          3D

 90 98  0  0  1  0  0  0  0  0999 V2000
  -29.7850  -21.0610   18.8880 C   0  0  0  0  0  2  0  0  0  0  0  0
  -29.4980  -19.3570   22.1560 C   0  0  0  0  0  3  0  0  0  0  0  0
  -30.0410  -18.2750   21.4360 C   0  0  0  0  0  3  0  0  0  0  0  0
  -29.3310  -20.3960   21.2960 C   0  0  0  0  0  0  0  0  0  0  0  0
  -30.2130  -18.6350   20.1260 C   0  0  0  0  0  0  0  0  0  0  0  0
  -28.6880  -21.7010   21.6250 C   0  0  0  0  0  1  0  0  0  0  0  0
  -29.8380  -20.0530   20.0350 N   0  0  0  0  0  0  0  0  0  0  0  0
  -30.7200  -17.5610   19.0960 C   0  0  0  0  0  2  0  0  0  0  0  0
  -31.3270  -14.9640   19.3170 C   0  0  0  0  0  0  0  0  0  0  0  0
  -31.0470  -12.6020   18.5490 C   0  0  0  0  0  2  0  0  0  0  0  0
  -29.9910  -12.5840   17.4190 C   0  0  0  0  0  2  0  0  0  0  0  0
  -28.5680  -12.4680   18.0010 C   0  0  0  0  0  2  0  0  0  0  0  0
  -28.3190  -13.4630   19.1660 C   0  0  0  0  0  3  0  0  0  0  0  0
  -29.4800  -13.4530   20.1840 C   0  0  0  0  0  2  0  0  0  0  0  0
  -30.7160  -13.7360   19.4420 N   0  0  0  0  0  0  0  0  0  0  0  0
  -32.4690  -15.0410   18.8540 O   0  0  0  0  0  0  0  0  0  0  0  0
  -30.5420  -16.0890   19.5010 N   0  0  0  0  0  0  0  0  0  0  0  0
  -29.6280  -15.8790   19.8680 H   0  0  0  0  0  0  0  0  0  0  0  0
  -26.0820  -14.1680   20.2090 C   0  0  0  0  0  0  0  0  0  0  0  0
  -25.0160  -13.4430   20.6720 C   0  0  0  0  0  0  0  0  0  0  0  0
  -25.3770  -12.0690   20.5230 C   0  0  0  0  0  0  0  0  0  0  0  0
  -27.0260  -13.2370   19.8060 N   0  0  0  0  0  0  0  0  0  0  0  0
  -26.6150  -11.9670   20.0560 N   0  0  0  0  0  0  0  0  0  0  0  0
  -24.5900  -10.8470   20.7430 C   0  0  0  0  0  0  0  0  0  0  0  0
  -24.9470   -9.9040   21.7320 C   0  0  0  0  0  3  0  0  0  0  0  0
  -24.1620   -8.7480   21.9350 C   0  0  0  0  0  3  0  0  0  0  0  0
  -23.0070   -8.5280   21.1480 C   0  0  0  0  0  0  0  0  0  0  0  0
  -22.6720   -9.4560   20.1470 C   0  0  0  0  0  3  0  0  0  0  0  0
  -23.4570  -10.6030   19.9420 C   0  0  0  0  0  3  0  0  0  0  0  0
  -22.1990   -7.4220   21.2590 O   0  0  0  0  0  0  0  0  0  0  0  0
  -21.9240   -6.8500   22.4750 C   0  0  0  0  0  0  0  0  0  0  0  0
  -21.3020   -7.5750   23.5160 C   0  0  0  0  0  3  0  0  0  0  0  0
  -20.9730   -6.9280   24.7240 C   0  0  0  0  0  3  0  0  0  0  0  0
  -21.2570   -5.5600   24.8910 C   0  0  0  0  0  0  0  0  0  0  0  0
  -21.8700   -4.8360   23.8540 C   0  0  0  0  0  3  0  0  0  0  0  0
  -22.1980   -5.4790   22.6490 C   0  0  0  0  0  0  0  0  0  0  0  0
  -22.7700   -4.7710   21.6440 F   0  0  0  0  0  0  0  0  0  0  0  0
  -20.9340   -4.9360   26.0480 F   0  0  0  0  0  0  0  0  0  0  0  0
  -23.6990  -13.9930   21.1360 C   0  0  0  0  0  0  0  0  0  0  0  0
  -23.0510  -13.3160   22.0800 N   0  0  0  0  0  0  0  0  0  0  0  0
  -23.2580  -15.0530   20.6960 O   0  0  0  0  0  0  0  0  0  0  0  0
  -23.4280  -12.4590   22.4580 H   0  0  0  0  0  0  0  0  0  0  0  0
  -22.1660  -13.6590   22.4250 H   0  0  0  0  0  0  0  0  0  0  0  0
  -26.3140  -15.5350   20.0810 N   0  0  0  0  0  0  0  0  0  0  0  0
  -25.6120  -16.2170   20.3460 H   0  0  0  0  0  0  0  0  0  0  0  0
  -27.1480  -15.9640   19.7040 H   0  0  0  0  0  0  0  0  0  0  0  0
  -29.9710  -22.6810   19.1110 C   0  0  0  0  0  2  0  0  0  0  0  0
  -28.7880  -23.8080   19.1860 C   0  0  0  0  0  2  0  0  0  0  0  0
  -28.9260  -25.2800   18.5040 C   0  0  0  0  0  2  0  0  0  0  0  0
  -28.7400  -26.6070   19.1860 O   0  0  0  0  0  0  0  0  0  0  0  0
  -24.6450  -31.3700   22.7940 C   0  0  0  0  0  0  0  0  0  0  0  0
  -27.5460  -27.3620   19.2130 C   0  0  0  0  0  0  0  0  0  0  0  0
  -23.5220  -30.0540   21.0340 C   0  0  0  0  0  3  0  0  0  0  0  0
  -25.0580  -28.7870   19.4190 C   0  0  0  0  0  0  0  0  0  0  0  0
  -26.0250  -30.5950   20.8430 C   0  0  0  0  0  2  0  0  0  0  0  0
  -26.1980  -29.3020   20.0450 C   0  0  0  0  0  0  0  0  0  0  0  0
  -27.4400  -28.6020   19.9320 C   0  0  0  0  0  3  0  0  0  0  0  0
  -26.3740  -26.9040   18.5750 C   0  0  0  0  0  3  0  0  0  0  0  0
  -25.1490  -27.5990   18.6740 C   0  0  0  0  0  3  0  0  0  0  0  0
  -23.7550  -29.5480   19.5850 C   0  0  0  0  0  2  0  0  0  0  0  0
  -24.7500  -30.6890   21.6140 N   0  0  0  0  0  0  0  0  0  0  0  0
  -23.5550  -31.4960   23.3710 O   0  0  0  0  0  0  0  0  0  0  0  0
  -22.9690  -28.8910   21.8910 C   0  0  0  0  0  0  0  0  0  0  0  0
  -21.6590  -28.6120   21.7640 N   0  0  0  0  0  0  0  0  0  0  0  0
  -23.7140  -28.2450   22.6330 O   0  0  0  0  0  0  0  0  0  0  0  0
  -21.1120  -29.1900   21.1430 H   0  0  0  0  0  0  0  0  0  0  0  0
  -18.4070  -27.0810   22.1870 C   0  0  0  0  0  0  0  0  0  0  0  0
  -20.9410  -27.5320   22.4440 C   0  0  0  0  0  3  0  0  0  0  0  0
  -21.1500  -26.1840   21.7170 C   0  0  0  0  0  2  0  0  0  0  0  0
  -20.0540  -25.8760   20.6920 C   0  0  0  0  0  2  0  0  0  0  0  0
  -18.6800  -25.8300   21.3690 C   0  0  0  0  0  2  0  0  0  0  0  0
  -19.4670  -27.8870   22.6780 C   0  0  0  0  0  0  0  0  0  0  0  0
  -19.1550  -29.0570   23.4070 C   0  0  0  0  0  3  0  0  0  0  0  0
  -17.8160  -29.4200   23.6470 C   0  0  0  0  0  3  0  0  0  0  0  0
  -16.7710  -28.6100   23.1690 C   0  0  0  0  0  3  0  0  0  0  0  0
  -17.0680  -27.4410   22.4450 C   0  0  0  0  0  3  0  0  0  0  0  0
  -25.8840  -32.0420   23.4600 C   0  0  0  0  0  3  0  0  0  0  0  0
  -25.4660  -33.3690   23.9380 N   0  0  0  0  0  0  0  0  0  0  0  0
  -25.7110  -34.5220   23.3020 C   0  0  0  0  0  0  0  0  0  0  0  0
  -26.3830  -34.5830   22.2680 O   0  0  0  0  0  0  0  0  0  0  0  0
  -24.8650  -33.3870   24.7500 H   0  0  0  0  0  0  0  0  0  0  0  0
  -23.8470  -36.2050   23.1440 C   0  0  0  0  0  1  0  0  0  0  0  0
  -25.1210  -35.8110   23.9080 C   0  0  0  0  0  3  0  0  0  0  0  0
  -27.1820  -36.7680   24.8400 C   0  0  0  0  0  1  0  0  0  0  0  0
  -26.0700  -36.9470   23.9110 N   0  0  0  0  0  0  0  0  0  0  0  0
  -25.5940  -37.8130   24.1490 H   0  0  0  0  0  0  0  0  0  0  0  0
  -26.4870  -31.1910   24.6460 C   0  0  1  0  0  0  0  0  0  0  0  0
  -25.4390  -30.7610   25.6980 C   0  0  0  0  0  1  0  0  0  0  0  0
  -27.1720  -29.9110   24.1140 C   0  0  0  0  0  1  0  0  0  0  0  0
  -27.5820  -32.0100   25.3700 C   0  0  0  0  0  1  0  0  0  0  0  0
  1 47  1  0
  1  7  1  0
  3  2  1  0
  4  6  1  0
  4  2  2  0
  5  3  2  0
  7  5  1  0
  7  4  1  0
  8 17  1  0
  8  5  1  0
  9 15  1  0
  9 17  1  0
 10 15  1  0
 11 12  1  0
 11 10  1  0
 13 12  1  0
 13 22  1  0
 13 14  1  0
 15 14  1  0
 16  9  2  0
 17 18  1  0
 19 20  2  0
 20 39  1  0
 21 20  1  0
 21 24  1  0
 22 23  1  0
 22 19  1  0
 23 21  2  0
 24 25  1  0
 25 26  2  0
 27 30  1  0
 27 26  1  0
 28 27  2  0
 29 28  1  0
 29 24  2  0
 30 31  1  0
 31 36  2  0
 31 32  1  0
 32 33  2  0
 33 34  1  0
 34 38  1  0
 35 34  2  0
 36 35  1  0
 37 36  1  0
 39 40  1  0
 40 43  1  0
 40 42  1  0
 41 39  2  0
 44 19  1  0
 44 45  1  0
 46 44  1  0
 47 48  1  0
 49 50  1  0
 49 48  1  0
 50 52  1  0
 51 62  2  0
 52 57  1  0
 53 61  1  0
 53 63  1  0
 54 60  1  0
 54 56  1  0
 55 61  1  0
 56 55  1  0
 57 56  2  0
 58 59  1  0
 58 52  2  0
 59 54  2  0
 60 53  1  0
 61 51  1  0
 63 65  2  0
 64 63  1  0
 66 64  1  0
 67 76  2  0
 67 72  1  0
 68 64  1  0
 68 72  1  0
 69 68  1  0
 70 71  1  0
 70 69  1  0
 71 67  1  0
 72 73  2  0
 73 74  1  0
 75 74  2  0
 76 75  1  0
 77 51  1  0
 77 78  1  0
 77 87  1  0
 78 81  1  0
 79 83  1  0
 79 78  1  0
 80 79  2  0
 83 82  1  0
 83 85  1  0
 85 86  1  0
 85 84  1  0
 87 90  1  1
 87 88  1  0
 89 87  1  0
M  ISO  4   9 100  17 100  49 101  50 101
M  END
>  <TORSDO>  (54) 
F 21

>  <SCORE>  (54) 
-9.159

>  <name>  (54) 
54

>  <ligand_id>  (54) 
54

>  <original_smiles>  (54) 
[H]c1c([H])c([H])c2c(c1[H])C([H])([H])C([H])([H])C([H])([H])C2([H])N([H])C(=O)C1([H])N(C(=O)C([H])(N([H])C(=O)C([H])(N([H])C([H])([H])[H])C([H])([H])[H])C(C([H])([H])[H])(C([H])([H])[H])C([H])([H])[H])C([H])([H])c2c([H])c(OC([H])([H])C([H])([H])C([H])([H])C([H])([H])n3c(C([H])([H])[H])c([H])c([H])c3C([H])([H])N([H])C(=O)N3C([H])([H])C([H])([H])C([H])([H])C([H])(n4nc(-c5c([H])c([H])c(Oc6c([H])c([H])c(F)c([H])c6F)c([H])c5[H])c(C(=O)N([H])[H])c4N([H])[H])C3([H])[H])c([H])c([H])c2C1([H])[H]

>  <smiles>  (54) 
[H]c1c([H])c([H])c2c(c1[H])C([H])([H])C([H])([H])C([H])([H])C2([H])N([H])C(=O)C1([H])N(C(=O)C([H])(N([H])C(=O)C([H])(N([H])C([H])([H])[H])C([H])([H])[H])C(C([H])([H])[H])(C([H])([H])[H])C([H])([H])[H])C([H])([H])c2c([H])c(OC([H])([H])C([H])([H])C([H])([H])C([H])([H])n3c(C([H])([H])[H])c([H])c([H])c3C([H])([H])N([H])C(=O)N3C([H])([H])C([H])([H])C([H])([H])C([H])(n4nc(-c5c([H])c([H])c(Oc6c([H])c([H])c(F)c([H])c6F)c([H])c5[H])c(C(=O)N([H])[H])c4N([H])[H])C3([H])[H])c([H])c([H])c2C1([H])[H]

$$$$
55:0:0
     RDKit          3D

 98106  0  0  1  0  0  0  0  0999 V2000
  -32.0860  -20.0800   20.1040 C   0  0  0  0  0  2  0  0  0  0  0  0
  -29.7150  -19.2440   19.5470 C   0  0  0  0  0  3  0  0  0  0  0  0
  -31.2560  -17.7080   20.5970 C   0  0  0  0  0  3  0  0  0  0  0  0
  -30.9950  -19.0020   20.0800 C   0  0  0  0  0  0  0  0  0  0  0  0
  -28.7450  -18.2230   19.5760 C   0  0  0  0  0  0  0  0  0  0  0  0
  -30.2460  -16.7140   20.5870 C   0  0  0  0  0  0  0  0  0  0  0  0
  -29.0130  -17.0100   20.1170 N   0  0  0  0  0  0  0  0  0  0  0  0
  -31.0940  -14.3370   20.5760 C   0  0  0  0  0  0  0  0  0  0  0  0
  -30.9390  -11.9130   20.0730 C   0  0  0  0  0  2  0  0  0  0  0  0
  -30.1230  -11.7230   18.7770 C   0  0  0  0  0  2  0  0  0  0  0  0
  -28.6180  -11.6380   19.0910 C   0  0  0  0  0  2  0  0  0  0  0  0
  -28.1370  -12.7880   20.0150 C   0  0  0  0  0  3  0  0  0  0  0  0
  -29.0770  -12.9520   21.2300 C   0  0  0  0  0  2  0  0  0  0  0  0
  -30.4580  -13.1370   20.7350 N   0  0  0  0  0  0  0  0  0  0  0  0
  -32.1970  -14.4330   20.0300 O   0  0  0  0  0  0  0  0  0  0  0  0
  -30.4320  -15.3920   21.0970 N   0  0  0  0  0  0  0  0  0  0  0  0
  -29.6660  -15.0890   21.6690 H   0  0  0  0  0  0  0  0  0  0  0  0
  -25.7260  -13.5290   20.5280 C   0  0  0  0  0  0  0  0  0  0  0  0
  -24.6070  -12.8400   20.8990 C   0  0  0  0  0  0  0  0  0  0  0  0
  -25.0070  -11.4710   20.9880 C   0  0  0  0  0  0  0  0  0  0  0  0
  -26.7460  -12.5950   20.4280 N   0  0  0  0  0  0  0  0  0  0  0  0
  -26.3090  -11.3520   20.7580 N   0  0  0  0  0  0  0  0  0  0  0  0
  -24.2120  -10.2630   21.2300 C   0  0  0  0  0  0  0  0  0  0  0  0
  -24.6120   -9.2990   22.1780 C   0  0  0  0  0  3  0  0  0  0  0  0
  -23.8250   -8.1480   22.4010 C   0  0  0  0  0  3  0  0  0  0  0  0
  -22.6260   -7.9590   21.6750 C   0  0  0  0  0  0  0  0  0  0  0  0
  -22.2440   -8.9130   20.7160 C   0  0  0  0  0  3  0  0  0  0  0  0
  -23.0300  -10.0530   20.4920 C   0  0  0  0  0  3  0  0  0  0  0  0
  -21.8120   -6.8610   21.8030 O   0  0  0  0  0  0  0  0  0  0  0  0
  -21.7790   -6.1170   22.9560 C   0  0  0  0  0  0  0  0  0  0  0  0
  -21.4160   -6.6830   24.1960 C   0  0  0  0  0  3  0  0  0  0  0  0
  -21.3320   -5.8700   25.3430 C   0  0  0  0  0  3  0  0  0  0  0  0
  -21.6010   -4.4920   25.2520 C   0  0  0  0  0  0  0  0  0  0  0  0
  -21.9560   -3.9250   24.0160 C   0  0  0  0  0  3  0  0  0  0  0  0
  -22.0420   -4.7360   22.8710 C   0  0  0  0  0  0  0  0  0  0  0  0
  -22.3660   -4.1800   21.6780 F   0  0  0  0  0  0  0  0  0  0  0  0
  -21.5110   -3.7100   26.3520 F   0  0  0  0  0  0  0  0  0  0  0  0
  -23.2250  -13.4060   21.0710 C   0  0  0  0  0  0  0  0  0  0  0  0
  -22.4390  -12.8350   21.9730 N   0  0  0  0  0  0  0  0  0  0  0  0
  -22.8530  -14.3970   20.4420 O   0  0  0  0  0  0  0  0  0  0  0  0
  -22.7490  -12.0350   22.5050 H   0  0  0  0  0  0  0  0  0  0  0  0
  -21.5110  -13.1990   22.1390 H   0  0  0  0  0  0  0  0  0  0  0  0
  -25.9560  -14.8640   20.2480 N   0  0  0  0  0  0  0  0  0  0  0  0
  -25.2360  -15.5720   20.3390 H   0  0  0  0  0  0  0  0  0  0  0  0
  -26.8660  -15.2490   20.0360 H   0  0  0  0  0  0  0  0  0  0  0  0
  -27.1520  -19.7700   18.2740 C   0  0  0  0  0  1  0  0  0  0  0  0
  -26.2500  -18.2680   20.0600 C   0  0  0  0  0  1  0  0  0  0  0  0
  -27.1070  -17.3240   17.9010 C   0  0  0  0  0  1  0  0  0  0  0  0
  -27.3340  -18.4020   18.9710 C   0  0  2  0  0  0  0  0  0  0  0  0
  -31.7170  -21.5460   19.7040 C   0  0  0  0  0  2  0  0  0  0  0  0
  -31.0650  -22.4170   20.8130 C   0  0  0  0  0  2  0  0  0  0  0  0
  -31.6640  -24.6460   21.6710 C   0  0  0  0  0  1  0  0  0  0  0  0
  -31.0840  -23.8910   20.5260 N   0  0  2  0  0  4  0  0  0  0  0  0
  -31.7330  -24.0210   19.7650 H   0  0  0  0  0  0  0  0  0  0  0  0
  -29.7800  -24.4730   20.0790 C   0  0  0  0  0  2  0  0  0  0  0  0
  -29.9480  -25.8150   19.3040 C   0  0  0  0  0  2  0  0  0  0  0  0
  -28.9560  -26.9550   19.6530 C   0  0  0  0  0  2  0  0  0  0  0  0
  -27.6600  -26.7110   19.1170 O   0  0  0  0  0  0  0  0  0  0  0  0
  -24.7640  -31.8530   23.2240 C   0  0  0  0  0  0  0  0  0  0  0  0
  -26.6240  -27.5760   19.4180 C   0  0  0  0  0  0  0  0  0  0  0  0
  -23.2320  -30.6840   21.6710 C   0  0  0  0  0  3  0  0  0  0  0  0
  -24.3540  -29.2000   19.9190 C   0  0  0  0  0  0  0  0  0  0  0  0
  -25.7210  -30.9120   21.1240 C   0  0  0  0  0  2  0  0  0  0  0  0
  -25.6180  -29.6020   20.3730 C   0  0  0  0  0  0  0  0  0  0  0  0
  -26.7550  -28.7970   20.1280 C   0  0  0  0  0  3  0  0  0  0  0  0
  -25.3430  -27.1920   18.9680 C   0  0  0  0  0  3  0  0  0  0  0  0
  -24.2110  -27.9930   19.2160 C   0  0  0  0  0  3  0  0  0  0  0  0
  -23.1890  -30.1190   20.2250 C   0  0  0  0  0  2  0  0  0  0  0  0
  -24.6000  -31.1580   22.0620 N   0  0  0  0  0  0  0  0  0  0  0  0
  -23.7950  -32.1390   23.9410 O   0  0  0  0  0  0  0  0  0  0  0  0
  -22.6530  -29.6210   22.6300 C   0  0  0  0  0  0  0  0  0  0  0  0
  -21.3260  -29.4240   22.5750 N   0  0  0  0  0  0  0  0  0  0  0  0
  -23.3920  -28.9750   23.3790 O   0  0  0  0  0  0  0  0  0  0  0  0
  -20.7890  -29.9990   21.9410 H   0  0  0  0  0  0  0  0  0  0  0  0
  -18.0470  -27.9710   23.0210 C   0  0  0  0  0  0  0  0  0  0  0  0
  -20.5670  -28.4480   23.3570 C   0  0  0  0  0  3  0  0  0  0  0  0
  -20.8020  -27.0110   22.8370 C   0  0  0  0  0  2  0  0  0  0  0  0
  -19.7630  -26.5660   21.8010 C   0  0  0  0  0  2  0  0  0  0  0  0
  -18.3540  -26.6190   22.3980 C   0  0  0  0  0  2  0  0  0  0  0  0
  -19.0870  -28.8370   23.4550 C   0  0  0  0  0  0  0  0  0  0  0  0
  -18.7470  -30.0970   23.9920 C   0  0  0  0  0  3  0  0  0  0  0  0
  -17.4030  -30.4940   24.1030 C   0  0  0  0  0  3  0  0  0  0  0  0
  -16.3770  -29.6270   23.6890 C   0  0  0  0  0  3  0  0  0  0  0  0
  -16.7000  -28.3680   23.1520 C   0  0  0  0  0  3  0  0  0  0  0  0
  -26.1700  -32.3420   23.6930 C   0  0  0  0  0  3  0  0  0  0  0  0
  -26.0210  -33.7250   24.1630 N   0  0  0  0  0  0  0  0  0  0  0  0
  -26.3510  -34.8100   23.4500 C   0  0  0  0  0  0  0  0  0  0  0  0
  -26.8850  -34.7440   22.3390 O   0  0  0  0  0  0  0  0  0  0  0  0
  -25.5390  -33.8560   25.0410 H   0  0  0  0  0  0  0  0  0  0  0  0
  -24.7450  -36.7440   23.4540 C   0  0  0  0  0  1  0  0  0  0  0  0
  -26.0390  -36.1870   24.0670 C   0  0  0  0  0  3  0  0  0  0  0  0
  -28.3240  -36.8440   24.6820 C   0  0  0  0  0  1  0  0  0  0  0  0
  -27.1350  -37.1680   23.9000 N   0  0  0  0  0  0  0  0  0  0  0  0
  -26.8250  -38.1010   24.1620 H   0  0  0  0  0  0  0  0  0  0  0  0
  -26.8010  -31.4340   24.8180 C   0  0  1  0  0  0  0  0  0  0  0  0
  -25.8650  -31.2050   26.0280 C   0  0  0  0  0  1  0  0  0  0  0  0
  -27.1870  -30.0500   24.2480 C   0  0  0  0  0  1  0  0  0  0  0  0
  -28.1070  -32.0790   25.3400 C   0  0  0  0  0  1  0  0  0  0  0  0
  2  5  2  0
  2  4  1  0
  4  1  1  0
  4  3  2  0
  5  7  1  0
  6  3  1  0
  6 16  1  0
  7  6  2  0
  8 14  1  0
  8 16  1  0
  9 14  1  0
 10 11  1  0
 10  9  1  0
 12 11  1  0
 12 21  1  0
 12 13  1  0
 14 13  1  0
 15  8  2  0
 16 17  1  0
 18 19  2  0
 19 20  1  0
 19 38  1  0
 20 23  1  0
 21 18  1  0
 21 22  1  0
 22 20  2  0
 23 24  1  0
 24 25  2  0
 26 29  1  0
 26 25  1  0
 27 26  2  0
 28 27  1  0
 28 23  2  0
 29 30  1  0
 30 31  1  0
 31 32  2  0
 33 32  1  0
 33 37  1  0
 34 33  2  0
 35 30  2  0
 35 34  1  0
 36 35  1  0
 38 39  1  0
 39 42  1  0
 39 41  1  0
 40 38  2  0
 43 44  1  0
 43 18  1  0
 45 43  1  0
 49 46  1  6
 48 49  1  0
 49  5  1  0
 49 47  1  0
 50  1  1  0
 50 51  1  0
 53 51  1  0
 53 52  1  0
 53 54  1  6
 55 53  1  0
 56 57  1  0
 56 55  1  0
 58 60  1  0
 58 57  1  0
 59 70  2  0
 60 65  1  0
 61 69  1  0
 61 71  1  0
 62 68  1  0
 62 64  1  0
 63 69  1  0
 64 63  1  0
 65 64  2  0
 66 67  1  0
 66 60  2  0
 67 62  2  0
 68 61  1  0
 69 59  1  0
 71 73  2  0
 72 71  1  0
 74 72  1  0
 75 84  2  0
 75 80  1  0
 76 72  1  0
 76 80  1  0
 77 76  1  0
 78 79  1  0
 78 77  1  0
 79 75  1  0
 80 81  2  0
 81 82  1  0
 83 82  2  0
 84 83  1  0
 85 59  1  0
 85 86  1  0
 85 95  1  0
 86 89  1  0
 87 91  1  0
 87 86  1  0
 88 87  2  0
 91 90  1  0
 93 91  1  0
 93 94  1  0
 93 92  1  0
 95 98  1  1
 95 96  1  0
 97 95  1  0
M  ISO  4   8 100  16 100  57 101  58 101
M  END
>  <TORSDO>  (55) 
F 24

>  <SCORE>  (55) 
-9.356

>  <name>  (55) 
55

>  <ligand_id>  (55) 
55

>  <original_smiles>  (55) 
[H]c1c([H])c([H])c2c(c1[H])C([H])([H])C([H])([H])C([H])([H])C2([H])N([H])C(=O)C1([H])N(C(=O)C([H])(N([H])C(=O)C([H])(N([H])C([H])([H])[H])C([H])([H])[H])C(C([H])([H])[H])(C([H])([H])[H])C([H])([H])[H])C([H])([H])c2c([H])c(OC([H])([H])C([H])([H])C([H])([H])[N+]([H])(C([H])([H])[H])C([H])([H])C([H])([H])C([H])([H])c3c([H])c(N([H])C(=O)N4C([H])([H])C([H])([H])C([H])([H])C([H])(n5nc(-c6c([H])c([H])c(Oc7c([H])c([H])c(F)c([H])c7F)c([H])c6[H])c(C(=O)N([H])[H])c5N([H])[H])C4([H])[H])nc(C(C([H])([H])[H])(C([H])([H])[H])C([H])([H])[H])c3[H])c([H])c([H])c2C1([H])[H]

>  <smiles>  (55) 
[H]c1c([H])c([H])c2c(c1[H])C([H])([H])C([H])([H])C([H])([H])C2([H])N([H])C(=O)C1([H])N(C(=O)C([H])(N([H])C(=O)C([H])(N([H])C([H])([H])[H])C([H])([H])[H])C(C([H])([H])[H])(C([H])([H])[H])C([H])([H])[H])C([H])([H])c2c([H])c(OC([H])([H])C([H])([H])C([H])([H])[N+]([H])(C([H])([H])[H])C([H])([H])C([H])([H])C([H])([H])c3c([H])c(N([H])C(=O)N4C([H])([H])C([H])([H])C([H])([H])C([H])(n5nc(-c6c([H])c([H])c(Oc7c([H])c([H])c(F)c([H])c7F)c([H])c6[H])c(C(=O)N([H])[H])c5N([H])[H])C4([H])[H])nc(C(C([H])([H])[H])(C([H])([H])[H])C([H])([H])[H])c3[H])c([H])c([H])c2C1([H])[H]

$$$$
56:0:0
     RDKit          3D

 92 99  0  0  1  0  0  0  0  0999 V2000
  -29.5160  -21.9220   19.7530 C   0  0  0  0  0  3  0  0  0  0  0  0
  -27.9410  -20.4570   21.0940 C   0  0  0  0  0  1  0  0  0  0  0  0
  -29.2630  -20.4910   20.4290 N   0  0  1  0  0  4  0  0  0  0  0  0
  -29.9110  -20.5050   21.2020 H   0  0  0  0  0  0  0  0  0  0  0  0
  -28.4910  -18.7310   18.6840 C   0  0  0  0  0  1  0  0  0  0  0  0
  -29.5760  -19.0830   19.7190 C   0  0  0  0  0  3  0  0  0  0  0  0
  -29.9940  -17.6960   20.5950 C   0  0  0  0  0  2  0  0  0  0  0  0
  -30.5330  -15.0090   20.0630 C   0  0  0  0  0  0  0  0  0  0  0  0
  -30.3620  -12.6780   19.0750 C   0  0  0  0  0  2  0  0  0  0  0  0
  -29.3710  -12.6530   17.8890 C   0  0  0  0  0  2  0  0  0  0  0  0
  -27.9310  -12.4400   18.3890 C   0  0  0  0  0  2  0  0  0  0  0  0
  -27.5790  -13.3490   19.5960 C   0  0  0  0  0  3  0  0  0  0  0  0
  -28.6850  -13.3340   20.6690 C   0  0  0  0  0  2  0  0  0  0  0  0
  -29.9240  -13.7560   19.9990 N   0  0  0  0  0  0  0  0  0  0  0  0
  -31.7410  -15.0760   19.8110 O   0  0  0  0  0  0  0  0  0  0  0  0
  -29.7450  -16.1810   20.1970 N   0  0  0  0  0  0  0  0  0  0  0  0
  -28.7620  -15.9510   20.2050 H   0  0  0  0  0  0  0  0  0  0  0  0
  -25.2300  -13.9180   20.4360 C   0  0  0  0  0  0  0  0  0  0  0  0
  -24.1820  -13.1360   20.8400 C   0  0  0  0  0  0  0  0  0  0  0  0
  -24.6480  -11.7860   20.7810 C   0  0  0  0  0  0  0  0  0  0  0  0
  -26.2640  -13.0430   20.1490 N   0  0  0  0  0  0  0  0  0  0  0  0
  -25.9280  -11.7570   20.4240 N   0  0  0  0  0  0  0  0  0  0  0  0
  -23.9340  -10.5210   20.9890 C   0  0  0  0  0  0  0  0  0  0  0  0
  -24.3880   -9.5600   21.9200 C   0  0  0  0  0  3  0  0  0  0  0  0
  -23.6710   -8.3600   22.1170 C   0  0  0  0  0  3  0  0  0  0  0  0
  -22.4870   -8.1130   21.3820 C   0  0  0  0  0  0  0  0  0  0  0  0
  -22.0530   -9.0610   20.4400 C   0  0  0  0  0  3  0  0  0  0  0  0
  -22.7700  -10.2520   20.2410 C   0  0  0  0  0  3  0  0  0  0  0  0
  -21.7390   -6.9650   21.4890 O   0  0  0  0  0  0  0  0  0  0  0  0
  -21.7000   -6.2360   22.6500 C   0  0  0  0  0  0  0  0  0  0  0  0
  -21.2520   -6.7970   23.8650 C   0  0  0  0  0  3  0  0  0  0  0  0
  -21.1610   -5.9960   25.0210 C   0  0  0  0  0  3  0  0  0  0  0  0
  -21.5080   -4.6320   24.9610 C   0  0  0  0  0  0  0  0  0  0  0  0
  -21.9470   -4.0690   23.7490 C   0  0  0  0  0  3  0  0  0  0  0  0
  -22.0390   -4.8690   22.5970 C   0  0  0  0  0  0  0  0  0  0  0  0
  -22.4440   -4.3180   21.4280 F   0  0  0  0  0  0  0  0  0  0  0  0
  -21.4130   -3.8590   26.0670 F   0  0  0  0  0  0  0  0  0  0  0  0
  -22.7950  -13.6070   21.1650 C   0  0  0  0  0  0  0  0  0  0  0  0
  -22.1010  -12.8970   22.0510 N   0  0  0  0  0  0  0  0  0  0  0  0
  -22.3360  -14.6360   20.6730 O   0  0  0  0  0  0  0  0  0  0  0  0
  -22.4900  -12.0630   22.4660 H   0  0  0  0  0  0  0  0  0  0  0  0
  -21.1720  -13.1910   22.3150 H   0  0  0  0  0  0  0  0  0  0  0  0
  -25.3790  -15.2900   20.2600 N   0  0  0  0  0  0  0  0  0  0  0  0
  -24.6100  -15.9360   20.4020 H   0  0  0  0  0  0  0  0  0  0  0  0
  -26.1970  -15.7320   19.8620 H   0  0  0  0  0  0  0  0  0  0  0  0
  -31.7860  -22.3220   20.9950 C   0  0  0  0  0  1  0  0  0  0  0  0
  -31.0620  -22.0760   19.6520 C   0  0  0  0  0  2  0  0  0  0  0  0
  -28.7940  -23.3840   20.3100 C   0  0  0  0  0  2  0  0  0  0  0  0
  -30.2260  -25.3770   19.3360 C   0  0  0  0  0  1  0  0  0  0  0  0
  -28.1230  -24.8290   18.2020 C   0  0  0  0  0  1  0  0  0  0  0  0
  -28.7730  -24.9420   19.5920 C   0  0  1  0  0  0  0  0  0  0  0  0
  -28.3770  -26.2940   20.2840 O   0  0  0  0  0  0  0  0  0  0  0  0
  -24.6060  -31.8780   23.1860 C   0  0  0  0  0  0  0  0  0  0  0  0
  -27.2640  -27.2120   20.1480 C   0  0  0  0  0  0  0  0  0  0  0  0
  -23.4320  -30.4890   21.5220 C   0  0  0  0  0  3  0  0  0  0  0  0
  -24.9060  -28.9370   20.1020 C   0  0  0  0  0  0  0  0  0  0  0  0
  -25.9850  -30.7780   21.3830 C   0  0  0  0  0  2  0  0  0  0  0  0
  -26.0750  -29.3910   20.7220 C   0  0  0  0  0  0  0  0  0  0  0  0
  -27.2450  -28.5430   20.7320 C   0  0  0  0  0  3  0  0  0  0  0  0
  -26.0500  -26.8450   19.5240 C   0  0  0  0  0  3  0  0  0  0  0  0
  -24.9060  -27.6720   19.4900 C   0  0  0  0  0  3  0  0  0  0  0  0
  -23.6750  -29.8300   20.1380 C   0  0  0  0  0  2  0  0  0  0  0  0
  -24.6940  -31.0700   22.0860 N   0  0  0  0  0  0  0  0  0  0  0  0
  -23.5150  -32.1500   23.7110 O   0  0  0  0  0  0  0  0  0  0  0  0
  -22.7560  -29.4650   22.4690 C   0  0  0  0  0  0  0  0  0  0  0  0
  -21.4290  -29.2900   22.3340 N   0  0  0  0  0  0  0  0  0  0  0  0
  -23.4280  -28.8300   23.2880 O   0  0  0  0  0  0  0  0  0  0  0  0
  -20.9440  -29.8710   21.6630 H   0  0  0  0  0  0  0  0  0  0  0  0
  -18.0470  -28.0770   22.8020 C   0  0  0  0  0  0  0  0  0  0  0  0
  -20.6040  -28.3440   23.0920 C   0  0  0  0  0  3  0  0  0  0  0  0
  -20.7100  -26.9140   22.5100 C   0  0  0  0  0  2  0  0  0  0  0  0
  -19.6190  -26.5970   21.4830 C   0  0  0  0  0  2  0  0  0  0  0  0
  -18.2320  -26.7310   22.1190 C   0  0  0  0  0  2  0  0  0  0  0  0
  -19.1620  -28.8390   23.2450 C   0  0  0  0  0  0  0  0  0  0  0  0
  -18.9350  -30.0940   23.8480 C   0  0  0  0  0  3  0  0  0  0  0  0
  -17.6280  -30.5910   24.0110 C   0  0  0  0  0  3  0  0  0  0  0  0
  -16.5280  -29.8270   23.5800 C   0  0  0  0  0  3  0  0  0  0  0  0
  -16.7390  -28.5710   22.9830 C   0  0  0  0  0  3  0  0  0  0  0  0
  -25.8720  -32.5230   23.8300 C   0  0  0  0  0  3  0  0  0  0  0  0
  -25.5470  -33.9210   24.1500 N   0  0  0  0  0  0  0  0  0  0  0  0
  -25.8970  -34.9800   23.4080 C   0  0  0  0  0  0  0  0  0  0  0  0
  -26.5870  -34.8790   22.3910 O   0  0  0  0  0  0  0  0  0  0  0  0
  -24.9260  -34.0670   24.9330 H   0  0  0  0  0  0  0  0  0  0  0  0
  -24.1800  -36.7830   23.0260 C   0  0  0  0  0  1  0  0  0  0  0  0
  -25.4010  -36.3690   23.8630 C   0  0  0  0  0  3  0  0  0  0  0  0
  -27.5160  -37.2510   24.7470 C   0  0  0  0  0  1  0  0  0  0  0  0
  -26.4370  -37.4230   23.7780 N   0  0  0  0  0  0  0  0  0  0  0  0
  -26.0280  -38.3430   23.9210 H   0  0  0  0  0  0  0  0  0  0  0  0
  -26.3630  -31.7630   25.1210 C   0  0  1  0  0  0  0  0  0  0  0  0
  -25.2530  -31.5300   26.1740 C   0  0  0  0  0  1  0  0  0  0  0  0
  -26.9540  -30.3860   24.7450 C   0  0  0  0  0  1  0  0  0  0  0  0
  -27.4990  -32.5660   25.7940 C   0  0  0  0  0  1  0  0  0  0  0  0
  1 47  1  0
  1 48  1  0
  1  3  1  0
  3  2  1  0
  3  4  1  1
  6  5  1  0
  6  3  1  0
  6  7  1  0
  8 16  1  0
  9 14  1  0
 10 11  1  0
 10  9  1  0
 12 11  1  0
 12 21  1  0
 12 13  1  0
 14  8  1  0
 14 13  1  0
 15  8  2  0
 16 17  1  0
 16  7  1  0
 18 19  2  0
 19 38  1  0
 20 19  1  0
 20 23  1  0
 21 22  1  0
 21 18  1  0
 22 20  2  0
 23 24  1  0
 24 25  2  0
 26 29  1  0
 26 25  1  0
 27 26  2  0
 28 27  1  0
 28 23  2  0
 29 30  1  0
 30 31  1  0
 31 32  2  0
 33 32  1  0
 33 37  1  0
 34 33  2  0
 35 30  2  0
 35 34  1  0
 36 35  1  0
 38 39  1  0
 39 42  1  0
 39 41  1  0
 40 38  2  0
 43 44  1  0
 43 18  1  0
 45 43  1  0
 47 46  1  0
 51 49  1  6
 50 51  1  0
 51 52  1  0
 51 48  1  0
 53 64  2  0
 54 52  1  0
 54 59  1  0
 55 63  1  0
 55 65  1  0
 56 62  1  0
 56 58  1  0
 57 63  1  0
 58 59  2  0
 58 57  1  0
 60 54  2  0
 61 60  1  0
 61 56  2  0
 62 55  1  0
 63 53  1  0
 65 67  2  0
 66 65  1  0
 68 66  1  0
 69 78  2  0
 69 74  1  0
 70 66  1  0
 70 74  1  0
 71 70  1  0
 72 73  1  0
 72 71  1  0
 73 69  1  0
 74 75  2  0
 75 76  1  0
 77 76  2  0
 78 77  1  0
 79 53  1  0
 79 80  1  0
 79 89  1  0
 80 83  1  0
 81 85  1  0
 81 80  1  0
 82 81  2  0
 85 84  1  0
 87 85  1  0
 87 88  1  0
 87 86  1  0
 89 92  1  1
 89 90  1  0
 91 89  1  0
M  ISO  4   8 100  16 100  51 101  52 101
M  END
>  <TORSDO>  (56) 
F 22

>  <SCORE>  (56) 
-13.343

>  <name>  (56) 
56

>  <ligand_id>  (56) 
56

>  <original_smiles>  (56) 
[H]c1c([H])c([H])c2c(c1[H])C([H])([H])C([H])([H])C([H])([H])C2([H])N([H])C(=O)C1([H])N(C(=O)C([H])(N([H])C(=O)C([H])(N([H])C([H])([H])[H])C([H])([H])[H])C(C([H])([H])[H])(C([H])([H])[H])C([H])([H])[H])C([H])([H])c2c([H])c(OC(C([H])([H])[H])(C([H])([H])[H])C([H])([H])C([H])(C([H])([H])C([H])([H])[H])[N+]([H])(C([H])([H])[H])C([H])(C([H])([H])[H])C([H])([H])N([H])C(=O)N3C([H])([H])C([H])([H])C([H])([H])C([H])(n4nc(-c5c([H])c([H])c(Oc6c([H])c([H])c(F)c([H])c6F)c([H])c5[H])c(C(=O)N([H])[H])c4N([H])[H])C3([H])[H])c([H])c([H])c2C1([H])[H]

>  <smiles>  (56) 
[H]c1c([H])c([H])c2c(c1[H])C([H])([H])C([H])([H])C([H])([H])C2([H])N([H])C(=O)C1([H])N(C(=O)C([H])(N([H])C(=O)C([H])(N([H])C([H])([H])[H])C([H])([H])[H])C(C([H])([H])[H])(C([H])([H])[H])C([H])([H])[H])C([H])([H])c2c([H])c(OC(C([H])([H])[H])(C([H])([H])[H])C([H])([H])C([H])(C([H])([H])C([H])([H])[H])[N+]([H])(C([H])([H])[H])C([H])(C([H])([H])[H])C([H])([H])N([H])C(=O)N3C([H])([H])C([H])([H])C([H])([H])C([H])(n4nc(-c5c([H])c([H])c(Oc6c([H])c([H])c(F)c([H])c6F)c([H])c5[H])c(C(=O)N([H])[H])c4N([H])[H])C3([H])[H])c([H])c([H])c2C1([H])[H]

$$$$
57:0:0
     RDKit          3D

 93101  0  0  1  0  0  0  0  0999 V2000
  -30.7160  -18.5800   21.2680 C   0  0  0  0  0  3  0  0  0  0  0  0
  -29.2910  -19.2210   19.4360 C   0  0  0  0  0  3  0  0  0  0  0  0
  -29.9760  -18.2080   20.1300 C   0  0  0  0  0  0  0  0  0  0  0  0
  -30.7280  -19.9360   21.6700 C   0  0  0  0  0  0  0  0  0  0  0  0
  -30.0160  -20.8820   20.8940 C   0  0  0  0  0  0  0  0  0  0  0  0
  -29.3060  -20.5140   19.8050 N   0  0  0  0  0  0  0  0  0  0  0  0
  -31.5370  -20.3540   22.8920 C   0  0  0  0  0  2  0  0  0  0  0  0
  -30.6050  -18.6900   24.6360 C   0  0  0  0  0  1  0  0  0  0  0  0
  -30.7890  -20.1600   24.2250 C   0  0  0  0  0  2  0  0  0  0  0  0
  -29.9640  -16.7900   19.5600 C   0  0  0  0  0  2  0  0  0  0  0  0
  -30.7030  -14.5970   20.3490 C   0  0  0  0  0  0  0  0  0  0  0  0
  -30.4100  -12.4270   19.2740 C   0  0  0  0  0  2  0  0  0  0  0  0
  -29.4670  -12.6340   18.0700 C   0  0  0  0  0  2  0  0  0  0  0  0
  -27.9940  -12.4930   18.5030 C   0  0  0  0  0  2  0  0  0  0  0  0
  -27.6550  -13.3340   19.7640 C   0  0  0  0  0  3  0  0  0  0  0  0
  -28.7160  -13.1320   20.8720 C   0  0  0  0  0  2  0  0  0  0  0  0
  -30.0410  -13.4130   20.2970 N   0  0  0  0  0  0  0  0  0  0  0  0
  -31.8630  -14.7450   19.9600 O   0  0  0  0  0  0  0  0  0  0  0  0
  -29.9040  -15.6670   20.5070 N   0  0  0  0  0  0  0  0  0  0  0  0
  -28.9920  -15.4620   20.8830 H   0  0  0  0  0  0  0  0  0  0  0  0
  -25.2540  -13.9310   20.4840 C   0  0  0  0  0  0  0  0  0  0  0  0
  -24.1890  -13.1520   20.8540 C   0  0  0  0  0  0  0  0  0  0  0  0
  -24.6580  -11.8040   20.8180 C   0  0  0  0  0  0  0  0  0  0  0  0
  -26.3030  -13.0550   20.2460 N   0  0  0  0  0  0  0  0  0  0  0  0
  -25.9470  -11.7710   20.5040 N   0  0  0  0  0  0  0  0  0  0  0  0
  -23.9400  -10.5380   21.0070 C   0  0  0  0  0  0  0  0  0  0  0  0
  -24.3670   -9.5840   21.9570 C   0  0  0  0  0  3  0  0  0  0  0  0
  -23.6520   -8.3800   22.1340 C   0  0  0  0  0  3  0  0  0  0  0  0
  -22.4960   -8.1200   21.3610 C   0  0  0  0  0  0  0  0  0  0  0  0
  -22.0870   -9.0630   20.4010 C   0  0  0  0  0  3  0  0  0  0  0  0
  -22.8030  -10.2590   20.2220 C   0  0  0  0  0  3  0  0  0  0  0  0
  -21.7540   -6.9680   21.4460 O   0  0  0  0  0  0  0  0  0  0  0  0
  -21.6710   -6.2490   22.6120 C   0  0  0  0  0  0  0  0  0  0  0  0
  -21.1650   -6.8130   23.8030 C   0  0  0  0  0  3  0  0  0  0  0  0
  -21.0350   -6.0170   24.9590 C   0  0  0  0  0  3  0  0  0  0  0  0
  -21.4010   -4.6590   24.9230 C   0  0  0  0  0  0  0  0  0  0  0  0
  -21.8990   -4.0940   23.7370 C   0  0  0  0  0  3  0  0  0  0  0  0
  -22.0310   -4.8870   22.5830 C   0  0  0  0  0  0  0  0  0  0  0  0
  -22.4920   -4.3310   21.4360 F   0  0  0  0  0  0  0  0  0  0  0  0
  -21.2680   -3.8930   26.0310 F   0  0  0  0  0  0  0  0  0  0  0  0
  -22.7920  -13.6230   21.1350 C   0  0  0  0  0  0  0  0  0  0  0  0
  -22.0680  -12.9190   22.0000 N   0  0  0  0  0  0  0  0  0  0  0  0
  -22.3490  -14.6490   20.6240 O   0  0  0  0  0  0  0  0  0  0  0  0
  -22.4390  -12.0900   22.4400 H   0  0  0  0  0  0  0  0  0  0  0  0
  -21.1300  -13.2170   22.2280 H   0  0  0  0  0  0  0  0  0  0  0  0
  -25.4110  -15.3030   20.3060 N   0  0  0  0  0  0  0  0  0  0  0  0
  -24.6390  -15.9500   20.4240 H   0  0  0  0  0  0  0  0  0  0  0  0
  -26.2530  -15.7460   19.9590 H   0  0  0  0  0  0  0  0  0  0  0  0
  -30.0420  -22.2350   21.2090 O   0  0  0  0  0  0  0  0  0  0  0  0
  -29.2760  -23.1260   20.3830 C   0  0  0  0  0  2  0  0  0  0  0  0
  -29.3710  -24.6060   20.8060 C   0  0  0  0  0  2  0  0  0  0  0  0
  -28.3460  -25.4410   20.0130 C   0  0  0  0  0  2  0  0  0  0  0  0
  -28.4180  -26.8500   20.2680 O   0  0  0  0  0  0  0  0  0  0  0  0
  -24.5460  -31.9650   23.2920 C   0  0  0  0  0  0  0  0  0  0  0  0
  -27.2380  -27.5690   20.2000 C   0  0  0  0  0  0  0  0  0  0  0  0
  -23.3590  -30.5730   21.6300 C   0  0  0  0  0  3  0  0  0  0  0  0
  -24.8320  -29.0620   20.1990 C   0  0  0  0  0  0  0  0  0  0  0  0
  -25.8830  -30.9500   21.4520 C   0  0  0  0  0  2  0  0  0  0  0  0
  -25.9810  -29.5870   20.7990 C   0  0  0  0  0  0  0  0  0  0  0  0
  -27.1850  -28.8480   20.7980 C   0  0  0  0  0  3  0  0  0  0  0  0
  -26.0720  -27.0720   19.5670 C   0  0  0  0  0  3  0  0  0  0  0  0
  -24.8700  -27.8030   19.5790 C   0  0  0  0  0  3  0  0  0  0  0  0
  -23.5800  -29.9080   20.2450 C   0  0  0  0  0  2  0  0  0  0  0  0
  -24.6150  -31.1760   22.1840 N   0  0  0  0  0  0  0  0  0  0  0  0
  -23.4600  -32.2250   23.8280 O   0  0  0  0  0  0  0  0  0  0  0  0
  -22.7090  -29.5370   22.5760 C   0  0  0  0  0  0  0  0  0  0  0  0
  -21.3910  -29.3330   22.4270 N   0  0  0  0  0  0  0  0  0  0  0  0
  -23.3900  -28.9170   23.3990 O   0  0  0  0  0  0  0  0  0  0  0  0
  -20.9000  -29.8870   21.7370 H   0  0  0  0  0  0  0  0  0  0  0  0
  -18.0300  -28.0840   22.8660 C   0  0  0  0  0  0  0  0  0  0  0  0
  -20.5770  -28.3810   23.1830 C   0  0  0  0  0  3  0  0  0  0  0  0
  -20.7120  -26.9530   22.6100 C   0  0  0  0  0  2  0  0  0  0  0  0
  -19.6350  -26.6130   21.5750 C   0  0  0  0  0  2  0  0  0  0  0  0
  -18.2400  -26.7370   22.1940 C   0  0  0  0  0  2  0  0  0  0  0  0
  -19.1290  -28.8630   23.3160 C   0  0  0  0  0  0  0  0  0  0  0  0
  -18.8790  -30.1230   23.9020 C   0  0  0  0  0  3  0  0  0  0  0  0
  -17.5650  -30.6050   24.0420 C   0  0  0  0  0  3  0  0  0  0  0  0
  -16.4800  -29.8240   23.6090 C   0  0  0  0  0  3  0  0  0  0  0  0
  -16.7130  -28.5650   23.0270 C   0  0  0  0  0  3  0  0  0  0  0  0
  -25.8260  -32.5990   23.9230 C   0  0  0  0  0  3  0  0  0  0  0  0
  -25.5210  -34.0050   24.2170 N   0  0  0  0  0  0  0  0  0  0  0  0
  -25.8710  -35.0370   23.4380 C   0  0  0  0  0  0  0  0  0  0  0  0
  -26.5540  -34.9060   22.4190 O   0  0  0  0  0  0  0  0  0  0  0  0
  -24.9180  -34.1810   25.0070 H   0  0  0  0  0  0  0  0  0  0  0  0
  -24.1650  -36.8330   23.0060 C   0  0  0  0  0  1  0  0  0  0  0  0
  -25.3850  -36.4390   23.8540 C   0  0  0  0  0  3  0  0  0  0  0  0
  -27.5040  -37.3310   24.7170 C   0  0  0  0  0  1  0  0  0  0  0  0
  -26.4280  -37.4810   23.7410 N   0  0  0  0  0  0  0  0  0  0  0  0
  -26.0260  -38.4080   23.8510 H   0  0  0  0  0  0  0  0  0  0  0  0
  -26.3160  -31.8480   25.2220 C   0  0  1  0  0  0  0  0  0  0  0  0
  -25.2010  -31.6380   26.2740 C   0  0  0  0  0  1  0  0  0  0  0  0
  -26.8980  -30.4590   24.8650 C   0  0  0  0  0  1  0  0  0  0  0  0
  -27.4580  -32.6490   25.8910 C   0  0  0  0  0  1  0  0  0  0  0  0
  1  4  2  0
  2  6  1  0
  2  3  2  0
  3  1  1  0
  4  7  1  0
  5 49  1  0
  5  4  1  0
  6  5  2  0
  7  9  1  0
  9  8  1  0
 10  3  1  0
 10 19  1  0
 11 19  1  0
 12 17  1  0
 13 14  1  0
 13 12  1  0
 15 14  1  0
 15 24  1  0
 15 16  1  0
 17 11  1  0
 17 16  1  0
 18 11  2  0
 19 20  1  0
 21 22  2  0
 22 41  1  0
 23 22  1  0
 23 26  1  0
 24 21  1  0
 24 25  1  0
 25 23  2  0
 26 27  1  0
 27 28  2  0
 29 32  1  0
 29 28  1  0
 30 29  2  0
 31 30  1  0
 31 26  2  0
 32 33  1  0
 33 34  1  0
 34 35  2  0
 36 35  1  0
 36 40  1  0
 37 36  2  0
 38 33  2  0
 38 37  1  0
 39 38  1  0
 41 42  1  0
 42 45  1  0
 42 44  1  0
 43 41  2  0
 46 47  1  0
 46 21  1  0
 48 46  1  0
 50 51  1  0
 50 49  1  0
 52 53  1  0
 52 51  1  0
 54 65  2  0
 55 53  1  0
 55 60  1  0
 56 64  1  0
 56 66  1  0
 57 63  1  0
 57 59  1  0
 58 64  1  0
 59 58  1  0
 60 59  2  0
 61 62  1  0
 61 55  2  0
 62 57  2  0
 63 56  1  0
 64 54  1  0
 66 68  2  0
 67 66  1  0
 69 67  1  0
 70 79  2  0
 70 75  1  0
 71 67  1  0
 71 75  1  0
 72 71  1  0
 73 74  1  0
 73 72  1  0
 74 70  1  0
 75 76  2  0
 76 77  1  0
 78 77  2  0
 79 78  1  0
 80 54  1  0
 80 81  1  0
 80 90  1  0
 81 84  1  0
 82 86  1  0
 82 81  1  0
 83 82  2  0
 86 85  1  0
 88 89  1  0
 88 86  1  0
 88 87  1  0
 90 93  1  1
 90 91  1  0
 92 90  1  0
M  ISO  4  11 100  19 100  52 101  53 101
M  END
>  <TORSDO>  (57) 
F 23

>  <SCORE>  (57) 
-12.291

>  <name>  (57) 
57

>  <ligand_id>  (57) 
57

>  <original_smiles>  (57) 
[H]c1nc(OC([H])([H])C([H])([H])C([H])([H])Oc2c([H])c([H])c3c(c2[H])C([H])([H])N(C(=O)C([H])(N([H])C(=O)C([H])(N([H])C([H])([H])[H])C([H])([H])[H])C(C([H])([H])[H])(C([H])([H])[H])C([H])([H])[H])C([H])(C(=O)N([H])C2([H])c4c([H])c([H])c([H])c([H])c4C([H])([H])C([H])([H])C2([H])[H])C3([H])[H])c(C([H])([H])C([H])([H])C([H])([H])[H])c([H])c1C([H])([H])N([H])C(=O)N1C([H])([H])C([H])([H])C([H])([H])C([H])(n2nc(-c3c([H])c([H])c(Oc4c([H])c([H])c(F)c([H])c4F)c([H])c3[H])c(C(=O)N([H])[H])c2N([H])[H])C1([H])[H]

>  <smiles>  (57) 
[H]c1nc(OC([H])([H])C([H])([H])C([H])([H])Oc2c([H])c([H])c3c(c2[H])C([H])([H])N(C(=O)C([H])(N([H])C(=O)C([H])(N([H])C([H])([H])[H])C([H])([H])[H])C(C([H])([H])[H])(C([H])([H])[H])C([H])([H])[H])C([H])(C(=O)N([H])C2([H])c4c([H])c([H])c([H])c([H])c4C([H])([H])C([H])([H])C2([H])[H])C3([H])[H])c(C([H])([H])C([H])([H])C([H])([H])[H])c([H])c1C([H])([H])N([H])C(=O)N1C([H])([H])C([H])([H])C([H])([H])C([H])(n2nc(-c3c([H])c([H])c(Oc4c([H])c([H])c(F)c([H])c4F)c([H])c3[H])c(C(=O)N([H])[H])c2N([H])[H])C1([H])[H]

$$$$
58:0:0
     RDKit          3D

 97105  0  0  1  0  0  0  0  0999 V2000
  -31.1490  -19.9440   19.9760 C   0  0  0  0  0  3  0  0  0  0  0  0
  -29.1550  -20.4950   20.7360 C   0  0  0  0  0  3  0  0  0  0  0  0
  -29.9700  -19.4030   20.5720 C   0  0  0  0  0  0  0  0  0  0  0  0
  -31.0220  -21.3010   19.7860 C   0  0  0  0  0  0  0  0  0  0  0  0
  -29.7530  -21.6640   20.2670 N   0  0  0  0  0  0  0  0  0  0  0  0
  -28.1810  -17.6560   20.5450 C   0  0  0  0  0  1  0  0  0  0  0  0
  -29.7970  -17.7820   22.4860 C   0  0  0  0  0  1  0  0  0  0  0  0
  -29.6460  -17.9380   20.9550 C   0  0  2  0  0  0  0  0  0  0  0  0
  -30.5920  -16.8960   20.2600 C   0  0  0  0  0  2  0  0  0  0  0  0
  -30.8650  -14.4420   19.8860 C   0  0  0  0  0  0  0  0  0  0  0  0
  -30.4750  -12.3030   18.7210 C   0  0  0  0  0  2  0  0  0  0  0  0
  -29.4370  -12.5230   17.6020 C   0  0  0  0  0  2  0  0  0  0  0  0
  -28.0000  -12.3940   18.1420 C   0  0  0  0  0  2  0  0  0  0  0  0
  -27.7700  -13.1920   19.4570 C   0  0  0  0  0  3  0  0  0  0  0  0
  -28.9160  -12.9470   20.4660 C   0  0  0  0  0  2  0  0  0  0  0  0
  -30.1840  -13.2670   19.7970 N   0  0  0  0  0  0  0  0  0  0  0  0
  -31.9480  -14.6250   19.3230 O   0  0  0  0  0  0  0  0  0  0  0  0
  -30.2170  -15.4760   20.4620 N   0  0  0  0  0  0  0  0  0  0  0  0
  -29.3440  -15.2810   20.9300 H   0  0  0  0  0  0  0  0  0  0  0  0
  -25.4410  -13.7730   20.3830 C   0  0  0  0  0  0  0  0  0  0  0  0
  -24.4160  -12.9880   20.8350 C   0  0  0  0  0  0  0  0  0  0  0  0
  -24.8740  -11.6390   20.7300 C   0  0  0  0  0  0  0  0  0  0  0  0
  -26.4640  -12.9000   20.0440 N   0  0  0  0  0  0  0  0  0  0  0  0
  -26.1320  -11.6100   20.3110 N   0  0  0  0  0  0  0  0  0  0  0  0
  -24.1650  -10.3690   20.9530 C   0  0  0  0  0  0  0  0  0  0  0  0
  -24.6090   -9.4430   21.9220 C   0  0  0  0  0  3  0  0  0  0  0  0
  -23.9070   -8.2370   22.1380 C   0  0  0  0  0  3  0  0  0  0  0  0
  -22.7450   -7.9500   21.3850 C   0  0  0  0  0  0  0  0  0  0  0  0
  -22.3200   -8.8610   20.4020 C   0  0  0  0  0  3  0  0  0  0  0  0
  -23.0240  -10.0580   20.1860 C   0  0  0  0  0  3  0  0  0  0  0  0
  -22.0150   -6.7890   21.5040 O   0  0  0  0  0  0  0  0  0  0  0  0
  -21.8680   -6.1510   22.7060 C   0  0  0  0  0  0  0  0  0  0  0  0
  -21.2880   -6.7900   23.8250 C   0  0  0  0  0  3  0  0  0  0  0  0
  -21.0870   -6.0760   25.0200 C   0  0  0  0  0  3  0  0  0  0  0  0
  -21.4620   -4.7210   25.1020 C   0  0  0  0  0  0  0  0  0  0  0  0
  -22.0350   -4.0790   23.9900 C   0  0  0  0  0  3  0  0  0  0  0  0
  -22.2350   -4.7920   22.7960 C   0  0  0  0  0  0  0  0  0  0  0  0
  -22.7650   -4.1630   21.7200 F   0  0  0  0  0  0  0  0  0  0  0  0
  -21.2650   -4.0320   26.2490 F   0  0  0  0  0  0  0  0  0  0  0  0
  -23.0440  -13.4500   21.2360 C   0  0  0  0  0  0  0  0  0  0  0  0
  -22.4010  -12.7410   22.1570 N   0  0  0  0  0  0  0  0  0  0  0  0
  -22.5470  -14.4710   20.7600 O   0  0  0  0  0  0  0  0  0  0  0  0
  -22.8080  -11.9110   22.5650 H   0  0  0  0  0  0  0  0  0  0  0  0
  -21.4780  -13.0240   22.4470 H   0  0  0  0  0  0  0  0  0  0  0  0
  -25.5790  -15.1460   20.2130 N   0  0  0  0  0  0  0  0  0  0  0  0
  -24.8240  -15.8000   20.3970 H   0  0  0  0  0  0  0  0  0  0  0  0
  -26.3720  -15.5800   19.7600 H   0  0  0  0  0  0  0  0  0  0  0  0
  -32.9430  -22.8270   20.3580 C   0  0  0  0  0  1  0  0  0  0  0  0
  -32.0810  -22.2330   19.2280 C   0  0  0  0  0  3  0  0  0  0  0  0
  -33.0010  -21.5880   18.1510 C   0  0  0  0  0  2  0  0  0  0  0  0
  -32.3050  -21.1100   16.8520 C   0  0  0  0  0  2  0  0  0  0  0  0
  -32.5450  -19.6470   14.7460 C   0  0  0  0  0  1  0  0  0  0  0  0
  -33.2630  -20.3540   15.9070 C   0  0  0  0  0  2  0  0  0  0  0  0
  -29.0340  -22.9650   20.3740 C   0  0  0  0  0  2  0  0  0  0  0  0
  -29.5170  -24.1990   19.5400 C   0  0  0  0  0  2  0  0  0  0  0  0
  -28.4310  -25.2740   19.2350 C   0  0  0  0  0  2  0  0  0  0  0  0
  -28.3980  -26.5000   20.0190 O   0  0  0  0  0  0  0  0  0  0  0  0
  -24.5170  -31.6900   23.1130 C   0  0  0  0  0  0  0  0  0  0  0  0
  -27.2300  -27.2640   19.9920 C   0  0  0  0  0  0  0  0  0  0  0  0
  -23.3440  -30.2840   21.4600 C   0  0  0  0  0  3  0  0  0  0  0  0
  -24.8190  -28.7900   20.0240 C   0  0  0  0  0  0  0  0  0  0  0  0
  -25.8760  -30.6620   21.2890 C   0  0  0  0  0  2  0  0  0  0  0  0
  -25.9770  -29.2970   20.6330 C   0  0  0  0  0  0  0  0  0  0  0  0
  -27.1770  -28.5370   20.6240 C   0  0  0  0  0  3  0  0  0  0  0  0
  -26.0420  -26.8060   19.3590 C   0  0  0  0  0  3  0  0  0  0  0  0
  -24.8510  -27.5430   19.3920 C   0  0  0  0  0  3  0  0  0  0  0  0
  -23.5680  -29.6320   20.0740 C   0  0  0  0  0  2  0  0  0  0  0  0
  -24.5990  -30.8930   22.0110 N   0  0  0  0  0  0  0  0  0  0  0  0
  -23.4250  -31.9450   23.6420 O   0  0  0  0  0  0  0  0  0  0  0  0
  -22.7090  -29.2390   22.4060 C   0  0  0  0  0  0  0  0  0  0  0  0
  -21.3890  -29.0280   22.2630 N   0  0  0  0  0  0  0  0  0  0  0  0
  -23.3980  -28.6230   23.2240 O   0  0  0  0  0  0  0  0  0  0  0  0
  -20.8970  -29.5760   21.5710 H   0  0  0  0  0  0  0  0  0  0  0  0
  -18.0360  -27.7540   22.7230 C   0  0  0  0  0  0  0  0  0  0  0  0
  -20.5840  -28.0690   23.0210 C   0  0  0  0  0  3  0  0  0  0  0  0
  -20.7250  -26.6430   22.4390 C   0  0  0  0  0  2  0  0  0  0  0  0
  -19.6390  -26.2970   21.4160 C   0  0  0  0  0  2  0  0  0  0  0  0
  -18.2480  -26.4110   22.0460 C   0  0  0  0  0  2  0  0  0  0  0  0
  -19.1330  -28.5390   23.1670 C   0  0  0  0  0  0  0  0  0  0  0  0
  -18.8810  -29.7940   23.7620 C   0  0  0  0  0  3  0  0  0  0  0  0
  -17.5660  -30.2670   23.9160 C   0  0  0  0  0  3  0  0  0  0  0  0
  -16.4830  -29.4810   23.4880 C   0  0  0  0  0  3  0  0  0  0  0  0
  -16.7190  -28.2250   22.8990 C   0  0  0  0  0  3  0  0  0  0  0  0
  -25.7860  -32.3420   23.7430 C   0  0  0  0  0  3  0  0  0  0  0  0
  -26.3130  -31.5670   25.0130 C   0  0  1  0  0  0  0  0  0  0  0  0
  -25.2160  -31.2910   26.0680 C   0  0  0  0  0  1  0  0  0  0  0  0
  -26.9310  -30.2090   24.6060 C   0  0  0  0  0  1  0  0  0  0  0  0
  -27.4420  -32.3790   25.6890 C   0  0  0  0  0  1  0  0  0  0  0  0
  -25.4420  -33.7280   24.0890 N   0  0  0  0  0  0  0  0  0  0  0  0
  -25.7440  -34.7960   23.3410 C   0  0  0  0  0  0  0  0  0  0  0  0
  -26.4160  -34.7200   22.3080 O   0  0  0  0  0  0  0  0  0  0  0  0
  -24.8390  -33.8580   24.8890 H   0  0  0  0  0  0  0  0  0  0  0  0
  -23.9670  -36.5430   23.0110 C   0  0  0  0  0  1  0  0  0  0  0  0
  -25.2220  -36.1660   23.8130 C   0  0  0  0  0  3  0  0  0  0  0  0
  -27.3330  -37.0980   24.6500 C   0  0  0  0  0  1  0  0  0  0  0  0
  -26.2270  -37.2470   23.7070 N   0  0  0  0  0  0  0  0  0  0  0  0
  -25.7980  -38.1550   23.8590 H   0  0  0  0  0  0  0  0  0  0  0  0
  1  3  1  0
  3  2  2  0
  3  8  1  0
  4  1  2  0
  4  5  1  0
  5 54  1  0
  5  2  1  0
  8  6  1  1
  8  7  1  0
  9 18  1  0
  9  8  1  0
 10 18  1  0
 11 16  1  0
 12 13  1  0
 12 11  1  0
 14 13  1  0
 14 23  1  0
 14 15  1  0
 16 10  1  0
 16 15  1  0
 17 10  2  0
 18 19  1  0
 20 21  2  0
 21 40  1  0
 22 21  1  0
 22 25  1  0
 23 24  1  0
 23 20  1  0
 24 22  2  0
 25 26  1  0
 26 27  2  0
 28 31  1  0
 28 27  1  0
 29 28  2  0
 30 29  1  0
 30 25  2  0
 31 32  1  0
 32 37  2  0
 32 33  1  0
 33 34  2  0
 34 35  1  0
 35 39  1  0
 36 35  2  0
 37 36  1  0
 38 37  1  0
 40 41  1  0
 41 44  1  0
 41 43  1  0
 42 40  2  0
 45 20  1  0
 45 46  1  0
 47 45  1  0
 49  4  1  0
 49 48  1  0
 50 49  1  0
 51 50  1  0
 52 53  1  0
 53 51  1  0
 55 54  1  0
 56 55  1  0
 56 57  1  0
 58 69  2  0
 59 57  1  0
 59 64  1  0
 60 68  1  0
 60 70  1  0
 61 67  1  0
 61 63  1  0
 62 68  1  0
 63 62  1  0
 64 63  2  0
 65 66  1  0
 65 59  2  0
 66 61  2  0
 67 60  1  0
 68 58  1  0
 70 72  2  0
 71 70  1  0
 73 71  1  0
 74 83  2  0
 74 79  1  0
 75 71  1  0
 75 79  1  0
 76 75  1  0
 77 78  1  0
 77 76  1  0
 78 74  1  0
 79 80  2  0
 80 81  1  0
 82 81  2  0
 83 82  1  0
 84 58  1  0
 84 89  1  0
 84 85  1  0
 85 88  1  1
 85 86  1  0
 87 85  1  0
 89 92  1  0
 90 94  1  0
 90 89  1  0
 91 90  2  0
 94 93  1  0
 96 94  1  0
 96 97  1  0
 96 95  1  0
M  ISO  4  10 100  18 100  56 101  57 101
M  END
>  <TORSDO>  (58) 
F 25

>  <SCORE>  (58) 
-10.873

>  <name>  (58) 
58

>  <ligand_id>  (58) 
58

>  <original_smiles>  (58) 
[H]c1c([H])c([H])c2c(c1[H])C([H])([H])C([H])([H])C([H])([H])C2([H])N([H])C(=O)C1([H])N(C(=O)C([H])(N([H])C(=O)C([H])(N([H])C([H])([H])[H])C([H])([H])[H])C(C([H])([H])[H])(C([H])([H])[H])C([H])([H])[H])C([H])([H])c2c([H])c(OC([H])([H])C([H])([H])C([H])([H])n3c([H])c(C(C([H])([H])[H])(C([H])([H])[H])C([H])([H])N([H])C(=O)N4C([H])([H])C([H])([H])C([H])([H])C([H])(n5nc(-c6c([H])c([H])c(Oc7c([H])c([H])c(F)c([H])c7F)c([H])c6[H])c(C(=O)N([H])[H])c5N([H])[H])C4([H])[H])c([H])c3C([H])(C([H])([H])[H])C([H])([H])C([H])([H])C([H])([H])C([H])([H])[H])c([H])c([H])c2C1([H])[H]

>  <smiles>  (58) 
[H]c1c([H])c([H])c2c(c1[H])C([H])([H])C([H])([H])C([H])([H])C2([H])N([H])C(=O)C1([H])N(C(=O)C([H])(N([H])C(=O)C([H])(N([H])C([H])([H])[H])C([H])([H])[H])C(C([H])([H])[H])(C([H])([H])[H])C([H])([H])[H])C([H])([H])c2c([H])c(OC([H])([H])C([H])([H])C([H])([H])n3c([H])c(C(C([H])([H])[H])(C([H])([H])[H])C([H])([H])N([H])C(=O)N4C([H])([H])C([H])([H])C([H])([H])C([H])(n5nc(-c6c([H])c([H])c(Oc7c([H])c([H])c(F)c([H])c7F)c([H])c6[H])c(C(=O)N([H])[H])c5N([H])[H])C4([H])[H])c([H])c3C([H])(C([H])([H])[H])C([H])([H])C([H])([H])C([H])([H])C([H])([H])[H])c([H])c([H])c2C1([H])[H]

$$$$
59:0:0
     RDKit          3D

 92100  0  0  1  0  0  0  0  0999 V2000
  -30.4660  -14.9700   20.3770 C   0  0  0  0  0  0  0  0  0  0  0  0
  -30.3370  -12.6180   19.4070 C   0  0  0  0  0  2  0  0  0  0  0  0
  -29.4060  -12.5590   18.1760 C   0  0  0  0  0  2  0  0  0  0  0  0
  -27.9430  -12.3480   18.6080 C   0  0  0  0  0  2  0  0  0  0  0  0
  -27.5320  -13.2740   19.7820 C   0  0  0  0  0  3  0  0  0  0  0  0
  -28.5860  -13.3000   20.9070 C   0  0  0  0  0  2  0  0  0  0  0  0
  -29.8500  -13.7190   20.2890 N   0  0  0  0  0  0  0  0  0  0  0  0
  -31.6840  -14.9890   20.1580 O   0  0  0  0  0  0  0  0  0  0  0  0
  -31.3890  -19.0780   22.1710 C   0  0  0  0  0  3  0  0  0  0  0  0
  -31.0800  -17.8260   21.6260 C   0  0  0  0  0  3  0  0  0  0  0  0
  -30.6570  -20.2480   21.8630 C   0  0  0  0  0  0  0  0  0  0  0  0
  -29.6040  -20.1940   20.8930 C   0  0  0  0  0  0  0  0  0  0  0  0
  -29.9990  -17.6540   20.7530 C   0  0  0  0  0  0  0  0  0  0  0  0
  -29.3000  -18.8700   20.4090 N   0  0  0  0  0  0  0  0  0  0  0  0
  -29.6950  -16.1800   20.4270 N   0  0  0  0  0  0  0  0  0  0  0  0
  -28.7130  -16.0070   20.2860 H   0  0  0  0  0  0  0  0  0  0  0  0
  -25.1530  -13.8530   20.5200 C   0  0  0  0  0  0  0  0  0  0  0  0
  -24.0880  -13.0790   20.8870 C   0  0  0  0  0  0  0  0  0  0  0  0
  -24.5520  -11.7280   20.8580 C   0  0  0  0  0  0  0  0  0  0  0  0
  -26.1950  -12.9740   20.2820 N   0  0  0  0  0  0  0  0  0  0  0  0
  -25.8440  -11.6910   20.5540 N   0  0  0  0  0  0  0  0  0  0  0  0
  -23.8230  -10.4660   21.0440 C   0  0  0  0  0  0  0  0  0  0  0  0
  -24.2500   -9.4960   21.9770 C   0  0  0  0  0  3  0  0  0  0  0  0
  -23.5200   -8.3000   22.1520 C   0  0  0  0  0  3  0  0  0  0  0  0
  -22.3490   -8.0660   21.3940 C   0  0  0  0  0  0  0  0  0  0  0  0
  -21.9400   -9.0250   20.4480 C   0  0  0  0  0  3  0  0  0  0  0  0
  -22.6720  -10.2110   20.2720 C   0  0  0  0  0  3  0  0  0  0  0  0
  -21.5900   -6.9250   21.4780 O   0  0  0  0  0  0  0  0  0  0  0  0
  -21.5330   -6.1810   22.6290 C   0  0  0  0  0  0  0  0  0  0  0  0
  -21.0820   -6.7320   23.8500 C   0  0  0  0  0  3  0  0  0  0  0  0
  -20.9730   -5.9150   24.9930 C   0  0  0  0  0  3  0  0  0  0  0  0
  -21.3040   -4.5480   24.9160 C   0  0  0  0  0  0  0  0  0  0  0  0
  -21.7470   -3.9980   23.7010 C   0  0  0  0  0  3  0  0  0  0  0  0
  -21.8570   -4.8120   22.5610 C   0  0  0  0  0  0  0  0  0  0  0  0
  -22.2650   -4.2700   21.3870 F   0  0  0  0  0  0  0  0  0  0  0  0
  -21.1920   -3.7620   26.0120 F   0  0  0  0  0  0  0  0  0  0  0  0
  -22.6890  -13.5570   21.1480 C   0  0  0  0  0  0  0  0  0  0  0  0
  -21.9560  -12.8670   22.0140 N   0  0  0  0  0  0  0  0  0  0  0  0
  -22.2550  -14.5800   20.6190 O   0  0  0  0  0  0  0  0  0  0  0  0
  -22.3190  -12.0410   22.4660 H   0  0  0  0  0  0  0  0  0  0  0  0
  -21.0170  -13.1710   22.2290 H   0  0  0  0  0  0  0  0  0  0  0  0
  -25.3130  -15.2240   20.3420 N   0  0  0  0  0  0  0  0  0  0  0  0
  -24.5370  -15.8690   20.4450 H   0  0  0  0  0  0  0  0  0  0  0  0
  -26.1440  -15.6670   19.9750 H   0  0  0  0  0  0  0  0  0  0  0  0
  -32.5190  -21.8810   22.4740 C   0  0  0  0  0  1  0  0  0  0  0  0
  -30.7080  -21.3320   24.1610 C   0  0  0  0  0  1  0  0  0  0  0  0
  -31.0410  -21.4970   22.6680 C   0  0  0  0  0  3  0  0  0  0  0  0
  -28.7510  -21.5910   20.4780 C   0  0  0  0  0  2  0  0  0  0  0  0
  -30.4540  -23.7880   20.2870 C   0  0  0  0  0  1  0  0  0  0  0  0
  -29.0020  -23.2820   20.1350 C   0  0  0  0  0  3  0  0  0  0  0  0
  -28.0230  -24.5980   20.5770 C   0  0  0  0  0  2  0  0  0  0  0  0
  -28.2670  -26.1260   20.2980 O   0  0  0  0  0  0  0  0  0  0  0  0
  -24.6110  -31.8620   23.2210 C   0  0  0  0  0  0  0  0  0  0  0  0
  -27.2050  -27.1080   20.2560 C   0  0  0  0  0  0  0  0  0  0  0  0
  -23.4210  -30.4500   21.5890 C   0  0  0  0  0  3  0  0  0  0  0  0
  -24.8790  -28.8610   20.1870 C   0  0  0  0  0  0  0  0  0  0  0  0
  -25.9770  -30.7140   21.4350 C   0  0  0  0  0  2  0  0  0  0  0  0
  -26.0560  -29.3130   20.7990 C   0  0  0  0  0  0  0  0  0  0  0  0
  -27.2210  -28.4540   20.8110 C   0  0  0  0  0  3  0  0  0  0  0  0
  -26.0040  -26.7650   19.6000 C   0  0  0  0  0  3  0  0  0  0  0  0
  -24.8670  -27.6020   19.5710 C   0  0  0  0  0  3  0  0  0  0  0  0
  -23.6510  -29.7600   20.2180 C   0  0  0  0  0  2  0  0  0  0  0  0
  -24.6890  -31.0320   22.1360 N   0  0  0  0  0  0  0  0  0  0  0  0
  -23.5210  -32.1490   23.7410 O   0  0  0  0  0  0  0  0  0  0  0  0
  -22.7390  -29.4520   22.5570 C   0  0  0  0  0  0  0  0  0  0  0  0
  -21.4120  -29.2770   22.4230 N   0  0  0  0  0  0  0  0  0  0  0  0
  -23.4060  -28.8350   23.3910 O   0  0  0  0  0  0  0  0  0  0  0  0
  -20.9300  -29.8240   21.7240 H   0  0  0  0  0  0  0  0  0  0  0  0
  -18.0290  -28.0770   22.9210 C   0  0  0  0  0  0  0  0  0  0  0  0
  -20.5870  -28.3450   23.1980 C   0  0  0  0  0  3  0  0  0  0  0  0
  -20.6920  -26.9080   22.6360 C   0  0  0  0  0  2  0  0  0  0  0  0
  -19.5950  -26.5760   21.6200 C   0  0  0  0  0  2  0  0  0  0  0  0
  -18.2110  -26.7230   22.2570 C   0  0  0  0  0  2  0  0  0  0  0  0
  -19.1440  -28.8460   23.3500 C   0  0  0  0  0  0  0  0  0  0  0  0
  -18.9200  -30.1110   23.9330 C   0  0  0  0  0  3  0  0  0  0  0  0
  -17.6120  -30.6090   24.0910 C   0  0  0  0  0  3  0  0  0  0  0  0
  -16.5110  -29.8390   23.6790 C   0  0  0  0  0  3  0  0  0  0  0  0
  -16.7210  -28.5750   23.1000 C   0  0  0  0  0  3  0  0  0  0  0  0
  -25.8840  -32.5060   23.8500 C   0  0  0  0  0  3  0  0  0  0  0  0
  -26.3910  -31.7460   25.1370 C   0  0  1  0  0  0  0  0  0  0  0  0
  -25.2910  -31.5150   26.1990 C   0  0  0  0  0  1  0  0  0  0  0  0
  -26.9800  -30.3650   24.7650 C   0  0  0  0  0  1  0  0  0  0  0  0
  -27.5360  -32.5470   25.8000 C   0  0  0  0  0  1  0  0  0  0  0  0
  -25.5650  -33.9060   24.1750 N   0  0  0  0  0  0  0  0  0  0  0  0
  -25.8930  -34.9610   23.4190 C   0  0  0  0  0  0  0  0  0  0  0  0
  -26.5630  -34.8590   22.3870 O   0  0  0  0  0  0  0  0  0  0  0  0
  -24.9680  -34.0580   24.9750 H   0  0  0  0  0  0  0  0  0  0  0  0
  -24.1610  -36.7540   23.0650 C   0  0  0  0  0  1  0  0  0  0  0  0
  -25.4030  -36.3500   23.8770 C   0  0  0  0  0  3  0  0  0  0  0  0
  -27.5330  -37.2430   24.7110 C   0  0  0  0  0  1  0  0  0  0  0  0
  -26.4340  -37.4050   23.7640 N   0  0  0  0  0  0  0  0  0  0  0  0
  -26.0250  -38.3250   23.9050 H   0  0  0  0  0  0  0  0  0  0  0  0
  1 15  1  0
  2  7  1  0
  3  4  1  0
  3  2  1  0
  5  4  1  0
  5 20  1  0
  5  6  1  0
  7  1  1  0
  7  6  1  0
  8  1  2  0
 10  9  2  0
 11  9  1  0
 11 47  1  0
 12 11  2  0
 13 10  1  0
 14 13  2  0
 14 12  1  0
 15 13  1  0
 16 15  1  0
 17 18  2  0
 18 37  1  0
 19 18  1  0
 19 22  1  0
 20 17  1  0
 20 21  1  0
 21 19  2  0
 22 23  1  0
 23 24  2  0
 25 28  1  0
 25 24  1  0
 26 25  2  0
 27 26  1  0
 27 22  2  0
 28 29  1  0
 29 30  1  0
 30 31  2  0
 32 31  1  0
 32 36  1  0
 33 32  2  0
 34 29  2  0
 34 33  1  0
 35 34  1  0
 37 38  1  0
 38 41  1  0
 38 40  1  0
 39 37  2  0
 42 43  1  0
 42 17  1  0
 44 42  1  0
 45 47  1  0
 47 46  1  0
 48 12  1  0
 50 49  1  0
 50 48  1  0
 50 51  1  0
 52 51  1  0
 53 64  2  0
 54 52  1  0
 54 59  1  0
 55 63  1  0
 55 65  1  0
 56 62  1  0
 56 58  1  0
 57 63  1  0
 58 59  2  0
 58 57  1  0
 60 54  2  0
 61 60  1  0
 61 56  2  0
 62 55  1  0
 63 53  1  0
 65 67  2  0
 66 65  1  0
 68 66  1  0
 69 78  2  0
 69 74  1  0
 70 66  1  0
 70 74  1  0
 71 70  1  0
 72 73  1  0
 72 71  1  0
 73 69  1  0
 74 75  2  0
 75 76  1  0
 77 76  2  0
 78 77  1  0
 79 53  1  0
 79 84  1  0
 79 80  1  0
 80 83  1  1
 80 81  1  0
 82 80  1  0
 84 87  1  0
 85 89  1  0
 85 84  1  0
 86 85  2  0
 89 88  1  0
 91 89  1  0
 91 92  1  0
 91 90  1  0
M  ISO  4   1 100  15 100  51 101  52 101
M  END
>  <TORSDO>  (59) 
F 19

>  <SCORE>  (59) 
-15.347

>  <name>  (59) 
59

>  <ligand_id>  (59) 
59

>  <original_smiles>  (59) 
[H]c1c(N([H])C(=O)N2C([H])([H])C([H])([H])C([H])([H])C([H])(n3nc(-c4c([H])c([H])c(Oc5c([H])c([H])c(F)c([H])c5F)c([H])c4[H])c(C(=O)N([H])[H])c3N([H])[H])C2([H])[H])nc(C([H])([H])C([H])(C([H])([H])[H])C([H])([H])Oc2c([H])c([H])c3c(c2[H])C([H])([H])N(C(=O)C([H])(N([H])C(=O)C([H])(N([H])C([H])([H])[H])C([H])([H])[H])C(C([H])([H])[H])(C([H])([H])[H])C([H])([H])[H])C([H])(C(=O)N([H])C2([H])c4c([H])c([H])c([H])c([H])c4C([H])([H])C([H])([H])C2([H])[H])C3([H])[H])c(C([H])(C([H])([H])[H])C([H])([H])[H])c1[H]

>  <smiles>  (59) 
[H]c1c(N([H])C(=O)N2C([H])([H])C([H])([H])C([H])([H])C([H])(n3nc(-c4c([H])c([H])c(Oc5c([H])c([H])c(F)c([H])c5F)c([H])c4[H])c(C(=O)N([H])[H])c3N([H])[H])C2([H])[H])nc(C([H])([H])C([H])(C([H])([H])[H])C([H])([H])Oc2c([H])c([H])c3c(c2[H])C([H])([H])N(C(=O)C([H])(N([H])C(=O)C([H])(N([H])C([H])([H])[H])C([H])([H])[H])C(C([H])([H])[H])(C([H])([H])[H])C([H])([H])[H])C([H])(C(=O)N([H])C2([H])c4c([H])c([H])c([H])c([H])c4C([H])([H])C([H])([H])C2([H])[H])C3([H])[H])c(C([H])(C([H])([H])[H])C([H])([H])[H])c1[H]

$$$$
60:0:0
     RDKit          3D

 98106  0  0  1  0  0  0  0  0999 V2000
  -31.7120  -21.3540   20.7930 C   0  0  0  0  0  3  0  0  0  0  0  0
  -32.8250  -19.5740   19.6000 C   0  0  0  0  0  3  0  0  0  0  0  0
  -32.8750  -20.8430   20.1900 C   0  0  0  0  0  0  0  0  0  0  0  0
  -30.5300  -20.5910   20.8930 C   0  0  0  0  0  0  0  0  0  0  0  0
  -30.5500  -19.2080   20.4630 C   0  0  0  0  0  0  0  0  0  0  0  0
  -31.6670  -18.7700   19.6900 C   0  0  0  0  0  0  0  0  0  0  0  0
  -34.9960  -21.3750   21.4390 C   0  0  0  0  0  1  0  0  0  0  0  0
  -33.9970  -23.1230   19.8820 C   0  0  0  0  0  1  0  0  0  0  0  0
  -34.1860  -21.6240   20.1590 C   0  0  0  0  0  3  0  0  0  0  0  0
  -32.5740  -17.2300   18.0670 C   0  0  0  0  0  1  0  0  0  0  0  0
  -31.5970  -17.5440   19.0560 O   0  0  0  0  0  0  0  0  0  0  0  0
  -28.5730  -17.7820   19.6120 C   0  0  0  0  0  1  0  0  0  0  0  0
  -29.4660  -18.1380   20.8180 C   0  0  0  0  0  3  0  0  0  0  0  0
  -30.0850  -16.8700   21.5420 C   0  0  0  0  0  2  0  0  0  0  0  0
  -30.3260  -14.5420   20.5470 C   0  0  0  0  0  0  0  0  0  0  0  0
  -30.0670  -12.4450   19.2550 C   0  0  0  0  0  2  0  0  0  0  0  0
  -29.0850  -12.7050   18.0960 C   0  0  0  0  0  2  0  0  0  0  0  0
  -27.6310  -12.4920   18.5570 C   0  0  0  0  0  2  0  0  0  0  0  0
  -27.3080  -13.2260   19.8860 C   0  0  0  0  0  3  0  0  0  0  0  0
  -28.4020  -12.9610   20.9430 C   0  0  0  0  0  2  0  0  0  0  0  0
  -29.6910  -13.3520   20.3550 N   0  0  0  0  0  0  0  0  0  0  0  0
  -31.4510  -14.7610   20.0970 O   0  0  0  0  0  0  0  0  0  0  0  0
  -29.6030  -15.5160   21.1520 N   0  0  0  0  0  0  0  0  0  0  0  0
  -28.6800  -15.2510   21.4610 H   0  0  0  0  0  0  0  0  0  0  0  0
  -24.9060  -13.7230   20.6570 C   0  0  0  0  0  0  0  0  0  0  0  0
  -23.8790  -12.9000   21.0290 C   0  0  0  0  0  0  0  0  0  0  0  0
  -24.3920  -11.5700   20.9660 C   0  0  0  0  0  0  0  0  0  0  0  0
  -25.9800  -12.8870   20.3860 N   0  0  0  0  0  0  0  0  0  0  0  0
  -25.6760  -11.5880   20.6320 N   0  0  0  0  0  0  0  0  0  0  0  0
  -23.7220  -10.2760   21.1450 C   0  0  0  0  0  0  0  0  0  0  0  0
  -24.1910   -9.3260   22.0750 C   0  0  0  0  0  3  0  0  0  0  0  0
  -23.5170   -8.0960   22.2420 C   0  0  0  0  0  3  0  0  0  0  0  0
  -22.3590   -7.8110   21.4790 C   0  0  0  0  0  0  0  0  0  0  0  0
  -21.9110   -8.7530   20.5350 C   0  0  0  0  0  3  0  0  0  0  0  0
  -22.5870   -9.9730   20.3660 C   0  0  0  0  0  3  0  0  0  0  0  0
  -21.6550   -6.6320   21.5550 O   0  0  0  0  0  0  0  0  0  0  0  0
  -21.6260   -5.8840   22.7050 C   0  0  0  0  0  0  0  0  0  0  0  0
  -21.1200   -6.4020   23.9180 C   0  0  0  0  0  3  0  0  0  0  0  0
  -21.0430   -5.5760   25.0570 C   0  0  0  0  0  3  0  0  0  0  0  0
  -21.4610   -4.2330   24.9850 C   0  0  0  0  0  0  0  0  0  0  0  0
  -21.9610   -3.7150   23.7780 C   0  0  0  0  0  3  0  0  0  0  0  0
  -22.0400   -4.5380   22.6400 C   0  0  0  0  0  0  0  0  0  0  0  0
  -22.5010   -4.0270   21.4720 F   0  0  0  0  0  0  0  0  0  0  0  0
  -21.3800   -3.4390   26.0770 F   0  0  0  0  0  0  0  0  0  0  0  0
  -22.4680  -13.3140   21.3360 C   0  0  0  0  0  0  0  0  0  0  0  0
  -21.7800  -12.5700   22.1930 N   0  0  0  0  0  0  0  0  0  0  0  0
  -21.9820  -14.3320   20.8470 O   0  0  0  0  0  0  0  0  0  0  0  0
  -22.1890  -11.7470   22.6150 H   0  0  0  0  0  0  0  0  0  0  0  0
  -20.8330  -12.8260   22.4300 H   0  0  0  0  0  0  0  0  0  0  0  0
  -25.0150  -15.1040   20.5040 N   0  0  0  0  0  0  0  0  0  0  0  0
  -24.2220  -15.7250   20.6240 H   0  0  0  0  0  0  0  0  0  0  0  0
  -25.8300  -15.5790   20.1390 H   0  0  0  0  0  0  0  0  0  0  0  0
  -29.3150  -21.3450   21.4660 C   0  0  0  0  0  2  0  0  0  0  0  0
  -28.8080  -22.6060   20.6500 C   0  0  0  0  0  2  0  0  0  0  0  0
  -29.2660  -24.4090   22.4800 C   0  0  0  0  0  1  0  0  0  0  0  0
  -29.2150  -24.1070   20.9690 C   0  0  0  0  0  3  0  0  0  0  0  0
  -28.2160  -25.1000   20.2690 C   0  0  0  0  0  2  0  0  0  0  0  0
  -28.4170  -26.5450   20.3700 O   0  0  0  0  0  0  0  0  0  0  0  0
  -24.6710  -31.9360   23.2110 C   0  0  0  0  0  0  0  0  0  0  0  0
  -27.2860  -27.3590   20.2540 C   0  0  0  0  0  0  0  0  0  0  0  0
  -23.4600  -30.4960   21.6120 C   0  0  0  0  0  3  0  0  0  0  0  0
  -24.9080  -28.9300   20.2090 C   0  0  0  0  0  0  0  0  0  0  0  0
  -25.9950  -30.8320   21.4050 C   0  0  0  0  0  2  0  0  0  0  0  0
  -26.0750  -29.4450   20.7910 C   0  0  0  0  0  0  0  0  0  0  0  0
  -27.2680  -28.6680   20.8080 C   0  0  0  0  0  3  0  0  0  0  0  0
  -26.1020  -26.8990   19.6240 C   0  0  0  0  0  3  0  0  0  0  0  0
  -24.9210  -27.6600   19.6190 C   0  0  0  0  0  3  0  0  0  0  0  0
  -23.6650  -29.7930   20.2450 C   0  0  0  0  0  2  0  0  0  0  0  0
  -24.7250  -31.1040   22.1320 N   0  0  0  0  0  0  0  0  0  0  0  0
  -23.5900  -32.2240   23.7450 O   0  0  0  0  0  0  0  0  0  0  0  0
  -22.8110  -29.4960   22.5970 C   0  0  0  0  0  0  0  0  0  0  0  0
  -21.4960  -29.2750   22.4470 N   0  0  0  0  0  0  0  0  0  0  0  0
  -23.4910  -28.9230   23.4530 O   0  0  0  0  0  0  0  0  0  0  0  0
  -21.0070  -29.7880   21.7270 H   0  0  0  0  0  0  0  0  0  0  0  0
  -18.1470  -27.9900   22.9030 C   0  0  0  0  0  0  0  0  0  0  0  0
  -20.6860  -28.3480   23.2390 C   0  0  0  0  0  3  0  0  0  0  0  0
  -20.8530  -26.8940   22.7390 C   0  0  0  0  0  2  0  0  0  0  0  0
  -19.7970  -26.4850   21.7090 C   0  0  0  0  0  2  0  0  0  0  0  0
  -18.3900  -26.6160   22.3000 C   0  0  0  0  0  2  0  0  0  0  0  0
  -19.2270  -28.8090   23.3300 C   0  0  0  0  0  0  0  0  0  0  0  0
  -18.9490  -30.0920   23.8490 C   0  0  0  0  0  3  0  0  0  0  0  0
  -17.6250  -30.5590   23.9470 C   0  0  0  0  0  3  0  0  0  0  0  0
  -16.5590  -29.7370   23.5390 C   0  0  0  0  0  3  0  0  0  0  0  0
  -16.8210  -28.4560   23.0220 C   0  0  0  0  0  3  0  0  0  0  0  0
  -25.9570  -32.5850   23.8080 C   0  0  0  0  0  3  0  0  0  0  0  0
  -25.6350  -33.9800   24.1410 N   0  0  0  0  0  0  0  0  0  0  0  0
  -25.9240  -35.0330   23.3670 C   0  0  0  0  0  0  0  0  0  0  0  0
  -26.5650  -34.9360   22.3160 O   0  0  0  0  0  0  0  0  0  0  0  0
  -25.0570  -34.1270   24.9550 H   0  0  0  0  0  0  0  0  0  0  0  0
  -24.1490  -36.7890   23.0700 C   0  0  0  0  0  1  0  0  0  0  0  0
  -25.4290  -36.4140   23.8340 C   0  0  0  0  0  3  0  0  0  0  0  0
  -27.5720  -37.3500   24.5820 C   0  0  0  0  0  1  0  0  0  0  0  0
  -26.4350  -37.4860   23.6750 N   0  0  0  0  0  0  0  0  0  0  0  0
  -26.0150  -38.4000   23.8290 H   0  0  0  0  0  0  0  0  0  0  0  0
  -26.5070  -31.8220   25.0760 C   0  0  1  0  0  0  0  0  0  0  0  0
  -25.4280  -31.5500   26.1520 C   0  0  0  0  0  1  0  0  0  0  0  0
  -27.1280  -30.4640   24.6760 C   0  0  0  0  0  1  0  0  0  0  0  0
  -27.6360  -32.6490   25.7360 C   0  0  0  0  0  1  0  0  0  0  0  0
  1  4  1  0
  2  6  2  0
  2  3  1  0
  3  1  2  0
  4 53  1  0
  5 13  1  0
  5  4  2  0
  6  5  1  0
  8  9  1  0
  9  3  1  0
  9  7  1  0
 10 11  1  0
 11  6  1  0
 13 12  1  0
 13 14  1  0
 15 23  1  0
 16 21  1  0
 17 18  1  0
 17 16  1  0
 19 18  1  0
 19 28  1  0
 19 20  1  0
 21 15  1  0
 21 20  1  0
 22 15  2  0
 23 24  1  0
 23 14  1  0
 25 26  2  0
 26 45  1  0
 27 26  1  0
 27 30  1  0
 28 29  1  0
 28 25  1  0
 29 27  2  0
 30 31  1  0
 31 32  2  0
 33 36  1  0
 33 32  1  0
 34 33  2  0
 35 34  1  0
 35 30  2  0
 36 37  1  0
 37 38  1  0
 38 39  2  0
 40 39  1  0
 40 44  1  0
 41 40  2  0
 42 37  2  0
 42 41  1  0
 43 42  1  0
 45 46  1  0
 46 49  1  0
 46 48  1  0
 47 45  2  0
 50 51  1  0
 50 25  1  0
 52 50  1  0
 54 56  1  0
 54 53  1  0
 56 55  1  0
 57 58  1  0
 57 56  1  0
 59 70  2  0
 60 58  1  0
 60 65  1  0
 61 69  1  0
 61 71  1  0
 62 68  1  0
 62 64  1  0
 63 69  1  0
 64 65  2  0
 64 63  1  0
 66 60  2  0
 67 66  1  0
 67 62  2  0
 68 61  1  0
 69 59  1  0
 71 73  2  0
 72 71  1  0
 74 72  1  0
 75 84  2  0
 75 80  1  0
 76 72  1  0
 76 80  1  0
 77 76  1  0
 78 79  1  0
 78 77  1  0
 79 75  1  0
 80 81  2  0
 81 82  1  0
 83 82  2  0
 84 83  1  0
 85 59  1  0
 85 86  1  0
 85 95  1  0
 86 89  1  0
 87 91  1  0
 87 86  1  0
 88 87  2  0
 91 90  1  0
 93 94  1  0
 93 91  1  0
 93 92  1  0
 95 98  1  1
 95 96  1  0
 97 95  1  0
M  ISO  4  15 100  23 100  57 101  58 101
M  END
>  <TORSDO>  (60) 
F 24

>  <SCORE>  (60) 
-12.817

>  <name>  (60) 
60

>  <ligand_id>  (60) 
60

>  <original_smiles>  (60) 
[H]c1c([H])c([H])c2c(c1[H])C([H])([H])C([H])([H])C([H])([H])C2([H])N([H])C(=O)C1([H])N(C(=O)C([H])(N([H])C(=O)C([H])(N([H])C([H])([H])[H])C([H])([H])[H])C(C([H])([H])[H])(C([H])([H])[H])C([H])([H])[H])C([H])([H])c2c([H])c(OC([H])([H])C([H])(C([H])([H])[H])C([H])([H])C([H])([H])c3c([H])c(C([H])(C([H])([H])[H])C([H])([H])[H])c([H])c(OC([H])([H])[H])c3C([H])(C([H])([H])[H])C([H])([H])N([H])C(=O)N3C([H])([H])C([H])([H])C([H])([H])C([H])(n4nc(-c5c([H])c([H])c(Oc6c([H])c([H])c(F)c([H])c6F)c([H])c5[H])c(C(=O)N([H])[H])c4N([H])[H])C3([H])[H])c([H])c([H])c2C1([H])[H]

>  <smiles>  (60) 
[H]c1c([H])c([H])c2c(c1[H])C([H])([H])C([H])([H])C([H])([H])C2([H])N([H])C(=O)C1([H])N(C(=O)C([H])(N([H])C(=O)C([H])(N([H])C([H])([H])[H])C([H])([H])[H])C(C([H])([H])[H])(C([H])([H])[H])C([H])([H])[H])C([H])([H])c2c([H])c(OC([H])([H])C([H])(C([H])([H])[H])C([H])([H])C([H])([H])c3c([H])c(C([H])(C([H])([H])[H])C([H])([H])[H])c([H])c(OC([H])([H])[H])c3C([H])(C([H])([H])[H])C([H])([H])N([H])C(=O)N3C([H])([H])C([H])([H])C([H])([H])C([H])(n4nc(-c5c([H])c([H])c(Oc6c([H])c([H])c(F)c([H])c6F)c([H])c5[H])c(C(=O)N([H])[H])c4N([H])[H])C3([H])[H])c([H])c([H])c2C1([H])[H]

$$$$
61:0:0
     RDKit          3D

 95103  0  0  1  0  0  0  0  0999 V2000
  -30.1440  -24.2090   19.0560 C   0  0  0  0  0  3  0  0  0  0  0  0
  -29.2670  -22.4700   20.4780 C   0  0  0  0  0  3  0  0  0  0  0  0
  -29.2400  -23.8570   20.0540 C   0  0  0  0  0  0  0  0  0  0  0  0
  -31.0590  -23.2830   18.5230 C   0  0  0  0  0  0  0  0  0  0  0  0
  -30.2170  -21.4700   19.9990 C   0  0  0  0  0  0  0  0  0  0  0  0
  -31.1580  -21.9340   19.0040 C   0  0  0  0  0  0  0  0  0  0  0  0
  -31.9560  -23.8360   17.4210 C   0  0  0  0  0  1  0  0  0  0  0  0
  -32.0230  -19.7600   17.8100 C   0  0  0  0  0  1  0  0  0  0  0  0
  -33.5340  -21.0030   19.4520 C   0  0  0  0  0  1  0  0  0  0  0  0
  -32.3540  -21.0990   18.4670 C   0  0  0  0  0  3  0  0  0  0  0  0
  -30.0780  -20.1590   22.2280 C   0  0  0  0  0  1  0  0  0  0  0  0
  -30.3740  -20.0380   20.7190 C   0  0  0  0  0  3  0  0  0  0  0  0
  -28.3190  -18.4430   20.3490 C   0  0  0  0  0  1  0  0  0  0  0  0
  -29.8310  -18.6170   20.1350 C   0  0  0  0  0  3  0  0  0  0  0  0
  -30.6280  -17.3050   20.6680 C   0  0  0  0  0  2  0  0  0  0  0  0
  -30.8850  -14.7660   20.1080 C   0  0  0  0  0  0  0  0  0  0  0  0
  -30.6070  -12.5200   19.0640 C   0  0  0  0  0  2  0  0  0  0  0  0
  -29.6310  -12.6370   17.8750 C   0  0  0  0  0  2  0  0  0  0  0  0
  -28.1700  -12.4940   18.3500 C   0  0  0  0  0  2  0  0  0  0  0  0
  -27.8580  -13.3680   19.5960 C   0  0  0  0  0  3  0  0  0  0  0  0
  -28.9490  -13.2300   20.6790 C   0  0  0  0  0  2  0  0  0  0  0  0
  -30.2310  -13.5610   20.0430 N   0  0  0  0  0  0  0  0  0  0  0  0
  -32.0600  -14.8600   19.7520 O   0  0  0  0  0  0  0  0  0  0  0  0
  -30.1410  -15.8890   20.4000 N   0  0  0  0  0  0  0  0  0  0  0  0
  -29.1660  -15.7170   20.5830 H   0  0  0  0  0  0  0  0  0  0  0  0
  -25.5050  -13.9920   20.4080 C   0  0  0  0  0  0  0  0  0  0  0  0
  -24.4400  -13.2330   20.8060 C   0  0  0  0  0  0  0  0  0  0  0  0
  -24.8770  -11.8750   20.7480 C   0  0  0  0  0  0  0  0  0  0  0  0
  -26.5260  -13.0980   20.1280 N   0  0  0  0  0  0  0  0  0  0  0  0
  -26.1560  -11.8190   20.3950 N   0  0  0  0  0  0  0  0  0  0  0  0
  -24.1370  -10.6230   20.9490 C   0  0  0  0  0  0  0  0  0  0  0  0
  -24.5590   -9.6610   21.8920 C   0  0  0  0  0  3  0  0  0  0  0  0
  -23.8210   -8.4730   22.0820 C   0  0  0  0  0  3  0  0  0  0  0  0
  -22.6470   -8.2390   21.3280 C   0  0  0  0  0  0  0  0  0  0  0  0
  -22.2420   -9.1890   20.3760 C   0  0  0  0  0  3  0  0  0  0  0  0
  -22.9800  -10.3690   20.1850 C   0  0  0  0  0  3  0  0  0  0  0  0
  -21.8790   -7.1030   21.4300 O   0  0  0  0  0  0  0  0  0  0  0  0
  -21.8010   -6.3870   22.5970 C   0  0  0  0  0  0  0  0  0  0  0  0
  -21.3160   -6.9600   23.7910 C   0  0  0  0  0  3  0  0  0  0  0  0
  -21.1890   -6.1700   24.9510 C   0  0  0  0  0  3  0  0  0  0  0  0
  -21.5350   -4.8050   24.9140 C   0  0  0  0  0  0  0  0  0  0  0  0
  -22.0090   -4.2300   23.7230 C   0  0  0  0  0  3  0  0  0  0  0  0
  -22.1400   -5.0190   22.5670 C   0  0  0  0  0  0  0  0  0  0  0  0
  -22.5810   -4.4560   21.4160 F   0  0  0  0  0  0  0  0  0  0  0  0
  -21.4030   -4.0420   26.0250 F   0  0  0  0  0  0  0  0  0  0  0  0
  -23.0610  -13.7310   21.1270 C   0  0  0  0  0  0  0  0  0  0  0  0
  -22.3470  -13.0370   22.0060 N   0  0  0  0  0  0  0  0  0  0  0  0
  -22.6260  -14.7710   20.6320 O   0  0  0  0  0  0  0  0  0  0  0  0
  -22.7130  -12.1960   22.4300 H   0  0  0  0  0  0  0  0  0  0  0  0
  -21.4190  -13.3490   22.2580 H   0  0  0  0  0  0  0  0  0  0  0  0
  -25.6840  -15.3610   20.2350 N   0  0  0  0  0  0  0  0  0  0  0  0
  -24.9250  -16.0190   20.3710 H   0  0  0  0  0  0  0  0  0  0  0  0
  -26.5140  -15.7880   19.8480 H   0  0  0  0  0  0  0  0  0  0  0  0
  -28.2590  -24.9800   20.5930 C   0  0  0  0  0  2  0  0  0  0  0  0
  -28.5230  -26.4360   20.3130 O   0  0  0  0  0  0  0  0  0  0  0  0
  -24.6530  -31.8580   23.2070 C   0  0  0  0  0  0  0  0  0  0  0  0
  -27.4170  -27.3120   20.2410 C   0  0  0  0  0  0  0  0  0  0  0  0
  -23.5240  -30.4470   21.5240 C   0  0  0  0  0  3  0  0  0  0  0  0
  -25.0430  -28.9200   20.1390 C   0  0  0  0  0  0  0  0  0  0  0  0
  -26.0650  -30.7930   21.4290 C   0  0  0  0  0  2  0  0  0  0  0  0
  -26.1860  -29.4160   20.7810 C   0  0  0  0  0  0  0  0  0  0  0  0
  -27.3780  -28.6240   20.8220 C   0  0  0  0  0  3  0  0  0  0  0  0
  -26.2570  -26.8890   19.5560 C   0  0  0  0  0  3  0  0  0  0  0  0
  -25.0830  -27.6650   19.5150 C   0  0  0  0  0  3  0  0  0  0  0  0
  -23.7920  -29.7770   20.1510 C   0  0  0  0  0  2  0  0  0  0  0  0
  -24.7640  -31.0490   22.1110 N   0  0  0  0  0  0  0  0  0  0  0  0
  -23.5490  -32.1200   23.7050 O   0  0  0  0  0  0  0  0  0  0  0  0
  -22.8430  -29.4200   22.4610 C   0  0  0  0  0  0  0  0  0  0  0  0
  -21.5200  -29.2420   22.3060 N   0  0  0  0  0  0  0  0  0  0  0  0
  -23.5050  -28.7860   23.2870 O   0  0  0  0  0  0  0  0  0  0  0  0
  -21.0430  -29.8060   21.6170 H   0  0  0  0  0  0  0  0  0  0  0  0
  -18.1350  -28.0400   22.7360 C   0  0  0  0  0  0  0  0  0  0  0  0
  -20.6890  -28.2930   23.0500 C   0  0  0  0  0  3  0  0  0  0  0  0
  -20.7990  -26.8710   22.4560 C   0  0  0  0  0  2  0  0  0  0  0  0
  -19.7150  -26.5630   21.4190 C   0  0  0  0  0  2  0  0  0  0  0  0
  -18.3230  -26.7000   22.0430 C   0  0  0  0  0  2  0  0  0  0  0  0
  -19.2470  -28.7940   23.1950 C   0  0  0  0  0  0  0  0  0  0  0  0
  -19.0200  -30.0480   23.8040 C   0  0  0  0  0  3  0  0  0  0  0  0
  -17.7130  -30.5470   23.9570 C   0  0  0  0  0  3  0  0  0  0  0  0
  -16.6140  -29.7890   23.5160 C   0  0  0  0  0  3  0  0  0  0  0  0
  -16.8260  -28.5360   22.9120 C   0  0  0  0  0  3  0  0  0  0  0  0
  -25.9070  -32.5060   23.8730 C   0  0  0  0  0  3  0  0  0  0  0  0
  -25.5760  -33.9070   24.1720 N   0  0  0  0  0  0  0  0  0  0  0  0
  -25.9400  -34.9540   23.4210 C   0  0  0  0  0  0  0  0  0  0  0  0
  -26.6580  -34.8430   22.4230 O   0  0  0  0  0  0  0  0  0  0  0  0
  -24.9400  -34.0670   24.9400 H   0  0  0  0  0  0  0  0  0  0  0  0
  -24.2310  -36.7440   22.9650 C   0  0  0  0  0  1  0  0  0  0  0  0
  -25.4280  -36.3440   23.8440 C   0  0  0  0  0  3  0  0  0  0  0  0
  -27.5080  -37.2440   24.7870 C   0  0  0  0  0  1  0  0  0  0  0  0
  -26.4630  -37.3990   23.7800 N   0  0  0  0  0  0  0  0  0  0  0  0
  -26.0470  -38.3190   23.8910 H   0  0  0  0  0  0  0  0  0  0  0  0
  -26.3760  -31.7560   25.1790 C   0  0  1  0  0  0  0  0  0  0  0  0
  -25.2390  -31.5230   26.2020 C   0  0  0  0  0  1  0  0  0  0  0  0
  -26.9880  -30.3790   24.8350 C   0  0  0  0  0  1  0  0  0  0  0  0
  -27.4880  -32.5700   25.8810 C   0  0  0  0  0  1  0  0  0  0  0  0
  1  3  1  0
  3  2  2  0
  3 54  1  0
  4  6  1  0
  4  1  2  0
  5  2  1  0
  5 12  1  0
  6  5  2  0
  7  4  1  0
  8 10  1  0
 10  6  1  0
 10  9  1  0
 12 11  1  0
 14 13  1  0
 14 15  1  0
 14 12  1  0
 16 24  1  0
 17 22  1  0
 18 19  1  0
 18 17  1  0
 20 19  1  0
 20 29  1  0
 20 21  1  0
 22 16  1  0
 22 21  1  0
 23 16  2  0
 24 25  1  0
 24 15  1  0
 26 27  2  0
 27 46  1  0
 28 27  1  0
 28 31  1  0
 29 30  1  0
 29 26  1  0
 30 28  2  0
 31 32  1  0
 32 33  2  0
 34 37  1  0
 34 33  1  0
 35 34  2  0
 36 35  1  0
 36 31  2  0
 37 38  1  0
 38 39  1  0
 39 40  2  0
 41 40  1  0
 41 45  1  0
 42 41  2  0
 43 38  2  0
 43 42  1  0
 44 43  1  0
 46 47  1  0
 47 50  1  0
 47 49  1  0
 48 46  2  0
 51 52  1  0
 51 26  1  0
 53 51  1  0
 55 54  1  0
 56 67  2  0
 57 55  1  0
 57 62  1  0
 58 66  1  0
 58 68  1  0
 59 65  1  0
 59 61  1  0
 60 66  1  0
 61 62  2  0
 61 60  1  0
 63 57  2  0
 64 63  1  0
 64 59  2  0
 65 58  1  0
 66 56  1  0
 68 70  2  0
 69 68  1  0
 71 69  1  0
 72 81  2  0
 72 77  1  0
 73 69  1  0
 73 77  1  0
 74 73  1  0
 75 76  1  0
 75 74  1  0
 76 72  1  0
 77 78  2  0
 78 79  1  0
 80 79  2  0
 81 80  1  0
 82 56  1  0
 82 83  1  0
 82 92  1  0
 83 86  1  0
 84 88  1  0
 84 83  1  0
 85 84  2  0
 88 87  1  0
 90 88  1  0
 90 91  1  0
 90 89  1  0
 92 95  1  1
 92 93  1  0
 94 92  1  0
M  ISO  4  16 100  24 100  54 101  55 101
M  END
>  <TORSDO>  (61) 
F 21

>  <SCORE>  (61) 
-13.199

>  <name>  (61) 
61

>  <ligand_id>  (61) 
61

>  <original_smiles>  (61) 
[H]c1c([H])c([H])c2c(c1[H])C([H])([H])C([H])([H])C([H])([H])C2([H])N([H])C(=O)C1([H])N(C(=O)C([H])(N([H])C(=O)C([H])(N([H])C([H])([H])[H])C([H])([H])[H])C(C([H])([H])[H])(C([H])([H])[H])C([H])([H])[H])C([H])([H])c2c([H])c(OC([H])([H])c3c([H])c(C([H])([H])[H])c(C([H])(C([H])([H])[H])C([H])([H])[H])c(C([H])(C([H])([H])[H])C([H])(C([H])([H])[H])C([H])([H])N([H])C(=O)N4C([H])([H])C([H])([H])C([H])([H])C([H])(n5nc(-c6c([H])c([H])c(Oc7c([H])c([H])c(F)c([H])c7F)c([H])c6[H])c(C(=O)N([H])[H])c5N([H])[H])C4([H])[H])c3[H])c([H])c([H])c2C1([H])[H]

>  <smiles>  (61) 
[H]c1c([H])c([H])c2c(c1[H])C([H])([H])C([H])([H])C([H])([H])C2([H])N([H])C(=O)C1([H])N(C(=O)C([H])(N([H])C(=O)C([H])(N([H])C([H])([H])[H])C([H])([H])[H])C(C([H])([H])[H])(C([H])([H])[H])C([H])([H])[H])C([H])([H])c2c([H])c(OC([H])([H])c3c([H])c(C([H])([H])[H])c(C([H])(C([H])([H])[H])C([H])([H])[H])c(C([H])(C([H])([H])[H])C([H])(C([H])([H])[H])C([H])([H])N([H])C(=O)N4C([H])([H])C([H])([H])C([H])([H])C([H])(n5nc(-c6c([H])c([H])c(Oc7c([H])c([H])c(F)c([H])c7F)c([H])c6[H])c(C(=O)N([H])[H])c5N([H])[H])C4([H])[H])c3[H])c([H])c([H])c2C1([H])[H]

$$$$
62:0:0
     RDKit          3D

 95103  0  0  1  0  0  0  0  0999 V2000
  -31.1010  -18.6640   21.8800 C   0  0  0  0  0  3  0  0  0  0  0  0
  -30.1370  -19.0910   20.9450 C   0  0  0  0  0  0  0  0  0  0  0  0
  -29.7280  -20.5800   20.9740 C   0  0  0  0  0  0  0  0  0  0  0  0
  -30.2490  -21.2530   22.1540 C   0  0  0  0  0  0  0  0  0  0  0  0
  -31.2190  -20.6400   22.9960 C   0  0  0  0  0  0  0  0  0  0  0  0
  -31.8310  -21.2720   24.2420 C   0  0  0  0  0  1  0  0  0  0  0  0
  -31.6700  -19.4040   22.8190 N   0  0  0  0  0  0  0  0  0  0  0  0
  -28.7610  -21.5340   19.9740 C   0  0  0  0  0  2  0  0  0  0  0  0
  -28.9140  -23.2160   19.5530 C   0  0  0  0  0  3  0  0  0  0  0  0
  -27.7540  -24.4290   19.2810 C   0  0  0  0  0  3  0  0  0  0  0  0
  -27.9880  -25.9840   19.1950 O   0  0  0  0  0  0  0  0  0  0  0  0
  -24.6920  -31.4220   22.9330 C   0  0  0  0  0  0  0  0  0  0  0  0
  -26.9390  -26.9910   19.2750 C   0  0  0  0  0  0  0  0  0  0  0  0
  -23.3470  -30.2630   21.2250 C   0  0  0  0  0  3  0  0  0  0  0  0
  -24.6590  -28.8040   19.5500 C   0  0  0  0  0  0  0  0  0  0  0  0
  -25.8930  -30.4610   20.9320 C   0  0  0  0  0  2  0  0  0  0  0  0
  -25.8840  -29.1470   20.1320 C   0  0  0  0  0  0  0  0  0  0  0  0
  -27.0220  -28.2640   19.9760 C   0  0  0  0  0  3  0  0  0  0  0  0
  -25.6870  -26.7520   18.6610 C   0  0  0  0  0  3  0  0  0  0  0  0
  -24.5760  -27.6260   18.7890 C   0  0  0  0  0  3  0  0  0  0  0  0
  -23.4620  -29.7260   19.7710 C   0  0  0  0  0  2  0  0  0  0  0  0
  -24.6680  -30.7270   21.7560 N   0  0  0  0  0  0  0  0  0  0  0  0
  -23.6500  -31.6790   23.5580 O   0  0  0  0  0  0  0  0  0  0  0  0
  -22.6790  -29.1830   22.1120 C   0  0  0  0  0  0  0  0  0  0  0  0
  -21.3390  -29.0790   22.0570 N   0  0  0  0  0  0  0  0  0  0  0  0
  -23.3700  -28.4360   22.8090 O   0  0  0  0  0  0  0  0  0  0  0  0
  -20.8340  -29.7230   21.4660 H   0  0  0  0  0  0  0  0  0  0  0  0
  -17.9540  -27.9270   22.6070 C   0  0  0  0  0  0  0  0  0  0  0  0
  -20.5270  -28.0920   22.7750 C   0  0  0  0  0  3  0  0  0  0  0  0
  -20.5620  -26.7210   22.0600 C   0  0  0  0  0  2  0  0  0  0  0  0
  -19.4070  -26.5300   21.0730 C   0  0  0  0  0  2  0  0  0  0  0  0
  -18.0590  -26.6490   21.7910 C   0  0  0  0  0  2  0  0  0  0  0  0
  -19.1130  -28.6140   23.0550 C   0  0  0  0  0  0  0  0  0  0  0  0
  -18.9590  -29.8170   23.7760 C   0  0  0  0  0  3  0  0  0  0  0  0
  -17.6790  -30.3330   24.0560 C   0  0  0  0  0  3  0  0  0  0  0  0
  -16.5350  -29.6380   23.6270 C   0  0  0  0  0  3  0  0  0  0  0  0
  -16.6730  -28.4390   22.9060 C   0  0  0  0  0  3  0  0  0  0  0  0
  -26.0240  -31.9510   23.5420 C   0  0  0  0  0  3  0  0  0  0  0  0
  -25.7460  -33.2450   24.1860 N   0  0  0  0  0  0  0  0  0  0  0  0
  -26.1070  -34.4400   23.7000 C   0  0  0  0  0  0  0  0  0  0  0  0
  -26.7740  -34.5660   22.6680 O   0  0  0  0  0  0  0  0  0  0  0  0
  -25.1590  -33.2170   25.0060 H   0  0  0  0  0  0  0  0  0  0  0  0
  -24.4640  -36.3480   23.7570 C   0  0  0  0  0  1  0  0  0  0  0  0
  -25.6580  -35.6960   24.4730 C   0  0  0  0  0  3  0  0  0  0  0  0
  -27.7920  -36.2590   25.5510 C   0  0  0  0  0  1  0  0  0  0  0  0
  -26.7310  -36.6980   24.6500 N   0  0  0  0  0  0  0  0  0  0  0  0
  -26.3520  -37.5700   25.0100 H   0  0  0  0  0  0  0  0  0  0  0  0
  -26.6680  -30.9480   24.5770 C   0  0  1  0  0  0  0  0  0  0  0  0
  -25.6930  -30.4740   25.6800 C   0  0  0  0  0  1  0  0  0  0  0  0
  -27.2060  -29.6890   23.8580 C   0  0  0  0  0  1  0  0  0  0  0  0
  -27.8750  -31.6180   25.2710 C   0  0  0  0  0  1  0  0  0  0  0  0
  -29.7030  -22.5820   22.6800 C   0  0  0  0  0  2  0  0  0  0  0  0
  -30.3140  -23.8500   22.0080 C   0  0  0  0  0  2  0  0  0  0  0  0
  -30.2050  -26.3190   21.6220 C   0  0  0  0  0  1  0  0  0  0  0  0
  -28.2510  -25.2100   22.8070 C   0  0  0  0  0  1  0  0  0  0  0  0
  -29.7720  -25.1870   22.5600 C   0  0  0  0  0  3  0  0  0  0  0  0
  -29.8080  -17.7490   20.0560 C   0  0  0  0  0  2  0  0  0  0  0  0
  -30.5990  -15.0230   20.4350 C   0  0  0  0  0  0  0  0  0  0  0  0
  -30.5690  -12.5760   19.7140 C   0  0  0  0  0  2  0  0  0  0  0  0
  -29.7130  -12.3680   18.4440 C   0  0  0  0  0  2  0  0  0  0  0  0
  -28.2340  -12.1640   18.8110 C   0  0  0  0  0  2  0  0  0  0  0  0
  -27.7430  -13.1700   19.8840 C   0  0  0  0  0  3  0  0  0  0  0  0
  -28.7400  -13.3410   21.0550 C   0  0  0  0  0  2  0  0  0  0  0  0
  -30.0270  -13.7430   20.4790 N   0  0  0  0  0  0  0  0  0  0  0  0
  -31.7930  -15.0770   20.1300 O   0  0  0  0  0  0  0  0  0  0  0  0
  -29.8020  -16.2140   20.5560 N   0  0  0  0  0  0  0  0  0  0  0  0
  -28.8830  -15.9700   20.8890 H   0  0  0  0  0  0  0  0  0  0  0  0
  -25.3340  -13.7520   20.5100 C   0  0  0  0  0  0  0  0  0  0  0  0
  -24.2590  -12.9920   20.8600 C   0  0  0  0  0  0  0  0  0  0  0  0
  -24.7200  -11.6380   20.8750 C   0  0  0  0  0  0  0  0  0  0  0  0
  -26.3870  -12.8710   20.3350 N   0  0  0  0  0  0  0  0  0  0  0  0
  -26.0240  -11.5930   20.6170 N   0  0  0  0  0  0  0  0  0  0  0  0
  -23.9790  -10.3860   21.0650 C   0  0  0  0  0  0  0  0  0  0  0  0
  -24.3920   -9.4290   22.0170 C   0  0  0  0  0  3  0  0  0  0  0  0
  -23.6600   -8.2360   22.1980 C   0  0  0  0  0  3  0  0  0  0  0  0
  -22.4920   -7.9960   21.4340 C   0  0  0  0  0  0  0  0  0  0  0  0
  -22.0990   -8.9420   20.4700 C   0  0  0  0  0  3  0  0  0  0  0  0
  -22.8320  -10.1270   20.2860 C   0  0  0  0  0  3  0  0  0  0  0  0
  -21.7280   -6.8580   21.5280 O   0  0  0  0  0  0  0  0  0  0  0  0
  -21.6710   -6.1200   22.6830 C   0  0  0  0  0  0  0  0  0  0  0  0
  -21.2450   -6.6780   23.9090 C   0  0  0  0  0  3  0  0  0  0  0  0
  -21.1430   -5.8640   25.0570 C   0  0  0  0  0  3  0  0  0  0  0  0
  -21.4430   -4.4910   24.9740 C   0  0  0  0  0  0  0  0  0  0  0  0
  -21.8520   -3.9310   23.7520 C   0  0  0  0  0  3  0  0  0  0  0  0
  -21.9630   -4.7430   22.6100 C   0  0  0  0  0  0  0  0  0  0  0  0
  -22.3420   -4.1930   21.4300 F   0  0  0  0  0  0  0  0  0  0  0  0
  -21.3320   -3.7060   26.0720 F   0  0  0  0  0  0  0  0  0  0  0  0
  -22.8510  -13.4740   21.0630 C   0  0  0  0  0  0  0  0  0  0  0  0
  -22.0950  -12.8080   21.9240 N   0  0  0  0  0  0  0  0  0  0  0  0
  -22.4320  -14.4810   20.4880 O   0  0  0  0  0  0  0  0  0  0  0  0
  -22.4430  -11.9980   22.4130 H   0  0  0  0  0  0  0  0  0  0  0  0
  -21.1470  -13.1110   22.0910 H   0  0  0  0  0  0  0  0  0  0  0  0
  -25.5060  -15.1190   20.2970 N   0  0  0  0  0  0  0  0  0  0  0  0
  -24.7120  -15.7520   20.3010 H   0  0  0  0  0  0  0  0  0  0  0  0
  -26.3420  -15.5410   19.9140 H   0  0  0  0  0  0  0  0  0  0  0  0
  1  7  1  0
  2  3  1  0
  2  1  2  0
  3  4  2  0
  4 52  1  0
  4  5  1  0
  5  6  1  0
  7  5  2  0
  8  3  1  0
  9  8  1  0
 10  9  2  0
 11 13  1  0
 11 10  1  0
 12 23  2  0
 13 18  1  0
 14 22  1  0
 14 24  1  0
 15 21  1  0
 15 17  1  0
 16 22  1  0
 17 16  1  0
 18 17  2  0
 19 20  1  0
 19 13  2  0
 20 15  2  0
 21 14  1  0
 22 12  1  0
 24 26  2  0
 25 24  1  0
 27 25  1  0
 28 37  2  0
 28 33  1  0
 29 25  1  0
 29 33  1  0
 30 29  1  0
 31 32  1  0
 31 30  1  0
 32 28  1  0
 33 34  2  0
 34 35  1  0
 36 35  2  0
 37 36  1  0
 38 12  1  0
 38 39  1  0
 38 48  1  0
 39 42  1  0
 40 39  1  0
 40 44  1  0
 41 40  2  0
 44 43  1  0
 44 46  1  0
 46 47  1  0
 46 45  1  0
 48 51  1  1
 48 49  1  0
 50 48  1  0
 53 56  1  0
 53 52  1  0
 54 56  1  0
 56 55  1  0
 57 66  1  0
 57  2  1  0
 58 64  1  0
 58 66  1  0
 59 64  1  0
 60 61  1  0
 60 59  1  0
 62 61  1  0
 62 71  1  0
 62 63  1  0
 64 63  1  0
 65 58  2  0
 66 67  1  0
 68 69  2  0
 69 70  1  0
 69 88  1  0
 70 73  1  0
 71 68  1  0
 71 72  1  0
 72 70  2  0
 73 74  1  0
 74 75  2  0
 76 79  1  0
 76 75  1  0
 77 76  2  0
 78 77  1  0
 78 73  2  0
 79 80  1  0
 80 81  1  0
 81 82  2  0
 83 82  1  0
 83 87  1  0
 84 83  2  0
 85 80  2  0
 85 84  1  0
 86 85  1  0
 88 89  1  0
 89 92  1  0
 89 91  1  0
 90 88  2  0
 93 94  1  0
 93 68  1  0
 95 93  1  0
M  ISO  4  10 101  11 101  58 100  66 100
M  END
>  <TORSDO>  (62) 
F 23

>  <SCORE>  (62) 
-13.245

>  <name>  (62) 
62

>  <ligand_id>  (62) 
62

>  <original_smiles>  (62) 
[H]c1nc(C([H])([H])[H])c(C([H])([H])C([H])([H])C([H])(C([H])([H])[H])C([H])([H])[H])c(C([H])([H])C([H])([H])C([H])([H])Oc2c([H])c([H])c3c(c2[H])C([H])([H])N(C(=O)C([H])(N([H])C(=O)C([H])(N([H])C([H])([H])[H])C([H])([H])[H])C(C([H])([H])[H])(C([H])([H])[H])C([H])([H])[H])C([H])(C(=O)N([H])C2([H])c4c([H])c([H])c([H])c([H])c4C([H])([H])C([H])([H])C2([H])[H])C3([H])[H])c1C([H])([H])N([H])C(=O)N1C([H])([H])C([H])([H])C([H])([H])C([H])(n2nc(-c3c([H])c([H])c(Oc4c([H])c([H])c(F)c([H])c4F)c([H])c3[H])c(C(=O)N([H])[H])c2N([H])[H])C1([H])[H]

>  <smiles>  (62) 
[H]c1nc(C([H])([H])[H])c(C([H])([H])C([H])([H])C([H])(C([H])([H])[H])C([H])([H])[H])c(C([H])([H])C([H])([H])C([H])([H])Oc2c([H])c([H])c3c(c2[H])C([H])([H])N(C(=O)C([H])(N([H])C(=O)C([H])(N([H])C([H])([H])[H])C([H])([H])[H])C(C([H])([H])[H])(C([H])([H])[H])C([H])([H])[H])C([H])(C(=O)N([H])C2([H])c4c([H])c([H])c([H])c([H])c4C([H])([H])C([H])([H])C2([H])[H])C3([H])[H])c1C([H])([H])N([H])C(=O)N1C([H])([H])C([H])([H])C([H])([H])C([H])(n2nc(-c3c([H])c([H])c(Oc4c([H])c([H])c(F)c([H])c4F)c([H])c3[H])c(C(=O)N([H])[H])c2N([H])[H])C1([H])[H]

$$$$
63:0:0
     RDKit          3D

 94102  0  0  1  0  0  0  0  0999 V2000
  -29.7580  -21.1610   20.3280 C   0  0  0  0  0  3  0  0  0  0  0  0
  -28.2370  -19.6120   19.2360 C   0  0  0  0  0  3  0  0  0  0  0  0
  -27.7350  -22.0080   19.2820 C   0  0  0  0  0  3  0  0  0  0  0  0
  -29.4370  -19.7960   19.9480 C   0  0  0  0  0  0  0  0  0  0  0  0
  -28.9160  -22.3030   20.0040 C   0  0  0  0  0  0  0  0  0  0  0  0
  -27.3890  -20.6880   18.8830 C   0  0  0  0  0  0  0  0  0  0  0  0
  -25.2160  -19.4010   18.7760 C   0  0  0  0  0  1  0  0  0  0  0  0
  -26.5590  -19.7560   16.6860 C   0  0  0  0  0  1  0  0  0  0  0  0
  -25.3090  -21.6510   17.6990 C   0  0  0  0  0  1  0  0  0  0  0  0
  -26.1360  -20.3890   18.0300 C   0  0  2  0  0  0  0  0  0  0  0  0
  -30.5990  -24.2270   19.7400 C   0  0  0  0  0  1  0  0  0  0  0  0
  -29.2530  -23.8300   20.3620 C   0  0  0  0  0  3  0  0  0  0  0  0
  -28.1640  -24.9870   20.0310 C   0  0  0  0  0  2  0  0  0  0  0  0
  -28.3790  -26.4500   20.3220 O   0  0  0  0  0  0  0  0  0  0  0  0
  -24.6150  -31.9170   23.2940 C   0  0  0  0  0  0  0  0  0  0  0  0
  -27.2710  -27.3320   20.2570 C   0  0  0  0  0  0  0  0  0  0  0  0
  -23.4370  -30.5180   21.6380 C   0  0  0  0  0  3  0  0  0  0  0  0
  -24.9070  -28.9710   20.2250 C   0  0  0  0  0  0  0  0  0  0  0  0
  -25.9830  -30.8280   21.4920 C   0  0  0  0  0  2  0  0  0  0  0  0
  -26.0710  -29.4490   20.8390 C   0  0  0  0  0  0  0  0  0  0  0  0
  -27.2550  -28.6420   20.8460 C   0  0  0  0  0  3  0  0  0  0  0  0
  -26.0780  -26.9220   19.6160 C   0  0  0  0  0  3  0  0  0  0  0  0
  -24.9150  -27.7130   19.6050 C   0  0  0  0  0  3  0  0  0  0  0  0
  -23.6700  -29.8450   20.2610 C   0  0  0  0  0  2  0  0  0  0  0  0
  -24.6970  -31.1050   22.1970 N   0  0  0  0  0  0  0  0  0  0  0  0
  -23.5240  -32.1930   23.8130 O   0  0  0  0  0  0  0  0  0  0  0  0
  -22.7600  -29.5000   22.5890 C   0  0  0  0  0  0  0  0  0  0  0  0
  -21.4350  -29.3220   22.4460 N   0  0  0  0  0  0  0  0  0  0  0  0
  -23.4280  -28.8740   23.4150 O   0  0  0  0  0  0  0  0  0  0  0  0
  -20.9550  -29.8780   21.7510 H   0  0  0  0  0  0  0  0  0  0  0  0
  -18.0480  -28.1370   22.9230 C   0  0  0  0  0  0  0  0  0  0  0  0
  -20.6070  -28.3850   23.2060 C   0  0  0  0  0  3  0  0  0  0  0  0
  -20.7050  -26.9570   22.6190 C   0  0  0  0  0  2  0  0  0  0  0  0
  -19.6060  -26.6480   21.5990 C   0  0  0  0  0  2  0  0  0  0  0  0
  -18.2220  -26.7940   22.2360 C   0  0  0  0  0  2  0  0  0  0  0  0
  -19.1690  -28.8910   23.3640 C   0  0  0  0  0  0  0  0  0  0  0  0
  -18.9510  -30.1500   23.9660 C   0  0  0  0  0  3  0  0  0  0  0  0
  -17.6480  -30.6560   24.1310 C   0  0  0  0  0  3  0  0  0  0  0  0
  -16.5420  -29.8980   23.7050 C   0  0  0  0  0  3  0  0  0  0  0  0
  -16.7440  -28.6410   23.1070 C   0  0  0  0  0  3  0  0  0  0  0  0
  -25.8870  -32.5520   23.9350 C   0  0  0  0  0  3  0  0  0  0  0  0
  -25.5810  -33.9570   24.2380 N   0  0  0  0  0  0  0  0  0  0  0  0
  -25.9300  -34.9960   23.4670 C   0  0  0  0  0  0  0  0  0  0  0  0
  -26.6140  -34.8710   22.4480 O   0  0  0  0  0  0  0  0  0  0  0  0
  -24.9750  -34.1290   25.0260 H   0  0  0  0  0  0  0  0  0  0  0  0
  -24.2240  -36.7990   23.0530 C   0  0  0  0  0  1  0  0  0  0  0  0
  -25.4440  -36.3940   23.8960 C   0  0  0  0  0  3  0  0  0  0  0  0
  -27.5640  -37.2780   24.7660 C   0  0  0  0  0  1  0  0  0  0  0  0
  -26.4870  -37.4380   23.7910 N   0  0  0  0  0  0  0  0  0  0  0  0
  -26.0830  -38.3620   23.9150 H   0  0  0  0  0  0  0  0  0  0  0  0
  -26.3690  -31.7970   25.2340 C   0  0  1  0  0  0  0  0  0  0  0  0
  -25.2490  -31.5780   26.2790 C   0  0  0  0  0  1  0  0  0  0  0  0
  -26.9540  -30.4100   24.8800 C   0  0  0  0  0  1  0  0  0  0  0  0
  -27.5060  -32.5960   25.9120 C   0  0  0  0  0  1  0  0  0  0  0  0
  -30.3730  -18.5190   20.0800 C   0  0  0  0  0  2  0  0  0  0  0  0
  -30.0570  -17.3290   21.1120 C   0  0  0  0  0  2  0  0  0  0  0  0
  -30.6820  -14.8090   20.4310 C   0  0  0  0  0  0  0  0  0  0  0  0
  -30.5030  -12.5590   19.3590 C   0  0  0  0  0  2  0  0  0  0  0  0
  -29.5480  -12.6540   18.1490 C   0  0  0  0  0  2  0  0  0  0  0  0
  -28.0810  -12.4730   18.5870 C   0  0  0  0  0  2  0  0  0  0  0  0
  -27.7150  -13.3350   19.8250 C   0  0  0  0  0  3  0  0  0  0  0  0
  -28.7850  -13.2080   20.9310 C   0  0  0  0  0  2  0  0  0  0  0  0
  -30.0760  -13.5800   20.3350 N   0  0  0  0  0  0  0  0  0  0  0  0
  -31.8680  -14.9600   20.1290 O   0  0  0  0  0  0  0  0  0  0  0  0
  -29.8540  -15.8780   20.6910 N   0  0  0  0  0  0  0  0  0  0  0  0
  -28.8960  -15.5780   20.8000 H   0  0  0  0  0  0  0  0  0  0  0  0
  -25.3270  -13.9170   20.5690 C   0  0  0  0  0  0  0  0  0  0  0  0
  -24.2650  -13.1370   20.9350 C   0  0  0  0  0  0  0  0  0  0  0  0
  -24.7290  -11.7870   20.8840 C   0  0  0  0  0  0  0  0  0  0  0  0
  -26.3720  -13.0410   20.3170 N   0  0  0  0  0  0  0  0  0  0  0  0
  -26.0190  -11.7540   20.5680 N   0  0  0  0  0  0  0  0  0  0  0  0
  -24.0050  -10.5230   21.0590 C   0  0  0  0  0  0  0  0  0  0  0  0
  -24.4230   -9.5560   22.0000 C   0  0  0  0  0  3  0  0  0  0  0  0
  -23.6990   -8.3550   22.1640 C   0  0  0  0  0  3  0  0  0  0  0  0
  -22.5420   -8.1130   21.3860 C   0  0  0  0  0  0  0  0  0  0  0  0
  -22.1420   -9.0690   20.4340 C   0  0  0  0  0  3  0  0  0  0  0  0
  -22.8670  -10.2600   20.2700 C   0  0  0  0  0  3  0  0  0  0  0  0
  -21.7910   -6.9630   21.4570 O   0  0  0  0  0  0  0  0  0  0  0  0
  -21.6980   -6.2360   22.6160 C   0  0  0  0  0  0  0  0  0  0  0  0
  -21.1950   -6.7970   23.8100 C   0  0  0  0  0  3  0  0  0  0  0  0
  -21.0520   -5.9940   24.9590 C   0  0  0  0  0  3  0  0  0  0  0  0
  -21.4010   -4.6320   24.9160 C   0  0  0  0  0  0  0  0  0  0  0  0
  -21.8940   -4.0690   23.7260 C   0  0  0  0  0  3  0  0  0  0  0  0
  -22.0400   -4.8700   22.5780 C   0  0  0  0  0  0  0  0  0  0  0  0
  -22.4960   -4.3170   21.4290 F   0  0  0  0  0  0  0  0  0  0  0  0
  -21.2560   -3.8580   26.0180 F   0  0  0  0  0  0  0  0  0  0  0  0
  -22.8680  -13.6090   21.2170 C   0  0  0  0  0  0  0  0  0  0  0  0
  -22.1410  -12.8930   22.0700 N   0  0  0  0  0  0  0  0  0  0  0  0
  -22.4290  -14.6450   20.7220 O   0  0  0  0  0  0  0  0  0  0  0  0
  -22.5100  -12.0530   22.4900 H   0  0  0  0  0  0  0  0  0  0  0  0
  -21.2040  -13.1890   22.3020 H   0  0  0  0  0  0  0  0  0  0  0  0
  -25.4850  -15.2900   20.4030 N   0  0  0  0  0  0  0  0  0  0  0  0
  -24.7050  -15.9290   20.5080 H   0  0  0  0  0  0  0  0  0  0  0  0
  -26.3070  -15.7330   20.0120 H   0  0  0  0  0  0  0  0  0  0  0  0
  2  4  1  0
  3  5  2  0
  4 55  1  0
  4  1  2  0
  5  1  1  0
  5 12  1  0
  6  2  2  0
  6  3  1  0
 10  8  1  6
  9 10  1  0
 10  7  1  0
 10  6  1  0
 12 11  1  0
 13 14  1  0
 13 12  1  0
 15 26  2  0
 16 14  1  0
 16 21  1  0
 17 25  1  0
 17 27  1  0
 18 24  1  0
 18 20  1  0
 19 25  1  0
 20 21  2  0
 20 19  1  0
 22 16  2  0
 23 22  1  0
 23 18  2  0
 24 17  1  0
 25 15  1  0
 27 29  2  0
 28 27  1  0
 30 28  1  0
 31 40  2  0
 31 36  1  0
 32 28  1  0
 32 36  1  0
 33 32  1  0
 34 35  1  0
 34 33  1  0
 35 31  1  0
 36 37  2  0
 37 38  1  0
 39 38  2  0
 40 39  1  0
 41 15  1  0
 41 42  1  0
 41 51  1  0
 42 45  1  0
 43 47  1  0
 43 42  1  0
 44 43  2  0
 47 46  1  0
 49 47  1  0
 49 50  1  0
 49 48  1  0
 51 54  1  1
 51 52  1  0
 53 51  1  0
 55 56  1  0
 57 65  1  0
 58 63  1  0
 59 60  1  0
 59 58  1  0
 61 60  1  0
 61 70  1  0
 61 62  1  0
 63 57  1  0
 63 62  1  0
 64 57  2  0
 65 66  1  0
 65 56  1  0
 67 68  2  0
 68 87  1  0
 69 68  1  0
 69 72  1  0
 70 71  1  0
 70 67  1  0
 71 69  2  0
 72 73  1  0
 73 74  2  0
 75 78  1  0
 75 74  1  0
 76 75  2  0
 77 76  1  0
 77 72  2  0
 78 79  1  0
 79 80  1  0
 80 81  2  0
 82 81  1  0
 82 86  1  0
 83 82  2  0
 84 79  2  0
 84 83  1  0
 85 84  1  0
 87 88  1  0
 88 91  1  0
 88 90  1  0
 89 87  2  0
 92 93  1  0
 92 67  1  0
 94 92  1  0
M  ISO  4  13 101  14 101  57 100  65 100
M  END
>  <TORSDO>  (63) 
F 21

>  <SCORE>  (63) 
-12.965

>  <name>  (63) 
63

>  <ligand_id>  (63) 
63

>  <original_smiles>  (63) 
[H]c1c([H])c([H])c2c(c1[H])C([H])([H])C([H])([H])C([H])([H])C2([H])N([H])C(=O)C1([H])N(C(=O)C([H])(N([H])C(=O)C([H])(N([H])C([H])([H])[H])C([H])([H])[H])C(C([H])([H])[H])(C([H])([H])[H])C([H])([H])[H])C([H])([H])c2c([H])c(OC([H])([H])C([H])(c3c([H])c(C([H])([H])C([H])([H])N([H])C(=O)N4C([H])([H])C([H])([H])C([H])([H])C([H])(n5nc(-c6c([H])c([H])c(Oc7c([H])c([H])c(F)c([H])c7F)c([H])c6[H])c(C(=O)N([H])[H])c5N([H])[H])C4([H])[H])c([H])c(C(C([H])([H])[H])(C([H])([H])[H])C([H])([H])[H])c3[H])C([H])([H])[H])c([H])c([H])c2C1([H])[H]

>  <smiles>  (63) 
[H]c1c([H])c([H])c2c(c1[H])C([H])([H])C([H])([H])C([H])([H])C2([H])N([H])C(=O)C1([H])N(C(=O)C([H])(N([H])C(=O)C([H])(N([H])C([H])([H])[H])C([H])([H])[H])C(C([H])([H])[H])(C([H])([H])[H])C([H])([H])[H])C([H])([H])c2c([H])c(OC([H])([H])C([H])(c3c([H])c(C([H])([H])C([H])([H])N([H])C(=O)N4C([H])([H])C([H])([H])C([H])([H])C([H])(n5nc(-c6c([H])c([H])c(Oc7c([H])c([H])c(F)c([H])c7F)c([H])c6[H])c(C(=O)N([H])[H])c5N([H])[H])C4([H])[H])c([H])c(C(C([H])([H])[H])(C([H])([H])[H])C([H])([H])[H])c3[H])C([H])([H])[H])c([H])c([H])c2C1([H])[H]

$$$$
64:0:0
     RDKit          3D

 92100  0  0  1  0  0  0  0  0999 V2000
  -30.7280  -20.0240   20.7990 C   0  0  0  0  0  3  0  0  0  0  0  0
  -28.5720  -19.6350   19.9980 C   0  0  0  0  0  3  0  0  0  0  0  0
  -29.8120  -19.0190   20.3720 C   0  0  0  0  0  0  0  0  0  0  0  0
  -30.4630  -21.4460   20.7890 C   0  0  0  0  0  0  0  0  0  0  0  0
  -29.2130  -21.9790   20.3030 C   0  0  0  0  0  0  0  0  0  0  0  0
  -28.2920  -21.0030   19.9750 N   0  0  0  0  0  0  0  0  0  0  0  0
  -32.6740  -22.5090   20.1550 C   0  0  0  0  0  1  0  0  0  0  0  0
  -32.2480  -21.8950   22.5720 C   0  0  0  0  0  1  0  0  0  0  0  0
  -31.6020  -22.3640   21.2500 C   0  0  0  0  0  3  0  0  0  0  0  0
  -28.4560  -23.5530   18.3870 C   0  0  0  0  0  1  0  0  0  0  0  0
  -28.9660  -23.5540   19.8370 C   0  0  0  0  0  3  0  0  0  0  0  0
  -28.1560  -24.7810   20.6110 C   0  0  0  0  0  2  0  0  0  0  0  0
  -28.3180  -26.2650   20.2140 O   0  0  0  0  0  0  0  0  0  0  0  0
  -24.6340  -31.8480   23.1940 C   0  0  0  0  0  0  0  0  0  0  0  0
  -27.2290  -27.1890   20.1820 C   0  0  0  0  0  0  0  0  0  0  0  0
  -23.4370  -30.4660   21.5340 C   0  0  0  0  0  3  0  0  0  0  0  0
  -24.8930  -28.8940   20.1180 C   0  0  0  0  0  0  0  0  0  0  0  0
  -25.9850  -30.7460   21.3780 C   0  0  0  0  0  2  0  0  0  0  0  0
  -26.0650  -29.3570   20.7300 C   0  0  0  0  0  0  0  0  0  0  0  0
  -27.2350  -28.5210   20.7430 C   0  0  0  0  0  3  0  0  0  0  0  0
  -26.0350  -26.8080   19.5340 C   0  0  0  0  0  3  0  0  0  0  0  0
  -24.8860  -27.6280   19.5080 C   0  0  0  0  0  3  0  0  0  0  0  0
  -23.6640  -29.7870   20.1550 C   0  0  0  0  0  2  0  0  0  0  0  0
  -24.7040  -31.0400   22.0920 N   0  0  0  0  0  0  0  0  0  0  0  0
  -23.5470  -32.1280   23.7200 O   0  0  0  0  0  0  0  0  0  0  0  0
  -22.7520  -29.4560   22.4880 C   0  0  0  0  0  0  0  0  0  0  0  0
  -21.4210  -29.3040   22.3630 N   0  0  0  0  0  0  0  0  0  0  0  0
  -23.4200  -28.8110   23.2990 O   0  0  0  0  0  0  0  0  0  0  0  0
  -20.9370  -29.8780   21.6870 H   0  0  0  0  0  0  0  0  0  0  0  0
  -18.0290  -28.1370   22.8480 C   0  0  0  0  0  0  0  0  0  0  0  0
  -20.5900  -28.3680   23.1250 C   0  0  0  0  0  3  0  0  0  0  0  0
  -20.6780  -26.9380   22.5410 C   0  0  0  0  0  2  0  0  0  0  0  0
  -19.5770  -26.6360   21.5200 C   0  0  0  0  0  2  0  0  0  0  0  0
  -18.1950  -26.7910   22.1600 C   0  0  0  0  0  2  0  0  0  0  0  0
  -19.1550  -28.8840   23.2870 C   0  0  0  0  0  0  0  0  0  0  0  0
  -18.9470  -30.1440   23.8890 C   0  0  0  0  0  3  0  0  0  0  0  0
  -17.6470  -30.6580   24.0550 C   0  0  0  0  0  3  0  0  0  0  0  0
  -16.5360  -29.9070   23.6320 C   0  0  0  0  0  3  0  0  0  0  0  0
  -16.7280  -28.6480   23.0360 C   0  0  0  0  0  3  0  0  0  0  0  0
  -25.9140  -32.4720   23.8290 C   0  0  0  0  0  3  0  0  0  0  0  0
  -26.4470  -31.6560   25.0700 C   0  0  1  0  0  0  0  0  0  0  0  0
  -25.3680  -31.3730   26.1410 C   0  0  0  0  0  1  0  0  0  0  0  0
  -27.0350  -30.2990   24.6210 C   0  0  0  0  0  1  0  0  0  0  0  0
  -27.6030  -32.4280   25.7470 C   0  0  0  0  0  1  0  0  0  0  0  0
  -25.5890  -33.8510   24.2220 N   0  0  0  0  0  0  0  0  0  0  0  0
  -25.9050  -34.9420   23.5100 C   0  0  0  0  0  0  0  0  0  0  0  0
  -26.5630  -34.8920   22.4670 O   0  0  0  0  0  0  0  0  0  0  0  0
  -24.9990  -33.9610   25.0320 H   0  0  0  0  0  0  0  0  0  0  0  0
  -24.1480  -36.7270   23.2650 C   0  0  0  0  0  1  0  0  0  0  0  0
  -25.4100  -36.3050   24.0340 C   0  0  0  0  0  3  0  0  0  0  0  0
  -27.5580  -37.1780   24.8450 C   0  0  0  0  0  1  0  0  0  0  0  0
  -26.4280  -37.3760   23.9430 N   0  0  0  0  0  0  0  0  0  0  0  0
  -26.0140  -38.2830   24.1440 H   0  0  0  0  0  0  0  0  0  0  0  0
  -30.3450  -17.4870   20.0750 C   0  0  0  0  0  2  0  0  0  0  0  0
  -30.5960  -14.8650   20.4160 C   0  0  0  0  0  0  0  0  0  0  0  0
  -30.4300  -12.5330   19.4900 C   0  0  0  0  0  2  0  0  0  0  0  0
  -29.5090  -12.5150   18.2510 C   0  0  0  0  0  2  0  0  0  0  0  0
  -28.0360  -12.3360   18.6640 C   0  0  0  0  0  2  0  0  0  0  0  0
  -27.6350  -13.2470   19.8530 C   0  0  0  0  0  3  0  0  0  0  0  0
  -28.6840  -13.2490   20.9860 C   0  0  0  0  0  2  0  0  0  0  0  0
  -29.9660  -13.6290   20.3850 N   0  0  0  0  0  0  0  0  0  0  0  0
  -31.7900  -14.9050   20.1110 O   0  0  0  0  0  0  0  0  0  0  0  0
  -29.8690  -16.0730   20.5380 N   0  0  0  0  0  0  0  0  0  0  0  0
  -28.8920  -15.9740   20.7660 H   0  0  0  0  0  0  0  0  0  0  0  0
  -25.2500  -13.8250   20.5790 C   0  0  0  0  0  0  0  0  0  0  0  0
  -24.1810  -13.0450   20.9240 C   0  0  0  0  0  0  0  0  0  0  0  0
  -24.6410  -11.6930   20.8720 C   0  0  0  0  0  0  0  0  0  0  0  0
  -26.2910  -12.9480   20.3340 N   0  0  0  0  0  0  0  0  0  0  0  0
  -25.9350  -11.6590   20.5780 N   0  0  0  0  0  0  0  0  0  0  0  0
  -23.9060  -10.4310   21.0350 C   0  0  0  0  0  0  0  0  0  0  0  0
  -24.3610   -9.4230   21.9160 C   0  0  0  0  0  3  0  0  0  0  0  0
  -23.6290   -8.2260   22.0750 C   0  0  0  0  0  3  0  0  0  0  0  0
  -22.4280   -8.0280   21.3530 C   0  0  0  0  0  0  0  0  0  0  0  0
  -21.9890   -9.0250   20.4640 C   0  0  0  0  0  3  0  0  0  0  0  0
  -22.7210  -10.2130   20.3030 C   0  0  0  0  0  3  0  0  0  0  0  0
  -21.6640   -6.8870   21.4240 O   0  0  0  0  0  0  0  0  0  0  0  0
  -21.6860   -6.0730   22.5270 C   0  0  0  0  0  0  0  0  0  0  0  0
  -21.4010   -6.5640   23.8200 C   0  0  0  0  0  3  0  0  0  0  0  0
  -21.3670   -5.6800   24.9160 C   0  0  0  0  0  3  0  0  0  0  0  0
  -21.6050   -4.3060   24.7220 C   0  0  0  0  0  0  0  0  0  0  0  0
  -21.8830   -3.8140   23.4340 C   0  0  0  0  0  3  0  0  0  0  0  0
  -21.9200   -4.6950   22.3400 C   0  0  0  0  0  0  0  0  0  0  0  0
  -22.1670   -4.2140   21.0970 F   0  0  0  0  0  0  0  0  0  0  0  0
  -21.5630   -3.4550   25.7730 F   0  0  0  0  0  0  0  0  0  0  0  0
  -22.7830  -13.5190   21.1860 C   0  0  0  0  0  0  0  0  0  0  0  0
  -22.0490  -12.8180   22.0410 N   0  0  0  0  0  0  0  0  0  0  0  0
  -22.3500  -14.5470   20.6670 O   0  0  0  0  0  0  0  0  0  0  0  0
  -22.4130  -11.9860   22.4810 H   0  0  0  0  0  0  0  0  0  0  0  0
  -21.1110  -13.1200   22.2600 H   0  0  0  0  0  0  0  0  0  0  0  0
  -25.4180  -15.1980   20.4350 N   0  0  0  0  0  0  0  0  0  0  0  0
  -24.6660  -15.8530   20.6230 H   0  0  0  0  0  0  0  0  0  0  0  0
  -26.2660  -15.6510   20.1220 H   0  0  0  0  0  0  0  0  0  0  0  0
  2  3  1  0
  3  1  2  0
  4  1  1  0
  4  9  1  0
  5  4  2  0
  6  2  2  0
  6  5  1  0
  7  9  1  0
  9  8  1  0
 11 10  1  0
 11  5  1  0
 11 12  1  0
 13 12  1  0
 14 25  2  0
 15 13  1  0
 15 20  1  0
 16 24  1  0
 16 26  1  0
 17 23  1  0
 17 19  1  0
 18 24  1  0
 19 20  2  0
 19 18  1  0
 21 15  2  0
 22 21  1  0
 22 17  2  0
 23 16  1  0
 24 14  1  0
 26 28  2  0
 27 26  1  0
 29 27  1  0
 30 39  2  0
 30 35  1  0
 31 27  1  0
 31 35  1  0
 32 31  1  0
 33 34  1  0
 33 32  1  0
 34 30  1  0
 35 36  2  0
 36 37  1  0
 38 37  2  0
 39 38  1  0
 40 14  1  0
 40 45  1  0
 40 41  1  0
 41 44  1  1
 41 42  1  0
 43 41  1  0
 45 48  1  0
 46 50  1  0
 46 45  1  0
 47 46  2  0
 50 49  1  0
 52 50  1  0
 52 53  1  0
 52 51  1  0
 54  3  1  0
 54 63  1  0
 55 63  1  0
 56 61  1  0
 57 58  1  0
 57 56  1  0
 59 58  1  0
 59 68  1  0
 59 60  1  0
 61 55  1  0
 61 60  1  0
 62 55  2  0
 63 64  1  0
 65 66  2  0
 66 85  1  0
 67 66  1  0
 67 70  1  0
 68 69  1  0
 68 65  1  0
 69 67  2  0
 70 71  1  0
 71 72  2  0
 73 76  1  0
 73 72  1  0
 74 73  2  0
 75 74  1  0
 75 70  2  0
 76 77  1  0
 77 78  1  0
 78 79  2  0
 80 79  1  0
 80 84  1  0
 81 80  2  0
 82 77  2  0
 82 81  1  0
 83 82  1  0
 85 86  1  0
 86 89  1  0
 86 88  1  0
 87 85  2  0
 90 65  1  0
 90 91  1  0
 92 90  1  0
M  ISO  4  12 101  13 101  55 100  63 100
M  END
>  <TORSDO>  (64) 
F 20

>  <SCORE>  (64) 
-13.110

>  <name>  (64) 
64

>  <ligand_id>  (64) 
64

>  <original_smiles>  (64) 
[H]c1nc(C([H])(C([H])([H])[H])C([H])([H])Oc2c([H])c([H])c3c(c2[H])C([H])([H])N(C(=O)C([H])(N([H])C(=O)C([H])(N([H])C([H])([H])[H])C([H])([H])[H])C(C([H])([H])[H])(C([H])([H])[H])C([H])([H])[H])C([H])(C(=O)N([H])C2([H])c4c([H])c([H])c([H])c([H])c4C([H])([H])C([H])([H])C2([H])[H])C3([H])[H])c(C([H])(C([H])([H])[H])C([H])([H])[H])c([H])c1C([H])([H])N([H])C(=O)N1C([H])([H])C([H])([H])C([H])([H])C([H])(n2nc(-c3c([H])c([H])c(Oc4c([H])c([H])c(F)c([H])c4F)c([H])c3[H])c(C(=O)N([H])[H])c2N([H])[H])C1([H])[H]

>  <smiles>  (64) 
[H]c1nc(C([H])(C([H])([H])[H])C([H])([H])Oc2c([H])c([H])c3c(c2[H])C([H])([H])N(C(=O)C([H])(N([H])C(=O)C([H])(N([H])C([H])([H])[H])C([H])([H])[H])C(C([H])([H])[H])(C([H])([H])[H])C([H])([H])[H])C([H])(C(=O)N([H])C2([H])c4c([H])c([H])c([H])c([H])c4C([H])([H])C([H])([H])C2([H])[H])C3([H])[H])c(C([H])(C([H])([H])[H])C([H])([H])[H])c([H])c1C([H])([H])N([H])C(=O)N1C([H])([H])C([H])([H])C([H])([H])C([H])(n2nc(-c3c([H])c([H])c(Oc4c([H])c([H])c(F)c([H])c4F)c([H])c3[H])c(C(=O)N([H])[H])c2N([H])[H])C1([H])[H]

$$$$
65:0:0
     RDKit          3D

 99107  0  0  1  0  0  0  0  0999 V2000
  -29.3400  -22.1570   20.2120 C   0  0  0  0  0  3  0  0  0  0  0  0
  -28.1640  -22.8350   19.7780 C   0  0  0  0  0  0  0  0  0  0  0  0
  -29.5880  -21.0820   19.3900 C   0  0  0  0  0  0  0  0  0  0  0  0
  -27.6630  -22.0880   18.7400 C   0  0  0  0  0  0  0  0  0  0  0  0
  -26.3790  -22.2900   17.9780 C   0  0  0  0  0  1  0  0  0  0  0  0
  -28.5670  -21.0690   18.4260 N   0  0  0  0  0  0  0  0  0  0  0  0
  -28.2570  -18.7150   17.5710 C   0  0  0  0  0  1  0  0  0  0  0  0
  -29.5060  -20.4910   16.1740 C   0  0  0  0  0  1  0  0  0  0  0  0
  -28.4310  -20.2020   17.2370 C   0  0  0  0  0  3  0  0  0  0  0  0
  -26.4370  -23.7500   21.3560 C   0  0  0  0  0  1  0  0  0  0  0  0
  -27.5130  -24.1100   20.3170 C   0  0  0  0  0  3  0  0  0  0  0  0
  -28.4520  -25.2500   20.8270 C   0  0  0  0  0  2  0  0  0  0  0  0
  -28.3480  -26.5740   20.2370 O   0  0  0  0  0  0  0  0  0  0  0  0
  -24.5790  -31.8750   23.2580 C   0  0  0  0  0  0  0  0  0  0  0  0
  -27.1740  -27.3040   20.2990 C   0  0  0  0  0  0  0  0  0  0  0  0
  -23.3700  -30.4570   21.6390 C   0  0  0  0  0  3  0  0  0  0  0  0
  -24.8110  -28.8780   20.2620 C   0  0  0  0  0  0  0  0  0  0  0  0
  -25.9080  -30.7690   21.4580 C   0  0  0  0  0  2  0  0  0  0  0  0
  -25.9760  -29.3800   20.8560 C   0  0  0  0  0  0  0  0  0  0  0  0
  -27.1590  -28.5980   20.8780 C   0  0  0  0  0  3  0  0  0  0  0  0
  -25.9930  -26.8500   19.6680 C   0  0  0  0  0  3  0  0  0  0  0  0
  -24.8160  -27.6100   19.6680 C   0  0  0  0  0  3  0  0  0  0  0  0
  -23.5810  -29.7560   20.2760 C   0  0  0  0  0  2  0  0  0  0  0  0
  -24.6380  -31.0480   22.1760 N   0  0  0  0  0  0  0  0  0  0  0  0
  -23.4940  -32.1720   23.7790 O   0  0  0  0  0  0  0  0  0  0  0  0
  -22.6980  -29.4580   22.6110 C   0  0  0  0  0  0  0  0  0  0  0  0
  -21.3750  -29.2780   22.4640 N   0  0  0  0  0  0  0  0  0  0  0  0
  -23.3640  -28.8480   23.4520 O   0  0  0  0  0  0  0  0  0  0  0  0
  -20.8990  -29.8210   21.7560 H   0  0  0  0  0  0  0  0  0  0  0  0
  -17.9890  -28.0950   22.9150 C   0  0  0  0  0  0  0  0  0  0  0  0
  -20.5400  -28.3630   23.2420 C   0  0  0  0  0  3  0  0  0  0  0  0
  -20.6580  -26.9150   22.7120 C   0  0  0  0  0  2  0  0  0  0  0  0
  -19.5800  -26.5590   21.6830 C   0  0  0  0  0  2  0  0  0  0  0  0
  -18.1830  -26.7250   22.2880 C   0  0  0  0  0  2  0  0  0  0  0  0
  -19.0970  -28.8700   23.3480 C   0  0  0  0  0  0  0  0  0  0  0  0
  -18.8650  -30.1530   23.8930 C   0  0  0  0  0  3  0  0  0  0  0  0
  -17.5570  -30.6590   24.0090 C   0  0  0  0  0  3  0  0  0  0  0  0
  -16.4630  -29.8810   23.5950 C   0  0  0  0  0  3  0  0  0  0  0  0
  -16.6790  -28.6000   23.0540 C   0  0  0  0  0  3  0  0  0  0  0  0
  -25.8650  -32.5020   23.8760 C   0  0  0  0  0  3  0  0  0  0  0  0
  -25.5620  -33.9040   24.1910 N   0  0  0  0  0  0  0  0  0  0  0  0
  -25.9110  -34.9460   23.4250 C   0  0  0  0  0  0  0  0  0  0  0  0
  -26.5940  -34.8300   22.4050 O   0  0  0  0  0  0  0  0  0  0  0  0
  -24.9600  -34.0700   24.9830 H   0  0  0  0  0  0  0  0  0  0  0  0
  -24.2060  -36.7530   23.0310 C   0  0  0  0  0  1  0  0  0  0  0  0
  -25.4280  -36.3400   23.8670 C   0  0  0  0  0  3  0  0  0  0  0  0
  -27.5560  -37.2100   24.7300 C   0  0  0  0  0  1  0  0  0  0  0  0
  -26.4720  -37.3820   23.7670 N   0  0  0  0  0  0  0  0  0  0  0  0
  -26.0710  -38.3070   23.9040 H   0  0  0  0  0  0  0  0  0  0  0  0
  -26.3740  -31.7370   25.1570 C   0  0  1  0  0  0  0  0  0  0  0  0
  -25.2760  -31.5090   26.2230 C   0  0  0  0  0  1  0  0  0  0  0  0
  -26.9550  -30.3560   24.7720 C   0  0  0  0  0  1  0  0  0  0  0  0
  -27.5260  -32.5320   25.8170 C   0  0  0  0  0  1  0  0  0  0  0  0
  -32.0980  -20.9210   19.4750 C   0  0  0  0  0  1  0  0  0  0  0  0
  -30.7790  -20.1330   19.4110 C   0  0  0  0  0  3  0  0  0  0  0  0
  -30.7480  -19.1580   20.5320 N   0  0  0  0  0  4  0  0  0  0  0  0
  -31.6750  -19.1570   20.9220 H   0  0  0  0  0  0  0  0  0  0  0  0
  -30.1210  -19.4990   21.2430 H   0  0  0  0  0  0  0  0  0  0  0  0
  -30.4230  -17.7440   20.1930 C   0  0  0  0  0  2  0  0  0  0  0  0
  -30.5660  -17.0390   22.6660 C   0  0  0  0  0  1  0  0  0  0  0  0
  -30.9810  -16.7150   21.2190 C   0  0  0  0  0  3  0  0  0  0  0  0
  -31.1350  -14.4180   20.1460 C   0  0  0  0  0  0  0  0  0  0  0  0
  -30.7380  -12.2900   18.9460 C   0  0  0  0  0  2  0  0  0  0  0  0
  -29.7620  -12.5260   17.7760 C   0  0  0  0  0  2  0  0  0  0  0  0
  -28.2970  -12.4390   18.2490 C   0  0  0  0  0  2  0  0  0  0  0  0
  -28.0310  -13.2860   19.5210 C   0  0  0  0  0  3  0  0  0  0  0  0
  -29.1020  -12.9980   20.5960 C   0  0  0  0  0  2  0  0  0  0  0  0
  -30.4240  -13.2670   20.0000 N   0  0  0  0  0  0  0  0  0  0  0  0
  -32.2030  -14.6370   19.5670 O   0  0  0  0  0  0  0  0  0  0  0  0
  -30.5360  -15.3480   20.9120 N   0  0  0  0  0  0  0  0  0  0  0  0
  -29.6650  -15.0560   21.3310 H   0  0  0  0  0  0  0  0  0  0  0  0
  -25.6810  -14.0040   20.2910 C   0  0  0  0  0  0  0  0  0  0  0  0
  -24.5920  -13.2810   20.6960 C   0  0  0  0  0  0  0  0  0  0  0  0
  -24.9920  -11.9100   20.6550 C   0  0  0  0  0  0  0  0  0  0  0  0
  -26.6790  -13.0760   20.0350 N   0  0  0  0  0  0  0  0  0  0  0  0
  -26.2680  -11.8120   20.3060 N   0  0  0  0  0  0  0  0  0  0  0  0
  -24.2180  -10.6810   20.8700 C   0  0  0  0  0  0  0  0  0  0  0  0
  -24.6220   -9.7110   21.8140 C   0  0  0  0  0  3  0  0  0  0  0  0
  -23.8520   -8.5450   22.0170 C   0  0  0  0  0  3  0  0  0  0  0  0
  -22.6640   -8.3430   21.2760 C   0  0  0  0  0  0  0  0  0  0  0  0
  -22.2780   -9.3010   20.3220 C   0  0  0  0  0  3  0  0  0  0  0  0
  -23.0480  -10.4580   20.1180 C   0  0  0  0  0  3  0  0  0  0  0  0
  -21.8670   -7.2290   21.3870 O   0  0  0  0  0  0  0  0  0  0  0  0
  -21.7710   -6.5260   22.5610 C   0  0  0  0  0  0  0  0  0  0  0  0
  -21.3600   -7.1380   23.7650 C   0  0  0  0  0  3  0  0  0  0  0  0
  -21.2090   -6.3640   24.9320 C   0  0  0  0  0  3  0  0  0  0  0  0
  -21.4590   -4.9800   24.8970 C   0  0  0  0  0  0  0  0  0  0  0  0
  -21.8640   -4.3660   23.6980 C   0  0  0  0  0  3  0  0  0  0  0  0
  -22.0160   -5.1380   22.5330 C   0  0  0  0  0  0  0  0  0  0  0  0
  -22.3860   -4.5390   21.3750 F   0  0  0  0  0  0  0  0  0  0  0  0
  -21.3070   -4.2330   26.0170 F   0  0  0  0  0  0  0  0  0  0  0  0
  -23.2260  -13.8190   21.0120 C   0  0  0  0  0  0  0  0  0  0  0  0
  -22.5020  -13.1620   21.9100 N   0  0  0  0  0  0  0  0  0  0  0  0
  -22.8130  -14.8570   20.4960 O   0  0  0  0  0  0  0  0  0  0  0  0
  -22.8500  -12.3220   22.3470 H   0  0  0  0  0  0  0  0  0  0  0  0
  -21.5850  -13.5040   22.1630 H   0  0  0  0  0  0  0  0  0  0  0  0
  -25.9020  -15.3660   20.1050 N   0  0  0  0  0  0  0  0  0  0  0  0
  -25.1660  -16.0520   20.2230 H   0  0  0  0  0  0  0  0  0  0  0  0
  -26.7580  -15.7600   19.7350 H   0  0  0  0  0  0  0  0  0  0  0  0
  2  1  1  0
  2 11  1  0
  3 55  1  0
  3  1  2  0
  4  2  2  0
  5  4  1  0
  6  4  1  0
  6  3  1  0
  8  9  1  0
  9  7  1  0
  9  6  1  0
 11 12  1  0
 11 10  1  0
 13 15  1  0
 13 12  1  0
 14 25  2  0
 15 20  1  0
 16 24  1  0
 16 26  1  0
 17 23  1  0
 17 19  1  0
 18 24  1  0
 19 20  2  0
 19 18  1  0
 21 22  1  0
 21 15  2  0
 22 17  2  0
 23 16  1  0
 24 14  1  0
 26 28  2  0
 27 26  1  0
 29 27  1  0
 30 39  2  0
 30 35  1  0
 31 27  1  0
 31 35  1  0
 32 31  1  0
 33 34  1  0
 33 32  1  0
 34 30  1  0
 35 36  2  0
 36 37  1  0
 38 37  2  0
 39 38  1  0
 40 14  1  0
 40 41  1  0
 40 50  1  0
 41 44  1  0
 42 46  1  0
 42 41  1  0
 43 42  2  0
 46 45  1  0
 48 46  1  0
 48 49  1  0
 48 47  1  0
 50 53  1  1
 50 51  1  0
 52 50  1  0
 55 54  1  0
 55 56  1  0
 56 57  1  0
 56 58  1  0
 59 56  1  0
 59 61  1  0
 61 60  1  0
 62 70  1  0
 63 68  1  0
 64 65  1  0
 64 63  1  0
 66 65  1  0
 66 75  1  0
 66 67  1  0
 68 62  1  0
 68 67  1  0
 69 62  2  0
 70 61  1  0
 70 71  1  0
 72 73  2  0
 73 92  1  0
 74 73  1  0
 74 77  1  0
 75 72  1  0
 75 76  1  0
 76 74  2  0
 77 78  1  0
 78 79  2  0
 80 83  1  0
 80 79  1  0
 81 80  2  0
 82 81  1  0
 82 77  2  0
 83 84  1  0
 84 85  1  0
 85 86  2  0
 87 86  1  0
 87 91  1  0
 88 87  2  0
 89 84  2  0
 89 88  1  0
 90 89  1  0
 92 93  1  0
 93 96  1  0
 93 95  1  0
 94 92  2  0
 97 98  1  0
 97 72  1  0
 99 97  1  0
M  ISO  4  12 101  13 101  62 100  70 100
M  END
>  <TORSDO>  (65) 
F 23

>  <SCORE>  (65) 
-13.053

>  <name>  (65) 
65

>  <ligand_id>  (65) 
65

>  <original_smiles>  (65) 
[H]c1c([H])c([H])c2c(c1[H])C([H])([H])C([H])([H])C([H])([H])C2([H])N([H])C(=O)C1([H])N(C(=O)C([H])(N([H])C(=O)C([H])(N([H])C([H])([H])[H])C([H])([H])[H])C(C([H])([H])[H])(C([H])([H])[H])C([H])([H])[H])C([H])([H])c2c([H])c(OC([H])([H])C([H])(c3c([H])c(C([H])(C([H])([H])[H])[N+]([H])([H])C([H])([H])C([H])(N([H])C(=O)N4C([H])([H])C([H])([H])C([H])([H])C([H])(n5nc(-c6c([H])c([H])c(Oc7c([H])c([H])c(F)c([H])c7F)c([H])c6[H])c(C(=O)N([H])[H])c5N([H])[H])C4([H])[H])C([H])([H])[H])n(C([H])(C([H])([H])[H])C([H])([H])[H])c3C([H])([H])[H])C([H])([H])[H])c([H])c([H])c2C1([H])[H]

>  <smiles>  (65) 
[H]c1c([H])c([H])c2c(c1[H])C([H])([H])C([H])([H])C([H])([H])C2([H])N([H])C(=O)C1([H])N(C(=O)C([H])(N([H])C(=O)C([H])(N([H])C([H])([H])[H])C([H])([H])[H])C(C([H])([H])[H])(C([H])([H])[H])C([H])([H])[H])C([H])([H])c2c([H])c(OC([H])([H])C([H])(c3c([H])c(C([H])(C([H])([H])[H])[N+]([H])([H])C([H])([H])C([H])(N([H])C(=O)N4C([H])([H])C([H])([H])C([H])([H])C([H])(n5nc(-c6c([H])c([H])c(Oc7c([H])c([H])c(F)c([H])c7F)c([H])c6[H])c(C(=O)N([H])[H])c5N([H])[H])C4([H])[H])C([H])([H])[H])n(C([H])(C([H])([H])[H])C([H])([H])[H])c3C([H])([H])[H])C([H])([H])[H])c([H])c([H])c2C1([H])[H]

$$$$
68:0:0
     RDKit          3D

 97105  0  0  1  0  0  0  0  0999 V2000
  -30.3410  -19.6810   18.9410 C   0  0  0  0  0  3  0  0  0  0  0  0
  -30.5380  -20.5120   20.9690 C   0  0  0  0  0  3  0  0  0  0  0  0
  -30.7930  -18.6060   19.7060 C   0  0  0  0  0  0  0  0  0  0  0  0
  -30.9130  -19.1780   21.0230 C   0  0  0  0  0  0  0  0  0  0  0  0
  -30.1920  -20.8750   19.6800 N   0  0  0  0  0  0  0  0  0  0  0  0
  -31.7240  -19.4420   23.3970 C   0  0  0  0  0  1  0  0  0  0  0  0
  -31.3800  -18.4550   22.2700 C   0  0  0  0  0  3  0  0  0  0  0  0
  -30.3510  -17.4030   22.7330 C   0  0  0  0  0  2  0  0  0  0  0  0
  -29.8430  -16.5210   21.5780 C   0  0  0  0  0  2  0  0  0  0  0  0
  -28.8810  -15.4930   22.0060 N   0  0  0  0  0  4  0  0  0  0  0  0
  -29.2620  -14.9070   22.7270 H   0  0  0  0  0  0  0  0  0  0  0  0
  -28.6860  -14.9190   21.1910 H   0  0  0  0  0  0  0  0  0  0  0  0
  -28.0220  -15.9040   22.3240 H   0  0  0  0  0  0  0  0  0  0  0  0
  -31.1980  -17.1610   19.1560 C   0  0  0  0  0  2  0  0  0  0  0  0
  -31.3520  -14.6090   19.4340 C   0  0  0  0  0  0  0  0  0  0  0  0
  -30.9340  -12.3230   18.5390 C   0  0  0  0  0  2  0  0  0  0  0  0
  -29.8820  -12.3960   17.4110 C   0  0  0  0  0  2  0  0  0  0  0  0
  -28.4610  -12.2920   17.9960 C   0  0  0  0  0  2  0  0  0  0  0  0
  -28.2430  -13.2310   19.2140 C   0  0  0  0  0  3  0  0  0  0  0  0
  -29.4090  -13.1550   20.2220 C   0  0  0  0  0  2  0  0  0  0  0  0
  -30.6490  -13.4280   19.4840 N   0  0  0  0  0  0  0  0  0  0  0  0
  -32.4940  -14.6190   18.9710 O   0  0  0  0  0  0  0  0  0  0  0  0
  -30.7010  -15.8110   19.6630 N   0  0  0  0  0  0  0  0  0  0  0  0
  -29.7450  -15.7560   19.9690 H   0  0  0  0  0  0  0  0  0  0  0  0
  -25.9960  -13.9240   20.2440 C   0  0  0  0  0  0  0  0  0  0  0  0
  -24.9370  -13.1960   20.7080 C   0  0  0  0  0  0  0  0  0  0  0  0
  -25.3020  -11.8240   20.5590 C   0  0  0  0  0  0  0  0  0  0  0  0
  -26.9490  -12.9980   19.8490 N   0  0  0  0  0  0  0  0  0  0  0  0
  -26.5430  -11.7260   20.0980 N   0  0  0  0  0  0  0  0  0  0  0  0
  -24.5170  -10.6000   20.7750 C   0  0  0  0  0  0  0  0  0  0  0  0
  -24.9160   -9.6230   21.7120 C   0  0  0  0  0  3  0  0  0  0  0  0
  -24.1350   -8.4650   21.9140 C   0  0  0  0  0  3  0  0  0  0  0  0
  -22.9390   -8.2780   21.1810 C   0  0  0  0  0  0  0  0  0  0  0  0
  -22.5580   -9.2440   20.2310 C   0  0  0  0  0  3  0  0  0  0  0  0
  -23.3410  -10.3930   20.0260 C   0  0  0  0  0  3  0  0  0  0  0  0
  -22.1290   -7.1740   21.2940 O   0  0  0  0  0  0  0  0  0  0  0  0
  -21.9450   -6.5370   22.4950 C   0  0  0  0  0  0  0  0  0  0  0  0
  -21.4320   -7.2110   23.6250 C   0  0  0  0  0  3  0  0  0  0  0  0
  -21.1940   -6.5010   24.8190 C   0  0  0  0  0  3  0  0  0  0  0  0
  -21.4590   -5.1210   24.8840 C   0  0  0  0  0  0  0  0  0  0  0  0
  -21.9660   -4.4470   23.7580 C   0  0  0  0  0  3  0  0  0  0  0  0
  -22.2060   -5.1530   22.5660 C   0  0  0  0  0  0  0  0  0  0  0  0
  -22.6730   -4.4960   21.4780 F   0  0  0  0  0  0  0  0  0  0  0  0
  -21.2220   -4.4370   26.0270 F   0  0  0  0  0  0  0  0  0  0  0  0
  -23.6170  -13.7450   21.1630 C   0  0  0  0  0  0  0  0  0  0  0  0
  -22.9610  -13.0700   22.1030 N   0  0  0  0  0  0  0  0  0  0  0  0
  -23.1860  -14.8090   20.7220 O   0  0  0  0  0  0  0  0  0  0  0  0
  -23.3280  -12.2090   22.4790 H   0  0  0  0  0  0  0  0  0  0  0  0
  -22.0800  -13.4210   22.4490 H   0  0  0  0  0  0  0  0  0  0  0  0
  -26.2150  -15.2920   20.1000 N   0  0  0  0  0  0  0  0  0  0  0  0
  -25.3310  -15.7690   19.9400 H   0  0  0  0  0  0  0  0  0  0  0  0
  -26.8520  -15.5020   19.3390 H   0  0  0  0  0  0  0  0  0  0  0  0
  -29.6390  -22.2010   19.1640 C   0  0  0  0  0  3  0  0  0  0  0  0
  -29.7500  -23.6140   19.9480 C   0  0  0  0  0  3  0  0  0  0  0  0
  -29.8200  -25.3040   17.9760 C   0  0  0  0  0  1  0  0  0  0  0  0
  -29.0600  -24.9070   19.2480 C   0  0  0  0  0  3  0  0  0  0  0  0
  -28.8880  -26.2200   19.9610 O   0  0  0  0  0  0  0  0  0  0  0  0
  -24.7970  -31.3140   23.0810 C   0  0  0  0  0  0  0  0  0  0  0  0
  -27.7200  -27.0220   19.8730 C   0  0  0  0  0  0  0  0  0  0  0  0
  -23.7000  -29.9130   21.3710 C   0  0  0  0  0  3  0  0  0  0  0  0
  -25.2590  -28.5190   19.8960 C   0  0  0  0  0  0  0  0  0  0  0  0
  -26.2210  -30.3850   21.2370 C   0  0  0  0  0  2  0  0  0  0  0  0
  -26.3910  -29.0400   20.5330 C   0  0  0  0  0  0  0  0  0  0  0  0
  -27.6170  -28.3000   20.5200 C   0  0  0  0  0  3  0  0  0  0  0  0
  -26.5590  -26.5800   19.1940 C   0  0  0  0  0  3  0  0  0  0  0  0
  -25.3490  -27.2980   19.2160 C   0  0  0  0  0  3  0  0  0  0  0  0
  -23.9720  -29.3140   19.9660 C   0  0  0  0  0  2  0  0  0  0  0  0
  -24.9240  -30.5540   21.9530 N   0  0  0  0  0  0  0  0  0  0  0  0
  -23.6920  -31.5000   23.6110 O   0  0  0  0  0  0  0  0  0  0  0  0
  -23.0930  -28.8170   22.2800 C   0  0  0  0  0  0  0  0  0  0  0  0
  -21.8060  -28.4970   22.0680 N   0  0  0  0  0  0  0  0  0  0  0  0
  -23.7840  -28.2600   23.1380 O   0  0  0  0  0  0  0  0  0  0  0  0
  -21.3020  -29.0080   21.3550 H   0  0  0  0  0  0  0  0  0  0  0  0
  -18.5730  -26.8890   22.3000 C   0  0  0  0  0  0  0  0  0  0  0  0
  -21.0480  -27.4660   22.7790 C   0  0  0  0  0  3  0  0  0  0  0  0
  -21.3750  -26.0570   22.2350 C   0  0  0  0  0  2  0  0  0  0  0  0
  -20.4120  -25.5980   21.1360 C   0  0  0  0  0  2  0  0  0  0  0  0
  -18.9730  -25.5700   21.6590 C   0  0  0  0  0  2  0  0  0  0  0  0
  -19.5480  -27.7850   22.8130 C   0  0  0  0  0  0  0  0  0  0  0  0
  -19.1240  -29.0120   23.3690 C   0  0  0  0  0  3  0  0  0  0  0  0
  -17.7570  -29.3470   23.4190 C   0  0  0  0  0  3  0  0  0  0  0  0
  -16.7960  -28.4490   22.9240 C   0  0  0  0  0  3  0  0  0  0  0  0
  -17.2040  -27.2220   22.3720 C   0  0  0  0  0  3  0  0  0  0  0  0
  -26.0300  -32.0010   23.7440 C   0  0  0  0  0  3  0  0  0  0  0  0
  -26.5410  -31.2470   25.0330 C   0  0  1  0  0  0  0  0  0  0  0  0
  -25.4260  -30.9460   26.0630 C   0  0  0  0  0  1  0  0  0  0  0  0
  -27.2050  -29.9040   24.6530 C   0  0  0  0  0  1  0  0  0  0  0  0
  -27.6250  -32.0940   25.7390 C   0  0  0  0  0  1  0  0  0  0  0  0
  -25.6470  -33.3820   24.0740 N   0  0  0  0  0  0  0  0  0  0  0  0
  -25.9590  -34.4570   23.3380 C   0  0  0  0  0  0  0  0  0  0  0  0
  -26.6690  -34.3940   22.3300 O   0  0  0  0  0  0  0  0  0  0  0  0
  -25.0200  -33.5030   24.8550 H   0  0  0  0  0  0  0  0  0  0  0  0
  -24.1780  -36.1840   22.9240 C   0  0  0  0  0  1  0  0  0  0  0  0
  -25.3950  -35.8170   23.7890 C   0  0  0  0  0  3  0  0  0  0  0  0
  -27.4480  -36.7750   24.7350 C   0  0  0  0  0  1  0  0  0  0  0  0
  -26.3870  -36.9130   23.7400 N   0  0  0  0  0  0  0  0  0  0  0  0
  -25.9370  -37.8140   23.8800 H   0  0  0  0  0  0  0  0  0  0  0  0
  1  5  1  0
  1  3  2  0
  2  4  2  0
  3  4  1  0
  4  7  1  0
  5  2  1  0
  7  8  1  0
  7  6  1  0
  9 10  1  0
  9  8  1  0
 10 13  1  0
 10 11  1  0
 12 10  1  0
 14 23  1  0
 14  3  1  0
 15 21  1  0
 15 23  1  0
 16 21  1  0
 17 18  1  0
 17 16  1  0
 19 18  1  0
 19 28  1  0
 19 20  1  0
 21 20  1  0
 22 15  2  0
 23 24  1  0
 25 26  2  0
 26 45  1  0
 27 26  1  0
 27 30  1  0
 28 29  1  0
 28 25  1  0
 29 27  2  0
 30 31  1  0
 31 32  2  0
 33 36  1  0
 33 32  1  0
 34 33  2  0
 35 34  1  0
 35 30  2  0
 36 37  1  0
 37 42  2  0
 37 38  1  0
 38 39  2  0
 39 40  1  0
 40 44  1  0
 41 40  2  0
 42 41  1  0
 43 42  1  0
 45 46  1  0
 46 49  1  0
 46 48  1  0
 47 45  2  0
 50 25  1  0
 51 50  1  0
 52 50  1  0
 53  5  1  0
 53 54  2  0
 56 55  1  0
 56 54  1  0
 56 57  1  0
 58 69  2  0
 59 57  1  0
 59 64  1  0
 60 68  1  0
 60 70  1  0
 61 67  1  0
 61 63  1  0
 62 68  1  0
 63 62  1  0
 64 63  2  0
 65 66  1  0
 65 59  2  0
 66 61  2  0
 67 60  1  0
 68 58  1  0
 70 72  2  0
 71 70  1  0
 73 71  1  0
 74 83  2  0
 74 79  1  0
 75 71  1  0
 75 79  1  0
 76 75  1  0
 77 78  1  0
 77 76  1  0
 78 74  1  0
 79 80  2  0
 80 81  1  0
 82 81  2  0
 83 82  1  0
 84 58  1  0
 84 89  1  0
 84 85  1  0
 85 88  1  1
 85 86  1  0
 87 85  1  0
 89 92  1  0
 90 94  1  0
 90 89  1  0
 91 90  2  0
 94 93  1  0
 96 94  1  0
 96 97  1  0
 96 95  1  0
M  ISO  4  15 100  23 100  56 101  57 101
M  END
>  <TORSDO>  (66) 
F 24

>  <SCORE>  (66) 
-9.229

>  <name>  (66) 
68

>  <ligand_id>  (66) 
68

>  <original_smiles>  (66) 
[H]c1c([H])c([H])c2c(c1[H])C([H])([H])C([H])([H])C([H])([H])C2([H])N([H])C(=O)C1([H])N(C(=O)C([H])(N([H])C(=O)C([H])(N([H])C([H])([H])[H])C([H])([H])[H])C(C([H])([H])[H])(C([H])([H])[H])C([H])([H])[H])C([H])([H])c2c([H])c(OC([H])(C([H])([H])[H])C([H])([H])C([H])([H])n3c([H])c(C([H])([H])N([H])C(=O)N4C([H])([H])C([H])([H])C([H])([H])C([H])(n5nc(-c6c([H])c([H])c(Oc7c([H])c([H])c(F)c([H])c7F)c([H])c6[H])c(C(=O)N([H])[H])c5N([H])[H])C4([H])[H])c(C([H])(C([H])([H])[H])C([H])([H])C([H])([H])[N+]([H])([H])[H])c3[H])c([H])c([H])c2C1([H])[H]

>  <smiles>  (66) 
[H]c1c([H])c([H])c2c(c1[H])C([H])([H])C([H])([H])C([H])([H])C2([H])N([H])C(=O)C1([H])N(C(=O)C([H])(N([H])C(=O)C([H])(N([H])C([H])([H])[H])C([H])([H])[H])C(C([H])([H])[H])(C([H])([H])[H])C([H])([H])[H])C([H])([H])c2c([H])c(OC([H])(C([H])([H])[H])C([H])([H])C([H])([H])n3c([H])c(C([H])([H])N([H])C(=O)N4C([H])([H])C([H])([H])C([H])([H])C([H])(n5nc(-c6c([H])c([H])c(Oc7c([H])c([H])c(F)c([H])c7F)c([H])c6[H])c(C(=O)N([H])[H])c5N([H])[H])C4([H])[H])c(C([H])(C([H])([H])[H])C([H])([H])C([H])([H])[N+]([H])([H])[H])c3[H])c([H])c([H])c2C1([H])[H]

$$$$
69:0:0
     RDKit          3D

 98106  0  0  1  0  0  0  0  0999 V2000
  -31.4790  -19.8570   20.8450 C   0  0  0  0  0  3  0  0  0  0  0  0
  -30.9870  -21.1010   20.4020 C   0  0  0  0  0  3  0  0  0  0  0  0
  -29.9510  -18.7140   19.3620 C   0  0  0  0  0  3  0  0  0  0  0  0
  -30.9320  -18.6430   20.3760 C   0  0  0  0  0  0  0  0  0  0  0  0
  -29.9260  -21.1750   19.4730 C   0  0  0  0  0  0  0  0  0  0  0  0
  -29.4020  -19.9530   18.9030 C   0  0  0  0  0  0  0  0  0  0  0  0
  -26.9240  -20.4600   18.5110 C   0  0  0  0  0  1  0  0  0  0  0  0
  -27.8670  -18.4420   17.4540 C   0  0  0  0  0  1  0  0  0  0  0  0
  -28.5000  -20.6170   16.5240 C   0  0  0  0  0  1  0  0  0  0  0  0
  -28.2160  -19.8960   17.8720 C   0  0  2  0  0  0  0  0  0  0  0  0
  -29.3900  -22.5660   19.0890 C   0  0  0  0  0  2  0  0  0  0  0  0
  -29.9210  -23.8960   19.7260 C   0  0  0  0  0  2  0  0  0  0  0  0
  -28.8830  -24.9960   19.3620 C   0  0  0  0  0  2  0  0  0  0  0  0
  -29.0750  -26.4230   19.5550 O   0  0  0  0  0  0  0  0  0  0  0  0
  -24.9230  -31.1880   22.9240 C   0  0  0  0  0  0  0  0  0  0  0  0
  -27.8780  -27.1460   19.5490 C   0  0  0  0  0  0  0  0  0  0  0  0
  -23.8130  -29.7770   21.2270 C   0  0  0  0  0  3  0  0  0  0  0  0
  -25.3660  -28.4790   19.6870 C   0  0  0  0  0  0  0  0  0  0  0  0
  -26.2990  -30.3670   21.0130 C   0  0  0  0  0  2  0  0  0  0  0  0
  -26.4940  -29.0480   20.2950 C   0  0  0  0  0  0  0  0  0  0  0  0
  -27.7520  -28.3870   20.2290 C   0  0  0  0  0  3  0  0  0  0  0  0
  -26.7200  -26.6440   18.8960 C   0  0  0  0  0  3  0  0  0  0  0  0
  -25.4780  -27.2800   18.9790 C   0  0  0  0  0  3  0  0  0  0  0  0
  -24.0510  -29.2150   19.8030 C   0  0  0  0  0  2  0  0  0  0  0  0
  -25.0290  -30.4580   21.7790 N   0  0  0  0  0  0  0  0  0  0  0  0
  -23.8320  -31.3270   23.4990 O   0  0  0  0  0  0  0  0  0  0  0  0
  -23.2890  -28.6360   22.1350 C   0  0  0  0  0  0  0  0  0  0  0  0
  -22.0060  -28.2790   21.9580 N   0  0  0  0  0  0  0  0  0  0  0  0
  -24.0310  -28.0820   22.9500 O   0  0  0  0  0  0  0  0  0  0  0  0
  -21.4620  -28.8070   21.2870 H   0  0  0  0  0  0  0  0  0  0  0  0
  -18.8510  -26.5300   22.1950 C   0  0  0  0  0  0  0  0  0  0  0  0
  -21.2960  -27.2160   22.6710 C   0  0  0  0  0  3  0  0  0  0  0  0
  -21.6860  -25.8270   22.1190 C   0  0  0  0  0  2  0  0  0  0  0  0
  -20.7380  -25.3250   21.0250 C   0  0  0  0  0  2  0  0  0  0  0  0
  -19.3100  -25.2330   21.5610 C   0  0  0  0  0  2  0  0  0  0  0  0
  -19.7830  -27.4640   22.7120 C   0  0  0  0  0  0  0  0  0  0  0  0
  -19.3040  -28.6650   23.2780 C   0  0  0  0  0  3  0  0  0  0  0  0
  -17.9280  -28.9290   23.3320 C   0  0  0  0  0  3  0  0  0  0  0  0
  -17.0080  -27.9890   22.8430 C   0  0  0  0  0  3  0  0  0  0  0  0
  -17.4690  -26.7950   22.2720 C   0  0  0  0  0  3  0  0  0  0  0  0
  -26.1570  -31.8980   23.5610 C   0  0  0  0  0  3  0  0  0  0  0  0
  -25.7180  -33.2240   24.0170 N   0  0  0  0  0  0  0  0  0  0  0  0
  -26.0220  -34.3780   23.4110 C   0  0  0  0  0  0  0  0  0  0  0  0
  -26.7750  -34.4420   22.4350 O   0  0  0  0  0  0  0  0  0  0  0  0
  -25.0640  -33.2400   24.7860 H   0  0  0  0  0  0  0  0  0  0  0  0
  -24.2100  -36.0910   23.0860 C   0  0  0  0  0  1  0  0  0  0  0  0
  -25.3940  -35.6680   23.9720 C   0  0  0  0  0  3  0  0  0  0  0  0
  -27.3720  -36.5730   25.1120 C   0  0  0  0  0  1  0  0  0  0  0  0
  -26.3530  -36.7890   24.0870 N   0  0  0  0  0  0  0  0  0  0  0  0
  -25.8690  -37.6600   24.2950 H   0  0  0  0  0  0  0  0  0  0  0  0
  -26.7990  -31.0890   24.7530 C   0  0  1  0  0  0  0  0  0  0  0  0
  -25.7820  -30.6580   25.8330 C   0  0  0  0  0  1  0  0  0  0  0  0
  -27.4910  -29.8130   24.2300 C   0  0  0  0  0  1  0  0  0  0  0  0
  -27.8970  -31.9350   25.4410 C   0  0  0  0  0  1  0  0  0  0  0  0
  -31.2140  -17.3240   21.1440 C   0  0  0  0  0  3  0  0  0  0  0  0
  -31.8660  -18.3950   23.3190 C   0  0  0  0  0  1  0  0  0  0  0  0
  -29.5090  -17.8040   22.9660 C   0  0  0  0  0  1  0  0  0  0  0  0
  -30.9210  -17.4980   22.6070 N   0  0  1  0  0  4  0  0  0  0  0  0
  -31.0940  -16.5860   23.0010 H   0  0  0  0  0  0  0  0  0  0  0  0
  -30.6320  -15.9650   20.6030 C   0  0  0  0  0  2  0  0  0  0  0  0
  -32.0850  -14.1080   19.6690 C   0  0  0  0  0  0  0  0  0  0  0  0
  -31.7070  -11.7220   19.1610 C   0  0  0  0  0  2  0  0  0  0  0  0
  -30.7220  -11.5800   17.9830 C   0  0  0  0  0  2  0  0  0  0  0  0
  -29.2590  -11.6190   18.4740 C   0  0  0  0  0  2  0  0  0  0  0  0
  -28.9810  -12.7820   19.4620 C   0  0  0  0  0  3  0  0  0  0  0  0
  -30.0700  -12.8240   20.5550 C   0  0  0  0  0  2  0  0  0  0  0  0
  -31.3680  -12.9640   19.8790 N   0  0  0  0  0  0  0  0  0  0  0  0
  -33.2170  -14.0910   19.1880 O   0  0  0  0  0  0  0  0  0  0  0  0
  -31.4050  -15.2740   19.5670 N   0  0  0  0  0  0  0  0  0  0  0  0
  -31.8650  -15.9130   18.9380 H   0  0  0  0  0  0  0  0  0  0  0  0
  -26.7590  -13.7110   20.3710 C   0  0  0  0  0  0  0  0  0  0  0  0
  -25.6060  -13.0850   20.7790 C   0  0  0  0  0  0  0  0  0  0  0  0
  -25.8510  -11.6850   20.6480 C   0  0  0  0  0  0  0  0  0  0  0  0
  -27.6360  -12.6930   20.0260 N   0  0  0  0  0  0  0  0  0  0  0  0
  -27.1000  -11.4660   20.2530 N   0  0  0  0  0  0  0  0  0  0  0  0
  -24.9520  -10.5390   20.8240 C   0  0  0  0  0  0  0  0  0  0  0  0
  -25.2180   -9.5310   21.7760 C   0  0  0  0  0  3  0  0  0  0  0  0
  -24.3260   -8.4500   21.9430 C   0  0  0  0  0  3  0  0  0  0  0  0
  -23.1490   -8.3730   21.1600 C   0  0  0  0  0  0  0  0  0  0  0  0
  -22.9030   -9.3660   20.1960 C   0  0  0  0  0  3  0  0  0  0  0  0
  -23.7950  -10.4370   20.0270 C   0  0  0  0  0  3  0  0  0  0  0  0
  -22.2430   -7.3400   21.2330 O   0  0  0  0  0  0  0  0  0  0  0  0
  -21.9680   -6.7090   22.4190 C   0  0  0  0  0  0  0  0  0  0  0  0
  -21.4510   -7.4060   23.5330 C   0  0  0  0  0  3  0  0  0  0  0  0
  -21.1120   -6.7050   24.7090 C   0  0  0  0  0  3  0  0  0  0  0  0
  -21.2860   -5.3090   24.7720 C   0  0  0  0  0  0  0  0  0  0  0  0
  -21.7990   -4.6120   23.6630 C   0  0  0  0  0  3  0  0  0  0  0  0
  -22.1350   -5.3100   22.4880 C   0  0  0  0  0  0  0  0  0  0  0  0
  -22.6060   -4.6300   21.4160 F   0  0  0  0  0  0  0  0  0  0  0  0
  -20.9550   -4.6360   25.8980 F   0  0  0  0  0  0  0  0  0  0  0  0
  -24.3170  -13.7510   21.1710 C   0  0  0  0  0  0  0  0  0  0  0  0
  -23.5640  -13.1430   22.0850 N   0  0  0  0  0  0  0  0  0  0  0  0
  -23.9940  -14.8450   20.7140 O   0  0  0  0  0  0  0  0  0  0  0  0
  -23.8320  -12.2630   22.5000 H   0  0  0  0  0  0  0  0  0  0  0  0
  -22.7070  -13.5790   22.3920 H   0  0  0  0  0  0  0  0  0  0  0  0
  -27.1250  -15.0500   20.2450 N   0  0  0  0  0  0  0  0  0  0  0  0
  -26.4590  -15.7990   20.4010 H   0  0  0  0  0  0  0  0  0  0  0  0
  -27.9730  -15.3560   19.7850 H   0  0  0  0  0  0  0  0  0  0  0  0
  2  1  1  0
  3  4  1  0
  4  1  2  0
  4 55  1  0
  5  2  2  0
  6  3  2  0
  6  5  1  0
 10  8  1  6
  9 10  1  0
 10  7  1  0
 10  6  1  0
 11  5  1  0
 11 12  1  0
 13 14  1  0
 13 12  1  0
 15 26  2  0
 16 14  1  0
 16 21  1  0
 17 25  1  0
 17 27  1  0
 18 24  1  0
 18 20  1  0
 19 25  1  0
 20 19  1  0
 21 20  2  0
 22 23  1  0
 22 16  2  0
 23 18  2  0
 24 17  1  0
 25 15  1  0
 27 29  2  0
 28 27  1  0
 30 28  1  0
 31 40  2  0
 31 36  1  0
 32 28  1  0
 32 36  1  0
 33 32  1  0
 34 35  1  0
 34 33  1  0
 35 31  1  0
 36 37  2  0
 37 38  1  0
 39 38  2  0
 40 39  1  0
 41 15  1  0
 41 42  1  0
 41 51  1  0
 42 45  1  0
 43 47  1  0
 43 42  1  0
 44 43  2  0
 47 46  1  0
 47 49  1  0
 49 50  1  0
 49 48  1  0
 51 54  1  1
 51 52  1  0
 53 51  1  0
 55 60  1  0
 55 58  1  0
 58 57  1  0
 58 59  1  1
 58 56  1  0
 61 67  1  0
 62 67  1  0
 63 64  1  0
 63 62  1  0
 65 64  1  0
 65 74  1  0
 65 66  1  0
 67 66  1  0
 68 61  2  0
 69 61  1  0
 69 60  1  0
 70 69  1  0
 71 72  2  0
 72 91  1  0
 73 72  1  0
 73 76  1  0
 74 75  1  0
 74 71  1  0
 75 73  2  0
 76 77  1  0
 77 78  2  0
 79 82  1  0
 79 78  1  0
 80 79  2  0
 81 80  1  0
 81 76  2  0
 82 83  1  0
 83 88  2  0
 83 84  1  0
 84 85  2  0
 85 86  1  0
 86 90  1  0
 87 86  2  0
 88 87  1  0
 89 88  1  0
 91 92  1  0
 92 95  1  0
 92 94  1  0
 93 91  2  0
 96 71  1  0
 96 97  1  0
 98 96  1  0
M  ISO  4  13 101  14 101  61 100  69 100
M  END
>  <TORSDO>  (67) 
F 23

>  <SCORE>  (67) 
-7.087

>  <name>  (67) 
69

>  <ligand_id>  (67) 
69

>  <original_smiles>  (67) 
[H]c1c([H])c([H])c2c(c1[H])C([H])([H])C([H])([H])C([H])([H])C2([H])N([H])C(=O)C1([H])N(C(=O)C([H])(N([H])C(=O)C([H])(N([H])C([H])([H])[H])C([H])([H])[H])C(C([H])([H])[H])(C([H])([H])[H])C([H])([H])[H])C([H])([H])c2c([H])c(OC([H])([H])C([H])([H])C([H])([H])c3c([H])c([H])c(C([H])(C([H])([H])N([H])C(=O)N4C([H])([H])C([H])([H])C([H])([H])C([H])(n5nc(-c6c([H])c([H])c(Oc7c([H])c([H])c(F)c([H])c7F)c([H])c6[H])c(C(=O)N([H])[H])c5N([H])[H])C4([H])[H])[N+]([H])(C([H])([H])[H])C([H])([H])[H])c([H])c3C(C([H])([H])[H])(C([H])([H])[H])C([H])([H])[H])c([H])c([H])c2C1([H])[H]

>  <smiles>  (67) 
[H]c1c([H])c([H])c2c(c1[H])C([H])([H])C([H])([H])C([H])([H])C2([H])N([H])C(=O)C1([H])N(C(=O)C([H])(N([H])C(=O)C([H])(N([H])C([H])([H])[H])C([H])([H])[H])C(C([H])([H])[H])(C([H])([H])[H])C([H])([H])[H])C([H])([H])c2c([H])c(OC([H])([H])C([H])([H])C([H])([H])c3c([H])c([H])c(C([H])(C([H])([H])N([H])C(=O)N4C([H])([H])C([H])([H])C([H])([H])C([H])(n5nc(-c6c([H])c([H])c(Oc7c([H])c([H])c(F)c([H])c7F)c([H])c6[H])c(C(=O)N([H])[H])c5N([H])[H])C4([H])[H])[N+]([H])(C([H])([H])[H])C([H])([H])[H])c([H])c3C(C([H])([H])[H])(C([H])([H])[H])C([H])([H])[H])c([H])c([H])c2C1([H])[H]

$$$$
70:0:0
     RDKit          3D

 86 93  0  0  1  0  0  0  0  0999 V2000
  -28.9600  -22.2480   20.2520 C   0  0  0  0  0  3  0  0  0  0  0  0
  -27.6280  -20.0750   19.2160 C   0  0  0  0  0  1  0  0  0  0  0  0
  -28.7040  -20.3380   20.2760 C   0  0  0  0  0  3  0  0  0  0  0  0
  -29.7590  -18.7310   20.2650 C   0  0  0  0  0  2  0  0  0  0  0  0
  -30.2970  -15.6330   20.1860 C   0  0  0  0  0  0  0  0  0  0  0  0
  -30.3610  -13.1170   19.3340 C   0  0  0  0  0  2  0  0  0  0  0  0
  -29.4350  -12.7580   18.1390 C   0  0  0  0  0  2  0  0  0  0  0  0
  -28.0180  -12.4130   18.6240 C   0  0  0  0  0  2  0  0  0  0  0  0
  -27.5460  -13.3900   19.7250 C   0  0  0  0  0  3  0  0  0  0  0  0
  -28.6080  -13.6670   20.8120 C   0  0  0  0  0  2  0  0  0  0  0  0
  -29.7670  -14.2800   20.1290 N   0  0  0  0  0  0  0  0  0  0  0  0
  -31.5220  -15.5890   19.9700 O   0  0  0  0  0  0  0  0  0  0  0  0
  -29.5410  -16.9790   20.2910 N   0  0  0  0  0  0  0  0  0  0  0  0
  -28.5600  -16.7680   20.4170 H   0  0  0  0  0  0  0  0  0  0  0  0
  -25.2030  -13.8960   20.5660 C   0  0  0  0  0  0  0  0  0  0  0  0
  -24.1600  -13.1020   20.9510 C   0  0  0  0  0  0  0  0  0  0  0  0
  -24.6390  -11.7570   20.8830 C   0  0  0  0  0  0  0  0  0  0  0  0
  -26.2450  -13.0370   20.2760 N   0  0  0  0  0  0  0  0  0  0  0  0
  -25.9230  -11.7410   20.5340 N   0  0  0  0  0  0  0  0  0  0  0  0
  -23.9270  -10.4860   21.0700 C   0  0  0  0  0  0  0  0  0  0  0  0
  -24.3780   -9.5120   21.9880 C   0  0  0  0  0  3  0  0  0  0  0  0
  -23.6600   -8.3100   22.1660 C   0  0  0  0  0  3  0  0  0  0  0  0
  -22.4770   -8.0720   21.4280 C   0  0  0  0  0  0  0  0  0  0  0  0
  -22.0450   -9.0340   20.4980 C   0  0  0  0  0  3  0  0  0  0  0  0
  -22.7620  -10.2280   20.3180 C   0  0  0  0  0  3  0  0  0  0  0  0
  -21.7300   -6.9220   21.5170 O   0  0  0  0  0  0  0  0  0  0  0  0
  -21.6860   -6.1780   22.6680 C   0  0  0  0  0  0  0  0  0  0  0  0
  -21.2350   -6.7230   23.8900 C   0  0  0  0  0  3  0  0  0  0  0  0
  -21.1400   -5.9050   25.0340 C   0  0  0  0  0  3  0  0  0  0  0  0
  -21.4880   -4.5440   24.9560 C   0  0  0  0  0  0  0  0  0  0  0  0
  -21.9320   -3.9980   23.7390 C   0  0  0  0  0  3  0  0  0  0  0  0
  -22.0270   -4.8130   22.5980 C   0  0  0  0  0  0  0  0  0  0  0  0
  -22.4360   -4.2760   21.4230 F   0  0  0  0  0  0  0  0  0  0  0  0
  -21.3900   -3.7560   26.0520 F   0  0  0  0  0  0  0  0  0  0  0  0
  -22.7670  -13.5640   21.2610 C   0  0  0  0  0  0  0  0  0  0  0  0
  -22.0690  -12.8540   22.1400 N   0  0  0  0  0  0  0  0  0  0  0  0
  -22.3080  -14.5900   20.7610 O   0  0  0  0  0  0  0  0  0  0  0  0
  -22.4560  -12.0240   22.5660 H   0  0  0  0  0  0  0  0  0  0  0  0
  -21.1360  -13.1450   22.3920 H   0  0  0  0  0  0  0  0  0  0  0  0
  -25.3450  -15.2720   20.4060 N   0  0  0  0  0  0  0  0  0  0  0  0
  -24.5700  -15.9110   20.5460 H   0  0  0  0  0  0  0  0  0  0  0  0
  -26.1660  -15.7230   20.0260 H   0  0  0  0  0  0  0  0  0  0  0  0
  -29.7680  -22.3700   19.0950 O   0  0  0  0  0  0  0  0  0  0  0  0
  -30.1490  -23.2450   19.1050 H   0  0  0  0  0  0  0  0  0  0  0  0
  -27.9590  -23.8930   20.1720 C   0  0  0  0  0  2  0  0  0  0  0  0
  -28.1520  -25.6240   20.2940 O   0  0  0  0  0  0  0  0  0  0  0  0
  -24.6380  -31.8750   23.1910 C   0  0  0  0  0  0  0  0  0  0  0  0
  -27.1720  -26.8150   20.2280 C   0  0  0  0  0  0  0  0  0  0  0  0
  -23.4530  -30.4750   21.5520 C   0  0  0  0  0  3  0  0  0  0  0  0
  -24.9030  -28.8260   20.1510 C   0  0  0  0  0  0  0  0  0  0  0  0
  -26.0310  -30.6220   21.4390 C   0  0  0  0  0  2  0  0  0  0  0  0
  -26.0960  -29.1910   20.7870 C   0  0  0  0  0  0  0  0  0  0  0  0
  -27.2170  -28.2140   20.7920 C   0  0  0  0  0  3  0  0  0  0  0  0
  -25.9460  -26.6480   19.5370 C   0  0  0  0  0  3  0  0  0  0  0  0
  -24.8650  -27.5790   19.5030 C   0  0  0  0  0  3  0  0  0  0  0  0
  -23.6960  -29.7740   20.1840 C   0  0  0  0  0  2  0  0  0  0  0  0
  -24.7310  -31.0220   22.1130 N   0  0  0  0  0  0  0  0  0  0  0  0
  -23.5430  -32.1790   23.6950 O   0  0  0  0  0  0  0  0  0  0  0  0
  -22.7320  -29.5010   22.5210 C   0  0  0  0  0  0  0  0  0  0  0  0
  -21.3980  -29.3570   22.3960 N   0  0  0  0  0  0  0  0  0  0  0  0
  -23.3830  -28.8720   23.3580 O   0  0  0  0  0  0  0  0  0  0  0  0
  -20.9230  -29.9160   21.6990 H   0  0  0  0  0  0  0  0  0  0  0  0
  -17.9970  -28.1910   22.9220 C   0  0  0  0  0  0  0  0  0  0  0  0
  -20.5630  -28.4280   23.1670 C   0  0  0  0  0  3  0  0  0  0  0  0
  -20.6420  -26.9970   22.5850 C   0  0  0  0  0  2  0  0  0  0  0  0
  -19.5300  -26.6930   21.5750 C   0  0  0  0  0  2  0  0  0  0  0  0
  -18.1540  -26.8470   22.2300 C   0  0  0  0  0  2  0  0  0  0  0  0
  -19.1280  -28.9400   23.3460 C   0  0  0  0  0  0  0  0  0  0  0  0
  -18.9230  -30.1970   23.9580 C   0  0  0  0  0  3  0  0  0  0  0  0
  -17.6240  -30.7040   24.1450 C   0  0  0  0  0  3  0  0  0  0  0  0
  -16.5090  -29.9540   23.7320 C   0  0  0  0  0  3  0  0  0  0  0  0
  -16.6980  -28.6980   23.1270 C   0  0  0  0  0  3  0  0  0  0  0  0
  -25.9000  -32.5220   23.8360 C   0  0  0  0  0  3  0  0  0  0  0  0
  -26.3960  -31.7560   25.1260 C   0  0  1  0  0  0  0  0  0  0  0  0
  -25.2880  -31.5290   26.1820 C   0  0  0  0  0  1  0  0  0  0  0  0
  -26.9790  -30.3730   24.7620 C   0  0  0  0  0  1  0  0  0  0  0  0
  -27.5410  -32.5500   25.7990 C   0  0  0  0  0  1  0  0  0  0  0  0
  -25.5760  -33.9200   24.1790 N   0  0  0  0  0  0  0  0  0  0  0  0
  -25.8850  -34.9900   23.4330 C   0  0  0  0  0  0  0  0  0  0  0  0
  -26.5320  -34.9030   22.3860 O   0  0  0  0  0  0  0  0  0  0  0  0
  -24.9960  -34.0600   24.9940 H   0  0  0  0  0  0  0  0  0  0  0  0
  -24.1300  -36.7780   23.1670 C   0  0  0  0  0  1  0  0  0  0  0  0
  -25.4060  -36.3730   23.9220 C   0  0  0  0  0  3  0  0  0  0  0  0
  -27.5610  -37.2810   24.6770 C   0  0  0  0  0  1  0  0  0  0  0  0
  -26.4240  -37.4380   23.7750 N   0  0  0  0  0  0  0  0  0  0  0  0
  -26.0140  -38.3530   23.9390 H   0  0  0  0  0  0  0  0  0  0  0  0
  1 45  1  0
  1  3  1  0
  3  2  1  0
  4  3  1  0
  4 13  1  0
  5 13  1  0
  6 11  1  0
  7  8  1  0
  7  6  1  0
  9  8  1  0
  9 18  1  0
  9 10  1  0
 11  5  1  0
 11 10  1  0
 12  5  2  0
 13 14  1  0
 15 16  2  0
 16 35  1  0
 17 16  1  0
 17 20  1  0
 18 19  1  0
 18 15  1  0
 19 17  2  0
 20 21  1  0
 21 22  2  0
 23 26  1  0
 23 22  1  0
 24 23  2  0
 25 24  1  0
 25 20  2  0
 26 27  1  0
 27 28  1  0
 28 29  2  0
 30 29  1  0
 30 34  1  0
 31 30  2  0
 32 27  2  0
 32 31  1  0
 33 32  1  0
 35 36  1  0
 36 39  1  0
 36 38  1  0
 37 35  2  0
 40 41  1  0
 40 15  1  0
 42 40  1  0
 43 44  1  0
 43  1  1  0
 45 46  1  0
 47 58  2  0
 48 46  1  0
 48 53  1  0
 49 57  1  0
 49 59  1  0
 50 56  1  0
 50 52  1  0
 51 57  1  0
 52 53  2  0
 52 51  1  0
 54 48  2  0
 55 54  1  0
 55 50  2  0
 56 49  1  0
 57 47  1  0
 59 61  2  0
 60 59  1  0
 62 60  1  0
 63 72  2  0
 63 68  1  0
 64 60  1  0
 64 68  1  0
 65 64  1  0
 66 67  1  0
 66 65  1  0
 67 63  1  0
 68 69  2  0
 69 70  1  0
 71 70  2  0
 72 71  1  0
 73 47  1  0
 73 78  1  0
 73 74  1  0
 74 77  1  1
 74 75  1  0
 76 74  1  0
 78 81  1  0
 79 83  1  0
 79 78  1  0
 80 79  2  0
 83 82  1  0
 85 83  1  0
 85 86  1  0
 85 84  1  0
M  ISO  4   5 100  13 100  45 101  46 101
M  END
>  <TORSDO>  (68) 
F 20

>  <SCORE>  (68) 
-16.465

>  <name>  (68) 
70

>  <ligand_id>  (68) 
70

>  <original_smiles>  (68) 
[H]OC([H])(C([H])([H])Oc1c([H])c([H])c2c(c1[H])C([H])([H])N(C(=O)C([H])(N([H])C(=O)C([H])(N([H])C([H])([H])[H])C([H])([H])[H])C(C([H])([H])[H])(C([H])([H])[H])C([H])([H])[H])C([H])(C(=O)N([H])C1([H])c3c([H])c([H])c([H])c([H])c3C([H])([H])C([H])([H])C1([H])[H])C2([H])[H])C([H])(C([H])([H])[H])C([H])([H])N([H])C(=O)N1C([H])([H])C([H])([H])C([H])([H])C([H])(n2nc(-c3c([H])c([H])c(Oc4c([H])c([H])c(F)c([H])c4F)c([H])c3[H])c(C(=O)N([H])[H])c2N([H])[H])C1([H])[H]

>  <smiles>  (68) 
[H]OC([H])(C([H])([H])Oc1c([H])c([H])c2c(c1[H])C([H])([H])N(C(=O)C([H])(N([H])C(=O)C([H])(N([H])C([H])([H])[H])C([H])([H])[H])C(C([H])([H])[H])(C([H])([H])[H])C([H])([H])[H])C([H])(C(=O)N([H])C1([H])c3c([H])c([H])c([H])c([H])c3C([H])([H])C([H])([H])C1([H])[H])C2([H])[H])C([H])(C([H])([H])[H])C([H])([H])N([H])C(=O)N1C([H])([H])C([H])([H])C([H])([H])C([H])(n2nc(-c3c([H])c([H])c(Oc4c([H])c([H])c(F)c([H])c4F)c([H])c3[H])c(C(=O)N([H])[H])c2N([H])[H])C1([H])[H]

$$$$
71:0:0
     RDKit          3D

 91 99  0  0  1  0  0  0  0  0999 V2000
  -29.1090  -21.8220   18.0120 C   0  0  0  0  0  3  0  0  0  0  0  0
  -28.8350  -23.0530   18.6540 C   0  0  0  0  0  3  0  0  0  0  0  0
  -29.4660  -20.6420   18.7040 C   0  0  0  0  0  3  0  0  0  0  0  0
  -28.9650  -23.2240   20.0440 C   0  0  0  0  0  0  0  0  0  0  0  0
  -29.6170  -20.6050   20.1060 C   0  0  0  0  0  0  0  0  0  0  0  0
  -29.4220  -21.9670   20.7420 C   0  0  0  0  0  0  0  0  0  0  0  0
  -29.7980  -22.1130   22.2120 C   0  0  0  0  0  1  0  0  0  0  0  0
  -28.6890  -18.6810   21.5820 C   0  0  0  0  0  1  0  0  0  0  0  0
  -31.1080  -19.1760   21.7470 C   0  0  0  0  0  1  0  0  0  0  0  0
  -29.9300  -19.0820   20.7620 C   0  0  2  0  0  0  0  0  0  0  0  0
  -30.2880  -17.6970   19.8280 C   0  0  0  0  0  2  0  0  0  0  0  0
  -30.9130  -14.9920   19.9430 C   0  0  0  0  0  0  0  0  0  0  0  0
  -30.6810  -12.6630   18.9570 C   0  0  0  0  0  2  0  0  0  0  0  0
  -29.6910  -12.6840   17.7650 C   0  0  0  0  0  2  0  0  0  0  0  0
  -28.2410  -12.5120   18.2530 C   0  0  0  0  0  2  0  0  0  0  0  0
  -27.9200  -13.4030   19.4830 C   0  0  0  0  0  3  0  0  0  0  0  0
  -29.0320  -13.3540   20.5570 C   0  0  0  0  0  2  0  0  0  0  0  0
  -30.2920  -13.7430   19.9160 N   0  0  0  0  0  0  0  0  0  0  0  0
  -32.0610  -15.0520   19.4920 O   0  0  0  0  0  0  0  0  0  0  0  0
  -30.1960  -16.1750   20.2880 N   0  0  0  0  0  0  0  0  0  0  0  0
  -29.3130  -15.9610   20.7330 H   0  0  0  0  0  0  0  0  0  0  0  0
  -25.5870  -14.0120   20.3390 C   0  0  0  0  0  0  0  0  0  0  0  0
  -24.5310  -13.2520   20.7480 C   0  0  0  0  0  0  0  0  0  0  0  0
  -24.9650  -11.8890   20.6770 C   0  0  0  0  0  0  0  0  0  0  0  0
  -26.6000  -13.1180   20.0350 N   0  0  0  0  0  0  0  0  0  0  0  0
  -26.2390  -11.8360   20.3080 N   0  0  0  0  0  0  0  0  0  0  0  0
  -24.2180  -10.6410   20.8760 C   0  0  0  0  0  0  0  0  0  0  0  0
  -24.6260   -9.6830   21.8300 C   0  0  0  0  0  3  0  0  0  0  0  0
  -23.8780   -8.5020   22.0250 C   0  0  0  0  0  3  0  0  0  0  0  0
  -22.7070   -8.2680   21.2670 C   0  0  0  0  0  0  0  0  0  0  0  0
  -22.3160   -9.2150   20.3050 C   0  0  0  0  0  3  0  0  0  0  0  0
  -23.0620  -10.3880   20.1070 C   0  0  0  0  0  3  0  0  0  0  0  0
  -21.9320   -7.1370   21.3720 O   0  0  0  0  0  0  0  0  0  0  0  0
  -21.8060   -6.4560   22.5570 C   0  0  0  0  0  0  0  0  0  0  0  0
  -21.3050   -7.0770   23.7220 C   0  0  0  0  0  3  0  0  0  0  0  0
  -21.1250   -6.3240   24.9000 C   0  0  0  0  0  3  0  0  0  0  0  0
  -21.4370   -4.9520   24.9130 C   0  0  0  0  0  0  0  0  0  0  0  0
  -21.9260   -4.3290   23.7520 C   0  0  0  0  0  3  0  0  0  0  0  0
  -22.1100   -5.0800   22.5760 C   0  0  0  0  0  0  0  0  0  0  0  0
  -22.5610   -4.4700   21.4540 F   0  0  0  0  0  0  0  0  0  0  0  0
  -21.2580   -4.2250   26.0410 F   0  0  0  0  0  0  0  0  0  0  0  0
  -23.1570  -13.7480   21.0930 C   0  0  0  0  0  0  0  0  0  0  0  0
  -22.4630  -13.0670   21.9940 N   0  0  0  0  0  0  0  0  0  0  0  0
  -22.7110  -14.7830   20.5960 O   0  0  0  0  0  0  0  0  0  0  0  0
  -22.8350  -12.2290   22.4180 H   0  0  0  0  0  0  0  0  0  0  0  0
  -21.5450  -13.3860   22.2650 H   0  0  0  0  0  0  0  0  0  0  0  0
  -25.7690  -15.3840   20.1690 N   0  0  0  0  0  0  0  0  0  0  0  0
  -25.0340  -16.0640   20.3350 H   0  0  0  0  0  0  0  0  0  0  0  0
  -26.6000  -15.7990   19.7680 H   0  0  0  0  0  0  0  0  0  0  0  0
  -28.4350  -24.6770   20.6890 C   0  0  0  0  0  2  0  0  0  0  0  0
  -28.5980  -26.1320   20.1240 O   0  0  0  0  0  0  0  0  0  0  0  0
  -24.7330  -31.7190   23.0820 C   0  0  0  0  0  0  0  0  0  0  0  0
  -27.5140  -27.0910   20.1070 C   0  0  0  0  0  0  0  0  0  0  0  0
  -23.6110  -30.3060   21.4000 C   0  0  0  0  0  3  0  0  0  0  0  0
  -25.1420  -28.7850   20.0020 C   0  0  0  0  0  0  0  0  0  0  0  0
  -26.1610  -30.6450   21.2990 C   0  0  0  0  0  2  0  0  0  0  0  0
  -26.2970  -29.2590   20.6440 C   0  0  0  0  0  0  0  0  0  0  0  0
  -27.4870  -28.4350   20.6690 C   0  0  0  0  0  3  0  0  0  0  0  0
  -26.3330  -26.7140   19.4330 C   0  0  0  0  0  3  0  0  0  0  0  0
  -25.1800  -27.5310   19.3710 C   0  0  0  0  0  3  0  0  0  0  0  0
  -23.8860  -29.6460   20.0210 C   0  0  0  0  0  2  0  0  0  0  0  0
  -24.8540  -30.9110   21.9830 N   0  0  0  0  0  0  0  0  0  0  0  0
  -23.6280  -31.9690   23.5900 O   0  0  0  0  0  0  0  0  0  0  0  0
  -22.9360  -29.2730   22.3390 C   0  0  0  0  0  0  0  0  0  0  0  0
  -21.6080  -29.0970   22.2090 N   0  0  0  0  0  0  0  0  0  0  0  0
  -23.6120  -28.6320   23.1470 O   0  0  0  0  0  0  0  0  0  0  0  0
  -21.1200  -29.6710   21.5360 H   0  0  0  0  0  0  0  0  0  0  0  0
  -18.2270  -27.9010   22.7210 C   0  0  0  0  0  0  0  0  0  0  0  0
  -20.7910  -28.1400   22.9600 C   0  0  0  0  0  3  0  0  0  0  0  0
  -20.8770  -26.7290   22.3300 C   0  0  0  0  0  2  0  0  0  0  0  0
  -19.7580  -26.4500   21.3220 C   0  0  0  0  0  2  0  0  0  0  0  0
  -18.3860  -26.5770   21.9900 C   0  0  0  0  0  2  0  0  0  0  0  0
  -19.3570  -28.6420   23.1610 C   0  0  0  0  0  0  0  0  0  0  0  0
  -19.1530  -29.8800   23.8080 C   0  0  0  0  0  3  0  0  0  0  0  0
  -17.8520  -30.3780   24.0140 C   0  0  0  0  0  3  0  0  0  0  0  0
  -16.7380  -29.6350   23.5900 C   0  0  0  0  0  3  0  0  0  0  0  0
  -16.9260  -28.3980   22.9490 C   0  0  0  0  0  3  0  0  0  0  0  0
  -25.9780  -32.3850   23.7420 C   0  0  0  0  0  3  0  0  0  0  0  0
  -26.4880  -31.6130   25.0210 C   0  0  1  0  0  0  0  0  0  0  0  0
  -25.3780  -31.3350   26.0600 C   0  0  0  0  0  1  0  0  0  0  0  0
  -27.1170  -30.2530   24.6340 C   0  0  0  0  0  1  0  0  0  0  0  0
  -27.5960  -32.4350   25.7240 C   0  0  0  0  0  1  0  0  0  0  0  0
  -25.6160  -33.7700   24.0920 N   0  0  0  0  0  0  0  0  0  0  0  0
  -25.9300  -34.8520   23.3660 C   0  0  0  0  0  0  0  0  0  0  0  0
  -26.6220  -34.7940   22.3460 O   0  0  0  0  0  0  0  0  0  0  0  0
  -25.0070  -33.8890   24.8880 H   0  0  0  0  0  0  0  0  0  0  0  0
  -24.1550  -36.6050   23.0220 C   0  0  0  0  0  1  0  0  0  0  0  0
  -25.3930  -36.2160   23.8460 C   0  0  0  0  0  3  0  0  0  0  0  0
  -27.4800  -37.1470   24.7440 C   0  0  0  0  0  1  0  0  0  0  0  0
  -26.3950  -37.3030   23.7790 N   0  0  0  0  0  0  0  0  0  0  0  0
  -25.9570  -38.2060   23.9370 H   0  0  0  0  0  0  0  0  0  0  0  0
  1  2  2  0
  1  3  1  0
  2  4  1  0
  3  5  2  0
  4 50  1  0
  4  6  2  0
  5  6  1  0
  5 10  1  0
  6  7  1  0
 10  8  1  1
 10  9  1  0
 11 20  1  0
 11 10  1  0
 12 20  1  0
 13 18  1  0
 14 15  1  0
 14 13  1  0
 16 15  1  0
 16 25  1  0
 16 17  1  0
 18 12  1  0
 18 17  1  0
 19 12  2  0
 20 21  1  0
 22 23  2  0
 23 42  1  0
 24 23  1  0
 24 27  1  0
 25 26  1  0
 25 22  1  0
 26 24  2  0
 27 28  1  0
 28 29  2  0
 30 33  1  0
 30 29  1  0
 31 30  2  0
 32 31  1  0
 32 27  2  0
 33 34  1  0
 34 39  2  0
 34 35  1  0
 35 36  2  0
 36 37  1  0
 37 41  1  0
 38 37  2  0
 39 38  1  0
 40 39  1  0
 42 43  1  0
 43 46  1  0
 43 45  1  0
 44 42  2  0
 47 48  1  0
 47 22  1  0
 49 47  1  0
 51 50  1  0
 52 63  2  0
 53 51  1  0
 53 58  1  0
 54 62  1  0
 54 64  1  0
 55 61  1  0
 55 57  1  0
 56 62  1  0
 57 58  2  0
 57 56  1  0
 59 53  2  0
 60 59  1  0
 60 55  2  0
 61 54  1  0
 62 52  1  0
 64 66  2  0
 65 64  1  0
 67 65  1  0
 68 77  2  0
 68 73  1  0
 69 65  1  0
 69 73  1  0
 70 69  1  0
 71 72  1  0
 71 70  1  0
 72 68  1  0
 73 74  2  0
 74 75  1  0
 76 75  2  0
 77 76  1  0
 78 52  1  0
 78 83  1  0
 78 79  1  0
 79 82  1  1
 79 80  1  0
 81 79  1  0
 83 86  1  0
 84 88  1  0
 84 83  1  0
 85 84  2  0
 88 87  1  0
 90 88  1  0
 90 91  1  0
 90 89  1  0
M  ISO  4  12 100  20 100  50 101  51 101
M  END
>  <TORSDO>  (69) 
F 19

>  <SCORE>  (69) 
-13.208

>  <name>  (69) 
71

>  <ligand_id>  (69) 
71

>  <original_smiles>  (69) 
[H]c1c([H])c([H])c2c(c1[H])C([H])([H])C([H])([H])C([H])([H])C2([H])N([H])C(=O)C1([H])N(C(=O)C([H])(N([H])C(=O)C([H])(N([H])C([H])([H])[H])C([H])([H])[H])C(C([H])([H])[H])(C([H])([H])[H])C([H])([H])[H])C([H])([H])c2c([H])c(OC([H])([H])c3c([H])c([H])c([H])c(C(C([H])([H])[H])(C([H])([H])[H])C([H])([H])N([H])C(=O)N4C([H])([H])C([H])([H])C([H])([H])C([H])(n5nc(-c6c([H])c([H])c(Oc7c([H])c([H])c(F)c([H])c7F)c([H])c6[H])c(C(=O)N([H])[H])c5N([H])[H])C4([H])[H])c3C([H])([H])[H])c([H])c([H])c2C1([H])[H]

>  <smiles>  (69) 
[H]c1c([H])c([H])c2c(c1[H])C([H])([H])C([H])([H])C([H])([H])C2([H])N([H])C(=O)C1([H])N(C(=O)C([H])(N([H])C(=O)C([H])(N([H])C([H])([H])[H])C([H])([H])[H])C(C([H])([H])[H])(C([H])([H])[H])C([H])([H])[H])C([H])([H])c2c([H])c(OC([H])([H])c3c([H])c([H])c([H])c(C(C([H])([H])[H])(C([H])([H])[H])C([H])([H])N([H])C(=O)N4C([H])([H])C([H])([H])C([H])([H])C([H])(n5nc(-c6c([H])c([H])c(Oc7c([H])c([H])c(F)c([H])c7F)c([H])c6[H])c(C(=O)N([H])[H])c5N([H])[H])C4([H])[H])c3C([H])([H])[H])c([H])c([H])c2C1([H])[H]

$$$$
72:0:0
     RDKit          3D

 96104  0  0  1  0  0  0  0  0999 V2000
  -30.7870  -21.7690   20.0480 C   0  0  0  0  0  3  0  0  0  0  0  0
  -31.1030  -20.3900   20.0310 C   0  0  0  0  0  3  0  0  0  0  0  0
  -30.6760  -22.4350   21.2900 C   0  0  0  0  0  0  0  0  0  0  0  0
  -31.3120  -19.7230   21.2570 C   0  0  0  0  0  0  0  0  0  0  0  0
  -30.9320  -21.6790   22.4560 C   0  0  0  0  0  0  0  0  0  0  0  0
  -31.2580  -20.3770   22.4320 N   0  0  0  0  0  0  0  0  0  0  0  0
  -30.8280  -22.2630   23.7200 N   0  0  0  0  0  0  0  0  0  0  0  0
  -30.6150  -23.2490   23.7600 H   0  0  0  0  0  0  0  0  0  0  0  0
  -30.3950  -21.4570   24.8540 C   0  0  0  0  0  2  0  0  0  0  0  0
  -31.4800  -22.9050   26.6530 C   0  0  0  0  0  1  0  0  0  0  0  0
  -29.1150  -23.4170   25.8500 C   0  0  0  0  0  1  0  0  0  0  0  0
  -30.1640  -22.3240   26.1040 C   0  0  0  0  0  3  0  0  0  0  0  0
  -30.1980  -23.8870   21.4400 C   0  0  0  0  0  2  0  0  0  0  0  0
  -30.1780  -24.8700   20.2410 C   0  0  0  0  0  2  0  0  0  0  0  0
  -29.1040  -25.9460   20.5440 C   0  0  0  0  0  2  0  0  0  0  0  0
  -29.0680  -27.1200   19.7130 O   0  0  0  0  0  0  0  0  0  0  0  0
  -24.6000  -31.5290   23.1060 C   0  0  0  0  0  0  0  0  0  0  0  0
  -27.8280  -27.7320   19.7260 C   0  0  0  0  0  0  0  0  0  0  0  0
  -23.5990  -30.0880   21.3620 C   0  0  0  0  0  3  0  0  0  0  0  0
  -25.2500  -28.8830   19.8350 C   0  0  0  0  0  0  0  0  0  0  0  0
  -26.0480  -30.8150   21.2050 C   0  0  0  0  0  2  0  0  0  0  0  0
  -26.3240  -29.5180   20.4690 C   0  0  0  0  0  0  0  0  0  0  0  0
  -27.6200  -28.9490   20.4150 C   0  0  0  0  0  3  0  0  0  0  0  0
  -26.7370  -27.1320   19.0610 C   0  0  0  0  0  3  0  0  0  0  0  0
  -25.4480  -27.6890   19.1240 C   0  0  0  0  0  3  0  0  0  0  0  0
  -23.8960  -29.5510   19.9380 C   0  0  0  0  0  2  0  0  0  0  0  0
  -24.7650  -30.8230   21.9510 N   0  0  0  0  0  0  0  0  0  0  0  0
  -23.4970  -31.6040   23.6610 O   0  0  0  0  0  0  0  0  0  0  0  0
  -23.1010  -28.9180   22.2450 C   0  0  0  0  0  0  0  0  0  0  0  0
  -21.8290  -28.5280   22.0670 N   0  0  0  0  0  0  0  0  0  0  0  0
  -23.8600  -28.3660   23.0450 O   0  0  0  0  0  0  0  0  0  0  0  0
  -21.2600  -29.0500   21.4170 H   0  0  0  0  0  0  0  0  0  0  0  0
  -18.7130  -26.7170   22.3290 C   0  0  0  0  0  0  0  0  0  0  0  0
  -21.1620  -27.4230   22.7590 C   0  0  0  0  0  3  0  0  0  0  0  0
  -21.5570  -26.0580   22.1480 C   0  0  0  0  0  2  0  0  0  0  0  0
  -20.5880  -25.5840   21.0600 C   0  0  0  0  0  2  0  0  0  0  0  0
  -19.1690  -25.4500   21.6230 C   0  0  0  0  0  2  0  0  0  0  0  0
  -19.6480  -27.6490   22.8470 C   0  0  0  0  0  0  0  0  0  0  0  0
  -19.1720  -28.8270   23.4620 C   0  0  0  0  0  3  0  0  0  0  0  0
  -17.7910  -29.0800   23.5620 C   0  0  0  0  0  3  0  0  0  0  0  0
  -16.8680  -28.1440   23.0650 C   0  0  0  0  0  3  0  0  0  0  0  0
  -17.3280  -26.9650   22.4530 C   0  0  0  0  0  3  0  0  0  0  0  0
  -25.7870  -32.2910   23.7700 C   0  0  0  0  0  3  0  0  0  0  0  0
  -25.3230  -33.6490   24.0790 N   0  0  0  0  0  0  0  0  0  0  0  0
  -25.5770  -34.7300   23.3280 C   0  0  0  0  0  0  0  0  0  0  0  0
  -26.2980  -34.6970   22.3260 O   0  0  0  0  0  0  0  0  0  0  0  0
  -24.6810  -33.7440   24.8510 H   0  0  0  0  0  0  0  0  0  0  0  0
  -23.6810  -36.3270   22.9020 C   0  0  0  0  0  1  0  0  0  0  0  0
  -24.9330  -36.0630   23.7540 C   0  0  0  0  0  3  0  0  0  0  0  0
  -26.9370  -37.1790   24.6320 C   0  0  0  0  0  1  0  0  0  0  0  0
  -25.8500  -37.2200   23.6570 N   0  0  0  0  0  0  0  0  0  0  0  0
  -25.3430  -38.0910   23.7860 H   0  0  0  0  0  0  0  0  0  0  0  0
  -26.3360  -31.5790   25.0650 C   0  0  1  0  0  0  0  0  0  0  0  0
  -25.2390  -31.2220   26.0950 C   0  0  0  0  0  1  0  0  0  0  0  0
  -27.0750  -30.2720   24.6910 C   0  0  0  0  0  1  0  0  0  0  0  0
  -27.3690  -32.4900   25.7700 C   0  0  0  0  0  1  0  0  0  0  0  0
  -31.5330  -18.2140   21.3850 C   0  0  0  0  0  2  0  0  0  0  0  0
  -30.2550  -17.4350   21.0000 C   0  0  0  0  0  2  0  0  0  0  0  0
  -31.0410  -15.0640   20.7770 C   0  0  0  0  0  0  0  0  0  0  0  0
  -30.8630  -12.9410   19.5490 C   0  0  0  0  0  2  0  0  0  0  0  0
  -29.9590  -13.1830   18.3200 C   0  0  0  0  0  2  0  0  0  0  0  0
  -28.4690  -13.0070   18.6810 C   0  0  0  0  0  2  0  0  0  0  0  0
  -28.0700  -13.7900   19.9600 C   0  0  0  0  0  3  0  0  0  0  0  0
  -29.0820  -13.5080   21.0980 C   0  0  0  0  0  2  0  0  0  0  0  0
  -30.4300  -13.8610   20.6090 N   0  0  0  0  0  0  0  0  0  0  0  0
  -32.1540  -15.3390   20.3200 O   0  0  0  0  0  0  0  0  0  0  0  0
  -30.2480  -16.0010   21.3110 N   0  0  0  0  0  0  0  0  0  0  0  0
  -29.3800  -15.6450   21.6820 H   0  0  0  0  0  0  0  0  0  0  0  0
  -25.6180  -14.3460   20.5330 C   0  0  0  0  0  0  0  0  0  0  0  0
  -24.5510  -13.5490   20.8480 C   0  0  0  0  0  0  0  0  0  0  0  0
  -25.0450  -12.2090   20.8410 C   0  0  0  0  0  0  0  0  0  0  0  0
  -26.6980  -13.4900   20.3630 N   0  0  0  0  0  0  0  0  0  0  0  0
  -26.3500  -12.2000   20.6010 N   0  0  0  0  0  0  0  0  0  0  0  0
  -24.3420  -10.9280   20.9950 C   0  0  0  0  0  0  0  0  0  0  0  0
  -24.7390   -9.9800   21.9640 C   0  0  0  0  0  3  0  0  0  0  0  0
  -24.0360   -8.7640   22.1060 C   0  0  0  0  0  3  0  0  0  0  0  0
  -22.9220   -8.4880   21.2760 C   0  0  0  0  0  0  0  0  0  0  0  0
  -22.5450   -9.4260   20.2990 C   0  0  0  0  0  3  0  0  0  0  0  0
  -23.2500  -10.6340   20.1570 C   0  0  0  0  0  3  0  0  0  0  0  0
  -22.1950   -7.3230   21.3260 O   0  0  0  0  0  0  0  0  0  0  0  0
  -22.0310   -6.6250   22.4960 C   0  0  0  0  0  0  0  0  0  0  0  0
  -21.4660   -7.2190   23.6460 C   0  0  0  0  0  3  0  0  0  0  0  0
  -21.2520   -6.4460   24.8040 C   0  0  0  0  0  3  0  0  0  0  0  0
  -21.5940   -5.0810   24.8130 C   0  0  0  0  0  0  0  0  0  0  0  0
  -22.1520   -4.4860   23.6660 C   0  0  0  0  0  3  0  0  0  0  0  0
  -22.3680   -5.2570   22.5100 C   0  0  0  0  0  0  0  0  0  0  0  0
  -22.8850   -4.6750   21.4020 F   0  0  0  0  0  0  0  0  0  0  0  0
  -21.3810   -4.3360   25.9230 F   0  0  0  0  0  0  0  0  0  0  0  0
  -23.1290  -13.9910   21.0490 C   0  0  0  0  0  0  0  0  0  0  0  0
  -22.3810  -13.2940   21.8980 N   0  0  0  0  0  0  0  0  0  0  0  0
  -22.6850  -14.9920   20.4870 O   0  0  0  0  0  0  0  0  0  0  0  0
  -22.7470  -12.4830   22.3740 H   0  0  0  0  0  0  0  0  0  0  0  0
  -21.4280  -13.5780   22.0770 H   0  0  0  0  0  0  0  0  0  0  0  0
  -25.7540  -15.7210   20.3630 N   0  0  0  0  0  0  0  0  0  0  0  0
  -24.9640  -16.3520   20.4390 H   0  0  0  0  0  0  0  0  0  0  0  0
  -26.6110  -16.1910   20.0950 H   0  0  0  0  0  0  0  0  0  0  0  0
  1  3  1  0
  2  1  2  0
  2  4  1  0
  3 13  1  0
  3  5  2  0
  4 57  1  0
  4  6  2  0
  5  7  1  0
  6  5  1  0
  7  8  1  0
  7  9  1  0
  9 12  1  0
 11 12  1  0
 12 10  1  0
 14 15  1  0
 14 13  1  0
 16 18  1  0
 16 15  1  0
 17 28  2  0
 18 23  1  0
 19 27  1  0
 19 29  1  0
 20 26  1  0
 20 22  1  0
 21 27  1  0
 22 21  1  0
 23 22  2  0
 24 25  1  0
 24 18  2  0
 25 20  2  0
 26 19  1  0
 27 17  1  0
 29 31  2  0
 30 29  1  0
 32 30  1  0
 33 42  2  0
 33 38  1  0
 34 30  1  0
 34 38  1  0
 35 34  1  0
 36 37  1  0
 36 35  1  0
 37 33  1  0
 38 39  2  0
 39 40  1  0
 41 40  2  0
 42 41  1  0
 43 17  1  0
 43 44  1  0
 43 53  1  0
 44 47  1  0
 45 49  1  0
 45 44  1  0
 46 45  2  0
 49 48  1  0
 51 49  1  0
 51 52  1  0
 51 50  1  0
 53 56  1  1
 53 54  1  0
 55 53  1  0
 58 67  1  0
 58 57  1  0
 59 67  1  0
 60 65  1  0
 61 62  1  0
 61 60  1  0
 63 62  1  0
 63 72  1  0
 63 64  1  0
 65 59  1  0
 65 64  1  0
 66 59  2  0
 67 68  1  0
 69 70  2  0
 70 89  1  0
 71 70  1  0
 71 74  1  0
 72 69  1  0
 72 73  1  0
 73 71  2  0
 74 75  1  0
 75 76  2  0
 77 80  1  0
 77 76  1  0
 78 77  2  0
 79 78  1  0
 79 74  2  0
 80 81  1  0
 81 86  2  0
 81 82  1  0
 82 83  2  0
 83 84  1  0
 84 88  1  0
 85 84  2  0
 86 85  1  0
 87 86  1  0
 89 90  1  0
 90 93  1  0
 90 92  1  0
 91 89  2  0
 94 95  1  0
 94 69  1  0
 96 94  1  0
M  ISO  4  15 101  16 101  59 100  67 100
M  END
>  <TORSDO>  (70) 
F 24

>  <SCORE>  (70) 
-4.110

>  <name>  (70) 
72

>  <ligand_id>  (70) 
72

>  <original_smiles>  (70) 
[H]c1c(C([H])([H])C([H])([H])N([H])C(=O)N2C([H])([H])C([H])([H])C([H])([H])C([H])(n3nc(-c4c([H])c([H])c(Oc5c([H])c([H])c(F)c([H])c5F)c([H])c4[H])c(C(=O)N([H])[H])c3N([H])[H])C2([H])[H])nc(N([H])C([H])([H])C([H])(C([H])([H])[H])C([H])([H])[H])c(C([H])([H])C([H])([H])C([H])([H])Oc2c([H])c([H])c3c(c2[H])C([H])([H])N(C(=O)C([H])(N([H])C(=O)C([H])(N([H])C([H])([H])[H])C([H])([H])[H])C(C([H])([H])[H])(C([H])([H])[H])C([H])([H])[H])C([H])(C(=O)N([H])C2([H])c4c([H])c([H])c([H])c([H])c4C([H])([H])C([H])([H])C2([H])[H])C3([H])[H])c1[H]

>  <smiles>  (70) 
[H]c1c(C([H])([H])C([H])([H])N([H])C(=O)N2C([H])([H])C([H])([H])C([H])([H])C([H])(n3nc(-c4c([H])c([H])c(Oc5c([H])c([H])c(F)c([H])c5F)c([H])c4[H])c(C(=O)N([H])[H])c3N([H])[H])C2([H])[H])nc(N([H])C([H])([H])C([H])(C([H])([H])[H])C([H])([H])[H])c(C([H])([H])C([H])([H])C([H])([H])Oc2c([H])c([H])c3c(c2[H])C([H])([H])N(C(=O)C([H])(N([H])C(=O)C([H])(N([H])C([H])([H])[H])C([H])([H])[H])C(C([H])([H])[H])(C([H])([H])[H])C([H])([H])[H])C([H])(C(=O)N([H])C2([H])c4c([H])c([H])c([H])c([H])c4C([H])([H])C([H])([H])C2([H])[H])C3([H])[H])c1[H]

$$$$
73:0:0
     RDKit          3D

 99107  0  0  1  0  0  0  0  0999 V2000
  -31.7440  -18.9640   19.6410 C   0  0  0  0  0  3  0  0  0  0  0  0
  -31.5870  -18.2390   20.7940 C   0  0  0  0  0  0  0  0  0  0  0  0
  -31.0680  -19.1550   21.7740 C   0  0  0  0  0  0  0  0  0  0  0  0
  -31.0290  -20.4140   21.2020 C   0  0  0  0  0  0  0  0  0  0  0  0
  -31.4600  -20.3000   19.8820 N   0  0  0  0  0  0  0  0  0  0  0  0
  -31.1540  -21.9640   23.2360 C   0  0  0  0  0  1  0  0  0  0  0  0
  -29.1790  -22.1020   21.6340 C   0  0  0  0  0  1  0  0  0  0  0  0
  -30.6700  -21.7660   21.7900 C   0  0  0  0  0  3  0  0  0  0  0  0
  -31.5410  -19.6780   24.2080 C   0  0  0  0  0  1  0  0  0  0  0  0
  -30.7120  -18.8360   23.2220 C   0  0  0  0  0  3  0  0  0  0  0  0
  -30.7320  -17.3360   23.5750 C   0  0  0  0  0  2  0  0  0  0  0  0
  -30.6020  -14.9300   22.7530 C   0  0  0  0  0  1  0  0  0  0  0  0
  -30.5420  -16.4100   22.3620 C   0  0  0  0  0  2  0  0  0  0  0  0
  -31.7300  -21.3930   18.9290 C   0  0  0  0  0  2  0  0  0  0  0  0
  -30.5020  -22.1850   18.3890 C   0  0  0  0  0  2  0  0  0  0  0  0
  -30.4390  -23.7090   16.3270 C   0  0  0  0  0  1  0  0  0  0  0  0
  -30.8960  -23.5730   17.7910 C   0  0  0  0  0  3  0  0  0  0  0  0
  -30.5660  -24.8310   18.6660 C   0  0  0  0  0  2  0  0  0  0  0  0
  -29.1180  -25.3900   18.6250 C   0  0  0  0  0  2  0  0  0  0  0  0
  -28.9980  -26.6320   19.3540 O   0  0  0  0  0  0  0  0  0  0  0  0
  -24.7550  -31.0740   23.0250 C   0  0  0  0  0  0  0  0  0  0  0  0
  -27.7480  -27.2290   19.4450 C   0  0  0  0  0  0  0  0  0  0  0  0
  -23.6540  -29.7340   21.2650 C   0  0  0  0  0  3  0  0  0  0  0  0
  -25.2150  -28.4960   19.6720 C   0  0  0  0  0  0  0  0  0  0  0  0
  -26.1350  -30.3430   21.0790 C   0  0  0  0  0  2  0  0  0  0  0  0
  -26.3360  -29.0610   20.2930 C   0  0  0  0  0  0  0  0  0  0  0  0
  -27.6010  -28.4340   20.1800 C   0  0  0  0  0  3  0  0  0  0  0  0
  -26.5970  -26.6800   18.8320 C   0  0  0  0  0  3  0  0  0  0  0  0
  -25.3410  -27.3050   18.9420 C   0  0  0  0  0  3  0  0  0  0  0  0
  -23.8980  -29.2220   19.8220 C   0  0  0  0  0  2  0  0  0  0  0  0
  -24.8670  -30.3940   21.8480 N   0  0  0  0  0  0  0  0  0  0  0  0
  -23.6630  -31.1850   23.6000 O   0  0  0  0  0  0  0  0  0  0  0  0
  -23.1250  -28.5610   22.1210 C   0  0  0  0  0  0  0  0  0  0  0  0
  -21.8320  -28.2360   21.9580 N   0  0  0  0  0  0  0  0  0  0  0  0
  -23.8730  -27.9490   22.8870 O   0  0  0  0  0  0  0  0  0  0  0  0
  -21.2830  -28.7880   21.3160 H   0  0  0  0  0  0  0  0  0  0  0  0
  -18.6240  -26.5990   22.2790 C   0  0  0  0  0  0  0  0  0  0  0  0
  -21.1270  -27.1430   22.6290 C   0  0  0  0  0  3  0  0  0  0  0  0
  -21.4120  -25.7900   21.9350 C   0  0  0  0  0  2  0  0  0  0  0  0
  -20.3700  -25.4220   20.8750 C   0  0  0  0  0  2  0  0  0  0  0  0
  -18.9730  -25.3440   21.4970 C   0  0  0  0  0  2  0  0  0  0  0  0
  -19.6350  -27.4540   22.7960 C   0  0  0  0  0  0  0  0  0  0  0  0
  -19.2570  -28.6290   23.4800 C   0  0  0  0  0  3  0  0  0  0  0  0
  -17.8990  -28.9500   23.6620 C   0  0  0  0  0  3  0  0  0  0  0  0
  -16.9020  -28.0920   23.1650 C   0  0  0  0  0  3  0  0  0  0  0  0
  -17.2660  -26.9210   22.4770 C   0  0  0  0  0  3  0  0  0  0  0  0
  -25.9850  -31.7610   23.6920 C   0  0  0  0  0  3  0  0  0  0  0  0
  -26.5150  -30.9900   24.9640 C   0  0  1  0  0  0  0  0  0  0  0  0
  -25.4120  -30.6640   26.0000 C   0  0  0  0  0  1  0  0  0  0  0  0
  -27.1850  -29.6570   24.5560 C   0  0  0  0  0  1  0  0  0  0  0  0
  -27.6120  -31.8280   25.6640 C   0  0  0  0  0  1  0  0  0  0  0  0
  -25.5910  -33.1330   24.0430 N   0  0  0  0  0  0  0  0  0  0  0  0
  -25.8970  -34.2200   23.3230 C   0  0  0  0  0  0  0  0  0  0  0  0
  -26.6120  -34.1780   22.3170 O   0  0  0  0  0  0  0  0  0  0  0  0
  -24.9680  -33.2390   24.8310 H   0  0  0  0  0  0  0  0  0  0  0  0
  -24.0870  -35.9240   22.9430 C   0  0  0  0  0  1  0  0  0  0  0  0
  -25.3180  -35.5690   23.7910 C   0  0  0  0  0  3  0  0  0  0  0  0
  -27.3630  -36.5520   24.7270 C   0  0  0  0  0  1  0  0  0  0  0  0
  -26.2950  -36.6800   23.7410 N   0  0  0  0  0  0  0  0  0  0  0  0
  -25.8320  -37.5740   23.8830 H   0  0  0  0  0  0  0  0  0  0  0  0
  -32.0350  -16.7890   21.0060 C   0  0  0  0  0  2  0  0  0  0  0  0
  -31.5890  -14.7050   19.7230 C   0  0  0  0  0  0  0  0  0  0  0  0
  -31.0930  -12.5300   18.6610 C   0  0  0  0  0  2  0  0  0  0  0  0
  -30.0660  -12.6950   17.5260 C   0  0  0  0  0  2  0  0  0  0  0  0
  -28.6310  -12.6080   18.0770 C   0  0  0  0  0  2  0  0  0  0  0  0
  -28.4120  -13.5150   19.3170 C   0  0  0  0  0  3  0  0  0  0  0  0
  -29.5470  -13.3390   20.3510 C   0  0  0  0  0  2  0  0  0  0  0  0
  -30.8300  -13.5760   19.6660 N   0  0  0  0  0  0  0  0  0  0  0  0
  -32.6250  -14.8310   19.0660 O   0  0  0  0  0  0  0  0  0  0  0  0
  -31.1670  -15.6980   20.5300 N   0  0  0  0  0  0  0  0  0  0  0  0
  -30.2910  -15.5660   21.0100 H   0  0  0  0  0  0  0  0  0  0  0  0
  -26.1480  -14.2200   20.3110 C   0  0  0  0  0  0  0  0  0  0  0  0
  -25.0680  -13.4940   20.7370 C   0  0  0  0  0  0  0  0  0  0  0  0
  -25.4160  -12.1210   20.5510 C   0  0  0  0  0  0  0  0  0  0  0  0
  -27.0970  -13.2910   19.9140 N   0  0  0  0  0  0  0  0  0  0  0  0
  -26.6640  -12.0190   20.1080 N   0  0  0  0  0  0  0  0  0  0  0  0
  -24.6140  -10.9020   20.7090 C   0  0  0  0  0  0  0  0  0  0  0  0
  -24.9930   -9.8790   21.6060 C   0  0  0  0  0  3  0  0  0  0  0  0
  -24.1960   -8.7240   21.7550 C   0  0  0  0  0  3  0  0  0  0  0  0
  -23.0020   -8.5840   21.0070 C   0  0  0  0  0  0  0  0  0  0  0  0
  -22.6400   -9.5950   20.0990 C   0  0  0  0  0  3  0  0  0  0  0  0
  -23.4390  -10.7420   19.9480 C   0  0  0  0  0  3  0  0  0  0  0  0
  -22.1770   -7.4880   21.0690 O   0  0  0  0  0  0  0  0  0  0  0  0
  -21.9860   -6.7950   22.2370 C   0  0  0  0  0  0  0  0  0  0  0  0
  -21.4720   -7.4180   23.3960 C   0  0  0  0  0  3  0  0  0  0  0  0
  -21.2270   -6.6530   24.5550 C   0  0  0  0  0  3  0  0  0  0  0  0
  -21.4830   -5.2700   24.5560 C   0  0  0  0  0  0  0  0  0  0  0  0
  -21.9900   -4.6470   23.4000 C   0  0  0  0  0  3  0  0  0  0  0  0
  -22.2370   -5.4080   22.2430 C   0  0  0  0  0  0  0  0  0  0  0  0
  -22.7060   -4.7990   21.1270 F   0  0  0  0  0  0  0  0  0  0  0  0
  -21.2390   -4.5340   25.6650 F   0  0  0  0  0  0  0  0  0  0  0  0
  -23.7470  -14.0420   21.1960 C   0  0  0  0  0  0  0  0  0  0  0  0
  -23.0660  -13.3330   22.0890 N   0  0  0  0  0  0  0  0  0  0  0  0
  -23.3330  -15.1310   20.7990 O   0  0  0  0  0  0  0  0  0  0  0  0
  -23.4140  -12.4480   22.4280 H   0  0  0  0  0  0  0  0  0  0  0  0
  -22.1830  -13.6770   22.4370 H   0  0  0  0  0  0  0  0  0  0  0  0
  -26.3930  -15.5840   20.1990 N   0  0  0  0  0  0  0  0  0  0  0  0
  -25.6930  -16.2810   20.4250 H   0  0  0  0  0  0  0  0  0  0  0  0
  -27.2440  -15.9840   19.8250 H   0  0  0  0  0  0  0  0  0  0  0  0
  1  5  1  0
  1  2  2  0
  2 61  1  0
  2  3  1  0
  3 10  1  0
  4  3  2  0
  4  8  1  0
  5  4  1  0
  7  8  1  0
  8  6  1  0
 10 11  1  0
 10  9  1  0
 13 12  1  0
 13 11  1  0
 14  5  1  0
 15 14  1  0
 17 16  1  0
 17 15  1  0
 17 18  1  0
 19 18  1  0
 19 20  1  0
 20 22  1  0
 21 32  2  0
 22 27  1  0
 23 31  1  0
 23 33  1  0
 24 30  1  0
 24 26  1  0
 25 31  1  0
 26 25  1  0
 27 26  2  0
 28 29  1  0
 28 22  2  0
 29 24  2  0
 30 23  1  0
 31 21  1  0
 33 35  2  0
 34 33  1  0
 36 34  1  0
 37 46  2  0
 37 42  1  0
 38 34  1  0
 38 42  1  0
 39 38  1  0
 40 41  1  0
 40 39  1  0
 41 37  1  0
 42 43  2  0
 43 44  1  0
 45 44  2  0
 46 45  1  0
 47 21  1  0
 47 52  1  0
 47 48  1  0
 48 51  1  1
 48 49  1  0
 50 48  1  0
 52 55  1  0
 53 57  1  0
 53 52  1  0
 54 53  2  0
 57 56  1  0
 59 57  1  0
 59 60  1  0
 59 58  1  0
 62 70  1  0
 63 68  1  0
 64 65  1  0
 64 63  1  0
 66 65  1  0
 66 75  1  0
 66 67  1  0
 68 62  1  0
 68 67  1  0
 69 62  2  0
 70 61  1  0
 70 71  1  0
 72 73  2  0
 73 92  1  0
 74 77  1  0
 74 73  1  0
 75 76  1  0
 75 72  1  0
 76 74  2  0
 77 78  1  0
 78 79  2  0
 80 83  1  0
 80 79  1  0
 81 80  2  0
 82 81  1  0
 82 77  2  0
 83 84  1  0
 84 89  2  0
 84 85  1  0
 85 86  2  0
 86 87  1  0
 87 91  1  0
 88 87  2  0
 89 88  1  0
 90 89  1  0
 92 93  1  0
 93 95  1  0
 93 96  1  0
 94 92  2  0
 97 72  1  0
 97 98  1  0
 99 97  1  0
M  ISO  4  19 101  20 101  62 100  70 100
M  END
>  <TORSDO>  (71) 
F 26

>  <SCORE>  (71) 
-6.412

>  <name>  (71) 
73

>  <ligand_id>  (71) 
73

>  <original_smiles>  (71) 
[H]c1c([H])c([H])c2c(c1[H])C([H])([H])C([H])([H])C([H])([H])C2([H])N([H])C(=O)C1([H])N(C(=O)C([H])(N([H])C(=O)C([H])(N([H])C([H])([H])[H])C([H])([H])[H])C(C([H])([H])[H])(C([H])([H])[H])C([H])([H])[H])C([H])([H])c2c([H])c(OC([H])([H])C([H])([H])C([H])(C([H])([H])[H])C([H])([H])C([H])([H])n3c([H])c(C([H])([H])N([H])C(=O)N4C([H])([H])C([H])([H])C([H])([H])C([H])(n5nc(-c6c([H])c([H])c(Oc7c([H])c([H])c(F)c([H])c7F)c([H])c6[H])c(C(=O)N([H])[H])c5N([H])[H])C4([H])[H])c(C([H])(C([H])([H])[H])C([H])([H])C([H])([H])C([H])([H])[H])c3C([H])(C([H])([H])[H])C([H])([H])[H])c([H])c([H])c2C1([H])[H]

>  <smiles>  (71) 
[H]c1c([H])c([H])c2c(c1[H])C([H])([H])C([H])([H])C([H])([H])C2([H])N([H])C(=O)C1([H])N(C(=O)C([H])(N([H])C(=O)C([H])(N([H])C([H])([H])[H])C([H])([H])[H])C(C([H])([H])[H])(C([H])([H])[H])C([H])([H])[H])C([H])([H])c2c([H])c(OC([H])([H])C([H])([H])C([H])(C([H])([H])[H])C([H])([H])C([H])([H])n3c([H])c(C([H])([H])N([H])C(=O)N4C([H])([H])C([H])([H])C([H])([H])C([H])(n5nc(-c6c([H])c([H])c(Oc7c([H])c([H])c(F)c([H])c7F)c([H])c6[H])c(C(=O)N([H])[H])c5N([H])[H])C4([H])[H])c(C([H])(C([H])([H])[H])C([H])([H])C([H])([H])C([H])([H])[H])c3C([H])(C([H])([H])[H])C([H])([H])[H])c([H])c([H])c2C1([H])[H]

$$$$
74:0:0
     RDKit          3D

 94102  0  0  1  0  0  0  0  0999 V2000
  -28.9530  -21.7970   20.3380 C   0  0  0  0  0  3  0  0  0  0  0  0
  -30.0830  -23.7270   19.4230 C   0  0  0  0  0  3  0  0  0  0  0  0
  -29.7090  -20.8160   19.6160 C   0  0  0  0  0  0  0  0  0  0  0  0
  -29.0020  -23.3720   20.1270 C   0  0  0  0  0  0  0  0  0  0  0  0
  -30.4730  -21.5240   18.5390 C   0  0  0  0  0  0  0  0  0  0  0  0
  -30.8820  -22.7890   18.7770 N   0  0  0  0  0  0  0  0  0  0  0  0
  -30.7200  -21.0760   17.4190 O   0  0  0  0  0  0  0  0  0  0  0  0
  -31.5320  -23.1700   18.1020 H   0  0  0  0  0  0  0  0  0  0  0  0
  -27.9630  -24.6140   20.4970 C   0  0  0  0  0  2  0  0  0  0  0  0
  -28.2500  -26.1550   20.2910 O   0  0  0  0  0  0  0  0  0  0  0  0
  -24.5790  -31.8910   23.2200 C   0  0  0  0  0  0  0  0  0  0  0  0
  -27.1950  -27.1510   20.2390 C   0  0  0  0  0  0  0  0  0  0  0  0
  -23.3960  -30.4880   21.5760 C   0  0  0  0  0  3  0  0  0  0  0  0
  -24.8620  -28.9100   20.1700 C   0  0  0  0  0  0  0  0  0  0  0  0
  -25.9540  -30.7540   21.4350 C   0  0  0  0  0  2  0  0  0  0  0  0
  -26.0360  -29.3580   20.7870 C   0  0  0  0  0  0  0  0  0  0  0  0
  -27.2060  -28.5000   20.7950 C   0  0  0  0  0  3  0  0  0  0  0  0
  -25.9920  -26.8190   19.5760 C   0  0  0  0  0  3  0  0  0  0  0  0
  -24.8550  -27.6570   19.5440 C   0  0  0  0  0  3  0  0  0  0  0  0
  -23.6320  -29.8070   20.2030 C   0  0  0  0  0  2  0  0  0  0  0  0
  -24.6610  -31.0670   22.1310 N   0  0  0  0  0  0  0  0  0  0  0  0
  -23.4880  -32.1730   23.7390 O   0  0  0  0  0  0  0  0  0  0  0  0
  -22.7110  -29.4830   22.5360 C   0  0  0  0  0  0  0  0  0  0  0  0
  -21.3830  -29.3090   22.4030 N   0  0  0  0  0  0  0  0  0  0  0  0
  -23.3760  -28.8570   23.3670 O   0  0  0  0  0  0  0  0  0  0  0  0
  -20.9010  -29.8620   21.7090 H   0  0  0  0  0  0  0  0  0  0  0  0
  -17.9960  -28.1260   22.9170 C   0  0  0  0  0  0  0  0  0  0  0  0
  -20.5580  -28.3740   23.1740 C   0  0  0  0  0  3  0  0  0  0  0  0
  -20.6490  -26.9430   22.5930 C   0  0  0  0  0  2  0  0  0  0  0  0
  -19.5410  -26.6310   21.5810 C   0  0  0  0  0  2  0  0  0  0  0  0
  -18.1630  -26.7790   22.2320 C   0  0  0  0  0  2  0  0  0  0  0  0
  -19.1200  -28.8810   23.3440 C   0  0  0  0  0  0  0  0  0  0  0  0
  -18.9110  -30.1400   23.9490 C   0  0  0  0  0  3  0  0  0  0  0  0
  -17.6080  -30.6470   24.1260 C   0  0  0  0  0  3  0  0  0  0  0  0
  -16.4980  -29.8890   23.7120 C   0  0  0  0  0  3  0  0  0  0  0  0
  -16.6920  -28.6300   23.1160 C   0  0  0  0  0  3  0  0  0  0  0  0
  -25.8490  -32.5360   23.8530 C   0  0  0  0  0  3  0  0  0  0  0  0
  -25.5300  -33.9410   24.1620 N   0  0  0  0  0  0  0  0  0  0  0  0
  -25.8760  -34.9900   23.4050 C   0  0  0  0  0  0  0  0  0  0  0  0
  -26.5640  -34.8790   22.3860 O   0  0  0  0  0  0  0  0  0  0  0  0
  -24.9230  -34.0970   24.9530 H   0  0  0  0  0  0  0  0  0  0  0  0
  -24.1740  -36.7990   22.9960 C   0  0  0  0  0  1  0  0  0  0  0  0
  -25.3860  -36.3850   23.8460 C   0  0  0  0  0  3  0  0  0  0  0  0
  -27.4940  -37.2610   24.7520 C   0  0  0  0  0  1  0  0  0  0  0  0
  -26.4290  -37.4310   23.7660 N   0  0  0  0  0  0  0  0  0  0  0  0
  -26.0250  -38.3550   23.8930 H   0  0  0  0  0  0  0  0  0  0  0  0
  -26.3420  -31.7870   25.1510 C   0  0  1  0  0  0  0  0  0  0  0  0
  -25.2300  -31.5640   26.2040 C   0  0  0  0  0  1  0  0  0  0  0  0
  -26.9330  -30.4030   24.8000 C   0  0  0  0  0  1  0  0  0  0  0  0
  -27.4790  -32.5950   25.8210 C   0  0  0  0  0  1  0  0  0  0  0  0
  -29.8800  -19.0880   19.5760 C   0  0  1  0  0  0  0  0  0  0  0  0
  -27.3580  -18.6560   18.9970 C   0  0  0  0  0  1  0  0  0  0  0  0
  -28.8270  -18.6240   18.5230 C   0  0  0  0  0  2  0  0  0  0  0  0
  -32.5370  -19.1980   19.8870 C   0  0  0  0  0  1  0  0  0  0  0  0
  -31.3270  -18.7070   19.0410 C   0  0  0  0  0  2  0  0  0  0  0  0
  -29.8260  -17.8750   20.7690 C   0  0  0  0  0  2  0  0  0  0  0  0
  -30.5060  -15.1040   20.3550 C   0  0  0  0  0  0  0  0  0  0  0  0
  -30.4160  -12.7410   19.3900 C   0  0  0  0  0  2  0  0  0  0  0  0
  -29.4830  -12.6740   18.1590 C   0  0  0  0  0  2  0  0  0  0  0  0
  -28.0270  -12.4220   18.5960 C   0  0  0  0  0  2  0  0  0  0  0  0
  -27.6010  -13.3430   19.7690 C   0  0  0  0  0  3  0  0  0  0  0  0
  -28.6610  -13.3920   20.8910 C   0  0  0  0  0  2  0  0  0  0  0  0
  -29.9170  -13.8350   20.2720 N   0  0  0  0  0  0  0  0  0  0  0  0
  -31.7200  -15.1600   20.1330 O   0  0  0  0  0  0  0  0  0  0  0  0
  -29.7030  -16.2860   20.4940 N   0  0  0  0  0  0  0  0  0  0  0  0
  -28.7340  -16.0100   20.5450 H   0  0  0  0  0  0  0  0  0  0  0  0
  -25.2250  -13.8920   20.5250 C   0  0  0  0  0  0  0  0  0  0  0  0
  -24.1680  -13.1070   20.8970 C   0  0  0  0  0  0  0  0  0  0  0  0
  -24.6430  -11.7590   20.8530 C   0  0  0  0  0  0  0  0  0  0  0  0
  -26.2720  -13.0240   20.2760 N   0  0  0  0  0  0  0  0  0  0  0  0
  -25.9330  -11.7350   20.5380 N   0  0  0  0  0  0  0  0  0  0  0  0
  -23.9240  -10.4930   21.0350 C   0  0  0  0  0  0  0  0  0  0  0  0
  -24.3410   -9.5360   21.9850 C   0  0  0  0  0  3  0  0  0  0  0  0
  -23.6190   -8.3340   22.1540 C   0  0  0  0  0  3  0  0  0  0  0  0
  -22.4650   -8.0830   21.3740 C   0  0  0  0  0  0  0  0  0  0  0  0
  -22.0680   -9.0280   20.4140 C   0  0  0  0  0  3  0  0  0  0  0  0
  -22.7900  -10.2210   20.2430 C   0  0  0  0  0  3  0  0  0  0  0  0
  -21.7160   -6.9330   21.4530 O   0  0  0  0  0  0  0  0  0  0  0  0
  -21.6240   -6.2150   22.6180 C   0  0  0  0  0  0  0  0  0  0  0  0
  -21.1060   -6.7770   23.8050 C   0  0  0  0  0  3  0  0  0  0  0  0
  -20.9660   -5.9790   24.9580 C   0  0  0  0  0  3  0  0  0  0  0  0
  -21.3330   -4.6210   24.9250 C   0  0  0  0  0  0  0  0  0  0  0  0
  -21.8410   -4.0590   23.7420 C   0  0  0  0  0  3  0  0  0  0  0  0
  -21.9840   -4.8520   22.5910 C   0  0  0  0  0  0  0  0  0  0  0  0
  -22.4530   -4.3000   21.4450 F   0  0  0  0  0  0  0  0  0  0  0  0
  -21.1920   -3.8500   26.0310 F   0  0  0  0  0  0  0  0  0  0  0  0
  -22.7700  -13.5730   21.1700 C   0  0  0  0  0  0  0  0  0  0  0  0
  -22.0400  -12.8610   22.0210 N   0  0  0  0  0  0  0  0  0  0  0  0
  -22.3320  -14.6060   20.6630 O   0  0  0  0  0  0  0  0  0  0  0  0
  -22.4050  -12.0230   22.4510 H   0  0  0  0  0  0  0  0  0  0  0  0
  -21.1030  -13.1600   22.2450 H   0  0  0  0  0  0  0  0  0  0  0  0
  -25.3740  -15.2650   20.3480 N   0  0  0  0  0  0  0  0  0  0  0  0
  -24.5840  -15.8950   20.4290 H   0  0  0  0  0  0  0  0  0  0  0  0
  -26.1870  -15.7020   19.9350 H   0  0  0  0  0  0  0  0  0  0  0  0
  2  4  2  0
  3  1  2  0
  4  1  1  0
  4  9  1  0
  5  6  1  0
  5  3  1  0
  6  2  1  0
  7  5  2  0
  8  6  1  0
 10  9  1  0
 11 22  2  0
 12 10  1  0
 12 17  1  0
 13 21  1  0
 13 23  1  0
 14 20  1  0
 14 16  1  0
 15 21  1  0
 16 17  2  0
 16 15  1  0
 18 12  2  0
 19 18  1  0
 19 14  2  0
 20 13  1  0
 21 11  1  0
 23 25  2  0
 24 23  1  0
 26 24  1  0
 27 36  2  0
 27 32  1  0
 28 24  1  0
 28 32  1  0
 29 28  1  0
 30 31  1  0
 30 29  1  0
 31 27  1  0
 32 33  2  0
 33 34  1  0
 35 34  2  0
 36 35  1  0
 37 11  1  0
 37 38  1  0
 37 47  1  0
 38 41  1  0
 39 43  1  0
 39 38  1  0
 40 39  2  0
 43 42  1  0
 45 43  1  0
 45 46  1  0
 45 44  1  0
 47 50  1  1
 47 48  1  0
 49 47  1  0
 51  3  1  0
 51 56  1  1
 53 52  1  0
 53 51  1  0
 55 51  1  0
 55 54  1  0
 57 65  1  0
 58 63  1  0
 59 60  1  0
 59 58  1  0
 61 60  1  0
 61 70  1  0
 61 62  1  0
 63 57  1  0
 63 62  1  0
 64 57  2  0
 65 66  1  0
 65 56  1  0
 67 68  2  0
 68 87  1  0
 69 68  1  0
 69 72  1  0
 70 67  1  0
 70 71  1  0
 71 69  2  0
 72 73  1  0
 73 74  2  0
 75 78  1  0
 75 74  1  0
 76 75  2  0
 77 76  1  0
 77 72  2  0
 78 79  1  0
 79 80  1  0
 80 81  2  0
 82 81  1  0
 82 86  1  0
 83 82  2  0
 84 79  2  0
 84 83  1  0
 85 84  1  0
 87 88  1  0
 88 91  1  0
 88 90  1  0
 89 87  2  0
 92 93  1  0
 92 67  1  0
 94 92  1  0
M  ISO  4   9 101  10 101  57 100  65 100
M  END
>  <TORSDO>  (72) 
F 21

>  <SCORE>  (72) 
-14.593

>  <name>  (72) 
74

>  <ligand_id>  (72) 
74

>  <original_smiles>  (72) 
[H]c1c([H])c([H])c2c(c1[H])C([H])([H])C([H])([H])C([H])([H])C2([H])N([H])C(=O)C1([H])N(C(=O)C([H])(N([H])C(=O)C([H])(N([H])C([H])([H])[H])C([H])([H])[H])C(C([H])([H])[H])(C([H])([H])[H])C([H])([H])[H])C([H])([H])c2c([H])c(OC([H])([H])c3c([H])c(C(C([H])([H])N([H])C(=O)N4C([H])([H])C([H])([H])C([H])([H])C([H])(n5nc(-c6c([H])c([H])c(Oc7c([H])c([H])c(F)c([H])c7F)c([H])c6[H])c(C(=O)N([H])[H])c5N([H])[H])C4([H])[H])(C([H])([H])C([H])([H])[H])C([H])([H])C([H])([H])[H])c(=O)n([H])c3[H])c([H])c([H])c2C1([H])[H]

>  <smiles>  (72) 
[H]c1c([H])c([H])c2c(c1[H])C([H])([H])C([H])([H])C([H])([H])C2([H])N([H])C(=O)C1([H])N(C(=O)C([H])(N([H])C(=O)C([H])(N([H])C([H])([H])[H])C([H])([H])[H])C(C([H])([H])[H])(C([H])([H])[H])C([H])([H])[H])C([H])([H])c2c([H])c(OC([H])([H])c3c([H])c(C(C([H])([H])N([H])C(=O)N4C([H])([H])C([H])([H])C([H])([H])C([H])(n5nc(-c6c([H])c([H])c(Oc7c([H])c([H])c(F)c([H])c7F)c([H])c6[H])c(C(=O)N([H])[H])c5N([H])[H])C4([H])[H])(C([H])([H])C([H])([H])[H])C([H])([H])C([H])([H])[H])c(=O)n([H])c3[H])c([H])c([H])c2C1([H])[H]

$$$$
75:0:0
     RDKit          3D

 94102  0  0  1  0  0  0  0  0999 V2000
  -30.3350  -20.4060   22.1980 C   0  0  0  0  0  3  0  0  0  0  0  0
  -30.7490  -17.7670   22.2290 C   0  0  0  0  0  3  0  0  0  0  0  0
  -29.8470  -19.7820   21.0190 C   0  0  0  0  0  0  0  0  0  0  0  0
  -30.1570  -18.2040   21.0080 C   0  0  0  0  0  0  0  0  0  0  0  0
  -30.9330  -19.8260   23.2530 N   0  0  0  0  0  0  0  0  0  0  0  0
  -31.1110  -18.5200   23.2810 N   0  0  0  0  0  0  0  0  0  0  0  0
  -30.7240  -15.5120   20.2750 C   0  0  0  0  0  0  0  0  0  0  0  0
  -30.6740  -13.0640   19.4080 C   0  0  0  0  0  2  0  0  0  0  0  0
  -29.7650  -12.8170   18.1810 C   0  0  0  0  0  2  0  0  0  0  0  0
  -28.3210  -12.5310   18.6240 C   0  0  0  0  0  2  0  0  0  0  0  0
  -27.8550  -13.4960   19.7430 C   0  0  0  0  0  3  0  0  0  0  0  0
  -28.9010  -13.7080   20.8560 C   0  0  0  0  0  2  0  0  0  0  0  0
  -30.1100  -14.2260   20.1920 N   0  0  0  0  0  0  0  0  0  0  0  0
  -31.9570  -15.4320   20.1620 O   0  0  0  0  0  0  0  0  0  0  0  0
  -30.0630  -16.8650   20.1140 N   0  0  0  0  0  0  0  0  0  0  0  0
  -25.4840  -14.0690   20.4660 C   0  0  0  0  0  0  0  0  0  0  0  0
  -24.4120  -13.2940   20.8050 C   0  0  0  0  0  0  0  0  0  0  0  0
  -24.8780  -11.9430   20.7870 C   0  0  0  0  0  0  0  0  0  0  0  0
  -26.5270  -13.1870   20.2420 N   0  0  0  0  0  0  0  0  0  0  0  0
  -26.1750  -11.9050   20.5030 N   0  0  0  0  0  0  0  0  0  0  0  0
  -24.1500  -10.6830   20.9690 C   0  0  0  0  0  0  0  0  0  0  0  0
  -24.5380   -9.7390   21.9450 C   0  0  0  0  0  3  0  0  0  0  0  0
  -23.8070   -8.5440   22.1140 C   0  0  0  0  0  3  0  0  0  0  0  0
  -22.6750   -8.2840   21.3050 C   0  0  0  0  0  0  0  0  0  0  0  0
  -22.3080   -9.2160   20.3190 C   0  0  0  0  0  3  0  0  0  0  0  0
  -23.0400  -10.4030   20.1480 C   0  0  0  0  0  3  0  0  0  0  0  0
  -21.9210   -7.1380   21.3820 O   0  0  0  0  0  0  0  0  0  0  0  0
  -21.7630   -6.4580   22.5620 C   0  0  0  0  0  0  0  0  0  0  0  0
  -21.1730   -7.0590   23.6950 C   0  0  0  0  0  3  0  0  0  0  0  0
  -20.9660   -6.3030   24.8660 C   0  0  0  0  0  3  0  0  0  0  0  0
  -21.3390   -4.9460   24.9040 C   0  0  0  0  0  0  0  0  0  0  0  0
  -21.9220   -4.3450   23.7740 C   0  0  0  0  0  3  0  0  0  0  0  0
  -22.1300   -5.0980   22.6070 C   0  0  0  0  0  0  0  0  0  0  0  0
  -22.6730   -4.5080   21.5140 F   0  0  0  0  0  0  0  0  0  0  0  0
  -21.1330   -4.2160   26.0250 F   0  0  0  0  0  0  0  0  0  0  0  0
  -23.0130  -13.7750   21.0510 C   0  0  0  0  0  0  0  0  0  0  0  0
  -22.2650  -13.0800   21.9000 N   0  0  0  0  0  0  0  0  0  0  0  0
  -22.5930  -14.8070   20.5280 O   0  0  0  0  0  0  0  0  0  0  0  0
  -22.6190  -12.2460   22.3470 H   0  0  0  0  0  0  0  0  0  0  0  0
  -21.3260  -13.3850   22.1090 H   0  0  0  0  0  0  0  0  0  0  0  0
  -25.6650  -15.4440   20.3170 N   0  0  0  0  0  0  0  0  0  0  0  0
  -24.9250  -15.9320   20.8110 H   0  0  0  0  0  0  0  0  0  0  0  0
  -26.5650  -15.7040   20.7000 H   0  0  0  0  0  0  0  0  0  0  0  0
  -29.8680  -17.2260   18.6950 C   0  0  0  0  0  2  0  0  0  0  0  0
  -28.4240  -17.5840   18.2890 C   0  0  0  0  0  2  0  0  0  0  0  0
  -27.7880  -18.7740   19.0330 C   0  0  0  0  0  2  0  0  0  0  0  0
  -26.3270  -18.8270   18.8500 N   0  0  0  0  0  4  0  0  0  0  0  0
  -26.0740  -18.7810   17.8800 H   0  0  0  0  0  0  0  0  0  0  0  0
  -25.9650  -19.6820   19.2330 H   0  0  0  0  0  0  0  0  0  0  0  0
  -25.8910  -18.0610   19.3520 H   0  0  0  0  0  0  0  0  0  0  0  0
  -29.0990  -21.1160   20.1770 C   0  0  0  0  0  2  0  0  0  0  0  0
  -29.0620  -22.8900   20.6310 C   0  0  0  0  0  3  0  0  0  0  0  0
  -28.2160  -24.3980   20.0910 C   0  0  0  0  0  3  0  0  0  0  0  0
  -28.3490  -26.0120   20.4330 O   0  0  0  0  0  0  0  0  0  0  0  0
  -24.7160  -31.9940   23.2620 C   0  0  0  0  0  0  0  0  0  0  0  0
  -27.3310  -27.1000   20.3200 C   0  0  0  0  0  0  0  0  0  0  0  0
  -23.5450  -30.5720   21.6290 C   0  0  0  0  0  3  0  0  0  0  0  0
  -25.0180  -28.9620   20.2330 C   0  0  0  0  0  0  0  0  0  0  0  0
  -26.1110  -30.7980   21.5030 C   0  0  0  0  0  2  0  0  0  0  0  0
  -26.1950  -29.3830   20.8630 C   0  0  0  0  0  0  0  0  0  0  0  0
  -27.3440  -28.4710   20.8840 C   0  0  0  0  0  3  0  0  0  0  0  0
  -26.1250  -26.8330   19.6350 C   0  0  0  0  0  3  0  0  0  0  0  0
  -25.0080  -27.7080   19.5990 C   0  0  0  0  0  3  0  0  0  0  0  0
  -23.7910  -29.8740   20.2610 C   0  0  0  0  0  2  0  0  0  0  0  0
  -24.8110  -31.1500   22.1850 N   0  0  0  0  0  0  0  0  0  0  0  0
  -23.6200  -32.2830   23.7700 O   0  0  0  0  0  0  0  0  0  0  0  0
  -22.8490  -29.5840   22.5990 C   0  0  0  0  0  0  0  0  0  0  0  0
  -21.5250  -29.3890   22.4490 N   0  0  0  0  0  0  0  0  0  0  0  0
  -23.5070  -28.9900   23.4580 O   0  0  0  0  0  0  0  0  0  0  0  0
  -21.0470  -29.9200   21.7350 H   0  0  0  0  0  0  0  0  0  0  0  0
  -18.1530  -28.1380   22.9240 C   0  0  0  0  0  0  0  0  0  0  0  0
  -20.7040  -28.4510   23.2220 C   0  0  0  0  0  3  0  0  0  0  0  0
  -20.8370  -27.0120   22.6700 C   0  0  0  0  0  2  0  0  0  0  0  0
  -19.7560  -26.6560   21.6450 C   0  0  0  0  0  2  0  0  0  0  0  0
  -18.3630  -26.7840   22.2670 C   0  0  0  0  0  2  0  0  0  0  0  0
  -19.2520  -28.9270   23.3580 C   0  0  0  0  0  0  0  0  0  0  0  0
  -19.0000  -30.1900   23.9350 C   0  0  0  0  0  3  0  0  0  0  0  0
  -17.6840  -30.6660   24.0830 C   0  0  0  0  0  3  0  0  0  0  0  0
  -16.6000  -29.8760   23.6620 C   0  0  0  0  0  3  0  0  0  0  0  0
  -16.8350  -28.6130   23.0900 C   0  0  0  0  0  3  0  0  0  0  0  0
  -25.9770  -32.6530   23.9000 C   0  0  0  0  0  3  0  0  0  0  0  0
  -26.5130  -31.8700   25.1620 C   0  0  1  0  0  0  0  0  0  0  0  0
  -25.4170  -31.5370   26.2030 C   0  0  0  0  0  1  0  0  0  0  0  0
  -27.1800  -30.5390   24.7450 C   0  0  0  0  0  1  0  0  0  0  0  0
  -27.6080  -32.7030   25.8700 C   0  0  0  0  0  1  0  0  0  0  0  0
  -25.6270  -34.0350   24.2740 N   0  0  0  0  0  0  0  0  0  0  0  0
  -25.9070  -35.1230   23.5450 C   0  0  0  0  0  0  0  0  0  0  0  0
  -26.5490  -35.0710   22.4920 O   0  0  0  0  0  0  0  0  0  0  0  0
  -25.0500  -34.1460   25.0940 H   0  0  0  0  0  0  0  0  0  0  0  0
  -24.1190  -36.8830   23.3040 C   0  0  0  0  0  1  0  0  0  0  0  0
  -25.3960  -36.4850   24.0610 C   0  0  0  0  0  3  0  0  0  0  0  0
  -27.5240  -37.4170   24.8610 C   0  0  0  0  0  1  0  0  0  0  0  0
  -26.3960  -37.5710   23.9480 N   0  0  0  0  0  0  0  0  0  0  0  0
  -25.9660  -38.4760   24.1240 H   0  0  0  0  0  0  0  0  0  0  0  0
  1  5  1  0
  2  6  1  0
  3  1  2  0
  4  3  1  0
  4  2  2  0
  5  6  2  0
  8 13  1  0
  9 10  1  0
  9  8  1  0
 11 10  1  0
 11 19  1  0
 11 12  1  0
 13  7  1  0
 13 12  1  0
 14  7  2  0
 15  7  1  0
 15  4  1  0
 16 17  2  0
 17 36  1  0
 18 17  1  0
 18 21  1  0
 19 16  1  0
 19 20  1  0
 20 18  2  0
 21 22  1  0
 22 23  2  0
 24 27  1  0
 24 23  1  0
 25 24  2  0
 26 25  1  0
 26 21  2  0
 27 28  1  0
 28 33  2  0
 28 29  1  0
 29 30  2  0
 30 31  1  0
 31 35  1  0
 32 31  2  0
 33 32  1  0
 34 33  1  0
 36 37  1  0
 37 40  1  0
 37 39  1  0
 38 36  2  0
 41 16  1  0
 41 43  1  0
 41 42  1  0
 44 15  1  0
 45 44  1  0
 45 46  1  0
 47 46  1  0
 47 49  1  0
 47 50  1  0
 48 47  1  0
 51 52  1  0
 51  3  1  0
 53 54  1  0
 53 52  2  0
 55 66  2  0
 56 54  1  0
 56 61  1  0
 57 65  1  0
 57 67  1  0
 58 64  1  0
 58 60  1  0
 59 65  1  0
 60 61  2  0
 60 59  1  0
 62 56  2  0
 63 62  1  0
 63 58  2  0
 64 57  1  0
 65 55  1  0
 67 69  2  0
 68 67  1  0
 70 68  1  0
 71 80  2  0
 71 76  1  0
 72 68  1  0
 72 76  1  0
 73 72  1  0
 74 75  1  0
 74 73  1  0
 75 71  1  0
 76 77  2  0
 77 78  1  0
 79 78  2  0
 80 79  1  0
 81 55  1  0
 81 86  1  0
 81 82  1  0
 82 85  1  1
 82 83  1  0
 84 82  1  0
 86 89  1  0
 87 91  1  0
 87 86  1  0
 88 87  2  0
 91 90  1  0
 93 91  1  0
 93 94  1  0
 93 92  1  0
M  ISO  4   7 100  15 100  53 101  54 101
M  END
>  <TORSDO>  (73) 
F 23

>  <SCORE>  (73) 
-13.950

>  <name>  (73) 
75

>  <ligand_id>  (73) 
75

>  <original_smiles>  (73) 
[H]c1nnc([H])c(C([H])([H])C([H])([H])C([H])([H])Oc2c([H])c([H])c3c(c2[H])C([H])([H])N(C(=O)C([H])(N([H])C(=O)C([H])(N([H])C([H])([H])[H])C([H])([H])[H])C(C([H])([H])[H])(C([H])([H])[H])C([H])([H])[H])C([H])(C(=O)N([H])C2([H])c4c([H])c([H])c([H])c([H])c4C([H])([H])C([H])([H])C2([H])[H])C3([H])[H])c1N(C(=O)N1C([H])([H])C([H])([H])C([H])([H])C([H])(n2nc(-c3c([H])c([H])c(Oc4c([H])c([H])c(F)c([H])c4F)c([H])c3[H])c(C(=O)N([H])[H])c2N([H])[H])C1([H])[H])C([H])([H])C([H])([H])C([H])([H])[N+]([H])([H])[H]

>  <smiles>  (73) 
[H]c1nnc([H])c(C([H])([H])C([H])([H])C([H])([H])Oc2c([H])c([H])c3c(c2[H])C([H])([H])N(C(=O)C([H])(N([H])C(=O)C([H])(N([H])C([H])([H])[H])C([H])([H])[H])C(C([H])([H])[H])(C([H])([H])[H])C([H])([H])[H])C([H])(C(=O)N([H])C2([H])c4c([H])c([H])c([H])c([H])c4C([H])([H])C([H])([H])C2([H])[H])C3([H])[H])c1N(C(=O)N1C([H])([H])C([H])([H])C([H])([H])C([H])(n2nc(-c3c([H])c([H])c(Oc4c([H])c([H])c(F)c([H])c4F)c([H])c3[H])c(C(=O)N([H])[H])c2N([H])[H])C1([H])[H])C([H])([H])C([H])([H])C([H])([H])[N+]([H])([H])[H]

$$$$
76:0:0
     RDKit          3D

 94102  0  0  1  0  0  0  0  0999 V2000
  -28.7220  -20.5980   20.6410 C   0  0  0  0  0  3  0  0  0  0  0  0
  -28.4890  -19.3830   19.9980 C   0  0  0  0  0  0  0  0  0  0  0  0
  -27.5520  -19.7140   18.9640 C   0  0  0  0  0  0  0  0  0  0  0  0
  -27.2560  -21.0530   18.9910 C   0  0  0  0  0  0  0  0  0  0  0  0
  -26.9200  -18.7280   18.0120 C   0  0  0  0  0  1  0  0  0  0  0  0
  -27.9760  -21.6410   20.0360 N   0  0  0  0  0  0  0  0  0  0  0  0
  -26.8200  -22.7420   17.0650 C   0  0  0  0  0  1  0  0  0  0  0  0
  -25.0130  -22.3070   18.8640 C   0  0  0  0  0  1  0  0  0  0  0  0
  -26.2390  -21.7580   18.0980 C   0  0  0  0  0  3  0  0  0  0  0  0
  -28.9570  -17.8820   20.1340 C   0  0  0  0  0  2  0  0  0  0  0  0
  -30.0070  -17.2650   21.1280 C   0  0  0  0  0  2  0  0  0  0  0  0
  -30.7370  -14.7770   20.6060 C   0  0  0  0  0  0  0  0  0  0  0  0
  -30.5860  -12.5750   19.4380 C   0  0  0  0  0  2  0  0  0  0  0  0
  -29.6490  -12.7120   18.2160 C   0  0  0  0  0  2  0  0  0  0  0  0
  -28.1700  -12.5650   18.6150 C   0  0  0  0  0  2  0  0  0  0  0  0
  -27.7980  -13.4010   19.8740 C   0  0  0  0  0  3  0  0  0  0  0  0
  -28.8350  -13.1690   20.9980 C   0  0  0  0  0  2  0  0  0  0  0  0
  -30.1510  -13.5460   20.4660 N   0  0  0  0  0  0  0  0  0  0  0  0
  -31.8630  -15.0150   20.1510 O   0  0  0  0  0  0  0  0  0  0  0  0
  -29.9310  -15.7520   21.1250 N   0  0  0  0  0  0  0  0  0  0  0  0
  -29.0780  -15.3720   21.5080 H   0  0  0  0  0  0  0  0  0  0  0  0
  -25.3700  -13.9990   20.4980 C   0  0  0  0  0  0  0  0  0  0  0  0
  -24.2920  -13.2290   20.8280 C   0  0  0  0  0  0  0  0  0  0  0  0
  -24.7540  -11.8790   20.8260 C   0  0  0  0  0  0  0  0  0  0  0  0
  -26.4280  -13.1230   20.3110 N   0  0  0  0  0  0  0  0  0  0  0  0
  -26.0560  -11.8410   20.5660 N   0  0  0  0  0  0  0  0  0  0  0  0
  -24.0240  -10.6160   21.0040 C   0  0  0  0  0  0  0  0  0  0  0  0
  -24.4390   -9.6480   21.9440 C   0  0  0  0  0  3  0  0  0  0  0  0
  -23.7070   -8.4530   22.1110 C   0  0  0  0  0  3  0  0  0  0  0  0
  -22.5470   -8.2140   21.3350 C   0  0  0  0  0  0  0  0  0  0  0  0
  -22.1530   -9.1740   20.3870 C   0  0  0  0  0  3  0  0  0  0  0  0
  -22.8850  -10.3600   20.2170 C   0  0  0  0  0  3  0  0  0  0  0  0
  -21.7920   -7.0680   21.4070 O   0  0  0  0  0  0  0  0  0  0  0  0
  -21.7420   -6.3120   22.5480 C   0  0  0  0  0  0  0  0  0  0  0  0
  -21.3180   -6.8590   23.7800 C   0  0  0  0  0  3  0  0  0  0  0  0
  -21.2130   -6.0330   24.9180 C   0  0  0  0  0  3  0  0  0  0  0  0
  -21.5160   -4.6620   24.8220 C   0  0  0  0  0  0  0  0  0  0  0  0
  -21.9340   -4.1150   23.5950 C   0  0  0  0  0  3  0  0  0  0  0  0
  -22.0390   -4.9370   22.4600 C   0  0  0  0  0  0  0  0  0  0  0  0
  -22.4200   -4.4070   21.2740 F   0  0  0  0  0  0  0  0  0  0  0  0
  -21.4080   -3.8630   25.9090 F   0  0  0  0  0  0  0  0  0  0  0  0
  -22.8840  -13.7080   21.0490 C   0  0  0  0  0  0  0  0  0  0  0  0
  -22.1300  -13.0310   21.9040 N   0  0  0  0  0  0  0  0  0  0  0  0
  -22.4670  -14.7250   20.4940 O   0  0  0  0  0  0  0  0  0  0  0  0
  -22.4780  -12.2090   22.3720 H   0  0  0  0  0  0  0  0  0  0  0  0
  -21.1880  -13.3540   22.0900 H   0  0  0  0  0  0  0  0  0  0  0  0
  -25.5400  -15.3680   20.3250 N   0  0  0  0  0  0  0  0  0  0  0  0
  -24.7760  -16.0180   20.4670 H   0  0  0  0  0  0  0  0  0  0  0  0
  -26.4060  -15.8220   20.0750 H   0  0  0  0  0  0  0  0  0  0  0  0
  -27.7790  -23.0710   20.4760 C   0  0  0  0  0  2  0  0  0  0  0  0
  -29.1940  -24.4470   22.0770 C   0  0  0  0  0  1  0  0  0  0  0  0
  -28.9660  -24.1020   20.5930 C   0  0  0  0  0  3  0  0  0  0  0  0
  -28.8690  -25.4230   19.6940 C   0  0  0  0  0  2  0  0  0  0  0  0
  -28.6970  -26.7570   20.2990 O   0  0  0  0  0  0  0  0  0  0  0  0
  -24.6800  -31.9140   23.2240 C   0  0  0  0  0  0  0  0  0  0  0  0
  -27.5220  -27.5080   20.1840 C   0  0  0  0  0  0  0  0  0  0  0  0
  -23.5610  -30.5110   21.5300 C   0  0  0  0  0  3  0  0  0  0  0  0
  -25.0970  -29.0290   20.1190 C   0  0  0  0  0  0  0  0  0  0  0  0
  -26.0890  -30.9200   21.4090 C   0  0  0  0  0  2  0  0  0  0  0  0
  -26.2290  -29.5540   20.7510 C   0  0  0  0  0  0  0  0  0  0  0  0
  -27.4400  -28.8060   20.7720 C   0  0  0  0  0  3  0  0  0  0  0  0
  -26.3580  -27.0230   19.5400 C   0  0  0  0  0  3  0  0  0  0  0  0
  -25.1610  -27.7680   19.5110 C   0  0  0  0  0  3  0  0  0  0  0  0
  -23.8310  -29.8620   20.1450 C   0  0  0  0  0  2  0  0  0  0  0  0
  -24.7930  -31.1340   22.1110 N   0  0  0  0  0  0  0  0  0  0  0  0
  -23.5780  -32.1480   23.7400 O   0  0  0  0  0  0  0  0  0  0  0  0
  -22.9120  -29.4500   22.4580 C   0  0  0  0  0  0  0  0  0  0  0  0
  -21.5900  -29.2510   22.3140 N   0  0  0  0  0  0  0  0  0  0  0  0
  -23.5980  -28.8200   23.2710 O   0  0  0  0  0  0  0  0  0  0  0  0
  -21.0990  -29.7960   21.6200 H   0  0  0  0  0  0  0  0  0  0  0  0
  -18.2140  -28.0470   22.8040 C   0  0  0  0  0  0  0  0  0  0  0  0
  -20.7770  -28.2850   23.0500 C   0  0  0  0  0  3  0  0  0  0  0  0
  -20.8640  -26.8790   22.4110 C   0  0  0  0  0  2  0  0  0  0  0  0
  -19.7460  -26.6060   21.3940 C   0  0  0  0  0  2  0  0  0  0  0  0
  -18.3710  -26.7310   22.0610 C   0  0  0  0  0  2  0  0  0  0  0  0
  -19.3420  -28.7830   23.2500 C   0  0  0  0  0  0  0  0  0  0  0  0
  -19.1310  -30.0220   23.9000 C   0  0  0  0  0  3  0  0  0  0  0  0
  -17.8280  -30.5170   24.1110 C   0  0  0  0  0  3  0  0  0  0  0  0
  -16.7170  -29.7760   23.6710 C   0  0  0  0  0  3  0  0  0  0  0  0
  -16.9150  -28.5440   23.0290 C   0  0  0  0  0  3  0  0  0  0  0  0
  -25.9290  -32.5730   23.8880 C   0  0  0  0  0  3  0  0  0  0  0  0
  -25.5830  -33.9670   24.2050 N   0  0  0  0  0  0  0  0  0  0  0  0
  -25.9220  -35.0230   23.4570 C   0  0  0  0  0  0  0  0  0  0  0  0
  -26.6310  -34.9310   22.4500 O   0  0  0  0  0  0  0  0  0  0  0  0
  -24.9450  -34.1120   24.9750 H   0  0  0  0  0  0  0  0  0  0  0  0
  -24.1610  -36.7710   23.0440 C   0  0  0  0  0  1  0  0  0  0  0  0
  -25.3890  -36.4000   23.8920 C   0  0  0  0  0  3  0  0  0  0  0  0
  -27.4760  -37.3420   24.7770 C   0  0  0  0  0  1  0  0  0  0  0  0
  -26.3990  -37.4770   23.8000 N   0  0  0  0  0  0  0  0  0  0  0  0
  -25.9660  -38.3890   23.9320 H   0  0  0  0  0  0  0  0  0  0  0  0
  -26.4110  -31.8160   25.1850 C   0  0  1  0  0  0  0  0  0  0  0  0
  -25.2810  -31.5660   26.2120 C   0  0  0  0  0  1  0  0  0  0  0  0
  -27.0360  -30.4490   24.8220 C   0  0  0  0  0  1  0  0  0  0  0  0
  -27.5200  -32.6330   25.8890 C   0  0  0  0  0  1  0  0  0  0  0  0
  2 10  1  0
  2  1  2  0
  3  4  2  0
  3  2  1  0
  4  6  1  0
  5  3  1  0
  6 50  1  0
  6  1  1  0
  7  9  1  0
  9  8  1  0
  9  4  1  0
 10 11  1  0
 12 20  1  0
 13 18  1  0
 14 15  1  0
 14 13  1  0
 16 15  1  0
 16 25  1  0
 16 17  1  0
 18 12  1  0
 18 17  1  0
 19 12  2  0
 20 11  1  0
 20 21  1  0
 22 23  2  0
 23 42  1  0
 24 23  1  0
 24 27  1  0
 25 22  1  0
 25 26  1  0
 26 24  2  0
 27 28  1  0
 28 29  2  0
 30 33  1  0
 30 29  1  0
 31 30  2  0
 32 31  1  0
 32 27  2  0
 33 34  1  0
 34 35  1  0
 35 36  2  0
 37 36  1  0
 37 41  1  0
 38 37  2  0
 39 34  2  0
 39 38  1  0
 40 39  1  0
 42 43  1  0
 43 46  1  0
 43 45  1  0
 44 42  2  0
 47 48  1  0
 47 22  1  0
 49 47  1  0
 50 52  1  0
 52 51  1  0
 53 54  1  0
 53 52  1  0
 55 66  2  0
 56 54  1  0
 56 61  1  0
 57 65  1  0
 57 67  1  0
 58 64  1  0
 58 60  1  0
 59 65  1  0
 60 61  2  0
 60 59  1  0
 62 56  2  0
 63 62  1  0
 63 58  2  0
 64 57  1  0
 65 55  1  0
 67 69  2  0
 68 67  1  0
 70 68  1  0
 71 80  2  0
 71 76  1  0
 72 68  1  0
 72 76  1  0
 73 72  1  0
 74 75  1  0
 74 73  1  0
 75 71  1  0
 76 77  2  0
 77 78  1  0
 79 78  2  0
 80 79  1  0
 81 55  1  0
 81 82  1  0
 81 91  1  0
 82 85  1  0
 83 87  1  0
 83 82  1  0
 84 83  2  0
 87 86  1  0
 89 87  1  0
 89 90  1  0
 89 88  1  0
 91 94  1  1
 91 92  1  0
 93 91  1  0
M  ISO  4  12 100  20 100  53 101  54 101
M  END
>  <TORSDO>  (74) 
F 22

>  <SCORE>  (74) 
-12.619

>  <name>  (74) 
76

>  <ligand_id>  (74) 
76

>  <original_smiles>  (74) 
[H]c1c([H])c([H])c2c(c1[H])C([H])([H])C([H])([H])C([H])([H])C2([H])N([H])C(=O)C1([H])N(C(=O)C([H])(N([H])C(=O)C([H])(N([H])C([H])([H])[H])C([H])([H])[H])C(C([H])([H])[H])(C([H])([H])[H])C([H])([H])[H])C([H])([H])c2c([H])c(OC([H])([H])C([H])(C([H])([H])[H])C([H])([H])n3c([H])c(C([H])([H])C([H])([H])N([H])C(=O)N4C([H])([H])C([H])([H])C([H])([H])C([H])(n5nc(-c6c([H])c([H])c(Oc7c([H])c([H])c(F)c([H])c7F)c([H])c6[H])c(C(=O)N([H])[H])c5N([H])[H])C4([H])[H])c(C([H])([H])[H])c3C([H])(C([H])([H])[H])C([H])([H])[H])c([H])c([H])c2C1([H])[H]

>  <smiles>  (74) 
[H]c1c([H])c([H])c2c(c1[H])C([H])([H])C([H])([H])C([H])([H])C2([H])N([H])C(=O)C1([H])N(C(=O)C([H])(N([H])C(=O)C([H])(N([H])C([H])([H])[H])C([H])([H])[H])C(C([H])([H])[H])(C([H])([H])[H])C([H])([H])[H])C([H])([H])c2c([H])c(OC([H])([H])C([H])(C([H])([H])[H])C([H])([H])n3c([H])c(C([H])([H])C([H])([H])N([H])C(=O)N4C([H])([H])C([H])([H])C([H])([H])C([H])(n5nc(-c6c([H])c([H])c(Oc7c([H])c([H])c(F)c([H])c7F)c([H])c6[H])c(C(=O)N([H])[H])c5N([H])[H])C4([H])[H])c(C([H])([H])[H])c3C([H])(C([H])([H])[H])C([H])([H])[H])c([H])c([H])c2C1([H])[H]

$$$$
77:0:0
     RDKit          3D

 89 97  0  0  1  0  0  0  0  0999 V2000
  -29.8900  -20.5830   19.7900 C   0  0  0  0  0  3  0  0  0  0  0  0
  -27.6530  -21.3630   19.4420 C   0  0  0  0  0  3  0  0  0  0  0  0
  -28.9720  -21.7540   19.7140 C   0  0  0  0  0  0  0  0  0  0  0  0
  -29.4960  -19.1550   19.6250 C   0  0  0  0  0  0  0  0  0  0  0  0
  -28.1040  -19.0360   19.4020 C   0  0  0  0  0  0  0  0  0  0  0  0
  -27.2450  -20.0810   19.3000 N   0  0  0  0  0  0  0  0  0  0  0  0
  -27.3730  -17.4800   19.2800 Cl  0  0  0  0  0  0  0  0  0  0  0  0
  -29.2810  -23.3680   19.9570 C   0  0  0  0  0  3  0  0  0  0  0  0
  -28.1790  -24.6520   19.8200 C   0  0  0  0  0  3  0  0  0  0  0  0
  -28.4170  -26.1920   20.0160 O   0  0  0  0  0  0  0  0  0  0  0  0
  -24.6070  -31.6990   23.1620 C   0  0  0  0  0  0  0  0  0  0  0  0
  -27.3420  -27.1600   19.9880 C   0  0  0  0  0  0  0  0  0  0  0  0
  -23.4760  -30.3670   21.4250 C   0  0  0  0  0  3  0  0  0  0  0  0
  -24.9870  -28.8810   19.9730 C   0  0  0  0  0  0  0  0  0  0  0  0
  -26.0310  -30.6720   21.3490 C   0  0  0  0  0  2  0  0  0  0  0  0
  -26.1440  -29.3120   20.6340 C   0  0  0  0  0  0  0  0  0  0  0  0
  -27.3230  -28.4710   20.6210 C   0  0  0  0  0  3  0  0  0  0  0  0
  -26.1550  -26.8370   19.2930 C   0  0  0  0  0  3  0  0  0  0  0  0
  -25.0060  -27.6580   19.2870 C   0  0  0  0  0  3  0  0  0  0  0  0
  -23.7470  -29.7600   20.0230 C   0  0  0  0  0  2  0  0  0  0  0  0
  -24.7240  -30.9320   22.0350 N   0  0  0  0  0  0  0  0  0  0  0  0
  -23.5030  -31.9430   23.6710 O   0  0  0  0  0  0  0  0  0  0  0  0
  -22.7840  -29.3050   22.3180 C   0  0  0  0  0  0  0  0  0  0  0  0
  -21.4600  -29.1360   22.1570 N   0  0  0  0  0  0  0  0  0  0  0  0
  -23.4430  -28.6400   23.1210 O   0  0  0  0  0  0  0  0  0  0  0  0
  -20.9850  -29.7260   21.4890 H   0  0  0  0  0  0  0  0  0  0  0  0
  -18.0620  -27.9570   22.6030 C   0  0  0  0  0  0  0  0  0  0  0  0
  -20.6290  -28.1550   22.8610 C   0  0  0  0  0  3  0  0  0  0  0  0
  -20.6980  -26.7700   22.1760 C   0  0  0  0  0  2  0  0  0  0  0  0
  -19.5810  -26.5470   21.1520 C   0  0  0  0  0  2  0  0  0  0  0  0
  -18.2080  -26.6630   21.8200 C   0  0  0  0  0  2  0  0  0  0  0  0
  -19.1990  -28.6660   23.0780 C   0  0  0  0  0  0  0  0  0  0  0  0
  -19.0050  -29.8790   23.7740 C   0  0  0  0  0  3  0  0  0  0  0  0
  -17.7110  -30.3850   23.9950 C   0  0  0  0  0  3  0  0  0  0  0  0
  -16.5900  -29.6730   23.5340 C   0  0  0  0  0  3  0  0  0  0  0  0
  -16.7660  -28.4600   22.8450 C   0  0  0  0  0  3  0  0  0  0  0  0
  -25.8560  -32.3220   23.8560 C   0  0  0  0  0  3  0  0  0  0  0  0
  -26.2930  -31.5440   25.1590 C   0  0  1  0  0  0  0  0  0  0  0  0
  -25.1390  -31.3100   26.1620 C   0  0  0  0  0  1  0  0  0  0  0  0
  -26.8900  -30.1640   24.8020 C   0  0  0  0  0  1  0  0  0  0  0  0
  -27.4090  -32.3300   25.8880 C   0  0  0  0  0  1  0  0  0  0  0  0
  -25.5380  -33.7220   24.1800 N   0  0  0  0  0  0  0  0  0  0  0  0
  -25.8860  -34.7770   23.4320 C   0  0  0  0  0  0  0  0  0  0  0  0
  -26.5750  -34.6740   22.4140 O   0  0  0  0  0  0  0  0  0  0  0  0
  -24.9280  -33.8760   24.9690 H   0  0  0  0  0  0  0  0  0  0  0  0
  -24.1580  -36.5690   23.0650 C   0  0  0  0  0  1  0  0  0  0  0  0
  -25.3950  -36.1680   23.8840 C   0  0  0  0  0  3  0  0  0  0  0  0
  -27.5190  -37.0650   24.7330 C   0  0  0  0  0  1  0  0  0  0  0  0
  -26.4280  -37.2220   23.7730 N   0  0  0  0  0  0  0  0  0  0  0  0
  -26.0180  -38.1430   23.9070 H   0  0  0  0  0  0  0  0  0  0  0  0
  -30.4810  -17.8090   19.7430 C   0  0  0  0  0  2  0  0  0  0  0  0
  -30.8600  -15.0660   19.8430 C   0  0  0  0  0  0  0  0  0  0  0  0
  -30.6890  -12.6690   19.0260 C   0  0  0  0  0  2  0  0  0  0  0  0
  -29.7030  -12.5660   17.8380 C   0  0  0  0  0  2  0  0  0  0  0  0
  -28.2600  -12.3780   18.3470 C   0  0  0  0  0  2  0  0  0  0  0  0
  -27.9060  -13.3490   19.5030 C   0  0  0  0  0  3  0  0  0  0  0  0
  -29.0150  -13.4230   20.5750 C   0  0  0  0  0  2  0  0  0  0  0  0
  -30.2530  -13.8090   19.8850 N   0  0  0  0  0  0  0  0  0  0  0  0
  -32.0430  -15.1000   19.4930 O   0  0  0  0  0  0  0  0  0  0  0  0
  -30.1130  -16.2740   19.9840 N   0  0  0  0  0  0  0  0  0  0  0  0
  -29.1530  -16.1190   20.2490 H   0  0  0  0  0  0  0  0  0  0  0  0
  -25.5920  -13.9560   20.4120 C   0  0  0  0  0  0  0  0  0  0  0  0
  -24.5340  -13.1970   20.8270 C   0  0  0  0  0  0  0  0  0  0  0  0
  -24.9580  -11.8380   20.7200 C   0  0  0  0  0  0  0  0  0  0  0  0
  -26.5960  -13.0630   20.0790 N   0  0  0  0  0  0  0  0  0  0  0  0
  -26.2260  -11.7790   20.3260 N   0  0  0  0  0  0  0  0  0  0  0  0
  -24.2060  -10.5900   20.9110 C   0  0  0  0  0  0  0  0  0  0  0  0
  -24.6040   -9.6240   21.8620 C   0  0  0  0  0  3  0  0  0  0  0  0
  -23.8520   -8.4430   22.0400 C   0  0  0  0  0  3  0  0  0  0  0  0
  -22.6870   -8.2200   21.2680 C   0  0  0  0  0  0  0  0  0  0  0  0
  -22.3080   -9.1750   20.3070 C   0  0  0  0  0  3  0  0  0  0  0  0
  -23.0610  -10.3470   20.1270 C   0  0  0  0  0  3  0  0  0  0  0  0
  -21.9090   -7.0910   21.3550 O   0  0  0  0  0  0  0  0  0  0  0  0
  -21.7310   -6.4290   22.5440 C   0  0  0  0  0  0  0  0  0  0  0  0
  -21.1700   -7.0660   23.6720 C   0  0  0  0  0  3  0  0  0  0  0  0
  -20.9390   -6.3300   24.8520 C   0  0  0  0  0  3  0  0  0  0  0  0
  -21.2600   -4.9600   24.9030 C   0  0  0  0  0  0  0  0  0  0  0  0
  -21.8150   -4.3240   23.7780 C   0  0  0  0  0  3  0  0  0  0  0  0
  -22.0460   -5.0570   22.6010 C   0  0  0  0  0  0  0  0  0  0  0  0
  -22.5610   -4.4350   21.5130 F   0  0  0  0  0  0  0  0  0  0  0  0
  -21.0330   -4.2510   26.0340 F   0  0  0  0  0  0  0  0  0  0  0  0
  -23.1720  -13.7040   21.2060 C   0  0  0  0  0  0  0  0  0  0  0  0
  -22.4890  -13.0110   22.1080 N   0  0  0  0  0  0  0  0  0  0  0  0
  -22.7280  -14.7510   20.7370 O   0  0  0  0  0  0  0  0  0  0  0  0
  -22.8630  -12.1650   22.5120 H   0  0  0  0  0  0  0  0  0  0  0  0
  -21.5780  -13.3330   22.4040 H   0  0  0  0  0  0  0  0  0  0  0  0
  -25.7710  -15.3250   20.2660 N   0  0  0  0  0  0  0  0  0  0  0  0
  -25.0350  -15.9870   20.4830 H   0  0  0  0  0  0  0  0  0  0  0  0
  -26.6220  -15.7720   19.9540 H   0  0  0  0  0  0  0  0  0  0  0  0
  2  3  2  0
  3  1  1  0
  3  8  1  0
  4 51  1  0
  4  1  2  0
  5  4  1  0
  6  5  2  0
  6  2  1  0
  7  5  1  0
  9  8  2  0
  9 10  1  0
 11 22  2  0
 12 10  1  0
 12 17  1  0
 13 21  1  0
 13 23  1  0
 14 20  1  0
 14 16  1  0
 15 21  1  0
 16 15  1  0
 17 16  2  0
 18 12  2  0
 19 18  1  0
 19 14  2  0
 20 13  1  0
 21 11  1  0
 23 25  2  0
 24 23  1  0
 26 24  1  0
 27 36  2  0
 27 32  1  0
 28 24  1  0
 28 32  1  0
 29 28  1  0
 30 31  1  0
 30 29  1  0
 31 27  1  0
 32 33  2  0
 33 34  1  0
 35 34  2  0
 36 35  1  0
 37 11  1  0
 37 42  1  0
 37 38  1  0
 38 41  1  1
 38 39  1  0
 40 38  1  0
 42 45  1  0
 43 47  1  0
 43 42  1  0
 44 43  2  0
 47 46  1  0
 49 47  1  0
 49 50  1  0
 49 48  1  0
 51 60  1  0
 52 58  1  0
 52 60  1  0
 53 58  1  0
 54 55  1  0
 54 53  1  0
 56 55  1  0
 56 65  1  0
 56 57  1  0
 58 57  1  0
 59 52  2  0
 60 61  1  0
 62 63  2  0
 63 82  1  0
 64 63  1  0
 64 67  1  0
 65 66  1  0
 65 62  1  0
 66 64  2  0
 67 68  1  0
 68 69  2  0
 70 73  1  0
 70 69  1  0
 71 70  2  0
 72 71  1  0
 72 67  2  0
 73 74  1  0
 74 79  2  0
 74 75  1  0
 75 76  2  0
 76 77  1  0
 77 81  1  0
 78 77  2  0
 79 78  1  0
 80 79  1  0
 82 83  1  0
 83 86  1  0
 83 85  1  0
 84 82  2  0
 87 62  1  0
 87 88  1  0
 89 87  1  0
M  ISO  4   9 101  10 101  52 100  60 100
M  END
>  <TORSDO>  (75) 
F 19

>  <SCORE>  (75) 
-14.565

>  <name>  (75) 
77

>  <ligand_id>  (75) 
77

>  <original_smiles>  (75) 
[H]c1nc(Cl)c(C([H])([H])N([H])C(=O)N2C([H])([H])C([H])([H])C([H])([H])C([H])(n3nc(-c4c([H])c([H])c(Oc5c([H])c([H])c(F)c([H])c5F)c([H])c4[H])c(C(=O)N([H])[H])c3N([H])[H])C2([H])[H])c([H])c1C([H])([H])C([H])([H])Oc1c([H])c([H])c2c(c1[H])C([H])([H])N(C(=O)C([H])(N([H])C(=O)C([H])(N([H])C([H])([H])[H])C([H])([H])[H])C(C([H])([H])[H])(C([H])([H])[H])C([H])([H])[H])C([H])(C(=O)N([H])C1([H])c3c([H])c([H])c([H])c([H])c3C([H])([H])C([H])([H])C1([H])[H])C2([H])[H]

>  <smiles>  (75) 
[H]c1nc(Cl)c(C([H])([H])N([H])C(=O)N2C([H])([H])C([H])([H])C([H])([H])C([H])(n3nc(-c4c([H])c([H])c(Oc5c([H])c([H])c(F)c([H])c5F)c([H])c4[H])c(C(=O)N([H])[H])c3N([H])[H])C2([H])[H])c([H])c1C([H])([H])C([H])([H])Oc1c([H])c([H])c2c(c1[H])C([H])([H])N(C(=O)C([H])(N([H])C(=O)C([H])(N([H])C([H])([H])[H])C([H])([H])[H])C(C([H])([H])[H])(C([H])([H])[H])C([H])([H])[H])C([H])(C(=O)N([H])C1([H])c3c([H])c([H])c([H])c([H])c3C([H])([H])C([H])([H])C1([H])[H])C2([H])[H]

$$$$
78:0:0
     RDKit          3D

 95103  0  0  1  0  0  0  0  0999 V2000
  -28.3880  -18.9370   20.2610 C   0  0  0  0  0  3  0  0  0  0  0  0
  -30.2850  -19.9830   20.6230 C   0  0  0  0  0  3  0  0  0  0  0  0
  -29.7820  -18.6870   20.4690 C   0  0  0  0  0  0  0  0  0  0  0  0
  -28.1350  -20.2910   20.1820 C   0  0  0  0  0  0  0  0  0  0  0  0
  -29.3120  -21.0010   20.4320 N   0  0  0  0  0  0  0  0  0  0  0  0
  -30.6060  -17.3200   20.4530 C   0  0  0  0  0  2  0  0  0  0  0  0
  -30.6750  -14.7580   20.0510 C   0  0  0  0  0  0  0  0  0  0  0  0
  -30.3740  -12.4970   19.0320 C   0  0  0  0  0  2  0  0  0  0  0  0
  -29.3930  -12.5930   17.8490 C   0  0  0  0  0  2  0  0  0  0  0  0
  -27.9440  -12.4220   18.3360 C   0  0  0  0  0  2  0  0  0  0  0  0
  -27.6250  -13.3140   19.5670 C   0  0  0  0  0  3  0  0  0  0  0  0
  -28.7270  -13.2290   20.6460 C   0  0  0  0  0  2  0  0  0  0  0  0
  -30.0000  -13.5560   20.0010 N   0  0  0  0  0  0  0  0  0  0  0  0
  -31.8280  -14.8240   19.6140 O   0  0  0  0  0  0  0  0  0  0  0  0
  -30.0150  -15.9110   20.4340 N   0  0  0  0  0  0  0  0  0  0  0  0
  -29.1030  -15.7910   20.8500 H   0  0  0  0  0  0  0  0  0  0  0  0
  -25.2820  -13.9280   20.4090 C   0  0  0  0  0  0  0  0  0  0  0  0
  -24.2220  -13.1620   20.8140 C   0  0  0  0  0  0  0  0  0  0  0  0
  -24.6650  -11.8050   20.7450 C   0  0  0  0  0  0  0  0  0  0  0  0
  -26.2980  -13.0370   20.1100 N   0  0  0  0  0  0  0  0  0  0  0  0
  -25.9410  -11.7550   20.3770 N   0  0  0  0  0  0  0  0  0  0  0  0
  -23.9260  -10.5520   20.9520 C   0  0  0  0  0  0  0  0  0  0  0  0
  -24.3730   -9.5750   21.8700 C   0  0  0  0  0  3  0  0  0  0  0  0
  -23.6390   -8.3850   22.0580 C   0  0  0  0  0  3  0  0  0  0  0  0
  -22.4440   -8.1630   21.3350 C   0  0  0  0  0  0  0  0  0  0  0  0
  -22.0170   -9.1250   20.4040 C   0  0  0  0  0  3  0  0  0  0  0  0
  -22.7520  -10.3090   20.2090 C   0  0  0  0  0  3  0  0  0  0  0  0
  -21.6730   -7.0310   21.4470 O   0  0  0  0  0  0  0  0  0  0  0  0
  -21.6450   -6.2890   22.5990 C   0  0  0  0  0  0  0  0  0  0  0  0
  -21.2580   -6.8490   23.8380 C   0  0  0  0  0  3  0  0  0  0  0  0
  -21.1720   -6.0340   24.9830 C   0  0  0  0  0  3  0  0  0  0  0  0
  -21.4600   -4.6580   24.8970 C   0  0  0  0  0  0  0  0  0  0  0  0
  -21.8360   -4.0960   23.6640 C   0  0  0  0  0  3  0  0  0  0  0  0
  -21.9270   -4.9080   22.5220 C   0  0  0  0  0  0  0  0  0  0  0  0
  -22.2720   -4.3550   21.3340 F   0  0  0  0  0  0  0  0  0  0  0  0
  -21.3660   -3.8770   25.9990 F   0  0  0  0  0  0  0  0  0  0  0  0
  -22.8450  -13.6530   21.1540 C   0  0  0  0  0  0  0  0  0  0  0  0
  -22.1450  -12.9640   22.0500 N   0  0  0  0  0  0  0  0  0  0  0  0
  -22.4010  -14.6920   20.6620 O   0  0  0  0  0  0  0  0  0  0  0  0
  -22.5170  -12.1280   22.4770 H   0  0  0  0  0  0  0  0  0  0  0  0
  -21.2210  -13.2770   22.3110 H   0  0  0  0  0  0  0  0  0  0  0  0
  -25.4620  -15.2990   20.2430 N   0  0  0  0  0  0  0  0  0  0  0  0
  -24.7160  -15.9690   20.3970 H   0  0  0  0  0  0  0  0  0  0  0  0
  -26.3040  -15.7230   19.8760 H   0  0  0  0  0  0  0  0  0  0  0  0
  -26.8620  -20.9760   19.7640 C   0  0  0  0  0  2  0  0  0  0  0  0
  -27.0150  -21.7680   18.4460 C   0  0  0  0  0  2  0  0  0  0  0  0
  -25.9420  -22.8540   18.2260 C   0  0  0  0  0  2  0  0  0  0  0  0
  -27.3130  -24.8250   17.2450 C   0  0  0  0  0  1  0  0  0  0  0  0
  -24.9410  -24.5150   16.5500 C   0  0  0  0  0  1  0  0  0  0  0  0
  -26.2140  -23.7730   17.0010 C   0  0  0  0  0  3  0  0  0  0  0  0
  -29.5730  -22.5060   20.2710 C   0  0  0  0  0  2  0  0  0  0  0  0
  -29.3150  -24.1080   22.2840 C   0  0  0  0  0  1  0  0  0  0  0  0
  -28.6900  -23.7030   20.9250 C   0  0  0  0  0  3  0  0  0  0  0  0
  -28.4520  -25.0210   19.9810 C   0  0  0  0  0  2  0  0  0  0  0  0
  -28.3330  -26.4300   20.5030 O   0  0  0  0  0  0  0  0  0  0  0  0
  -24.6150  -31.9850   23.2710 C   0  0  0  0  0  0  0  0  0  0  0  0
  -27.2070  -27.2800   20.3660 C   0  0  0  0  0  0  0  0  0  0  0  0
  -23.4090  -30.5400   21.6710 C   0  0  0  0  0  3  0  0  0  0  0  0
  -24.8540  -28.9410   20.2880 C   0  0  0  0  0  0  0  0  0  0  0  0
  -25.9520  -30.8330   21.4860 C   0  0  0  0  0  2  0  0  0  0  0  0
  -26.0240  -29.4310   20.8790 C   0  0  0  0  0  0  0  0  0  0  0  0
  -27.1970  -28.6140   20.9060 C   0  0  0  0  0  3  0  0  0  0  0  0
  -26.0180  -26.8620   19.7270 C   0  0  0  0  0  3  0  0  0  0  0  0
  -24.8610  -27.6680   19.6950 C   0  0  0  0  0  3  0  0  0  0  0  0
  -23.6210  -29.8210   20.3120 C   0  0  0  0  0  2  0  0  0  0  0  0
  -24.6780  -31.1400   22.1970 N   0  0  0  0  0  0  0  0  0  0  0  0
  -23.5320  -32.2820   23.7970 O   0  0  0  0  0  0  0  0  0  0  0  0
  -22.7430  -29.5540   22.6640 C   0  0  0  0  0  0  0  0  0  0  0  0
  -21.4230  -29.3520   22.5230 N   0  0  0  0  0  0  0  0  0  0  0  0
  -23.4160  -28.9770   23.5220 O   0  0  0  0  0  0  0  0  0  0  0  0
  -20.9380  -29.8740   21.8050 H   0  0  0  0  0  0  0  0  0  0  0  0
  -18.0610  -28.0970   22.9840 C   0  0  0  0  0  0  0  0  0  0  0  0
  -20.6020  -28.4350   23.3170 C   0  0  0  0  0  3  0  0  0  0  0  0
  -20.7530  -26.9770   22.8250 C   0  0  0  0  0  2  0  0  0  0  0  0
  -19.6910  -26.5730   21.7940 C   0  0  0  0  0  2  0  0  0  0  0  0
  -18.2880  -26.7180   22.3880 C   0  0  0  0  0  2  0  0  0  0  0  0
  -19.1470  -28.9090   23.4070 C   0  0  0  0  0  0  0  0  0  0  0  0
  -18.8770  -30.1960   23.9220 C   0  0  0  0  0  3  0  0  0  0  0  0
  -17.5540  -30.6700   24.0190 C   0  0  0  0  0  3  0  0  0  0  0  0
  -16.4830  -29.8570   23.6120 C   0  0  0  0  0  3  0  0  0  0  0  0
  -16.7380  -28.5720   23.1010 C   0  0  0  0  0  3  0  0  0  0  0  0
  -25.9000  -32.6290   23.8730 C   0  0  0  0  0  3  0  0  0  0  0  0
  -25.5830  -34.0280   24.1970 N   0  0  0  0  0  0  0  0  0  0  0  0
  -25.9060  -35.0800   23.4330 C   0  0  0  0  0  0  0  0  0  0  0  0
  -26.5740  -34.9740   22.4000 O   0  0  0  0  0  0  0  0  0  0  0  0
  -24.9810  -34.1780   24.9940 H   0  0  0  0  0  0  0  0  0  0  0  0
  -24.1750  -36.8680   23.0660 C   0  0  0  0  0  1  0  0  0  0  0  0
  -25.4140  -36.4680   23.8850 C   0  0  0  0  0  3  0  0  0  0  0  0
  -27.5460  -37.3600   24.7160 C   0  0  0  0  0  1  0  0  0  0  0  0
  -26.4430  -37.5250   23.7700 N   0  0  0  0  0  0  0  0  0  0  0  0
  -26.0350  -38.4450   23.9110 H   0  0  0  0  0  0  0  0  0  0  0  0
  -26.4340  -31.8720   25.1520 C   0  0  1  0  0  0  0  0  0  0  0  0
  -25.3510  -31.6170   26.2260 C   0  0  0  0  0  1  0  0  0  0  0  0
  -27.0370  -30.5010   24.7640 C   0  0  0  0  0  1  0  0  0  0  0  0
  -27.5760  -32.6860   25.8070 C   0  0  0  0  0  1  0  0  0  0  0  0
  1  3  1  0
  3  2  2  0
  4  1  2  0
  4  5  1  0
  5  2  1  0
  6  3  1  0
  7 15  1  0
  8 13  1  0
  9 10  1  0
  9  8  1  0
 11 10  1  0
 11 20  1  0
 11 12  1  0
 13  7  1  0
 13 12  1  0
 14  7  2  0
 15  6  1  0
 15 16  1  0
 17 18  2  0
 18 37  1  0
 19 18  1  0
 19 22  1  0
 20 21  1  0
 20 17  1  0
 21 19  2  0
 22 23  1  0
 23 24  2  0
 25 28  1  0
 25 24  1  0
 26 25  2  0
 27 26  1  0
 27 22  2  0
 28 29  1  0
 29 30  1  0
 30 31  2  0
 32 31  1  0
 32 36  1  0
 33 32  2  0
 34 29  2  0
 34 33  1  0
 35 34  1  0
 37 38  1  0
 38 41  1  0
 38 40  1  0
 39 37  2  0
 42 43  1  0
 42 17  1  0
 44 42  1  0
 45  4  1  0
 46 45  1  0
 47 46  1  0
 49 50  1  0
 50 48  1  0
 50 47  1  0
 51  5  1  0
 51 53  1  0
 53 52  1  0
 54 55  1  0
 54 53  1  0
 56 67  2  0
 57 55  1  0
 57 62  1  0
 58 66  1  0
 58 68  1  0
 59 65  1  0
 59 61  1  0
 60 66  1  0
 61 62  2  0
 61 60  1  0
 63 57  2  0
 64 63  1  0
 64 59  2  0
 65 58  1  0
 66 56  1  0
 68 70  2  0
 69 68  1  0
 71 69  1  0
 72 81  2  0
 72 77  1  0
 73 69  1  0
 73 77  1  0
 74 73  1  0
 75 76  1  0
 75 74  1  0
 76 72  1  0
 77 78  2  0
 78 79  1  0
 80 79  2  0
 81 80  1  0
 82 56  1  0
 82 83  1  0
 82 92  1  0
 83 86  1  0
 84 88  1  0
 84 83  1  0
 85 84  2  0
 88 87  1  0
 90 88  1  0
 90 91  1  0
 90 89  1  0
 92 95  1  1
 92 93  1  0
 94 92  1  0
M  ISO  4   7 100  15 100  54 101  55 101
M  END
>  <TORSDO>  (76) 
F 24

>  <SCORE>  (76) 
-12.082

>  <name>  (76) 
78

>  <ligand_id>  (76) 
78

>  <original_smiles>  (76) 
[H]c1c([H])c([H])c2c(c1[H])C([H])([H])C([H])([H])C([H])([H])C2([H])N([H])C(=O)C1([H])N(C(=O)C([H])(N([H])C(=O)C([H])(N([H])C([H])([H])[H])C([H])([H])[H])C(C([H])([H])[H])(C([H])([H])[H])C([H])([H])[H])C([H])([H])c2c([H])c(OC([H])([H])C([H])(C([H])([H])[H])C([H])([H])n3c([H])c(C([H])([H])N([H])C(=O)N4C([H])([H])C([H])([H])C([H])([H])C([H])(n5nc(-c6c([H])c([H])c(Oc7c([H])c([H])c(F)c([H])c7F)c([H])c6[H])c(C(=O)N([H])[H])c5N([H])[H])C4([H])[H])c([H])c3C([H])([H])C([H])([H])C([H])([H])C([H])(C([H])([H])[H])C([H])([H])[H])c([H])c([H])c2C1([H])[H]

>  <smiles>  (76) 
[H]c1c([H])c([H])c2c(c1[H])C([H])([H])C([H])([H])C([H])([H])C2([H])N([H])C(=O)C1([H])N(C(=O)C([H])(N([H])C(=O)C([H])(N([H])C([H])([H])[H])C([H])([H])[H])C(C([H])([H])[H])(C([H])([H])[H])C([H])([H])[H])C([H])([H])c2c([H])c(OC([H])([H])C([H])(C([H])([H])[H])C([H])([H])n3c([H])c(C([H])([H])N([H])C(=O)N4C([H])([H])C([H])([H])C([H])([H])C([H])(n5nc(-c6c([H])c([H])c(Oc7c([H])c([H])c(F)c([H])c7F)c([H])c6[H])c(C(=O)N([H])[H])c5N([H])[H])C4([H])[H])c([H])c3C([H])([H])C([H])([H])C([H])([H])C([H])(C([H])([H])[H])C([H])([H])[H])c([H])c([H])c2C1([H])[H]

$$$$
79:0:0
     RDKit          3D

 99107  0  0  1  0  0  0  0  0999 V2000
  -29.1420  -21.2890   21.6920 C   0  0  0  0  0  2  0  0  0  0  0  0
  -30.2770  -20.5050   22.0000 C   0  0  0  0  0  0  0  0  0  0  0  0
  -28.5240  -20.8570   20.5560 C   0  0  0  0  0  3  0  0  0  0  0  0
  -30.2910  -19.5060   21.0590 C   0  0  0  0  0  0  0  0  0  0  0  0
  -31.3640  -18.4900   20.8340 C   0  0  0  0  0  1  0  0  0  0  0  0
  -29.1290  -19.5540   20.2620 N   0  0  0  0  0  0  0  0  0  0  0  0
  -30.8760  -22.1180   23.8730 C   0  0  0  0  0  1  0  0  0  0  0  0
  -31.2760  -20.8140   23.1350 C   0  0  1  0  0  0  0  0  0  0  0  0
  -29.9490  -19.2000   24.7220 C   0  0  0  0  0  1  0  0  0  0  0  0
  -31.3160  -19.6850   24.2060 C   0  0  0  0  0  2  0  0  0  0  0  0
  -32.7030  -21.0230   22.5530 C   0  0  0  0  0  2  0  0  0  0  0  0
  -32.6830  -21.7330   21.2630 N   0  0  0  0  0  4  0  0  0  0  0  0
  -32.0910  -21.2320   20.6220 H   0  0  0  0  0  0  0  0  0  0  0  0
  -33.6090  -21.7940   20.8790 H   0  0  0  0  0  0  0  0  0  0  0  0
  -32.3200  -22.6620   21.3750 H   0  0  0  0  0  0  0  0  0  0  0  0
  -27.3790  -21.7560   19.9430 C   0  0  0  0  0  2  0  0  0  0  0  0
  -27.4760  -23.3920   20.1440 C   0  0  0  0  0  3  0  0  0  0  0  0
  -26.6110  -24.4700   19.2870 C   0  0  0  0  0  3  0  0  0  0  0  0
  -26.9390  -25.9490   19.2750 O   0  0  0  0  0  0  0  0  0  0  0  0
  -24.9450  -31.6260   23.3360 C   0  0  0  0  0  0  0  0  0  0  0  0
  -26.0090  -27.0040   19.4790 C   0  0  0  0  0  0  0  0  0  0  0  0
  -23.2270  -30.6850   21.8340 C   0  0  0  0  0  3  0  0  0  0  0  0
  -24.0700  -29.0620   20.0420 C   0  0  0  0  0  0  0  0  0  0  0  0
  -25.7160  -30.5210   21.2160 C   0  0  0  0  0  2  0  0  0  0  0  0
  -25.3980  -29.2350   20.4510 C   0  0  0  0  0  0  0  0  0  0  0  0
  -26.3640  -28.2180   20.1630 C   0  0  0  0  0  3  0  0  0  0  0  0
  -24.6660  -26.9060   19.0540 C   0  0  0  0  0  3  0  0  0  0  0  0
  -23.7100  -27.9030   19.3370 C   0  0  0  0  0  3  0  0  0  0  0  0
  -23.0700  -30.1480   20.3870 C   0  0  0  0  0  2  0  0  0  0  0  0
  -24.6610  -30.9530   22.1810 N   0  0  0  0  0  0  0  0  0  0  0  0
  -24.0430  -32.0390   24.0800 O   0  0  0  0  0  0  0  0  0  0  0  0
  -22.5350  -29.7060   22.8140 C   0  0  0  0  0  0  0  0  0  0  0  0
  -21.2090  -29.5330   22.6670 N   0  0  0  0  0  0  0  0  0  0  0  0
  -23.1900  -29.1040   23.6680 O   0  0  0  0  0  0  0  0  0  0  0  0
  -20.7380  -30.0740   21.9550 H   0  0  0  0  0  0  0  0  0  0  0  0
  -17.8790  -28.1450   22.9370 C   0  0  0  0  0  0  0  0  0  0  0  0
  -20.3680  -28.6250   23.4480 C   0  0  0  0  0  3  0  0  0  0  0  0
  -20.6250  -27.1500   23.0600 C   0  0  0  0  0  2  0  0  0  0  0  0
  -19.6720  -26.6350   21.9790 C   0  0  0  0  0  2  0  0  0  0  0  0
  -18.2180  -26.7460   22.4490 C   0  0  0  0  0  2  0  0  0  0  0  0
  -18.8900  -29.0320   23.3920 C   0  0  0  0  0  0  0  0  0  0  0  0
  -18.5250  -30.3330   23.8050 C   0  0  0  0  0  3  0  0  0  0  0  0
  -17.1810  -30.7470   23.7710 C   0  0  0  0  0  3  0  0  0  0  0  0
  -16.1820  -29.8590   23.3350 C   0  0  0  0  0  3  0  0  0  0  0  0
  -16.5320  -28.5610   22.9230 C   0  0  0  0  0  3  0  0  0  0  0  0
  -26.4130  -31.9330   23.7630 C   0  0  0  0  0  3  0  0  0  0  0  0
  -27.0130  -30.8510   24.7440 C   0  0  1  0  0  0  0  0  0  0  0  0
  -26.1060  -30.5330   25.9540 C   0  0  0  0  0  1  0  0  0  0  0  0
  -27.2800  -29.5250   23.9970 C   0  0  0  0  0  1  0  0  0  0  0  0
  -28.3790  -31.3360   25.2840 C   0  0  0  0  0  1  0  0  0  0  0  0
  -26.4250  -33.2610   24.3940 N   0  0  0  0  0  0  0  0  0  0  0  0
  -26.9100  -34.3730   23.8260 C   0  0  0  0  0  0  0  0  0  0  0  0
  -27.4620  -34.3720   22.7220 O   0  0  0  0  0  0  0  0  0  0  0  0
  -25.9410  -33.3470   25.2750 H   0  0  0  0  0  0  0  0  0  0  0  0
  -25.6040  -36.5150   24.0140 C   0  0  0  0  0  1  0  0  0  0  0  0
  -26.7610  -35.6940   24.6050 C   0  0  0  0  0  3  0  0  0  0  0  0
  -29.0720  -35.9290   25.4020 C   0  0  0  0  0  1  0  0  0  0  0  0
  -27.9910  -36.5150   24.6150 N   0  0  0  0  0  0  0  0  0  0  0  0
  -27.8010  -37.4440   24.9800 H   0  0  0  0  0  0  0  0  0  0  0  0
  -28.8370  -18.4240   19.2560 C   0  0  0  0  0  2  0  0  0  0  0  0
  -28.4020  -16.9130   19.7720 C   0  0  0  0  0  2  0  0  0  0  0  0
  -29.9270  -14.7530   19.7380 C   0  0  0  0  0  0  0  0  0  0  0  0
  -29.8580  -12.3590   19.0070 C   0  0  0  0  0  2  0  0  0  0  0  0
  -28.8040  -12.1760   17.8940 C   0  0  0  0  0  2  0  0  0  0  0  0
  -27.4230  -11.8960   18.5150 C   0  0  0  0  0  2  0  0  0  0  0  0
  -27.0690  -12.8920   19.6520 C   0  0  0  0  0  3  0  0  0  0  0  0
  -28.2360  -13.0740   20.6490 C   0  0  0  0  0  2  0  0  0  0  0  0
  -29.4180  -13.4780   19.8790 N   0  0  0  0  0  0  0  0  0  0  0  0
  -30.9610  -14.9250   19.0810 O   0  0  0  0  0  0  0  0  0  0  0  0
  -30.1160  -16.2470   21.5600 C   0  0  0  0  0  1  0  0  0  0  0  0
  -29.3460  -15.8400   20.3800 N   0  0  0  0  0  0  0  0  0  0  0  0
  -24.8120  -13.3400   20.7830 C   0  0  0  0  0  0  0  0  0  0  0  0
  -23.8350  -12.5040   21.2490 C   0  0  0  0  0  0  0  0  0  0  0  0
  -24.3190  -11.1760   21.0380 C   0  0  0  0  0  0  0  0  0  0  0  0
  -25.8260  -12.5200   20.3210 N   0  0  0  0  0  0  0  0  0  0  0  0
  -25.5460  -11.2080   20.5310 N   0  0  0  0  0  0  0  0  0  0  0  0
  -23.6600   -9.8780   21.2360 C   0  0  0  0  0  0  0  0  0  0  0  0
  -24.1990   -8.8990   22.0980 C   0  0  0  0  0  3  0  0  0  0  0  0
  -23.5350   -7.6670   22.2870 C   0  0  0  0  0  3  0  0  0  0  0  0
  -22.3180   -7.4070   21.6150 C   0  0  0  0  0  0  0  0  0  0  0  0
  -21.7980   -8.3760   20.7390 C   0  0  0  0  0  3  0  0  0  0  0  0
  -22.4620   -9.5980   20.5480 C   0  0  0  0  0  3  0  0  0  0  0  0
  -21.6160   -6.2300   21.7180 O   0  0  0  0  0  0  0  0  0  0  0  0
  -21.6170   -5.4900   22.8750 C   0  0  0  0  0  0  0  0  0  0  0  0
  -21.1280   -6.0110   24.0930 C   0  0  0  0  0  3  0  0  0  0  0  0
  -21.0830   -5.1940   25.2400 C   0  0  0  0  0  3  0  0  0  0  0  0
  -21.5160   -3.8550   25.1690 C   0  0  0  0  0  0  0  0  0  0  0  0
  -21.9980   -3.3350   23.9560 C   0  0  0  0  0  3  0  0  0  0  0  0
  -22.0460   -4.1490   22.8110 C   0  0  0  0  0  0  0  0  0  0  0  0
  -22.4910   -3.6350   21.6390 F   0  0  0  0  0  0  0  0  0  0  0  0
  -21.4670   -3.0690   26.2690 F   0  0  0  0  0  0  0  0  0  0  0  0
  -22.4890  -12.9120   21.7720 C   0  0  0  0  0  0  0  0  0  0  0  0
  -21.9240  -12.1270   22.6830 N   0  0  0  0  0  0  0  0  0  0  0  0
  -21.9530  -13.9590   21.4110 O   0  0  0  0  0  0  0  0  0  0  0  0
  -22.3710  -11.2780   22.9920 H   0  0  0  0  0  0  0  0  0  0  0  0
  -21.0290  -12.3810   23.0770 H   0  0  0  0  0  0  0  0  0  0  0  0
  -24.9120  -14.7250   20.6940 N   0  0  0  0  0  0  0  0  0  0  0  0
  -24.1560  -15.3350   20.9890 H   0  0  0  0  0  0  0  0  0  0  0  0
  -25.6960  -15.2270   20.2980 H   0  0  0  0  0  0  0  0  0  0  0  0
  1  2  1  0
  2  8  1  0
  3 16  1  0
  3  1  1  0
  4  2  2  0
  5  4  1  0
  6  3  1  0
  6  4  1  0
  8  7  1  1
  8 10  1  0
 10  9  1  0
 11  8  1  0
 12 15  1  0
 12 11  1  0
 13 12  1  0
 14 12  1  0
 16 17  1  0
 18 17  2  0
 19 18  1  0
 19 21  1  0
 20 31  2  0
 21 26  1  0
 22 30  1  0
 22 32  1  0
 23 29  1  0
 23 25  1  0
 24 30  1  0
 25 24  1  0
 26 25  2  0
 27 28  1  0
 27 21  2  0
 28 23  2  0
 29 22  1  0
 30 20  1  0
 32 34  2  0
 33 32  1  0
 35 33  1  0
 36 41  1  0
 37 33  1  0
 38 37  1  0
 39 40  1  0
 39 38  1  0
 40 36  1  0
 41 37  1  0
 41 42  2  0
 43 42  1  0
 44 43  2  0
 45 36  2  0
 45 44  1  0
 46 20  1  0
 46 51  1  0
 46 47  1  0
 47 50  1  1
 47 48  1  0
 49 47  1  0
 51 54  1  0
 52 51  1  0
 52 56  1  0
 53 52  2  0
 56 55  1  0
 56 58  1  0
 58 59  1  0
 58 57  1  0
 60 61  1  0
 60  6  1  0
 61 71  1  0
 62 68  1  0
 62 71  1  0
 63 68  1  0
 64 65  1  0
 64 63  1  0
 66 65  1  0
 66 75  1  0
 66 67  1  0
 68 67  1  0
 69 62  2  0
 71 70  1  0
 72 73  2  0
 73 92  1  0
 74 77  1  0
 74 73  1  0
 75 76  1  0
 75 72  1  0
 76 74  2  0
 77 78  1  0
 78 79  2  0
 80 83  1  0
 80 79  1  0
 81 80  2  0
 82 81  1  0
 82 77  2  0
 83 84  1  0
 84 85  1  0
 85 86  2  0
 87 86  1  0
 87 91  1  0
 88 87  2  0
 89 84  2  0
 89 88  1  0
 90 89  1  0
 92 93  1  0
 93 95  1  0
 93 96  1  0
 94 92  2  0
 97 72  1  0
 97 98  1  0
 99 97  1  0
M  ISO  4  18 101  19 101  62 100  71 100
M  END
>  <TORSDO>  (77) 
F 25

>  <SCORE>  (77) 
-9.359

>  <name>  (77) 
79

>  <ligand_id>  (77) 
79

>  <original_smiles>  (77) 
[H]c1c([H])c([H])c2c(c1[H])C([H])([H])C([H])([H])C([H])([H])C2([H])N([H])C(=O)C1([H])N(C(=O)C([H])(N([H])C(=O)C([H])(N([H])C([H])([H])[H])C([H])([H])[H])C(C([H])([H])[H])(C([H])([H])[H])C([H])([H])[H])C([H])([H])c2c([H])c(OC([H])([H])C([H])([H])C([H])([H])c3c([H])c(C(C([H])([H])[H])(C([H])([H])C([H])([H])[H])C([H])([H])[N+]([H])([H])[H])c(C([H])([H])[H])n3C([H])([H])C([H])([H])N(C(=O)N3C([H])([H])C([H])([H])C([H])([H])C([H])(n4nc(-c5c([H])c([H])c(Oc6c([H])c([H])c(F)c([H])c6F)c([H])c5[H])c(C(=O)N([H])[H])c4N([H])[H])C3([H])[H])C([H])([H])[H])c([H])c([H])c2C1([H])[H]

>  <smiles>  (77) 
[H]c1c([H])c([H])c2c(c1[H])C([H])([H])C([H])([H])C([H])([H])C2([H])N([H])C(=O)C1([H])N(C(=O)C([H])(N([H])C(=O)C([H])(N([H])C([H])([H])[H])C([H])([H])[H])C(C([H])([H])[H])(C([H])([H])[H])C([H])([H])[H])C([H])([H])c2c([H])c(OC([H])([H])C([H])([H])C([H])([H])c3c([H])c(C(C([H])([H])[H])(C([H])([H])C([H])([H])[H])C([H])([H])[N+]([H])([H])[H])c(C([H])([H])[H])n3C([H])([H])C([H])([H])N(C(=O)N3C([H])([H])C([H])([H])C([H])([H])C([H])(n4nc(-c5c([H])c([H])c(Oc6c([H])c([H])c(F)c([H])c6F)c([H])c5[H])c(C(=O)N([H])[H])c4N([H])[H])C3([H])[H])C([H])([H])[H])c([H])c([H])c2C1([H])[H]

$$$$
80:0:0
     RDKit          3D

 86 93  0  0  1  0  0  0  0  0999 V2000
  -30.2420  -22.6190   19.1560 C   0  0  0  0  0  1  0  0  0  0  0  0
  -29.6720  -22.5140   21.5870 C   0  0  0  0  0  1  0  0  0  0  0  0
  -29.1020  -22.3550   20.1690 C   0  0  2  0  0  0  0  0  0  0  0  0
  -28.8530  -20.4480   20.0460 C   0  0  0  0  0  3  0  0  0  0  0  0
  -27.8740  -20.2520   20.9310 F   0  0  0  0  0  0  0  0  0  0  0  0
  -29.8630  -18.8190   20.2080 C   0  0  0  0  0  2  0  0  0  0  0  0
  -30.3280  -15.7020   20.1130 C   0  0  0  0  0  0  0  0  0  0  0  0
  -30.3990  -13.1770   19.2580 C   0  0  0  0  0  2  0  0  0  0  0  0
  -29.4720  -12.7790   18.0780 C   0  0  0  0  0  2  0  0  0  0  0  0
  -28.0500  -12.4320   18.5630 C   0  0  0  0  0  2  0  0  0  0  0  0
  -27.5780  -13.3960   19.6760 C   0  0  0  0  0  3  0  0  0  0  0  0
  -28.6600  -13.6790   20.7470 C   0  0  0  0  0  2  0  0  0  0  0  0
  -29.7930  -14.3390   20.0460 N   0  0  0  0  0  0  0  0  0  0  0  0
  -31.5610  -15.6340   19.9460 O   0  0  0  0  0  0  0  0  0  0  0  0
  -28.1290  -16.9370   20.1440 C   0  0  0  0  0  1  0  0  0  0  0  0
  -29.5790  -17.0740   20.1640 N   0  0  0  0  0  0  0  0  0  0  0  0
  -25.2230  -13.9040   20.5050 C   0  0  0  0  0  0  0  0  0  0  0  0
  -24.1820  -13.1170   20.8930 C   0  0  0  0  0  0  0  0  0  0  0  0
  -24.6610  -11.7730   20.8280 C   0  0  0  0  0  0  0  0  0  0  0  0
  -26.2730  -13.0500   20.2280 N   0  0  0  0  0  0  0  0  0  0  0  0
  -25.9460  -11.7540   20.4850 N   0  0  0  0  0  0  0  0  0  0  0  0
  -23.9400  -10.5040   21.0070 C   0  0  0  0  0  0  0  0  0  0  0  0
  -24.3740   -9.5320   21.9350 C   0  0  0  0  0  3  0  0  0  0  0  0
  -23.6500   -8.3320   22.1090 C   0  0  0  0  0  3  0  0  0  0  0  0
  -22.4760   -8.0970   21.3550 C   0  0  0  0  0  0  0  0  0  0  0  0
  -22.0580   -9.0560   20.4140 C   0  0  0  0  0  3  0  0  0  0  0  0
  -22.7870  -10.2470   20.2400 C   0  0  0  0  0  3  0  0  0  0  0  0
  -21.7230   -6.9500   21.4430 O   0  0  0  0  0  0  0  0  0  0  0  0
  -21.6540   -6.2210   22.6020 C   0  0  0  0  0  0  0  0  0  0  0  0
  -21.1450   -6.7680   23.7990 C   0  0  0  0  0  3  0  0  0  0  0  0
  -21.0320   -5.9630   24.9500 C   0  0  0  0  0  3  0  0  0  0  0  0
  -21.4140   -4.6090   24.9010 C   0  0  0  0  0  0  0  0  0  0  0  0
  -21.9110   -4.0580   23.7070 C   0  0  0  0  0  3  0  0  0  0  0  0
  -22.0280   -4.8620   22.5590 C   0  0  0  0  0  0  0  0  0  0  0  0
  -22.4930   -4.3220   21.4070 F   0  0  0  0  0  0  0  0  0  0  0  0
  -21.2920   -3.8330   26.0030 F   0  0  0  0  0  0  0  0  0  0  0  0
  -22.7890  -13.5830   21.1970 C   0  0  0  0  0  0  0  0  0  0  0  0
  -22.0780  -12.8820   22.0730 N   0  0  0  0  0  0  0  0  0  0  0  0
  -22.3380  -14.6120   20.6940 O   0  0  0  0  0  0  0  0  0  0  0  0
  -22.4490  -12.0540   22.5150 H   0  0  0  0  0  0  0  0  0  0  0  0
  -21.1440  -13.1860   22.3060 H   0  0  0  0  0  0  0  0  0  0  0  0
  -25.3450  -15.2790   20.3300 N   0  0  0  0  0  0  0  0  0  0  0  0
  -24.5460  -15.8920   20.4630 H   0  0  0  0  0  0  0  0  0  0  0  0
  -26.1430  -15.7480   19.9290 H   0  0  0  0  0  0  0  0  0  0  0  0
  -28.0440  -23.9500   20.0120 C   0  0  0  0  0  2  0  0  0  0  0  0
  -28.1790  -25.6750   20.2000 O   0  0  0  0  0  0  0  0  0  0  0  0
  -24.5910  -31.8260   23.2030 C   0  0  0  0  0  0  0  0  0  0  0  0
  -27.1700  -26.8420   20.1600 C   0  0  0  0  0  0  0  0  0  0  0  0
  -23.4160  -30.4430   21.5420 C   0  0  0  0  0  3  0  0  0  0  0  0
  -24.8780  -28.8280   20.1190 C   0  0  0  0  0  0  0  0  0  0  0  0
  -25.9940  -30.6120   21.4330 C   0  0  0  0  0  2  0  0  0  0  0  0
  -26.0670  -29.1940   20.7580 C   0  0  0  0  0  0  0  0  0  0  0  0
  -27.2000  -28.2290   20.7450 C   0  0  0  0  0  3  0  0  0  0  0  0
  -25.9410  -26.6670   19.4760 C   0  0  0  0  0  3  0  0  0  0  0  0
  -24.8520  -27.5910   19.4530 C   0  0  0  0  0  3  0  0  0  0  0  0
  -23.6630  -29.7670   20.1630 C   0  0  0  0  0  2  0  0  0  0  0  0
  -24.6900  -30.9920   22.1110 N   0  0  0  0  0  0  0  0  0  0  0  0
  -23.4940  -32.1100   23.7150 O   0  0  0  0  0  0  0  0  0  0  0  0
  -22.6970  -29.4510   22.4930 C   0  0  0  0  0  0  0  0  0  0  0  0
  -21.3650  -29.3010   22.3570 N   0  0  0  0  0  0  0  0  0  0  0  0
  -23.3490  -28.8120   23.3220 O   0  0  0  0  0  0  0  0  0  0  0  0
  -20.8870  -29.8630   21.6650 H   0  0  0  0  0  0  0  0  0  0  0  0
  -17.9700  -28.1090   22.8550 C   0  0  0  0  0  0  0  0  0  0  0  0
  -20.5340  -28.3550   23.1150 C   0  0  0  0  0  3  0  0  0  0  0  0
  -20.6220  -26.9310   22.5110 C   0  0  0  0  0  2  0  0  0  0  0  0
  -19.5150  -26.6410   21.4930 C   0  0  0  0  0  2  0  0  0  0  0  0
  -18.1360  -26.7770   22.1440 C   0  0  0  0  0  2  0  0  0  0  0  0
  -19.0960  -28.8580   23.2960 C   0  0  0  0  0  0  0  0  0  0  0  0
  -18.8820  -30.1040   23.9240 C   0  0  0  0  0  3  0  0  0  0  0  0
  -17.5780  -30.6020   24.1160 C   0  0  0  0  0  3  0  0  0  0  0  0
  -16.4700  -29.8510   23.6900 C   0  0  0  0  0  3  0  0  0  0  0  0
  -16.6670  -28.6060   23.0650 C   0  0  0  0  0  3  0  0  0  0  0  0
  -25.8480  -32.4700   23.8600 C   0  0  0  0  0  3  0  0  0  0  0  0
  -26.3200  -31.7140   25.1640 C   0  0  1  0  0  0  0  0  0  0  0  0
  -25.1930  -31.4940   26.2010 C   0  0  0  0  0  1  0  0  0  0  0  0
  -26.9070  -30.3300   24.8170 C   0  0  0  0  0  1  0  0  0  0  0  0
  -27.4550  -32.5100   25.8510 C   0  0  0  0  0  1  0  0  0  0  0  0
  -25.5280  -33.8750   24.1850 N   0  0  0  0  0  0  0  0  0  0  0  0
  -25.8530  -34.9340   23.4320 C   0  0  0  0  0  0  0  0  0  0  0  0
  -26.5090  -34.8350   22.3940 O   0  0  0  0  0  0  0  0  0  0  0  0
  -24.9470  -34.0240   24.9950 H   0  0  0  0  0  0  0  0  0  0  0  0
  -24.1140  -36.7340   23.1230 C   0  0  0  0  0  1  0  0  0  0  0  0
  -25.3760  -36.3270   23.9010 C   0  0  0  0  0  3  0  0  0  0  0  0
  -27.5210  -37.2300   24.6860 C   0  0  0  0  0  1  0  0  0  0  0  0
  -26.4040  -37.3820   23.7590 N   0  0  0  0  0  0  0  0  0  0  0  0
  -25.9980  -38.3020   23.9030 H   0  0  0  0  0  0  0  0  0  0  0  0
  3  1  1  6
  3  2  1  0
  4  3  1  0
  4  6  1  0
  4  5  1  0
  7 16  1  0
  8 13  1  0
  9 10  1  0
  9  8  1  0
 11 10  1  0
 11 20  1  0
 11 12  1  0
 13  7  1  0
 13 12  1  0
 14  7  2  0
 15 16  1  0
 16  6  1  0
 17 18  2  0
 18 37  1  0
 19 18  1  0
 19 22  1  0
 20 21  1  0
 20 17  1  0
 21 19  2  0
 22 23  1  0
 23 24  2  0
 25 28  1  0
 25 24  1  0
 26 25  2  0
 27 26  1  0
 27 22  2  0
 28 29  1  0
 29 30  1  0
 30 31  2  0
 32 31  1  0
 32 36  1  0
 33 32  2  0
 34 29  2  0
 34 33  1  0
 35 34  1  0
 37 38  1  0
 38 41  1  0
 38 40  1  0
 39 37  2  0
 42 43  1  0
 42 17  1  0
 44 42  1  0
 45  3  1  0
 45 46  1  0
 47 58  2  0
 48 46  1  0
 48 53  1  0
 49 57  1  0
 49 59  1  0
 50 56  1  0
 50 52  1  0
 51 57  1  0
 52 51  1  0
 53 52  2  0
 54 48  2  0
 55 54  1  0
 55 50  2  0
 56 49  1  0
 57 47  1  0
 59 61  2  0
 60 59  1  0
 62 60  1  0
 63 72  2  0
 63 68  1  0
 64 60  1  0
 64 68  1  0
 65 64  1  0
 66 67  1  0
 66 65  1  0
 67 63  1  0
 68 69  2  0
 69 70  1  0
 71 70  2  0
 72 71  1  0
 73 47  1  0
 73 78  1  0
 73 74  1  0
 74 77  1  1
 74 75  1  0
 76 74  1  0
 78 81  1  0
 79 83  1  0
 79 78  1  0
 80 79  2  0
 83 82  1  0
 85 83  1  0
 85 86  1  0
 85 84  1  0
M  ISO  4   7 100  16 100  45 101  46 101
M  END
>  <TORSDO>  (78) 
F 19

>  <SCORE>  (78) 
-16.666

>  <name>  (78) 
80

>  <ligand_id>  (78) 
80

>  <original_smiles>  (78) 
[H]c1c([H])c([H])c2c(c1[H])C([H])([H])C([H])([H])C([H])([H])C2([H])N([H])C(=O)C1([H])N(C(=O)C([H])(N([H])C(=O)C([H])(N([H])C([H])([H])[H])C([H])([H])[H])C(C([H])([H])[H])(C([H])([H])[H])C([H])([H])[H])C([H])([H])c2c([H])c(OC([H])([H])C(C([H])([H])[H])(C([H])([H])[H])C([H])(F)C([H])([H])N(C(=O)N3C([H])([H])C([H])([H])C([H])([H])C([H])(n4nc(-c5c([H])c([H])c(Oc6c([H])c([H])c(F)c([H])c6F)c([H])c5[H])c(C(=O)N([H])[H])c4N([H])[H])C3([H])[H])C([H])([H])[H])c([H])c([H])c2C1([H])[H]

>  <smiles>  (78) 
[H]c1c([H])c([H])c2c(c1[H])C([H])([H])C([H])([H])C([H])([H])C2([H])N([H])C(=O)C1([H])N(C(=O)C([H])(N([H])C(=O)C([H])(N([H])C([H])([H])[H])C([H])([H])[H])C(C([H])([H])[H])(C([H])([H])[H])C([H])([H])[H])C([H])([H])c2c([H])c(OC([H])([H])C(C([H])([H])[H])(C([H])([H])[H])C([H])(F)C([H])([H])N(C(=O)N3C([H])([H])C([H])([H])C([H])([H])C([H])(n4nc(-c5c([H])c([H])c(Oc6c([H])c([H])c(F)c([H])c6F)c([H])c5[H])c(C(=O)N([H])[H])c4N([H])[H])C3([H])[H])C([H])([H])[H])c([H])c([H])c2C1([H])[H]

$$$$
81:0:0
     RDKit          3D

 94102  0  0  1  0  0  0  0  0999 V2000
  -28.9400  -19.8790   19.9670 C   0  0  0  0  0  3  0  0  0  0  0  0
  -29.9540  -18.9550   20.2330 C   0  0  0  0  0  0  0  0  0  0  0  0
  -30.9370  -19.7380   20.9220 C   0  0  0  0  0  0  0  0  0  0  0  0
  -30.4970  -21.0490   21.0230 C   0  0  0  0  0  0  0  0  0  0  0  0
  -31.1650  -22.2290   21.6660 C   0  0  0  0  0  1  0  0  0  0  0  0
  -29.2370  -21.1790   20.4450 N   0  0  0  0  0  0  0  0  0  0  0  0
  -32.2540  -19.2050   21.4440 C   0  0  0  0  0  2  0  0  0  0  0  0
  -34.7840  -19.2370   21.3310 C   0  0  0  0  0  1  0  0  0  0  0  0
  -33.4680  -19.1220   19.1790 C   0  0  0  0  0  1  0  0  0  0  0  0
  -33.4850  -19.6500   20.6230 C   0  0  0  0  0  3  0  0  0  0  0  0
  -30.0820  -17.4380   19.7480 C   0  0  0  0  0  2  0  0  0  0  0  0
  -30.7950  -15.0790   20.5750 C   0  0  0  0  0  0  0  0  0  0  0  0
  -30.7380  -12.7030   19.8290 C   0  0  0  0  0  2  0  0  0  0  0  0
  -29.8950  -12.6200   18.5360 C   0  0  0  0  0  2  0  0  0  0  0  0
  -28.4020  -12.4410   18.8740 C   0  0  0  0  0  2  0  0  0  0  0  0
  -27.9120  -13.4350   19.9610 C   0  0  0  0  0  3  0  0  0  0  0  0
  -28.8850  -13.5020   21.1620 C   0  0  0  0  0  2  0  0  0  0  0  0
  -30.2170  -13.8310   20.6370 N   0  0  0  0  0  0  0  0  0  0  0  0
  -31.9800  -15.1880   20.2520 O   0  0  0  0  0  0  0  0  0  0  0  0
  -29.9730  -16.1930   20.6240 N   0  0  0  0  0  0  0  0  0  0  0  0
  -29.0470  -16.0100   20.9770 H   0  0  0  0  0  0  0  0  0  0  0  0
  -25.4830  -14.0260   20.5390 C   0  0  0  0  0  0  0  0  0  0  0  0
  -24.4020  -13.2530   20.8640 C   0  0  0  0  0  0  0  0  0  0  0  0
  -24.8720  -11.9040   20.8830 C   0  0  0  0  0  0  0  0  0  0  0  0
  -26.5430  -13.1490   20.3780 N   0  0  0  0  0  0  0  0  0  0  0  0
  -26.1780  -11.8680   20.6460 N   0  0  0  0  0  0  0  0  0  0  0  0
  -24.1420  -10.6420   21.0550 C   0  0  0  0  0  0  0  0  0  0  0  0
  -24.5230   -9.6940   22.0310 C   0  0  0  0  0  3  0  0  0  0  0  0
  -23.7910   -8.4960   22.1900 C   0  0  0  0  0  3  0  0  0  0  0  0
  -22.6660   -8.2370   21.3710 C   0  0  0  0  0  0  0  0  0  0  0  0
  -22.3040   -9.1740   20.3860 C   0  0  0  0  0  3  0  0  0  0  0  0
  -23.0360  -10.3630   20.2250 C   0  0  0  0  0  3  0  0  0  0  0  0
  -21.9120   -7.0910   21.4380 O   0  0  0  0  0  0  0  0  0  0  0  0
  -21.7870   -6.3770   22.6020 C   0  0  0  0  0  0  0  0  0  0  0  0
  -21.2830   -6.9640   23.7840 C   0  0  0  0  0  3  0  0  0  0  0  0
  -21.1050   -6.1770   24.9400 C   0  0  0  0  0  3  0  0  0  0  0  0
  -21.4220   -4.8060   24.9150 C   0  0  0  0  0  0  0  0  0  0  0  0
  -21.9180   -4.2180   23.7370 C   0  0  0  0  0  3  0  0  0  0  0  0
  -22.0970   -5.0020   22.5840 C   0  0  0  0  0  0  0  0  0  0  0  0
  -22.5550   -4.4270   21.4470 F   0  0  0  0  0  0  0  0  0  0  0  0
  -21.2440   -4.0480   26.0230 F   0  0  0  0  0  0  0  0  0  0  0  0
  -22.9900  -13.7270   21.0490 C   0  0  0  0  0  0  0  0  0  0  0  0
  -22.2210  -13.0510   21.8960 N   0  0  0  0  0  0  0  0  0  0  0  0
  -22.5720  -14.7330   20.4770 O   0  0  0  0  0  0  0  0  0  0  0  0
  -22.5710  -12.2370   22.3820 H   0  0  0  0  0  0  0  0  0  0  0  0
  -21.2710  -13.3500   22.0620 H   0  0  0  0  0  0  0  0  0  0  0  0
  -25.6500  -15.3950   20.3440 N   0  0  0  0  0  0  0  0  0  0  0  0
  -24.8740  -16.0470   20.3980 H   0  0  0  0  0  0  0  0  0  0  0  0
  -26.5070  -15.8340   20.0380 H   0  0  0  0  0  0  0  0  0  0  0  0
  -28.3090  -22.3970   20.5400 C   0  0  0  0  0  2  0  0  0  0  0  0
  -28.5280  -23.8260   19.7920 C   0  0  0  0  0  2  0  0  0  0  0  0
  -26.4130  -24.8360   20.9620 C   0  0  0  0  0  1  0  0  0  0  0  0
  -27.8240  -25.1670   20.4100 C   0  0  0  0  0  3  0  0  0  0  0  0
  -27.9320  -26.5230   19.7300 O   0  0  0  0  0  0  0  0  0  0  0  0
  -24.4870  -31.9230   23.1620 C   0  0  0  0  0  0  0  0  0  0  0  0
  -26.8630  -27.4510   19.7760 C   0  0  0  0  0  0  0  0  0  0  0  0
  -23.1770  -30.6050   21.5360 C   0  0  0  0  0  3  0  0  0  0  0  0
  -24.5290  -29.1120   19.9520 C   0  0  0  0  0  0  0  0  0  0  0  0
  -25.7060  -30.9050   21.2220 C   0  0  0  0  0  2  0  0  0  0  0  0
  -25.7350  -29.5520   20.5140 C   0  0  0  0  0  0  0  0  0  0  0  0
  -26.9060  -28.7330   20.4190 C   0  0  0  0  0  3  0  0  0  0  0  0
  -25.6510  -27.1060   19.1410 C   0  0  0  0  0  3  0  0  0  0  0  0
  -24.4910  -27.8970   19.2520 C   0  0  0  0  0  3  0  0  0  0  0  0
  -23.3050  -29.9920   20.1160 C   0  0  0  0  0  2  0  0  0  0  0  0
  -24.4790  -31.1610   22.0280 N   0  0  0  0  0  0  0  0  0  0  0  0
  -23.4390  -32.1830   23.7720 O   0  0  0  0  0  0  0  0  0  0  0  0
  -22.5640  -29.5510   22.4900 C   0  0  0  0  0  0  0  0  0  0  0  0
  -21.2370  -29.3500   22.4030 N   0  0  0  0  0  0  0  0  0  0  0  0
  -23.2800  -28.9190   23.2720 O   0  0  0  0  0  0  0  0  0  0  0  0
  -20.7150  -29.9170   21.7490 H   0  0  0  0  0  0  0  0  0  0  0  0
  -17.9160  -28.0110   22.9190 C   0  0  0  0  0  0  0  0  0  0  0  0
  -20.4620  -28.3770   23.1750 C   0  0  0  0  0  3  0  0  0  0  0  0
  -20.6200  -26.9520   22.5970 C   0  0  0  0  0  2  0  0  0  0  0  0
  -19.5270  -26.5860   21.5860 C   0  0  0  0  0  2  0  0  0  0  0  0
  -18.1440  -26.6720   22.2380 C   0  0  0  0  0  2  0  0  0  0  0  0
  -19.0040  -28.8180   23.3450 C   0  0  0  0  0  0  0  0  0  0  0  0
  -18.7340  -30.0690   23.9420 C   0  0  0  0  0  3  0  0  0  0  0  0
  -17.4100  -30.5130   24.1180 C   0  0  0  0  0  3  0  0  0  0  0  0
  -16.3370  -29.7030   23.7060 C   0  0  0  0  0  3  0  0  0  0  0  0
  -16.5910  -28.4540   23.1130 C   0  0  0  0  0  3  0  0  0  0  0  0
  -25.8090  -32.5230   23.7330 C   0  0  0  0  0  3  0  0  0  0  0  0
  -25.5380  -33.9170   24.1130 N   0  0  0  0  0  0  0  0  0  0  0  0
  -25.8740  -34.9870   23.3800 C   0  0  0  0  0  0  0  0  0  0  0  0
  -26.5150  -34.9030   22.3290 O   0  0  0  0  0  0  0  0  0  0  0  0
  -24.9670  -34.0570   24.9350 H   0  0  0  0  0  0  0  0  0  0  0  0
  -24.1790  -36.8290   23.1280 C   0  0  0  0  0  1  0  0  0  0  0  0
  -25.4300  -36.3700   23.8940 C   0  0  0  0  0  3  0  0  0  0  0  0
  -27.6070  -37.1780   24.6950 C   0  0  0  0  0  1  0  0  0  0  0  0
  -26.4840  -37.4030   23.7890 N   0  0  0  0  0  0  0  0  0  0  0  0
  -26.1040  -38.3270   23.9780 H   0  0  0  0  0  0  0  0  0  0  0  0
  -26.3770  -31.7140   24.9630 C   0  0  1  0  0  0  0  0  0  0  0  0
  -25.3380  -31.4700   26.0820 C   0  0  0  0  0  1  0  0  0  0  0  0
  -26.9150  -30.3360   24.5130 C   0  0  0  0  0  1  0  0  0  0  0  0
  -27.5750  -32.4730   25.5820 C   0  0  0  0  0  1  0  0  0  0  0  0
  1  2  2  0
  1  6  1  0
  2  3  1  0
  3  4  2  0
  3  7  1  0
  4  5  1  0
  6 50  1  0
  6  4  1  0
  9 10  1  0
 10  8  1  0
 10  7  1  0
 11  2  1  0
 11 20  1  0
 12 20  1  0
 12 18  1  0
 13 18  1  0
 14 15  1  0
 14 13  1  0
 16 15  1  0
 16 25  1  0
 16 17  1  0
 18 17  1  0
 19 12  2  0
 20 21  1  0
 22 23  2  0
 23 24  1  0
 23 42  1  0
 24 27  1  0
 25 22  1  0
 25 26  1  0
 26 24  2  0
 27 28  1  0
 28 29  2  0
 30 33  1  0
 30 29  1  0
 31 30  2  0
 32 31  1  0
 32 27  2  0
 33 34  1  0
 34 35  1  0
 35 36  2  0
 37 36  1  0
 37 41  1  0
 38 37  2  0
 39 34  2  0
 39 38  1  0
 40 39  1  0
 42 43  1  0
 43 46  1  0
 43 45  1  0
 44 42  2  0
 47 48  1  0
 47 22  1  0
 49 47  1  0
 51 53  1  0
 51 50  1  0
 53 52  1  0
 54 56  1  0
 54 53  1  0
 55 66  2  0
 56 61  1  0
 57 65  1  0
 57 67  1  0
 58 64  1  0
 58 60  1  0
 59 65  1  0
 60 59  1  0
 61 60  2  0
 62 63  1  0
 62 56  2  0
 63 58  2  0
 64 57  1  0
 65 55  1  0
 67 69  2  0
 68 67  1  0
 70 68  1  0
 71 80  2  0
 71 76  1  0
 72 68  1  0
 72 76  1  0
 73 72  1  0
 74 75  1  0
 74 73  1  0
 75 71  1  0
 76 77  2  0
 77 78  1  0
 79 78  2  0
 80 79  1  0
 81 55  1  0
 81 82  1  0
 81 91  1  0
 82 85  1  0
 83 87  1  0
 83 82  1  0
 84 83  2  0
 87 86  1  0
 89 87  1  0
 89 90  1  0
 89 88  1  0
 91 94  1  1
 91 92  1  0
 93 91  1  0
M  ISO  4  12 100  20 100  53 101  54 101
M  END
>  <TORSDO>  (79) 
F 22

>  <SCORE>  (79) 
-13.022

>  <name>  (79) 
81

>  <ligand_id>  (79) 
81

>  <original_smiles>  (79) 
[H]c1c([H])c([H])c2c(c1[H])C([H])([H])C([H])([H])C([H])([H])C2([H])N([H])C(=O)C1([H])N(C(=O)C([H])(N([H])C(=O)C([H])(N([H])C([H])([H])[H])C([H])([H])[H])C(C([H])([H])[H])(C([H])([H])[H])C([H])([H])[H])C([H])([H])c2c([H])c(OC([H])(C([H])([H])[H])C([H])([H])C([H])([H])n3c([H])c(C([H])([H])N([H])C(=O)N4C([H])([H])C([H])([H])C([H])([H])C([H])(n5nc(-c6c([H])c([H])c(Oc7c([H])c([H])c(F)c([H])c7F)c([H])c6[H])c(C(=O)N([H])[H])c5N([H])[H])C4([H])[H])c(C([H])([H])C([H])(C([H])([H])[H])C([H])([H])[H])c3C([H])([H])[H])c([H])c([H])c2C1([H])[H]

>  <smiles>  (79) 
[H]c1c([H])c([H])c2c(c1[H])C([H])([H])C([H])([H])C([H])([H])C2([H])N([H])C(=O)C1([H])N(C(=O)C([H])(N([H])C(=O)C([H])(N([H])C([H])([H])[H])C([H])([H])[H])C(C([H])([H])[H])(C([H])([H])[H])C([H])([H])[H])C([H])([H])c2c([H])c(OC([H])(C([H])([H])[H])C([H])([H])C([H])([H])n3c([H])c(C([H])([H])N([H])C(=O)N4C([H])([H])C([H])([H])C([H])([H])C([H])(n5nc(-c6c([H])c([H])c(Oc7c([H])c([H])c(F)c([H])c7F)c([H])c6[H])c(C(=O)N([H])[H])c5N([H])[H])C4([H])[H])c(C([H])([H])C([H])(C([H])([H])[H])C([H])([H])[H])c3C([H])([H])[H])c([H])c([H])c2C1([H])[H]

$$$$
82:0:0
     RDKit          3D

 90 98  0  0  1  0  0  0  0  0999 V2000
  -28.1400  -19.2580   19.6140 C   0  0  0  0  0  3  0  0  0  0  0  0
  -29.6730  -17.0970   20.8570 C   0  0  0  0  0  0  0  0  0  0  0  0
  -29.0910  -19.6880   20.5460 C   0  0  0  0  0  0  0  0  0  0  0  0
  -28.8340  -16.9800   19.6870 C   0  0  0  0  0  0  0  0  0  0  0  0
  -28.0540  -17.9820   19.1830 N   0  0  0  0  0  0  0  0  0  0  0  0
  -29.8300  -18.5490   21.1680 N   0  0  0  0  0  0  0  0  0  0  0  0
  -30.4900  -15.6970   21.4160 C   0  0  0  0  0  0  0  0  0  0  0  0
  -30.8050  -13.1410   21.0100 C   0  0  0  0  0  2  0  0  0  0  0  0
  -30.1920  -12.5910   19.6930 C   0  0  0  0  0  2  0  0  0  0  0  0
  -28.6720  -12.3550   19.8190 C   0  0  0  0  0  2  0  0  0  0  0  0
  -27.9420  -13.4100   20.6930 C   0  0  0  0  0  3  0  0  0  0  0  0
  -28.7260  -13.8200   21.9480 C   0  0  0  0  0  2  0  0  0  0  0  0
  -30.0260  -14.3440   21.4890 N   0  0  0  0  0  0  0  0  0  0  0  0
  -31.7190  -15.7540   21.5950 O   0  0  0  0  0  0  0  0  0  0  0  0
  -25.4650  -13.9240   21.0060 C   0  0  0  0  0  0  0  0  0  0  0  0
  -24.3720  -13.1220   21.1680 C   0  0  0  0  0  0  0  0  0  0  0  0
  -24.8700  -11.7830   21.2250 C   0  0  0  0  0  0  0  0  0  0  0  0
  -26.5540  -13.0710   20.9610 N   0  0  0  0  0  0  0  0  0  0  0  0
  -26.1960  -11.7780   21.1640 N   0  0  0  0  0  0  0  0  0  0  0  0
  -24.1540  -10.5030   21.2760 C   0  0  0  0  0  0  0  0  0  0  0  0
  -24.4500   -9.5320   22.2570 C   0  0  0  0  0  3  0  0  0  0  0  0
  -23.7330   -8.3170   22.3000 C   0  0  0  0  0  3  0  0  0  0  0  0
  -22.7070   -8.0660   21.3590 C   0  0  0  0  0  0  0  0  0  0  0  0
  -22.4320   -9.0270   20.3710 C   0  0  0  0  0  3  0  0  0  0  0  0
  -23.1500  -10.2330   20.3260 C   0  0  0  0  0  3  0  0  0  0  0  0
  -21.9740   -6.9050   21.3100 O   0  0  0  0  0  0  0  0  0  0  0  0
  -21.7640   -6.1380   22.4280 C   0  0  0  0  0  0  0  0  0  0  0  0
  -21.1680   -6.6680   23.5930 C   0  0  0  0  0  3  0  0  0  0  0  0
  -20.9080   -5.8290   24.6950 C   0  0  0  0  0  3  0  0  0  0  0  0
  -21.2340   -4.4600   24.6300 C   0  0  0  0  0  0  0  0  0  0  0  0
  -21.8210   -3.9300   23.4680 C   0  0  0  0  0  3  0  0  0  0  0  0
  -22.0830   -4.7680   22.3700 C   0  0  0  0  0  0  0  0  0  0  0  0
  -22.6310   -4.2470   21.2440 F   0  0  0  0  0  0  0  0  0  0  0  0
  -20.9770   -3.6520   25.6840 F   0  0  0  0  0  0  0  0  0  0  0  0
  -22.9390  -13.5640   21.1680 C   0  0  0  0  0  0  0  0  0  0  0  0
  -22.0800  -12.8580   21.8950 N   0  0  0  0  0  0  0  0  0  0  0  0
  -22.5810  -14.5720   20.5590 O   0  0  0  0  0  0  0  0  0  0  0  0
  -22.3790  -12.0440   22.4100 H   0  0  0  0  0  0  0  0  0  0  0  0
  -21.1100  -13.1370   21.9370 H   0  0  0  0  0  0  0  0  0  0  0  0
  -25.6190  -15.3000   20.8660 N   0  0  0  0  0  0  0  0  0  0  0  0
  -24.8210  -15.9240   20.8310 H   0  0  0  0  0  0  0  0  0  0  0  0
  -26.4950  -15.7790   20.7030 H   0  0  0  0  0  0  0  0  0  0  0  0
  -30.0560  -16.3220   17.5790 C   0  0  0  0  0  1  0  0  0  0  0  0
  -27.7160  -15.4370   17.9290 C   0  0  0  0  0  1  0  0  0  0  0  0
  -29.0200  -15.8860   18.6280 C   0  0  0  0  0  3  0  0  0  0  0  0
  -30.3140  -21.7220   21.6940 C   0  0  0  0  0  1  0  0  0  0  0  0
  -29.3490  -21.4150   20.5410 C   0  0  0  0  0  3  0  0  0  0  0  0
  -28.2220  -22.8290   20.4610 C   0  0  0  0  0  2  0  0  0  0  0  0
  -28.2470  -24.4870   19.7360 C   0  0  0  0  0  2  0  0  0  0  0  0
  -28.1700  -26.0780   20.1710 O   0  0  0  0  0  0  0  0  0  0  0  0
  -24.6540  -31.9700   23.2220 C   0  0  0  0  0  0  0  0  0  0  0  0
  -27.1360  -27.1470   20.0700 C   0  0  0  0  0  0  0  0  0  0  0  0
  -23.4130  -30.5900   21.6020 C   0  0  0  0  0  3  0  0  0  0  0  0
  -24.8210  -29.0080   20.1100 C   0  0  0  0  0  0  0  0  0  0  0  0
  -25.9700  -30.8150   21.3790 C   0  0  0  0  0  2  0  0  0  0  0  0
  -26.0220  -29.4140   20.7040 C   0  0  0  0  0  0  0  0  0  0  0  0
  -27.1650  -28.5020   20.6630 C   0  0  0  0  0  3  0  0  0  0  0  0
  -25.9070  -26.8890   19.4220 C   0  0  0  0  0  3  0  0  0  0  0  0
  -24.7880  -27.7670   19.4480 C   0  0  0  0  0  3  0  0  0  0  0  0
  -23.5980  -29.9210   20.2100 C   0  0  0  0  0  2  0  0  0  0  0  0
  -24.7020  -31.1520   22.1210 N   0  0  0  0  0  0  0  0  0  0  0  0
  -23.5810  -32.2510   23.7810 O   0  0  0  0  0  0  0  0  0  0  0  0
  -22.7510  -29.5830   22.5790 C   0  0  0  0  0  0  0  0  0  0  0  0
  -21.4230  -29.3910   22.4720 N   0  0  0  0  0  0  0  0  0  0  0  0
  -23.4390  -28.9730   23.4020 O   0  0  0  0  0  0  0  0  0  0  0  0
  -20.9190  -29.9350   21.7860 H   0  0  0  0  0  0  0  0  0  0  0  0
  -18.0830  -28.0680   22.9820 C   0  0  0  0  0  0  0  0  0  0  0  0
  -20.6300  -28.4370   23.2560 C   0  0  0  0  0  3  0  0  0  0  0  0
  -20.7890  -27.0000   22.7070 C   0  0  0  0  0  2  0  0  0  0  0  0
  -19.7070  -26.6180   21.6920 C   0  0  0  0  0  2  0  0  0  0  0  0
  -18.3160  -26.7170   22.3260 C   0  0  0  0  0  2  0  0  0  0  0  0
  -19.1690  -28.8820   23.4040 C   0  0  0  0  0  0  0  0  0  0  0  0
  -18.8950  -30.1420   23.9810 C   0  0  0  0  0  3  0  0  0  0  0  0
  -17.5690  -30.5880   24.1380 C   0  0  0  0  0  3  0  0  0  0  0  0
  -16.4990  -29.7730   23.7300 C   0  0  0  0  0  3  0  0  0  0  0  0
  -16.7570  -28.5150   23.1580 C   0  0  0  0  0  3  0  0  0  0  0  0
  -25.9430  -32.6080   23.8240 C   0  0  0  0  0  3  0  0  0  0  0  0
  -26.5130  -31.8070   25.0610 C   0  0  1  0  0  0  0  0  0  0  0  0
  -25.4620  -31.5250   26.1610 C   0  0  0  0  0  1  0  0  0  0  0  0
  -27.0970  -30.4470   24.6170 C   0  0  0  0  0  1  0  0  0  0  0  0
  -27.6770  -32.5960   25.7040 C   0  0  0  0  0  1  0  0  0  0  0  0
  -25.6210  -33.9920   24.2230 N   0  0  0  0  0  0  0  0  0  0  0  0
  -25.9350  -35.0870   23.5200 C   0  0  0  0  0  0  0  0  0  0  0  0
  -26.5880  -35.0410   22.4740 O   0  0  0  0  0  0  0  0  0  0  0  0
  -25.0380  -34.1010   25.0400 H   0  0  0  0  0  0  0  0  0  0  0  0
  -24.1890  -36.8890   23.3010 C   0  0  0  0  0  1  0  0  0  0  0  0
  -25.4510  -36.4490   24.0600 C   0  0  0  0  0  3  0  0  0  0  0  0
  -27.6020  -37.3060   24.8780 C   0  0  0  0  0  1  0  0  0  0  0  0
  -26.4740  -37.5150   23.9750 N   0  0  0  0  0  0  0  0  0  0  0  0
  -26.0650  -38.4240   24.1810 H   0  0  0  0  0  0  0  0  0  0  0  0
  1  3  1  0
  2  6  1  0
  2  7  1  0
  3  6  2  0
  4  2  2  0
  5  1  2  0
  5  4  1  0
  7 13  1  0
  7 14  2  0
  8 13  1  0
  9 10  1  0
  9  8  1  0
 11 10  1  0
 11 18  1  0
 11 12  1  0
 13 12  1  0
 15 16  2  0
 16 17  1  0
 17 20  1  0
 18 15  1  0
 18 19  1  0
 19 17  2  0
 20 21  1  0
 21 22  2  0
 23 22  1  0
 24 23  2  0
 25 24  1  0
 25 20  2  0
 26 23  1  0
 26 27  1  0
 27 28  1  0
 28 29  2  0
 30 29  1  0
 30 34  1  0
 31 30  2  0
 32 27  2  0
 32 31  1  0
 33 32  1  0
 35 16  1  0
 35 36  1  0
 36 39  1  0
 36 38  1  0
 37 35  2  0
 40 15  1  0
 41 40  1  0
 42 40  1  0
 43 45  1  0
 44 45  1  0
 45  4  1  0
 47  3  1  0
 47 46  1  0
 48 47  1  0
 49 50  1  0
 49 48  1  0
 51 62  2  0
 52 50  1  0
 52 57  1  0
 53 61  1  0
 53 63  1  0
 54 60  1  0
 54 56  1  0
 55 61  1  0
 56 55  1  0
 57 56  2  0
 58 59  1  0
 58 52  2  0
 59 54  2  0
 60 53  1  0
 61 51  1  0
 63 65  2  0
 64 63  1  0
 66 64  1  0
 67 76  2  0
 67 72  1  0
 68 64  1  0
 68 72  1  0
 69 68  1  0
 70 71  1  0
 70 69  1  0
 71 67  1  0
 72 73  2  0
 73 74  1  0
 75 74  2  0
 76 75  1  0
 77 51  1  0
 77 82  1  0
 77 78  1  0
 78 81  1  1
 78 79  1  0
 80 78  1  0
 82 85  1  0
 83 87  1  0
 83 82  1  0
 84 83  2  0
 87 86  1  0
 89 87  1  0
 89 90  1  0
 89 88  1  0
M  ISO  4   2 100   7 100  49 101  50 101
M  END
>  <TORSDO>  (80) 
F 20

>  <SCORE>  (80) 
-10.087

>  <name>  (80) 
82

>  <ligand_id>  (80) 
82

>  <original_smiles>  (80) 
[H]c1nc(C([H])(C([H])([H])[H])C([H])([H])[H])c(C(=O)N2C([H])([H])C([H])([H])C([H])([H])C([H])(n3nc(-c4c([H])c([H])c(Oc5c([H])c([H])c(F)c([H])c5F)c([H])c4[H])c(C(=O)N([H])[H])c3N([H])[H])C2([H])[H])nc1C([H])(C([H])([H])[H])C([H])([H])C([H])([H])Oc1c([H])c([H])c2c(c1[H])C([H])([H])N(C(=O)C([H])(N([H])C(=O)C([H])(N([H])C([H])([H])[H])C([H])([H])[H])C(C([H])([H])[H])(C([H])([H])[H])C([H])([H])[H])C([H])(C(=O)N([H])C1([H])c3c([H])c([H])c([H])c([H])c3C([H])([H])C([H])([H])C1([H])[H])C2([H])[H]

>  <smiles>  (80) 
[H]c1nc(C([H])(C([H])([H])[H])C([H])([H])[H])c(C(=O)N2C([H])([H])C([H])([H])C([H])([H])C([H])(n3nc(-c4c([H])c([H])c(Oc5c([H])c([H])c(F)c([H])c5F)c([H])c4[H])c(C(=O)N([H])[H])c3N([H])[H])C2([H])[H])nc1C([H])(C([H])([H])[H])C([H])([H])C([H])([H])Oc1c([H])c([H])c2c(c1[H])C([H])([H])N(C(=O)C([H])(N([H])C(=O)C([H])(N([H])C([H])([H])[H])C([H])([H])[H])C(C([H])([H])[H])(C([H])([H])[H])C([H])([H])[H])C([H])(C(=O)N([H])C1([H])c3c([H])c([H])c([H])c([H])c3C([H])([H])C([H])([H])C1([H])[H])C2([H])[H]

$$$$
83:0:0
     RDKit          3D

 94102  0  0  1  0  0  0  0  0999 V2000
  -28.7840  -21.7560   20.0900 C   0  0  0  0  0  2  0  0  0  0  0  0
  -29.3980  -19.3880   20.9940 C   0  0  0  0  0  3  0  0  0  0  0  0
  -30.2200  -19.9550   19.0120 C   0  0  0  0  0  3  0  0  0  0  0  0
  -30.1480  -18.3060   20.5670 C   0  0  0  0  0  0  0  0  0  0  0  0
  -30.6620  -18.6800   19.2820 C   0  0  0  0  0  0  0  0  0  0  0  0
  -29.4440  -20.4210   20.0540 N   0  0  0  0  0  0  0  0  0  0  0  0
  -33.0520  -18.1180   18.7660 C   0  0  0  0  0  1  0  0  0  0  0  0
  -31.3170  -18.0760   16.9090 C   0  0  0  0  0  1  0  0  0  0  0  0
  -31.5830  -17.8560   18.4050 C   0  0  0  0  0  3  0  0  0  0  0  0
  -30.4760  -17.0170   21.3660 C   0  0  0  0  0  2  0  0  0  0  0  0
  -30.7130  -14.6360   20.4690 C   0  0  0  0  0  0  0  0  0  0  0  0
  -30.4520  -12.4680   19.2980 C   0  0  0  0  0  2  0  0  0  0  0  0
  -29.5120  -12.6430   18.0870 C   0  0  0  0  0  2  0  0  0  0  0  0
  -28.0380  -12.4820   18.5120 C   0  0  0  0  0  2  0  0  0  0  0  0
  -27.6800  -13.3180   19.7700 C   0  0  0  0  0  3  0  0  0  0  0  0
  -28.7320  -13.1230   20.8820 C   0  0  0  0  0  2  0  0  0  0  0  0
  -30.0450  -13.4570   20.3130 N   0  0  0  0  0  0  0  0  0  0  0  0
  -31.8830  -14.7740   20.1100 O   0  0  0  0  0  0  0  0  0  0  0  0
  -29.9770  -15.6930   20.9040 N   0  0  0  0  0  0  0  0  0  0  0  0
  -29.0020  -15.5070   21.0770 H   0  0  0  0  0  0  0  0  0  0  0  0
  -25.2760  -13.9030   20.4650 C   0  0  0  0  0  0  0  0  0  0  0  0
  -24.2110  -13.1250   20.8290 C   0  0  0  0  0  0  0  0  0  0  0  0
  -24.6840  -11.7760   20.8110 C   0  0  0  0  0  0  0  0  0  0  0  0
  -26.3290  -13.0290   20.2440 N   0  0  0  0  0  0  0  0  0  0  0  0
  -25.9770  -11.7460   20.5140 N   0  0  0  0  0  0  0  0  0  0  0  0
  -23.9670  -10.5100   21.0010 C   0  0  0  0  0  0  0  0  0  0  0  0
  -24.3880   -9.5600   21.9580 C   0  0  0  0  0  3  0  0  0  0  0  0
  -23.6720   -8.3560   22.1360 C   0  0  0  0  0  3  0  0  0  0  0  0
  -22.5210   -8.0950   21.3580 C   0  0  0  0  0  0  0  0  0  0  0  0
  -22.1170   -9.0340   20.3920 C   0  0  0  0  0  3  0  0  0  0  0  0
  -22.8340  -10.2290   20.2120 C   0  0  0  0  0  3  0  0  0  0  0  0
  -21.7750   -6.9430   21.4450 O   0  0  0  0  0  0  0  0  0  0  0  0
  -21.6970   -6.2230   22.6090 C   0  0  0  0  0  0  0  0  0  0  0  0
  -21.1980   -6.7880   23.8030 C   0  0  0  0  0  3  0  0  0  0  0  0
  -21.0680   -5.9920   24.9580 C   0  0  0  0  0  3  0  0  0  0  0  0
  -21.4290   -4.6310   24.9190 C   0  0  0  0  0  0  0  0  0  0  0  0
  -21.9190   -4.0650   23.7300 C   0  0  0  0  0  3  0  0  0  0  0  0
  -22.0500   -4.8590   22.5770 C   0  0  0  0  0  0  0  0  0  0  0  0
  -22.5030   -4.3030   21.4280 F   0  0  0  0  0  0  0  0  0  0  0  0
  -21.2980   -3.8640   26.0270 F   0  0  0  0  0  0  0  0  0  0  0  0
  -22.8070  -13.5920   21.0820 C   0  0  0  0  0  0  0  0  0  0  0  0
  -22.0730  -12.8940   21.9400 N   0  0  0  0  0  0  0  0  0  0  0  0
  -22.3680  -14.6120   20.5510 O   0  0  0  0  0  0  0  0  0  0  0  0
  -22.4380  -12.0710   22.3960 H   0  0  0  0  0  0  0  0  0  0  0  0
  -21.1280  -13.1890   22.1450 H   0  0  0  0  0  0  0  0  0  0  0  0
  -25.4320  -15.2740   20.2800 N   0  0  0  0  0  0  0  0  0  0  0  0
  -24.6590  -15.9230   20.3780 H   0  0  0  0  0  0  0  0  0  0  0  0
  -26.2810  -15.7160   19.9490 H   0  0  0  0  0  0  0  0  0  0  0  0
  -29.6470  -22.9150   20.7010 C   0  0  0  0  0  2  0  0  0  0  0  0
  -30.7240  -25.1710   20.8340 C   0  0  0  0  0  1  0  0  0  0  0  0
  -29.8310  -24.4160   18.6310 C   0  0  0  0  0  1  0  0  0  0  0  0
  -29.5690  -24.4060   20.1510 C   0  0  1  0  0  0  0  0  0  0  0  0
  -28.2450  -25.2020   20.4490 C   0  0  0  0  0  2  0  0  0  0  0  0
  -28.3500  -26.6430   20.1990 O   0  0  0  0  0  0  0  0  0  0  0  0
  -24.5600  -31.9380   23.2310 C   0  0  0  0  0  0  0  0  0  0  0  0
  -27.1920  -27.4130   20.1980 C   0  0  0  0  0  0  0  0  0  0  0  0
  -23.3580  -30.5290   21.5970 C   0  0  0  0  0  3  0  0  0  0  0  0
  -24.8110  -28.9750   20.1870 C   0  0  0  0  0  0  0  0  0  0  0  0
  -25.8910  -30.8660   21.4080 C   0  0  0  0  0  2  0  0  0  0  0  0
  -25.9750  -29.4860   20.7750 C   0  0  0  0  0  0  0  0  0  0  0  0
  -27.1700  -28.7170   20.7680 C   0  0  0  0  0  3  0  0  0  0  0  0
  -26.0050  -26.9350   19.6000 C   0  0  0  0  0  3  0  0  0  0  0  0
  -24.8230  -27.7010   19.5960 C   0  0  0  0  0  3  0  0  0  0  0  0
  -23.5730  -29.8450   20.2210 C   0  0  0  0  0  2  0  0  0  0  0  0
  -24.6220  -31.1290   22.1360 N   0  0  0  0  0  0  0  0  0  0  0  0
  -23.4760  -32.2160   23.7650 O   0  0  0  0  0  0  0  0  0  0  0  0
  -22.7010  -29.5150   22.5610 C   0  0  0  0  0  0  0  0  0  0  0  0
  -21.3750  -29.3350   22.4330 N   0  0  0  0  0  0  0  0  0  0  0  0
  -23.3810  -28.8920   23.3800 O   0  0  0  0  0  0  0  0  0  0  0  0
  -20.8880  -29.8880   21.7420 H   0  0  0  0  0  0  0  0  0  0  0  0
  -17.9930  -28.1670   22.9530 C   0  0  0  0  0  0  0  0  0  0  0  0
  -20.5540  -28.4020   23.2070 C   0  0  0  0  0  3  0  0  0  0  0  0
  -20.6410  -26.9720   22.6270 C   0  0  0  0  0  2  0  0  0  0  0  0
  -19.5300  -26.6610   21.6200 C   0  0  0  0  0  2  0  0  0  0  0  0
  -18.1540  -26.8160   22.2730 C   0  0  0  0  0  2  0  0  0  0  0  0
  -19.1210  -28.9180   23.3770 C   0  0  0  0  0  0  0  0  0  0  0  0
  -18.9170  -30.1810   23.9720 C   0  0  0  0  0  3  0  0  0  0  0  0
  -17.6180  -30.6950   24.1470 C   0  0  0  0  0  3  0  0  0  0  0  0
  -16.5050  -29.9400   23.7390 C   0  0  0  0  0  3  0  0  0  0  0  0
  -16.6930  -28.6770   23.1480 C   0  0  0  0  0  3  0  0  0  0  0  0
  -25.8430  -32.5740   23.8510 C   0  0  0  0  0  3  0  0  0  0  0  0
  -25.5330  -33.9750   24.1680 N   0  0  0  0  0  0  0  0  0  0  0  0
  -25.8770  -35.0220   23.4060 C   0  0  0  0  0  0  0  0  0  0  0  0
  -26.5600  -34.9100   22.3850 O   0  0  0  0  0  0  0  0  0  0  0  0
  -24.9270  -34.1350   24.9590 H   0  0  0  0  0  0  0  0  0  0  0  0
  -24.1720  -36.8260   23.0030 C   0  0  0  0  0  1  0  0  0  0  0  0
  -25.3880  -36.4150   23.8490 C   0  0  0  0  0  3  0  0  0  0  0  0
  -27.5040  -37.2860   24.7390 C   0  0  0  0  0  1  0  0  0  0  0  0
  -26.4310  -37.4600   23.7640 N   0  0  0  0  0  0  0  0  0  0  0  0
  -26.0280  -38.3840   23.8960 H   0  0  0  0  0  0  0  0  0  0  0  0
  -26.3550  -31.8130   25.1350 C   0  0  1  0  0  0  0  0  0  0  0  0
  -25.2570  -31.5820   26.2000 C   0  0  0  0  0  1  0  0  0  0  0  0
  -26.9430  -30.4340   24.7550 C   0  0  0  0  0  1  0  0  0  0  0  0
  -27.5020  -32.6150   25.7950 C   0  0  0  0  0  1  0  0  0  0  0  0
  1 49  1  0
  3  5  2  0
  3  6  1  0
  4  2  2  0
  4 10  1  0
  5  4  1  0
  6  1  1  0
  6  2  1  0
  8  9  1  0
  9  7  1  0
  9  5  1  0
 11 19  1  0
 12 17  1  0
 13 14  1  0
 13 12  1  0
 15 14  1  0
 15 24  1  0
 15 16  1  0
 17 11  1  0
 17 16  1  0
 18 11  2  0
 19 20  1  0
 19 10  1  0
 21 22  2  0
 22 41  1  0
 23 22  1  0
 23 26  1  0
 24 21  1  0
 24 25  1  0
 25 23  2  0
 26 27  1  0
 27 28  2  0
 29 32  1  0
 29 28  1  0
 30 29  2  0
 31 30  1  0
 31 26  2  0
 32 33  1  0
 33 34  1  0
 34 35  2  0
 36 35  1  0
 36 40  1  0
 37 36  2  0
 38 33  2  0
 38 37  1  0
 39 38  1  0
 41 42  1  0
 42 45  1  0
 42 44  1  0
 43 41  2  0
 46 47  1  0
 46 21  1  0
 48 46  1  0
 52 51  1  6
 52 53  1  0
 52 49  1  0
 52 50  1  0
 54 53  1  0
 55 66  2  0
 56 54  1  0
 56 61  1  0
 57 65  1  0
 57 67  1  0
 58 64  1  0
 58 60  1  0
 59 65  1  0
 60 59  1  0
 61 60  2  0
 62 56  2  0
 63 62  1  0
 63 58  2  0
 64 57  1  0
 65 55  1  0
 67 69  2  0
 68 67  1  0
 70 68  1  0
 71 80  2  0
 71 76  1  0
 72 68  1  0
 72 76  1  0
 73 72  1  0
 74 75  1  0
 74 73  1  0
 75 71  1  0
 76 77  2  0
 77 78  1  0
 79 78  2  0
 80 79  1  0
 81 55  1  0
 81 82  1  0
 81 91  1  0
 82 85  1  0
 83 87  1  0
 83 82  1  0
 84 83  2  0
 87 86  1  0
 89 87  1  0
 89 90  1  0
 89 88  1  0
 91 94  1  1
 91 92  1  0
 93 91  1  0
M  ISO  4  11 100  19 100  53 101  54 101
M  END
>  <TORSDO>  (81) 
F 22

>  <SCORE>  (81) 
-13.289

>  <name>  (81) 
83

>  <ligand_id>  (81) 
83

>  <original_smiles>  (81) 
[H]c1c([H])c([H])c2c(c1[H])C([H])([H])C([H])([H])C([H])([H])C2([H])N([H])C(=O)C1([H])N(C(=O)C([H])(N([H])C(=O)C([H])(N([H])C([H])([H])[H])C([H])([H])[H])C(C([H])([H])[H])(C([H])([H])[H])C([H])([H])[H])C([H])([H])c2c([H])c(OC([H])([H])C(C([H])([H])[H])(C([H])([H])[H])C([H])([H])C([H])([H])n3c([H])c(C([H])([H])N([H])C(=O)N4C([H])([H])C([H])([H])C([H])([H])C([H])(n5nc(-c6c([H])c([H])c(Oc7c([H])c([H])c(F)c([H])c7F)c([H])c6[H])c(C(=O)N([H])[H])c5N([H])[H])C4([H])[H])c(C([H])(C([H])([H])[H])C([H])([H])[H])c3[H])c([H])c([H])c2C1([H])[H]

>  <smiles>  (81) 
[H]c1c([H])c([H])c2c(c1[H])C([H])([H])C([H])([H])C([H])([H])C2([H])N([H])C(=O)C1([H])N(C(=O)C([H])(N([H])C(=O)C([H])(N([H])C([H])([H])[H])C([H])([H])[H])C(C([H])([H])[H])(C([H])([H])[H])C([H])([H])[H])C([H])([H])c2c([H])c(OC([H])([H])C(C([H])([H])[H])(C([H])([H])[H])C([H])([H])C([H])([H])n3c([H])c(C([H])([H])N([H])C(=O)N4C([H])([H])C([H])([H])C([H])([H])C([H])(n5nc(-c6c([H])c([H])c(Oc7c([H])c([H])c(F)c([H])c7F)c([H])c6[H])c(C(=O)N([H])[H])c5N([H])[H])C4([H])[H])c(C([H])(C([H])([H])[H])C([H])([H])[H])c3[H])c([H])c([H])c2C1([H])[H]

$$$$
84:0:0
     RDKit          3D

 98106  0  0  1  0  0  0  0  0999 V2000
  -29.7900  -20.2530   20.7540 C   0  0  0  0  0  3  0  0  0  0  0  0
  -30.2870  -21.3380   20.0810 C   0  0  0  0  0  0  0  0  0  0  0  0
  -30.4460  -20.9230   18.7120 C   0  0  0  0  0  0  0  0  0  0  0  0
  -30.0760  -19.5920   18.6280 C   0  0  0  0  0  0  0  0  0  0  0  0
  -29.6980  -19.1720   19.9030 N   0  0  0  0  0  0  0  0  0  0  0  0
  -31.4400  -18.4030   16.8210 C   0  0  0  0  0  1  0  0  0  0  0  0
  -29.0000  -19.0010   16.3990 C   0  0  0  0  0  1  0  0  0  0  0  0
  -30.0570  -18.6320   17.4520 C   0  0  0  0  0  3  0  0  0  0  0  0
  -32.4980  -21.9600   17.6330 C   0  0  0  0  0  1  0  0  0  0  0  0
  -30.2280  -23.0870   17.3540 C   0  0  0  0  0  1  0  0  0  0  0  0
  -30.9760  -21.7610   17.5520 C   0  0  0  0  0  3  0  0  0  0  0  0
  -31.3250  -22.4320   22.0970 C   0  0  0  0  0  1  0  0  0  0  0  0
  -30.6700  -22.6750   20.7230 C   0  0  0  0  0  3  0  0  0  0  0  0
  -29.5030  -23.7060   20.8000 C   0  0  0  0  0  2  0  0  0  0  0  0
  -31.0670  -25.7670   20.5920 C   0  0  0  0  0  1  0  0  0  0  0  0
  -29.8920  -25.1150   21.3470 C   0  0  0  0  0  3  0  0  0  0  0  0
  -28.7060  -26.1030   21.4630 C   0  0  0  0  0  2  0  0  0  0  0  0
  -28.4040  -26.7270   20.2180 O   0  0  0  0  0  0  0  0  0  0  0  0
  -24.5370  -31.9220   23.2370 C   0  0  0  0  0  0  0  0  0  0  0  0
  -27.2550  -27.4770   20.2410 C   0  0  0  0  0  0  0  0  0  0  0  0
  -23.3640  -30.4910   21.5950 C   0  0  0  0  0  3  0  0  0  0  0  0
  -24.8490  -28.9480   20.2100 C   0  0  0  0  0  0  0  0  0  0  0  0
  -25.8870  -30.8700   21.4270 C   0  0  0  0  0  2  0  0  0  0  0  0
  -25.9930  -29.4910   20.8110 C   0  0  0  0  0  0  0  0  0  0  0  0
  -27.2020  -28.7590   20.8310 C   0  0  0  0  0  3  0  0  0  0  0  0
  -26.1020  -26.9450   19.6330 C   0  0  0  0  0  3  0  0  0  0  0  0
  -24.8960  -27.6710   19.6220 C   0  0  0  0  0  3  0  0  0  0  0  0
  -23.5970  -29.7960   20.2280 C   0  0  0  0  0  2  0  0  0  0  0  0
  -24.6130  -31.1110   22.1450 N   0  0  0  0  0  0  0  0  0  0  0  0
  -23.4470  -32.1910   23.7610 O   0  0  0  0  0  0  0  0  0  0  0  0
  -22.7080  -29.4760   22.5590 C   0  0  0  0  0  0  0  0  0  0  0  0
  -21.3880  -29.2770   22.4110 N   0  0  0  0  0  0  0  0  0  0  0  0
  -23.3840  -28.8680   23.3930 O   0  0  0  0  0  0  0  0  0  0  0  0
  -20.9040  -29.8200   21.7100 H   0  0  0  0  0  0  0  0  0  0  0  0
  -18.0200  -28.0510   22.8630 C   0  0  0  0  0  0  0  0  0  0  0  0
  -20.5680  -28.3420   23.1810 C   0  0  0  0  0  3  0  0  0  0  0  0
  -20.6970  -26.9040   22.6280 C   0  0  0  0  0  2  0  0  0  0  0  0
  -19.6200  -26.5540   21.5980 C   0  0  0  0  0  2  0  0  0  0  0  0
  -18.2240  -26.6950   22.2110 C   0  0  0  0  0  2  0  0  0  0  0  0
  -19.1210  -28.8330   23.3030 C   0  0  0  0  0  0  0  0  0  0  0  0
  -18.8780  -30.1030   23.8690 C   0  0  0  0  0  3  0  0  0  0  0  0
  -17.5650  -30.5940   23.9990 C   0  0  0  0  0  3  0  0  0  0  0  0
  -16.4780  -29.8100   23.5770 C   0  0  0  0  0  3  0  0  0  0  0  0
  -16.7050  -28.5410   23.0150 C   0  0  0  0  0  3  0  0  0  0  0  0
  -25.8100  -32.5690   23.8660 C   0  0  0  0  0  3  0  0  0  0  0  0
  -25.4850  -33.9660   24.1840 N   0  0  0  0  0  0  0  0  0  0  0  0
  -25.8230  -35.0160   23.4240 C   0  0  0  0  0  0  0  0  0  0  0  0
  -26.5120  -34.9130   22.4060 O   0  0  0  0  0  0  0  0  0  0  0  0
  -24.8740  -34.1200   24.9720 H   0  0  0  0  0  0  0  0  0  0  0  0
  -24.0870  -36.7930   23.0260 C   0  0  0  0  0  1  0  0  0  0  0  0
  -25.3140  -36.4020   23.8650 C   0  0  0  0  0  3  0  0  0  0  0  0
  -27.4280  -37.3040   24.7320 C   0  0  0  0  0  1  0  0  0  0  0  0
  -26.3410  -37.4630   23.7700 N   0  0  0  0  0  0  0  0  0  0  0  0
  -25.9250  -38.3800   23.9090 H   0  0  0  0  0  0  0  0  0  0  0  0
  -26.3260  -31.8080   25.1490 C   0  0  1  0  0  0  0  0  0  0  0  0
  -25.2270  -31.5600   26.2080 C   0  0  0  0  0  1  0  0  0  0  0  0
  -26.9300  -30.4370   24.7640 C   0  0  0  0  0  1  0  0  0  0  0  0
  -27.4610  -32.6190   25.8180 C   0  0  0  0  0  1  0  0  0  0  0  0
  -29.3000  -17.8220   20.3230 C   0  0  0  0  0  2  0  0  0  0  0  0
  -30.5310  -16.8930   20.4470 C   0  0  0  0  0  2  0  0  0  0  0  0
  -30.7450  -14.4640   20.1050 C   0  0  0  0  0  0  0  0  0  0  0  0
  -30.2950  -12.3740   18.8590 C   0  0  0  0  0  2  0  0  0  0  0  0
  -29.2950  -12.6250   17.7140 C   0  0  0  0  0  2  0  0  0  0  0  0
  -27.8440  -12.4990   18.2140 C   0  0  0  0  0  2  0  0  0  0  0  0
  -27.5900  -13.2910   19.5220 C   0  0  0  0  0  3  0  0  0  0  0  0
  -28.6970  -13.0120   20.5570 C   0  0  0  0  0  2  0  0  0  0  0  0
  -29.9980  -13.3300   19.9440 N   0  0  0  0  0  0  0  0  0  0  0  0
  -31.7870  -14.6370   19.4640 O   0  0  0  0  0  0  0  0  0  0  0  0
  -30.0310  -15.3450   22.2780 C   0  0  0  0  0  1  0  0  0  0  0  0
  -30.2160  -15.4920   20.8280 N   0  0  0  0  0  0  0  0  0  0  0  0
  -25.2310  -13.8930   20.3610 C   0  0  0  0  0  0  0  0  0  0  0  0
  -24.1850  -13.1180   20.7840 C   0  0  0  0  0  0  0  0  0  0  0  0
  -24.6460  -11.7660   20.7220 C   0  0  0  0  0  0  0  0  0  0  0  0
  -26.2640  -13.0130   20.0700 N   0  0  0  0  0  0  0  0  0  0  0  0
  -25.9170  -11.7280   20.3450 N   0  0  0  0  0  0  0  0  0  0  0  0
  -23.9310  -10.5040   20.9440 C   0  0  0  0  0  0  0  0  0  0  0  0
  -24.3990   -9.5420   21.8680 C   0  0  0  0  0  3  0  0  0  0  0  0
  -23.6820   -8.3440   22.0780 C   0  0  0  0  0  3  0  0  0  0  0  0
  -22.4850   -8.0990   21.3640 C   0  0  0  0  0  0  0  0  0  0  0  0
  -22.0380   -9.0480   20.4270 C   0  0  0  0  0  3  0  0  0  0  0  0
  -22.7540  -10.2380   20.2170 C   0  0  0  0  0  3  0  0  0  0  0  0
  -21.7360   -6.9520   21.4850 O   0  0  0  0  0  0  0  0  0  0  0  0
  -21.7110   -6.2270   22.6500 C   0  0  0  0  0  0  0  0  0  0  0  0
  -21.3230   -6.8060   23.8780 C   0  0  0  0  0  3  0  0  0  0  0  0
  -21.2430   -6.0080   25.0370 C   0  0  0  0  0  3  0  0  0  0  0  0
  -21.5440   -4.6340   24.9680 C   0  0  0  0  0  0  0  0  0  0  0  0
  -21.9270   -4.0570   23.7440 C   0  0  0  0  0  3  0  0  0  0  0  0
  -22.0050   -4.8500   22.5880 C   0  0  0  0  0  0  0  0  0  0  0  0
  -22.3530   -4.2850   21.4060 F   0  0  0  0  0  0  0  0  0  0  0  0
  -21.4600   -3.8650   26.0790 F   0  0  0  0  0  0  0  0  0  0  0  0
  -22.8040  -13.5900   21.1320 C   0  0  0  0  0  0  0  0  0  0  0  0
  -22.1300  -12.8990   22.0440 N   0  0  0  0  0  0  0  0  0  0  0  0
  -22.3310  -14.6100   20.6290 O   0  0  0  0  0  0  0  0  0  0  0  0
  -22.5230  -12.0740   22.4740 H   0  0  0  0  0  0  0  0  0  0  0  0
  -21.2060  -13.2000   22.3210 H   0  0  0  0  0  0  0  0  0  0  0  0
  -25.3870  -15.2640   20.1800 N   0  0  0  0  0  0  0  0  0  0  0  0
  -24.6310  -15.9210   20.3390 H   0  0  0  0  0  0  0  0  0  0  0  0
  -26.2270  -15.7020   19.8240 H   0  0  0  0  0  0  0  0  0  0  0  0
  2 13  1  0
  2  1  2  0
  3  2  1  0
  4  3  2  0
  4  5  1  0
  5 59  1  0
  5  1  1  0
  6  8  1  0
  7  8  1  0
  8  4  1  0
 10 11  1  0
 11  9  1  0
 11  3  1  0
 13 14  1  0
 13 12  1  0
 14 16  1  0
 16 15  1  0
 16 17  1  0
 18 20  1  0
 18 17  1  0
 19 30  2  0
 20 25  1  0
 21 29  1  0
 21 31  1  0
 22 28  1  0
 22 24  1  0
 23 29  1  0
 24 25  2  0
 24 23  1  0
 26 20  2  0
 27 26  1  0
 27 22  2  0
 28 21  1  0
 29 19  1  0
 31 33  2  0
 32 31  1  0
 34 32  1  0
 35 44  2  0
 35 40  1  0
 36 32  1  0
 36 40  1  0
 37 36  1  0
 38 39  1  0
 38 37  1  0
 39 35  1  0
 40 41  2  0
 41 42  1  0
 43 42  2  0
 44 43  1  0
 45 19  1  0
 45 46  1  0
 45 55  1  0
 46 49  1  0
 47 51  1  0
 47 46  1  0
 48 47  2  0
 51 50  1  0
 53 51  1  0
 53 54  1  0
 53 52  1  0
 55 58  1  1
 55 56  1  0
 57 55  1  0
 59 60  1  0
 60 70  1  0
 61 70  1  0
 62 67  1  0
 63 64  1  0
 63 62  1  0
 65 64  1  0
 65 74  1  0
 65 66  1  0
 67 61  1  0
 67 66  1  0
 68 61  2  0
 70 69  1  0
 71 72  2  0
 72 91  1  0
 73 72  1  0
 73 76  1  0
 74 75  1  0
 74 71  1  0
 75 73  2  0
 76 77  1  0
 77 78  2  0
 79 82  1  0
 79 78  1  0
 80 79  2  0
 81 80  1  0
 81 76  2  0
 82 83  1  0
 83 84  1  0
 84 85  2  0
 86 85  1  0
 86 90  1  0
 87 86  2  0
 88 83  2  0
 88 87  1  0
 89 88  1  0
 91 92  1  0
 92 95  1  0
 92 94  1  0
 93 91  2  0
 96 97  1  0
 96 71  1  0
 98 96  1  0
M  ISO  4  17 101  18 101  61 100  70 100
M  END
>  <TORSDO>  (82) 
F 24

>  <SCORE>  (82) 
-11.775

>  <name>  (82) 
84

>  <ligand_id>  (82) 
84

>  <original_smiles>  (82) 
[H]c1c([H])c([H])c2c(c1[H])C([H])([H])C([H])([H])C([H])([H])C2([H])N([H])C(=O)C1([H])N(C(=O)C([H])(N([H])C(=O)C([H])(N([H])C([H])([H])[H])C([H])([H])[H])C(C([H])([H])[H])(C([H])([H])[H])C([H])([H])[H])C([H])([H])c2c([H])c(OC([H])([H])C([H])(C([H])([H])[H])C([H])([H])C([H])(c3c(C([H])(C([H])([H])[H])C([H])([H])[H])c(C([H])(C([H])([H])[H])C([H])([H])[H])n(C([H])([H])C([H])([H])N(C(=O)N4C([H])([H])C([H])([H])C([H])([H])C([H])(n5nc(-c6c([H])c([H])c(Oc7c([H])c([H])c(F)c([H])c7F)c([H])c6[H])c(C(=O)N([H])[H])c5N([H])[H])C4([H])[H])C([H])([H])[H])c3[H])C([H])([H])[H])c([H])c([H])c2C1([H])[H]

>  <smiles>  (82) 
[H]c1c([H])c([H])c2c(c1[H])C([H])([H])C([H])([H])C([H])([H])C2([H])N([H])C(=O)C1([H])N(C(=O)C([H])(N([H])C(=O)C([H])(N([H])C([H])([H])[H])C([H])([H])[H])C(C([H])([H])[H])(C([H])([H])[H])C([H])([H])[H])C([H])([H])c2c([H])c(OC([H])([H])C([H])(C([H])([H])[H])C([H])([H])C([H])(c3c(C([H])(C([H])([H])[H])C([H])([H])[H])c(C([H])(C([H])([H])[H])C([H])([H])[H])n(C([H])([H])C([H])([H])N(C(=O)N4C([H])([H])C([H])([H])C([H])([H])C([H])(n5nc(-c6c([H])c([H])c(Oc7c([H])c([H])c(F)c([H])c7F)c([H])c6[H])c(C(=O)N([H])[H])c5N([H])[H])C4([H])[H])C([H])([H])[H])c3[H])C([H])([H])[H])c([H])c([H])c2C1([H])[H]

$$$$
85:0:0
     RDKit          3D

 92100  0  0  1  0  0  0  0  0999 V2000
  -30.1130  -22.3480   19.4480 C   0  0  0  0  0  2  0  0  0  0  0  0
  -27.7880  -22.1110   18.6960 C   0  0  0  0  0  2  0  0  0  0  0  0
  -29.7760  -23.7970   20.0670 C   0  0  0  0  0  2  0  0  0  0  0  0
  -27.8440  -23.6970   18.5580 C   0  0  0  0  0  2  0  0  0  0  0  0
  -28.9610  -21.2900   19.3780 C   0  0  0  0  0  3  0  0  0  0  0  0
  -28.3820  -24.5040   19.7750 C   0  0  0  0  0  3  0  0  0  0  0  0
  -28.4240  -26.0370   19.7980 O   0  0  0  0  0  0  0  0  0  0  0  0
  -24.6200  -31.3630   23.0790 C   0  0  0  0  0  0  0  0  0  0  0  0
  -27.2900  -26.8900   19.8630 C   0  0  0  0  0  0  0  0  0  0  0  0
  -23.4310  -30.0000   21.4040 C   0  0  0  0  0  3  0  0  0  0  0  0
  -24.8970  -28.5120   19.9260 C   0  0  0  0  0  0  0  0  0  0  0  0
  -25.9730  -30.3450   21.2230 C   0  0  0  0  0  2  0  0  0  0  0  0
  -26.0690  -28.9850   20.5320 C   0  0  0  0  0  0  0  0  0  0  0  0
  -27.2640  -28.1910   20.4850 C   0  0  0  0  0  3  0  0  0  0  0  0
  -26.1010  -26.5140   19.2000 C   0  0  0  0  0  3  0  0  0  0  0  0
  -24.9210  -27.2830   19.2490 C   0  0  0  0  0  3  0  0  0  0  0  0
  -23.6490  -29.3720   20.0040 C   0  0  0  0  0  2  0  0  0  0  0  0
  -24.6930  -30.5920   21.9550 N   0  0  0  0  0  0  0  0  0  0  0  0
  -23.5340  -31.6020   23.6260 O   0  0  0  0  0  0  0  0  0  0  0  0
  -22.7930  -28.9420   22.3370 C   0  0  0  0  0  0  0  0  0  0  0  0
  -21.4850  -28.6840   22.1610 N   0  0  0  0  0  0  0  0  0  0  0  0
  -23.4730  -28.3540   23.1810 O   0  0  0  0  0  0  0  0  0  0  0  0
  -20.9860  -29.2100   21.4580 H   0  0  0  0  0  0  0  0  0  0  0  0
  -18.1990  -27.2000   22.4460 C   0  0  0  0  0  0  0  0  0  0  0  0
  -20.6970  -27.6930   22.8930 C   0  0  0  0  0  3  0  0  0  0  0  0
  -20.9670  -26.2630   22.3670 C   0  0  0  0  0  2  0  0  0  0  0  0
  -19.9760  -25.8220   21.2850 C   0  0  0  0  0  2  0  0  0  0  0  0
  -18.5420  -25.8570   21.8200 C   0  0  0  0  0  2  0  0  0  0  0  0
  -19.2100  -28.0690   22.9340 C   0  0  0  0  0  0  0  0  0  0  0  0
  -18.8350  -29.3210   23.4670 C   0  0  0  0  0  3  0  0  0  0  0  0
  -17.4810  -29.7030   23.5240 C   0  0  0  0  0  3  0  0  0  0  0  0
  -16.4840  -28.8310   23.0530 C   0  0  0  0  0  3  0  0  0  0  0  0
  -16.8430  -27.5830   22.5180 C   0  0  0  0  0  3  0  0  0  0  0  0
  -25.8940  -31.9950   23.7160 C   0  0  0  0  0  3  0  0  0  0  0  0
  -25.5920  -33.4040   24.0130 N   0  0  0  0  0  0  0  0  0  0  0  0
  -26.0460  -34.4470   23.3080 C   0  0  0  0  0  0  0  0  0  0  0  0
  -26.8310  -34.3270   22.3620 O   0  0  0  0  0  0  0  0  0  0  0  0
  -24.9120  -33.5790   24.7380 H   0  0  0  0  0  0  0  0  0  0  0  0
  -24.4770  -36.3250   22.7300 C   0  0  0  0  0  1  0  0  0  0  0  0
  -25.5540  -35.8490   23.7170 C   0  0  0  0  0  3  0  0  0  0  0  0
  -27.5650  -36.6200   24.8940 C   0  0  0  0  0  1  0  0  0  0  0  0
  -26.6350  -36.8550   23.7940 N   0  0  0  0  0  0  0  0  0  0  0  0
  -26.2500  -37.7900   23.8930 H   0  0  0  0  0  0  0  0  0  0  0  0
  -26.3770  -31.2460   25.0190 C   0  0  1  0  0  0  0  0  0  0  0  0
  -25.2750  -31.0990   26.0930 C   0  0  0  0  0  1  0  0  0  0  0  0
  -26.8990  -29.8310   24.6810 C   0  0  0  0  0  1  0  0  0  0  0  0
  -27.5620  -32.0130   25.6520 C   0  0  0  0  0  1  0  0  0  0  0  0
  -29.1860  -19.7520   18.7600 C   0  0  0  0  0  3  0  0  0  0  0  0
  -27.7920  -19.1010   18.5220 C   0  0  0  0  0  2  0  0  0  0  0  0
  -27.1200  -18.5790   19.8110 C   0  0  0  0  0  2  0  0  0  0  0  0
  -25.5250  -16.9180   20.8540 C   0  0  0  0  0  1  0  0  0  0  0  0
  -25.8690  -17.7180   19.5890 C   0  0  0  0  0  2  0  0  0  0  0  0
  -30.1110  -18.5580   19.4250 C   0  0  0  0  0  2  0  0  0  0  0  0
  -29.9030  -16.9520   19.0460 C   0  0  0  0  0  2  0  0  0  0  0  0
  -30.8800  -14.5540   19.6920 C   0  0  0  0  0  0  0  0  0  0  0  0
  -30.6480  -12.1570   18.9430 C   0  0  0  0  0  2  0  0  0  0  0  0
  -29.6340  -12.0480   17.7820 C   0  0  0  0  0  2  0  0  0  0  0  0
  -28.1990  -11.9040   18.3250 C   0  0  0  0  0  2  0  0  0  0  0  0
  -27.8860  -12.9360   19.4380 C   0  0  0  0  0  3  0  0  0  0  0  0
  -29.0090  -12.9810   20.4920 C   0  0  0  0  0  2  0  0  0  0  0  0
  -30.2580  -13.3140   19.7930 N   0  0  0  0  0  0  0  0  0  0  0  0
  -31.9870  -14.6040   19.1460 O   0  0  0  0  0  0  0  0  0  0  0  0
  -30.0270  -16.1130   21.3910 C   0  0  0  0  0  1  0  0  0  0  0  0
  -30.1740  -15.7420   19.9830 N   0  0  0  0  0  0  0  0  0  0  0  0
  -25.6600  -13.6380   20.5020 C   0  0  0  0  0  0  0  0  0  0  0  0
  -24.5740  -12.9180   20.9230 C   0  0  0  0  0  0  0  0  0  0  0  0
  -24.9030  -11.5450   20.7030 C   0  0  0  0  0  0  0  0  0  0  0  0
  -26.5820  -12.7070   20.0510 N   0  0  0  0  0  0  0  0  0  0  0  0
  -26.1400  -11.4370   20.2350 N   0  0  0  0  0  0  0  0  0  0  0  0
  -24.0880  -10.3320   20.8540 C   0  0  0  0  0  0  0  0  0  0  0  0
  -24.4970   -9.2670   21.6850 C   0  0  0  0  0  3  0  0  0  0  0  0
  -23.6880   -8.1190   21.8280 C   0  0  0  0  0  3  0  0  0  0  0  0
  -22.4530   -8.0320   21.1420 C   0  0  0  0  0  0  0  0  0  0  0  0
  -22.0630   -9.0850   20.2940 C   0  0  0  0  0  3  0  0  0  0  0  0
  -22.8720  -10.2240   20.1490 C   0  0  0  0  0  3  0  0  0  0  0  0
  -21.6120   -6.9460   21.2020 O   0  0  0  0  0  0  0  0  0  0  0  0
  -21.5450   -6.1480   22.3170 C   0  0  0  0  0  0  0  0  0  0  0  0
  -21.1780   -6.6600   23.5810 C   0  0  0  0  0  3  0  0  0  0  0  0
  -21.0570   -5.7910   24.6830 C   0  0  0  0  0  3  0  0  0  0  0  0
  -21.2890   -4.4120   24.5230 C   0  0  0  0  0  0  0  0  0  0  0  0
  -21.6480   -3.8990   23.2640 C   0  0  0  0  0  3  0  0  0  0  0  0
  -21.7740   -4.7650   22.1640 C   0  0  0  0  0  0  0  0  0  0  0  0
  -22.1000   -4.2640   20.9470 F   0  0  0  0  0  0  0  0  0  0  0  0
  -21.1640   -3.5750   25.5790 F   0  0  0  0  0  0  0  0  0  0  0  0
  -23.2650  -13.4750   21.4060 C   0  0  0  0  0  0  0  0  0  0  0  0
  -22.5830  -12.7600   22.2940 N   0  0  0  0  0  0  0  0  0  0  0  0
  -22.8620  -14.5750   21.0310 O   0  0  0  0  0  0  0  0  0  0  0  0
  -22.9250  -11.8670   22.6210 H   0  0  0  0  0  0  0  0  0  0  0  0
  -21.7060  -13.1060   22.6530 H   0  0  0  0  0  0  0  0  0  0  0  0
  -25.9390  -15.0000   20.4430 N   0  0  0  0  0  0  0  0  0  0  0  0
  -25.2730  -15.7110   20.7260 H   0  0  0  0  0  0  0  0  0  0  0  0
  -26.8060  -15.3850   20.0900 H   0  0  0  0  0  0  0  0  0  0  0  0
  1  3  1  0
  2  5  1  0
  4  2  1  0
  4  6  1  0
  5 48  1  0
  5  1  1  0
  6  7  1  0
  6  3  1  0
  7  9  1  0
  8 19  2  0
  9 14  1  0
 10 18  1  0
 10 20  1  0
 11 17  1  0
 11 13  1  0
 12 18  1  0
 13 12  1  0
 14 13  2  0
 15 16  1  0
 15  9  2  0
 16 11  2  0
 17 10  1  0
 18  8  1  0
 20 22  2  0
 21 20  1  0
 23 21  1  0
 24 33  2  0
 24 29  1  0
 25 21  1  0
 25 29  1  0
 26 25  1  0
 27 28  1  0
 27 26  1  0
 28 24  1  0
 29 30  2  0
 30 31  1  0
 32 31  2  0
 33 32  1  0
 34  8  1  0
 34 35  1  0
 34 44  1  0
 35 38  1  0
 36 40  1  0
 36 35  1  0
 37 36  2  0
 40 39  1  0
 40 42  1  0
 42 43  1  0
 42 41  1  0
 44 47  1  1
 44 45  1  0
 46 44  1  0
 48 49  1  0
 48 53  1  0
 49 50  1  0
 52 50  1  0
 52 51  1  0
 54 53  1  0
 54 64  1  0
 55 61  1  0
 55 64  1  0
 56 61  1  0
 57 58  1  0
 57 56  1  0
 59 58  1  0
 59 68  1  0
 59 60  1  0
 61 60  1  0
 62 55  2  0
 64 63  1  0
 65 66  2  0
 66 85  1  0
 67 70  1  0
 67 66  1  0
 68 69  1  0
 68 65  1  0
 69 67  2  0
 70 71  1  0
 71 72  2  0
 73 76  1  0
 73 72  1  0
 74 73  2  0
 75 74  1  0
 75 70  2  0
 76 77  1  0
 77 78  1  0
 78 79  2  0
 80 79  1  0
 80 84  1  0
 81 80  2  0
 82 77  2  0
 82 81  1  0
 83 82  1  0
 85 86  1  0
 86 88  1  0
 86 89  1  0
 87 85  2  0
 90 65  1  0
 90 91  1  0
 92 90  1  0
M  ISO  4   6 101   7 101  55 100  64 100
M  END
>  <TORSDO>  (83) 
F 22

>  <SCORE>  (83) 
-10.542

>  <name>  (83) 
85

>  <ligand_id>  (83) 
85

>  <original_smiles>  (83) 
[H]c1c([H])c([H])c2c(c1[H])C([H])([H])C([H])([H])C([H])([H])C2([H])N([H])C(=O)C1([H])N(C(=O)C([H])(N([H])C(=O)C([H])(N([H])C([H])([H])[H])C([H])([H])[H])C(C([H])([H])[H])(C([H])([H])[H])C([H])([H])[H])C([H])([H])c2c([H])c(OC3([H])C([H])([H])C([H])([H])C([H])(C([H])(C([H])([H])C([H])([H])N(C(=O)N4C([H])([H])C([H])([H])C([H])([H])C([H])(n5nc(-c6c([H])c([H])c(Oc7c([H])c([H])c(F)c([H])c7F)c([H])c6[H])c(C(=O)N([H])[H])c5N([H])[H])C4([H])[H])C([H])([H])[H])C([H])([H])C([H])([H])C([H])([H])C([H])([H])[H])C([H])([H])C3([H])[H])c([H])c([H])c2C1([H])[H]

>  <smiles>  (83) 
[H]c1c([H])c([H])c2c(c1[H])C([H])([H])C([H])([H])C([H])([H])C2([H])N([H])C(=O)C1([H])N(C(=O)C([H])(N([H])C(=O)C([H])(N([H])C([H])([H])[H])C([H])([H])[H])C(C([H])([H])[H])(C([H])([H])[H])C([H])([H])[H])C([H])([H])c2c([H])c(OC3([H])C([H])([H])C([H])([H])C([H])(C([H])(C([H])([H])C([H])([H])N(C(=O)N4C([H])([H])C([H])([H])C([H])([H])C([H])(n5nc(-c6c([H])c([H])c(Oc7c([H])c([H])c(F)c([H])c7F)c([H])c6[H])c(C(=O)N([H])[H])c5N([H])[H])C4([H])[H])C([H])([H])[H])C([H])([H])C([H])([H])C([H])([H])C([H])([H])[H])C([H])([H])C3([H])[H])c([H])c([H])c2C1([H])[H]

$$$$
86:0:0
     RDKit          3D

 92100  0  0  1  0  0  0  0  0999 V2000
  -29.1140  -20.5090   21.1440 C   0  0  0  0  0  3  0  0  0  0  0  0
  -29.0170  -19.3690   20.3800 C   0  0  0  0  0  0  0  0  0  0  0  0
  -28.8820  -19.8250   19.0320 C   0  0  0  0  0  0  0  0  0  0  0  0
  -28.9440  -21.2000   19.0250 C   0  0  0  0  0  0  0  0  0  0  0  0
  -28.6920  -18.9540   17.8120 C   0  0  0  0  0  1  0  0  0  0  0  0
  -28.9020  -22.1240   17.8470 C   0  0  0  0  0  1  0  0  0  0  0  0
  -29.0560  -21.6440   20.3390 N   0  0  0  0  0  0  0  0  0  0  0  0
  -28.9750  -17.9120   20.8660 C   0  0  0  0  0  2  0  0  0  0  0  0
  -30.2190  -17.0220   20.5580 C   0  0  0  0  0  2  0  0  0  0  0  0
  -30.6800  -14.5520   20.2710 C   0  0  0  0  0  0  0  0  0  0  0  0
  -30.3780  -12.3830   19.1290 C   0  0  0  0  0  2  0  0  0  0  0  0
  -29.4100  -12.5900   17.9450 C   0  0  0  0  0  2  0  0  0  0  0  0
  -27.9470  -12.4470   18.4070 C   0  0  0  0  0  2  0  0  0  0  0  0
  -27.6370  -13.2740   19.6830 C   0  0  0  0  0  3  0  0  0  0  0  0
  -28.7160  -13.0500   20.7680 C   0  0  0  0  0  2  0  0  0  0  0  0
  -30.0260  -13.3610   20.1730 N   0  0  0  0  0  0  0  0  0  0  0  0
  -31.7990  -14.7420   19.7870 O   0  0  0  0  0  0  0  0  0  0  0  0
  -29.9460  -15.5780   20.7550 N   0  0  0  0  0  0  0  0  0  0  0  0
  -29.0510  -15.3290   21.1500 H   0  0  0  0  0  0  0  0  0  0  0  0
  -25.2560  -13.8810   20.4440 C   0  0  0  0  0  0  0  0  0  0  0  0
  -24.1950  -13.1100   20.8330 C   0  0  0  0  0  0  0  0  0  0  0  0
  -24.6500  -11.7570   20.7840 C   0  0  0  0  0  0  0  0  0  0  0  0
  -26.2940  -12.9990   20.1870 N   0  0  0  0  0  0  0  0  0  0  0  0
  -25.9340  -11.7160   20.4480 N   0  0  0  0  0  0  0  0  0  0  0  0
  -23.9260  -10.4940   20.9830 C   0  0  0  0  0  0  0  0  0  0  0  0
  -24.3600   -9.5330   21.9210 C   0  0  0  0  0  3  0  0  0  0  0  0
  -23.6360   -8.3360   22.1070 C   0  0  0  0  0  3  0  0  0  0  0  0
  -22.4630   -8.0940   21.3540 C   0  0  0  0  0  0  0  0  0  0  0  0
  -22.0480   -9.0440   20.4050 C   0  0  0  0  0  3  0  0  0  0  0  0
  -22.7720  -10.2330   20.2180 C   0  0  0  0  0  3  0  0  0  0  0  0
  -21.7080   -6.9490   21.4490 O   0  0  0  0  0  0  0  0  0  0  0  0
  -21.6440   -6.2230   22.6120 C   0  0  0  0  0  0  0  0  0  0  0  0
  -21.1670   -6.7880   23.8150 C   0  0  0  0  0  3  0  0  0  0  0  0
  -21.0520   -5.9900   24.9700 C   0  0  0  0  0  3  0  0  0  0  0  0
  -21.4030   -4.6270   24.9220 C   0  0  0  0  0  0  0  0  0  0  0  0
  -21.8710   -4.0610   23.7220 C   0  0  0  0  0  3  0  0  0  0  0  0
  -21.9880   -4.8570   22.5690 C   0  0  0  0  0  0  0  0  0  0  0  0
  -22.4210   -4.3030   21.4110 F   0  0  0  0  0  0  0  0  0  0  0  0
  -21.2830   -3.8560   26.0280 F   0  0  0  0  0  0  0  0  0  0  0  0
  -22.8040  -13.5890   21.1380 C   0  0  0  0  0  0  0  0  0  0  0  0
  -22.0920  -12.8870   22.0100 N   0  0  0  0  0  0  0  0  0  0  0  0
  -22.3600  -14.6220   20.6370 O   0  0  0  0  0  0  0  0  0  0  0  0
  -22.4640  -12.0500   22.4350 H   0  0  0  0  0  0  0  0  0  0  0  0
  -21.1610  -13.1900   22.2580 H   0  0  0  0  0  0  0  0  0  0  0  0
  -25.4190  -15.2520   20.2630 N   0  0  0  0  0  0  0  0  0  0  0  0
  -24.6520  -15.9050   20.3730 H   0  0  0  0  0  0  0  0  0  0  0  0
  -26.2490  -15.6780   19.8720 H   0  0  0  0  0  0  0  0  0  0  0  0
  -29.2130  -23.0250   20.8610 C   0  0  0  0  0  2  0  0  0  0  0  0
  -28.3800  -24.1980   20.2360 C   0  0  0  0  0  2  0  0  0  0  0  0
  -27.8460  -25.6590   22.3060 C   0  0  0  0  0  1  0  0  0  0  0  0
  -28.6080  -25.5570   20.9700 C   0  0  0  0  0  3  0  0  0  0  0  0
  -28.4800  -26.7420   20.1450 O   0  0  0  0  0  0  0  0  0  0  0  0
  -24.5800  -31.8860   23.2080 C   0  0  0  0  0  0  0  0  0  0  0  0
  -27.2990  -27.4580   20.1600 C   0  0  0  0  0  0  0  0  0  0  0  0
  -23.4070  -30.4710   21.5510 C   0  0  0  0  0  3  0  0  0  0  0  0
  -24.8930  -28.9450   20.1410 C   0  0  0  0  0  0  0  0  0  0  0  0
  -25.9300  -30.8540   21.3790 C   0  0  0  0  0  2  0  0  0  0  0  0
  -26.0390  -29.4810   20.7440 C   0  0  0  0  0  0  0  0  0  0  0  0
  -27.2470  -28.7470   20.7450 C   0  0  0  0  0  3  0  0  0  0  0  0
  -26.1440  -26.9370   19.5460 C   0  0  0  0  0  3  0  0  0  0  0  0
  -24.9430  -27.6750   19.5340 C   0  0  0  0  0  3  0  0  0  0  0  0
  -23.6390  -29.7910   20.1740 C   0  0  0  0  0  2  0  0  0  0  0  0
  -24.6580  -31.0860   22.1050 N   0  0  0  0  0  0  0  0  0  0  0  0
  -23.4900  -32.1480   23.7350 O   0  0  0  0  0  0  0  0  0  0  0  0
  -22.7510  -29.4490   22.5060 C   0  0  0  0  0  0  0  0  0  0  0  0
  -21.4270  -29.2710   22.3740 N   0  0  0  0  0  0  0  0  0  0  0  0
  -23.4320  -28.8170   23.3180 O   0  0  0  0  0  0  0  0  0  0  0  0
  -20.9430  -29.8310   21.6860 H   0  0  0  0  0  0  0  0  0  0  0  0
  -18.0430  -28.1070   22.8840 C   0  0  0  0  0  0  0  0  0  0  0  0
  -20.6060  -28.3300   23.1340 C   0  0  0  0  0  3  0  0  0  0  0  0
  -20.6850  -26.9100   22.5290 C   0  0  0  0  0  2  0  0  0  0  0  0
  -19.5690  -26.6180   21.5200 C   0  0  0  0  0  2  0  0  0  0  0  0
  -18.1960  -26.7680   22.1810 C   0  0  0  0  0  2  0  0  0  0  0  0
  -19.1750  -28.8480   23.3170 C   0  0  0  0  0  0  0  0  0  0  0  0
  -18.9780  -30.1020   23.9340 C   0  0  0  0  0  3  0  0  0  0  0  0
  -17.6830  -30.6170   24.1240 C   0  0  0  0  0  3  0  0  0  0  0  0
  -16.5640  -29.8720   23.7080 C   0  0  0  0  0  3  0  0  0  0  0  0
  -16.7460  -28.6190   23.0960 C   0  0  0  0  0  3  0  0  0  0  0  0
  -25.8530  -32.5260   23.8450 C   0  0  0  0  0  3  0  0  0  0  0  0
  -25.5290  -33.9220   24.1710 N   0  0  0  0  0  0  0  0  0  0  0  0
  -25.8690  -34.9770   23.4190 C   0  0  0  0  0  0  0  0  0  0  0  0
  -26.5580  -34.8780   22.4000 O   0  0  0  0  0  0  0  0  0  0  0  0
  -24.9200  -34.0710   24.9620 H   0  0  0  0  0  0  0  0  0  0  0  0
  -24.1480  -36.7670   23.0220 C   0  0  0  0  0  1  0  0  0  0  0  0
  -25.3650  -36.3620   23.8670 C   0  0  0  0  0  3  0  0  0  0  0  0
  -27.4700  -37.2510   24.7650 C   0  0  0  0  0  1  0  0  0  0  0  0
  -26.3970  -37.4180   23.7880 N   0  0  0  0  0  0  0  0  0  0  0  0
  -25.9850  -38.3360   23.9230 H   0  0  0  0  0  0  0  0  0  0  0  0
  -26.3650  -31.7560   25.1230 C   0  0  1  0  0  0  0  0  0  0  0  0
  -25.2620  -31.4970   26.1770 C   0  0  0  0  0  1  0  0  0  0  0  0
  -26.9700  -30.3880   24.7290 C   0  0  0  0  0  1  0  0  0  0  0  0
  -27.5000  -32.5620   25.8010 C   0  0  0  0  0  1  0  0  0  0  0  0
  2  8  1  0
  2  1  2  0
  3  2  1  0
  4  3  2  0
  4  7  1  0
  5  3  1  0
  6  4  1  0
  7 48  1  0
  7  1  1  0
  9 18  1  0
  9  8  1  0
 10 18  1  0
 11 16  1  0
 12 13  1  0
 12 11  1  0
 14 13  1  0
 14 23  1  0
 14 15  1  0
 16 10  1  0
 16 15  1  0
 17 10  2  0
 18 19  1  0
 20 21  2  0
 21 40  1  0
 22 21  1  0
 22 25  1  0
 23 20  1  0
 23 24  1  0
 24 22  2  0
 25 26  1  0
 26 27  2  0
 28 31  1  0
 28 27  1  0
 29 28  2  0
 30 29  1  0
 30 25  2  0
 31 32  1  0
 32 33  1  0
 33 34  2  0
 35 34  1  0
 35 39  1  0
 36 35  2  0
 37 32  2  0
 37 36  1  0
 38 37  1  0
 40 41  1  0
 41 44  1  0
 41 43  1  0
 42 40  2  0
 45 46  1  0
 45 20  1  0
 47 45  1  0
 49 48  1  0
 49 51  1  0
 51 50  1  0
 52 54  1  0
 52 51  1  0
 53 64  2  0
 54 59  1  0
 55 63  1  0
 55 65  1  0
 56 62  1  0
 56 58  1  0
 57 63  1  0
 58 59  2  0
 58 57  1  0
 60 54  2  0
 61 60  1  0
 61 56  2  0
 62 55  1  0
 63 53  1  0
 65 67  2  0
 66 65  1  0
 68 66  1  0
 69 78  2  0
 69 74  1  0
 70 66  1  0
 70 74  1  0
 71 70  1  0
 72 73  1  0
 72 71  1  0
 73 69  1  0
 74 75  2  0
 75 76  1  0
 77 76  2  0
 78 77  1  0
 79 53  1  0
 79 80  1  0
 79 89  1  0
 80 83  1  0
 81 85  1  0
 81 80  1  0
 82 81  2  0
 85 84  1  0
 87 85  1  0
 87 88  1  0
 87 86  1  0
 89 92  1  1
 89 90  1  0
 91 89  1  0
M  ISO  4  10 100  18 100  51 101  52 101
M  END
>  <TORSDO>  (84) 
F 21

>  <SCORE>  (84) 
-13.630

>  <name>  (84) 
86

>  <ligand_id>  (84) 
86

>  <original_smiles>  (84) 
[H]c1c([H])c([H])c2c(c1[H])C([H])([H])C([H])([H])C([H])([H])C2([H])N([H])C(=O)C1([H])N(C(=O)C([H])(N([H])C(=O)C([H])(N([H])C([H])([H])[H])C([H])([H])[H])C(C([H])([H])[H])(C([H])([H])[H])C([H])([H])[H])C([H])([H])c2c([H])c(OC([H])(C([H])([H])[H])C([H])([H])C([H])([H])n3c([H])c(C([H])([H])C([H])([H])N([H])C(=O)N4C([H])([H])C([H])([H])C([H])([H])C([H])(n5nc(-c6c([H])c([H])c(Oc7c([H])c([H])c(F)c([H])c7F)c([H])c6[H])c(C(=O)N([H])[H])c5N([H])[H])C4([H])[H])c(C([H])([H])[H])c3C([H])([H])[H])c([H])c([H])c2C1([H])[H]

>  <smiles>  (84) 
[H]c1c([H])c([H])c2c(c1[H])C([H])([H])C([H])([H])C([H])([H])C2([H])N([H])C(=O)C1([H])N(C(=O)C([H])(N([H])C(=O)C([H])(N([H])C([H])([H])[H])C([H])([H])[H])C(C([H])([H])[H])(C([H])([H])[H])C([H])([H])[H])C([H])([H])c2c([H])c(OC([H])(C([H])([H])[H])C([H])([H])C([H])([H])n3c([H])c(C([H])([H])C([H])([H])N([H])C(=O)N4C([H])([H])C([H])([H])C([H])([H])C([H])(n5nc(-c6c([H])c([H])c(Oc7c([H])c([H])c(F)c([H])c7F)c([H])c6[H])c(C(=O)N([H])[H])c5N([H])[H])C4([H])[H])c(C([H])([H])[H])c3C([H])([H])[H])c([H])c([H])c2C1([H])[H]

$$$$
88:0:0
     RDKit          3D

 93101  0  0  1  0  0  0  0  0999 V2000
  -31.1940  -21.8420   19.1250 C   0  0  0  0  0  2  0  0  0  0  0  0
  -32.2980  -20.9720   19.0330 C   0  0  0  0  0  0  0  0  0  0  0  0
  -30.1910  -21.2840   19.8620 C   0  0  0  0  0  3  0  0  0  0  0  0
  -31.9250  -19.8130   19.6570 C   0  0  0  0  0  0  0  0  0  0  0  0
  -32.8280  -18.6450   19.9420 C   0  0  0  0  0  1  0  0  0  0  0  0
  -30.5630  -19.8780   20.0260 N   0  0  0  0  0  0  0  0  0  0  0  0
  -34.0080  -22.7940   18.6940 C   0  0  0  0  0  1  0  0  0  0  0  0
  -33.7320  -20.9830   16.9280 C   0  0  0  0  0  1  0  0  0  0  0  0
  -33.6440  -21.3230   18.4270 C   0  0  0  0  0  3  0  0  0  0  0  0
  -28.9660  -22.1830   20.2630 C   0  0  0  0  0  2  0  0  0  0  0  0
  -29.2190  -23.7880   20.4980 C   0  0  0  0  0  3  0  0  0  0  0  0
  -28.0530  -24.8720   20.2520 C   0  0  0  0  0  3  0  0  0  0  0  0
  -28.3140  -26.3500   20.2990 O   0  0  0  0  0  0  0  0  0  0  0  0
  -24.6070  -31.8360   23.2380 C   0  0  0  0  0  0  0  0  0  0  0  0
  -27.2130  -27.2320   20.2220 C   0  0  0  0  0  0  0  0  0  0  0  0
  -23.4060  -30.4320   21.6050 C   0  0  0  0  0  3  0  0  0  0  0  0
  -24.8550  -28.8720   20.1920 C   0  0  0  0  0  0  0  0  0  0  0  0
  -25.9480  -30.7440   21.4180 C   0  0  0  0  0  2  0  0  0  0  0  0
  -26.0290  -29.3580   20.7800 C   0  0  0  0  0  0  0  0  0  0  0  0
  -27.2140  -28.5540   20.7750 C   0  0  0  0  0  3  0  0  0  0  0  0
  -26.0110  -26.8070   19.6110 C   0  0  0  0  0  3  0  0  0  0  0  0
  -24.8500  -27.6000   19.6000 C   0  0  0  0  0  3  0  0  0  0  0  0
  -23.6210  -29.7490   20.2310 C   0  0  0  0  0  2  0  0  0  0  0  0
  -24.6740  -31.0220   22.1440 N   0  0  0  0  0  0  0  0  0  0  0  0
  -23.5240  -32.1150   23.7720 O   0  0  0  0  0  0  0  0  0  0  0  0
  -22.7410  -29.4200   22.5690 C   0  0  0  0  0  0  0  0  0  0  0  0
  -21.4120  -29.2540   22.4500 N   0  0  0  0  0  0  0  0  0  0  0  0
  -23.4170  -28.7870   23.3840 O   0  0  0  0  0  0  0  0  0  0  0  0
  -20.9260  -29.8130   21.7650 H   0  0  0  0  0  0  0  0  0  0  0  0
  -18.0230  -28.0880   22.9630 C   0  0  0  0  0  0  0  0  0  0  0  0
  -20.5860  -28.3200   23.2200 C   0  0  0  0  0  3  0  0  0  0  0  0
  -20.6680  -26.8910   22.6360 C   0  0  0  0  0  2  0  0  0  0  0  0
  -19.5570  -26.5850   21.6280 C   0  0  0  0  0  2  0  0  0  0  0  0
  -18.1800  -26.7400   22.2790 C   0  0  0  0  0  2  0  0  0  0  0  0
  -19.1510  -28.8380   23.3890 C   0  0  0  0  0  0  0  0  0  0  0  0
  -18.9460  -30.1010   23.9860 C   0  0  0  0  0  3  0  0  0  0  0  0
  -17.6460  -30.6170   24.1540 C   0  0  0  0  0  3  0  0  0  0  0  0
  -16.5340  -29.8630   23.7450 C   0  0  0  0  0  3  0  0  0  0  0  0
  -16.7210  -28.5990   23.1590 C   0  0  0  0  0  3  0  0  0  0  0  0
  -25.8870  -32.4700   23.8620 C   0  0  0  0  0  3  0  0  0  0  0  0
  -25.5740  -33.8670   24.1950 N   0  0  0  0  0  0  0  0  0  0  0  0
  -25.9040  -34.9240   23.4410 C   0  0  0  0  0  0  0  0  0  0  0  0
  -26.5710  -34.8260   22.4070 O   0  0  0  0  0  0  0  0  0  0  0  0
  -24.9730  -34.0170   24.9920 H   0  0  0  0  0  0  0  0  0  0  0  0
  -24.1680  -36.7180   23.1060 C   0  0  0  0  0  1  0  0  0  0  0  0
  -25.4170  -36.3110   23.9050 C   0  0  0  0  0  3  0  0  0  0  0  0
  -27.5580  -37.1970   24.7220 C   0  0  0  0  0  1  0  0  0  0  0  0
  -26.4470  -37.3670   23.7880 N   0  0  0  0  0  0  0  0  0  0  0  0
  -26.0400  -38.2850   23.9400 H   0  0  0  0  0  0  0  0  0  0  0  0
  -26.4020  -31.6990   25.1400 C   0  0  1  0  0  0  0  0  0  0  0  0
  -25.3080  -31.4620   26.2090 C   0  0  0  0  0  1  0  0  0  0  0  0
  -26.9780  -30.3210   24.7440 C   0  0  0  0  0  1  0  0  0  0  0  0
  -27.5500  -32.4950   25.8040 C   0  0  0  0  0  1  0  0  0  0  0  0
  -29.8590  -18.6490   20.6010 C   0  0  0  0  0  2  0  0  0  0  0  0
  -30.0350  -17.2000   19.8410 C   0  0  0  0  0  2  0  0  0  0  0  0
  -30.6930  -14.7010   20.0850 C   0  0  0  0  0  0  0  0  0  0  0  0
  -30.3690  -12.5020   18.9350 C   0  0  0  0  0  2  0  0  0  0  0  0
  -29.3600  -12.6450   17.7740 C   0  0  0  0  0  2  0  0  0  0  0  0
  -27.9140  -12.4730   18.2780 C   0  0  0  0  0  2  0  0  0  0  0  0
  -27.6220  -13.3010   19.5580 C   0  0  0  0  0  3  0  0  0  0  0  0
  -28.7410  -13.1170   20.6030 C   0  0  0  0  0  2  0  0  0  0  0  0
  -30.0120  -13.5030   19.9730 N   0  0  0  0  0  0  0  0  0  0  0  0
  -31.7980  -14.8150   19.5470 O   0  0  0  0  0  0  0  0  0  0  0  0
  -29.8480  -15.9750   22.0040 C   0  0  0  0  0  1  0  0  0  0  0  0
  -30.0360  -15.8420   20.5590 N   0  0  0  0  0  0  0  0  0  0  0  0
  -25.2730  -13.8920   20.4200 C   0  0  0  0  0  0  0  0  0  0  0  0
  -24.2210  -13.1150   20.8290 C   0  0  0  0  0  0  0  0  0  0  0  0
  -24.6760  -11.7630   20.7450 C   0  0  0  0  0  0  0  0  0  0  0  0
  -26.2990  -13.0090   20.1100 N   0  0  0  0  0  0  0  0  0  0  0  0
  -25.9470  -11.7240   20.3660 N   0  0  0  0  0  0  0  0  0  0  0  0
  -23.9510  -10.5010   20.9510 C   0  0  0  0  0  0  0  0  0  0  0  0
  -24.4050   -9.5300   21.8720 C   0  0  0  0  0  3  0  0  0  0  0  0
  -23.6810   -8.3330   22.0670 C   0  0  0  0  0  3  0  0  0  0  0  0
  -22.4900   -8.0980   21.3390 C   0  0  0  0  0  0  0  0  0  0  0  0
  -22.0560   -9.0560   20.4080 C   0  0  0  0  0  3  0  0  0  0  0  0
  -22.7790  -10.2450   20.2130 C   0  0  0  0  0  3  0  0  0  0  0  0
  -21.7340   -6.9550   21.4450 O   0  0  0  0  0  0  0  0  0  0  0  0
  -21.6850   -6.2270   22.6050 C   0  0  0  0  0  0  0  0  0  0  0  0
  -21.2720   -6.8010   23.8290 C   0  0  0  0  0  3  0  0  0  0  0  0
  -21.1750   -5.9990   24.9830 C   0  0  0  0  0  3  0  0  0  0  0  0
  -21.4770   -4.6270   24.9180 C   0  0  0  0  0  0  0  0  0  0  0  0
  -21.8850   -4.0550   23.7000 C   0  0  0  0  0  3  0  0  0  0  0  0
  -21.9860   -4.8520   22.5470 C   0  0  0  0  0  0  0  0  0  0  0  0
  -22.3580   -4.2890   21.3720 F   0  0  0  0  0  0  0  0  0  0  0  0
  -21.3760   -3.8570   26.0250 F   0  0  0  0  0  0  0  0  0  0  0  0
  -22.8440  -13.5940   21.1840 C   0  0  0  0  0  0  0  0  0  0  0  0
  -22.1630  -12.8900   22.0850 N   0  0  0  0  0  0  0  0  0  0  0  0
  -22.3810  -14.6240   20.7000 O   0  0  0  0  0  0  0  0  0  0  0  0
  -22.5450  -12.0550   22.5020 H   0  0  0  0  0  0  0  0  0  0  0  0
  -21.2440  -13.1970   22.3660 H   0  0  0  0  0  0  0  0  0  0  0  0
  -25.4320  -15.2650   20.2640 N   0  0  0  0  0  0  0  0  0  0  0  0
  -24.6870  -15.9250   20.4560 H   0  0  0  0  0  0  0  0  0  0  0  0
  -26.2730  -15.7070   19.9130 H   0  0  0  0  0  0  0  0  0  0  0  0
  1  3  1  0
  2  1  1  0
  2  4  2  0
  3  6  1  0
  3 10  1  0
  4  5  1  0
  4  6  1  0
  6 54  1  0
  8  9  1  0
  9  7  1  0
  9  2  1  0
 10 11  1  0
 12 13  1  0
 12 11  2  0
 14 25  2  0
 15 13  1  0
 15 20  1  0
 16 24  1  0
 16 26  1  0
 17 23  1  0
 17 19  1  0
 18 24  1  0
 19 18  1  0
 20 19  2  0
 21 15  2  0
 22 21  1  0
 22 17  2  0
 23 16  1  0
 24 14  1  0
 26 28  2  0
 27 26  1  0
 29 27  1  0
 30 39  2  0
 30 35  1  0
 31 27  1  0
 31 35  1  0
 32 31  1  0
 33 34  1  0
 33 32  1  0
 34 30  1  0
 35 36  2  0
 36 37  1  0
 38 37  2  0
 39 38  1  0
 40 14  1  0
 40 41  1  0
 40 50  1  0
 41 44  1  0
 42 46  1  0
 42 41  1  0
 43 42  2  0
 46 45  1  0
 48 46  1  0
 48 49  1  0
 48 47  1  0
 50 53  1  1
 50 51  1  0
 52 50  1  0
 55 65  1  0
 55 54  1  0
 56 65  1  0
 57 62  1  0
 58 59  1  0
 58 57  1  0
 60 59  1  0
 60 69  1  0
 60 61  1  0
 62 56  1  0
 62 61  1  0
 63 56  2  0
 65 64  1  0
 66 67  2  0
 67 86  1  0
 68 67  1  0
 68 71  1  0
 69 70  1  0
 69 66  1  0
 70 68  2  0
 71 72  1  0
 72 73  2  0
 74 77  1  0
 74 73  1  0
 75 74  2  0
 76 75  1  0
 76 71  2  0
 77 78  1  0
 78 79  1  0
 79 80  2  0
 81 80  1  0
 81 85  1  0
 82 81  2  0
 83 78  2  0
 83 82  1  0
 84 83  1  0
 86 87  1  0
 87 90  1  0
 87 89  1  0
 88 86  2  0
 91 66  1  0
 91 92  1  0
 93 91  1  0
M  ISO  4  12 101  13 101  56 100  65 100
M  END
>  <TORSDO>  (85) 
F 22

>  <SCORE>  (85) 
-12.704

>  <name>  (85) 
88

>  <ligand_id>  (85) 
88

>  <original_smiles>  (85) 
[H]c1c([H])c([H])c2c(c1[H])C([H])([H])C([H])([H])C([H])([H])C2([H])N([H])C(=O)C1([H])N(C(=O)C([H])(N([H])C(=O)C([H])(N([H])C([H])([H])[H])C([H])([H])[H])C(C([H])([H])[H])(C([H])([H])[H])C([H])([H])[H])C([H])([H])c2c([H])c(OC([H])([H])C([H])([H])C([H])([H])c3c([H])c(C([H])(C([H])([H])[H])C([H])([H])[H])c(C([H])([H])[H])n3C([H])([H])C([H])([H])N(C(=O)N3C([H])([H])C([H])([H])C([H])([H])C([H])(n4nc(-c5c([H])c([H])c(Oc6c([H])c([H])c(F)c([H])c6F)c([H])c5[H])c(C(=O)N([H])[H])c4N([H])[H])C3([H])[H])C([H])([H])[H])c([H])c([H])c2C1([H])[H]

>  <smiles>  (85) 
[H]c1c([H])c([H])c2c(c1[H])C([H])([H])C([H])([H])C([H])([H])C2([H])N([H])C(=O)C1([H])N(C(=O)C([H])(N([H])C(=O)C([H])(N([H])C([H])([H])[H])C([H])([H])[H])C(C([H])([H])[H])(C([H])([H])[H])C([H])([H])[H])C([H])([H])c2c([H])c(OC([H])([H])C([H])([H])C([H])([H])c3c([H])c(C([H])(C([H])([H])[H])C([H])([H])[H])c(C([H])([H])[H])n3C([H])([H])C([H])([H])N(C(=O)N3C([H])([H])C([H])([H])C([H])([H])C([H])(n4nc(-c5c([H])c([H])c(Oc6c([H])c([H])c(F)c([H])c6F)c([H])c5[H])c(C(=O)N([H])[H])c4N([H])[H])C3([H])[H])C([H])([H])[H])c([H])c([H])c2C1([H])[H]

$$$$
89:0:0
     RDKit          3D

 94102  0  0  1  0  0  0  0  0999 V2000
  -33.2370  -19.5740   18.0240 C   0  0  0  0  0  2  0  0  0  0  0  0
  -30.9820  -19.7420   19.0440 C   0  0  0  0  0  2  0  0  0  0  0  0
  -30.0290  -19.0580   19.7340 C   0  0  0  0  0  3  0  0  0  0  0  0
  -30.6540  -17.8780   20.2320 C   0  0  0  0  0  3  0  0  0  0  0  0
  -31.7970  -17.6800   19.4880 C   0  0  0  0  0  3  0  0  0  0  0  0
  -30.0530  -17.0160   21.3100 C   0  0  0  0  0  1  0  0  0  0  0  0
  -32.0880  -18.9430   18.8000 N   0  0  0  0  0  0  0  0  0  0  0  0
  -31.8250  -15.2730   18.5730 C   0  0  0  0  0  0  0  0  0  0  0  0
  -32.9480  -13.1530   17.8370 C   0  0  0  0  0  2  0  0  0  0  0  0
  -34.2680  -12.9280   18.6070 C   0  0  0  0  0  2  0  0  0  0  0  0
  -35.4420  -13.6820   17.9500 C   0  0  0  0  0  2  0  0  0  0  0  0
  -35.0910  -15.1470   17.5770 C   0  0  0  0  0  3  0  0  0  0  0  0
  -33.7290  -15.2340   16.8830 C   0  0  0  0  0  2  0  0  0  0  0  0
  -32.7390  -14.6150   17.7740 N   0  0  0  0  0  0  0  0  0  0  0  0
  -30.7700  -14.7160   18.8700 O   0  0  0  0  0  0  0  0  0  0  0  0
  -32.2730  -16.3580   19.3350 N   0  0  0  0  0  0  0  0  0  0  0  0
  -33.2790  -16.3330   19.3410 H   0  0  0  0  0  0  0  0  0  0  0  0
  -36.9080  -16.9010   17.1400 C   0  0  0  0  0  0  0  0  0  0  0  0
  -37.8180  -17.0490   16.1220 C   0  0  0  0  0  0  0  0  0  0  0  0
  -37.5360  -16.0100   15.1860 C   0  0  0  0  0  0  0  0  0  0  0  0
  -36.1420  -15.7980   16.7980 N   0  0  0  0  0  0  0  0  0  0  0  0
  -36.4850  -15.3000   15.5840 N   0  0  0  0  0  0  0  0  0  0  0  0
  -38.2540  -15.6040   13.9710 C   0  0  0  0  0  0  0  0  0  0  0  0
  -37.8160  -15.9930   12.6880 C   0  0  0  0  0  3  0  0  0  0  0  0
  -38.5310  -15.6000   11.5350 C   0  0  0  0  0  3  0  0  0  0  0  0
  -39.7000  -14.8100   11.6620 C   0  0  0  0  0  0  0  0  0  0  0  0
  -40.1220  -14.4080   12.9430 C   0  0  0  0  0  3  0  0  0  0  0  0
  -39.4030  -14.7980   14.0860 C   0  0  0  0  0  3  0  0  0  0  0  0
  -40.4430  -14.3570   10.5970 O   0  0  0  0  0  0  0  0  0  0  0  0
  -41.0460  -15.2240    9.7240 C   0  0  0  0  0  0  0  0  0  0  0  0
  -42.0700  -16.1060   10.1320 C   0  0  0  0  0  3  0  0  0  0  0  0
  -42.7100  -16.9300    9.1860 C   0  0  0  0  0  3  0  0  0  0  0  0
  -42.3350  -16.8680    7.8290 C   0  0  0  0  0  0  0  0  0  0  0  0
  -41.3180  -15.9870    7.4190 C   0  0  0  0  0  3  0  0  0  0  0  0
  -40.6780  -15.1650    8.3650 C   0  0  0  0  0  0  0  0  0  0  0  0
  -39.7150  -14.3030    7.9570 F   0  0  0  0  0  0  0  0  0  0  0  0
  -42.9550  -17.6560    6.9180 F   0  0  0  0  0  0  0  0  0  0  0  0
  -38.9480  -18.0390   16.0820 C   0  0  0  0  0  0  0  0  0  0  0  0
  -39.0940  -18.7600   14.9720 N   0  0  0  0  0  0  0  0  0  0  0  0
  -39.6890  -18.2100   17.0460 O   0  0  0  0  0  0  0  0  0  0  0  0
  -38.4760  -18.6340   14.1860 H   0  0  0  0  0  0  0  0  0  0  0  0
  -39.8320  -19.4460   14.9120 H   0  0  0  0  0  0  0  0  0  0  0  0
  -36.6910  -17.6010   18.3210 N   0  0  0  0  0  0  0  0  0  0  0  0
  -37.2840  -18.3820   18.5790 H   0  0  0  0  0  0  0  0  0  0  0  0
  -35.9680  -17.4070   19.0030 H   0  0  0  0  0  0  0  0  0  0  0  0
  -27.8450  -19.4890   18.5970 C   0  0  0  0  0  1  0  0  0  0  0  0
  -28.4250  -20.7830   20.7030 C   0  0  0  0  0  1  0  0  0  0  0  0
  -28.5770  -19.4510   19.9570 C   0  0  0  0  0  3  0  0  0  0  0  0
  -32.9630  -20.7660   16.9120 C   0  0  0  0  0  2  0  0  0  0  0  0
  -32.8880  -22.3810   17.1890 C   0  0  0  0  0  2  0  0  0  0  0  0
  -31.3050  -23.4700   18.9610 C   0  0  0  0  0  1  0  0  0  0  0  0
  -31.4600  -23.1620   17.4680 C   0  0  0  0  0  3  0  0  0  0  0  0
  -30.9340  -24.4590   16.6140 C   0  0  0  0  0  2  0  0  0  0  0  0
  -31.7760  -25.5190   15.9460 O   0  0  0  0  0  0  0  0  0  0  0  0
  -34.1840  -32.1670   17.7220 C   0  0  0  0  0  0  0  0  0  0  0  0
  -32.7780  -26.3060   16.5710 C   0  0  0  0  0  0  0  0  0  0  0  0
  -35.8350  -30.3270   17.8150 C   0  0  0  0  0  3  0  0  0  0  0  0
  -34.8750  -27.9470   17.6840 C   0  0  0  0  0  0  0  0  0  0  0  0
  -33.3380  -29.8520   18.2000 C   0  0  0  0  0  2  0  0  0  0  0  0
  -33.5660  -28.4430   17.6460 C   0  0  0  0  0  0  0  0  0  0  0  0
  -32.5220  -27.6240   17.0970 C   0  0  0  0  0  3  0  0  0  0  0  0
  -34.1130  -25.8580   16.6580 C   0  0  0  0  0  3  0  0  0  0  0  0
  -35.1450  -26.6560   17.2020 C   0  0  0  0  0  3  0  0  0  0  0  0
  -35.9520  -28.8450   18.2670 C   0  0  0  0  0  2  0  0  0  0  0  0
  -34.4240  -30.8320   17.8930 N   0  0  0  0  0  0  0  0  0  0  0  0
  -35.1130  -32.9670   17.5440 O   0  0  0  0  0  0  0  0  0  0  0  0
  -36.4640  -30.4760   16.4100 C   0  0  0  0  0  0  0  0  0  0  0  0
  -37.7140  -30.9650   16.3620 N   0  0  0  0  0  0  0  0  0  0  0  0
  -35.8420  -30.1400   15.3970 O   0  0  0  0  0  0  0  0  0  0  0  0
  -38.1910  -31.1660   17.2280 H   0  0  0  0  0  0  0  0  0  0  0  0
  -40.5650  -32.7120   14.9820 C   0  0  0  0  0  0  0  0  0  0  0  0
  -38.5000  -31.1660   15.1430 C   0  0  0  0  0  3  0  0  0  0  0  0
  -39.4940  -30.0040   14.9370 C   0  0  0  0  0  2  0  0  0  0  0  0
  -40.8630  -30.2790   15.5570 C   0  0  0  0  0  2  0  0  0  0  0  0
  -41.4930  -31.5110   14.9110 C   0  0  0  0  0  2  0  0  0  0  0  0
  -39.1560  -32.5520   15.0920 C   0  0  0  0  0  0  0  0  0  0  0  0
  -38.3420  -33.7020   15.1480 C   0  0  0  0  0  3  0  0  0  0  0  0
  -38.9130  -34.9840   15.0910 C   0  0  0  0  0  3  0  0  0  0  0  0
  -40.2990  -35.1390   14.9790 C   0  0  0  0  0  3  0  0  0  0  0  0
  -41.1250  -34.0040   14.9180 C   0  0  0  0  0  3  0  0  0  0  0  0
  -32.7440  -32.7520   17.7700 C   0  0  0  0  0  3  0  0  0  0  0  0
  -32.8050  -34.0310   18.4950 N   0  0  0  0  0  0  0  0  0  0  0  0
  -32.7080  -34.1590   19.8250 C   0  0  0  0  0  0  0  0  0  0  0  0
  -32.4910  -33.2040   20.5740 O   0  0  0  0  0  0  0  0  0  0  0  0
  -33.0350  -34.8480   17.9510 H   0  0  0  0  0  0  0  0  0  0  0  0
  -34.3730  -35.8280   20.7020 C   0  0  0  0  0  1  0  0  0  0  0  0
  -32.8850  -35.5720   20.4200 C   0  0  0  0  0  3  0  0  0  0  0  0
  -30.6800  -36.0190   21.4050 C   0  0  0  0  0  1  0  0  0  0  0  0
  -32.1010  -35.7900   21.6560 N   0  0  0  0  0  0  0  0  0  0  0  0
  -32.4630  -36.5830   22.1770 H   0  0  0  0  0  0  0  0  0  0  0  0
  -32.1080  -32.9600   16.3400 C   0  0  1  0  0  0  0  0  0  0  0  0
  -32.5450  -34.2710   15.6490 C   0  0  0  0  0  1  0  0  0  0  0  0
  -32.4710  -31.7850   15.4010 C   0  0  0  0  0  1  0  0  0  0  0  0
  -30.5640  -32.9670   16.4500 C   0  0  0  0  0  1  0  0  0  0  0  0
  1  7  1  0
  2  3  1  0
  3 48  1  0
  3  4  1  0
  4  6  1  0
  5 16  1  0
  5  4  1  0
  7  2  1  0
  7  5  1  0
  8 15  2  0
  8 16  1  0
  9 10  1  0
 11 10  1  0
 12 21  1  0
 12 11  1  0
 13 12  1  0
 13 14  1  0
 14  9  1  0
 14  8  1  0
 16 17  1  0
 18 43  1  0
 19 18  2  0
 20 22  2  0
 20 19  1  0
 21 18  1  0
 22 21  1  0
 23 28  1  0
 23 20  1  0
 24 23  2  0
 25 26  2  0
 25 24  1  0
 26 27  1  0
 27 28  2  0
 29 26  1  0
 30 31  1  0
 30 29  1  0
 32 31  2  0
 33 32  1  0
 34 33  2  0
 34 35  1  0
 35 30  2  0
 36 35  1  0
 37 33  1  0
 38 19  1  0
 38 40  2  0
 39 38  1  0
 41 39  1  0
 42 39  1  0
 43 44  1  0
 43 45  1  0
 46 48  1  0
 48 47  1  0
 49 50  1  0
 49  1  1  0
 50 52  1  0
 52 51  1  0
 53 52  1  0
 54 56  1  0
 54 53  1  0
 55 65  1  0
 56 62  2  0
 56 61  1  0
 57 67  1  0
 57 65  1  0
 57 64  1  0
 58 64  1  0
 60 58  1  0
 60 59  1  0
 61 60  2  0
 62 63  1  0
 63 58  2  0
 65 59  1  0
 66 55  2  0
 68 67  1  0
 68 70  1  0
 69 67  2  0
 71 76  1  0
 72 68  1  0
 73 72  1  0
 73 74  1  0
 75 71  1  0
 75 74  1  0
 76 72  1  0
 76 77  2  0
 78 77  1  0
 79 78  2  0
 80 79  1  0
 80 71  2  0
 81 55  1  0
 81 82  1  0
 82 83  1  0
 83 87  1  0
 83 84  2  0
 85 82  1  0
 87 86  1  0
 87 89  1  0
 88 89  1  0
 89 90  1  0
 91 94  1  1
 91 81  1  0
 92 91  1  0
 93 91  1  0
M  ISO  4   8 100  16 100  53 101  54 101
M  END
>  <TORSDO>  (86) 
F 22

>  <SCORE>  (86) 
-3.216

>  <name>  (86) 
89

>  <ligand_id>  (86) 
89

>  <original_smiles>  (86) 
[H]c1c([H])c([H])c2c(c1[H])C([H])([H])C([H])([H])C([H])([H])C2([H])N([H])C(=O)C1([H])N(C(=O)C([H])(N([H])C(=O)C([H])(N([H])C([H])([H])[H])C([H])([H])[H])C(C([H])([H])[H])(C([H])([H])[H])C([H])([H])[H])C([H])([H])c2c([H])c(OC([H])([H])C([H])(C([H])([H])[H])C([H])([H])C([H])([H])C([H])([H])n3c([H])c(C([H])(C([H])([H])[H])C([H])([H])[H])c(C([H])([H])[H])c3N([H])C(=O)N3C([H])([H])C([H])([H])C([H])([H])C([H])(n4nc(-c5c([H])c([H])c(Oc6c([H])c([H])c(F)c([H])c6F)c([H])c5[H])c(C(=O)N([H])[H])c4N([H])[H])C3([H])[H])c([H])c([H])c2C1([H])[H]

>  <smiles>  (86) 
[H]c1c([H])c([H])c2c(c1[H])C([H])([H])C([H])([H])C([H])([H])C2([H])N([H])C(=O)C1([H])N(C(=O)C([H])(N([H])C(=O)C([H])(N([H])C([H])([H])[H])C([H])([H])[H])C(C([H])([H])[H])(C([H])([H])[H])C([H])([H])[H])C([H])([H])c2c([H])c(OC([H])([H])C([H])(C([H])([H])[H])C([H])([H])C([H])([H])C([H])([H])n3c([H])c(C([H])(C([H])([H])[H])C([H])([H])[H])c(C([H])([H])[H])c3N([H])C(=O)N3C([H])([H])C([H])([H])C([H])([H])C([H])(n4nc(-c5c([H])c([H])c(Oc6c([H])c([H])c(F)c([H])c6F)c([H])c5[H])c(C(=O)N([H])[H])c4N([H])[H])C3([H])[H])c([H])c([H])c2C1([H])[H]

$$$$
90:0:0
     RDKit          3D

 95103  0  0  1  0  0  0  0  0999 V2000
  -29.3940  -21.1070   21.0620 C   0  0  0  0  0  3  0  0  0  0  0  0
  -28.9900  -22.3120   20.3570 C   0  0  0  0  0  0  0  0  0  0  0  0
  -28.6630  -22.0810   18.9720 C   0  0  0  0  0  0  0  0  0  0  0  0
  -29.4260  -19.8040   20.4600 C   0  0  0  0  0  0  0  0  0  0  0  0
  -28.8170  -20.7620   18.4240 C   0  0  0  0  0  0  0  0  0  0  0  0
  -28.1050  -23.2030   18.1010 C   0  0  0  0  0  1  0  0  0  0  0  0
  -29.1340  -19.6870   19.1660 N   0  0  0  0  0  0  0  0  0  0  0  0
  -29.4570  -21.0410   15.9060 C   0  0  0  0  0  1  0  0  0  0  0  0
  -27.1180  -20.1450   16.6080 C   0  0  0  0  0  1  0  0  0  0  0  0
  -28.6010  -20.3320   16.9650 C   0  0  0  0  0  3  0  0  0  0  0  0
  -30.3960  -24.3630   20.8950 C   0  0  0  0  0  1  0  0  0  0  0  0
  -28.8200  -23.5100   22.6290 C   0  0  0  0  0  1  0  0  0  0  0  0
  -28.9960  -23.7600   21.0940 C   0  0  2  0  0  0  0  0  0  0  0  0
  -27.9320  -24.9510   20.7420 C   0  0  0  0  0  2  0  0  0  0  0  0
  -28.3140  -26.2870   20.1790 O   0  0  0  0  0  0  0  0  0  0  0  0
  -24.6170  -31.7380   23.1200 C   0  0  0  0  0  0  0  0  0  0  0  0
  -27.2580  -27.2050   20.0730 C   0  0  0  0  0  0  0  0  0  0  0  0
  -23.4320  -30.3460   21.4630 C   0  0  0  0  0  3  0  0  0  0  0  0
  -24.9050  -28.8290   20.0270 C   0  0  0  0  0  0  0  0  0  0  0  0
  -25.9720  -30.6780   21.3050 C   0  0  0  0  0  2  0  0  0  0  0  0
  -26.0680  -29.3100   20.6440 C   0  0  0  0  0  0  0  0  0  0  0  0
  -27.2510  -28.5090   20.6590 C   0  0  0  0  0  3  0  0  0  0  0  0
  -26.0880  -26.7950   19.3960 C   0  0  0  0  0  3  0  0  0  0  0  0
  -24.9180  -27.5750   19.3960 C   0  0  0  0  0  3  0  0  0  0  0  0
  -23.6620  -29.6990   20.0750 C   0  0  0  0  0  2  0  0  0  0  0  0
  -24.6910  -30.9350   22.0190 N   0  0  0  0  0  0  0  0  0  0  0  0
  -23.5280  -32.0000   23.6510 O   0  0  0  0  0  0  0  0  0  0  0  0
  -22.7740  -29.3050   22.4040 C   0  0  0  0  0  0  0  0  0  0  0  0
  -21.4460  -29.1340   22.2890 N   0  0  0  0  0  0  0  0  0  0  0  0
  -23.4590  -28.6630   23.2040 O   0  0  0  0  0  0  0  0  0  0  0  0
  -20.9470  -29.7080   21.6220 H   0  0  0  0  0  0  0  0  0  0  0  0
  -18.0650  -27.9800   22.8260 C   0  0  0  0  0  0  0  0  0  0  0  0
  -20.6320  -28.1880   23.0500 C   0  0  0  0  0  3  0  0  0  0  0  0
  -20.6970  -26.7710   22.4340 C   0  0  0  0  0  2  0  0  0  0  0  0
  -19.5690  -26.4950   21.4350 C   0  0  0  0  0  2  0  0  0  0  0  0
  -18.2030  -26.6470   22.1120 C   0  0  0  0  0  2  0  0  0  0  0  0
  -19.2040  -28.7110   23.2520 C   0  0  0  0  0  0  0  0  0  0  0  0
  -19.0170  -29.9610   23.8790 C   0  0  0  0  0  3  0  0  0  0  0  0
  -17.7240  -30.4810   24.0810 C   0  0  0  0  0  3  0  0  0  0  0  0
  -16.5980  -29.7430   23.6730 C   0  0  0  0  0  3  0  0  0  0  0  0
  -16.7700  -28.4950   23.0500 C   0  0  0  0  0  3  0  0  0  0  0  0
  -25.8890  -32.3720   23.7540 C   0  0  0  0  0  3  0  0  0  0  0  0
  -25.5600  -33.7630   24.1040 N   0  0  0  0  0  0  0  0  0  0  0  0
  -25.8980  -34.8310   23.3690 C   0  0  0  0  0  0  0  0  0  0  0  0
  -26.5840  -34.7540   22.3470 O   0  0  0  0  0  0  0  0  0  0  0  0
  -24.9480  -33.8980   24.8960 H   0  0  0  0  0  0  0  0  0  0  0  0
  -24.1640  -36.6160   23.0160 C   0  0  0  0  0  1  0  0  0  0  0  0
  -25.3930  -36.2080   23.8440 C   0  0  0  0  0  3  0  0  0  0  0  0
  -27.5070  -37.0880   24.7320 C   0  0  0  0  0  1  0  0  0  0  0  0
  -26.4240  -37.2670   23.7690 N   0  0  0  0  0  0  0  0  0  0  0  0
  -26.0130  -38.1860   23.9210 H   0  0  0  0  0  0  0  0  0  0  0  0
  -26.4100  -31.5930   25.0240 C   0  0  1  0  0  0  0  0  0  0  0  0
  -25.3110  -31.3310   26.0800 C   0  0  0  0  0  1  0  0  0  0  0  0
  -27.0150  -30.2290   24.6200 C   0  0  0  0  0  1  0  0  0  0  0  0
  -27.5530  -32.3860   25.6960 C   0  0  0  0  0  1  0  0  0  0  0  0
  -29.5680  -18.4200   21.2210 C   0  0  0  0  0  3  0  0  0  0  0  0
  -30.2250  -17.1360   20.4970 C   0  0  0  0  0  3  0  0  0  0  0  0
  -30.8320  -14.6250   20.9080 C   0  0  0  0  0  0  0  0  0  0  0  0
  -30.7090  -12.3400   19.9340 C   0  0  0  0  0  2  0  0  0  0  0  0
  -29.8670  -12.4130   18.6380 C   0  0  0  0  0  2  0  0  0  0  0  0
  -28.3650  -12.2610   18.9550 C   0  0  0  0  0  2  0  0  0  0  0  0
  -27.9100  -13.1820   20.1150 C   0  0  0  0  0  3  0  0  0  0  0  0
  -28.8660  -13.0730   21.3220 C   0  0  0  0  0  2  0  0  0  0  0  0
  -30.2190  -13.4000   20.8440 N   0  0  0  0  0  0  0  0  0  0  0  0
  -32.0250  -14.7470   20.6130 O   0  0  0  0  0  0  0  0  0  0  0  0
  -30.0250  -15.7300   21.0620 N   0  0  0  0  0  0  0  0  0  0  0  0
  -29.0770  -15.5060   21.3340 H   0  0  0  0  0  0  0  0  0  0  0  0
  -25.4700  -13.8150   20.6060 C   0  0  0  0  0  0  0  0  0  0  0  0
  -24.3710  -13.0590   20.9060 C   0  0  0  0  0  0  0  0  0  0  0  0
  -24.8240  -11.7030   20.9560 C   0  0  0  0  0  0  0  0  0  0  0  0
  -26.5240  -12.9220   20.4910 N   0  0  0  0  0  0  0  0  0  0  0  0
  -26.1350  -11.6490   20.7600 N   0  0  0  0  0  0  0  0  0  0  0  0
  -24.0770  -10.4510   21.1240 C   0  0  0  0  0  0  0  0  0  0  0  0
  -24.4410   -9.4950   22.1000 C   0  0  0  0  0  3  0  0  0  0  0  0
  -23.6950   -8.3060   22.2490 C   0  0  0  0  0  3  0  0  0  0  0  0
  -22.5710   -8.0630   21.4230 C   0  0  0  0  0  0  0  0  0  0  0  0
  -22.2300   -9.0050   20.4360 C   0  0  0  0  0  3  0  0  0  0  0  0
  -22.9760  -10.1850   20.2850 C   0  0  0  0  0  3  0  0  0  0  0  0
  -21.8030   -6.9260   21.4830 O   0  0  0  0  0  0  0  0  0  0  0  0
  -21.6930   -6.1950   22.6370 C   0  0  0  0  0  0  0  0  0  0  0  0
  -21.2050   -6.7610   23.8360 C   0  0  0  0  0  3  0  0  0  0  0  0
  -21.0410   -5.9540   24.9800 C   0  0  0  0  0  3  0  0  0  0  0  0
  -21.3540   -4.5830   24.9260 C   0  0  0  0  0  0  0  0  0  0  0  0
  -21.8310   -4.0160   23.7310 C   0  0  0  0  0  3  0  0  0  0  0  0
  -21.9960   -4.8190   22.5890 C   0  0  0  0  0  0  0  0  0  0  0  0
  -22.4400   -4.2630   21.4360 F   0  0  0  0  0  0  0  0  0  0  0  0
  -21.1880   -3.8050   26.0210 F   0  0  0  0  0  0  0  0  0  0  0  0
  -22.9590  -13.5480   21.0480 C   0  0  0  0  0  0  0  0  0  0  0  0
  -22.1570  -12.8810   21.8710 N   0  0  0  0  0  0  0  0  0  0  0  0
  -22.5700  -14.5540   20.4570 O   0  0  0  0  0  0  0  0  0  0  0  0
  -22.4800  -12.0620   22.3660 H   0  0  0  0  0  0  0  0  0  0  0  0
  -21.2060  -13.1950   22.0150 H   0  0  0  0  0  0  0  0  0  0  0  0
  -25.6590  -15.1790   20.4000 N   0  0  0  0  0  0  0  0  0  0  0  0
  -24.8950  -15.8400   20.4470 H   0  0  0  0  0  0  0  0  0  0  0  0
  -26.5210  -15.5880   20.0660 H   0  0  0  0  0  0  0  0  0  0  0  0
  2  1  2  0
  2 13  1  0
  3  2  1  0
  4  1  1  0
  4 56  1  0
  5  3  2  0
  5  7  1  0
  6  3  1  0
  7  4  2  0
  8 10  1  0
  9 10  1  0
 10  5  1  0
 13 11  1  1
 13 12  1  0
 14 13  1  0
 15 14  1  0
 16 27  2  0
 17 15  1  0
 17 22  1  0
 18 26  1  0
 18 28  1  0
 19 25  1  0
 19 21  1  0
 20 26  1  0
 21 22  2  0
 21 20  1  0
 23 24  1  0
 23 17  2  0
 24 19  2  0
 25 18  1  0
 26 16  1  0
 28 30  2  0
 29 28  1  0
 31 29  1  0
 32 41  2  0
 32 37  1  0
 33 29  1  0
 33 37  1  0
 34 33  1  0
 35 36  1  0
 35 34  1  0
 36 32  1  0
 37 38  2  0
 38 39  1  0
 40 39  2  0
 41 40  1  0
 42 16  1  0
 42 43  1  0
 42 52  1  0
 43 46  1  0
 44 48  1  0
 44 43  1  0
 45 44  2  0
 48 47  1  0
 50 48  1  0
 50 51  1  0
 50 49  1  0
 52 55  1  1
 52 53  1  0
 54 52  1  0
 57 66  1  0
 57 56  2  0
 58 66  1  0
 59 64  1  0
 60 61  1  0
 60 59  1  0
 62 61  1  0
 62 71  1  0
 62 63  1  0
 64 58  1  0
 64 63  1  0
 65 58  2  0
 66 67  1  0
 68 69  2  0
 69 70  1  0
 69 88  1  0
 70 73  1  0
 71 68  1  0
 71 72  1  0
 72 70  2  0
 73 74  1  0
 74 75  2  0
 76 79  1  0
 76 75  1  0
 77 76  2  0
 78 77  1  0
 78 73  2  0
 79 80  1  0
 80 81  1  0
 81 82  2  0
 83 82  1  0
 83 87  1  0
 84 83  2  0
 85 80  2  0
 85 84  1  0
 86 85  1  0
 88 89  1  0
 89 92  1  0
 89 91  1  0
 90 88  2  0
 93 94  1  0
 93 68  1  0
 95 93  1  0
M  ISO  4  14 101  15 101  58 100  66 100
M  END
>  <TORSDO>  (87) 
F 21

>  <SCORE>  (87) 
-12.693

>  <name>  (87) 
90

>  <ligand_id>  (87) 
90

>  <original_smiles>  (87) 
[H]c1c([H])c([H])c2c(c1[H])C([H])([H])C([H])([H])C([H])([H])C2([H])N([H])C(=O)C1([H])N(C(=O)C([H])(N([H])C(=O)C([H])(N([H])C([H])([H])[H])C([H])([H])[H])C(C([H])([H])[H])(C([H])([H])[H])C([H])([H])[H])C([H])([H])c2c([H])c(OC([H])([H])C(c3c([H])c(C([H])([H])C([H])([H])N([H])C(=O)N4C([H])([H])C([H])([H])C([H])([H])C([H])(n5nc(-c6c([H])c([H])c(Oc7c([H])c([H])c(F)c([H])c7F)c([H])c6[H])c(C(=O)N([H])[H])c5N([H])[H])C4([H])[H])nc(C([H])(C([H])([H])[H])C([H])([H])[H])c3C([H])([H])[H])(C([H])([H])[H])C([H])([H])[H])c([H])c([H])c2C1([H])[H]

>  <smiles>  (87) 
[H]c1c([H])c([H])c2c(c1[H])C([H])([H])C([H])([H])C([H])([H])C2([H])N([H])C(=O)C1([H])N(C(=O)C([H])(N([H])C(=O)C([H])(N([H])C([H])([H])[H])C([H])([H])[H])C(C([H])([H])[H])(C([H])([H])[H])C([H])([H])[H])C([H])([H])c2c([H])c(OC([H])([H])C(c3c([H])c(C([H])([H])C([H])([H])N([H])C(=O)N4C([H])([H])C([H])([H])C([H])([H])C([H])(n5nc(-c6c([H])c([H])c(Oc7c([H])c([H])c(F)c([H])c7F)c([H])c6[H])c(C(=O)N([H])[H])c5N([H])[H])C4([H])[H])nc(C([H])(C([H])([H])[H])C([H])([H])[H])c3C([H])([H])[H])(C([H])([H])[H])C([H])([H])[H])c([H])c([H])c2C1([H])[H]

$$$$
91:0:0
     RDKit          3D

 94102  0  0  1  0  0  0  0  0999 V2000
  -29.4800  -21.4530   20.3710 C   0  0  0  0  0  3  0  0  0  0  0  0
  -30.0750  -22.5340   22.4380 C   0  0  0  0  0  3  0  0  0  0  0  0
  -29.5760  -22.7050   21.1250 C   0  0  0  0  0  0  0  0  0  0  0  0
  -29.8610  -20.1730   20.9720 C   0  0  0  0  0  0  0  0  0  0  0  0
  -30.4330  -21.2760   22.9410 C   0  0  0  0  0  0  0  0  0  0  0  0
  -30.3190  -20.1420   22.2330 N   0  0  0  0  0  0  0  0  0  0  0  0
  -32.6600  -21.0650   24.0350 C   0  0  0  0  0  1  0  0  0  0  0  0
  -30.5940  -19.9730   25.1130 C   0  0  0  0  0  1  0  0  0  0  0  0
  -31.1440  -21.1460   24.2770 C   0  0  0  0  0  3  0  0  0  0  0  0
  -29.6660  -18.6850   20.4390 C   0  0  0  0  0  3  0  0  0  0  0  0
  -30.6070  -17.4760   20.9940 C   0  0  0  0  0  3  0  0  0  0  0  0
  -30.9730  -14.8800   20.5860 C   0  0  0  0  0  0  0  0  0  0  0  0
  -30.8000  -12.5670   19.6450 C   0  0  0  0  0  2  0  0  0  0  0  0
  -29.9340  -12.6120   18.3680 C   0  0  0  0  0  2  0  0  0  0  0  0
  -28.4400  -12.4710   18.7230 C   0  0  0  0  0  2  0  0  0  0  0  0
  -28.0090  -13.4010   19.8900 C   0  0  0  0  0  3  0  0  0  0  0  0
  -29.0050  -13.3430   21.0680 C   0  0  0  0  0  2  0  0  0  0  0  0
  -30.3330  -13.6630   20.5260 N   0  0  0  0  0  0  0  0  0  0  0  0
  -32.1670  -14.9720   20.2960 O   0  0  0  0  0  0  0  0  0  0  0  0
  -30.2050  -16.0140   20.7830 N   0  0  0  0  0  0  0  0  0  0  0  0
  -29.2300  -15.8300   20.9610 H   0  0  0  0  0  0  0  0  0  0  0  0
  -25.5860  -14.0360   20.4560 C   0  0  0  0  0  0  0  0  0  0  0  0
  -24.4940  -13.2870   20.7870 C   0  0  0  0  0  0  0  0  0  0  0  0
  -24.9440  -11.9280   20.8230 C   0  0  0  0  0  0  0  0  0  0  0  0
  -26.6350  -13.1420   20.3100 N   0  0  0  0  0  0  0  0  0  0  0  0
  -26.2500  -11.8700   20.5900 N   0  0  0  0  0  0  0  0  0  0  0  0
  -24.1930  -10.6810   21.0070 C   0  0  0  0  0  0  0  0  0  0  0  0
  -24.5620   -9.7340   21.9880 C   0  0  0  0  0  3  0  0  0  0  0  0
  -23.8130   -8.5500   22.1600 C   0  0  0  0  0  3  0  0  0  0  0  0
  -22.6800   -8.3050   21.3480 C   0  0  0  0  0  0  0  0  0  0  0  0
  -22.3310   -9.2380   20.3550 C   0  0  0  0  0  3  0  0  0  0  0  0
  -23.0800  -10.4130   20.1840 C   0  0  0  0  0  3  0  0  0  0  0  0
  -21.9090   -7.1680   21.4240 O   0  0  0  0  0  0  0  0  0  0  0  0
  -21.7780   -6.4640   22.5930 C   0  0  0  0  0  0  0  0  0  0  0  0
  -21.3170   -7.0720   23.7810 C   0  0  0  0  0  3  0  0  0  0  0  0
  -21.1320   -6.2960   24.9420 C   0  0  0  0  0  3  0  0  0  0  0  0
  -21.4000   -4.9140   24.9160 C   0  0  0  0  0  0  0  0  0  0  0  0
  -21.8550   -4.3070   23.7350 C   0  0  0  0  0  3  0  0  0  0  0  0
  -22.0410   -5.0790   22.5740 C   0  0  0  0  0  0  0  0  0  0  0  0
  -22.4600   -4.4850   21.4310 F   0  0  0  0  0  0  0  0  0  0  0  0
  -21.2160   -4.1660   26.0310 F   0  0  0  0  0  0  0  0  0  0  0  0
  -23.0880  -13.7830   20.9630 C   0  0  0  0  0  0  0  0  0  0  0  0
  -22.3090  -13.1310   21.8180 N   0  0  0  0  0  0  0  0  0  0  0  0
  -22.6900  -14.7900   20.3770 O   0  0  0  0  0  0  0  0  0  0  0  0
  -22.6440  -12.3190   22.3170 H   0  0  0  0  0  0  0  0  0  0  0  0
  -21.3650  -13.4500   21.9770 H   0  0  0  0  0  0  0  0  0  0  0  0
  -25.7700  -15.3990   20.2410 N   0  0  0  0  0  0  0  0  0  0  0  0
  -24.9900  -16.0460   20.2770 H   0  0  0  0  0  0  0  0  0  0  0  0
  -26.6140  -15.8260   19.8850 H   0  0  0  0  0  0  0  0  0  0  0  0
  -29.4040  -24.2650   20.7320 C   0  0  0  0  0  3  0  0  0  0  0  0
  -31.0340  -26.0720   21.5660 C   0  0  0  0  0  1  0  0  0  0  0  0
  -30.7870  -24.9380   20.5490 C   0  0  0  0  0  2  0  0  0  0  0  0
  -28.2970  -24.9640   19.8010 C   0  0  0  0  0  2  0  0  0  0  0  0
  -28.3260  -26.4750   19.7660 O   0  0  0  0  0  0  0  0  0  0  0  0
  -24.5980  -31.7630   23.0330 C   0  0  0  0  0  0  0  0  0  0  0  0
  -27.1760  -27.2980   19.7700 C   0  0  0  0  0  0  0  0  0  0  0  0
  -23.3600  -30.3760   21.4070 C   0  0  0  0  0  3  0  0  0  0  0  0
  -24.7850  -28.8860   19.8910 C   0  0  0  0  0  0  0  0  0  0  0  0
  -25.8820  -30.7480   21.1300 C   0  0  0  0  0  2  0  0  0  0  0  0
  -25.9680  -29.3790   20.4570 C   0  0  0  0  0  0  0  0  0  0  0  0
  -27.1610  -28.5970   20.3860 C   0  0  0  0  0  3  0  0  0  0  0  0
  -25.9720  -26.8740   19.1700 C   0  0  0  0  0  3  0  0  0  0  0  0
  -24.7910  -27.6410   19.2420 C   0  0  0  0  0  3  0  0  0  0  0  0
  -23.5330  -29.7290   20.0080 C   0  0  0  0  0  2  0  0  0  0  0  0
  -24.6360  -30.9790   21.9140 N   0  0  0  0  0  0  0  0  0  0  0  0
  -23.5310  -32.0020   23.6180 O   0  0  0  0  0  0  0  0  0  0  0  0
  -22.7540  -29.3300   22.3740 C   0  0  0  0  0  0  0  0  0  0  0  0
  -21.4360  -29.0900   22.2670 N   0  0  0  0  0  0  0  0  0  0  0  0
  -23.4730  -28.7320   23.1800 O   0  0  0  0  0  0  0  0  0  0  0  0
  -20.9090  -29.6140   21.5790 H   0  0  0  0  0  0  0  0  0  0  0  0
  -18.1520  -27.6650   22.7660 C   0  0  0  0  0  0  0  0  0  0  0  0
  -20.6820  -28.1130   23.0530 C   0  0  0  0  0  3  0  0  0  0  0  0
  -20.8950  -26.6830   22.5060 C   0  0  0  0  0  2  0  0  0  0  0  0
  -19.8290  -26.2650   21.4870 C   0  0  0  0  0  2  0  0  0  0  0  0
  -18.4330  -26.3220   22.1140 C   0  0  0  0  0  2  0  0  0  0  0  0
  -19.2100  -28.5090   23.1970 C   0  0  0  0  0  0  0  0  0  0  0  0
  -18.8950  -29.7620   23.7660 C   0  0  0  0  0  3  0  0  0  0  0  0
  -17.5580  -30.1700   23.9170 C   0  0  0  0  0  3  0  0  0  0  0  0
  -16.5150  -29.3250   23.5000 C   0  0  0  0  0  3  0  0  0  0  0  0
  -16.8130  -28.0740   22.9320 C   0  0  0  0  0  3  0  0  0  0  0  0
  -25.8920  -32.4150   23.6140 C   0  0  0  0  0  3  0  0  0  0  0  0
  -25.5490  -33.7800   24.0380 N   0  0  0  0  0  0  0  0  0  0  0  0
  -25.8320  -34.8890   23.3420 C   0  0  0  0  0  0  0  0  0  0  0  0
  -26.4750  -34.8730   22.2890 O   0  0  0  0  0  0  0  0  0  0  0  0
  -24.9660  -33.8650   24.8590 H   0  0  0  0  0  0  0  0  0  0  0  0
  -24.0460  -36.6510   23.1460 C   0  0  0  0  0  1  0  0  0  0  0  0
  -25.3180  -36.2310   23.9000 C   0  0  0  0  0  3  0  0  0  0  0  0
  -27.4460  -37.1230   24.7380 C   0  0  0  0  0  1  0  0  0  0  0  0
  -26.3170  -37.3190   23.8310 N   0  0  0  0  0  0  0  0  0  0  0  0
  -25.8890  -38.2150   24.0460 H   0  0  0  0  0  0  0  0  0  0  0  0
  -26.5070  -31.6010   24.8170 C   0  0  1  0  0  0  0  0  0  0  0  0
  -25.4850  -31.2820   25.9310 C   0  0  0  0  0  1  0  0  0  0  0  0
  -27.1080  -30.2640   24.3260 C   0  0  0  0  0  1  0  0  0  0  0  0
  -27.6690  -32.3990   25.4530 C   0  0  0  0  0  1  0  0  0  0  0  0
  1  4  2  0
  1  3  1  0
  2  5  1  0
  3  2  2  0
  4  6  1  0
  5  9  1  0
  6  5  2  0
  7  9  1  0
  9  8  1  0
 10  4  1  0
 10 11  2  0
 12 20  1  0
 13 18  1  0
 14 15  1  0
 14 13  1  0
 16 15  1  0
 16 25  1  0
 16 17  1  0
 18 12  1  0
 18 17  1  0
 19 12  2  0
 20 21  1  0
 20 11  1  0
 22 23  2  0
 23 24  1  0
 23 42  1  0
 24 27  1  0
 25 22  1  0
 25 26  1  0
 26 24  2  0
 27 28  1  0
 28 29  2  0
 30 33  1  0
 30 29  1  0
 31 30  2  0
 32 31  1  0
 32 27  2  0
 33 34  1  0
 34 35  1  0
 35 36  2  0
 37 36  1  0
 37 41  1  0
 38 37  2  0
 39 34  2  0
 39 38  1  0
 40 39  1  0
 42 43  1  0
 43 46  1  0
 43 45  1  0
 44 42  2  0
 47 48  1  0
 47 22  1  0
 49 47  1  0
 50 53  1  0
 50  3  1  0
 52 50  1  0
 52 51  1  0
 54 56  1  0
 54 53  1  0
 55 66  2  0
 56 61  1  0
 57 65  1  0
 57 67  1  0
 58 64  1  0
 58 60  1  0
 59 65  1  0
 60 59  1  0
 61 60  2  0
 62 63  1  0
 62 56  2  0
 63 58  2  0
 64 57  1  0
 65 55  1  0
 67 69  2  0
 68 67  1  0
 70 68  1  0
 71 80  2  0
 71 76  1  0
 72 68  1  0
 72 76  1  0
 73 72  1  0
 74 75  1  0
 74 73  1  0
 75 71  1  0
 76 77  2  0
 77 78  1  0
 79 78  2  0
 80 79  1  0
 81 55  1  0
 81 82  1  0
 81 91  1  0
 82 85  1  0
 83 87  1  0
 83 82  1  0
 84 83  2  0
 87 86  1  0
 89 87  1  0
 89 90  1  0
 89 88  1  0
 91 94  1  1
 91 92  1  0
 93 91  1  0
M  ISO  4  12 100  20 100  53 101  54 101
M  END
>  <TORSDO>  (88) 
F 22

>  <SCORE>  (88) 
-12.038

>  <name>  (88) 
91

>  <ligand_id>  (88) 
91

>  <original_smiles>  (88) 
[H]c1c([H])c([H])c2c(c1[H])C([H])([H])C([H])([H])C([H])([H])C2([H])N([H])C(=O)C1([H])N(C(=O)C([H])(N([H])C(=O)C([H])(N([H])C([H])([H])[H])C([H])([H])[H])C(C([H])([H])[H])(C([H])([H])[H])C([H])([H])[H])C([H])([H])c2c([H])c(OC([H])([H])C([H])(c3c([H])c(C([H])([H])C([H])([H])N([H])C(=O)N4C([H])([H])C([H])([H])C([H])([H])C([H])(n5nc(-c6c([H])c([H])c(Oc7c([H])c([H])c(F)c([H])c7F)c([H])c6[H])c(C(=O)N([H])[H])c5N([H])[H])C4([H])[H])nc(C([H])(C([H])([H])[H])C([H])([H])[H])c3[H])C([H])([H])C([H])([H])[H])c([H])c([H])c2C1([H])[H]

>  <smiles>  (88) 
[H]c1c([H])c([H])c2c(c1[H])C([H])([H])C([H])([H])C([H])([H])C2([H])N([H])C(=O)C1([H])N(C(=O)C([H])(N([H])C(=O)C([H])(N([H])C([H])([H])[H])C([H])([H])[H])C(C([H])([H])[H])(C([H])([H])[H])C([H])([H])[H])C([H])([H])c2c([H])c(OC([H])([H])C([H])(c3c([H])c(C([H])([H])C([H])([H])N([H])C(=O)N4C([H])([H])C([H])([H])C([H])([H])C([H])(n5nc(-c6c([H])c([H])c(Oc7c([H])c([H])c(F)c([H])c7F)c([H])c6[H])c(C(=O)N([H])[H])c5N([H])[H])C4([H])[H])nc(C([H])(C([H])([H])[H])C([H])([H])[H])c3[H])C([H])([H])C([H])([H])[H])c([H])c([H])c2C1([H])[H]

$$$$
92:0:0
     RDKit          3D

 94102  0  0  1  0  0  0  0  0999 V2000
  -28.8650  -20.3590   20.5120 C   0  0  0  0  0  3  0  0  0  0  0  0
  -29.2330  -21.7940   20.2410 C   0  0  0  0  0  0  0  0  0  0  0  0
  -29.8690  -19.3640   20.2910 C   0  0  0  0  0  0  0  0  0  0  0  0
  -30.5500  -21.6110   19.8460 C   0  0  0  0  0  0  0  0  0  0  0  0
  -30.8620  -20.2210   19.7860 N   0  0  0  0  0  0  0  0  0  0  0  0
  -31.7130  -23.8320   20.4840 C   0  0  0  0  0  1  0  0  0  0  0  0
  -31.7070  -23.0290   18.0710 C   0  0  0  0  0  1  0  0  0  0  0  0
  -31.6580  -22.6130   19.5470 C   0  0  0  0  0  3  0  0  0  0  0  0
  -32.1170  -19.7520   19.3360 N   0  0  0  0  0  0  0  0  0  0  0  0
  -31.9560  -18.9280   18.7710 H   0  0  0  0  0  0  0  0  0  0  0  0
  -32.6520  -19.4680   20.1450 H   0  0  0  0  0  0  0  0  0  0  0  0
  -28.5530  -23.5940   22.0330 C   0  0  0  0  0  1  0  0  0  0  0  0
  -28.4030  -23.2400   20.5500 C   0  0  0  0  0  3  0  0  0  0  0  0
  -28.3220  -24.7090   19.6710 C   0  0  0  0  0  2  0  0  0  0  0  0
  -28.2410  -26.2020   20.1830 O   0  0  0  0  0  0  0  0  0  0  0  0
  -24.5880  -31.8680   23.2080 C   0  0  0  0  0  0  0  0  0  0  0  0
  -27.1560  -27.1640   20.0950 C   0  0  0  0  0  0  0  0  0  0  0  0
  -23.3760  -30.4830   21.5670 C   0  0  0  0  0  3  0  0  0  0  0  0
  -24.8150  -28.9140   20.1120 C   0  0  0  0  0  0  0  0  0  0  0  0
  -25.9280  -30.7470   21.3830 C   0  0  0  0  0  2  0  0  0  0  0  0
  -25.9980  -29.3570   20.7150 C   0  0  0  0  0  0  0  0  0  0  0  0
  -27.1620  -28.4960   20.6900 C   0  0  0  0  0  3  0  0  0  0  0  0
  -25.9430  -26.8280   19.4540 C   0  0  0  0  0  3  0  0  0  0  0  0
  -24.8030  -27.6660   19.4660 C   0  0  0  0  0  3  0  0  0  0  0  0
  -23.5870  -29.8110   20.1820 C   0  0  0  0  0  2  0  0  0  0  0  0
  -24.6520  -31.0570   22.1070 N   0  0  0  0  0  0  0  0  0  0  0  0
  -23.5060  -32.1470   23.7500 O   0  0  0  0  0  0  0  0  0  0  0  0
  -22.7050  -29.4720   22.5280 C   0  0  0  0  0  0  0  0  0  0  0  0
  -21.3760  -29.3030   22.4130 N   0  0  0  0  0  0  0  0  0  0  0  0
  -23.3850  -28.8410   23.3430 O   0  0  0  0  0  0  0  0  0  0  0  0
  -20.8850  -29.8680   21.7340 H   0  0  0  0  0  0  0  0  0  0  0  0
  -18.0000  -28.0830   22.9230 C   0  0  0  0  0  0  0  0  0  0  0  0
  -20.5610  -28.3540   23.1780 C   0  0  0  0  0  3  0  0  0  0  0  0
  -20.6630  -26.9260   22.5950 C   0  0  0  0  0  2  0  0  0  0  0  0
  -19.5590  -26.6070   21.5820 C   0  0  0  0  0  2  0  0  0  0  0  0
  -18.1800  -26.7400   22.2350 C   0  0  0  0  0  2  0  0  0  0  0  0
  -19.1190  -28.8470   23.3520 C   0  0  0  0  0  0  0  0  0  0  0  0
  -18.8950  -30.1040   23.9570 C   0  0  0  0  0  3  0  0  0  0  0  0
  -17.5890  -30.5960   24.1340 C   0  0  0  0  0  3  0  0  0  0  0  0
  -16.4880  -29.8280   23.7220 C   0  0  0  0  0  3  0  0  0  0  0  0
  -16.6930  -28.5730   23.1230 C   0  0  0  0  0  3  0  0  0  0  0  0
  -25.8700  -32.5020   23.8330 C   0  0  0  0  0  3  0  0  0  0  0  0
  -25.5670  -33.9030   24.1640 N   0  0  0  0  0  0  0  0  0  0  0  0
  -25.9150  -34.9580   23.4120 C   0  0  0  0  0  0  0  0  0  0  0  0
  -26.5860  -34.8500   22.3850 O   0  0  0  0  0  0  0  0  0  0  0  0
  -24.9730  -34.0600   24.9650 H   0  0  0  0  0  0  0  0  0  0  0  0
  -24.2140  -36.7770   23.0520 C   0  0  0  0  0  1  0  0  0  0  0  0
  -25.4400  -36.3510   23.8750 C   0  0  0  0  0  3  0  0  0  0  0  0
  -27.5720  -37.2090   24.7410 C   0  0  0  0  0  1  0  0  0  0  0  0
  -26.4870  -37.3910   23.7830 N   0  0  0  0  0  0  0  0  0  0  0  0
  -26.0890  -38.3150   23.9290 H   0  0  0  0  0  0  0  0  0  0  0  0
  -26.3790  -31.7340   25.1170 C   0  0  1  0  0  0  0  0  0  0  0  0
  -25.2830  -31.5110   26.1860 C   0  0  0  0  0  1  0  0  0  0  0  0
  -26.9480  -30.3470   24.7360 C   0  0  0  0  0  1  0  0  0  0  0  0
  -27.5350  -32.5220   25.7730 C   0  0  0  0  0  1  0  0  0  0  0  0
  -30.3000  -17.7810   20.6990 C   0  0  0  0  0  2  0  0  0  0  0  0
  -30.5270  -15.0750   20.2490 C   0  0  0  0  0  0  0  0  0  0  0  0
  -30.4130  -12.6910   19.3510 C   0  0  0  0  0  2  0  0  0  0  0  0
  -29.4820  -12.5760   18.1230 C   0  0  0  0  0  2  0  0  0  0  0  0
  -28.0270  -12.3440   18.5640 C   0  0  0  0  0  2  0  0  0  0  0  0
  -27.5970  -13.3030   19.7040 C   0  0  0  0  0  3  0  0  0  0  0  0
  -28.6550  -13.3860   20.8240 C   0  0  0  0  0  2  0  0  0  0  0  0
  -29.9090  -13.8180   20.1920 N   0  0  0  0  0  0  0  0  0  0  0  0
  -31.7460  -15.0860   20.0470 O   0  0  0  0  0  0  0  0  0  0  0  0
  -29.8000  -16.3100   20.3350 N   0  0  0  0  0  0  0  0  0  0  0  0
  -28.7980  -16.1940   20.3700 H   0  0  0  0  0  0  0  0  0  0  0  0
  -25.2180  -13.8640   20.4500 C   0  0  0  0  0  0  0  0  0  0  0  0
  -24.1580  -13.0830   20.8200 C   0  0  0  0  0  0  0  0  0  0  0  0
  -24.6300  -11.7350   20.7910 C   0  0  0  0  0  0  0  0  0  0  0  0
  -26.2660  -12.9930   20.2140 N   0  0  0  0  0  0  0  0  0  0  0  0
  -25.9230  -11.7070   20.4850 N   0  0  0  0  0  0  0  0  0  0  0  0
  -23.9100  -10.4670   20.9810 C   0  0  0  0  0  0  0  0  0  0  0  0
  -24.3280   -9.5160   21.9380 C   0  0  0  0  0  3  0  0  0  0  0  0
  -23.6040   -8.3180   22.1160 C   0  0  0  0  0  3  0  0  0  0  0  0
  -22.4500   -8.0610   21.3400 C   0  0  0  0  0  0  0  0  0  0  0  0
  -22.0510   -9.0020   20.3750 C   0  0  0  0  0  3  0  0  0  0  0  0
  -22.7730  -10.1930   20.1930 C   0  0  0  0  0  3  0  0  0  0  0  0
  -21.7030   -6.9110   21.4260 O   0  0  0  0  0  0  0  0  0  0  0  0
  -21.6110   -6.1980   22.5930 C   0  0  0  0  0  0  0  0  0  0  0  0
  -21.0960   -6.7670   23.7790 C   0  0  0  0  0  3  0  0  0  0  0  0
  -20.9580   -5.9790   24.9390 C   0  0  0  0  0  3  0  0  0  0  0  0
  -21.3220   -4.6200   24.9130 C   0  0  0  0  0  0  0  0  0  0  0  0
  -21.8270   -4.0470   23.7330 C   0  0  0  0  0  3  0  0  0  0  0  0
  -21.9710   -4.8350   22.5770 C   0  0  0  0  0  0  0  0  0  0  0  0
  -22.4390   -4.2730   21.4350 F   0  0  0  0  0  0  0  0  0  0  0  0
  -21.1810   -3.8580   26.0240 F   0  0  0  0  0  0  0  0  0  0  0  0
  -22.7580  -13.5530   21.0840 C   0  0  0  0  0  0  0  0  0  0  0  0
  -22.0290  -12.8510   21.9450 N   0  0  0  0  0  0  0  0  0  0  0  0
  -22.3190  -14.5760   20.5610 O   0  0  0  0  0  0  0  0  0  0  0  0
  -22.3960  -12.0230   22.3910 H   0  0  0  0  0  0  0  0  0  0  0  0
  -21.0890  -13.1460   22.1610 H   0  0  0  0  0  0  0  0  0  0  0  0
  -25.3700  -15.2350   20.2670 N   0  0  0  0  0  0  0  0  0  0  0  0
  -24.5980  -15.8840   20.3730 H   0  0  0  0  0  0  0  0  0  0  0  0
  -26.2120  -15.6800   19.9250 H   0  0  0  0  0  0  0  0  0  0  0  0
  2  1  1  0
  2 13  1  0
  3  1  2  0
  3 56  1  0
  4  2  2  0
  5  4  1  0
  5  3  1  0
  7  8  1  0
  8  4  1  0
  8  6  1  0
  9  5  1  0
  9 11  1  0
 10  9  1  0
 13 12  1  0
 14 15  1  0
 14 13  1  0
 16 27  2  0
 17 15  1  0
 17 22  1  0
 18 26  1  0
 18 28  1  0
 19 25  1  0
 19 21  1  0
 20 26  1  0
 21 20  1  0
 22 21  2  0
 23 24  1  0
 23 17  2  0
 24 19  2  0
 25 18  1  0
 26 16  1  0
 28 30  2  0
 29 28  1  0
 31 29  1  0
 32 41  2  0
 32 37  1  0
 33 29  1  0
 33 37  1  0
 34 33  1  0
 35 36  1  0
 35 34  1  0
 36 32  1  0
 37 38  2  0
 38 39  1  0
 40 39  2  0
 41 40  1  0
 42 16  1  0
 42 43  1  0
 42 52  1  0
 43 46  1  0
 44 48  1  0
 44 43  1  0
 45 44  2  0
 48 47  1  0
 50 48  1  0
 50 51  1  0
 50 49  1  0
 52 55  1  1
 52 53  1  0
 54 52  1  0
 57 65  1  0
 58 63  1  0
 59 60  1  0
 59 58  1  0
 61 60  1  0
 61 70  1  0
 61 62  1  0
 63 57  1  0
 63 62  1  0
 64 57  2  0
 65 66  1  0
 65 56  1  0
 67 68  2  0
 68 87  1  0
 69 68  1  0
 69 72  1  0
 70 67  1  0
 70 71  1  0
 71 69  2  0
 72 73  1  0
 73 74  2  0
 75 78  1  0
 75 74  1  0
 76 75  2  0
 77 76  1  0
 77 72  2  0
 78 79  1  0
 79 80  1  0
 80 81  2  0
 82 81  1  0
 82 86  1  0
 83 82  2  0
 84 79  2  0
 84 83  1  0
 85 84  1  0
 87 88  1  0
 88 91  1  0
 88 90  1  0
 89 87  2  0
 92 93  1  0
 92 67  1  0
 94 92  1  0
M  ISO  4  14 101  15 101  57 100  65 100
M  END
>  <TORSDO>  (89) 
F 21

>  <SCORE>  (89) 
-14.501

>  <name>  (89) 
92

>  <ligand_id>  (89) 
92

>  <original_smiles>  (89) 
[H]c1c([H])c([H])c2c(c1[H])C([H])([H])C([H])([H])C([H])([H])C2([H])N([H])C(=O)C1([H])N(C(=O)C([H])(N([H])C(=O)C([H])(N([H])C([H])([H])[H])C([H])([H])[H])C(C([H])([H])[H])(C([H])([H])[H])C([H])([H])[H])C([H])([H])c2c([H])c(OC([H])([H])C([H])(c3c([H])c(C([H])([H])N([H])C(=O)N4C([H])([H])C([H])([H])C([H])([H])C([H])(n5nc(-c6c([H])c([H])c(Oc7c([H])c([H])c(F)c([H])c7F)c([H])c6[H])c(C(=O)N([H])[H])c5N([H])[H])C4([H])[H])n(N([H])[H])c3C([H])(C([H])([H])[H])C([H])([H])[H])C([H])([H])[H])c([H])c([H])c2C1([H])[H]

>  <smiles>  (89) 
[H]c1c([H])c([H])c2c(c1[H])C([H])([H])C([H])([H])C([H])([H])C2([H])N([H])C(=O)C1([H])N(C(=O)C([H])(N([H])C(=O)C([H])(N([H])C([H])([H])[H])C([H])([H])[H])C(C([H])([H])[H])(C([H])([H])[H])C([H])([H])[H])C([H])([H])c2c([H])c(OC([H])([H])C([H])(c3c([H])c(C([H])([H])N([H])C(=O)N4C([H])([H])C([H])([H])C([H])([H])C([H])(n5nc(-c6c([H])c([H])c(Oc7c([H])c([H])c(F)c([H])c7F)c([H])c6[H])c(C(=O)N([H])[H])c5N([H])[H])C4([H])[H])n(N([H])[H])c3C([H])(C([H])([H])[H])C([H])([H])[H])C([H])([H])[H])c([H])c([H])c2C1([H])[H]

$$$$
93:0:0
     RDKit          3D

 88 95  0  0  1  0  0  0  0  0999 V2000
  -27.4320  -21.8150   21.0430 C   0  0  0  0  0  1  0  0  0  0  0  0
  -28.8030  -22.0860   20.5530 N   0  0  1  0  0  4  0  0  0  0  0  0
  -29.3560  -22.1630   21.3940 H   0  0  0  0  0  0  0  0  0  0  0  0
  -29.3950  -20.8100   19.8300 C   0  0  0  0  0  3  0  0  0  0  0  0
  -29.4380  -19.3050   20.5620 C   0  0  0  0  0  3  0  0  0  0  0  0
  -29.9980  -17.8700   19.8940 C   0  0  0  0  0  2  0  0  0  0  0  0
  -28.7840  -16.2500   21.4860 C   0  0  0  0  0  1  0  0  0  0  0  0
  -31.1720  -16.7020   21.8250 C   0  0  0  0  0  1  0  0  0  0  0  0
  -30.1130  -16.4210   20.7310 C   0  0  2  0  0  0  0  0  0  0  0  0
  -30.6410  -15.0020   20.0140 C   0  0  0  0  0  0  0  0  0  0  0  0
  -30.4370  -12.7120   18.9330 C   0  0  0  0  0  2  0  0  0  0  0  0
  -29.4150  -12.7400   17.7690 C   0  0  0  0  0  2  0  0  0  0  0  0
  -27.9780  -12.5130   18.2800 C   0  0  0  0  0  2  0  0  0  0  0  0
  -27.6700  -13.3640   19.5370 C   0  0  0  0  0  3  0  0  0  0  0  0
  -28.8030  -13.2350   20.5750 C   0  0  0  0  0  2  0  0  0  0  0  0
  -30.0350  -13.7390   19.9440 N   0  0  0  0  0  0  0  0  0  0  0  0
  -31.7440  -15.0810   19.4610 O   0  0  0  0  0  0  0  0  0  0  0  0
  -25.3320  -13.9180   20.4370 C   0  0  0  0  0  0  0  0  0  0  0  0
  -24.3000  -13.1280   20.8600 C   0  0  0  0  0  0  0  0  0  0  0  0
  -24.7650  -11.7810   20.7560 C   0  0  0  0  0  0  0  0  0  0  0  0
  -26.3630  -13.0520   20.1060 N   0  0  0  0  0  0  0  0  0  0  0  0
  -26.0320  -11.7590   20.3570 N   0  0  0  0  0  0  0  0  0  0  0  0
  -24.0550  -10.5110   20.9530 C   0  0  0  0  0  0  0  0  0  0  0  0
  -24.5070   -9.5490   21.8840 C   0  0  0  0  0  3  0  0  0  0  0  0
  -23.7950   -8.3440   22.0690 C   0  0  0  0  0  3  0  0  0  0  0  0
  -22.6170   -8.0940   21.3260 C   0  0  0  0  0  0  0  0  0  0  0  0
  -22.1850   -9.0450   20.3830 C   0  0  0  0  0  3  0  0  0  0  0  0
  -22.8990  -10.2400   20.1960 C   0  0  0  0  0  3  0  0  0  0  0  0
  -21.8750   -6.9420   21.4210 O   0  0  0  0  0  0  0  0  0  0  0  0
  -21.7900   -6.2370   22.5950 C   0  0  0  0  0  0  0  0  0  0  0  0
  -21.3090   -6.8250   23.7840 C   0  0  0  0  0  3  0  0  0  0  0  0
  -21.1710   -6.0450   24.9500 C   0  0  0  0  0  3  0  0  0  0  0  0
  -21.5060   -4.6780   24.9260 C   0  0  0  0  0  0  0  0  0  0  0  0
  -21.9800   -4.0890   23.7410 C   0  0  0  0  0  3  0  0  0  0  0  0
  -22.1190   -4.8660   22.5780 C   0  0  0  0  0  0  0  0  0  0  0  0
  -22.5560   -4.2890   21.4330 F   0  0  0  0  0  0  0  0  0  0  0  0
  -21.3660   -3.9260   26.0430 F   0  0  0  0  0  0  0  0  0  0  0  0
  -22.9240  -13.5900   21.2430 C   0  0  0  0  0  0  0  0  0  0  0  0
  -22.2600  -12.8640   22.1340 N   0  0  0  0  0  0  0  0  0  0  0  0
  -22.4510  -14.6310   20.7880 O   0  0  0  0  0  0  0  0  0  0  0  0
  -22.6570  -12.0210   22.5230 H   0  0  0  0  0  0  0  0  0  0  0  0
  -21.3400  -13.1550   22.4330 H   0  0  0  0  0  0  0  0  0  0  0  0
  -25.4680  -15.2940   20.2810 N   0  0  0  0  0  0  0  0  0  0  0  0
  -24.7020  -15.9330   20.4570 H   0  0  0  0  0  0  0  0  0  0  0  0
  -26.2820  -15.7480   19.8910 H   0  0  0  0  0  0  0  0  0  0  0  0
  -28.9060  -23.5280   19.9030 C   0  0  0  0  0  3  0  0  0  0  0  0
  -28.1110  -24.8580   20.5360 C   0  0  0  0  0  3  0  0  0  0  0  0
  -28.3310  -26.3490   20.1930 O   0  0  0  0  0  0  0  0  0  0  0  0
  -24.6220  -31.9240   23.2280 C   0  0  0  0  0  0  0  0  0  0  0  0
  -27.2420  -27.2790   20.1830 C   0  0  0  0  0  0  0  0  0  0  0  0
  -23.4270  -30.5190   21.5900 C   0  0  0  0  0  3  0  0  0  0  0  0
  -24.8850  -28.9640   20.1620 C   0  0  0  0  0  0  0  0  0  0  0  0
  -25.9750  -30.8240   21.4090 C   0  0  0  0  0  2  0  0  0  0  0  0
  -26.0590  -29.4350   20.7610 C   0  0  0  0  0  0  0  0  0  0  0  0
  -27.2410  -28.6090   20.7540 C   0  0  0  0  0  3  0  0  0  0  0  0
  -26.0430  -26.8990   19.5420 C   0  0  0  0  0  3  0  0  0  0  0  0
  -24.8870  -27.7060   19.5390 C   0  0  0  0  0  3  0  0  0  0  0  0
  -23.6460  -29.8430   20.2110 C   0  0  0  0  0  2  0  0  0  0  0  0
  -24.6940  -31.1110   22.1310 N   0  0  0  0  0  0  0  0  0  0  0  0
  -23.5360  -32.1930   23.7630 O   0  0  0  0  0  0  0  0  0  0  0  0
  -22.7660  -29.5040   22.5540 C   0  0  0  0  0  0  0  0  0  0  0  0
  -21.4400  -29.3160   22.4320 N   0  0  0  0  0  0  0  0  0  0  0  0
  -23.4490  -28.8850   23.3740 O   0  0  0  0  0  0  0  0  0  0  0  0
  -20.9450  -29.8670   21.7440 H   0  0  0  0  0  0  0  0  0  0  0  0
  -18.0780  -28.0620   22.9250 C   0  0  0  0  0  0  0  0  0  0  0  0
  -20.6320  -28.3700   23.2050 C   0  0  0  0  0  3  0  0  0  0  0  0
  -20.7610  -26.9360   22.6420 C   0  0  0  0  0  2  0  0  0  0  0  0
  -19.6700  -26.5860   21.6240 C   0  0  0  0  0  2  0  0  0  0  0  0
  -18.2820  -26.7130   22.2590 C   0  0  0  0  0  2  0  0  0  0  0  0
  -19.1810  -28.8480   23.3550 C   0  0  0  0  0  0  0  0  0  0  0  0
  -18.9350  -30.1100   23.9400 C   0  0  0  0  0  3  0  0  0  0  0  0
  -17.6210  -30.5870   24.0970 C   0  0  0  0  0  3  0  0  0  0  0  0
  -16.5330  -29.8000   23.6810 C   0  0  0  0  0  3  0  0  0  0  0  0
  -16.7620  -28.5390   23.1010 C   0  0  0  0  0  3  0  0  0  0  0  0
  -25.8980  -32.5690   23.8510 C   0  0  0  0  0  3  0  0  0  0  0  0
  -25.5790  -33.9690   24.1770 N   0  0  0  0  0  0  0  0  0  0  0  0
  -25.9060  -35.0230   23.4180 C   0  0  0  0  0  0  0  0  0  0  0  0
  -26.5790  -34.9210   22.3890 O   0  0  0  0  0  0  0  0  0  0  0  0
  -24.9830  -34.1220   24.9770 H   0  0  0  0  0  0  0  0  0  0  0  0
  -24.1740  -36.8120   23.0600 C   0  0  0  0  0  1  0  0  0  0  0  0
  -25.4150  -36.4110   23.8750 C   0  0  0  0  0  3  0  0  0  0  0  0
  -27.5440  -37.3050   24.7100 C   0  0  0  0  0  1  0  0  0  0  0  0
  -26.4440  -37.4670   23.7630 N   0  0  0  0  0  0  0  0  0  0  0  0
  -26.0330  -38.3860   23.9070 H   0  0  0  0  0  0  0  0  0  0  0  0
  -26.4130  -31.8100   25.1350 C   0  0  1  0  0  0  0  0  0  0  0  0
  -25.3190  -31.5760   26.2010 C   0  0  0  0  0  1  0  0  0  0  0  0
  -27.0050  -30.4330   24.7570 C   0  0  0  0  0  1  0  0  0  0  0  0
  -27.5600  -32.6140   25.7930 C   0  0  0  0  0  1  0  0  0  0  0  0
  2  1  1  0
  2  3  1  1
  4  2  1  0
  4  5  2  0
  6  5  1  0
  6  9  1  0
  9  7  1  1
  9  8  1  0
 10  9  1  0
 11 16  1  0
 12 13  1  0
 12 11  1  0
 14 13  1  0
 14 21  1  0
 14 15  1  0
 16 10  1  0
 16 15  1  0
 17 10  2  0
 18 19  2  0
 19 38  1  0
 20 19  1  0
 20 23  1  0
 21 22  1  0
 21 18  1  0
 22 20  2  0
 23 24  1  0
 24 25  2  0
 26 29  1  0
 26 25  1  0
 27 26  2  0
 28 27  1  0
 28 23  2  0
 29 30  1  0
 30 31  1  0
 31 32  2  0
 33 32  1  0
 33 37  1  0
 34 33  2  0
 35 30  2  0
 35 34  1  0
 36 35  1  0
 38 39  1  0
 39 42  1  0
 39 41  1  0
 40 38  2  0
 43 18  1  0
 43 44  1  0
 45 43  1  0
 46 47  2  0
 46  2  1  0
 48 47  1  0
 49 60  2  0
 50 48  1  0
 50 55  1  0
 51 59  1  0
 51 61  1  0
 52 58  1  0
 52 54  1  0
 53 59  1  0
 54 53  1  0
 55 54  2  0
 56 50  2  0
 57 56  1  0
 57 52  2  0
 58 51  1  0
 59 49  1  0
 61 63  2  0
 62 61  1  0
 64 62  1  0
 65 74  2  0
 65 70  1  0
 66 62  1  0
 66 70  1  0
 67 66  1  0
 68 69  1  0
 68 67  1  0
 69 65  1  0
 70 71  2  0
 71 72  1  0
 73 72  2  0
 74 73  1  0
 75 49  1  0
 75 76  1  0
 75 85  1  0
 76 79  1  0
 77 81  1  0
 77 76  1  0
 78 77  2  0
 81 80  1  0
 83 81  1  0
 83 84  1  0
 83 82  1  0
 85 88  1  1
 85 86  1  0
 87 85  1  0
M  ISO  4   9 100  10 100  47 101  48 101
M  END
>  <TORSDO>  (90) 
F 22

>  <SCORE>  (90) 
-12.120

>  <name>  (90) 
93

>  <ligand_id>  (90) 
93

>  <original_smiles>  (90) 
[H]c1c([H])c([H])c2c(c1[H])C([H])([H])C([H])([H])C([H])([H])C2([H])N([H])C(=O)C1([H])N(C(=O)C([H])(N([H])C(=O)C([H])(N([H])C([H])([H])[H])C([H])([H])[H])C(C([H])([H])[H])(C([H])([H])[H])C([H])([H])[H])C([H])([H])c2c([H])c(OC([H])([H])C([H])([H])[N+]([H])(C([H])([H])[H])C([H])([H])C([H])([H])C([H])([H])C(C(=O)N3C([H])([H])C([H])([H])C([H])([H])C([H])(n4nc(-c5c([H])c([H])c(Oc6c([H])c([H])c(F)c([H])c6F)c([H])c5[H])c(C(=O)N([H])[H])c4N([H])[H])C3([H])[H])(C([H])([H])[H])C([H])([H])[H])c([H])c([H])c2C1([H])[H]

>  <smiles>  (90) 
[H]c1c([H])c([H])c2c(c1[H])C([H])([H])C([H])([H])C([H])([H])C2([H])N([H])C(=O)C1([H])N(C(=O)C([H])(N([H])C(=O)C([H])(N([H])C([H])([H])[H])C([H])([H])[H])C(C([H])([H])[H])(C([H])([H])[H])C([H])([H])[H])C([H])([H])c2c([H])c(OC([H])([H])C([H])([H])[N+]([H])(C([H])([H])[H])C([H])([H])C([H])([H])C([H])([H])C(C(=O)N3C([H])([H])C([H])([H])C([H])([H])C([H])(n4nc(-c5c([H])c([H])c(Oc6c([H])c([H])c(F)c([H])c6F)c([H])c5[H])c(C(=O)N([H])[H])c4N([H])[H])C3([H])[H])(C([H])([H])[H])C([H])([H])[H])c([H])c([H])c2C1([H])[H]

$$$$
94:0:0
     RDKit          3D

 91 99  0  0  1  0  0  0  0  0999 V2000
  -27.9500  -19.0760   19.6270 C   0  0  0  0  0  3  0  0  0  0  0  0
  -27.5120  -21.1560   19.3530 C   0  0  0  0  0  0  0  0  0  0  0  0
  -28.7930  -21.1120   19.8850 C   0  0  0  0  0  0  0  0  0  0  0  0
  -26.6640  -22.3310   18.9660 C   0  0  0  0  0  1  0  0  0  0  0  0
  -26.9960  -19.8800   19.1880 N   0  0  0  0  0  0  0  0  0  0  0  0
  -29.0590  -19.6780   20.0770 N   0  0  0  0  0  0  0  0  0  0  0  0
  -29.6320  -22.4000   20.2380 C   0  0  0  0  0  2  0  0  0  0  0  0
  -30.6130  -24.3950   18.9420 C   0  0  0  0  0  1  0  0  0  0  0  0
  -29.3220  -23.8880   19.6030 C   0  0  0  0  0  3  0  0  0  0  0  0
  -28.7310  -25.1060   20.5120 C   0  0  0  0  0  2  0  0  0  0  0  0
  -28.8030  -26.5570   20.1120 O   0  0  0  0  0  0  0  0  0  0  0  0
  -24.6770  -31.6620   23.2740 C   0  0  0  0  0  0  0  0  0  0  0  0
  -27.6470  -27.3660   20.1210 C   0  0  0  0  0  0  0  0  0  0  0  0
  -23.6250  -30.3040   21.5020 C   0  0  0  0  0  3  0  0  0  0  0  0
  -25.2150  -28.8920   20.0730 C   0  0  0  0  0  0  0  0  0  0  0  0
  -26.1550  -30.7380   21.4640 C   0  0  0  0  0  2  0  0  0  0  0  0
  -26.3330  -29.3970   20.7510 C   0  0  0  0  0  0  0  0  0  0  0  0
  -27.5540  -28.6510   20.7550 C   0  0  0  0  0  3  0  0  0  0  0  0
  -26.5030  -26.9180   19.4300 C   0  0  0  0  0  3  0  0  0  0  0  0
  -25.3050  -27.6610   19.4020 C   0  0  0  0  0  3  0  0  0  0  0  0
  -23.9390  -29.7120   20.1010 C   0  0  0  0  0  2  0  0  0  0  0  0
  -24.8360  -30.9170   22.1400 N   0  0  0  0  0  0  0  0  0  0  0  0
  -23.5560  -31.8610   23.7640 O   0  0  0  0  0  0  0  0  0  0  0  0
  -22.9610  -29.2110   22.3730 C   0  0  0  0  0  0  0  0  0  0  0  0
  -21.6450  -29.0070   22.1920 N   0  0  0  0  0  0  0  0  0  0  0  0
  -23.6320  -28.5530   23.1710 O   0  0  0  0  0  0  0  0  0  0  0  0
  -21.1630  -29.5960   21.5270 H   0  0  0  0  0  0  0  0  0  0  0  0
  -18.2760  -27.7350   22.5580 C   0  0  0  0  0  0  0  0  0  0  0  0
  -20.8310  -27.9960   22.8700 C   0  0  0  0  0  3  0  0  0  0  0  0
  -20.9530  -26.6230   22.1710 C   0  0  0  0  0  2  0  0  0  0  0  0
  -19.8620  -26.3780   21.1250 C   0  0  0  0  0  2  0  0  0  0  0  0
  -18.4730  -26.4520   21.7660 C   0  0  0  0  0  2  0  0  0  0  0  0
  -19.3830  -28.4670   23.0620 C   0  0  0  0  0  0  0  0  0  0  0  0
  -19.1480  -29.6690   23.7630 C   0  0  0  0  0  3  0  0  0  0  0  0
  -17.8360  -30.1390   23.9660 C   0  0  0  0  0  3  0  0  0  0  0  0
  -16.7430  -29.4030   23.4760 C   0  0  0  0  0  3  0  0  0  0  0  0
  -16.9640  -28.2020   22.7790 C   0  0  0  0  0  3  0  0  0  0  0  0
  -25.8950  -32.3170   23.9970 C   0  0  0  0  0  3  0  0  0  0  0  0
  -25.5470  -33.7170   24.2770 N   0  0  0  0  0  0  0  0  0  0  0  0
  -25.9440  -34.7640   23.5410 C   0  0  0  0  0  0  0  0  0  0  0  0
  -26.7090  -34.6530   22.5790 O   0  0  0  0  0  0  0  0  0  0  0  0
  -24.8810  -33.8780   25.0170 H   0  0  0  0  0  0  0  0  0  0  0  0
  -24.2750  -36.5600   22.9800 C   0  0  0  0  0  1  0  0  0  0  0  0
  -25.4100  -36.1550   23.9340 C   0  0  0  0  0  3  0  0  0  0  0  0
  -27.4170  -37.0520   25.0270 C   0  0  0  0  0  1  0  0  0  0  0  0
  -26.4500  -37.2070   23.9420 N   0  0  0  0  0  0  0  0  0  0  0  0
  -26.0290  -38.1280   24.0250 H   0  0  0  0  0  0  0  0  0  0  0  0
  -26.2990  -31.5720   25.3280 C   0  0  1  0  0  0  0  0  0  0  0  0
  -25.1130  -31.3420   26.2960 C   0  0  0  0  0  1  0  0  0  0  0  0
  -26.9280  -30.1950   25.0150 C   0  0  0  0  0  1  0  0  0  0  0  0
  -27.3770  -32.3890   26.0770 C   0  0  0  0  0  1  0  0  0  0  0  0
  -30.2290  -18.8130   20.5070 C   0  0  0  0  0  2  0  0  0  0  0  0
  -30.0230  -17.4510   21.3960 C   0  0  0  0  0  2  0  0  0  0  0  0
  -30.6090  -14.9470   20.6570 C   0  0  0  0  0  0  0  0  0  0  0  0
  -30.5240  -12.6850   19.5790 C   0  0  0  0  0  2  0  0  0  0  0  0
  -29.5970  -12.7350   18.3440 C   0  0  0  0  0  2  0  0  0  0  0  0
  -28.1250  -12.5110   18.7480 C   0  0  0  0  0  2  0  0  0  0  0  0
  -27.7060  -13.3690   19.9710 C   0  0  0  0  0  3  0  0  0  0  0  0
  -28.7470  -13.2850   21.1050 C   0  0  0  0  0  2  0  0  0  0  0  0
  -30.0340  -13.7030   20.5330 N   0  0  0  0  0  0  0  0  0  0  0  0
  -31.8110  -15.0980   20.4180 O   0  0  0  0  0  0  0  0  0  0  0  0
  -29.7640  -16.0340   20.8660 N   0  0  0  0  0  0  0  0  0  0  0  0
  -28.7940  -15.7610   20.8970 H   0  0  0  0  0  0  0  0  0  0  0  0
  -25.2960  -13.8940   20.6740 C   0  0  0  0  0  0  0  0  0  0  0  0
  -24.2440  -13.0900   21.0140 C   0  0  0  0  0  0  0  0  0  0  0  0
  -24.7400  -11.7510   20.9700 C   0  0  0  0  0  0  0  0  0  0  0  0
  -26.3630  -13.0420   20.4370 N   0  0  0  0  0  0  0  0  0  0  0  0
  -26.0350  -11.7480   20.6810 N   0  0  0  0  0  0  0  0  0  0  0  0
  -24.0410  -10.4690   21.1250 C   0  0  0  0  0  0  0  0  0  0  0  0
  -24.4350   -9.5240   22.0980 C   0  0  0  0  0  3  0  0  0  0  0  0
  -23.7330   -8.3080   22.2400 C   0  0  0  0  0  3  0  0  0  0  0  0
  -22.6240   -8.0260   21.4050 C   0  0  0  0  0  0  0  0  0  0  0  0
  -22.2510   -8.9600   20.4220 C   0  0  0  0  0  3  0  0  0  0  0  0
  -22.9540  -10.1680   20.2790 C   0  0  0  0  0  3  0  0  0  0  0  0
  -21.9000   -6.8610   21.4550 O   0  0  0  0  0  0  0  0  0  0  0  0
  -21.7530   -6.1540   22.6210 C   0  0  0  0  0  0  0  0  0  0  0  0
  -21.1000   -6.7000   23.7480 C   0  0  0  0  0  3  0  0  0  0  0  0
  -20.9100   -5.9130   24.9010 C   0  0  0  0  0  3  0  0  0  0  0  0
  -21.3620   -4.5810   24.9280 C   0  0  0  0  0  0  0  0  0  0  0  0
  -22.0080   -4.0330   23.8040 C   0  0  0  0  0  3  0  0  0  0  0  0
  -22.1990   -4.8170   22.6530 C   0  0  0  0  0  0  0  0  0  0  0  0
  -22.8030   -4.2780   21.5660 F   0  0  0  0  0  0  0  0  0  0  0  0
  -21.1730   -3.8220   26.0330 F   0  0  0  0  0  0  0  0  0  0  0  0
  -22.8310  -13.5290   21.2670 C   0  0  0  0  0  0  0  0  0  0  0  0
  -22.1040  -12.7990   22.1050 N   0  0  0  0  0  0  0  0  0  0  0  0
  -22.3790  -14.5540   20.7580 O   0  0  0  0  0  0  0  0  0  0  0  0
  -22.4820  -11.9690   22.5370 H   0  0  0  0  0  0  0  0  0  0  0  0
  -21.1550  -13.0740   22.3180 H   0  0  0  0  0  0  0  0  0  0  0  0
  -25.4290  -15.2710   20.5160 N   0  0  0  0  0  0  0  0  0  0  0  0
  -24.6340  -15.8950   20.5990 H   0  0  0  0  0  0  0  0  0  0  0  0
  -26.2420  -15.7210   20.1210 H   0  0  0  0  0  0  0  0  0  0  0  0
  1  6  1  0
  2  3  2  0
  3  6  1  0
  3  7  1  0
  4  2  1  0
  5  2  1  0
  5  1  2  0
  6 52  1  0
  9  8  1  0
  9  7  1  0
  9 10  1  0
 11 13  1  0
 11 10  1  0
 12 23  2  0
 13 18  1  0
 14 22  1  0
 14 24  1  0
 15 21  1  0
 15 17  1  0
 16 22  1  0
 17 18  2  0
 17 16  1  0
 19 13  2  0
 20 19  1  0
 20 15  2  0
 21 14  1  0
 22 12  1  0
 24 26  2  0
 25 24  1  0
 27 25  1  0
 28 37  2  0
 28 33  1  0
 29 25  1  0
 29 33  1  0
 30 29  1  0
 31 32  1  0
 31 30  1  0
 32 28  1  0
 33 34  2  0
 34 35  1  0
 36 35  2  0
 37 36  1  0
 38 12  1  0
 38 39  1  0
 38 48  1  0
 39 42  1  0
 40 44  1  0
 40 39  1  0
 41 40  2  0
 44 43  1  0
 44 46  1  0
 46 47  1  0
 46 45  1  0
 48 51  1  1
 48 49  1  0
 50 48  1  0
 52 53  1  0
 54 62  1  0
 55 60  1  0
 56 57  1  0
 56 55  1  0
 58 57  1  0
 58 67  1  0
 58 59  1  0
 60 54  1  0
 60 59  1  0
 61 54  2  0
 62 63  1  0
 62 53  1  0
 64 65  2  0
 65 84  1  0
 66 65  1  0
 66 69  1  0
 67 64  1  0
 67 68  1  0
 68 66  2  0
 69 70  1  0
 70 71  2  0
 72 75  1  0
 72 71  1  0
 73 72  2  0
 74 73  1  0
 74 69  2  0
 75 76  1  0
 76 81  2  0
 76 77  1  0
 77 78  2  0
 78 79  1  0
 79 83  1  0
 80 79  2  0
 81 80  1  0
 82 81  1  0
 84 85  1  0
 85 88  1  0
 85 87  1  0
 86 84  2  0
 89 90  1  0
 89 64  1  0
 91 89  1  0
M  ISO  4  10 101  11 101  54 100  62 100
M  END
>  <TORSDO>  (91) 
F 21

>  <SCORE>  (91) 
-12.982

>  <name>  (91) 
94

>  <ligand_id>  (91) 
94

>  <original_smiles>  (91) 
[H]c1c([H])c([H])c2c(c1[H])C([H])([H])C([H])([H])C([H])([H])C2([H])N([H])C(=O)C1([H])N(C(=O)C([H])(N([H])C(=O)C([H])(N([H])C([H])([H])[H])C([H])([H])[H])C(C([H])([H])[H])(C([H])([H])[H])C([H])([H])[H])C([H])([H])c2c([H])c(OC([H])([H])C([H])(C([H])([H])[H])C([H])([H])c3c(C([H])([H])[H])nc([H])n3C([H])([H])C([H])([H])N([H])C(=O)N3C([H])([H])C([H])([H])C([H])([H])C([H])(n4nc(-c5c([H])c([H])c(Oc6c([H])c([H])c(F)c([H])c6F)c([H])c5[H])c(C(=O)N([H])[H])c4N([H])[H])C3([H])[H])c([H])c([H])c2C1([H])[H]

>  <smiles>  (91) 
[H]c1c([H])c([H])c2c(c1[H])C([H])([H])C([H])([H])C([H])([H])C2([H])N([H])C(=O)C1([H])N(C(=O)C([H])(N([H])C(=O)C([H])(N([H])C([H])([H])[H])C([H])([H])[H])C(C([H])([H])[H])(C([H])([H])[H])C([H])([H])[H])C([H])([H])c2c([H])c(OC([H])([H])C([H])(C([H])([H])[H])C([H])([H])c3c(C([H])([H])[H])nc([H])n3C([H])([H])C([H])([H])N([H])C(=O)N3C([H])([H])C([H])([H])C([H])([H])C([H])(n4nc(-c5c([H])c([H])c(Oc6c([H])c([H])c(F)c([H])c6F)c([H])c5[H])c(C(=O)N([H])[H])c4N([H])[H])C3([H])[H])c([H])c([H])c2C1([H])[H]

$$$$
95:0:0
     RDKit          3D

 97105  0  0  1  0  0  0  0  0999 V2000
  -31.8550  -20.7720   20.6040 C   0  0  0  0  0  2  0  0  0  0  0  0
  -31.6870  -19.1440   22.5570 C   0  0  0  0  0  3  0  0  0  0  0  0
  -31.3390  -17.8850   23.0770 C   0  0  0  0  0  3  0  0  0  0  0  0
  -31.3090  -18.2940   20.3170 C   0  0  0  0  0  3  0  0  0  0  0  0
  -31.6360  -19.3670   21.1700 C   0  0  0  0  0  0  0  0  0  0  0  0
  -30.8770  -16.8520   22.2340 C   0  0  0  0  0  0  0  0  0  0  0  0
  -30.8460  -17.0490   20.8240 C   0  0  0  0  0  0  0  0  0  0  0  0
  -30.4000  -15.5590   22.8820 C   0  0  0  0  0  1  0  0  0  0  0  0
  -30.1960  -15.9990   19.8850 C   0  0  0  0  0  3  0  0  0  0  0  0
  -30.9750  -14.6500   19.8090 C   0  0  0  0  0  0  0  0  0  0  0  0
  -30.5540  -12.4600   18.7810 C   0  0  0  0  0  2  0  0  0  0  0  0
  -29.5690  -12.7060   17.6150 C   0  0  0  0  0  2  0  0  0  0  0  0
  -28.1030  -12.6830   18.1050 C   0  0  0  0  0  2  0  0  0  0  0  0
  -27.8620  -13.4930   19.4110 C   0  0  0  0  0  3  0  0  0  0  0  0
  -28.9800  -13.2310   20.4460 C   0  0  0  0  0  2  0  0  0  0  0  0
  -30.2840  -13.4740   19.8090 N   0  0  0  0  0  0  0  0  0  0  0  0
  -32.1550  -14.7120   19.4530 O   0  0  0  0  0  0  0  0  0  0  0  0
  -25.5280  -14.1430   20.2880 C   0  0  0  0  0  0  0  0  0  0  0  0
  -24.4670  -13.3940   20.7100 C   0  0  0  0  0  0  0  0  0  0  0  0
  -24.8940  -12.0330   20.6360 C   0  0  0  0  0  0  0  0  0  0  0  0
  -26.5360  -13.2450   19.9720 N   0  0  0  0  0  0  0  0  0  0  0  0
  -26.1610  -11.9690   20.2460 N   0  0  0  0  0  0  0  0  0  0  0  0
  -24.1500  -10.7900   20.8610 C   0  0  0  0  0  0  0  0  0  0  0  0
  -24.5840   -9.8280   21.8010 C   0  0  0  0  0  3  0  0  0  0  0  0
  -23.8390   -8.6490   22.0130 C   0  0  0  0  0  3  0  0  0  0  0  0
  -22.6490   -8.4220   21.2830 C   0  0  0  0  0  0  0  0  0  0  0  0
  -22.2350   -9.3700   20.3300 C   0  0  0  0  0  3  0  0  0  0  0  0
  -22.9790  -10.5430   20.1180 C   0  0  0  0  0  3  0  0  0  0  0  0
  -21.8800   -7.2910   21.4020 O   0  0  0  0  0  0  0  0  0  0  0  0
  -21.8120   -6.5840   22.5750 C   0  0  0  0  0  0  0  0  0  0  0  0
  -21.3930   -7.1850   23.7800 C   0  0  0  0  0  3  0  0  0  0  0  0
  -21.2660   -6.4080   24.9490 C   0  0  0  0  0  3  0  0  0  0  0  0
  -21.5520   -5.0310   24.9120 C   0  0  0  0  0  0  0  0  0  0  0  0
  -21.9660   -4.4280   23.7110 C   0  0  0  0  0  3  0  0  0  0  0  0
  -22.0920   -5.2030   22.5440 C   0  0  0  0  0  0  0  0  0  0  0  0
  -22.4690   -4.6120   21.3840 F   0  0  0  0  0  0  0  0  0  0  0  0
  -21.4260   -4.2810   26.0330 F   0  0  0  0  0  0  0  0  0  0  0  0
  -23.0990  -13.9000   21.0710 C   0  0  0  0  0  0  0  0  0  0  0  0
  -22.4200  -13.2310   21.9960 N   0  0  0  0  0  0  0  0  0  0  0  0
  -22.6430  -14.9280   20.5700 O   0  0  0  0  0  0  0  0  0  0  0  0
  -22.8030  -12.4020   22.4260 H   0  0  0  0  0  0  0  0  0  0  0  0
  -21.5050  -13.5560   22.2810 H   0  0  0  0  0  0  0  0  0  0  0  0
  -25.7050  -15.5130   20.1310 N   0  0  0  0  0  0  0  0  0  0  0  0
  -24.9580  -16.1720   20.3190 H   0  0  0  0  0  0  0  0  0  0  0  0
  -26.5290  -15.9510   19.7440 H   0  0  0  0  0  0  0  0  0  0  0  0
  -30.0100  -16.4870   18.4050 C   0  0  0  0  0  2  0  0  0  0  0  0
  -29.6220  -18.2840   16.6780 C   0  0  0  0  0  1  0  0  0  0  0  0
  -27.8130  -17.8130   18.3930 C   0  0  0  0  0  1  0  0  0  0  0  0
  -29.3190  -17.8450   18.1210 C   0  0  0  0  0  3  0  0  0  0  0  0
  -30.5250  -21.5210   20.3330 C   0  0  0  0  0  2  0  0  0  0  0  0
  -30.7160  -22.8970   19.6340 C   0  0  0  0  0  2  0  0  0  0  0  0
  -28.4700  -22.9600   18.6040 C   0  0  0  0  0  1  0  0  0  0  0  0
  -29.4650  -23.7010   19.4270 N   0  0  2  0  0  4  0  0  0  0  0  0
  -29.0420  -23.8390   20.3340 H   0  0  0  0  0  0  0  0  0  0  0  0
  -29.7770  -25.0750   18.9010 C   0  0  0  0  0  2  0  0  0  0  0  0
  -28.5890  -26.0710   18.7710 C   0  0  0  0  0  2  0  0  0  0  0  0
  -28.2450  -26.6990   20.0130 O   0  0  0  0  0  0  0  0  0  0  0  0
  -24.5570  -31.9230   23.1790 C   0  0  0  0  0  0  0  0  0  0  0  0
  -27.0720  -27.4290   20.0450 C   0  0  0  0  0  0  0  0  0  0  0  0
  -23.2820  -30.5010   21.6060 C   0  0  0  0  0  3  0  0  0  0  0  0
  -24.6760  -28.9360   20.1510 C   0  0  0  0  0  0  0  0  0  0  0  0
  -25.8000  -30.8430   21.3100 C   0  0  0  0  0  2  0  0  0  0  0  0
  -25.8560  -29.4610   20.6900 C   0  0  0  0  0  0  0  0  0  0  0  0
  -27.0530  -28.7080   20.6470 C   0  0  0  0  0  3  0  0  0  0  0  0
  -25.8620  -26.9050   19.5310 C   0  0  0  0  0  3  0  0  0  0  0  0
  -24.6720  -27.6540   19.5760 C   0  0  0  0  0  3  0  0  0  0  0  0
  -23.4360  -29.7970   20.2300 C   0  0  0  0  0  2  0  0  0  0  0  0
  -24.5670  -31.1030   22.0900 N   0  0  0  0  0  0  0  0  0  0  0  0
  -23.4980  -32.2100   23.7540 O   0  0  0  0  0  0  0  0  0  0  0  0
  -22.6620  -29.4990   22.6060 C   0  0  0  0  0  0  0  0  0  0  0  0
  -21.3390  -29.2920   22.5060 N   0  0  0  0  0  0  0  0  0  0  0  0
  -23.3680  -28.9110   23.4310 O   0  0  0  0  0  0  0  0  0  0  0  0
  -20.8290  -29.8190   21.8100 H   0  0  0  0  0  0  0  0  0  0  0  0
  -18.0020  -28.0320   23.0680 C   0  0  0  0  0  0  0  0  0  0  0  0
  -20.5510  -28.3660   23.3180 C   0  0  0  0  0  3  0  0  0  0  0  0
  -20.6910  -26.9160   22.8000 C   0  0  0  0  0  2  0  0  0  0  0  0
  -19.5930  -26.5230   21.8050 C   0  0  0  0  0  2  0  0  0  0  0  0
  -18.2100  -26.6600   22.4490 C   0  0  0  0  0  2  0  0  0  0  0  0
  -19.1010  -28.8390   23.4630 C   0  0  0  0  0  0  0  0  0  0  0  0
  -18.8510  -30.1200   24.0010 C   0  0  0  0  0  3  0  0  0  0  0  0
  -17.5360  -30.5940   24.1510 C   0  0  0  0  0  3  0  0  0  0  0  0
  -16.4500  -29.7850   23.7730 C   0  0  0  0  0  3  0  0  0  0  0  0
  -16.6840  -28.5050   23.2380 C   0  0  0  0  0  3  0  0  0  0  0  0
  -25.8710  -32.5540   23.7380 C   0  0  0  0  0  3  0  0  0  0  0  0
  -26.4400  -31.7950   24.9980 C   0  0  1  0  0  0  0  0  0  0  0  0
  -25.3870  -31.5560   26.1050 C   0  0  0  0  0  1  0  0  0  0  0  0
  -27.0210  -30.4200   24.5950 C   0  0  0  0  0  1  0  0  0  0  0  0
  -27.6050  -32.6050   25.6170 C   0  0  0  0  0  1  0  0  0  0  0  0
  -25.5820  -33.9580   24.0600 N   0  0  0  0  0  0  0  0  0  0  0  0
  -25.9020  -34.9980   23.2780 C   0  0  0  0  0  0  0  0  0  0  0  0
  -26.5410  -34.8780   22.2300 O   0  0  0  0  0  0  0  0  0  0  0  0
  -25.0120  -34.1280   24.8760 H   0  0  0  0  0  0  0  0  0  0  0  0
  -24.1790  -36.8010   22.9470 C   0  0  0  0  0  1  0  0  0  0  0  0
  -25.4350  -36.3940   23.7330 C   0  0  0  0  0  3  0  0  0  0  0  0
  -27.5960  -37.2700   24.5030 C   0  0  0  0  0  1  0  0  0  0  0  0
  -26.4730  -37.4380   23.5860 N   0  0  0  0  0  0  0  0  0  0  0  0
  -26.0760  -38.3620   23.7380 H   0  0  0  0  0  0  0  0  0  0  0  0
  1  5  1  0
  2  3  1  0
  4  7  2  0
  4  5  1  0
  5  2  2  0
  6  8  1  0
  6  3  2  0
  7  6  1  0
  9 46  1  0
  9  7  1  0
 10 16  1  0
 10  9  1  0
 11 16  1  0
 12 13  1  0
 12 11  1  0
 14 13  1  0
 14 21  1  0
 14 15  1  0
 16 15  1  0
 17 10  2  0
 18 19  2  0
 19 38  1  0
 20 19  1  0
 20 23  1  0
 21 22  1  0
 21 18  1  0
 22 20  2  0
 23 24  1  0
 24 25  2  0
 26 29  1  0
 26 25  1  0
 27 26  2  0
 28 27  1  0
 28 23  2  0
 29 30  1  0
 30 31  1  0
 31 32  2  0
 33 32  1  0
 33 37  1  0
 34 33  2  0
 35 30  2  0
 35 34  1  0
 36 35  1  0
 38 39  1  0
 39 42  1  0
 39 41  1  0
 40 38  2  0
 43 18  1  0
 43 44  1  0
 45 43  1  0
 47 49  1  0
 49 48  1  0
 49 46  1  0
 50  1  1  0
 51 50  1  0
 52 53  1  0
 53 51  1  0
 53 54  1  1
 55 53  1  0
 56 55  1  0
 56 57  1  0
 57 59  1  0
 58 69  2  0
 59 64  1  0
 60 68  1  0
 60 70  1  0
 61 67  1  0
 61 63  1  0
 62 68  1  0
 63 62  1  0
 64 63  2  0
 65 66  1  0
 65 59  2  0
 66 61  2  0
 67 60  1  0
 68 58  1  0
 70 72  2  0
 71 70  1  0
 73 71  1  0
 74 83  2  0
 74 79  1  0
 75 71  1  0
 75 79  1  0
 76 75  1  0
 77 78  1  0
 77 76  1  0
 78 74  1  0
 79 80  2  0
 80 81  1  0
 82 81  2  0
 83 82  1  0
 84 58  1  0
 84 89  1  0
 84 85  1  0
 85 88  1  1
 85 86  1  0
 87 85  1  0
 89 92  1  0
 90 94  1  0
 90 89  1  0
 91 90  2  0
 94 93  1  0
 96 94  1  0
 96 97  1  0
 96 95  1  0
M  ISO  4   9 100  10 100  56 101  57 101
M  END
>  <TORSDO>  (92) 
F 25

>  <SCORE>  (92) 
-9.562

>  <name>  (92) 
95

>  <ligand_id>  (92) 
95

>  <original_smiles>  (92) 
[H]c1c([H])c([H])c2c(c1[H])C([H])([H])C([H])([H])C([H])([H])C2([H])N([H])C(=O)C1([H])N(C(=O)C([H])(N([H])C(=O)C([H])(N([H])C([H])([H])[H])C([H])([H])[H])C(C([H])([H])[H])(C([H])([H])[H])C([H])([H])[H])C([H])([H])c2c([H])c(OC([H])([H])C([H])([H])[N+]([H])(C([H])([H])[H])C([H])([H])C([H])([H])C([H])([H])c3c([H])c([H])c(C([H])([H])[H])c(C([H])(C(=O)N4C([H])([H])C([H])([H])C([H])([H])C([H])(n5nc(-c6c([H])c([H])c(Oc7c([H])c([H])c(F)c([H])c7F)c([H])c6[H])c(C(=O)N([H])[H])c5N([H])[H])C4([H])[H])C([H])([H])C([H])(C([H])([H])[H])C([H])([H])[H])c3[H])c([H])c([H])c2C1([H])[H]

>  <smiles>  (92) 
[H]c1c([H])c([H])c2c(c1[H])C([H])([H])C([H])([H])C([H])([H])C2([H])N([H])C(=O)C1([H])N(C(=O)C([H])(N([H])C(=O)C([H])(N([H])C([H])([H])[H])C([H])([H])[H])C(C([H])([H])[H])(C([H])([H])[H])C([H])([H])[H])C([H])([H])c2c([H])c(OC([H])([H])C([H])([H])[N+]([H])(C([H])([H])[H])C([H])([H])C([H])([H])C([H])([H])c3c([H])c([H])c(C([H])([H])[H])c(C([H])(C(=O)N4C([H])([H])C([H])([H])C([H])([H])C([H])(n5nc(-c6c([H])c([H])c(Oc7c([H])c([H])c(F)c([H])c7F)c([H])c6[H])c(C(=O)N([H])[H])c5N([H])[H])C4([H])[H])C([H])([H])C([H])(C([H])([H])[H])C([H])([H])[H])c3[H])c([H])c([H])c2C1([H])[H]

$$$$
